=
 OpenBabel11052417263D

 25 28  0  0  1  0  0  0  0  0999 V2000
  186.6830  176.9450  143.9420 C   0  0  0  0  0  0  0  0  0  0  0  0
  187.9070  176.2200  143.9980 C   0  0  0  0  0  0  0  0  0  0  0  0
  186.6950  176.6480  141.5190 C   0  0  0  0  0  3  0  0  0  0  0  0
  186.0010  177.4790  145.0740 C   0  0  0  0  0  0  0  0  0  0  0  0
  184.2310  178.7420  146.1540 C   0  0  0  0  0  2  0  0  0  0  0  0
  187.8610  175.9650  141.6030 N   0  0  0  0  0  0  0  0  0  0  0  0
  184.2490  178.3750  143.6590 C   0  0  0  0  0  3  0  0  0  0  0  0
  184.8220  178.1900  144.9140 C   0  0  0  0  0  0  0  0  0  0  0  0
  189.6950  175.0240  142.8200 C   0  0  0  0  0  0  0  0  0  0  0  0
  190.3240  174.5100  141.5700 C   0  0  0  0  0  1  0  0  0  0  0  0
  188.5780  175.9630  145.2020 C   0  0  0  0  0  3  0  0  0  0  0  0
  185.3470  178.7400  147.1880 C   0  0  0  0  0  2  0  0  0  0  0  0
  186.0870  177.1480  142.6660 C   0  0  0  0  0  0  0  0  0  0  0  0
  184.8840  177.8500  142.5360 C   0  0  0  0  0  3  0  0  0  0  0  0
  190.3360  174.7880  144.0380 C   0  0  0  0  0  3  0  0  0  0  0  0
  186.5010  177.3820  146.7930 S   0  0  0  0  0  0  0  0  0  0  0  0
  189.7770  175.2480  145.2270 C   0  0  0  0  0  0  0  0  0  0  0  0
  188.4820  175.7380  142.7910 C   0  0  0  0  0  0  0  0  0  0  0  0
  190.4780  175.0150  146.5210 C   0  0  0  0  0  2  0  0  0  0  0  0
  191.4580  176.0650  146.7500 N   0  0  0  0  0  0  0  0  0  0  0  0
  191.2360  176.5580  148.0980 C   0  0  0  0  0  1  0  0  0  0  0  0
  192.7650  175.4280  146.7500 C   0  0  0  0  0  2  0  0  0  0  0  0
  193.0490  176.9760  144.9080 N   0  0  0  0  0  1  0  0  0  0  0  0
  193.7530  176.2650  145.9590 C   0  0  1  0  0  3  0  0  0  0  0  0
  194.3770  177.1860  146.8000 O   0  0  0  0  0  1  0  0  0  0  0  0
  1  2  1  0  0  0  0
  1  4  2  0  0  0  0
  2 11  1  0  0  0  0
  3  6  2  0  0  0  0
  3 13  1  0  0  0  0
  4 16  1  0  0  0  0
  5 12  1  0  0  0  0
  6 18  1  0  0  0  0
  7  8  2  0  0  0  0
  8  4  1  0  0  0  0
  8  5  1  0  0  0  0
  9 15  2  0  0  0  0
 10  9  1  0  0  0  0
 11 17  2  0  0  0  0
 13  1  1  0  0  0  0
 14 13  2  0  0  0  0
 14  7  1  0  0  0  0
 15 17  1  0  0  0  0
 16 12  1  0  0  0  0
 17 19  1  0  0  0  0
 18  9  1  0  0  0  0
 18  2  2  0  0  0  0
 19 20  1  0  0  0  0
 20 22  1  0  0  0  0
 20 21  1  0  0  0  0
 24 23  1  6  0  0  0
 24 22  1  0  0  0  0
 24 25  1  0  0  0  0
M  END
>  <MODEL>
1

>  <REMARK>
 VINA RESULT:      -7.3      0.000      0.000
  Name = 
  4 active torsions:
  status: ('A' for Active; 'I' for Inactive)
    1  A    between atoms: C_6  and  N_15
    2  A    between atoms: C_6  and  C_23
    3  A    between atoms: C_7  and  C_21
    4  A    between atoms: N_15  and  C_21
                            x       y       z     vdW  Elec       q    Type
                         _______ _______ _______ _____ _____    ______ ____

>  <TORSDO>
F 4

$$$$
=
 OpenBabel11052417263D

 25 28  0  0  1  0  0  0  0  0999 V2000
  186.1900  177.2960  145.0850 C   0  0  0  0  0  0  0  0  0  0  0  0
  187.4030  176.5600  144.9650 C   0  0  0  0  0  0  0  0  0  0  0  0
  186.3750  177.0780  147.5100 C   0  0  0  0  0  3  0  0  0  0  0  0
  185.4390  177.8120  143.9900 C   0  0  0  0  0  0  0  0  0  0  0  0
  183.5340  178.9430  142.9940 C   0  0  0  0  0  2  0  0  0  0  0  0
  187.5250  176.3770  147.3640 N   0  0  0  0  0  0  0  0  0  0  0  0
  183.7820  178.7410  145.4950 C   0  0  0  0  0  3  0  0  0  0  0  0
  184.2560  178.5000  144.2090 C   0  0  0  0  0  0  0  0  0  0  0  0
  189.2530  175.3690  146.0490 C   0  0  0  0  0  0  0  0  0  0  0  0
  189.9570  174.8740  147.2660 C   0  0  0  0  0  1  0  0  0  0  0  0
  187.9840  176.2590  143.7250 C   0  0  0  0  0  3  0  0  0  0  0  0
  184.0910  178.1090  141.8490 C   0  0  0  0  0  2  0  0  0  0  0  0
  185.6890  177.5460  146.3940 C   0  0  0  0  0  0  0  0  0  0  0  0
  184.5040  178.2640  146.5870 C   0  0  0  0  0  3  0  0  0  0  0  0
  189.8010  175.0870  144.7970 C   0  0  0  0  0  3  0  0  0  0  0  0
  185.8150  177.6600  142.2430 S   0  0  0  0  0  0  0  0  0  0  0  0
  189.1740  175.5360  143.6370 C   0  0  0  0  0  0  0  0  0  0  0  0
  188.0560  176.1040  146.1430 C   0  0  0  0  0  0  0  0  0  0  0  0
  189.7510  175.2100  142.3030 C   0  0  0  0  0  2  0  0  0  0  0  0
  189.1040  174.0260  141.7590 N   0  0  0  0  0  0  0  0  0  0  0  0
  188.5290  174.4120  140.4820 C   0  0  0  0  0  1  0  0  0  0  0  0
  190.1580  173.0670  141.4680 C   0  0  0  0  0  2  0  0  0  0  0  0
  188.8670  171.9290  143.1730 N   0  0  0  0  0  1  0  0  0  0  0  0
  190.1540  171.9580  142.5050 C   0  0  1  0  0  3  0  0  0  0  0  0
  190.3830  170.7290  141.8870 O   0  0  0  0  0  1  0  0  0  0  0  0
  1 13  1  0  0  0  0
  2  1  2  0  0  0  0
  2 18  1  0  0  0  0
  4  8  2  0  0  0  0
  4  1  1  0  0  0  0
  5  8  1  0  0  0  0
  6  3  1  0  0  0  0
  7 14  2  0  0  0  0
  8  7  1  0  0  0  0
  9 18  1  0  0  0  0
  9 10  1  0  0  0  0
 11  2  1  0  0  0  0
 12 16  1  0  0  0  0
 12  5  1  0  0  0  0
 13 14  1  0  0  0  0
 13  3  2  0  0  0  0
 15  9  2  0  0  0  0
 16  4  1  0  0  0  0
 17 11  2  0  0  0  0
 17 15  1  0  0  0  0
 18  6  2  0  0  0  0
 19 17  1  0  0  0  0
 20 19  1  0  0  0  0
 21 20  1  0  0  0  0
 22 20  1  0  0  0  0
 22 24  1  0  0  0  0
 24 25  1  6  0  0  0
 24 23  1  0  0  0  0
M  END
>  <MODEL>
2

>  <REMARK>
 VINA RESULT:      -7.3      2.909      4.766
  Name = 
  4 active torsions:
  status: ('A' for Active; 'I' for Inactive)
    1  A    between atoms: C_6  and  N_15
    2  A    between atoms: C_6  and  C_23
    3  A    between atoms: C_7  and  C_21
    4  A    between atoms: N_15  and  C_21
                            x       y       z     vdW  Elec       q    Type
                         _______ _______ _______ _____ _____    ______ ____

>  <TORSDO>
F 4

$$$$
=
 OpenBabel11052417263D

 25 28  0  0  1  0  0  0  0  0999 V2000
  187.3690  177.7200  144.4840 C   0  0  0  0  0  0  0  0  0  0  0  0
  188.7310  177.4130  144.7640 C   0  0  0  0  0  0  0  0  0  0  0  0
  186.9360  177.6830  146.8860 C   0  0  0  0  0  3  0  0  0  0  0  0
  186.8310  177.9150  143.1790 C   0  0  0  0  0  0  0  0  0  0  0  0
  185.0260  178.3220  141.6060 C   0  0  0  0  0  2  0  0  0  0  0  0
  188.2360  177.3870  147.1210 N   0  0  0  0  0  0  0  0  0  0  0  0
  184.6240  178.3240  144.0950 C   0  0  0  0  0  3  0  0  0  0  0  0
  185.4830  178.1920  143.0080 C   0  0  0  0  0  0  0  0  0  0  0  0
  190.4790  176.9360  146.4160 C   0  0  0  0  0  0  0  0  0  0  0  0
  190.9350  176.7510  147.8230 C   0  0  0  0  0  1  0  0  0  0  0  0
  189.6940  177.2610  143.7560 C   0  0  0  0  0  3  0  0  0  0  0  0
  186.1000  177.6640  140.7520 C   0  0  0  0  0  2  0  0  0  0  0  0
  186.4760  177.8530  145.5840 C   0  0  0  0  0  0  0  0  0  0  0  0
  185.1250  178.1560  145.3840 C   0  0  0  0  0  3  0  0  0  0  0  0
  191.4100  176.7910  145.3860 C   0  0  0  0  0  3  0  0  0  0  0  0
  187.7010  177.8170  141.6150 S   0  0  0  0  0  0  0  0  0  0  0  0
  191.0220  176.9610  144.0600 C   0  0  0  0  0  0  0  0  0  0  0  0
  189.1400  177.2470  146.1150 C   0  0  0  0  0  0  0  0  0  0  0  0
  192.0140  176.7800  142.9630 C   0  0  0  0  0  2  0  0  0  0  0  0
  192.9620  175.7370  143.3200 N   0  0  0  0  0  0  0  0  0  0  0  0
  192.4990  174.5150  142.6870 C   0  0  0  0  0  1  0  0  0  0  0  0
  194.2250  176.0810  142.6850 C   0  0  0  0  0  2  0  0  0  0  0  0
  196.4870  176.7930  143.1780 N   0  0  0  0  0  1  0  0  0  0  0  0
  195.3420  176.0820  143.7130 C   0  0  1  0  0  3  0  0  0  0  0  0
  194.9130  176.7100  144.8820 O   0  0  0  0  0  1  0  0  0  0  0  0
  1  2  2  0  0  0  0
  1 13  1  0  0  0  0
  2 18  1  0  0  0  0
  3  6  1  0  0  0  0
  4  1  1  0  0  0  0
  5  8  1  0  0  0  0
  7 14  2  0  0  0  0
  8  4  2  0  0  0  0
  8  7  1  0  0  0  0
  9 10  1  0  0  0  0
 11 17  2  0  0  0  0
 11  2  1  0  0  0  0
 12  5  1  0  0  0  0
 12 16  1  0  0  0  0
 13  3  2  0  0  0  0
 14 13  1  0  0  0  0
 15  9  2  0  0  0  0
 16  4  1  0  0  0  0
 17 15  1  0  0  0  0
 18  9  1  0  0  0  0
 18  6  2  0  0  0  0
 19 20  1  0  0  0  0
 19 17  1  0  0  0  0
 21 20  1  0  0  0  0
 22 20  1  0  0  0  0
 22 24  1  0  0  0  0
 24 23  1  6  0  0  0
 24 25  1  0  0  0  0
M  END
>  <MODEL>
3

>  <REMARK>
 VINA RESULT:      -7.3      2.342      3.961
  Name = 
  4 active torsions:
  status: ('A' for Active; 'I' for Inactive)
    1  A    between atoms: C_6  and  N_15
    2  A    between atoms: C_6  and  C_23
    3  A    between atoms: C_7  and  C_21
    4  A    between atoms: N_15  and  C_21
                            x       y       z     vdW  Elec       q    Type
                         _______ _______ _______ _____ _____    ______ ____

>  <TORSDO>
F 4

$$$$
=
 OpenBabel11052417263D

 25 28  0  0  1  0  0  0  0  0999 V2000
  185.7520  177.5770  143.9340 C   0  0  0  0  0  0  0  0  0  0  0  0
  186.6270  176.9290  143.0170 C   0  0  0  0  0  0  0  0  0  0  0  0
  184.4800  178.4160  142.0270 C   0  0  0  0  0  3  0  0  0  0  0  0
  185.8770  177.5250  145.3530 C   0  0  0  0  0  0  0  0  0  0  0  0
  185.2430  178.1260  147.6190 C   0  0  0  0  0  2  0  0  0  0  0  0
  185.3310  177.7910  141.1780 N   0  0  0  0  0  0  0  0  0  0  0  0
  183.9240  178.9340  145.6280 C   0  0  0  0  0  3  0  0  0  0  0  0
  184.9850  178.2090  146.1630 C   0  0  0  0  0  0  0  0  0  0  0  0
  187.2430  176.4320  140.6950 C   0  0  0  0  0  0  0  0  0  0  0  0
  187.0190  176.5550  139.2270 C   0  0  0  0  0  1  0  0  0  0  0  0
  187.7260  176.1640  143.4330 C   0  0  0  0  0  3  0  0  0  0  0  0
  186.6890  177.6740  147.7620 C   0  0  0  0  0  2  0  0  0  0  0  0
  184.6670  178.3280  143.4030 C   0  0  0  0  0  0  0  0  0  0  0  0
  183.7660  178.9900  144.2450 C   0  0  0  0  0  3  0  0  0  0  0  0
  188.3280  175.6800  141.1460 C   0  0  0  0  0  3  0  0  0  0  0  0
  187.1290  176.6660  146.3060 S   0  0  0  0  0  0  0  0  0  0  0  0
  188.5660  175.5390  142.5110 C   0  0  0  0  0  0  0  0  0  0  0  0
  186.3880  177.0590  141.6220 C   0  0  0  0  0  0  0  0  0  0  0  0
  189.7410  174.7550  142.9860 C   0  0  0  0  0  2  0  0  0  0  0  0
  189.7380  174.6900  144.4390 N   0  0  0  0  0  0  0  0  0  0  0  0
  189.6870  173.2820  144.7950 C   0  0  0  0  0  1  0  0  0  0  0  0
  191.0320  175.1840  144.8850 C   0  0  0  0  0  2  0  0  0  0  0  0
  192.0330  176.5480  146.6180 N   0  0  0  0  0  1  0  0  0  0  0  0
  190.8450  176.3780  145.8040 C   0  0  1  0  0  3  0  0  0  0  0  0
  190.6330  177.5310  145.0480 O   0  0  0  0  0  1  0  0  0  0  0  0
  1  4  2  0  0  0  0
  2 11  1  0  0  0  0
  2  1  1  0  0  0  0
  3 13  1  0  0  0  0
  4  8  1  0  0  0  0
  4 16  1  0  0  0  0
  5 12  1  0  0  0  0
  6 18  1  0  0  0  0
  6  3  2  0  0  0  0
  7  8  2  0  0  0  0
  8  5  1  0  0  0  0
  9 15  2  0  0  0  0
  9 18  1  0  0  0  0
 10  9  1  0  0  0  0
 13  1  1  0  0  0  0
 13 14  2  0  0  0  0
 14  7  1  0  0  0  0
 15 17  1  0  0  0  0
 16 12  1  0  0  0  0
 17 19  1  0  0  0  0
 17 11  2  0  0  0  0
 18  2  2  0  0  0  0
 19 20  1  0  0  0  0
 20 21  1  0  0  0  0
 20 22  1  0  0  0  0
 22 24  1  0  0  0  0
 24 25  1  6  0  0  0
 24 23  1  0  0  0  0
M  END
>  <MODEL>
4

>  <REMARK>
 VINA RESULT:      -6.9      1.675      2.802
  Name = 
  4 active torsions:
  status: ('A' for Active; 'I' for Inactive)
    1  A    between atoms: C_6  and  N_15
    2  A    between atoms: C_6  and  C_23
    3  A    between atoms: C_7  and  C_21
    4  A    between atoms: N_15  and  C_21
                            x       y       z     vdW  Elec       q    Type
                         _______ _______ _______ _____ _____    ______ ____

>  <TORSDO>
F 4

$$$$
=
 OpenBabel11052417263D

 25 28  0  0  1  0  0  0  0  0999 V2000
  185.9230  177.9260  143.3930 C   0  0  0  0  0  0  0  0  0  0  0  0
  186.6580  177.7820  144.6030 C   0  0  0  0  0  0  0  0  0  0  0  0
  184.0470  178.7680  144.7100 C   0  0  0  0  0  3  0  0  0  0  0  0
  186.4200  177.6100  142.0960 C   0  0  0  0  0  0  0  0  0  0  0  0
  186.2220  177.3570  139.6880 C   0  0  0  0  0  2  0  0  0  0  0  0
  184.7700  178.6160  145.8460 N   0  0  0  0  0  0  0  0  0  0  0  0
  184.3220  178.2670  141.0740 C   0  0  0  0  0  3  0  0  0  0  0  0
  185.6170  177.7670  140.9770 C   0  0  0  0  0  0  0  0  0  0  0  0
  186.7480  177.9980  147.0450 C   0  0  0  0  0  0  0  0  0  0  0  0
  186.1270  178.3590  148.3510 C   0  0  0  0  0  1  0  0  0  0  0  0
  187.9720  177.2950  144.6350 C   0  0  0  0  0  3  0  0  0  0  0  0
  187.3980  176.4590  140.0440 C   0  0  0  0  0  2  0  0  0  0  0  0
  184.5950  178.4320  143.4760 C   0  0  0  0  0  0  0  0  0  0  0  0
  183.8140  178.6020  142.3280 C   0  0  0  0  0  3  0  0  0  0  0  0
  188.0550  177.5080  147.0370 C   0  0  0  0  0  3  0  0  0  0  0  0
  188.0390  176.9640  141.6770 S   0  0  0  0  0  0  0  0  0  0  0  0
  188.6700  177.1640  145.8360 C   0  0  0  0  0  0  0  0  0  0  0  0
  186.0430  178.1380  145.8340 C   0  0  0  0  0  0  0  0  0  0  0  0
  190.0560  176.6180  145.8370 C   0  0  0  0  0  2  0  0  0  0  0  0
  190.1440  175.4910  146.7520 N   0  0  0  0  0  0  0  0  0  0  0  0
  189.6920  174.3210  146.0190 C   0  0  0  0  0  1  0  0  0  0  0  0
  191.5560  175.2850  147.0320 C   0  0  0  0  0  2  0  0  0  0  0  0
  193.4790  176.7200  146.6970 N   0  0  0  0  0  1  0  0  0  0  0  0
  192.4030  176.0280  146.0140 C   0  0  1  0  0  3  0  0  0  0  0  0
  192.9420  175.1280  145.0960 O   0  0  0  0  0  1  0  0  0  0  0  0
  1 13  1  0  0  0  0
  1  2  2  0  0  0  0
  2 11  1  0  0  0  0
  2 18  1  0  0  0  0
  3  6  1  0  0  0  0
  4  1  1  0  0  0  0
  5 12  1  0  0  0  0
  5  8  1  0  0  0  0
  7 14  2  0  0  0  0
  8  7  1  0  0  0  0
  8  4  2  0  0  0  0
  9 10  1  0  0  0  0
 11 17  2  0  0  0  0
 12 16  1  0  0  0  0
 13  3  2  0  0  0  0
 14 13  1  0  0  0  0
 15  9  2  0  0  0  0
 16  4  1  0  0  0  0
 17 19  1  0  0  0  0
 17 15  1  0  0  0  0
 18  6  2  0  0  0  0
 18  9  1  0  0  0  0
 19 20  1  0  0  0  0
 20 22  1  0  0  0  0
 21 20  1  0  0  0  0
 24 25  1  6  0  0  0
 24 23  1  0  0  0  0
 24 22  1  0  0  0  0
M  END
>  <MODEL>
5

>  <REMARK>
 VINA RESULT:      -6.8      2.315      4.171
  Name = 
  4 active torsions:
  status: ('A' for Active; 'I' for Inactive)
    1  A    between atoms: C_6  and  N_15
    2  A    between atoms: C_6  and  C_23
    3  A    between atoms: C_7  and  C_21
    4  A    between atoms: N_15  and  C_21
                            x       y       z     vdW  Elec       q    Type
                         _______ _______ _______ _____ _____    ______ ____

>  <TORSDO>
F 4

$$$$
=
 OpenBabel11052417263D

 25 28  0  0  1  0  0  0  0  0999 V2000
  186.8950  177.2110  142.8470 C   0  0  0  0  0  0  0  0  0  0  0  0
  187.1440  177.1610  144.2480 C   0  0  0  0  0  0  0  0  0  0  0  0
  185.3380  179.0460  143.2560 C   0  0  0  0  0  3  0  0  0  0  0  0
  187.5100  176.3640  141.8800 C   0  0  0  0  0  0  0  0  0  0  0  0
  187.8470  175.5100  139.6320 C   0  0  0  0  0  2  0  0  0  0  0  0
  185.5920  178.9730  144.5840 N   0  0  0  0  0  0  0  0  0  0  0  0
  186.2840  177.4350  140.0850 C   0  0  0  0  0  3  0  0  0  0  0  0
  187.1850  176.4770  140.5380 C   0  0  0  0  0  0  0  0  0  0  0  0
  186.6880  178.0330  146.4940 C   0  0  0  0  0  0  0  0  0  0  0  0
  185.9860  178.9690  147.4180 C   0  0  0  0  0  1  0  0  0  0  0  0
  188.0350  176.2450  144.8240 C   0  0  0  0  0  3  0  0  0  0  0  0
  188.3510  174.3810  140.5200 C   0  0  0  0  0  2  0  0  0  0  0  0
  185.9710  178.1820  142.3690 C   0  0  0  0  0  0  0  0  0  0  0  0
  185.6790  178.2890  141.0040 C   0  0  0  0  0  3  0  0  0  0  0  0
  187.5820  177.1070  147.0330 C   0  0  0  0  0  3  0  0  0  0  0  0
  188.7050  175.0610  142.1760 S   0  0  0  0  0  0  0  0  0  0  0  0
  188.2600  176.2190  146.2010 C   0  0  0  0  0  0  0  0  0  0  0  0
  186.4640  178.0680  145.1050 C   0  0  0  0  0  0  0  0  0  0  0  0
  189.1940  175.2150  146.7840 C   0  0  0  0  0  2  0  0  0  0  0  0
  190.5570  175.7200  146.7360 N   0  0  0  0  0  0  0  0  0  0  0  0
  191.1250  175.5210  148.0580 C   0  0  0  0  0  1  0  0  0  0  0  0
  191.2960  174.8510  145.8330 C   0  0  0  0  0  2  0  0  0  0  0  0
  193.0400  176.3530  145.0770 N   0  0  0  0  0  1  0  0  0  0  0  0
  191.8380  175.6540  144.6640 C   0  0  1  0  0  3  0  0  0  0  0  0
  192.1390  174.8030  143.6010 O   0  0  0  0  0  1  0  0  0  0  0  0
  1  2  2  0  0  0  0
  2 11  1  0  0  0  0
  2 18  1  0  0  0  0
  3  6  1  0  0  0  0
  4 16  1  0  0  0  0
  4  1  1  0  0  0  0
  5 12  1  0  0  0  0
  5  8  1  0  0  0  0
  6 18  2  0  0  0  0
  7  8  1  0  0  0  0
  7 14  2  0  0  0  0
  8  4  2  0  0  0  0
  9 15  2  0  0  0  0
  9 10  1  0  0  0  0
 11 17  2  0  0  0  0
 12 16  1  0  0  0  0
 13  1  1  0  0  0  0
 13  3  2  0  0  0  0
 14 13  1  0  0  0  0
 17 19  1  0  0  0  0
 17 15  1  0  0  0  0
 18  9  1  0  0  0  0
 20 19  1  0  0  0  0
 20 21  1  0  0  0  0
 22 20  1  0  0  0  0
 24 25  1  6  0  0  0
 24 23  1  0  0  0  0
 24 22  1  0  0  0  0
M  END
>  <MODEL>
6

>  <REMARK>
 VINA RESULT:      -6.7      2.225      4.244
  Name = 
  4 active torsions:
  status: ('A' for Active; 'I' for Inactive)
    1  A    between atoms: C_6  and  N_15
    2  A    between atoms: C_6  and  C_23
    3  A    between atoms: C_7  and  C_21
    4  A    between atoms: N_15  and  C_21
                            x       y       z     vdW  Elec       q    Type
                         _______ _______ _______ _____ _____    ______ ____

>  <TORSDO>
F 4

$$$$
=
 OpenBabel11052417263D

 25 28  0  0  1  0  0  0  0  0999 V2000
  191.1750  176.2150  145.3580 C   0  0  0  0  0  0  0  0  0  0  0  0
  189.7670  176.4070  145.2850 C   0  0  0  0  0  0  0  0  0  0  0  0
  191.0640  176.7910  147.7280 C   0  0  0  0  0  3  0  0  0  0  0  0
  192.0020  175.8250  144.2640 C   0  0  0  0  0  0  0  0  0  0  0  0
  194.1340  175.3270  143.2150 C   0  0  0  0  0  2  0  0  0  0  0  0
  189.7250  176.9700  147.6260 N   0  0  0  0  0  0  0  0  0  0  0  0
  193.9760  175.8790  145.6700 C   0  0  0  0  0  3  0  0  0  0  0  0
  193.3700  175.6840  144.4320 C   0  0  0  0  0  0  0  0  0  0  0  0
  187.6660  176.9960  146.4050 C   0  0  0  0  0  0  0  0  0  0  0  0
  186.8980  177.4060  147.6150 C   0  0  0  0  0  1  0  0  0  0  0  0
  189.0420  176.2330  144.0970 C   0  0  0  0  0  3  0  0  0  0  0  0
  193.2300  175.6640  142.0380 C   0  0  0  0  0  2  0  0  0  0  0  0
  191.8110  176.4170  146.6150 C   0  0  0  0  0  0  0  0  0  0  0  0
  193.1910  176.2440  146.7620 C   0  0  0  0  0  3  0  0  0  0  0  0
  186.9780  176.8150  145.2040 C   0  0  0  0  0  3  0  0  0  0  0  0
  191.4940  175.4980  142.5760 S   0  0  0  0  0  0  0  0  0  0  0  0
  187.6610  176.4280  144.0540 C   0  0  0  0  0  0  0  0  0  0  0  0
  189.0580  176.7930  146.4550 C   0  0  0  0  0  0  0  0  0  0  0  0
  186.9250  176.2610  142.7700 C   0  0  0  0  0  2  0  0  0  0  0  0
  186.6730  177.5620  142.1700 N   0  0  0  0  0  0  0  0  0  0  0  0
  187.3520  177.5700  140.8860 C   0  0  0  0  0  1  0  0  0  0  0  0
  185.2480  177.6270  141.8870 C   0  0  0  0  0  2  0  0  0  0  0  0
  185.2360  179.4160  143.5210 N   0  0  0  0  0  1  0  0  0  0  0  0
  184.5110  178.2460  143.0610 C   0  0  1  0  0  3  0  0  0  0  0  0
  183.2270  178.6230  142.6700 O   0  0  0  0  0  1  0  0  0  0  0  0
  1 13  1  0  0  0  0
  2  1  2  0  0  0  0
  2 18  1  0  0  0  0
  4  8  2  0  0  0  0
  4  1  1  0  0  0  0
  5  8  1  0  0  0  0
  6  3  1  0  0  0  0
  7 14  2  0  0  0  0
  8  7  1  0  0  0  0
  9 18  1  0  0  0  0
  9 10  1  0  0  0  0
 11  2  1  0  0  0  0
 12 16  1  0  0  0  0
 12  5  1  0  0  0  0
 13 14  1  0  0  0  0
 13  3  2  0  0  0  0
 15  9  2  0  0  0  0
 16  4  1  0  0  0  0
 17 11  2  0  0  0  0
 17 15  1  0  0  0  0
 18  6  2  0  0  0  0
 19 17  1  0  0  0  0
 20 19  1  0  0  0  0
 21 20  1  0  0  0  0
 22 20  1  0  0  0  0
 22 24  1  0  0  0  0
 24 25  1  6  0  0  0
 24 23  1  0  0  0  0
M  END
>  <MODEL>
7

>  <REMARK>
 VINA RESULT:      -6.5      3.293      7.501
  Name = 
  4 active torsions:
  status: ('A' for Active; 'I' for Inactive)
    1  A    between atoms: C_6  and  N_15
    2  A    between atoms: C_6  and  C_23
    3  A    between atoms: C_7  and  C_21
    4  A    between atoms: N_15  and  C_21
                            x       y       z     vdW  Elec       q    Type
                         _______ _______ _______ _____ _____    ______ ____

>  <TORSDO>
F 4

$$$$
=
 OpenBabel11052417263D

 25 28  0  0  1  0  0  0  0  0999 V2000
  187.0520  176.8460  144.5550 C   0  0  0  0  0  0  0  0  0  0  0  0
  187.9370  175.9900  143.8400 C   0  0  0  0  0  0  0  0  0  0  0  0
  188.2910  176.3160  146.5910 C   0  0  0  0  0  3  0  0  0  0  0  0
  185.9770  177.5770  143.9710 C   0  0  0  0  0  0  0  0  0  0  0  0
  184.0400  179.0400  144.0510 C   0  0  0  0  0  2  0  0  0  0  0  0
  189.1150  175.5050  145.8840 N   0  0  0  0  0  0  0  0  0  0  0  0
  185.3720  178.5090  146.1250 C   0  0  0  0  0  3  0  0  0  0  0  0
  185.1560  178.3700  144.7580 C   0  0  0  0  0  0  0  0  0  0  0  0
  189.8560  174.4640  143.8600 C   0  0  0  0  0  0  0  0  0  0  0  0
  190.9500  173.7450  144.5740 C   0  0  0  0  0  1  0  0  0  0  0  0
  187.8260  175.7740  142.4590 C   0  0  0  0  0  3  0  0  0  0  0  0
  183.8650  178.2910  142.7380 C   0  0  0  0  0  2  0  0  0  0  0  0
  187.2560  176.9940  145.9560 C   0  0  0  0  0  0  0  0  0  0  0  0
  186.4260  177.8200  146.7220 C   0  0  0  0  0  3  0  0  0  0  0  0
  189.7150  174.2710  142.4850 C   0  0  0  0  0  3  0  0  0  0  0  0
  185.4800  177.5940  142.2490 S   0  0  0  0  0  0  0  0  0  0  0  0
  188.7080  174.9300  141.7830 C   0  0  0  0  0  0  0  0  0  0  0  0
  188.9740  175.3200  144.5450 C   0  0  0  0  0  0  0  0  0  0  0  0
  188.5460  174.7010  140.3200 C   0  0  0  0  0  2  0  0  0  0  0  0
  189.2290  173.4770  139.9310 N   0  0  0  0  0  0  0  0  0  0  0  0
  188.2030  172.5450  139.4970 C   0  0  0  0  0  1  0  0  0  0  0  0
  190.0260  173.7950  138.7570 C   0  0  0  0  0  2  0  0  0  0  0  0
  188.9640  174.4860  136.6920 N   0  0  0  0  0  1  0  0  0  0  0  0
  189.3100  173.3320  137.5010 C   0  0  1  0  0  3  0  0  0  0  0  0
  190.1390  172.4850  136.7660 O   0  0  0  0  0  1  0  0  0  0  0  0
  1 13  1  0  0  0  0
  2 18  1  0  0  0  0
  2  1  1  0  0  0  0
  4  1  2  0  0  0  0
  4  8  1  0  0  0  0
  5  8  1  0  0  0  0
  6  3  2  0  0  0  0
  7 14  1  0  0  0  0
  8  7  2  0  0  0  0
  9 18  2  0  0  0  0
  9 10  1  0  0  0  0
 11  2  2  0  0  0  0
 12  5  1  0  0  0  0
 13  3  1  0  0  0  0
 13 14  2  0  0  0  0
 15  9  1  0  0  0  0
 16 12  1  0  0  0  0
 16  4  1  0  0  0  0
 17 11  1  0  0  0  0
 17 15  2  0  0  0  0
 18  6  1  0  0  0  0
 19 17  1  0  0  0  0
 20 19  1  0  0  0  0
 21 20  1  0  0  0  0
 22 20  1  0  0  0  0
 24 23  1  6  0  0  0
 24 22  1  0  0  0  0
 25 24  1  0  0  0  0
M  END
>  <MODEL>
8

>  <REMARK>
 VINA RESULT:      -6.5      3.285      5.594
  Name = 
  4 active torsions:
  status: ('A' for Active; 'I' for Inactive)
    1  A    between atoms: C_6  and  N_15
    2  A    between atoms: C_6  and  C_23
    3  A    between atoms: C_7  and  C_21
    4  A    between atoms: N_15  and  C_21
                            x       y       z     vdW  Elec       q    Type
                         _______ _______ _______ _____ _____    ______ ____

>  <TORSDO>
F 4

$$$$
=
 OpenBabel11052417263D

 25 28  0  0  1  0  0  0  0  0999 V2000
  187.1400  177.0840  144.1410 C   0  0  0  0  0  0  0  0  0  0  0  0
  188.1320  176.1570  144.5670 C   0  0  0  0  0  0  0  0  0  0  0  0
  186.6820  177.5710  146.4890 C   0  0  0  0  0  3  0  0  0  0  0  0
  186.8200  177.3660  142.7820 C   0  0  0  0  0  0  0  0  0  0  0  0
  185.5380  178.4460  141.0240 C   0  0  0  0  0  2  0  0  0  0  0  0
  187.6300  176.6800  146.8640 N   0  0  0  0  0  0  0  0  0  0  0  0
  185.1250  178.9610  143.4570 C   0  0  0  0  0  3  0  0  0  0  0  0
  185.8200  178.2730  142.4680 C   0  0  0  0  0  0  0  0  0  0  0  0
  189.3270  175.0550  146.4040 C   0  0  0  0  0  0  0  0  0  0  0  0
  189.5790  174.8370  147.8570 C   0  0  0  0  0  1  0  0  0  0  0  0
  188.9030  175.4080  143.6660 C   0  0  0  0  0  3  0  0  0  0  0  0
  186.1350  177.2300  140.3320 C   0  0  0  0  0  2  0  0  0  0  0  0
  186.4160  177.7920  145.1410 C   0  0  0  0  0  0  0  0  0  0  0  0
  185.4270  178.7200  144.7960 C   0  0  0  0  0  3  0  0  0  0  0  0
  190.0740  174.3260  145.4780 C   0  0  0  0  0  3  0  0  0  0  0  0
  187.5550  176.6410  141.3160 S   0  0  0  0  0  0  0  0  0  0  0  0
  189.8700  174.5060  144.1120 C   0  0  0  0  0  0  0  0  0  0  0  0
  188.3560  175.9710  145.9590 C   0  0  0  0  0  0  0  0  0  0  0  0
  190.6530  173.7070  143.1290 C   0  0  0  0  0  2  0  0  0  0  0  0
  191.2690  174.5900  142.1510 N   0  0  0  0  0  0  0  0  0  0  0  0
  192.6240  174.8430  142.6090 C   0  0  0  0  0  1  0  0  0  0  0  0
  191.3840  173.8330  140.9140 C   0  0  0  0  0  2  0  0  0  0  0  0
  189.2070  173.4980  139.9050 N   0  0  0  0  0  1  0  0  0  0  0  0
  190.2030  172.8910  140.7680 C   0  0  1  0  0  3  0  0  0  0  0  0
  190.6240  171.6840  140.2100 O   0  0  0  0  0  1  0  0  0  0  0  0
  1  2  2  0  0  0  0
  1 13  1  0  0  0  0
  2 18  1  0  0  0  0
  3  6  1  0  0  0  0
  4  1  1  0  0  0  0
  5  8  1  0  0  0  0
  7 14  2  0  0  0  0
  8  4  2  0  0  0  0
  8  7  1  0  0  0  0
  9 10  1  0  0  0  0
 11 17  2  0  0  0  0
 11  2  1  0  0  0  0
 12  5  1  0  0  0  0
 12 16  1  0  0  0  0
 13  3  2  0  0  0  0
 14 13  1  0  0  0  0
 15  9  2  0  0  0  0
 16  4  1  0  0  0  0
 17 15  1  0  0  0  0
 18  9  1  0  0  0  0
 18  6  2  0  0  0  0
 19 17  1  0  0  0  0
 20 21  1  0  0  0  0
 20 19  1  0  0  0  0
 22 20  1  0  0  0  0
 24 23  1  6  0  0  0
 24 22  1  0  0  0  0
 25 24  1  0  0  0  0
M  END
>  <MODEL>
9

>  <REMARK>
 VINA RESULT:      -6.4      2.921      4.741
  Name = 
  4 active torsions:
  status: ('A' for Active; 'I' for Inactive)
    1  A    between atoms: C_6  and  N_15
    2  A    between atoms: C_6  and  C_23
    3  A    between atoms: C_7  and  C_21
    4  A    between atoms: N_15  and  C_21
                            x       y       z     vdW  Elec       q    Type
                         _______ _______ _______ _____ _____    ______ ____

>  <TORSDO>
F 4

$$$$
