=
 OpenBabel11052421383D

 32 37  0  0  1  0  0  0  0  0999 V2000
  189.7730  172.1550  139.6520 N   0  0  0  0  0  0  0  0  0  0  0  0
  188.7360  175.9100  142.9640 C   0  0  0  0  0  0  0  0  0  0  0  0
  185.2870  178.2680  140.4480 N   0  0  0  0  0  2  0  0  0  0  0  0
  184.4940  178.4450  141.6590 C   0  0  0  0  0  2  0  0  0  0  0  0
  189.2760  176.6380  145.3390 C   0  0  2  0  0  3  0  0  0  0  0  0
  188.4570  176.7490  146.6390 C   0  0  1  0  0  3  0  0  0  0  0  0
  190.1390  174.2290  141.8770 C   0  0  0  0  0  0  0  0  0  0  0  0
  188.2600  175.2180  140.6870 C   0  0  0  0  0  3  0  0  0  0  0  0
  189.6090  173.5880  139.4310 C   0  0  0  0  0  2  0  0  0  0  0  0
  185.9630  176.9770  140.5430 C   0  0  0  0  0  2  0  0  0  0  0  0
  187.9450  176.0120  141.7970 C   0  0  0  0  0  0  0  0  0  0  0  0
  186.8610  176.9100  141.7570 C   0  0  0  0  0  0  0  0  0  0  0  0
  187.3390  177.5790  144.0510 C   0  0  0  0  0  0  0  0  0  0  0  0
  191.8360  172.5880  140.8380 C   0  0  0  0  0  2  0  0  0  0  0  0
  189.3310  174.3220  140.7100 C   0  0  0  0  0  0  0  0  0  0  0  0
  191.2860  173.2660  142.0830 C   0  0  0  0  0  2  0  0  0  0  0  0
  190.8030  171.6690  140.2740 C   0  0  0  0  0  0  0  0  0  0  0  0
  185.4220  178.6920  142.8430 C   0  0  0  0  0  2  0  0  0  0  0  0
  186.5480  177.6870  142.8940 C   0  0  0  0  0  0  0  0  0  0  0  0
  187.0550  178.4060  145.2680 C   0  0  0  0  0  2  0  0  0  0  0  0
  189.8160  175.0180  142.9840 C   0  0  0  0  0  3  0  0  0  0  0  0
  190.3390  177.7220  145.3040 C   0  0  0  0  0  1  0  0  0  0  0  0
  188.4290  176.6940  144.0900 C   0  0  0  0  0  0  0  0  0  0  0  0
  187.1250  177.5230  146.5150 C   0  0  2  0  0  3  0  0  0  0  0  0
  186.8950  178.3590  147.7640 C   0  0  0  0  0  2  0  0  0  0  0  0
  185.7920  179.3720  147.5280 C   0  0  0  0  0  1  0  0  0  0  0  0
  189.1920  174.4760  147.2390 C   0  0  0  0  0  2  0  0  0  0  0  0
  188.2140  175.3760  147.1850 C   0  0  0  0  0  3  0  0  0  0  0  0
  190.9430  170.2940  140.4650 O   0  0  0  0  0  0  0  0  0  0  0  0
  190.7810  169.6840  141.7380 C   0  0  1  0  0  3  0  0  0  0  0  0
  190.8390  168.2150  141.5990 C   0  0  0  0  0  2  0  0  0  0  0  0
  191.9440  168.9570  142.0520 O   0  0  0  0  0  0  0  0  0  0  0  0
  1 17  2  0  0  0  0
  2 21  2  0  0  0  0
  2 23  1  0  0  0  0
  3 10  1  0  0  0  0
  3  4  1  0  0  0  0
  4 18  1  0  0  0  0
  5 22  1  6  0  0  0
  5  6  1  0  0  0  0
  6 28  1  6  0  0  0
  7 16  1  0  0  0  0
  7 21  1  0  0  0  0
  8 15  1  0  0  0  0
  8 11  2  0  0  0  0
  9  1  1  0  0  0  0
  9 15  1  0  0  0  0
 10 12  1  0  0  0  0
 11  2  1  0  0  0  0
 12 11  1  0  0  0  0
 12 19  2  0  0  0  0
 13 23  2  0  0  0  0
 13 20  1  0  0  0  0
 14 16  1  0  0  0  0
 15  7  2  0  0  0  0
 17 29  1  0  0  0  0
 17 14  1  0  0  0  0
 18 19  1  0  0  0  0
 19 13  1  0  0  0  0
 20 24  1  0  0  0  0
 23  5  1  0  0  0  0
 24  6  1  0  0  0  0
 24 25  1  1  0  0  0
 26 25  1  0  0  0  0
 28 27  2  0  0  0  0
 30 29  1  6  0  0  0
 30 32  1  0  0  0  0
 31 30  1  0  0  0  0
 31 32  1  0  0  0  0
M  END
>  <MODEL>
1

>  <REMARK>
 VINA RESULT:      -7.8      0.000      0.000
  Name = 
  4 active torsions:
  status: ('A' for Active; 'I' for Inactive)
    1  A    between atoms: C_1  and  O_10
    2  A    between atoms: C_7  and  C_22
    3  A    between atoms: O_10  and  C_24
    4  A    between atoms: C_11  and  C_32
                            x       y       z     vdW  Elec       q    Type
                         _______ _______ _______ _____ _____    ______ ____

>  <TORSDO>
F 4

$$$$
=
 OpenBabel11052421383D

 32 37  0  0  1  0  0  0  0  0999 V2000
  184.6940  178.6470  143.4930 N   0  0  0  0  0  0  0  0  0  0  0  0
  189.0510  175.9820  143.7350 C   0  0  0  0  0  0  0  0  0  0  0  0
  190.7710  177.6410  147.9870 N   0  0  0  0  0  2  0  0  0  0  0  0
  191.1900  176.2970  148.3670 C   0  0  0  0  0  2  0  0  0  0  0  0
  190.2740  174.1050  142.5330 C   0  0  2  0  0  3  0  0  0  0  0  0
  190.6470  172.6570  142.9040 C   0  0  1  0  0  3  0  0  0  0  0  0
  187.1980  177.1160  142.6150 C   0  0  0  0  0  0  0  0  0  0  0  0
  187.8840  177.7950  144.8490 C   0  0  0  0  0  3  0  0  0  0  0  0
  186.0450  179.0780  143.8370 C   0  0  0  0  0  2  0  0  0  0  0  0
  189.5400  177.5220  147.2110 C   0  0  0  0  0  2  0  0  0  0  0  0
  188.8920  176.8210  144.8600 C   0  0  0  0  0  0  0  0  0  0  0  0
  189.7450  176.6800  145.9720 C   0  0  0  0  0  0  0  0  0  0  0  0
  190.8920  174.8460  144.8490 C   0  0  0  0  0  0  0  0  0  0  0  0
  185.3990  178.3110  141.2040 C   0  0  0  0  0  2  0  0  0  0  0  0
  187.0300  177.9490  143.7550 C   0  0  0  0  0  0  0  0  0  0  0  0
  186.3170  177.1110  141.3860 C   0  0  0  0  0  2  0  0  0  0  0  0
  184.3670  178.3130  142.2830 C   0  0  0  0  0  0  0  0  0  0  0  0
  191.6960  175.5550  147.1350 C   0  0  0  0  0  2  0  0  0  0  0  0
  190.7400  175.6780  145.9720 C   0  0  0  0  0  0  0  0  0  0  0  0
  191.9540  173.7900  144.8010 C   0  0  0  0  0  2  0  0  0  0  0  0
  188.2000  176.1410  142.6340 C   0  0  0  0  0  3  0  0  0  0  0  0
  191.3410  174.6970  141.6300 C   0  0  0  0  0  1  0  0  0  0  0  0
  190.0520  174.9940  143.7330 C   0  0  0  0  0  0  0  0  0  0  0  0
  191.3570  172.4870  144.2660 C   0  0  2  0  0  3  0  0  0  0  0  0
  192.4350  171.4220  144.1570 C   0  0  0  0  0  2  0  0  0  0  0  0
  193.6540  171.8150  144.9700 C   0  0  0  0  0  1  0  0  0  0  0  0
  188.2810  172.2710  142.3370 C   0  0  0  0  0  2  0  0  0  0  0  0
  189.4170  171.8050  142.8470 C   0  0  0  0  0  3  0  0  0  0  0  0
  183.0650  177.9130  141.9760 O   0  0  0  0  0  0  0  0  0  0  0  0
  182.4380  178.2470  140.7460 C   0  0  1  0  0  3  0  0  0  0  0  0
  180.9790  178.0480  140.8580 C   0  0  0  0  0  2  0  0  0  0  0  0
  181.5600  179.3250  140.9550 O   0  0  0  0  0  0  0  0  0  0  0  0
  1  9  1  0  0  0  0
  2 11  1  0  0  0  0
  3  4  1  0  0  0  0
  5 22  1  6  0  0  0
  5  6  1  0  0  0  0
  5 23  1  0  0  0  0
  6 28  1  1  0  0  0
  6 24  1  0  0  0  0
  7 21  2  0  0  0  0
  7 15  1  0  0  0  0
  8 11  1  0  0  0  0
 10  3  1  0  0  0  0
 11 12  2  0  0  0  0
 12 10  1  0  0  0  0
 13 19  2  0  0  0  0
 14 16  1  0  0  0  0
 14 17  1  0  0  0  0
 15  9  1  0  0  0  0
 15  8  2  0  0  0  0
 16  7  1  0  0  0  0
 17  1  2  0  0  0  0
 18  4  1  0  0  0  0
 19 12  1  0  0  0  0
 19 18  1  0  0  0  0
 20 13  1  0  0  0  0
 21  2  1  0  0  0  0
 23  2  2  0  0  0  0
 23 13  1  0  0  0  0
 24 25  1  6  0  0  0
 24 20  1  0  0  0  0
 25 26  1  0  0  0  0
 27 28  2  0  0  0  0
 29 17  1  0  0  0  0
 30 31  1  0  0  0  0
 30 32  1  0  0  0  0
 30 29  1  1  0  0  0
 31 32  1  0  0  0  0
M  END
>  <MODEL>
2

>  <REMARK>
 VINA RESULT:      -7.6      3.945      7.806
  Name = 
  4 active torsions:
  status: ('A' for Active; 'I' for Inactive)
    1  A    between atoms: C_1  and  O_10
    2  A    between atoms: C_7  and  C_22
    3  A    between atoms: O_10  and  C_24
    4  A    between atoms: C_11  and  C_32
                            x       y       z     vdW  Elec       q    Type
                         _______ _______ _______ _____ _____    ______ ____

>  <TORSDO>
F 4

$$$$
=
 OpenBabel11052421383D

 32 37  0  0  1  0  0  0  0  0999 V2000
  193.3590  176.5060  146.6140 N   0  0  0  0  0  0  0  0  0  0  0  0
  188.6700  176.4240  144.5760 C   0  0  0  0  0  0  0  0  0  0  0  0
  186.1110  178.0770  148.3840 N   0  0  0  0  0  2  0  0  0  0  0  0
  185.3050  178.9170  147.5070 C   0  0  0  0  0  2  0  0  0  0  0  0
  187.5040  176.0450  142.3490 C   0  0  2  0  0  3  0  0  0  0  0  0
  186.7200  176.9510  141.3810 C   0  0  1  0  0  3  0  0  0  0  0  0
  190.9850  175.6920  144.8560 C   0  0  0  0  0  0  0  0  0  0  0  0
  189.7980  176.7470  146.7000 C   0  0  0  0  0  3  0  0  0  0  0  0
  192.1000  176.0140  147.1640 C   0  0  0  0  0  2  0  0  0  0  0  0
  187.4650  178.0320  147.8400 C   0  0  0  0  0  2  0  0  0  0  0  0
  188.6480  176.8850  145.9110 C   0  0  0  0  0  0  0  0  0  0  0  0
  187.4790  177.4680  146.4370 C   0  0  0  0  0  0  0  0  0  0  0  0
  186.3670  177.1560  144.2910 C   0  0  0  0  0  0  0  0  0  0  0  0
  193.3560  174.6890  145.0180 C   0  0  0  0  0  2  0  0  0  0  0  0
  190.9660  176.1720  146.1950 C   0  0  0  0  0  0  0  0  0  0  0  0
  192.1840  175.1090  144.1430 C   0  0  0  0  0  2  0  0  0  0  0  0
  193.9680  175.8980  145.6430 C   0  0  0  0  0  0  0  0  0  0  0  0
  185.0620  178.1890  146.1890 C   0  0  0  0  0  2  0  0  0  0  0  0
  186.3380  177.6170  145.6190 C   0  0  0  0  0  0  0  0  0  0  0  0
  185.1670  177.2710  143.4000 C   0  0  0  0  0  2  0  0  0  0  0  0
  189.8380  175.8390  144.0710 C   0  0  0  0  0  3  0  0  0  0  0  0
  186.9370  174.6370  142.3110 C   0  0  0  0  0  1  0  0  0  0  0  0
  187.5270  176.5620  143.7680 C   0  0  0  0  0  0  0  0  0  0  0  0
  185.5970  177.7940  142.0280 C   0  0  2  0  0  3  0  0  0  0  0  0
  184.3990  177.8620  141.0950 C   0  0  0  0  0  2  0  0  0  0  0  0
  183.1450  178.2240  141.8670 C   0  0  0  0  0  1  0  0  0  0  0  0
  188.5620  178.5850  141.3130 C   0  0  0  0  0  2  0  0  0  0  0  0
  187.6810  177.8380  140.6520 C   0  0  0  0  0  3  0  0  0  0  0  0
  195.1770  176.3840  145.1390 O   0  0  0  0  0  0  0  0  0  0  0  0
  195.6220  176.0910  143.8230 C   0  0  1  0  0  3  0  0  0  0  0  0
  196.7720  176.9530  143.4810 C   0  0  0  0  0  2  0  0  0  0  0  0
  196.9440  175.6150  143.8790 O   0  0  0  0  0  0  0  0  0  0  0  0
  1  9  1  0  0  0  0
  2 11  1  0  0  0  0
  4  3  1  0  0  0  0
  5 22  1  1  0  0  0
  5 23  1  0  0  0  0
  6 28  1  1  0  0  0
  6 24  1  0  0  0  0
  6  5  1  0  0  0  0
  7 15  1  0  0  0  0
 10  3  1  0  0  0  0
 11 12  2  0  0  0  0
 11  8  1  0  0  0  0
 12 10  1  0  0  0  0
 13 19  2  0  0  0  0
 14 17  1  0  0  0  0
 15  8  2  0  0  0  0
 15  9  1  0  0  0  0
 16  7  1  0  0  0  0
 16 14  1  0  0  0  0
 17  1  2  0  0  0  0
 18  4  1  0  0  0  0
 19 18  1  0  0  0  0
 19 12  1  0  0  0  0
 20 13  1  0  0  0  0
 21  2  1  0  0  0  0
 21  7  2  0  0  0  0
 23 13  1  0  0  0  0
 23  2  2  0  0  0  0
 24 25  1  6  0  0  0
 24 20  1  0  0  0  0
 25 26  1  0  0  0  0
 28 27  2  0  0  0  0
 29 17  1  0  0  0  0
 30 32  1  0  0  0  0
 30 29  1  1  0  0  0
 31 30  1  0  0  0  0
 31 32  1  0  0  0  0
M  END
>  <MODEL>
3

>  <REMARK>
 VINA RESULT:      -7.6      3.967      6.079
  Name = 
  4 active torsions:
  status: ('A' for Active; 'I' for Inactive)
    1  A    between atoms: C_1  and  O_10
    2  A    between atoms: C_7  and  C_22
    3  A    between atoms: O_10  and  C_24
    4  A    between atoms: C_11  and  C_32
                            x       y       z     vdW  Elec       q    Type
                         _______ _______ _______ _____ _____    ______ ____

>  <TORSDO>
F 4

$$$$
=
 OpenBabel11052421383D

 32 37  0  0  1  0  0  0  0  0999 V2000
  195.4140  171.7260  144.0510 N   0  0  0  0  0  0  0  0  0  0  0  0
  191.4160  174.8940  143.6970 C   0  0  0  0  0  0  0  0  0  0  0  0
  189.8450  173.7070  139.2350 N   0  0  0  0  0  2  0  0  0  0  0  0
  188.4600  173.7450  139.6880 C   0  0  0  0  0  2  0  0  0  0  0  0
  190.0640  176.5160  145.1140 C   0  0  2  0  0  3  0  0  0  0  0  0
  188.6240  176.5200  145.6600 C   0  0  1  0  0  3  0  0  0  0  0  0
  193.6180  174.1730  144.4730 C   0  0  0  0  0  0  0  0  0  0  0  0
  192.7400  173.3690  142.3510 C   0  0  0  0  0  3  0  0  0  0  0  0
  194.9950  172.5970  142.9580 C   0  0  0  0  0  2  0  0  0  0  0  0
  190.6620  173.2090  140.3380 C   0  0  0  0  0  2  0  0  0  0  0  0
  191.5660  174.1140  142.5290 C   0  0  0  0  0  0  0  0  0  0  0  0
  190.5470  174.0960  141.5570 C   0  0  0  0  0  0  0  0  0  0  0  0
  189.2210  175.6110  142.9300 C   0  0  0  0  0  0  0  0  0  0  0  0
  195.9860  173.6740  145.3650 C   0  0  0  0  0  2  0  0  0  0  0  0
  193.7600  173.3750  143.3050 C   0  0  0  0  0  0  0  0  0  0  0  0
  194.5960  174.2340  145.6250 C   0  0  0  0  0  2  0  0  0  0  0  0
  195.8970  172.1980  145.1590 C   0  0  0  0  0  0  0  0  0  0  0  0
  188.2880  174.8690  140.7050 C   0  0  0  0  0  2  0  0  0  0  0  0
  189.3630  174.8370  141.7650 C   0  0  0  0  0  0  0  0  0  0  0  0
  187.9910  176.4320  143.1740 C   0  0  0  0  0  2  0  0  0  0  0  0
  192.4420  174.9080  144.6500 C   0  0  0  0  0  3  0  0  0  0  0  0
  190.5040  177.9370  144.8090 C   0  0  0  0  0  1  0  0  0  0  0  0
  190.2410  175.6420  143.8950 C   0  0  0  0  0  0  0  0  0  0  0  0
  187.5210  176.2340  144.6160 C   0  0  2  0  0  3  0  0  0  0  0  0
  186.3070  177.1050  144.8960 C   0  0  0  0  0  2  0  0  0  0  0  0
  186.4720  178.4680  144.2510 C   0  0  0  0  0  1  0  0  0  0  0  0
  189.5940  174.8640  147.2050 C   0  0  0  0  0  2  0  0  0  0  0  0
  188.5300  175.5500  146.7970 C   0  0  0  0  0  3  0  0  0  0  0  0
  196.2990  171.3440  146.1880 O   0  0  0  0  0  0  0  0  0  0  0  0
  196.4190  169.9410  146.0050 C   0  0  1  0  0  3  0  0  0  0  0  0
  196.6140  169.2820  147.3130 C   0  0  0  0  0  2  0  0  0  0  0  0
  195.3620  169.2980  146.6730 O   0  0  0  0  0  0  0  0  0  0  0  0
  1 17  2  0  0  0  0
  2 23  1  0  0  0  0
  2 21  2  0  0  0  0
  3  4  1  0  0  0  0
  3 10  1  0  0  0  0
  4 18  1  0  0  0  0
  5 22  1  6  0  0  0
  5  6  1  0  0  0  0
  6 28  1  1  0  0  0
  7 21  1  0  0  0  0
  7 16  1  0  0  0  0
  8 11  2  0  0  0  0
  8 15  1  0  0  0  0
  9 15  1  0  0  0  0
  9  1  1  0  0  0  0
 10 12  1  0  0  0  0
 11  2  1  0  0  0  0
 12 19  2  0  0  0  0
 12 11  1  0  0  0  0
 13 20  1  0  0  0  0
 13 23  2  0  0  0  0
 14 16  1  0  0  0  0
 15  7  2  0  0  0  0
 17 14  1  0  0  0  0
 17 29  1  0  0  0  0
 18 19  1  0  0  0  0
 19 13  1  0  0  0  0
 20 24  1  0  0  0  0
 23  5  1  0  0  0  0
 24 25  1  1  0  0  0
 24  6  1  0  0  0  0
 26 25  1  0  0  0  0
 28 27  2  0  0  0  0
 30 29  1  1  0  0  0
 30 32  1  0  0  0  0
 30 31  1  0  0  0  0
 32 31  1  0  0  0  0
M  END
>  <MODEL>
4

>  <REMARK>
 VINA RESULT:      -7.4      3.526      4.899
  Name = 
  4 active torsions:
  status: ('A' for Active; 'I' for Inactive)
    1  A    between atoms: C_1  and  O_10
    2  A    between atoms: C_7  and  C_22
    3  A    between atoms: O_10  and  C_24
    4  A    between atoms: C_11  and  C_32
                            x       y       z     vdW  Elec       q    Type
                         _______ _______ _______ _____ _____    ______ ____

>  <TORSDO>
F 4

$$$$
=
 OpenBabel11052421383D

 32 37  0  0  1  0  0  0  0  0999 V2000
  188.4230  172.6150  139.4570 N   0  0  0  0  0  0  0  0  0  0  0  0
  189.7180  175.6770  143.3410 C   0  0  0  0  0  0  0  0  0  0  0  0
  185.3350  177.5420  144.3880 N   0  0  0  0  0  2  0  0  0  0  0  0
  185.5970  177.4140  145.8160 C   0  0  0  0  0  2  0  0  0  0  0  0
  191.7050  176.2280  144.8300 C   0  0  2  0  0  3  0  0  0  0  0  0
  192.0150  176.0220  146.3240 C   0  0  1  0  0  3  0  0  0  0  0  0
  190.0850  174.4550  141.2560 C   0  0  0  0  0  0  0  0  0  0  0  0
  187.8440  175.1630  141.8880 C   0  0  0  0  0  3  0  0  0  0  0  0
  188.0500  173.9980  139.7310 C   0  0  0  0  0  2  0  0  0  0  0  0
  185.9750  176.4160  143.7140 C   0  0  0  0  0  2  0  0  0  0  0  0
  188.3340  175.7460  143.0650 C   0  0  0  0  0  0  0  0  0  0  0  0
  187.4670  176.3990  143.9610 C   0  0  0  0  0  0  0  0  0  0  0  0
  189.3570  176.8890  145.4200 C   0  0  0  0  0  0  0  0  0  0  0  0
  190.6920  173.3280  139.0180 C   0  0  0  0  0  2  0  0  0  0  0  0
  188.6890  174.5110  140.9880 C   0  0  0  0  0  0  0  0  0  0  0  0
  191.1170  173.7320  140.4210 C   0  0  0  0  0  2  0  0  0  0  0  0
  189.6270  172.2850  139.1020 C   0  0  0  0  0  0  0  0  0  0  0  0
  187.0670  177.7120  146.0920 C   0  0  0  0  0  2  0  0  0  0  0  0
  187.9790  176.9610  145.1510 C   0  0  0  0  0  0  0  0  0  0  0  0
  189.9410  177.4970  146.6590 C   0  0  0  0  0  2  0  0  0  0  0  0
  190.5680  175.0310  142.4350 C   0  0  0  0  0  3  0  0  0  0  0  0
  192.3630  177.5050  144.3370 C   0  0  0  0  0  1  0  0  0  0  0  0
  190.2260  176.2500  144.5210 C   0  0  0  0  0  0  0  0  0  0  0  0
  190.9210  176.5120  147.2990 C   0  0  2  0  0  3  0  0  0  0  0  0
  191.5650  177.1370  148.5260 C   0  0  0  0  0  2  0  0  0  0  0  0
  190.7250  178.2910  149.0370 C   0  0  0  0  0  1  0  0  0  0  0  0
  193.0020  173.8590  145.6780 C   0  0  0  0  0  2  0  0  0  0  0  0
  192.3180  174.5750  146.5660 C   0  0  0  0  0  3  0  0  0  0  0  0
  189.9580  170.9550  138.8360 O   0  0  0  0  0  0  0  0  0  0  0  0
  191.0850  170.5960  138.0490 C   0  0  1  0  0  3  0  0  0  0  0  0
  191.6070  169.2880  138.4920 C   0  0  0  0  0  2  0  0  0  0  0  0
  190.7990  169.4110  137.3490 O   0  0  0  0  0  0  0  0  0  0  0  0
  1  9  1  0  0  0  0
  2 23  1  0  0  0  0
  3  4  1  0  0  0  0
  4 18  1  0  0  0  0
  5 22  1  1  0  0  0
  5  6  1  0  0  0  0
  6 28  1  6  0  0  0
  6 24  1  0  0  0  0
  7 21  1  0  0  0  0
  8 11  2  0  0  0  0
  9 15  1  0  0  0  0
 10 12  1  0  0  0  0
 10  3  1  0  0  0  0
 11  2  1  0  0  0  0
 11 12  1  0  0  0  0
 12 19  2  0  0  0  0
 13 20  1  0  0  0  0
 14 17  1  0  0  0  0
 14 16  1  0  0  0  0
 15  7  2  0  0  0  0
 15  8  1  0  0  0  0
 16  7  1  0  0  0  0
 17  1  2  0  0  0  0
 19 13  1  0  0  0  0
 19 18  1  0  0  0  0
 20 24  1  0  0  0  0
 21  2  2  0  0  0  0
 23  5  1  0  0  0  0
 23 13  2  0  0  0  0
 24 25  1  1  0  0  0
 25 26  1  0  0  0  0
 27 28  2  0  0  0  0
 29 17  1  0  0  0  0
 30 31  1  0  0  0  0
 30 29  1  1  0  0  0
 32 30  1  0  0  0  0
 32 31  1  0  0  0  0
M  END
>  <MODEL>
5

>  <REMARK>
 VINA RESULT:      -7.2      2.130      3.053
  Name = 
  4 active torsions:
  status: ('A' for Active; 'I' for Inactive)
    1  A    between atoms: C_1  and  O_10
    2  A    between atoms: C_7  and  C_22
    3  A    between atoms: O_10  and  C_24
    4  A    between atoms: C_11  and  C_32
                            x       y       z     vdW  Elec       q    Type
                         _______ _______ _______ _____ _____    ______ ____

>  <TORSDO>
F 4

$$$$
=
 OpenBabel11052421383D

 32 37  0  0  1  0  0  0  0  0999 V2000
  180.3920  178.5900  142.6730 N   0  0  0  0  0  0  0  0  0  0  0  0
  185.4170  177.8390  143.2450 C   0  0  0  0  0  0  0  0  0  0  0  0
  185.9460  179.4060  147.8330 N   0  0  0  0  0  2  0  0  0  0  0  0
  186.8390  178.2940  148.1340 C   0  0  0  0  0  2  0  0  0  0  0  0
  187.3950  176.7870  142.0420 C   0  0  2  0  0  3  0  0  0  0  0  0
  188.2900  175.5640  142.3170 C   0  0  1  0  0  3  0  0  0  0  0  0
  183.3680  178.3060  141.9990 C   0  0  0  0  0  0  0  0  0  0  0  0
  183.5250  178.8700  144.3610 C   0  0  0  0  0  3  0  0  0  0  0  0
  181.4170  179.4610  143.2390 C   0  0  0  0  0  2  0  0  0  0  0  0
  184.9400  178.9280  146.8890 C   0  0  0  0  0  2  0  0  0  0  0  0
  184.8360  178.3770  144.4150 C   0  0  0  0  0  0  0  0  0  0  0  0
  185.5740  178.4220  145.6130 C   0  0  0  0  0  0  0  0  0  0  0  0
  187.4580  177.3680  144.4830 C   0  0  0  0  0  0  0  0  0  0  0  0
  181.3670  178.8910  140.4800 C   0  0  0  0  0  2  0  0  0  0  0  0
  182.7780  178.8320  143.1810 C   0  0  0  0  0  0  0  0  0  0  0  0
  182.6730  178.1350  140.6670 C   0  0  0  0  0  2  0  0  0  0  0  0
  180.3340  178.3330  141.4020 C   0  0  0  0  0  0  0  0  0  0  0  0
  187.7060  177.9950  146.9150 C   0  0  0  0  0  2  0  0  0  0  0  0
  186.8870  177.9020  145.6510 C   0  0  0  0  0  0  0  0  0  0  0  0
  188.8580  176.8310  144.4770 C   0  0  0  0  0  2  0  0  0  0  0  0
  184.6730  177.8100  142.0590 C   0  0  0  0  0  3  0  0  0  0  0  0
  188.2030  177.8740  141.3560 C   0  0  0  0  0  1  0  0  0  0  0  0
  186.7300  177.3340  143.2830 C   0  0  0  0  0  0  0  0  0  0  0  0
  188.8890  175.4910  143.7410 C   0  0  2  0  0  3  0  0  0  0  0  0
  190.3120  174.9600  143.6760 C   0  0  0  0  0  2  0  0  0  0  0  0
  191.1700  175.8510  142.7980 C   0  0  0  0  0  1  0  0  0  0  0  0
  188.1030  173.2840  141.4020 C   0  0  0  0  0  2  0  0  0  0  0  0
  187.5230  174.3160  142.0100 C   0  0  0  0  0  3  0  0  0  0  0  0
  179.3380  177.5040  140.8830 O   0  0  0  0  0  0  0  0  0  0  0  0
  178.9780  177.5200  139.5090 C   0  0  1  0  0  3  0  0  0  0  0  0
  177.7880  176.6710  139.2950 C   0  0  0  0  0  2  0  0  0  0  0  0
  177.6910  178.0710  139.3760 O   0  0  0  0  0  0  0  0  0  0  0  0
  1  9  1  0  0  0  0
  2 23  2  0  0  0  0
  2 11  1  0  0  0  0
  3  4  1  0  0  0  0
  5 22  1  1  0  0  0
  5  6  1  0  0  0  0
  5 23  1  0  0  0  0
  6 28  1  1  0  0  0
  6 24  1  0  0  0  0
  7 21  2  0  0  0  0
  7 15  1  0  0  0  0
  8 11  1  0  0  0  0
 10  3  1  0  0  0  0
 11 12  2  0  0  0  0
 12 19  1  0  0  0  0
 12 10  1  0  0  0  0
 13 19  2  0  0  0  0
 14 16  1  0  0  0  0
 14 17  1  0  0  0  0
 15  9  1  0  0  0  0
 15  8  2  0  0  0  0
 16  7  1  0  0  0  0
 17  1  2  0  0  0  0
 18  4  1  0  0  0  0
 19 18  1  0  0  0  0
 20 13  1  0  0  0  0
 21  2  1  0  0  0  0
 23 13  1  0  0  0  0
 24 25  1  6  0  0  0
 24 20  1  0  0  0  0
 26 25  1  0  0  0  0
 27 28  2  0  0  0  0
 29 17  1  0  0  0  0
 30 29  1  1  0  0  0
 31 32  1  0  0  0  0
 31 30  1  0  0  0  0
 32 30  1  0  0  0  0
M  END
>  <MODEL>
6

>  <REMARK>
 VINA RESULT:      -7.1      4.757      8.463
  Name = 
  4 active torsions:
  status: ('A' for Active; 'I' for Inactive)
    1  A    between atoms: C_1  and  O_10
    2  A    between atoms: C_7  and  C_22
    3  A    between atoms: O_10  and  C_24
    4  A    between atoms: C_11  and  C_32
                            x       y       z     vdW  Elec       q    Type
                         _______ _______ _______ _____ _____    ______ ____

>  <TORSDO>
F 4

$$$$
=
 OpenBabel11052421383D

 32 37  0  0  1  0  0  0  0  0999 V2000
  196.4250  173.4380  142.4090 N   0  0  0  0  0  0  0  0  0  0  0  0
  191.7840  175.5190  142.9300 C   0  0  0  0  0  0  0  0  0  0  0  0
  189.4850  173.2840  139.2550 N   0  0  0  0  0  2  0  0  0  0  0  0
  188.3040  173.0830  140.0850 C   0  0  0  0  0  2  0  0  0  0  0  0
  190.4660  177.0070  144.5150 C   0  0  2  0  0  3  0  0  0  0  0  0
  189.2670  176.7760  145.4540 C   0  0  1  0  0  3  0  0  0  0  0  0
  194.2210  175.4520  143.0970 C   0  0  0  0  0  0  0  0  0  0  0  0
  193.0690  174.1300  141.4100 C   0  0  0  0  0  3  0  0  0  0  0  0
  195.5250  173.9980  141.4060 C   0  0  0  0  0  2  0  0  0  0  0  0
  190.6600  173.1730  140.1150 C   0  0  0  0  0  2  0  0  0  0  0  0
  191.8270  174.6090  141.8490 C   0  0  0  0  0  0  0  0  0  0  0  0
  190.6340  174.2010  141.2230 C   0  0  0  0  0  0  0  0  0  0  0  0
  189.3570  175.5850  142.7700 C   0  0  0  0  0  0  0  0  0  0  0  0
  196.7840  175.6560  143.3050 C   0  0  0  0  0  2  0  0  0  0  0  0
  194.2620  174.5240  142.0210 C   0  0  0  0  0  0  0  0  0  0  0  0
  195.4110  175.9230  143.9030 C   0  0  0  0  0  2  0  0  0  0  0  0
  197.0360  174.1840  143.2770 C   0  0  0  0  0  0  0  0  0  0  0  0
  188.1120  174.2930  140.9940 C   0  0  0  0  0  2  0  0  0  0  0  0
  189.3920  174.6800  141.6940 C   0  0  0  0  0  0  0  0  0  0  0  0
  188.0600  176.1360  143.2810 C   0  0  0  0  0  2  0  0  0  0  0  0
  192.9800  175.9220  143.5370 C   0  0  0  0  0  3  0  0  0  0  0  0
  190.4220  178.4190  143.9600 C   0  0  0  0  0  1  0  0  0  0  0  0
  190.5460  176.0050  143.3880 C   0  0  0  0  0  0  0  0  0  0  0  0
  188.0470  176.0800  144.8090 C   0  0  2  0  0  3  0  0  0  0  0  0
  186.7620  176.6890  145.3450 C   0  0  0  0  0  2  0  0  0  0  0  0
  186.8910  178.1960  145.4460 C   0  0  0  0  0  1  0  0  0  0  0  0
  189.4820  174.7110  146.7790 C   0  0  0  0  0  2  0  0  0  0  0  0
  189.7270  176.0130  146.6570 C   0  0  0  0  0  3  0  0  0  0  0  0
  197.9000  173.6260  144.2210 O   0  0  0  0  0  0  0  0  0  0  0  0
  197.4680  172.6530  145.1620 C   0  0  1  0  0  3  0  0  0  0  0  0
  197.0940  173.3150  146.4290 C   0  0  0  0  0  2  0  0  0  0  0  0
  196.1250  172.9010  145.4970 O   0  0  0  0  0  0  0  0  0  0  0  0
  1 17  2  0  0  0  0
  2 23  1  0  0  0  0
  2 21  2  0  0  0  0
  3  4  1  0  0  0  0
  3 10  1  0  0  0  0
  4 18  1  0  0  0  0
  5 22  1  6  0  0  0
  5  6  1  0  0  0  0
  6 28  1  1  0  0  0
  7 21  1  0  0  0  0
  7 16  1  0  0  0  0
  8 11  2  0  0  0  0
  8 15  1  0  0  0  0
  9 15  1  0  0  0  0
  9  1  1  0  0  0  0
 10 12  1  0  0  0  0
 11  2  1  0  0  0  0
 12 19  2  0  0  0  0
 12 11  1  0  0  0  0
 13 20  1  0  0  0  0
 13 23  2  0  0  0  0
 14 16  1  0  0  0  0
 15  7  2  0  0  0  0
 17 14  1  0  0  0  0
 17 29  1  0  0  0  0
 18 19  1  0  0  0  0
 19 13  1  0  0  0  0
 20 24  1  0  0  0  0
 23  5  1  0  0  0  0
 24 25  1  1  0  0  0
 24  6  1  0  0  0  0
 25 26  1  0  0  0  0
 28 27  2  0  0  0  0
 30 29  1  6  0  0  0
 30 32  1  0  0  0  0
 30 31  1  0  0  0  0
 32 31  1  0  0  0  0
M  END
>  <MODEL>
7

>  <REMARK>
 VINA RESULT:      -6.8      3.724      5.148
  Name = 
  4 active torsions:
  status: ('A' for Active; 'I' for Inactive)
    1  A    between atoms: C_1  and  O_10
    2  A    between atoms: C_7  and  C_22
    3  A    between atoms: O_10  and  C_24
    4  A    between atoms: C_11  and  C_32
                            x       y       z     vdW  Elec       q    Type
                         _______ _______ _______ _____ _____    ______ ____

>  <TORSDO>
F 4

$$$$
=
 OpenBabel11052421383D

 32 37  0  0  1  0  0  0  0  0999 V2000
  191.5720  173.7730  139.4720 N   0  0  0  0  0  0  0  0  0  0  0  0
  188.7550  175.5520  143.3500 C   0  0  0  0  0  0  0  0  0  0  0  0
  192.0470  175.2550  146.9360 N   0  0  0  0  0  2  0  0  0  0  0  0
  191.6300  176.5510  147.4560 C   0  0  0  0  0  2  0  0  0  0  0  0
  186.4980  176.6320  143.8040 C   0  0  2  0  0  3  0  0  0  0  0  0
  186.0530  178.0280  144.2780 C   0  0  1  0  0  3  0  0  0  0  0  0
  189.1380  174.4300  141.2130 C   0  0  0  0  0  0  0  0  0  0  0  0
  190.8890  174.4880  142.9020 C   0  0  0  0  0  3  0  0  0  0  0  0
  191.4140  173.2680  140.8310 C   0  0  0  0  0  2  0  0  0  0  0  0
  191.9310  175.2990  145.4810 C   0  0  0  0  0  2  0  0  0  0  0  0
  190.0600  175.2120  143.7700 C   0  0  0  0  0  0  0  0  0  0  0  0
  190.5120  175.5920  145.0480 C   0  0  0  0  0  0  0  0  0  0  0  0
  188.3700  176.6740  145.4750 C   0  0  0  0  0  0  0  0  0  0  0  0
  189.2890  173.1400  138.9840 C   0  0  0  0  0  2  0  0  0  0  0  0
  190.4580  174.1040  141.6300 C   0  0  0  0  0  0  0  0  0  0  0  0
  188.5470  174.1470  139.8500 C   0  0  0  0  0  2  0  0  0  0  0  0
  190.6170  173.7030  138.5960 C   0  0  0  0  0  0  0  0  0  0  0  0
  190.1220  176.7040  147.2920 C   0  0  0  0  0  2  0  0  0  0  0  0
  189.6680  176.3390  145.8990 C   0  0  0  0  0  0  0  0  0  0  0  0
  187.4360  177.4420  146.3600 C   0  0  0  0  0  2  0  0  0  0  0  0
  188.3180  175.1590  142.0790 C   0  0  0  0  0  3  0  0  0  0  0  0
  185.5320  175.5800  144.3200 C   0  0  0  0  0  1  0  0  0  0  0  0
  187.9120  176.2840  144.2060 C   0  0  0  0  0  0  0  0  0  0  0  0
  186.7580  178.5490  145.5510 C   0  0  2  0  0  3  0  0  0  0  0  0
  185.7640  179.3010  146.4210 C   0  0  0  0  0  2  0  0  0  0  0  0
  184.4600  178.5330  146.5210 C   0  0  0  0  0  1  0  0  0  0  0  0
  186.2030  178.5990  141.8860 C   0  0  0  0  0  2  0  0  0  0  0  0
  186.2200  179.0030  143.1540 C   0  0  0  0  0  3  0  0  0  0  0  0
  190.7960  174.1850  137.2990 O   0  0  0  0  0  0  0  0  0  0  0  0
  189.7390  174.2220  136.3510 C   0  0  1  0  0  3  0  0  0  0  0  0
  190.0680  175.1750  135.2710 C   0  0  0  0  0  2  0  0  0  0  0  0
  190.2230  173.7880  135.1040 O   0  0  0  0  0  0  0  0  0  0  0  0
  1  9  1  0  0  0  0
  2 11  1  0  0  0  0
  2 23  1  0  0  0  0
  3  4  1  0  0  0  0
  5 23  1  0  0  0  0
  5  6  1  0  0  0  0
  5 22  1  1  0  0  0
  6 28  1  6  0  0  0
  6 24  1  0  0  0  0
  7 15  2  0  0  0  0
  7 21  1  0  0  0  0
  8 11  2  0  0  0  0
  9 15  1  0  0  0  0
 10  3  1  0  0  0  0
 11 12  1  0  0  0  0
 12 10  1  0  0  0  0
 12 19  2  0  0  0  0
 13 19  1  0  0  0  0
 13 20  1  0  0  0  0
 14 16  1  0  0  0  0
 15  8  1  0  0  0  0
 16  7  1  0  0  0  0
 17 14  1  0  0  0  0
 17  1  2  0  0  0  0
 18  4  1  0  0  0  0
 19 18  1  0  0  0  0
 21  2  2  0  0  0  0
 23 13  2  0  0  0  0
 24 20  1  0  0  0  0
 24 25  1  1  0  0  0
 25 26  1  0  0  0  0
 27 28  2  0  0  0  0
 29 17  1  0  0  0  0
 30 29  1  1  0  0  0
 31 30  1  0  0  0  0
 32 31  1  0  0  0  0
 32 30  1  0  0  0  0
M  END
>  <MODEL>
8

>  <REMARK>
 VINA RESULT:      -6.7      2.673      5.018
  Name = 
  4 active torsions:
  status: ('A' for Active; 'I' for Inactive)
    1  A    between atoms: C_1  and  O_10
    2  A    between atoms: C_7  and  C_22
    3  A    between atoms: O_10  and  C_24
    4  A    between atoms: C_11  and  C_32
                            x       y       z     vdW  Elec       q    Type
                         _______ _______ _______ _____ _____    ______ ____

>  <TORSDO>
F 4

$$$$
=
 OpenBabel11052421383D

 32 37  0  0  1  0  0  0  0  0999 V2000
  187.1330  176.9490  143.0900 N   0  0  0  0  0  0  0  0  0  0  0  0
  191.7600  174.7950  143.4040 C   0  0  0  0  0  0  0  0  0  0  0  0
  191.9090  172.5790  139.0620 N   0  0  0  0  0  2  0  0  0  0  0  0
  193.2980  172.9830  138.8780 C   0  0  0  0  0  2  0  0  0  0  0  0
  193.8190  174.7740  144.8950 C   0  0  2  0  0  3  0  0  0  0  0  0
  195.2670  175.2720  144.7320 C   0  0  1  0  0  3  0  0  0  0  0  0
  189.6560  175.6790  144.2780 C   0  0  0  0  0  0  0  0  0  0  0  0
  189.7730  174.8020  142.0110 C   0  0  0  0  0  3  0  0  0  0  0  0
  187.5680  175.5970  142.7590 C   0  0  0  0  0  2  0  0  0  0  0  0
  191.2250  173.6470  139.7860 C   0  0  0  0  0  2  0  0  0  0  0  0
  191.1320  174.5000  142.1730 C   0  0  0  0  0  0  0  0  0  0  0  0
  191.8660  173.9010  141.1310 C   0  0  0  0  0  0  0  0  0  0  0  0
  193.8580  173.9210  142.5350 C   0  0  0  0  0  0  0  0  0  0  0  0
  187.4930  176.4760  145.4350 C   0  0  0  0  0  2  0  0  0  0  0  0
  189.0290  175.3960  143.0330 C   0  0  0  0  0  0  0  0  0  0  0  0
  189.0100  176.3770  145.4540 C   0  0  0  0  0  2  0  0  0  0  0  0
  187.0670  177.3690  144.3170 C   0  0  0  0  0  0  0  0  0  0  0  0
  194.0230  172.9320  140.2190 C   0  0  0  0  0  2  0  0  0  0  0  0
  193.2400  173.6240  141.3090 C   0  0  0  0  0  0  0  0  0  0  0  0
  195.3070  173.6170  142.7700 C   0  0  0  0  0  2  0  0  0  0  0  0
  191.0130  175.3830  144.4320 C   0  0  0  0  0  3  0  0  0  0  0  0
  193.7970  173.5290  145.7650 C   0  0  0  0  0  1  0  0  0  0  0  0
  193.1250  174.5060  143.5810 C   0  0  0  0  0  0  0  0  0  0  0  0
  195.9800  174.8170  143.4390 C   0  0  2  0  0  3  0  0  0  0  0  0
  197.4380  174.5020  143.7360 C   0  0  0  0  0  2  0  0  0  0  0  0
  197.5650  173.7920  145.0700 C   0  0  0  0  0  1  0  0  0  0  0  0
  194.5660  177.3970  145.7630 C   0  0  0  0  0  2  0  0  0  0  0  0
  195.2860  176.7660  144.8390 C   0  0  0  0  0  3  0  0  0  0  0  0
  186.6390  178.6650  144.6090 O   0  0  0  0  0  0  0  0  0  0  0  0
  185.4860  178.9230  145.3970 C   0  0  1  0  0  3  0  0  0  0  0  0
  184.3920  179.4160  144.5350 C   0  0  0  0  0  2  0  0  0  0  0  0
  184.4420  178.0810  144.9750 O   0  0  0  0  0  0  0  0  0  0  0  0
  1 17  2  0  0  0  0
  2 23  1  0  0  0  0
  2 21  2  0  0  0  0
  3 10  1  0  0  0  0
  4  3  1  0  0  0  0
  4 18  1  0  0  0  0
  5 22  1  1  0  0  0
  6 28  1  6  0  0  0
  6  5  1  0  0  0  0
  7 21  1  0  0  0  0
  7 16  1  0  0  0  0
  8 11  2  0  0  0  0
  8 15  1  0  0  0  0
  9 15  1  0  0  0  0
  9  1  1  0  0  0  0
 10 12  1  0  0  0  0
 11  2  1  0  0  0  0
 12 19  2  0  0  0  0
 12 11  1  0  0  0  0
 13 20  1  0  0  0  0
 13 23  2  0  0  0  0
 14 16  1  0  0  0  0
 15  7  2  0  0  0  0
 17 29  1  0  0  0  0
 17 14  1  0  0  0  0
 18 19  1  0  0  0  0
 19 13  1  0  0  0  0
 20 24  1  0  0  0  0
 23  5  1  0  0  0  0
 24 25  1  1  0  0  0
 24  6  1  0  0  0  0
 25 26  1  0  0  0  0
 28 27  2  0  0  0  0
 30 29  1  6  0  0  0
 31 32  1  0  0  0  0
 31 30  1  0  0  0  0
 32 30  1  0  0  0  0
M  END
>  <MODEL>
9

>  <REMARK>
 VINA RESULT:      -6.7      4.121      8.006
  Name = 
  4 active torsions:
  status: ('A' for Active; 'I' for Inactive)
    1  A    between atoms: C_1  and  O_10
    2  A    between atoms: C_7  and  C_22
    3  A    between atoms: O_10  and  C_24
    4  A    between atoms: C_11  and  C_32
                            x       y       z     vdW  Elec       q    Type
                         _______ _______ _______ _____ _____    ______ ____

>  <TORSDO>
F 4

$$$$
