=
 OpenBabel11052421213D

 43 46  0  0  1  0  0  0  0  0999 V2000
  191.1530  175.4930  145.8620 C   0  0  1  0  0  3  0  0  0  0  0  0
  190.4340  176.7830  146.1310 C   0  0  0  0  0  0  0  0  0  0  0  0
  190.4280  177.2580  147.2980 O   0  0  0  0  0  0  0  0  0  0  0  0
  189.8150  177.5070  145.1040 O   0  0  0  0  0  0  0  0  0  0  0  0
  190.4420  177.9060  143.9140 C   0  0  0  0  0  0  0  0  0  0  0  0
  191.5080  178.5760  143.9290 O   0  0  0  0  0  0  0  0  0  0  0  0
  189.8680  177.4910  142.6070 C   0  0  0  0  0  2  0  0  0  0  0  0
  188.4190  177.9360  142.5140 C   0  0  0  0  0  2  0  0  0  0  0  0
  187.7000  177.1630  141.4240 C   0  0  1  0  0  3  0  0  0  0  0  0
  187.9150  175.6810  141.6530 C   0  0  0  0  0  1  0  0  0  0  0  0
  186.2070  177.4500  141.4670 C   0  0  0  0  0  2  0  0  0  0  0  0
  185.9310  178.7790  142.1450 C   0  0  0  0  0  2  0  0  0  0  0  0
  184.6870  178.7330  142.7700 O   0  0  0  0  0  0  0  0  0  0  0  0
  184.7600  177.6300  143.6250 C   0  0  0  0  0  2  0  0  0  0  0  0
  185.4640  178.0000  144.9240 C   0  0  1  0  0  3  0  0  0  0  0  0
  186.7560  176.9040  146.7000 C   0  0  0  0  0  3  0  0  0  0  0  0
  184.9370  178.4160  147.4300 C   0  0  0  0  0  2  0  0  0  0  0  0
  186.4280  178.0910  147.5580 C   0  0  0  0  0  2  0  0  0  0  0  0
  184.4620  178.5320  145.9660 C   0  0  0  0  0  2  0  0  0  0  0  0
  186.2920  176.8560  145.4470 C   0  0  0  0  0  3  0  0  0  0  0  0
  192.2630  175.2930  146.8870 C   0  0  0  0  0  2  0  0  0  0  0  0
  194.3000  172.8230  142.7030 C   0  0  0  0  0  2  0  0  0  0  0  0
  193.8140  176.7840  145.6710 C   0  0  0  0  0  2  0  0  0  0  0  0
  195.0900  174.6450  144.3330 C   0  0  1  0  0  3  0  0  0  0  0  0
  193.2010  171.9350  144.8020 C   0  0  0  0  0  2  0  0  0  0  0  0
  194.0440  171.6000  143.5770 C   0  0  0  0  0  2  0  0  0  0  0  0
  193.8230  174.3180  145.1510 C   0  0  1  0  0  3  0  0  0  0  0  0
  195.4750  173.6170  143.2610 C   0  0  0  0  0  2  0  0  0  0  0  0
  193.9000  172.9130  145.7370 C   0  0  0  0  0  2  0  0  0  0  0  0
  193.6450  175.3790  146.2510 C   0  0  2  0  0  3  0  0  0  0  0  0
  195.0710  176.8420  144.8060 C   0  0  0  0  0  2  0  0  0  0  0  0
  194.9670  175.9180  143.7520 O   0  0  0  0  0  0  0  0  0  0  0  0
  190.1680  174.3340  145.8740 C   0  0  0  0  0  2  0  0  0  0  0  0
  189.7180  174.0050  144.4610 C   0  0  0  0  0  2  0  0  0  0  0  0
  190.8140  174.3420  143.4600 C   0  0  0  0  0  2  0  0  0  0  0  0
  190.3290  171.1880  141.4150 C   0  0  0  0  0  3  0  0  0  0  0  0
  190.6830  171.6220  140.1330 C   0  0  0  0  0  0  0  0  0  0  0  0
  191.1490  173.8320  141.0280 C   0  0  0  0  0  3  0  0  0  0  0  0
  190.3810  172.0690  142.4990 C   0  0  0  0  0  3  0  0  0  0  0  0
  190.7940  173.3920  142.3070 C   0  0  0  0  0  0  0  0  0  0  0  0
  191.0950  172.9510  139.9450 C   0  0  0  0  0  3  0  0  0  0  0  0
  189.7770  170.9190  137.9410 C   0  0  0  0  0  1  0  0  0  0  0  0
  190.6170  170.7160  139.0710 O   0  0  0  0  0  0  0  0  0  0  0  0
  1 33  1  1  0  0  0
  1  2  1  0  0  0  0
  1 21  1  0  0  0  0
  2  3  2  0  0  0  0
  4  2  1  0  0  0  0
  5  6  2  0  0  0  0
  5  4  1  0  0  0  0
  7  5  1  0  0  0  0
  8  7  1  0  0  0  0
  9 11  1  0  0  0  0
  9 10  1  1  0  0  0
  9  8  1  0  0  0  0
 11 12  1  0  0  0  0
 12 13  1  0  0  0  0
 13 14  1  0  0  0  0
 15 14  1  6  0  0  0
 15 20  1  0  0  0  0
 15 19  1  0  0  0  0
 16 18  1  0  0  0  0
 17 18  1  0  0  0  0
 19 17  1  0  0  0  0
 20 16  2  0  0  0  0
 22 28  1  0  0  0  0
 22 26  1  0  0  0  0
 23 30  1  0  0  0  0
 24 28  1  6  0  0  0
 24 27  1  0  0  0  0
 25 29  1  0  0  0  0
 26 25  1  0  0  0  0
 27 29  1  1  0  0  0
 27 30  1  0  0  0  0
 30 21  1  6  0  0  0
 31 23  1  0  0  0  0
 32 24  1  0  0  0  0
 32 31  1  0  0  0  0
 34 33  1  0  0  0  0
 35 34  1  0  0  0  0
 36 39  1  0  0  0  0
 37 36  2  0  0  0  0
 38 40  1  0  0  0  0
 40 39  2  0  0  0  0
 40 35  1  0  0  0  0
 41 37  1  0  0  0  0
 41 38  2  0  0  0  0
 42 43  1  0  0  0  0
 43 37  1  0  0  0  0
M  END
>  <MODEL>
1

>  <REMARK>
 VINA RESULT:      -6.7      0.000      0.000
  Name = 
  18 active torsions:
  status: ('A' for Active; 'I' for Inactive)
    1  A    between atoms: C_1  and  C_34
    2  A    between atoms: C_1  and  C_35
    3  A    between atoms: C_2  and  O_6
    4  A    between atoms: C_2  and  C_27
    5  A    between atoms: C_3  and  C_4
    6  A    between atoms: C_3  and  C_12
    7  A    between atoms: C_4  and  C_15
    8  A    between atoms: O_6  and  C_12
    9  A    between atoms: C_10  and  C_15
   10  A    between atoms: C_10  and  C_41
   11  A    between atoms: C_11  and  C_14
   12  A    between atoms: C_13  and  C_27
   13  A    between atoms: C_13  and  C_30
   14  A    between atoms: C_14  and  O_22
   15  A    between atoms: C_19  and  O_37
   16  A    between atoms: O_22  and  C_41
   17  A    between atoms: C_27  and  C_38
   18  A    between atoms: C_34  and  C_38
                            x       y       z     vdW  Elec       q    Type
                         _______ _______ _______ _____ _____    ______ ____

>  <TORSDO>
F 18

$$$$
=
 OpenBabel11052421213D

 43 46  0  0  1  0  0  0  0  0999 V2000
  189.1870  177.3710  144.3640 C   0  0  1  0  0  3  0  0  0  0  0  0
  190.2120  177.6610  143.3060 C   0  0  0  0  0  0  0  0  0  0  0  0
  189.8680  178.2720  142.2600 O   0  0  0  0  0  0  0  0  0  0  0  0
  191.5600  177.3190  143.4770 O   0  0  0  0  0  0  0  0  0  0  0  0
  192.1870  176.2110  142.8900 C   0  0  0  0  0  0  0  0  0  0  0  0
  193.4320  176.1910  142.6950 O   0  0  0  0  0  0  0  0  0  0  0  0
  191.3810  175.0140  142.5350 C   0  0  0  0  0  2  0  0  0  0  0  0
  192.2730  173.7870  142.4830 C   0  0  0  0  0  2  0  0  0  0  0  0
  191.4600  172.5330  142.7520 C   0  0  1  0  0  3  0  0  0  0  0  0
  192.2960  171.5750  143.5740 C   0  0  0  0  0  1  0  0  0  0  0  0
  190.2020  172.8760  143.5360 C   0  0  0  0  0  2  0  0  0  0  0  0
  188.9640  172.3690  142.8210 C   0  0  0  0  0  2  0  0  0  0  0  0
  189.2300  172.2470  141.4580 O   0  0  0  0  0  0  0  0  0  0  0  0
  188.5050  173.2810  140.8610 C   0  0  0  0  0  2  0  0  0  0  0  0
  189.2100  173.7810  139.6080 C   0  0  1  0  0  3  0  0  0  0  0  0
  188.7640  174.0060  137.2040 C   0  0  0  0  0  3  0  0  0  0  0  0
  190.9300  172.9840  137.8350 C   0  0  0  0  0  2  0  0  0  0  0  0
  190.2520  174.0890  137.0200 C   0  0  0  0  0  2  0  0  0  0  0  0
  190.4670  172.9420  139.3070 C   0  0  0  0  0  2  0  0  0  0  0  0
  188.2680  173.8520  138.4360 C   0  0  0  0  0  3  0  0  0  0  0  0
  188.4130  176.1080  144.0060 C   0  0  0  0  0  2  0  0  0  0  0  0
  185.0940  179.3700  146.4770 C   0  0  0  0  0  2  0  0  0  0  0  0
  186.7950  177.0730  142.4060 C   0  0  0  0  0  2  0  0  0  0  0  0
  184.9710  177.8120  144.4370 C   0  0  1  0  0  3  0  0  0  0  0  0
  186.5760  177.5130  147.3460 C   0  0  0  0  0  2  0  0  0  0  0  0
  185.4140  178.4510  147.6510 C   0  0  0  0  0  2  0  0  0  0  0  0
  186.3560  177.2940  144.8780 C   0  0  1  0  0  3  0  0  0  0  0  0
  184.2040  178.6370  145.4800 C   0  0  0  0  0  2  0  0  0  0  0  0
  186.2620  176.5520  146.2070 C   0  0  0  0  0  2  0  0  0  0  0  0
  186.9350  176.3960  143.7710 C   0  0  2  0  0  3  0  0  0  0  0  0
  185.3740  177.6080  142.2360 C   0  0  0  0  0  2  0  0  0  0  0  0
  185.0940  178.5460  143.2450 O   0  0  0  0  0  0  0  0  0  0  0  0
  189.8600  177.2460  145.7220 C   0  0  0  0  0  2  0  0  0  0  0  0
  190.0310  175.7840  146.0970 C   0  0  0  0  0  2  0  0  0  0  0  0
  191.0450  175.6370  147.2230 C   0  0  0  0  0  2  0  0  0  0  0  0
  194.0890  174.0730  145.5940 C   0  0  0  0  0  3  0  0  0  0  0  0
  194.9890  175.1440  145.5860 C   0  0  0  0  0  0  0  0  0  0  0  0
  193.3200  176.5350  146.6730 C   0  0  0  0  0  3  0  0  0  0  0  0
  192.8100  174.2300  146.1350 C   0  0  0  0  0  3  0  0  0  0  0  0
  192.4250  175.4600  146.6790 C   0  0  0  0  0  0  0  0  0  0  0  0
  194.5980  176.3780  146.1300 C   0  0  0  0  0  3  0  0  0  0  0  0
  196.6800  175.5980  143.8370 C   0  0  0  0  0  1  0  0  0  0  0  0
  196.2600  174.9550  145.0340 O   0  0  0  0  0  0  0  0  0  0  0  0
  1 21  1  6  0  0  0
  1 33  1  0  0  0  0
  2  4  1  0  0  0  0
  2  1  1  0  0  0  0
  3  2  2  0  0  0  0
  5  4  1  0  0  0  0
  6  5  2  0  0  0  0
  7  5  1  0  0  0  0
  8  7  1  0  0  0  0
  8  9  1  0  0  0  0
  9 11  1  0  0  0  0
  9 10  1  1  0  0  0
 12 11  1  0  0  0  0
 13 12  1  0  0  0  0
 14 13  1  0  0  0  0
 15 14  1  1  0  0  0
 16 20  2  0  0  0  0
 17 19  1  0  0  0  0
 18 16  1  0  0  0  0
 18 17  1  0  0  0  0
 19 15  1  0  0  0  0
 20 15  1  0  0  0  0
 22 26  1  0  0  0  0
 23 30  1  0  0  0  0
 24 27  1  0  0  0  0
 24 28  1  1  0  0  0
 25 26  1  0  0  0  0
 27 29  1  1  0  0  0
 28 22  1  0  0  0  0
 29 25  1  0  0  0  0
 30 21  1  1  0  0  0
 30 27  1  0  0  0  0
 31 23  1  0  0  0  0
 31 32  1  0  0  0  0
 32 24  1  0  0  0  0
 33 34  1  0  0  0  0
 34 35  1  0  0  0  0
 36 39  1  0  0  0  0
 37 36  2  0  0  0  0
 37 41  1  0  0  0  0
 38 40  1  0  0  0  0
 39 40  2  0  0  0  0
 40 35  1  0  0  0  0
 41 38  2  0  0  0  0
 42 43  1  0  0  0  0
 43 37  1  0  0  0  0
M  END
>  <MODEL>
2

>  <REMARK>
 VINA RESULT:      -6.6      1.699      7.783
  Name = 
  18 active torsions:
  status: ('A' for Active; 'I' for Inactive)
    1  A    between atoms: C_1  and  C_34
    2  A    between atoms: C_1  and  C_35
    3  A    between atoms: C_2  and  O_6
    4  A    between atoms: C_2  and  C_27
    5  A    between atoms: C_3  and  C_4
    6  A    between atoms: C_3  and  C_12
    7  A    between atoms: C_4  and  C_15
    8  A    between atoms: O_6  and  C_12
    9  A    between atoms: C_10  and  C_15
   10  A    between atoms: C_10  and  C_41
   11  A    between atoms: C_11  and  C_14
   12  A    between atoms: C_13  and  C_27
   13  A    between atoms: C_13  and  C_30
   14  A    between atoms: C_14  and  O_22
   15  A    between atoms: C_19  and  O_37
   16  A    between atoms: O_22  and  C_41
   17  A    between atoms: C_27  and  C_38
   18  A    between atoms: C_34  and  C_38
                            x       y       z     vdW  Elec       q    Type
                         _______ _______ _______ _____ _____    ______ ____

>  <TORSDO>
F 18

$$$$
=
 OpenBabel11052421213D

 43 46  0  0  1  0  0  0  0  0999 V2000
  191.1150  172.4430  142.0080 C   0  0  1  0  0  3  0  0  0  0  0  0
  190.6790  172.2350  140.5870 C   0  0  0  0  0  0  0  0  0  0  0  0
  190.7760  171.0900  140.0700 O   0  0  0  0  0  0  0  0  0  0  0  0
  190.1110  173.2700  139.8340 O   0  0  0  0  0  0  0  0  0  0  0  0
  188.7400  173.5570  139.7710 C   0  0  0  0  0  0  0  0  0  0  0  0
  187.8970  172.6650  139.4910 O   0  0  0  0  0  0  0  0  0  0  0  0
  188.2620  174.9280  140.0890 C   0  0  0  0  0  2  0  0  0  0  0  0
  187.9390  175.0330  141.5690 C   0  0  0  0  0  2  0  0  0  0  0  0
  187.5750  176.4630  141.9280 C   0  0  1  0  0  3  0  0  0  0  0  0
  188.8440  177.2250  142.2470 C   0  0  0  0  0  1  0  0  0  0  0  0
  186.8790  177.1420  140.7580 C   0  0  0  0  0  2  0  0  0  0  0  0
  186.0100  178.2890  141.2370 C   0  0  0  0  0  2  0  0  0  0  0  0
  185.3720  177.9260  142.4210 O   0  0  0  0  0  0  0  0  0  0  0  0
  185.5250  179.0340  143.2600 C   0  0  0  0  0  2  0  0  0  0  0  0
  185.8380  178.5920  144.6830 C   0  0  1  0  0  3  0  0  0  0  0  0
  185.7900  176.5420  146.0320 C   0  0  0  0  0  3  0  0  0  0  0  0
  184.7580  178.5530  147.0420 C   0  0  0  0  0  2  0  0  0  0  0  0
  185.7850  177.4350  147.2390 C   0  0  0  0  0  2  0  0  0  0  0  0
  184.9150  179.2940  145.6970 C   0  0  0  0  0  2  0  0  0  0  0  0
  185.8080  177.0920  144.8140 C   0  0  0  0  0  3  0  0  0  0  0  0
  191.7400  173.8240  142.1630 C   0  0  0  0  0  2  0  0  0  0  0  0
  194.4610  175.6650  146.2820 C   0  0  0  0  0  2  0  0  0  0  0  0
  193.5720  172.2730  142.7550 C   0  0  0  0  0  2  0  0  0  0  0  0
  194.9900  174.2370  144.2130 C   0  0  1  0  0  3  0  0  0  0  0  0
  192.9220  176.8200  144.6390 C   0  0  0  0  0  2  0  0  0  0  0  0
  193.9790  176.9990  145.7240 C   0  0  0  0  0  2  0  0  0  0  0  0
  193.5710  174.5990  143.7270 C   0  0  1  0  0  3  0  0  0  0  0  0
  195.5360  175.0850  145.3700 C   0  0  0  0  0  2  0  0  0  0  0  0
  193.4640  176.0870  143.4180 C   0  0  0  0  0  2  0  0  0  0  0  0
  193.2250  173.7400  142.4980 C   0  0  2  0  0  3  0  0  0  0  0  0
  194.9790  172.1670  143.3390 C   0  0  0  0  0  2  0  0  0  0  0  0
  195.0460  172.8750  144.5510 O   0  0  0  0  0  0  0  0  0  0  0  0
  189.9340  172.2570  142.9490 C   0  0  0  0  0  2  0  0  0  0  0  0
  189.6900  173.5240  143.7510 C   0  0  0  0  0  2  0  0  0  0  0  0
  189.9530  173.2770  145.2300 C   0  0  0  0  0  2  0  0  0  0  0  0
  189.4820  176.8810  146.3070 C   0  0  0  0  0  3  0  0  0  0  0  0
  190.3640  176.9720  147.3890 C   0  0  0  0  0  0  0  0  0  0  0  0
  191.0000  174.6530  147.0460 C   0  0  0  0  0  3  0  0  0  0  0  0
  189.3550  175.6830  145.5980 C   0  0  0  0  0  3  0  0  0  0  0  0
  190.1170  174.5680  145.9650 C   0  0  0  0  0  0  0  0  0  0  0  0
  191.1250  175.8500  147.7550 C   0  0  0  0  0  3  0  0  0  0  0  0
  191.0370  178.2820  149.3770 C   0  0  0  0  0  1  0  0  0  0  0  0
  190.4640  178.1830  148.0790 O   0  0  0  0  0  0  0  0  0  0  0  0
  1 21  1  6  0  0  0
  1 33  1  0  0  0  0
  2  1  1  0  0  0  0
  3  2  2  0  0  0  0
  4  2  1  0  0  0  0
  5  4  1  0  0  0  0
  5  7  1  0  0  0  0
  6  5  2  0  0  0  0
  7  8  1  0  0  0  0
  8  9  1  0  0  0  0
  9 10  1  6  0  0  0
 11 12  1  0  0  0  0
 11  9  1  0  0  0  0
 12 13  1  0  0  0  0
 13 14  1  0  0  0  0
 15 14  1  6  0  0  0
 15 20  1  0  0  0  0
 15 19  1  0  0  0  0
 16 18  1  0  0  0  0
 17 18  1  0  0  0  0
 19 17  1  0  0  0  0
 20 16  2  0  0  0  0
 23 31  1  0  0  0  0
 24 32  1  0  0  0  0
 24 28  1  1  0  0  0
 25 26  1  0  0  0  0
 26 22  1  0  0  0  0
 27 29  1  6  0  0  0
 27 24  1  0  0  0  0
 28 22  1  0  0  0  0
 29 25  1  0  0  0  0
 30 21  1  1  0  0  0
 30 23  1  0  0  0  0
 30 27  1  0  0  0  0
 31 32  1  0  0  0  0
 33 34  1  0  0  0  0
 34 35  1  0  0  0  0
 35 40  1  0  0  0  0
 36 37  1  0  0  0  0
 37 41  2  0  0  0  0
 37 43  1  0  0  0  0
 38 41  1  0  0  0  0
 39 40  1  0  0  0  0
 39 36  2  0  0  0  0
 40 38  2  0  0  0  0
 43 42  1  0  0  0  0
M  END
>  <MODEL>
3

>  <REMARK>
 VINA RESULT:      -6.4      1.547      5.266
  Name = 
  18 active torsions:
  status: ('A' for Active; 'I' for Inactive)
    1  A    between atoms: C_1  and  C_34
    2  A    between atoms: C_1  and  C_35
    3  A    between atoms: C_2  and  O_6
    4  A    between atoms: C_2  and  C_27
    5  A    between atoms: C_3  and  C_4
    6  A    between atoms: C_3  and  C_12
    7  A    between atoms: C_4  and  C_15
    8  A    between atoms: O_6  and  C_12
    9  A    between atoms: C_10  and  C_15
   10  A    between atoms: C_10  and  C_41
   11  A    between atoms: C_11  and  C_14
   12  A    between atoms: C_13  and  C_27
   13  A    between atoms: C_13  and  C_30
   14  A    between atoms: C_14  and  O_22
   15  A    between atoms: C_19  and  O_37
   16  A    between atoms: O_22  and  C_41
   17  A    between atoms: C_27  and  C_38
   18  A    between atoms: C_34  and  C_38
                            x       y       z     vdW  Elec       q    Type
                         _______ _______ _______ _____ _____    ______ ____

>  <TORSDO>
F 18

$$$$
=
 OpenBabel11052421213D

 43 46  0  0  1  0  0  0  0  0999 V2000
  190.9020  175.4700  144.4060 C   0  0  1  0  0  3  0  0  0  0  0  0
  189.8290  176.3800  144.9270 C   0  0  0  0  0  0  0  0  0  0  0  0
  190.0210  177.6250  144.9350 O   0  0  0  0  0  0  0  0  0  0  0  0
  188.5900  175.8840  145.3530 O   0  0  0  0  0  0  0  0  0  0  0  0
  188.1430  175.8780  146.6820 C   0  0  0  0  0  0  0  0  0  0  0  0
  188.5410  175.0090  147.5020 O   0  0  0  0  0  0  0  0  0  0  0  0
  187.2180  176.9430  147.1510 C   0  0  0  0  0  2  0  0  0  0  0  0
  185.8460  176.7460  146.5320 C   0  0  0  0  0  2  0  0  0  0  0  0
  184.9450  177.9220  146.8660 C   0  0  1  0  0  3  0  0  0  0  0  0
  185.7650  178.9830  147.5690 C   0  0  0  0  0  1  0  0  0  0  0  0
  184.3620  178.5200  145.5950 C   0  0  0  0  0  2  0  0  0  0  0  0
  185.2430  179.6370  145.0690 C   0  0  0  0  0  2  0  0  0  0  0  0
  185.1650  179.6770  143.6780 O   0  0  0  0  0  0  0  0  0  0  0  0
  184.6720  178.4210  143.3150 C   0  0  0  0  0  2  0  0  0  0  0  0
  185.6550  177.6990  142.4040 C   0  0  1  0  0  3  0  0  0  0  0  0
  187.0740  175.6960  142.4370 C   0  0  0  0  0  3  0  0  0  0  0  0
  188.1460  177.7960  141.6820 C   0  0  0  0  0  2  0  0  0  0  0  0
  187.8590  176.3340  141.3280 C   0  0  0  0  0  2  0  0  0  0  0  0
  186.8860  178.5780  142.1080 C   0  0  0  0  0  2  0  0  0  0  0  0
  186.0280  176.3480  142.9550 C   0  0  0  0  0  3  0  0  0  0  0  0
  191.5160  174.6780  145.5540 C   0  0  0  0  0  2  0  0  0  0  0  0
  195.3610  176.1450  142.2640 C   0  0  0  0  0  2  0  0  0  0  0  0
  192.9340  176.4130  146.5970 C   0  0  0  0  0  2  0  0  0  0  0  0
  195.0810  175.9710  144.8120 C   0  0  1  0  0  3  0  0  0  0  0  0
  193.9130  174.0710  142.3310 C   0  0  0  0  0  2  0  0  0  0  0  0
  195.1630  174.7230  141.7510 C   0  0  0  0  0  2  0  0  0  0  0  0
  193.7490  175.2520  144.5140 C   0  0  1  0  0  3  0  0  0  0  0  0
  196.0450  176.1090  143.6250 C   0  0  0  0  0  2  0  0  0  0  0  0
  193.9950  173.9060  143.8430 C   0  0  0  0  0  2  0  0  0  0  0  0
  192.9570  175.0940  145.8240 C   0  0  2  0  0  3  0  0  0  0  0  0
  194.3430  176.9980  146.6690 C   0  0  0  0  0  2  0  0  0  0  0  0
  194.8270  177.2340  145.3710 O   0  0  0  0  0  0  0  0  0  0  0  0
  190.3330  174.5500  143.3360 C   0  0  0  0  0  2  0  0  0  0  0  0
  190.3710  173.1050  143.8040 C   0  0  0  0  0  2  0  0  0  0  0  0
  189.2210  172.3160  143.1950 C   0  0  0  0  0  2  0  0  0  0  0  0
  190.5440  171.6870  139.6990 C   0  0  0  0  0  3  0  0  0  0  0  0
  189.4930  172.1610  138.9070 C   0  0  0  0  0  0  0  0  0  0  0  0
  188.2700  172.7630  140.9180 C   0  0  0  0  0  3  0  0  0  0  0  0
  190.4610  171.7460  141.0930 C   0  0  0  0  0  3  0  0  0  0  0  0
  189.3250  172.2870  141.7050 C   0  0  0  0  0  0  0  0  0  0  0  0
  188.3530  172.7020  139.5250 C   0  0  0  0  0  3  0  0  0  0  0  0
  189.9910  173.1930  136.7140 C   0  0  0  0  0  1  0  0  0  0  0  0
  189.6060  172.0840  137.5160 O   0  0  0  0  0  0  0  0  0  0  0  0
  1 33  1  6  0  0  0
  1  2  1  0  0  0  0
  1 21  1  0  0  0  0
  2  3  2  0  0  0  0
  2  4  1  0  0  0  0
  4  5  1  0  0  0  0
  5  7  1  0  0  0  0
  5  6  2  0  0  0  0
  8  9  1  0  0  0  0
  8  7  1  0  0  0  0
  9 10  1  6  0  0  0
 11  9  1  0  0  0  0
 12 11  1  0  0  0  0
 13 12  1  0  0  0  0
 14 13  1  0  0  0  0
 15 20  1  0  0  0  0
 15 14  1  1  0  0  0
 16 20  2  0  0  0  0
 17 19  1  0  0  0  0
 18 17  1  0  0  0  0
 18 16  1  0  0  0  0
 19 15  1  0  0  0  0
 22 28  1  0  0  0  0
 23 31  1  0  0  0  0
 24 28  1  6  0  0  0
 24 32  1  0  0  0  0
 25 29  1  0  0  0  0
 26 22  1  0  0  0  0
 26 25  1  0  0  0  0
 27 29  1  1  0  0  0
 27 24  1  0  0  0  0
 27 30  1  0  0  0  0
 30 21  1  6  0  0  0
 30 23  1  0  0  0  0
 32 31  1  0  0  0  0
 33 34  1  0  0  0  0
 35 34  1  0  0  0  0
 36 39  1  0  0  0  0
 37 41  1  0  0  0  0
 37 36  2  0  0  0  0
 38 40  1  0  0  0  0
 39 40  2  0  0  0  0
 40 35  1  0  0  0  0
 41 38  2  0  0  0  0
 42 43  1  0  0  0  0
 43 37  1  0  0  0  0
M  END
>  <MODEL>
4

>  <REMARK>
 VINA RESULT:      -6.4      1.520      3.422
  Name = 
  18 active torsions:
  status: ('A' for Active; 'I' for Inactive)
    1  A    between atoms: C_1  and  C_34
    2  A    between atoms: C_1  and  C_35
    3  A    between atoms: C_2  and  O_6
    4  A    between atoms: C_2  and  C_27
    5  A    between atoms: C_3  and  C_4
    6  A    between atoms: C_3  and  C_12
    7  A    between atoms: C_4  and  C_15
    8  A    between atoms: O_6  and  C_12
    9  A    between atoms: C_10  and  C_15
   10  A    between atoms: C_10  and  C_41
   11  A    between atoms: C_11  and  C_14
   12  A    between atoms: C_13  and  C_27
   13  A    between atoms: C_13  and  C_30
   14  A    between atoms: C_14  and  O_22
   15  A    between atoms: C_19  and  O_37
   16  A    between atoms: O_22  and  C_41
   17  A    between atoms: C_27  and  C_38
   18  A    between atoms: C_34  and  C_38
                            x       y       z     vdW  Elec       q    Type
                         _______ _______ _______ _____ _____    ______ ____

>  <TORSDO>
F 18

$$$$
=
 OpenBabel11052421213D

 43 46  0  0  1  0  0  0  0  0999 V2000
  188.7210  174.1330  141.3110 C   0  0  1  0  0  3  0  0  0  0  0  0
  188.9300  173.7480  139.8760 C   0  0  0  0  0  0  0  0  0  0  0  0
  188.3530  174.4040  138.9670 O   0  0  0  0  0  0  0  0  0  0  0  0
  189.7990  172.7110  139.5120 O   0  0  0  0  0  0  0  0  0  0  0  0
  191.1560  172.8750  139.1980 C   0  0  0  0  0  0  0  0  0  0  0  0
  191.5370  173.7570  138.3850 O   0  0  0  0  0  0  0  0  0  0  0  0
  192.1730  172.0260  139.8730 C   0  0  0  0  0  2  0  0  0  0  0  0
  192.9600  172.8570  140.8700 C   0  0  0  0  0  2  0  0  0  0  0  0
  194.4510  172.6830  140.6400 C   0  0  1  0  0  3  0  0  0  0  0  0
  194.6580  171.7280  139.4820 C   0  0  0  0  0  1  0  0  0  0  0  0
  195.0920  174.0180  140.2900 C   0  0  0  0  0  2  0  0  0  0  0  0
  194.1010  175.1540  140.4570 C   0  0  0  0  0  2  0  0  0  0  0  0
  194.6010  176.0760  141.3750 O   0  0  0  0  0  0  0  0  0  0  0  0
  193.5970  176.1930  142.3410 C   0  0  0  0  0  2  0  0  0  0  0  0
  194.1380  175.8550  143.7230 C   0  0  1  0  0  3  0  0  0  0  0  0
  193.9270  174.0780  145.4040 C   0  0  0  0  0  3  0  0  0  0  0  0
  193.7080  176.4050  146.2220 C   0  0  0  0  0  2  0  0  0  0  0  0
  194.4440  175.0740  146.4020 C   0  0  0  0  0  2  0  0  0  0  0  0
  193.7000  176.9050  144.7630 C   0  0  0  0  0  2  0  0  0  0  0  0
  193.7740  174.4510  144.1300 C   0  0  0  0  0  3  0  0  0  0  0  0
  189.9250  174.9170  141.8190 C   0  0  0  0  0  2  0  0  0  0  0  0
  188.5370  175.9060  146.8050 C   0  0  0  0  0  2  0  0  0  0  0  0
  190.1030  172.8690  143.1910 C   0  0  0  0  0  2  0  0  0  0  0  0
  190.1630  174.3020  145.6270 C   0  0  1  0  0  3  0  0  0  0  0  0
  189.2750  177.4420  144.9340 C   0  0  0  0  0  2  0  0  0  0  0  0
  189.0260  177.3020  146.4320 C   0  0  0  0  0  2  0  0  0  0  0  0
  189.8550  175.0970  144.3410 C   0  0  1  0  0  3  0  0  0  0  0  0
  189.7280  174.9650  146.9420 C   0  0  0  0  0  2  0  0  0  0  0  0
  190.3850  176.5230  144.4420 C   0  0  0  0  0  2  0  0  0  0  0  0
  190.4550  174.3560  143.1340 C   0  0  2  0  0  3  0  0  0  0  0  0
  190.3840  172.3220  144.5890 C   0  0  0  0  0  2  0  0  0  0  0  0
  189.6100  173.0140  145.5360 O   0  0  0  0  0  0  0  0  0  0  0  0
  187.4350  174.9320  141.4560 C   0  0  0  0  0  2  0  0  0  0  0  0
  187.7430  176.4130  141.5990 C   0  0  0  0  0  2  0  0  0  0  0  0
  186.4590  177.2290  141.5820 C   0  0  0  0  0  2  0  0  0  0  0  0
  185.5330  177.1670  145.2570 C   0  0  0  0  0  3  0  0  0  0  0  0
  185.4950  178.5320  145.5640 C   0  0  0  0  0  0  0  0  0  0  0  0
  186.0610  179.0500  143.2590 C   0  0  0  0  0  3  0  0  0  0  0  0
  185.8370  176.7430  143.9600 C   0  0  0  0  0  3  0  0  0  0  0  0
  186.0980  177.6840  142.9590 C   0  0  0  0  0  0  0  0  0  0  0  0
  185.7600  179.4730  144.5570 C   0  0  0  0  0  3  0  0  0  0  0  0
  185.7410  178.2760  148.0120 C   0  0  0  0  0  1  0  0  0  0  0  0
  185.1920  178.9220  146.8720 O   0  0  0  0  0  0  0  0  0  0  0  0
  1 33  1  6  0  0  0
  1 21  1  0  0  0  0
  2  1  1  0  0  0  0
  3  2  2  0  0  0  0
  4  2  1  0  0  0  0
  5  4  1  0  0  0  0
  5  7  1  0  0  0  0
  6  5  2  0  0  0  0
  7  8  1  0  0  0  0
  9 10  1  6  0  0  0
  9  8  1  0  0  0  0
 11 12  1  0  0  0  0
 11  9  1  0  0  0  0
 12 13  1  0  0  0  0
 13 14  1  0  0  0  0
 15 14  1  6  0  0  0
 15 20  1  0  0  0  0
 15 19  1  0  0  0  0
 16 18  1  0  0  0  0
 17 18  1  0  0  0  0
 19 17  1  0  0  0  0
 20 16  2  0  0  0  0
 22 28  1  0  0  0  0
 23 31  1  0  0  0  0
 24 28  1  1  0  0  0
 25 26  1  0  0  0  0
 26 22  1  0  0  0  0
 27 29  1  1  0  0  0
 27 24  1  0  0  0  0
 29 25  1  0  0  0  0
 30 21  1  6  0  0  0
 30 23  1  0  0  0  0
 30 27  1  0  0  0  0
 31 32  1  0  0  0  0
 32 24  1  0  0  0  0
 33 34  1  0  0  0  0
 35 34  1  0  0  0  0
 35 40  1  0  0  0  0
 36 37  1  0  0  0  0
 37 43  1  0  0  0  0
 38 41  1  0  0  0  0
 39 36  2  0  0  0  0
 40 38  2  0  0  0  0
 40 39  1  0  0  0  0
 41 37  2  0  0  0  0
 43 42  1  0  0  0  0
M  END
>  <MODEL>
5

>  <REMARK>
 VINA RESULT:      -6.2      2.029      7.830
  Name = 
  18 active torsions:
  status: ('A' for Active; 'I' for Inactive)
    1  A    between atoms: C_1  and  C_34
    2  A    between atoms: C_1  and  C_35
    3  A    between atoms: C_2  and  O_6
    4  A    between atoms: C_2  and  C_27
    5  A    between atoms: C_3  and  C_4
    6  A    between atoms: C_3  and  C_12
    7  A    between atoms: C_4  and  C_15
    8  A    between atoms: O_6  and  C_12
    9  A    between atoms: C_10  and  C_15
   10  A    between atoms: C_10  and  C_41
   11  A    between atoms: C_11  and  C_14
   12  A    between atoms: C_13  and  C_27
   13  A    between atoms: C_13  and  C_30
   14  A    between atoms: C_14  and  O_22
   15  A    between atoms: C_19  and  O_37
   16  A    between atoms: O_22  and  C_41
   17  A    between atoms: C_27  and  C_38
   18  A    between atoms: C_34  and  C_38
                            x       y       z     vdW  Elec       q    Type
                         _______ _______ _______ _____ _____    ______ ____

>  <TORSDO>
F 18

$$$$
=
 OpenBabel11052421213D

 43 46  0  0  1  0  0  0  0  0999 V2000
  189.2610  175.0160  145.3300 C   0  0  1  0  0  3  0  0  0  0  0  0
  189.5460  174.9390  146.8010 C   0  0  0  0  0  0  0  0  0  0  0  0
  188.5910  174.8100  147.6130 O   0  0  0  0  0  0  0  0  0  0  0  0
  190.8570  174.9490  147.2960 O   0  0  0  0  0  0  0  0  0  0  0  0
  191.5890  176.1050  147.6040 C   0  0  0  0  0  0  0  0  0  0  0  0
  191.3670  176.7590  148.6580 O   0  0  0  0  0  0  0  0  0  0  0  0
  192.6830  176.5430  146.6990 C   0  0  0  0  0  2  0  0  0  0  0  0
  193.4330  175.3330  146.1710 C   0  0  0  0  0  2  0  0  0  0  0  0
  193.8920  175.5800  144.7450 C   0  0  1  0  0  3  0  0  0  0  0  0
  192.9150  176.5220  144.0730 C   0  0  0  0  0  1  0  0  0  0  0  0
  195.2710  176.2240  144.7370 C   0  0  0  0  0  2  0  0  0  0  0  0
  196.3240  175.2400  144.2640 C   0  0  0  0  0  2  0  0  0  0  0  0
  196.7870  174.4980  145.3480 O   0  0  0  0  0  0  0  0  0  0  0  0
  197.2090  173.2860  144.7930 C   0  0  0  0  0  2  0  0  0  0  0  0
  196.7450  172.1130  145.6460 C   0  0  1  0  0  3  0  0  0  0  0  0
  197.0350  169.6770  145.7470 C   0  0  0  0  0  3  0  0  0  0  0  0
  194.7130  170.5220  145.9130 C   0  0  0  0  0  2  0  0  0  0  0  0
  195.7820  169.6450  146.5730 C   0  0  0  0  0  2  0  0  0  0  0  0
  195.2170  171.9380  145.5660 C   0  0  0  0  0  2  0  0  0  0  0  0
  197.4900  170.8510  145.2990 C   0  0  0  0  0  3  0  0  0  0  0  0
  189.1830  176.4730  144.8910 C   0  0  0  0  0  2  0  0  0  0  0  0
  184.7340  179.2580  145.3420 C   0  0  0  0  0  2  0  0  0  0  0  0
  188.5980  177.5260  142.7330 C   0  0  0  0  0  2  0  0  0  0  0  0
  185.9000  177.9360  143.4720 C   0  0  1  0  0  3  0  0  0  0  0  0
  185.6950  177.3950  146.7580 C   0  0  0  0  0  2  0  0  0  0  0  0
  184.4620  178.2310  146.4360 C   0  0  0  0  0  2  0  0  0  0  0  0
  186.8700  177.4440  144.5660 C   0  0  1  0  0  3  0  0  0  0  0  0
  184.6080  178.5970  143.9740 C   0  0  0  0  0  2  0  0  0  0  0  0
  186.1510  176.5540  145.5720 C   0  0  0  0  0  2  0  0  0  0  0  0
  188.0480  176.7080  143.9020 C   0  0  2  0  0  3  0  0  0  0  0  0
  187.4490  178.0020  141.8460 C   0  0  0  0  0  2  0  0  0  0  0  0
  186.5700  178.8040  142.5950 O   0  0  0  0  0  0  0  0  0  0  0  0
  190.3230  174.2550  144.5520 C   0  0  0  0  0  2  0  0  0  0  0  0
  189.7900  173.8420  143.1900 C   0  0  0  0  0  2  0  0  0  0  0  0
  190.6230  172.7070  142.6130 C   0  0  0  0  0  2  0  0  0  0  0  0
  194.3680  172.9890  142.0970 C   0  0  0  0  0  3  0  0  0  0  0  0
  194.4540  174.0840  141.2310 C   0  0  0  0  0  0  0  0  0  0  0  0
  192.0350  174.3000  141.2870 C   0  0  0  0  0  3  0  0  0  0  0  0
  193.1230  172.5470  142.5540 C   0  0  0  0  0  3  0  0  0  0  0  0
  191.9550  173.2040  142.1520 C   0  0  0  0  0  0  0  0  0  0  0  0
  193.2800  174.7400  140.8280 C   0  0  0  0  0  3  0  0  0  0  0  0
  196.0100  174.7240  139.4170 C   0  0  0  0  0  1  0  0  0  0  0  0
  195.7140  174.4980  140.7890 O   0  0  0  0  0  0  0  0  0  0  0  0
  1 33  1  6  0  0  0
  1  2  1  0  0  0  0
  2  4  1  0  0  0  0
  2  3  2  0  0  0  0
  4  5  1  0  0  0  0
  5  6  2  0  0  0  0
  7  5  1  0  0  0  0
  8  7  1  0  0  0  0
  9 10  1  1  0  0  0
  9  8  1  0  0  0  0
 11  9  1  0  0  0  0
 12 11  1  0  0  0  0
 12 13  1  0  0  0  0
 14 13  1  0  0  0  0
 15 14  1  6  0  0  0
 16 18  1  0  0  0  0
 17 18  1  0  0  0  0
 19 15  1  0  0  0  0
 19 17  1  0  0  0  0
 20 15  1  0  0  0  0
 20 16  2  0  0  0  0
 21  1  1  0  0  0  0
 22 26  1  0  0  0  0
 23 30  1  0  0  0  0
 24 28  1  1  0  0  0
 24 27  1  0  0  0  0
 26 25  1  0  0  0  0
 27 29  1  1  0  0  0
 28 22  1  0  0  0  0
 29 25  1  0  0  0  0
 30 27  1  0  0  0  0
 30 21  1  1  0  0  0
 31 32  1  0  0  0  0
 31 23  1  0  0  0  0
 32 24  1  0  0  0  0
 34 33  1  0  0  0  0
 35 34  1  0  0  0  0
 36 39  1  0  0  0  0
 37 36  2  0  0  0  0
 38 40  1  0  0  0  0
 40 39  2  0  0  0  0
 40 35  1  0  0  0  0
 41 37  1  0  0  0  0
 41 38  2  0  0  0  0
 42 43  1  0  0  0  0
 43 37  1  0  0  0  0
M  END
>  <MODEL>
6

>  <REMARK>
 VINA RESULT:      -6.2      2.130      8.220
  Name = 
  18 active torsions:
  status: ('A' for Active; 'I' for Inactive)
    1  A    between atoms: C_1  and  C_34
    2  A    between atoms: C_1  and  C_35
    3  A    between atoms: C_2  and  O_6
    4  A    between atoms: C_2  and  C_27
    5  A    between atoms: C_3  and  C_4
    6  A    between atoms: C_3  and  C_12
    7  A    between atoms: C_4  and  C_15
    8  A    between atoms: O_6  and  C_12
    9  A    between atoms: C_10  and  C_15
   10  A    between atoms: C_10  and  C_41
   11  A    between atoms: C_11  and  C_14
   12  A    between atoms: C_13  and  C_27
   13  A    between atoms: C_13  and  C_30
   14  A    between atoms: C_14  and  O_22
   15  A    between atoms: C_19  and  O_37
   16  A    between atoms: O_22  and  C_41
   17  A    between atoms: C_27  and  C_38
   18  A    between atoms: C_34  and  C_38
                            x       y       z     vdW  Elec       q    Type
                         _______ _______ _______ _____ _____    ______ ____

>  <TORSDO>
F 18

$$$$
=
 OpenBabel11052421213D

 43 46  0  0  1  0  0  0  0  0999 V2000
  193.1300  175.9420  145.9130 C   0  0  1  0  0  3  0  0  0  0  0  0
  191.9400  175.7920  146.8150 C   0  0  0  0  0  0  0  0  0  0  0  0
  191.5410  176.7820  147.4850 O   0  0  0  0  0  0  0  0  0  0  0  0
  191.2200  174.5930  146.8880 O   0  0  0  0  0  0  0  0  0  0  0  0
  189.9520  174.3820  146.3280 C   0  0  0  0  0  0  0  0  0  0  0  0
  188.9300  174.9590  146.7860 O   0  0  0  0  0  0  0  0  0  0  0  0
  189.8120  173.5020  145.1380 C   0  0  0  0  0  2  0  0  0  0  0  0
  189.3700  174.3200  143.9390 C   0  0  0  0  0  2  0  0  0  0  0  0
  189.6810  173.5780  142.6510 C   0  0  1  0  0  3  0  0  0  0  0  0
  188.9320  174.2370  141.5130 C   0  0  0  0  0  1  0  0  0  0  0  0
  191.1720  173.6380  142.3520 C   0  0  0  0  0  2  0  0  0  0  0  0
  191.4450  173.3080  140.8970 C   0  0  0  0  0  2  0  0  0  0  0  0
  192.4660  174.1260  140.4180 O   0  0  0  0  0  0  0  0  0  0  0  0
  193.6460  173.4850  140.8040 C   0  0  0  0  0  2  0  0  0  0  0  0
  194.5130  174.4120  141.6450 C   0  0  1  0  0  3  0  0  0  0  0  0
  195.4270  176.6880  141.5350 C   0  0  0  0  0  3  0  0  0  0  0  0
  197.0130  174.8900  142.1520 C   0  0  0  0  0  2  0  0  0  0  0  0
  196.4310  176.2460  142.5600 C   0  0  0  0  0  2  0  0  0  0  0  0
  195.9330  173.8390  141.8170 C   0  0  0  0  0  2  0  0  0  0  0  0
  194.5180  175.8130  141.0930 C   0  0  0  0  0  3  0  0  0  0  0  0
  193.3320  174.6670  145.1030 C   0  0  0  0  0  2  0  0  0  0  0  0
  195.7610  170.4180  143.1510 C   0  0  0  0  0  2  0  0  0  0  0  0
  195.7130  174.6490  145.7660 C   0  0  0  0  0  2  0  0  0  0  0  0
  196.0120  171.8860  145.2450 C   0  0  1  0  0  3  0  0  0  0  0  0
  193.3110  170.9160  143.5430 C   0  0  0  0  0  2  0  0  0  0  0  0
  194.3520  169.8430  143.2440 C   0  0  0  0  0  2  0  0  0  0  0  0
  194.6900  172.5530  144.8110 C   0  0  1  0  0  3  0  0  0  0  0  0
  196.3500  170.5600  144.5490 C   0  0  0  0  0  2  0  0  0  0  0  0
  193.5290  171.5700  144.9020 C   0  0  0  0  0  2  0  0  0  0  0  0
  194.4450  173.7990  145.6800 C   0  0  2  0  0  3  0  0  0  0  0  0
  196.9120  173.7610  146.0960 C   0  0  0  0  0  2  0  0  0  0  0  0
  197.0760  172.7900  145.0920 O   0  0  0  0  0  0  0  0  0  0  0  0
  192.9520  177.1530  145.0100 C   0  0  0  0  0  2  0  0  0  0  0  0
  192.1700  176.7750  143.7640 C   0  0  0  0  0  2  0  0  0  0  0  0
  191.4410  177.9880  143.2040 C   0  0  0  0  0  2  0  0  0  0  0  0
  188.0420  177.6720  144.8520 C   0  0  0  0  0  3  0  0  0  0  0  0
  187.1870  177.6810  143.7450 C   0  0  0  0  0  0  0  0  0  0  0  0
  189.1140  177.8640  142.2780 C   0  0  0  0  0  3  0  0  0  0  0  0
  189.4260  177.7620  144.6770 C   0  0  0  0  0  3  0  0  0  0  0  0
  189.9640  177.8550  143.3880 C   0  0  0  0  0  0  0  0  0  0  0  0
  187.7300  177.7770  142.4540 C   0  0  0  0  0  3  0  0  0  0  0  0
  184.8550  177.9580  142.9650 C   0  0  0  0  0  1  0  0  0  0  0  0
  185.8080  177.5940  143.9560 O   0  0  0  0  0  0  0  0  0  0  0  0
  1 33  1  6  0  0  0
  1  2  1  0  0  0  0
  2  4  1  0  0  0  0
  2  3  2  0  0  0  0
  5  6  2  0  0  0  0
  5  4  1  0  0  0  0
  7  5  1  0  0  0  0
  8  7  1  0  0  0  0
  9 10  1  6  0  0  0
  9  8  1  0  0  0  0
 11  9  1  0  0  0  0
 12 11  1  0  0  0  0
 13 14  1  0  0  0  0
 13 12  1  0  0  0  0
 15 14  1  6  0  0  0
 15 19  1  0  0  0  0
 16 18  1  0  0  0  0
 17 18  1  0  0  0  0
 19 17  1  0  0  0  0
 20 16  2  0  0  0  0
 20 15  1  0  0  0  0
 21  1  1  0  0  0  0
 22 26  1  0  0  0  0
 22 28  1  0  0  0  0
 23 31  1  0  0  0  0
 24 28  1  6  0  0  0
 25 29  1  0  0  0  0
 26 25  1  0  0  0  0
 27 29  1  1  0  0  0
 27 24  1  0  0  0  0
 27 30  1  0  0  0  0
 30 21  1  6  0  0  0
 30 23  1  0  0  0  0
 32 24  1  0  0  0  0
 32 31  1  0  0  0  0
 34 33  1  0  0  0  0
 35 40  1  0  0  0  0
 35 34  1  0  0  0  0
 37 43  1  0  0  0  0
 37 36  2  0  0  0  0
 38 41  2  0  0  0  0
 38 40  1  0  0  0  0
 39 36  1  0  0  0  0
 40 39  2  0  0  0  0
 41 37  1  0  0  0  0
 42 43  1  0  0  0  0
M  END
>  <MODEL>
7

>  <REMARK>
 VINA RESULT:      -6.2      2.071      6.421
  Name = 
  18 active torsions:
  status: ('A' for Active; 'I' for Inactive)
    1  A    between atoms: C_1  and  C_34
    2  A    between atoms: C_1  and  C_35
    3  A    between atoms: C_2  and  O_6
    4  A    between atoms: C_2  and  C_27
    5  A    between atoms: C_3  and  C_4
    6  A    between atoms: C_3  and  C_12
    7  A    between atoms: C_4  and  C_15
    8  A    between atoms: O_6  and  C_12
    9  A    between atoms: C_10  and  C_15
   10  A    between atoms: C_10  and  C_41
   11  A    between atoms: C_11  and  C_14
   12  A    between atoms: C_13  and  C_27
   13  A    between atoms: C_13  and  C_30
   14  A    between atoms: C_14  and  O_22
   15  A    between atoms: C_19  and  O_37
   16  A    between atoms: O_22  and  C_41
   17  A    between atoms: C_27  and  C_38
   18  A    between atoms: C_34  and  C_38
                            x       y       z     vdW  Elec       q    Type
                         _______ _______ _______ _____ _____    ______ ____

>  <TORSDO>
F 18

$$$$
=
 OpenBabel11052421213D

 43 46  0  0  1  0  0  0  0  0999 V2000
  193.9650  175.0190  145.4460 C   0  0  1  0  0  3  0  0  0  0  0  0
  193.2740  176.2590  145.9330 C   0  0  0  0  0  0  0  0  0  0  0  0
  193.5410  177.3680  145.3980 O   0  0  0  0  0  0  0  0  0  0  0  0
  192.2920  176.2090  146.9310 O   0  0  0  0  0  0  0  0  0  0  0  0
  190.9640  176.6270  146.7710 C   0  0  0  0  0  0  0  0  0  0  0  0
  190.3910  177.3330  147.6420 O   0  0  0  0  0  0  0  0  0  0  0  0
  190.2270  176.2740  145.5290 C   0  0  0  0  0  2  0  0  0  0  0  0
  189.7910  177.5380  144.8110 C   0  0  0  0  0  2  0  0  0  0  0  0
  189.8180  177.3250  143.3080 C   0  0  1  0  0  3  0  0  0  0  0  0
  191.2570  177.1750  142.8610 C   0  0  0  0  0  1  0  0  0  0  0  0
  189.0600  176.0590  142.9380 C   0  0  0  0  0  2  0  0  0  0  0  0
  188.1760  176.2920  141.7270 C   0  0  0  0  0  2  0  0  0  0  0  0
  187.1160  177.1250  142.0770 O   0  0  0  0  0  0  0  0  0  0  0  0
  186.3100  176.3430  142.9080 C   0  0  0  0  0  2  0  0  0  0  0  0
  185.7240  177.1820  144.0360 C   0  0  1  0  0  3  0  0  0  0  0  0
  185.7090  179.5210  144.7800 C   0  0  0  0  0  3  0  0  0  0  0  0
  186.2020  177.8160  146.5060 C   0  0  0  0  0  2  0  0  0  0  0  0
  185.3100  179.0020  146.1310 C   0  0  0  0  0  2  0  0  0  0  0  0
  186.2790  176.7390  145.4030 C   0  0  0  0  0  2  0  0  0  0  0  0
  185.9130  178.6540  143.7840 C   0  0  0  0  0  3  0  0  0  0  0  0
  195.4350  175.0510  145.8480 C   0  0  0  0  0  2  0  0  0  0  0  0
  196.0320  170.4170  143.4130 C   0  0  0  0  0  2  0  0  0  0  0  0
  195.9010  175.3890  143.4450 C   0  0  0  0  0  2  0  0  0  0  0  0
  196.9680  172.7910  143.1130 C   0  0  1  0  0  3  0  0  0  0  0  0
  196.1870  171.0590  145.8550 C   0  0  0  0  0  2  0  0  0  0  0  0
  196.4820  169.9920  144.8060 C   0  0  0  0  0  2  0  0  0  0  0  0
  196.2930  173.1160  144.4620 C   0  0  1  0  0  3  0  0  0  0  0  0
  197.0990  171.3000  142.7760 C   0  0  0  0  0  2  0  0  0  0  0  0
  196.9540  172.3490  145.6010 C   0  0  0  0  0  2  0  0  0  0  0  0
  196.3460  174.6360  144.6990 C   0  0  2  0  0  3  0  0  0  0  0  0
  196.6140  174.8220  142.2190 C   0  0  0  0  0  2  0  0  0  0  0  0
  196.3010  173.4600  142.0730 O   0  0  0  0  0  0  0  0  0  0  0  0
  193.2650  173.7830  145.9910 C   0  0  0  0  0  2  0  0  0  0  0  0
  192.3100  173.2130  144.9550 C   0  0  0  0  0  2  0  0  0  0  0  0
  192.7070  173.6670  143.5570 C   0  0  0  0  0  2  0  0  0  0  0  0
  190.6990  173.6230  140.3440 C   0  0  0  0  0  3  0  0  0  0  0  0
  189.5580  172.9100  140.7300 C   0  0  0  0  0  0  0  0  0  0  0  0
  190.4630  172.7120  142.9760 C   0  0  0  0  0  3  0  0  0  0  0  0
  191.7190  173.8780  141.2650 C   0  0  0  0  0  3  0  0  0  0  0  0
  191.6000  173.4250  142.5840 C   0  0  0  0  0  0  0  0  0  0  0  0
  189.4450  172.4550  142.0540 C   0  0  0  0  0  3  0  0  0  0  0  0
  188.2930  173.5560  138.7050 C   0  0  0  0  0  1  0  0  0  0  0  0
  188.5590  172.6680  139.7830 O   0  0  0  0  0  0  0  0  0  0  0  0
  1 21  1  1  0  0  0
  1  2  1  0  0  0  0
  1 33  1  0  0  0  0
  2  4  1  0  0  0  0
  3  2  2  0  0  0  0
  5  4  1  0  0  0  0
  5  6  2  0  0  0  0
  7  5  1  0  0  0  0
  8  7  1  0  0  0  0
  9 10  1  1  0  0  0
  9  8  1  0  0  0  0
 11  9  1  0  0  0  0
 12 13  1  0  0  0  0
 12 11  1  0  0  0  0
 13 14  1  0  0  0  0
 15 14  1  6  0  0  0
 15 19  1  0  0  0  0
 16 18  1  0  0  0  0
 18 17  1  0  0  0  0
 19 17  1  0  0  0  0
 20 15  1  0  0  0  0
 20 16  2  0  0  0  0
 22 26  1  0  0  0  0
 23 30  1  0  0  0  0
 24 28  1  6  0  0  0
 24 27  1  0  0  0  0
 26 25  1  0  0  0  0
 27 30  1  0  0  0  0
 27 29  1  1  0  0  0
 28 22  1  0  0  0  0
 29 25  1  0  0  0  0
 30 21  1  1  0  0  0
 31 23  1  0  0  0  0
 32 31  1  0  0  0  0
 32 24  1  0  0  0  0
 34 33  1  0  0  0  0
 35 34  1  0  0  0  0
 36 37  2  0  0  0  0
 36 39  1  0  0  0  0
 37 41  1  0  0  0  0
 39 40  2  0  0  0  0
 40 38  1  0  0  0  0
 40 35  1  0  0  0  0
 41 38  2  0  0  0  0
 42 43  1  0  0  0  0
 43 37  1  0  0  0  0
M  END
>  <MODEL>
8

>  <REMARK>
 VINA RESULT:      -6.1      1.817      2.933
  Name = 
  18 active torsions:
  status: ('A' for Active; 'I' for Inactive)
    1  A    between atoms: C_1  and  C_34
    2  A    between atoms: C_1  and  C_35
    3  A    between atoms: C_2  and  O_6
    4  A    between atoms: C_2  and  C_27
    5  A    between atoms: C_3  and  C_4
    6  A    between atoms: C_3  and  C_12
    7  A    between atoms: C_4  and  C_15
    8  A    between atoms: O_6  and  C_12
    9  A    between atoms: C_10  and  C_15
   10  A    between atoms: C_10  and  C_41
   11  A    between atoms: C_11  and  C_14
   12  A    between atoms: C_13  and  C_27
   13  A    between atoms: C_13  and  C_30
   14  A    between atoms: C_14  and  O_22
   15  A    between atoms: C_19  and  O_37
   16  A    between atoms: O_22  and  C_41
   17  A    between atoms: C_27  and  C_38
   18  A    between atoms: C_34  and  C_38
                            x       y       z     vdW  Elec       q    Type
                         _______ _______ _______ _____ _____    ______ ____

>  <TORSDO>
F 18

$$$$
=
 OpenBabel11052421213D

 43 46  0  0  1  0  0  0  0  0999 V2000
  189.5820  174.4410  142.0610 C   0  0  1  0  0  3  0  0  0  0  0  0
  188.2840  175.1820  141.9260 C   0  0  0  0  0  0  0  0  0  0  0  0
  187.2280  174.6740  142.3910 O   0  0  0  0  0  0  0  0  0  0  0  0
  188.2230  176.4550  141.3450 O   0  0  0  0  0  0  0  0  0  0  0  0
  188.4880  177.6570  142.0180 C   0  0  0  0  0  0  0  0  0  0  0  0
  189.6400  178.1680  142.0150 O   0  0  0  0  0  0  0  0  0  0  0  0
  187.3830  178.3720  142.7080 C   0  0  0  0  0  2  0  0  0  0  0  0
  186.0500  177.9710  142.1000 C   0  0  0  0  0  2  0  0  0  0  0  0
  184.9740  178.9700  142.4880 C   0  0  1  0  0  3  0  0  0  0  0  0
  183.6260  178.2820  142.4340 C   0  0  0  0  0  1  0  0  0  0  0  0
  185.2060  179.4750  143.9050 C   0  0  0  0  0  2  0  0  0  0  0  0
  184.0620  179.0740  144.8160 C   0  0  0  0  0  2  0  0  0  0  0  0
  184.5070  179.0430  146.1360 O   0  0  0  0  0  0  0  0  0  0  0  0
  184.4410  177.6960  146.5020 C   0  0  0  0  0  2  0  0  0  0  0  0
  185.8320  177.1450  146.7850 C   0  0  1  0  0  3  0  0  0  0  0  0
  188.0700  177.9830  147.3450 C   0  0  0  0  0  3  0  0  0  0  0  0
  187.9410  176.3120  145.5240 C   0  0  0  0  0  2  0  0  0  0  0  0
  188.5950  176.6620  146.8630 C   0  0  0  0  0  2  0  0  0  0  0  0
  186.4020  176.4180  145.5520 C   0  0  0  0  0  2  0  0  0  0  0  0
  186.7550  178.2170  147.3020 C   0  0  0  0  0  3  0  0  0  0  0  0
  190.3450  174.9470  143.2790 C   0  0  0  0  0  2  0  0  0  0  0  0
  194.7770  175.6970  146.0290 C   0  0  0  0  0  2  0  0  0  0  0  0
  192.3210  174.7490  141.8080 C   0  0  0  0  0  2  0  0  0  0  0  0
  194.0120  176.1200  143.6120 C   0  0  1  0  0  3  0  0  0  0  0  0
  192.3760  176.3340  146.5120 C   0  0  0  0  0  2  0  0  0  0  0  0
  193.8390  176.5380  146.8880 C   0  0  0  0  0  2  0  0  0  0  0  0
  192.5970  175.7520  144.1040 C   0  0  1  0  0  3  0  0  0  0  0  0
  195.0440  176.4120  144.7100 C   0  0  0  0  0  2  0  0  0  0  0  0
  192.0750  176.7900  145.0900 C   0  0  0  0  0  2  0  0  0  0  0  0
  191.6620  175.6060  142.8900 C   0  0  2  0  0  3  0  0  0  0  0  0
  193.7520  175.2250  141.5680 C   0  0  0  0  0  2  0  0  0  0  0  0
  194.4960  175.1180  142.7560 O   0  0  0  0  0  0  0  0  0  0  0  0
  189.3220  172.9440  142.1490 C   0  0  0  0  0  2  0  0  0  0  0  0
  190.0170  172.3550  143.3650 C   0  0  0  0  0  2  0  0  0  0  0  0
  190.9530  171.2290  142.9510 C   0  0  0  0  0  2  0  0  0  0  0  0
  194.1720  170.0790  144.5880 C   0  0  0  0  0  3  0  0  0  0  0  0
  194.5150  171.1950  145.3580 C   0  0  0  0  0  0  0  0  0  0  0  0
  192.5140  172.3290  144.5760 C   0  0  0  0  0  3  0  0  0  0  0  0
  193.0090  170.0850  143.8130 C   0  0  0  0  0  3  0  0  0  0  0  0
  192.1760  171.2100  143.8080 C   0  0  0  0  0  0  0  0  0  0  0  0
  193.6780  172.3230  145.3490 C   0  0  0  0  0  3  0  0  0  0  0  0
  196.5290  170.0130  146.1750 C   0  0  0  0  0  1  0  0  0  0  0  0
  195.6870  171.1580  146.1180 O   0  0  0  0  0  0  0  0  0  0  0  0
  1 33  1  1  0  0  0
  1 21  1  0  0  0  0
  2  1  1  0  0  0  0
  2  3  2  0  0  0  0
  4  2  1  0  0  0  0
  4  5  1  0  0  0  0
  5  7  1  0  0  0  0
  6  5  2  0  0  0  0
  8  9  1  0  0  0  0
  8  7  1  0  0  0  0
  9 10  1  1  0  0  0
  9 11  1  0  0  0  0
 11 12  1  0  0  0  0
 12 13  1  0  0  0  0
 13 14  1  0  0  0  0
 15 14  1  6  0  0  0
 15 20  1  0  0  0  0
 17 19  1  0  0  0  0
 17 18  1  0  0  0  0
 18 16  1  0  0  0  0
 19 15  1  0  0  0  0
 20 16  2  0  0  0  0
 22 26  1  0  0  0  0
 23 30  1  0  0  0  0
 24 27  1  0  0  0  0
 24 28  1  1  0  0  0
 25 26  1  0  0  0  0
 27 29  1  1  0  0  0
 28 22  1  0  0  0  0
 29 25  1  0  0  0  0
 30 21  1  1  0  0  0
 30 27  1  0  0  0  0
 31 23  1  0  0  0  0
 31 32  1  0  0  0  0
 32 24  1  0  0  0  0
 33 34  1  0  0  0  0
 35 34  1  0  0  0  0
 35 40  1  0  0  0  0
 36 37  1  0  0  0  0
 37 43  1  0  0  0  0
 38 41  1  0  0  0  0
 39 36  2  0  0  0  0
 40 39  1  0  0  0  0
 40 38  2  0  0  0  0
 41 37  2  0  0  0  0
 43 42  1  0  0  0  0
M  END
>  <MODEL>
9

>  <REMARK>
 VINA RESULT:      -6.1      2.231      4.320
  Name = 
  18 active torsions:
  status: ('A' for Active; 'I' for Inactive)
    1  A    between atoms: C_1  and  C_34
    2  A    between atoms: C_1  and  C_35
    3  A    between atoms: C_2  and  O_6
    4  A    between atoms: C_2  and  C_27
    5  A    between atoms: C_3  and  C_4
    6  A    between atoms: C_3  and  C_12
    7  A    between atoms: C_4  and  C_15
    8  A    between atoms: O_6  and  C_12
    9  A    between atoms: C_10  and  C_15
   10  A    between atoms: C_10  and  C_41
   11  A    between atoms: C_11  and  C_14
   12  A    between atoms: C_13  and  C_27
   13  A    between atoms: C_13  and  C_30
   14  A    between atoms: C_14  and  O_22
   15  A    between atoms: C_19  and  O_37
   16  A    between atoms: O_22  and  C_41
   17  A    between atoms: C_27  and  C_38
   18  A    between atoms: C_34  and  C_38
                            x       y       z     vdW  Elec       q    Type
                         _______ _______ _______ _____ _____    ______ ____

>  <TORSDO>
F 18

$$$$
