=
 OpenBabel11052417273D

 25 29  0  0  1  0  0  0  0  0999 V2000
  187.5000  177.1670  144.3540 C   0  0  0  0  0  0  0  0  0  0  0  0
  188.8200  176.8010  144.0940 C   0  0  0  0  0  0  0  0  0  0  0  0
  186.7070  175.8120  142.5380 C   0  0  0  0  0  3  0  0  0  0  0  0
  186.9330  178.1310  145.3330 C   0  0  1  0  0  3  0  0  0  0  0  0
  184.8360  178.3690  147.2930 C   0  0  0  0  0  3  0  0  0  0  0  0
  187.9960  175.4400  142.2830 N   0  0  0  0  0  0  0  0  0  0  0  0
  185.4680  177.9720  145.0130 C   0  0  0  0  0  0  0  0  0  0  0  0
  184.4610  178.3550  146.0070 C   0  0  0  0  0  3  0  0  0  0  0  0
  190.3940  175.4890  142.7280 N   0  0  0  0  0  0  0  0  0  0  0  0
  190.6520  174.4400  141.7570 C   0  0  0  0  0  1  0  0  0  0  0  0
  189.9640  177.3740  144.8790 C   0  0  0  0  0  2  0  0  0  0  0  0
  186.2090  177.9610  147.6920 C   0  0  0  0  0  3  0  0  0  0  0  0
  186.4700  176.7010  143.5800 C   0  0  0  0  0  0  0  0  0  0  0  0
  185.2090  177.1750  144.0220 N   0  0  0  0  0  0  0  0  0  0  0  0
  191.5310  176.1120  143.4020 C   0  0  0  0  0  2  0  0  0  0  0  0
  187.1780  177.7850  146.7790 C   0  0  0  0  0  3  0  0  0  0  0  0
  191.1720  176.4370  144.8490 C   0  0  1  0  0  3  0  0  0  0  0  0
  189.0520  175.9150  143.0170 C   0  0  0  0  0  0  0  0  0  0  0  0
  192.3050  177.0740  145.5030 N   0  0  0  0  0  2  0  0  0  0  0  0
  194.1670  176.5340  146.9090 O   0  0  0  0  0  0  0  0  0  0  0  0
  194.6030  176.0480  145.6560 C   0  0  2  0  0  0  0  0  0  0  0  0
  195.0600  177.0720  144.8460 F   0  0  0  0  0  0  0  0  0  0  0  0
  193.1800  176.0350  146.0390 C   0  0  2  0  0  0  0  0  0  0  0  0
  195.4300  174.7840  145.8040 C   0  0  0  0  0  1  0  0  0  0  0  0
  192.6000  174.8480  146.4940 O   0  0  0  0  0  1  0  0  0  0  0  0
  1  4  1  0  0  0  0
  2  1  1  0  0  0  0
  2 11  1  0  0  0  0
  3 13  1  0  0  0  0
  4 16  1  1  0  0  0
  5 12  1  0  0  0  0
  6  3  2  0  0  0  0
  6 18  1  0  0  0  0
  7  4  1  0  0  0  0
  7  8  1  0  0  0  0
  8  5  2  0  0  0  0
  9 18  1  0  0  0  0
  9 15  1  0  0  0  0
 10  9  1  0  0  0  0
 13 14  1  0  0  0  0
 13  1  2  0  0  0  0
 14  7  2  0  0  0  0
 15 17  1  0  0  0  0
 16 12  2  0  0  0  0
 17 11  1  0  0  0  0
 17 19  1  6  0  0  0
 18  2  2  0  0  0  0
 19 23  1  0  0  0  0
 21 24  1  6  0  0  0
 21 23  1  0  0  0  0
 21 20  1  0  0  0  0
 22 21  1  0  0  0  0
 23 25  1  1  0  0  0
 23 20  1  0  0  0  0
M  END
>  <MODEL>
1

>  <REMARK>
 VINA RESULT:      -8.0      0.000      0.000
  Name = 
  2 active torsions:
  status: ('A' for Active; 'I' for Inactive)
    1  A    between atoms: N_6  and  C_15
    2  A    between atoms: N_6  and  C_23
                            x       y       z     vdW  Elec       q    Type
                         _______ _______ _______ _____ _____    ______ ____

>  <TORSDO>
F 2

$$$$
=
 OpenBabel11052417273D

 25 29  0  0  1  0  0  0  0  0999 V2000
  189.3290  175.5870  144.6990 C   0  0  0  0  0  0  0  0  0  0  0  0
  188.3080  176.4810  145.0170 C   0  0  0  0  0  0  0  0  0  0  0  0
  189.3060  174.6830  146.9230 C   0  0  0  0  0  3  0  0  0  0  0  0
  190.1320  175.4280  143.4590 C   0  0  1  0  0  3  0  0  0  0  0  0
  191.0900  173.4040  141.6480 C   0  0  0  0  0  3  0  0  0  0  0  0
  188.2990  175.5490  147.2400 N   0  0  0  0  0  0  0  0  0  0  0  0
  191.0100  174.2780  143.8800 C   0  0  0  0  0  0  0  0  0  0  0  0
  191.6550  173.4430  142.8620 C   0  0  0  0  0  3  0  0  0  0  0  0
  186.7260  177.3340  146.7010 N   0  0  0  0  0  0  0  0  0  0  0  0
  186.0500  177.2000  147.9800 C   0  0  0  0  0  1  0  0  0  0  0  0
  187.8100  177.4920  144.0240 C   0  0  0  0  0  2  0  0  0  0  0  0
  189.8290  174.1420  141.3680 C   0  0  0  0  0  3  0  0  0  0  0  0
  189.8320  174.7240  145.6370 C   0  0  0  0  0  0  0  0  0  0  0  0
  190.8470  173.8880  145.1070 N   0  0  0  0  0  0  0  0  0  0  0  0
  186.2980  178.3960  145.7920 C   0  0  0  0  0  2  0  0  0  0  0  0
  189.3400  175.0420  142.2360 C   0  0  0  0  0  3  0  0  0  0  0  0
  186.3770  177.9160  144.3460 C   0  0  1  0  0  3  0  0  0  0  0  0
  187.7960  176.4480  146.3340 C   0  0  0  0  0  0  0  0  0  0  0  0
  185.9680  178.9880  143.4510 N   0  0  0  0  0  2  0  0  0  0  0  0
  184.8750  177.2710  142.1900 O   0  0  0  0  0  0  0  0  0  0  0  0
  184.8620  178.3500  141.2770 C   0  0  2  0  0  0  0  0  0  0  0  0
  186.0910  178.5090  140.6630 F   0  0  0  0  0  0  0  0  0  0  0  0
  184.7700  178.5650  142.7330 C   0  0  2  0  0  0  0  0  0  0  0  0
  183.5980  178.3560  140.4380 C   0  0  0  0  0  1  0  0  0  0  0  0
  183.5240  178.8140  143.3140 O   0  0  0  0  0  1  0  0  0  0  0  0
  1  2  2  0  0  0  0
  1 13  1  0  0  0  0
  2 18  1  0  0  0  0
  3  6  1  0  0  0  0
  4 16  1  6  0  0  0
  4  7  1  0  0  0  0
  4  1  1  0  0  0  0
  5  8  2  0  0  0  0
  7 14  2  0  0  0  0
  8  7  1  0  0  0  0
  9 10  1  0  0  0  0
 11 17  1  0  0  0  0
 11  2  1  0  0  0  0
 12  5  1  0  0  0  0
 12 16  2  0  0  0  0
 13  3  2  0  0  0  0
 14 13  1  0  0  0  0
 15  9  1  0  0  0  0
 17 19  1  6  0  0  0
 17 15  1  0  0  0  0
 18  9  1  0  0  0  0
 18  6  2  0  0  0  0
 20 23  1  0  0  0  0
 21 24  1  6  0  0  0
 21 20  1  0  0  0  0
 21 23  1  0  0  0  0
 22 21  1  0  0  0  0
 23 25  1  1  0  0  0
 23 19  1  0  0  0  0
M  END
>  <MODEL>
2

>  <REMARK>
 VINA RESULT:      -7.4      4.124      7.503
  Name = 
  2 active torsions:
  status: ('A' for Active; 'I' for Inactive)
    1  A    between atoms: N_6  and  C_15
    2  A    between atoms: N_6  and  C_23
                            x       y       z     vdW  Elec       q    Type
                         _______ _______ _______ _____ _____    ______ ____

>  <TORSDO>
F 2

$$$$
=
 OpenBabel11052417273D

 25 29  0  0  1  0  0  0  0  0999 V2000
  185.7480  177.6990  143.8690 C   0  0  0  0  0  0  0  0  0  0  0  0
  186.6220  177.4370  144.9230 C   0  0  0  0  0  0  0  0  0  0  0  0
  184.5080  179.2560  145.2120 C   0  0  0  0  0  3  0  0  0  0  0  0
  185.6480  177.0950  142.5150 C   0  0  1  0  0  3  0  0  0  0  0  0
  185.3590  177.8290  139.7450 C   0  0  0  0  0  3  0  0  0  0  0  0
  185.3650  179.0120  146.2460 N   0  0  0  0  0  0  0  0  0  0  0  0
  184.4840  177.8890  141.9770 C   0  0  0  0  0  0  0  0  0  0  0  0
  184.2870  178.0010  140.5290 C   0  0  0  0  0  3  0  0  0  0  0  0
  187.2930  177.9000  147.2470 N   0  0  0  0  0  0  0  0  0  0  0  0
  187.2130  178.7190  148.4440 C   0  0  0  0  0  1  0  0  0  0  0  0
  187.7180  176.4170  144.8000 C   0  0  0  0  0  2  0  0  0  0  0  0
  186.7040  177.5840  140.3320 C   0  0  0  0  0  3  0  0  0  0  0  0
  184.7020  178.5710  144.0180 C   0  0  0  0  0  0  0  0  0  0  0  0
  183.9480  178.7130  142.8250 N   0  0  0  0  0  0  0  0  0  0  0  0
  188.2960  176.8390  147.1910 C   0  0  0  0  0  2  0  0  0  0  0  0
  186.8540  177.3030  141.6360 C   0  0  0  0  0  3  0  0  0  0  0  0
  188.8550  176.7160  145.7760 C   0  0  1  0  0  3  0  0  0  0  0  0
  186.4020  178.1200  146.1410 C   0  0  0  0  0  0  0  0  0  0  0  0
  189.8390  175.6440  145.7310 N   0  0  0  0  0  2  0  0  0  0  0  0
  192.1210  175.2940  145.0950 O   0  0  0  0  0  0  0  0  0  0  0  0
  192.2630  175.8090  146.4030 C   0  0  2  0  0  0  0  0  0  0  0  0
  192.0120  174.8410  147.3590 F   0  0  0  0  0  0  0  0  0  0  0  0
  191.1590  176.2300  145.5210 C   0  0  2  0  0  0  0  0  0  0  0  0
  193.4960  176.6830  146.5290 C   0  0  0  0  0  1  0  0  0  0  0  0
  191.2450  177.4490  144.8450 O   0  0  0  0  0  1  0  0  0  0  0  0
  1 13  2  0  0  0  0
  1  2  1  0  0  0  0
  2 18  2  0  0  0  0
  3  6  2  0  0  0  0
  4 16  1  6  0  0  0
  4  1  1  0  0  0  0
  5 12  1  0  0  0  0
  5  8  2  0  0  0  0
  7  4  1  0  0  0  0
  7 14  2  0  0  0  0
  8  7  1  0  0  0  0
  9 10  1  0  0  0  0
 11  2  1  0  0  0  0
 11 17  1  0  0  0  0
 12 16  2  0  0  0  0
 13  3  1  0  0  0  0
 14 13  1  0  0  0  0
 15  9  1  0  0  0  0
 17 19  1  1  0  0  0
 17 15  1  0  0  0  0
 18  6  1  0  0  0  0
 18  9  1  0  0  0  0
 20 23  1  0  0  0  0
 20 21  1  0  0  0  0
 21 24  1  1  0  0  0
 21 22  1  0  0  0  0
 23 25  1  6  0  0  0
 23 19  1  0  0  0  0
 23 21  1  0  0  0  0
M  END
>  <MODEL>
3

>  <REMARK>
 VINA RESULT:      -7.4      2.344      4.509
  Name = 
  2 active torsions:
  status: ('A' for Active; 'I' for Inactive)
    1  A    between atoms: N_6  and  C_15
    2  A    between atoms: N_6  and  C_23
                            x       y       z     vdW  Elec       q    Type
                         _______ _______ _______ _____ _____    ______ ____

>  <TORSDO>
F 2

$$$$
=
 OpenBabel11052417273D

 25 29  0  0  1  0  0  0  0  0999 V2000
  191.8000  176.7350  145.4420 C   0  0  0  0  0  0  0  0  0  0  0  0
  190.4430  177.0260  145.3030 C   0  0  0  0  0  0  0  0  0  0  0  0
  191.4310  175.7850  147.6160 C   0  0  0  0  0  3  0  0  0  0  0  0
  192.9570  177.0490  144.5640 C   0  0  1  0  0  3  0  0  0  0  0  0
  195.2930  175.8280  143.4050 C   0  0  0  0  0  3  0  0  0  0  0  0
  190.1000  176.0570  147.4840 N   0  0  0  0  0  0  0  0  0  0  0  0
  194.0590  176.4190  145.3750 C   0  0  0  0  0  0  0  0  0  0  0  0
  195.3200  176.0490  144.7250 C   0  0  0  0  0  3  0  0  0  0  0  0
  188.1770  176.9310  146.2630 N   0  0  0  0  0  0  0  0  0  0  0  0
  187.2450  176.4160  147.2510 C   0  0  0  0  0  1  0  0  0  0  0  0
  189.9130  177.7490  144.0980 C   0  0  0  0  0  2  0  0  0  0  0  0
  194.0180  175.9080  142.6430 C   0  0  0  0  0  3  0  0  0  0  0  0
  192.2850  176.1490  146.5810 C   0  0  0  0  0  0  0  0  0  0  0  0
  193.6830  175.9200  146.5130 N   0  0  0  0  0  0  0  0  0  0  0  0
  187.6520  177.7260  145.1540 C   0  0  0  0  0  2  0  0  0  0  0  0
  192.9060  176.4170  143.1960 C   0  0  0  0  0  3  0  0  0  0  0  0
  188.4340  177.4320  143.8770 C   0  0  1  0  0  3  0  0  0  0  0  0
  189.5870  176.6730  146.3710 C   0  0  0  0  0  0  0  0  0  0  0  0
  187.9140  178.2440  142.7870 N   0  0  0  0  0  2  0  0  0  0  0  0
  185.8920  178.6650  141.5750 O   0  0  0  0  0  0  0  0  0  0  0  0
  185.4580  178.8010  142.9140 C   0  0  2  0  0  0  0  0  0  0  0  0
  185.8150  180.0290  143.4400 F   0  0  0  0  0  0  0  0  0  0  0  0
  186.5280  177.8580  142.5380 C   0  0  2  0  0  0  0  0  0  0  0  0
  184.0410  178.2900  143.0960 C   0  0  0  0  0  1  0  0  0  0  0  0
  186.2310  176.5010  142.3960 O   0  0  0  0  0  1  0  0  0  0  0  0
  1 13  1  0  0  0  0
  2  1  2  0  0  0  0
  2 18  1  0  0  0  0
  4 16  1  6  0  0  0
  4  7  1  0  0  0  0
  4  1  1  0  0  0  0
  5  8  2  0  0  0  0
  6  3  1  0  0  0  0
  7 14  2  0  0  0  0
  8  7  1  0  0  0  0
  9 18  1  0  0  0  0
  9 10  1  0  0  0  0
 11  2  1  0  0  0  0
 12 16  2  0  0  0  0
 12  5  1  0  0  0  0
 13  3  2  0  0  0  0
 14 13  1  0  0  0  0
 15  9  1  0  0  0  0
 17 19  1  6  0  0  0
 17 11  1  0  0  0  0
 17 15  1  0  0  0  0
 18  6  2  0  0  0  0
 20 23  1  0  0  0  0
 20 21  1  0  0  0  0
 21 24  1  1  0  0  0
 21 22  1  0  0  0  0
 23 25  1  1  0  0  0
 23 19  1  0  0  0  0
 23 21  1  0  0  0  0
M  END
>  <MODEL>
4

>  <REMARK>
 VINA RESULT:      -7.3      3.665      7.582
  Name = 
  2 active torsions:
  status: ('A' for Active; 'I' for Inactive)
    1  A    between atoms: N_6  and  C_15
    2  A    between atoms: N_6  and  C_23
                            x       y       z     vdW  Elec       q    Type
                         _______ _______ _______ _____ _____    ______ ____

>  <TORSDO>
F 2

$$$$
=
 OpenBabel11052417273D

 25 29  0  0  1  0  0  0  0  0999 V2000
  187.1330  177.0260  143.4660 C   0  0  0  0  0  0  0  0  0  0  0  0
  188.1560  176.0910  143.3090 C   0  0  0  0  0  0  0  0  0  0  0  0
  186.7130  177.0450  141.1020 C   0  0  0  0  0  3  0  0  0  0  0  0
  186.6560  177.7520  144.6720 C   0  0  1  0  0  3  0  0  0  0  0  0
  184.2290  178.4660  146.0480 C   0  0  0  0  0  3  0  0  0  0  0  0
  187.7050  176.1220  140.9410 N   0  0  0  0  0  0  0  0  0  0  0  0
  185.5490  178.5620  144.0480 C   0  0  0  0  0  0  0  0  0  0  0  0
  184.4710  179.0910  144.8890 C   0  0  0  0  0  3  0  0  0  0  0  0
  189.4650  174.6610  141.7900 N   0  0  0  0  0  0  0  0  0  0  0  0
  189.6550  174.0420  140.4900 C   0  0  0  0  0  1  0  0  0  0  0  0
  188.9770  175.6210  144.4750 C   0  0  0  0  0  2  0  0  0  0  0  0
  184.9960  177.2510  146.4360 C   0  0  0  0  0  3  0  0  0  0  0  0
  186.4440  177.5080  142.3850 C   0  0  0  0  0  0  0  0  0  0  0  0
  185.4350  178.4310  142.7610 N   0  0  0  0  0  0  0  0  0  0  0  0
  190.3490  174.2700  142.8870 C   0  0  0  0  0  2  0  0  0  0  0  0
  186.0930  176.8740  145.7600 C   0  0  0  0  0  3  0  0  0  0  0  0
  189.5760  174.2410  144.2020 C   0  0  1  0  0  3  0  0  0  0  0  0
  188.4370  175.6440  141.9980 C   0  0  0  0  0  0  0  0  0  0  0  0
  190.4710  173.8690  145.2880 N   0  0  0  0  0  2  0  0  0  0  0  0
  191.6700  174.8540  147.1110 O   0  0  0  0  0  0  0  0  0  0  0  0
  190.4330  175.5330  147.1810 C   0  0  2  0  0  0  0  0  0  0  0  0
  189.4600  174.7530  147.7810 F   0  0  0  0  0  0  0  0  0  0  0  0
  191.0000  175.0860  145.8950 C   0  0  2  0  0  0  0  0  0  0  0  0
  190.6110  176.9750  147.6170 C   0  0  0  0  0  1  0  0  0  0  0  0
  191.6570  176.0070  145.0760 O   0  0  0  0  0  1  0  0  0  0  0  0
  1  4  1  0  0  0  0
  2  1  1  0  0  0  0
  2 11  1  0  0  0  0
  3 13  1  0  0  0  0
  4 16  1  1  0  0  0
  5 12  1  0  0  0  0
  6  3  2  0  0  0  0
  6 18  1  0  0  0  0
  7  4  1  0  0  0  0
  7  8  1  0  0  0  0
  8  5  2  0  0  0  0
  9 18  1  0  0  0  0
  9 15  1  0  0  0  0
 10  9  1  0  0  0  0
 13 14  1  0  0  0  0
 13  1  2  0  0  0  0
 14  7  2  0  0  0  0
 15 17  1  0  0  0  0
 16 12  2  0  0  0  0
 17 11  1  0  0  0  0
 17 19  1  1  0  0  0
 18  2  2  0  0  0  0
 19 23  1  0  0  0  0
 20 21  1  0  0  0  0
 21 24  1  1  0  0  0
 21 22  1  0  0  0  0
 23 25  1  6  0  0  0
 23 20  1  0  0  0  0
 23 21  1  0  0  0  0
M  END
>  <MODEL>
5

>  <REMARK>
 VINA RESULT:      -7.2      2.428      2.676
  Name = 
  2 active torsions:
  status: ('A' for Active; 'I' for Inactive)
    1  A    between atoms: N_6  and  C_15
    2  A    between atoms: N_6  and  C_23
                            x       y       z     vdW  Elec       q    Type
                         _______ _______ _______ _____ _____    ______ ____

>  <TORSDO>
F 2

$$$$
=
 OpenBabel11052417273D

 25 29  0  0  1  0  0  0  0  0999 V2000
  187.1390  177.4140  143.2460 C   0  0  0  0  0  0  0  0  0  0  0  0
  187.9270  176.4010  142.7000 C   0  0  0  0  0  0  0  0  0  0  0  0
  186.0670  177.7940  141.1320 C   0  0  0  0  0  3  0  0  0  0  0  0
  187.1380  178.0220  144.6020 C   0  0  1  0  0  3  0  0  0  0  0  0
  185.3370  178.8100  146.7070 C   0  0  0  0  0  3  0  0  0  0  0  0
  186.8270  176.7970  140.5920 N   0  0  0  0  0  0  0  0  0  0  0  0
  186.0270  179.0250  144.4200 C   0  0  0  0  0  0  0  0  0  0  0  0
  185.3250  179.5530  145.5930 C   0  0  0  0  0  3  0  0  0  0  0  0
  188.5250  175.0510  140.7300 N   0  0  0  0  0  0  0  0  0  0  0  0
  188.2430  174.5930  139.3800 C   0  0  0  0  0  1  0  0  0  0  0  0
  188.9710  175.6930  143.5140 C   0  0  0  0  0  2  0  0  0  0  0  0
  185.9980  177.4770  146.7290 C   0  0  0  0  0  3  0  0  0  0  0  0
  186.2460  178.1090  142.4740 C   0  0  0  0  0  0  0  0  0  0  0  0
  185.5320  179.0800  143.2220 N   0  0  0  0  0  0  0  0  0  0  0  0
  189.6200  174.4220  141.4670 C   0  0  0  0  0  2  0  0  0  0  0  0
  186.7890  177.0740  145.7210 C   0  0  0  0  0  3  0  0  0  0  0  0
  189.2600  174.3040  142.9450 C   0  0  1  0  0  3  0  0  0  0  0  0
  187.7530  176.1040  141.3290 C   0  0  0  0  0  0  0  0  0  0  0  0
  190.3650  173.6940  143.6700 N   0  0  0  0  0  2  0  0  0  0  0  0
  191.2320  171.5480  144.2820 O   0  0  0  0  0  0  0  0  0  0  0  0
  191.4430  171.5550  142.8840 C   0  0  2  0  0  0  0  0  0  0  0  0
  192.5570  172.2990  142.5430 F   0  0  0  0  0  0  0  0  0  0  0  0
  190.2950  172.2460  143.4980 C   0  0  2  0  0  0  0  0  0  0  0  0
  191.2520  170.1750  142.2830 C   0  0  0  0  0  1  0  0  0  0  0  0
  189.0360  171.6400  143.4810 O   0  0  0  0  0  1  0  0  0  0  0  0
  1  4  1  0  0  0  0
  2  1  1  0  0  0  0
  2 11  1  0  0  0  0
  3 13  1  0  0  0  0
  4 16  1  1  0  0  0
  5 12  1  0  0  0  0
  6  3  2  0  0  0  0
  6 18  1  0  0  0  0
  7  4  1  0  0  0  0
  7  8  1  0  0  0  0
  8  5  2  0  0  0  0
  9 18  1  0  0  0  0
  9 15  1  0  0  0  0
 10  9  1  0  0  0  0
 13 14  1  0  0  0  0
 13  1  2  0  0  0  0
 14  7  2  0  0  0  0
 15 17  1  0  0  0  0
 16 12  2  0  0  0  0
 17 11  1  0  0  0  0
 17 19  1  1  0  0  0
 18  2  2  0  0  0  0
 21 24  1  6  0  0  0
 21 23  1  0  0  0  0
 21 20  1  0  0  0  0
 22 21  1  0  0  0  0
 23 25  1  6  0  0  0
 23 19  1  0  0  0  0
 23 20  1  0  0  0  0
M  END
>  <MODEL>
6

>  <REMARK>
 VINA RESULT:      -7.1      3.172      3.621
  Name = 
  2 active torsions:
  status: ('A' for Active; 'I' for Inactive)
    1  A    between atoms: N_6  and  C_15
    2  A    between atoms: N_6  and  C_23
                            x       y       z     vdW  Elec       q    Type
                         _______ _______ _______ _____ _____    ______ ____

>  <TORSDO>
F 2

$$$$
=
 OpenBabel11052417273D

 25 29  0  0  1  0  0  0  0  0999 V2000
  189.8770  173.7820  142.5110 C   0  0  0  0  0  0  0  0  0  0  0  0
  189.4560  174.6690  143.5010 C   0  0  0  0  0  0  0  0  0  0  0  0
  190.5180  172.1590  144.1610 C   0  0  0  0  0  3  0  0  0  0  0  0
  189.9620  173.9380  141.0360 C   0  0  1  0  0  3  0  0  0  0  0  0
  189.3100  172.5620  138.5910 C   0  0  0  0  0  3  0  0  0  0  0  0
  190.0980  173.0180  145.1360 N   0  0  0  0  0  0  0  0  0  0  0  0
  190.4980  172.5770  140.6750 C   0  0  0  0  0  0  0  0  0  0  0  0
  190.3210  172.0620  139.3130 C   0  0  0  0  0  3  0  0  0  0  0  0
  189.1400  175.1280  145.8990 N   0  0  0  0  0  0  0  0  0  0  0  0
  189.0810  174.6670  147.2760 C   0  0  0  0  0  1  0  0  0  0  0  0
  188.9460  176.0400  143.1620 C   0  0  0  0  0  2  0  0  0  0  0  0
  188.3770  173.5640  139.1740 C   0  0  0  0  0  3  0  0  0  0  0  0
  190.4170  172.5650  142.8350 C   0  0  0  0  0  0  0  0  0  0  0  0
  190.7610  171.8080  141.6870 N   0  0  0  0  0  0  0  0  0  0  0  0
  188.7420  176.5030  145.6060 C   0  0  0  0  0  2  0  0  0  0  0  0
  188.6410  174.1640  140.3450 C   0  0  0  0  0  3  0  0  0  0  0  0
  188.0240  176.5680  144.2610 C   0  0  1  0  0  3  0  0  0  0  0  0
  189.5840  174.2570  144.8470 C   0  0  0  0  0  0  0  0  0  0  0  0
  187.6510  177.9450  143.9720 N   0  0  0  0  0  2  0  0  0  0  0  0
  185.9190  179.0740  142.7630 O   0  0  0  0  0  0  0  0  0  0  0  0
  185.4020  179.0790  144.0780 C   0  0  2  0  0  0  0  0  0  0  0  0
  185.9900  180.0640  144.8500 F   0  0  0  0  0  0  0  0  0  0  0  0
  186.2440  177.9760  143.5820 C   0  0  2  0  0  0  0  0  0  0  0  0
  183.8930  178.9240  144.0850 C   0  0  0  0  0  1  0  0  0  0  0  0
  185.6450  176.7860  143.1650 O   0  0  0  0  0  1  0  0  0  0  0  0
  1 13  2  0  0  0  0
  1  2  1  0  0  0  0
  2 18  2  0  0  0  0
  3  6  2  0  0  0  0
  4 16  1  6  0  0  0
  4  1  1  0  0  0  0
  5 12  1  0  0  0  0
  5  8  2  0  0  0  0
  7  4  1  0  0  0  0
  7 14  2  0  0  0  0
  8  7  1  0  0  0  0
  9 10  1  0  0  0  0
 11  2  1  0  0  0  0
 11 17  1  0  0  0  0
 12 16  2  0  0  0  0
 13  3  1  0  0  0  0
 14 13  1  0  0  0  0
 15  9  1  0  0  0  0
 17 19  1  6  0  0  0
 17 15  1  0  0  0  0
 18  6  1  0  0  0  0
 18  9  1  0  0  0  0
 20 23  1  0  0  0  0
 20 21  1  0  0  0  0
 21 24  1  1  0  0  0
 21 22  1  0  0  0  0
 23 25  1  6  0  0  0
 23 19  1  0  0  0  0
 23 21  1  0  0  0  0
M  END
>  <MODEL>
7

>  <REMARK>
 VINA RESULT:      -6.9      4.136      7.352
  Name = 
  2 active torsions:
  status: ('A' for Active; 'I' for Inactive)
    1  A    between atoms: N_6  and  C_15
    2  A    between atoms: N_6  and  C_23
                            x       y       z     vdW  Elec       q    Type
                         _______ _______ _______ _____ _____    ______ ____

>  <TORSDO>
F 2

$$$$
=
 OpenBabel11052417273D

 25 29  0  0  1  0  0  0  0  0999 V2000
  186.9370  176.9020  144.2770 C   0  0  0  0  0  0  0  0  0  0  0  0
  188.1980  176.3960  144.5900 C   0  0  0  0  0  0  0  0  0  0  0  0
  186.7170  177.8630  146.4670 C   0  0  0  0  0  3  0  0  0  0  0  0
  186.0980  176.7400  143.0610 C   0  0  1  0  0  3  0  0  0  0  0  0
  184.5010  178.2690  141.2150 C   0  0  0  0  0  3  0  0  0  0  0  0
  187.9560  177.3800  146.7780 N   0  0  0  0  0  0  0  0  0  0  0  0
  184.9070  177.5660  143.4720 C   0  0  0  0  0  0  0  0  0  0  0  0
  184.0060  178.1050  142.4490 C   0  0  0  0  0  3  0  0  0  0  0  0
  190.0070  176.1710  146.2470 N   0  0  0  0  0  0  0  0  0  0  0  0
  190.6310  176.5700  147.4960 C   0  0  0  0  0  1  0  0  0  0  0  0
  188.9720  175.5550  143.6170 C   0  0  0  0  0  2  0  0  0  0  0  0
  185.9260  177.9610  140.9170 C   0  0  0  0  0  3  0  0  0  0  0  0
  186.2040  177.5990  145.2020 C   0  0  0  0  0  0  0  0  0  0  0  0
  184.9630  178.0420  144.6790 N   0  0  0  0  0  0  0  0  0  0  0  0
  190.7320  175.2620  145.3610 C   0  0  0  0  0  2  0  0  0  0  0  0
  186.6970  177.3040  141.7980 C   0  0  0  0  0  3  0  0  0  0  0  0
  190.4720  175.6270  143.9030 C   0  0  1  0  0  3  0  0  0  0  0  0
  188.7000  176.6500  145.8870 C   0  0  0  0  0  0  0  0  0  0  0  0
  191.1840  174.7030  143.0330 N   0  0  0  0  0  2  0  0  0  0  0  0
  193.2100  174.5330  141.7680 O   0  0  0  0  0  0  0  0  0  0  0  0
  193.6900  174.4300  143.0930 C   0  0  2  0  0  0  0  0  0  0  0  0
  193.4890  173.1610  143.6070 F   0  0  0  0  0  0  0  0  0  0  0  0
  192.5100  175.2480  142.7580 C   0  0  2  0  0  0  0  0  0  0  0  0
  195.0430  175.0970  143.2520 C   0  0  0  0  0  1  0  0  0  0  0  0
  192.6460  176.6330  142.6320 O   0  0  0  0  0  1  0  0  0  0  0  0
  1  2  2  0  0  0  0
  1 13  1  0  0  0  0
  2 18  1  0  0  0  0
  3  6  1  0  0  0  0
  4 16  1  6  0  0  0
  4  7  1  0  0  0  0
  4  1  1  0  0  0  0
  5  8  2  0  0  0  0
  7 14  2  0  0  0  0
  8  7  1  0  0  0  0
  9 10  1  0  0  0  0
 11 17  1  0  0  0  0
 11  2  1  0  0  0  0
 12  5  1  0  0  0  0
 12 16  2  0  0  0  0
 13  3  2  0  0  0  0
 14 13  1  0  0  0  0
 15  9  1  0  0  0  0
 17 19  1  6  0  0  0
 17 15  1  0  0  0  0
 18  9  1  0  0  0  0
 18  6  2  0  0  0  0
 20 23  1  0  0  0  0
 20 21  1  0  0  0  0
 21 24  1  1  0  0  0
 21 22  1  0  0  0  0
 23 25  1  1  0  0  0
 23 19  1  0  0  0  0
 23 21  1  0  0  0  0
M  END
>  <MODEL>
8

>  <REMARK>
 VINA RESULT:      -6.9      2.468      3.817
  Name = 
  2 active torsions:
  status: ('A' for Active; 'I' for Inactive)
    1  A    between atoms: N_6  and  C_15
    2  A    between atoms: N_6  and  C_23
                            x       y       z     vdW  Elec       q    Type
                         _______ _______ _______ _____ _____    ______ ____

>  <TORSDO>
F 2

$$$$
=
 OpenBabel11052417273D

 25 29  0  0  1  0  0  0  0  0999 V2000
  188.5490  176.3570  145.5750 C   0  0  0  0  0  0  0  0  0  0  0  0
  187.4830  177.1820  145.2150 C   0  0  0  0  0  0  0  0  0  0  0  0
  187.5490  175.9070  147.7110 C   0  0  0  0  0  3  0  0  0  0  0  0
  189.8200  176.0470  144.8710 C   0  0  1  0  0  3  0  0  0  0  0  0
  191.5020  173.8230  144.1490 C   0  0  0  0  0  3  0  0  0  0  0  0
  186.4980  176.7040  147.3620 N   0  0  0  0  0  0  0  0  0  0  0  0
  190.4310  175.1020  145.8730 C   0  0  0  0  0  0  0  0  0  0  0  0
  191.4680  174.1590  145.4460 C   0  0  0  0  0  3  0  0  0  0  0  0
  185.3100  178.1710  145.8160 N   0  0  0  0  0  0  0  0  0  0  0  0
  184.1380  178.2180  146.6740 C   0  0  0  0  0  1  0  0  0  0  0  0
  187.4690  177.9210  143.9070 C   0  0  0  0  0  2  0  0  0  0  0  0
  190.4890  174.3530  143.1970 C   0  0  0  0  0  3  0  0  0  0  0  0
  188.5910  175.7520  146.8030 C   0  0  0  0  0  0  0  0  0  0  0  0
  189.7440  174.9430  146.9630 N   0  0  0  0  0  0  0  0  0  0  0  0
  185.3200  178.9850  144.6020 C   0  0  0  0  0  2  0  0  0  0  0  0
  189.6570  175.3480  143.5460 C   0  0  0  0  0  3  0  0  0  0  0  0
  186.0370  178.2430  143.4770 C   0  0  1  0  0  3  0  0  0  0  0  0
  186.4410  177.3510  146.1540 C   0  0  0  0  0  0  0  0  0  0  0  0
  186.0570  179.0710  142.2800 N   0  0  0  0  0  2  0  0  0  0  0  0
  186.0550  176.8920  141.2860 O   0  0  0  0  0  0  0  0  0  0  0  0
  186.7690  177.6460  140.3270 C   0  0  2  0  0  0  0  0  0  0  0  0
  188.0790  177.8520  140.7170 F   0  0  0  0  0  0  0  0  0  0  0  0
  185.6910  178.2440  141.1350 C   0  0  2  0  0  0  0  0  0  0  0  0
  186.4730  177.1750  138.9150 C   0  0  0  0  0  1  0  0  0  0  0  0
  184.4210  178.4090  140.5760 O   0  0  0  0  0  1  0  0  0  0  0  0
  1 13  1  0  0  0  0
  2  1  2  0  0  0  0
  2 18  1  0  0  0  0
  4 16  1  6  0  0  0
  4  1  1  0  0  0  0
  4  7  1  0  0  0  0
  5  8  2  0  0  0  0
  6  3  1  0  0  0  0
  7 14  2  0  0  0  0
  8  7  1  0  0  0  0
  9 18  1  0  0  0  0
  9 10  1  0  0  0  0
 11  2  1  0  0  0  0
 12 16  2  0  0  0  0
 12  5  1  0  0  0  0
 13 14  1  0  0  0  0
 13  3  2  0  0  0  0
 15  9  1  0  0  0  0
 17 19  1  6  0  0  0
 17 11  1  0  0  0  0
 17 15  1  0  0  0  0
 18  6  2  0  0  0  0
 21 24  1  6  0  0  0
 21 22  1  0  0  0  0
 21 23  1  0  0  0  0
 21 20  1  0  0  0  0
 23 25  1  6  0  0  0
 23 20  1  0  0  0  0
 23 19  1  0  0  0  0
M  END
>  <MODEL>
9

>  <REMARK>
 VINA RESULT:      -6.8      3.821      7.066
  Name = 
  2 active torsions:
  status: ('A' for Active; 'I' for Inactive)
    1  A    between atoms: N_6  and  C_15
    2  A    between atoms: N_6  and  C_23
                            x       y       z     vdW  Elec       q    Type
                         _______ _______ _______ _____ _____    ______ ____

>  <TORSDO>
F 2

$$$$
