=
 OpenBabel11052420313D

 34 39  0  0  0  0  0  0  0  0999 V2000
  187.7880  177.3160  143.8140 C   0  0  0  0  0  0  0  0  0  0  0  0
  185.6350  177.7900  140.7070 C   0  0  0  0  0  3  0  0  0  0  0  0
  185.2850  178.4910  142.9910 O   0  0  0  0  0  0  0  0  0  0  0  0
  188.1830  176.8470  146.6540 C   0  0  0  0  0  2  0  0  0  0  0  0
  188.3890  176.0750  144.2960 N   0  0  0  0  0  2  0  0  0  0  0  0
  186.9920  177.6290  146.1720 C   0  0  0  0  0  0  0  0  0  0  0  0
  184.9450  178.8320  146.6590 C   0  0  0  0  0  3  0  0  0  0  0  0
  186.0890  178.1580  147.0990 C   0  0  0  0  0  3  0  0  0  0  0  0
  189.0030  176.3640  145.5330 N   0  0  0  0  0  0  0  0  0  0  0  0
  185.5790  178.4250  144.3560 C   0  0  0  0  0  0  0  0  0  0  0  0
  186.7490  177.7850  144.7970 C   0  0  0  0  0  0  0  0  0  0  0  0
  184.6880  178.9600  145.2900 C   0  0  0  0  0  3  0  0  0  0  0  0
  186.3870  177.1220  139.7350 C   0  0  0  0  0  0  0  0  0  0  0  0
  187.5850  176.4930  140.1050 C   0  0  0  0  0  3  0  0  0  0  0  0
  186.0620  177.8240  142.0380 C   0  0  0  0  0  0  0  0  0  0  0  0
  188.0230  176.5300  141.4310 C   0  0  0  0  0  2  0  0  0  0  0  0
  187.2580  177.1770  142.4090 C   0  0  0  0  0  0  0  0  0  0  0  0
  192.4140  176.2230  147.0800 C   0  0  0  0  0  3  0  0  0  0  0  0
  191.1160  175.3450  144.7570 C   0  0  0  0  0  3  0  0  0  0  0  0
  195.1910  174.4920  145.3440 C   0  0  0  0  0  0  0  0  0  0  0  0
  194.4780  175.2170  146.3090 C   0  0  0  0  0  3  0  0  0  0  0  0
  193.1230  175.5020  146.1190 C   0  0  0  0  0  0  0  0  0  0  0  0
  193.1790  174.3390  143.9850 C   0  0  0  0  0  3  0  0  0  0  0  0
  192.4700  175.0590  144.9470 C   0  0  0  0  0  0  0  0  0  0  0  0
  194.5340  174.0560  144.1830 C   0  0  0  0  0  3  0  0  0  0  0  0
  190.3980  176.0730  145.7210 C   0  0  0  0  0  0  0  0  0  0  0  0
  191.0600  176.5050  146.8820 C   0  0  0  0  0  3  0  0  0  0  0  0
  196.6170  174.1940  145.5510 C   0  0  0  0  0  0  0  0  0  0  0  0
  197.5520  174.5430  144.5820 O   0  0  0  0  0  0  0  0  0  0  0  0
  197.0040  173.6200  146.6030 O   0  0  0  0  0  1  0  0  0  0  0  0
  185.9080  177.1070  138.3780 N   0  0  0  0  0  2  0  0  0  0  0  0
  186.1500  176.1000  137.4200 N   0  0  0  0  0  0  0  0  0  0  0  0
  187.1600  176.5680  136.4810 C   0  0  0  0  0  1  0  0  0  0  0  0
  184.9210  175.8340  136.6860 C   0  0  0  0  0  1  0  0  0  0  0  0
  1  5  1  0  0  0  0
  1 11  1  0  0  0  0
  2 15  2  0  0  0  0
  3 10  1  0  0  0  0
  5  9  1  0  0  0  0
  6  4  1  0  0  0  0
  6  8  1  0  0  0  0
  7  8  2  0  0  0  0
  9 26  1  0  0  0  0
  9  4  1  0  0  0  0
 10 11  1  0  0  0  0
 10 12  2  0  0  0  0
 11  6  2  0  0  0  0
 12  7  1  0  0  0  0
 13 14  2  0  0  0  0
 13  2  1  0  0  0  0
 14 16  1  0  0  0  0
 15 17  1  0  0  0  0
 15  3  1  0  0  0  0
 16 17  1  0  0  0  0
 17  1  2  0  0  0  0
 19 24  2  0  0  0  0
 19 26  1  0  0  0  0
 20 28  1  0  0  0  0
 20 21  2  0  0  0  0
 22 21  1  0  0  0  0
 22 18  2  0  0  0  0
 23 25  2  0  0  0  0
 23 24  1  0  0  0  0
 24 22  1  0  0  0  0
 25 20  1  0  0  0  0
 26 27  2  0  0  0  0
 27 18  1  0  0  0  0
 28 30  1  0  0  0  0
 29 28  2  0  0  0  0
 31 13  1  0  0  0  0
 32 31  1  0  0  0  0
 33 32  1  0  0  0  0
 34 32  1  0  0  0  0
M  END
>  <MODEL>
1

>  <REMARK>
 VINA RESULT:      -8.3      0.000      0.000
  Name = 
  4 active torsions:
  status: ('A' for Active; 'I' for Inactive)
    1  A    between atoms: N_3  and  N_25
    2  A    between atoms: C_7  and  C_11
    3  A    between atoms: N_18  and  C_30
    4  A    between atoms: C_23  and  N_25
                            x       y       z     vdW  Elec       q    Type
                         _______ _______ _______ _____ _____    ______ ____

>  <TORSDO>
F 4

$$$$
=
 OpenBabel11052420313D

 34 39  0  0  0  0  0  0  0  0999 V2000
  186.5890  177.7070  144.2060 C   0  0  0  0  0  0  0  0  0  0  0  0
  183.2020  178.6300  142.7250 C   0  0  0  0  0  3  0  0  0  0  0  0
  184.0160  178.7440  144.9970 O   0  0  0  0  0  0  0  0  0  0  0  0
  188.3110  176.6490  146.2920 C   0  0  0  0  0  2  0  0  0  0  0  0
  187.3360  176.4670  144.0100 N   0  0  0  0  0  2  0  0  0  0  0  0
  187.0450  177.3780  146.6500 C   0  0  0  0  0  0  0  0  0  0  0  0
  185.5070  178.1930  148.3370 C   0  0  0  0  0  3  0  0  0  0  0  0
  186.7130  177.5720  147.9940 C   0  0  0  0  0  3  0  0  0  0  0  0
  188.4770  176.5340  144.8370 N   0  0  0  0  0  0  0  0  0  0  0  0
  184.9360  178.4010  145.9910 C   0  0  0  0  0  0  0  0  0  0  0  0
  186.1650  177.8160  145.6450 C   0  0  0  0  0  0  0  0  0  0  0  0
  184.6180  178.6000  147.3370 C   0  0  0  0  0  3  0  0  0  0  0  0
  183.3790  178.2940  141.3800 C   0  0  0  0  0  0  0  0  0  0  0  0
  184.5990  177.7400  140.9630 C   0  0  0  0  0  3  0  0  0  0  0  0
  184.2230  178.4060  143.6540 C   0  0  0  0  0  0  0  0  0  0  0  0
  185.6270  177.5220  141.8840 C   0  0  0  0  0  2  0  0  0  0  0  0
  185.4420  177.8350  143.2360 C   0  0  0  0  0  0  0  0  0  0  0  0
  191.1860  175.7990  142.3530 C   0  0  0  0  0  3  0  0  0  0  0  0
  190.9390  176.6310  145.0170 C   0  0  0  0  0  3  0  0  0  0  0  0
  194.7480  176.1630  143.3000 C   0  0  0  0  0  0  0  0  0  0  0  0
  193.5990  175.9030  142.5420 C   0  0  0  0  0  3  0  0  0  0  0  0
  192.3300  176.0570  143.1080 C   0  0  0  0  0  0  0  0  0  0  0  0
  193.3510  176.7350  145.2080 C   0  0  0  0  0  3  0  0  0  0  0  0
  192.2070  176.4770  144.4510 C   0  0  0  0  0  0  0  0  0  0  0  0
  194.6170  176.5790  144.6330 C   0  0  0  0  0  3  0  0  0  0  0  0
  189.7840  176.3700  144.2610 C   0  0  0  0  0  0  0  0  0  0  0  0
  189.9210  175.9550  142.9260 C   0  0  0  0  0  3  0  0  0  0  0  0
  196.0810  175.9990  142.6980 C   0  0  0  0  0  0  0  0  0  0  0  0
  197.0980  176.9010  142.9930 O   0  0  0  0  0  1  0  0  0  0  0  0
  196.3140  175.0430  141.9110 O   0  0  0  0  0  0  0  0  0  0  0  0
  182.3000  178.5350  140.4580 N   0  0  0  0  0  2  0  0  0  0  0  0
  180.9380  178.6900  140.7900 N   0  0  0  0  0  0  0  0  0  0  0  0
  180.1390  177.8120  139.9490 C   0  0  0  0  0  1  0  0  0  0  0  0
  180.5390  180.0670  140.5370 C   0  0  0  0  0  1  0  0  0  0  0  0
  1 11  1  0  0  0  0
  2 15  2  0  0  0  0
  3 10  1  0  0  0  0
  4  6  1  0  0  0  0
  5  1  1  0  0  0  0
  5  9  1  0  0  0  0
  6  8  1  0  0  0  0
  8  7  2  0  0  0  0
  9  4  1  0  0  0  0
 10 12  2  0  0  0  0
 11 10  1  0  0  0  0
 11  6  2  0  0  0  0
 12  7  1  0  0  0  0
 13  2  1  0  0  0  0
 14 13  2  0  0  0  0
 14 16  1  0  0  0  0
 15  3  1  0  0  0  0
 16 17  1  0  0  0  0
 17 15  1  0  0  0  0
 17  1  2  0  0  0  0
 18 27  2  0  0  0  0
 18 22  1  0  0  0  0
 20 25  1  0  0  0  0
 21 22  1  0  0  0  0
 21 20  2  0  0  0  0
 22 24  2  0  0  0  0
 24 19  1  0  0  0  0
 24 23  1  0  0  0  0
 25 23  2  0  0  0  0
 26  9  1  0  0  0  0
 26 19  2  0  0  0  0
 27 26  1  0  0  0  0
 28 29  1  0  0  0  0
 28 20  1  0  0  0  0
 30 28  2  0  0  0  0
 31 32  1  0  0  0  0
 31 13  1  0  0  0  0
 33 32  1  0  0  0  0
 34 32  1  0  0  0  0
M  END
>  <MODEL>
2

>  <REMARK>
 VINA RESULT:      -8.2      2.517      3.407
  Name = 
  4 active torsions:
  status: ('A' for Active; 'I' for Inactive)
    1  A    between atoms: N_3  and  N_25
    2  A    between atoms: C_7  and  C_11
    3  A    between atoms: N_18  and  C_30
    4  A    between atoms: C_23  and  N_25
                            x       y       z     vdW  Elec       q    Type
                         _______ _______ _______ _____ _____    ______ ____

>  <TORSDO>
F 4

$$$$
=
 OpenBabel11052420313D

 34 39  0  0  0  0  0  0  0  0999 V2000
  188.0780  176.5840  142.2770 C   0  0  0  0  0  0  0  0  0  0  0  0
  186.1560  177.1630  139.0390 C   0  0  0  0  0  3  0  0  0  0  0  0
  186.0130  178.2720  141.1790 O   0  0  0  0  0  0  0  0  0  0  0  0
  188.3160  176.4590  145.1690 C   0  0  0  0  0  2  0  0  0  0  0  0
  188.3020  175.3120  142.9600 N   0  0  0  0  0  2  0  0  0  0  0  0
  187.3970  177.4600  144.5260 C   0  0  0  0  0  0  0  0  0  0  0  0
  185.7720  179.2460  144.7400 C   0  0  0  0  0  3  0  0  0  0  0  0
  186.6770  178.3540  145.3240 C   0  0  0  0  0  3  0  0  0  0  0  0
  188.9690  175.6020  144.1690 N   0  0  0  0  0  0  0  0  0  0  0  0
  186.2720  178.3340  142.5510 C   0  0  0  0  0  0  0  0  0  0  0  0
  187.2120  177.4670  143.1330 C   0  0  0  0  0  0  0  0  0  0  0  0
  185.5650  179.2320  143.3560 C   0  0  0  0  0  3  0  0  0  0  0  0
  186.6910  176.1730  138.2090 C   0  0  0  0  0  0  0  0  0  0  0  0
  187.6620  175.2980  138.7200 C   0  0  0  0  0  3  0  0  0  0  0  0
  186.5710  177.2780  140.3690 C   0  0  0  0  0  0  0  0  0  0  0  0
  188.0880  175.4110  140.0460 C   0  0  0  0  0  2  0  0  0  0  0  0
  187.5350  176.3870  140.8840 C   0  0  0  0  0  0  0  0  0  0  0  0
  191.5640  172.9390  144.6380 C   0  0  0  0  0  3  0  0  0  0  0  0
  191.3460  175.7250  144.8360 C   0  0  0  0  0  3  0  0  0  0  0  0
  195.0090  173.8360  145.6630 C   0  0  0  0  0  0  0  0  0  0  0  0
  193.8940  173.0740  145.2890 C   0  0  0  0  0  3  0  0  0  0  0  0
  192.6740  173.6970  145.0120 C   0  0  0  0  0  0  0  0  0  0  0  0
  193.6740  175.8620  145.4860 C   0  0  0  0  0  3  0  0  0  0  0  0
  192.5640  175.1030  145.1110 C   0  0  0  0  0  0  0  0  0  0  0  0
  194.8920  175.2310  145.7600 C   0  0  0  0  0  3  0  0  0  0  0  0
  190.2250  174.9650  144.4610 C   0  0  0  0  0  0  0  0  0  0  0  0
  190.3480  173.5700  144.3640 C   0  0  0  0  0  3  0  0  0  0  0  0
  196.2910  173.1730  145.9530 C   0  0  0  0  0  0  0  0  0  0  0  0
  196.5040  171.8580  145.5550 O   0  0  0  0  0  0  0  0  0  0  0  0
  197.2050  173.7880  146.5630 O   0  0  0  0  0  1  0  0  0  0  0  0
  186.2320  176.0860  136.8480 N   0  0  0  0  0  2  0  0  0  0  0  0
  187.0420  176.0900  135.6930 N   0  0  0  0  0  0  0  0  0  0  0  0
  187.8170  177.3210  135.6580 C   0  0  0  0  0  1  0  0  0  0  0  0
  186.1900  176.0420  134.5130 C   0  0  0  0  0  1  0  0  0  0  0  0
  1  5  1  0  0  0  0
  1 11  1  0  0  0  0
  2 15  2  0  0  0  0
  3 10  1  0  0  0  0
  5  9  1  0  0  0  0
  6  4  1  0  0  0  0
  6  8  1  0  0  0  0
  7  8  2  0  0  0  0
  9 26  1  0  0  0  0
  9  4  1  0  0  0  0
 10 11  1  0  0  0  0
 10 12  2  0  0  0  0
 11  6  2  0  0  0  0
 12  7  1  0  0  0  0
 13 14  2  0  0  0  0
 13  2  1  0  0  0  0
 14 16  1  0  0  0  0
 15 17  1  0  0  0  0
 15  3  1  0  0  0  0
 16 17  1  0  0  0  0
 17  1  2  0  0  0  0
 18 22  1  0  0  0  0
 19 24  1  0  0  0  0
 20 25  1  0  0  0  0
 20 28  1  0  0  0  0
 21 20  2  0  0  0  0
 22 24  2  0  0  0  0
 22 21  1  0  0  0  0
 23 25  2  0  0  0  0
 24 23  1  0  0  0  0
 26 19  2  0  0  0  0
 27 26  1  0  0  0  0
 27 18  2  0  0  0  0
 28 30  1  0  0  0  0
 29 28  2  0  0  0  0
 31 13  1  0  0  0  0
 32 31  1  0  0  0  0
 33 32  1  0  0  0  0
 34 32  1  0  0  0  0
M  END
>  <MODEL>
3

>  <REMARK>
 VINA RESULT:      -7.9      1.337      2.015
  Name = 
  4 active torsions:
  status: ('A' for Active; 'I' for Inactive)
    1  A    between atoms: N_3  and  N_25
    2  A    between atoms: C_7  and  C_11
    3  A    between atoms: N_18  and  C_30
    4  A    between atoms: C_23  and  N_25
                            x       y       z     vdW  Elec       q    Type
                         _______ _______ _______ _____ _____    ______ ____

>  <TORSDO>
F 4

$$$$
=
 OpenBabel11052420313D

 34 39  0  0  0  0  0  0  0  0999 V2000
  194.6040  174.9300  143.0790 C   0  0  0  0  0  0  0  0  0  0  0  0
  196.8250  174.0680  140.1070 C   0  0  0  0  0  3  0  0  0  0  0  0
  197.0230  173.4930  142.4440 O   0  0  0  0  0  0  0  0  0  0  0  0
  194.1420  175.6200  145.8630 C   0  0  0  0  0  2  0  0  0  0  0  0
  194.0960  176.2470  143.4550 N   0  0  0  0  0  2  0  0  0  0  0  0
  195.2770  174.7080  145.4850 C   0  0  0  0  0  0  0  0  0  0  0  0
  197.1900  173.3690  146.1370 C   0  0  0  0  0  3  0  0  0  0  0  0
  196.0940  174.1670  146.4820 C   0  0  0  0  0  3  0  0  0  0  0  0
  193.4120  176.0950  144.6800 N   0  0  0  0  0  0  0  0  0  0  0  0
  196.6830  173.6740  143.7870 C   0  0  0  0  0  0  0  0  0  0  0  0
  195.5580  174.4410  144.1350 C   0  0  0  0  0  0  0  0  0  0  0  0
  197.4880  173.1290  144.7920 C   0  0  0  0  0  3  0  0  0  0  0  0
  196.1730  174.7310  139.0620 C   0  0  0  0  0  0  0  0  0  0  0  0
  195.0210  175.4830  139.3380 C   0  0  0  0  0  3  0  0  0  0  0  0
  196.3460  174.1590  141.4170 C   0  0  0  0  0  0  0  0  0  0  0  0
  194.5310  175.5730  140.6430 C   0  0  0  0  0  2  0  0  0  0  0  0
  195.1980  174.9290  141.6930 C   0  0  0  0  0  0  0  0  0  0  0  0
  190.2040  177.9150  144.0130 C   0  0  0  0  0  3  0  0  0  0  0  0
  191.1880  175.9450  145.7460 C   0  0  0  0  0  3  0  0  0  0  0  0
  187.1800  177.1840  146.0230 C   0  0  0  0  0  0  0  0  0  0  0  0
  188.0280  177.7550  145.0640 C   0  0  0  0  0  3  0  0  0  0  0  0
  189.3610  177.3470  144.9680 C   0  0  0  0  0  0  0  0  0  0  0  0
  189.0130  175.7840  146.7980 C   0  0  0  0  0  3  0  0  0  0  0  0
  189.8560  176.3530  145.8420 C   0  0  0  0  0  0  0  0  0  0  0  0
  187.6800  176.1980  146.8870 C   0  0  0  0  0  3  0  0  0  0  0  0
  192.0420  176.5170  144.7870 C   0  0  0  0  0  0  0  0  0  0  0  0
  191.5360  177.5020  143.9230 C   0  0  0  0  0  3  0  0  0  0  0  0
  185.7770  177.6180  146.1190 C   0  0  0  0  0  0  0  0  0  0  0  0
  185.4240  178.9220  145.7890 O   0  0  0  0  0  0  0  0  0  0  0  0
  184.8840  176.8160  146.5010 O   0  0  0  0  0  1  0  0  0  0  0  0
  196.7030  174.6150  137.7290 N   0  0  0  0  0  2  0  0  0  0  0  0
  196.1560  175.1870  136.5620 N   0  0  0  0  0  0  0  0  0  0  0  0
  195.8000  174.1250  135.6320 C   0  0  0  0  0  1  0  0  0  0  0  0
  197.1560  176.0390  135.9340 C   0  0  0  0  0  1  0  0  0  0  0  0
  1  5  1  0  0  0  0
  1 11  1  0  0  0  0
  2 15  2  0  0  0  0
  3 10  1  0  0  0  0
  5  9  1  0  0  0  0
  6  4  1  0  0  0  0
  6  8  1  0  0  0  0
  7  8  2  0  0  0  0
  9 26  1  0  0  0  0
  9  4  1  0  0  0  0
 10 11  1  0  0  0  0
 10 12  2  0  0  0  0
 11  6  2  0  0  0  0
 12  7  1  0  0  0  0
 13 14  2  0  0  0  0
 13  2  1  0  0  0  0
 14 16  1  0  0  0  0
 15 17  1  0  0  0  0
 15  3  1  0  0  0  0
 16 17  1  0  0  0  0
 17  1  2  0  0  0  0
 18 22  1  0  0  0  0
 19 24  1  0  0  0  0
 20 28  1  0  0  0  0
 20 25  1  0  0  0  0
 21 20  2  0  0  0  0
 22 21  1  0  0  0  0
 22 24  2  0  0  0  0
 23 25  2  0  0  0  0
 24 23  1  0  0  0  0
 26 19  2  0  0  0  0
 27 18  2  0  0  0  0
 27 26  1  0  0  0  0
 28 30  1  0  0  0  0
 29 28  2  0  0  0  0
 31 13  1  0  0  0  0
 32 31  1  0  0  0  0
 33 32  1  0  0  0  0
 34 32  1  0  0  0  0
M  END
>  <MODEL>
4

>  <REMARK>
 VINA RESULT:      -7.8      4.183      9.114
  Name = 
  4 active torsions:
  status: ('A' for Active; 'I' for Inactive)
    1  A    between atoms: N_3  and  N_25
    2  A    between atoms: C_7  and  C_11
    3  A    between atoms: N_18  and  C_30
    4  A    between atoms: C_23  and  N_25
                            x       y       z     vdW  Elec       q    Type
                         _______ _______ _______ _____ _____    ______ ____

>  <TORSDO>
F 4

$$$$
=
 OpenBabel11052420313D

 34 39  0  0  0  0  0  0  0  0999 V2000
  188.9720  175.5930  143.8880 C   0  0  0  0  0  0  0  0  0  0  0  0
  191.4780  173.1100  142.4520 C   0  0  0  0  0  3  0  0  0  0  0  0
  191.3580  174.1510  144.6280 O   0  0  0  0  0  0  0  0  0  0  0  0
  188.2200  177.8760  145.5200 C   0  0  0  0  0  2  0  0  0  0  0  0
  188.5030  176.8350  143.2770 N   0  0  0  0  0  2  0  0  0  0  0  0
  189.3350  176.9650  145.9560 C   0  0  0  0  0  0  0  0  0  0  0  0
  191.0700  176.4000  147.5510 C   0  0  0  0  0  3  0  0  0  0  0  0
  189.9910  177.2030  147.1670 C   0  0  0  0  0  3  0  0  0  0  0  0
  187.6680  177.4720  144.2190 N   0  0  0  0  0  0  0  0  0  0  0  0
  190.8700  175.1320  145.4960 C   0  0  0  0  0  0  0  0  0  0  0  0
  189.7600  175.9110  145.1290 C   0  0  0  0  0  0  0  0  0  0  0  0
  191.5130  175.3700  146.7140 C   0  0  0  0  0  3  0  0  0  0  0  0
  190.9990  172.9420  141.1500 C   0  0  0  0  0  0  0  0  0  0  0  0
  189.8700  173.6640  140.7340 C   0  0  0  0  0  3  0  0  0  0  0  0
  190.8510  173.9960  143.3330 C   0  0  0  0  0  0  0  0  0  0  0  0
  189.2320  174.5450  141.6110 C   0  0  0  0  0  2  0  0  0  0  0  0
  189.7270  174.7320  142.9070 C   0  0  0  0  0  0  0  0  0  0  0  0
  184.1260  178.6680  144.4830 C   0  0  0  0  0  3  0  0  0  0  0  0
  185.8820  177.6970  142.5270 C   0  0  0  0  0  3  0  0  0  0  0  0
  181.9480  178.7560  141.4880 C   0  0  0  0  0  0  0  0  0  0  0  0
  182.3840  178.8870  142.8130 C   0  0  0  0  0  3  0  0  0  0  0  0
  183.6910  178.5370  143.1630 C   0  0  0  0  0  0  0  0  0  0  0  0
  184.1420  177.9160  140.8560 C   0  0  0  0  0  3  0  0  0  0  0  0
  184.5760  178.0480  142.1770 C   0  0  0  0  0  0  0  0  0  0  0  0
  182.8330  178.2700  140.5140 C   0  0  0  0  0  3  0  0  0  0  0  0
  186.3230  177.8250  143.8550 C   0  0  0  0  0  0  0  0  0  0  0  0
  185.4340  178.3150  144.8250 C   0  0  0  0  0  3  0  0  0  0  0  0
  180.5710  179.1280  141.1250 C   0  0  0  0  0  0  0  0  0  0  0  0
  180.3140  180.3480  140.5110 O   0  0  0  0  0  0  0  0  0  0  0  0
  179.6130  178.3460  141.3680 O   0  0  0  0  0  1  0  0  0  0  0  0
  191.6780  172.0240  140.2740 N   0  0  0  0  0  2  0  0  0  0  0  0
  191.0760  171.0040  139.5070 N   0  0  0  0  0  0  0  0  0  0  0  0
  190.8220  169.8520  140.3600 C   0  0  0  0  0  1  0  0  0  0  0  0
  191.9890  170.6030  138.4460 C   0  0  0  0  0  1  0  0  0  0  0  0
  1 11  1  0  0  0  0
  2 15  2  0  0  0  0
  3 10  1  0  0  0  0
  4  6  1  0  0  0  0
  5  1  1  0  0  0  0
  5  9  1  0  0  0  0
  6  8  1  0  0  0  0
  8  7  2  0  0  0  0
  9  4  1  0  0  0  0
 10 12  2  0  0  0  0
 11 10  1  0  0  0  0
 11  6  2  0  0  0  0
 12  7  1  0  0  0  0
 13  2  1  0  0  0  0
 14 13  2  0  0  0  0
 14 16  1  0  0  0  0
 15  3  1  0  0  0  0
 16 17  1  0  0  0  0
 17 15  1  0  0  0  0
 17  1  2  0  0  0  0
 18 27  1  0  0  0  0
 19 26  1  0  0  0  0
 20 21  2  0  0  0  0
 21 22  1  0  0  0  0
 22 18  2  0  0  0  0
 23 24  1  0  0  0  0
 24 19  2  0  0  0  0
 24 22  1  0  0  0  0
 25 23  2  0  0  0  0
 25 20  1  0  0  0  0
 26  9  1  0  0  0  0
 26 27  2  0  0  0  0
 28 30  1  0  0  0  0
 28 20  1  0  0  0  0
 29 28  2  0  0  0  0
 31 13  1  0  0  0  0
 32 31  1  0  0  0  0
 32 33  1  0  0  0  0
 34 32  1  0  0  0  0
M  END
>  <MODEL>
5

>  <REMARK>
 VINA RESULT:      -7.7      3.551      8.936
  Name = 
  4 active torsions:
  status: ('A' for Active; 'I' for Inactive)
    1  A    between atoms: N_3  and  N_25
    2  A    between atoms: C_7  and  C_11
    3  A    between atoms: N_18  and  C_30
    4  A    between atoms: C_23  and  N_25
                            x       y       z     vdW  Elec       q    Type
                         _______ _______ _______ _____ _____    ______ ____

>  <TORSDO>
F 4

$$$$
=
 OpenBabel11052420313D

 34 39  0  0  0  0  0  0  0  0999 V2000
  190.9320  176.6720  143.7850 C   0  0  0  0  0  0  0  0  0  0  0  0
  187.3940  178.0620  144.0340 C   0  0  0  0  0  3  0  0  0  0  0  0
  188.9770  177.4600  145.7550 O   0  0  0  0  0  0  0  0  0  0  0  0
  193.1320  174.9950  144.6710 C   0  0  0  0  0  2  0  0  0  0  0  0
  191.3860  175.5390  142.9830 N   0  0  0  0  0  2  0  0  0  0  0  0
  192.1880  175.6010  145.6730 C   0  0  0  0  0  0  0  0  0  0  0  0
  191.4820  175.8850  147.9740 C   0  0  0  0  0  3  0  0  0  0  0  0
  192.3900  175.3780  147.0380 C   0  0  0  0  0  3  0  0  0  0  0  0
  192.7460  175.3290  143.2930 N   0  0  0  0  0  0  0  0  0  0  0  0
  190.1390  176.8130  146.1840 C   0  0  0  0  0  0  0  0  0  0  0  0
  191.0720  176.3410  145.2460 C   0  0  0  0  0  0  0  0  0  0  0  0
  190.3550  176.5950  147.5470 C   0  0  0  0  0  3  0  0  0  0  0  0
  187.0280  178.1530  142.6870 C   0  0  0  0  0  0  0  0  0  0  0  0
  187.9320  177.7330  141.6990 C   0  0  0  0  0  3  0  0  0  0  0  0
  188.6410  177.5480  144.3990 C   0  0  0  0  0  0  0  0  0  0  0  0
  189.1830  177.2250  142.0560 C   0  0  0  0  0  2  0  0  0  0  0  0
  189.5400  177.1110  143.4060 C   0  0  0  0  0  0  0  0  0  0  0  0
  196.0070  175.7240  141.4880 C   0  0  0  0  0  3  0  0  0  0  0  0
  193.3800  174.9190  140.9400 C   0  0  0  0  0  3  0  0  0  0  0  0
  196.2680  174.9070  137.8850 C   0  0  0  0  0  0  0  0  0  0  0  0
  196.6170  175.3140  139.1800 C   0  0  0  0  0  3  0  0  0  0  0  0
  195.6600  175.3190  140.1990 C   0  0  0  0  0  0  0  0  0  0  0  0
  193.9870  174.5080  138.6320 C   0  0  0  0  0  3  0  0  0  0  0  0
  194.3360  174.9130  139.9220 C   0  0  0  0  0  0  0  0  0  0  0  0
  194.9510  174.5050  137.6180 C   0  0  0  0  0  3  0  0  0  0  0  0
  193.7250  175.3280  142.2390 C   0  0  0  0  0  0  0  0  0  0  0  0
  195.0450  175.7270  142.5020 C   0  0  0  0  0  3  0  0  0  0  0  0
  197.2810  174.9020  136.8160 C   0  0  0  0  0  0  0  0  0  0  0  0
  197.5150  176.0530  136.0710 O   0  0  0  0  0  0  0  0  0  0  0  0
  197.9410  173.8600  136.5660 O   0  0  0  0  0  1  0  0  0  0  0  0
  185.7320  178.6840  142.3540 N   0  0  0  0  0  2  0  0  0  0  0  0
  184.6220  177.9460  141.8930 N   0  0  0  0  0  0  0  0  0  0  0  0
  184.3630  178.2940  140.5030 C   0  0  0  0  0  1  0  0  0  0  0  0
  183.4530  178.2970  142.6850 C   0  0  0  0  0  1  0  0  0  0  0  0
  1 11  1  0  0  0  0
  2 15  2  0  0  0  0
  3 10  1  0  0  0  0
  4  6  1  0  0  0  0
  5  9  1  0  0  0  0
  5  1  1  0  0  0  0
  6  8  1  0  0  0  0
  8  7  2  0  0  0  0
  9  4  1  0  0  0  0
 10 12  2  0  0  0  0
 11  6  2  0  0  0  0
 11 10  1  0  0  0  0
 12  7  1  0  0  0  0
 13  2  1  0  0  0  0
 14 16  1  0  0  0  0
 14 13  2  0  0  0  0
 15  3  1  0  0  0  0
 16 17  1  0  0  0  0
 17  1  2  0  0  0  0
 17 15  1  0  0  0  0
 18 27  1  0  0  0  0
 19 26  1  0  0  0  0
 20 21  2  0  0  0  0
 21 22  1  0  0  0  0
 22 18  2  0  0  0  0
 23 24  1  0  0  0  0
 24 22  1  0  0  0  0
 24 19  2  0  0  0  0
 25 20  1  0  0  0  0
 25 23  2  0  0  0  0
 26 27  2  0  0  0  0
 26  9  1  0  0  0  0
 28 20  1  0  0  0  0
 29 28  2  0  0  0  0
 30 28  1  0  0  0  0
 31 13  1  0  0  0  0
 32 31  1  0  0  0  0
 32 34  1  0  0  0  0
 33 32  1  0  0  0  0
M  END
>  <MODEL>
6

>  <REMARK>
 VINA RESULT:      -7.5      3.956      5.728
  Name = 
  4 active torsions:
  status: ('A' for Active; 'I' for Inactive)
    1  A    between atoms: N_3  and  N_25
    2  A    between atoms: C_7  and  C_11
    3  A    between atoms: N_18  and  C_30
    4  A    between atoms: C_23  and  N_25
                            x       y       z     vdW  Elec       q    Type
                         _______ _______ _______ _____ _____    ______ ____

>  <TORSDO>
F 4

$$$$
=
 OpenBabel11052420313D

 34 39  0  0  1  0  0  0  0  0999 V2000
  194.3750  174.1000  144.3370 C   0  0  0  0  0  0  0  0  0  0  0  0
  196.2340  170.8560  145.0690 C   0  0  0  0  0  3  0  0  0  0  0  0
  197.0510  173.0240  144.3860 O   0  0  0  0  0  0  0  0  0  0  0  0
  193.9500  176.5790  142.8840 C   0  0  0  0  0  2  0  0  0  0  0  0
  193.2070  174.2790  143.4780 N   0  0  0  0  0  2  0  0  0  0  0  0
  195.3440  176.0640  143.1160 C   0  0  2  0  0  3  0  0  0  0  0  0
  197.7370  176.2980  142.8080 C   0  0  0  0  0  3  0  0  0  0  0  0
  196.4400  176.7990  142.6540 C   0  0  0  0  0  3  0  0  0  0  0  0
  192.9370  175.6620  143.4270 N   0  0  0  0  0  0  0  0  0  0  0  0
  196.8510  174.3020  143.8570 C   0  0  0  0  0  0  0  0  0  0  0  0
  195.5520  174.8230  143.7410 C   0  0  0  0  0  0  0  0  0  0  0  0
  197.9410  175.0490  143.4030 C   0  0  0  0  0  3  0  0  0  0  0  0
  195.1820  169.9870  145.3730 C   0  0  0  0  0  0  0  0  0  0  0  0
  193.8620  170.4580  145.3120 C   0  0  0  0  0  3  0  0  0  0  0  0
  195.9790  172.1780  144.6940 C   0  0  0  0  0  0  0  0  0  0  0  0
  193.5990  171.7810  144.9470 C   0  0  0  0  0  3  0  0  0  0  0  0
  194.6510  172.6440  144.6180 C   0  0  0  0  0  0  0  0  0  0  0  0
  189.6950  177.5400  143.3150 C   0  0  0  0  0  3  0  0  0  0  0  0
  191.0120  175.7070  144.9760 C   0  0  0  0  0  3  0  0  0  0  0  0
  187.1950  177.1300  146.0170 C   0  0  0  0  0  0  0  0  0  0  0  0
  187.8120  177.5720  144.8390 C   0  0  0  0  0  3  0  0  0  0  0  0
  189.0810  177.1010  144.4890 C   0  0  0  0  0  0  0  0  0  0  0  0
  189.1310  175.7370  146.5000 C   0  0  0  0  0  3  0  0  0  0  0  0
  189.7440  176.1760  145.3260 C   0  0  0  0  0  0  0  0  0  0  0  0
  187.8610  176.2120  146.8440 C   0  0  0  0  0  3  0  0  0  0  0  0
  191.6350  176.1480  143.7960 C   0  0  0  0  0  0  0  0  0  0  0  0
  190.9640  177.0660  142.9710 C   0  0  0  0  0  3  0  0  0  0  0  0
  185.8590  177.6290  146.3810 C   0  0  0  0  0  0  0  0  0  0  0  0
  185.6640  178.9810  146.6420 O   0  0  0  0  0  1  0  0  0  0  0  0
  184.8820  176.8380  146.4610 O   0  0  0  0  0  0  0  0  0  0  0  0
  195.4880  168.6320  145.7490 N   0  0  0  0  0  2  0  0  0  0  0  0
  195.7470  168.1670  147.0560 N   0  0  0  0  0  0  0  0  0  0  0  0
  194.5770  168.4100  147.8880 C   0  0  0  0  0  1  0  0  0  0  0  0
  196.8730  168.9040  147.6100 C   0  0  0  0  0  1  0  0  0  0  0  0
  1 17  1  0  0  0  0
  2 13  1  0  0  0  0
  3 15  1  0  0  0  0
  4  6  1  0  0  0  0
  4  9  1  0  0  0  0
  5  1  1  0  0  0  0
  6  8  1  6  0  0  0
  6 11  1  0  0  0  0
  7 12  1  0  0  0  0
  8  7  2  0  0  0  0
  9  5  1  0  0  0  0
  9 26  1  0  0  0  0
 10  3  1  0  0  0  0
 11 10  1  0  0  0  0
 11  1  2  0  0  0  0
 12 10  2  0  0  0  0
 13 31  1  0  0  0  0
 14 13  2  0  0  0  0
 15  2  2  0  0  0  0
 16 14  1  0  0  0  0
 17 15  1  0  0  0  0
 17 16  2  0  0  0  0
 18 22  1  0  0  0  0
 19 24  1  0  0  0  0
 20 28  1  0  0  0  0
 20 25  1  0  0  0  0
 21 20  2  0  0  0  0
 22 21  1  0  0  0  0
 22 24  2  0  0  0  0
 23 25  2  0  0  0  0
 24 23  1  0  0  0  0
 26 19  2  0  0  0  0
 27 18  2  0  0  0  0
 27 26  1  0  0  0  0
 28 30  2  0  0  0  0
 28 29  1  0  0  0  0
 31 32  1  0  0  0  0
 32 34  1  0  0  0  0
 32 33  1  0  0  0  0
M  END
>  <MODEL>
7

>  <REMARK>
 VINA RESULT:      -7.5      3.834     10.324
  Name = 
  4 active torsions:
  status: ('A' for Active; 'I' for Inactive)
    1  A    between atoms: N_3  and  N_25
    2  A    between atoms: C_7  and  C_11
    3  A    between atoms: N_18  and  C_30
    4  A    between atoms: C_23  and  N_25
                            x       y       z     vdW  Elec       q    Type
                         _______ _______ _______ _____ _____    ______ ____

>  <TORSDO>
F 4

$$$$
=
 OpenBabel11052420313D

 34 39  0  0  0  0  0  0  0  0999 V2000
  191.7080  172.4260  143.3340 C   0  0  0  0  0  0  0  0  0  0  0  0
  192.2500  170.1460  140.3300 C   0  0  0  0  0  3  0  0  0  0  0  0
  193.5720  170.4690  142.3260 O   0  0  0  0  0  0  0  0  0  0  0  0
  192.6200  174.1800  145.4620 C   0  0  0  0  0  2  0  0  0  0  0  0
  191.3950  173.8530  143.3210 N   0  0  0  0  0  2  0  0  0  0  0  0
  193.4650  173.0160  145.0230 C   0  0  0  0  0  0  0  0  0  0  0  0
  195.5040  171.7200  145.2210 C   0  0  0  0  0  3  0  0  0  0  0  0
  194.6820  172.7620  145.6630 C   0  0  0  0  0  3  0  0  0  0  0  0
  191.3930  174.2900  144.6620 N   0  0  0  0  0  0  0  0  0  0  0  0
  193.9160  171.1980  143.4670 C   0  0  0  0  0  0  0  0  0  0  0  0
  193.0700  172.2160  143.9370 C   0  0  0  0  0  0  0  0  0  0  0  0
  195.1250  170.9440  144.1210 C   0  0  0  0  0  3  0  0  0  0  0  0
  191.1500  170.4670  139.5280 C   0  0  0  0  0  0  0  0  0  0  0  0
  190.2470  171.4500  139.9590 C   0  0  0  0  0  3  0  0  0  0  0  0
  192.4590  170.8040  141.5460 C   0  0  0  0  0  0  0  0  0  0  0  0
  190.4440  172.1060  141.1770 C   0  0  0  0  0  2  0  0  0  0  0  0
  191.5590  171.8020  141.9690 C   0  0  0  0  0  0  0  0  0  0  0  0
  188.6650  175.2910  147.0300 C   0  0  0  0  0  3  0  0  0  0  0  0
  189.5220  175.8890  144.4300 C   0  0  0  0  0  3  0  0  0  0  0  0
  186.1360  177.8030  146.0240 C   0  0  0  0  0  0  0  0  0  0  0  0
  186.8380  176.8640  146.7910 C   0  0  0  0  0  3  0  0  0  0  0  0
  187.9650  176.2250  146.2650 C   0  0  0  0  0  0  0  0  0  0  0  0
  187.6970  177.4620  144.1890 C   0  0  0  0  0  3  0  0  0  0  0  0
  188.3970  176.5280  144.9550 C   0  0  0  0  0  0  0  0  0  0  0  0
  186.5710  178.0980  144.7230 C   0  0  0  0  0  3  0  0  0  0  0  0
  190.2290  174.9460  145.1950 C   0  0  0  0  0  0  0  0  0  0  0  0
  189.7900  174.6560  146.4970 C   0  0  0  0  0  3  0  0  0  0  0  0
  184.9500  178.4730  146.5830 C   0  0  0  0  0  0  0  0  0  0  0  0
  183.9600  178.9620  145.7380 O   0  0  0  0  0  0  0  0  0  0  0  0
  184.8220  178.6110  147.8280 O   0  0  0  0  0  1  0  0  0  0  0  0
  190.9760  169.7700  138.2810 N   0  0  0  0  0  2  0  0  0  0  0  0
  191.2840  170.2670  136.9970 N   0  0  0  0  0  0  0  0  0  0  0  0
  190.0600  170.7240  136.3560 C   0  0  0  0  0  1  0  0  0  0  0  0
  191.8560  169.1950  136.1950 C   0  0  0  0  0  1  0  0  0  0  0  0
  1 11  1  0  0  0  0
  2 15  2  0  0  0  0
  3 10  1  0  0  0  0
  5  1  1  0  0  0  0
  5  9  1  0  0  0  0
  6  4  1  0  0  0  0
  6  8  1  0  0  0  0
  7  8  2  0  0  0  0
  9 26  1  0  0  0  0
  9  4  1  0  0  0  0
 10 11  1  0  0  0  0
 10 12  2  0  0  0  0
 11  6  2  0  0  0  0
 12  7  1  0  0  0  0
 13 14  2  0  0  0  0
 13  2  1  0  0  0  0
 14 16  1  0  0  0  0
 15 17  1  0  0  0  0
 15  3  1  0  0  0  0
 16 17  1  0  0  0  0
 17  1  2  0  0  0  0
 19 24  2  0  0  0  0
 19 26  1  0  0  0  0
 20 28  1  0  0  0  0
 20 21  2  0  0  0  0
 22 21  1  0  0  0  0
 22 18  2  0  0  0  0
 23 25  2  0  0  0  0
 23 24  1  0  0  0  0
 24 22  1  0  0  0  0
 25 20  1  0  0  0  0
 26 27  2  0  0  0  0
 27 18  1  0  0  0  0
 28 30  1  0  0  0  0
 29 28  2  0  0  0  0
 31 13  1  0  0  0  0
 32 31  1  0  0  0  0
 33 32  1  0  0  0  0
 34 32  1  0  0  0  0
M  END
>  <MODEL>
8

>  <REMARK>
 VINA RESULT:      -7.5      4.040      8.490
  Name = 
  4 active torsions:
  status: ('A' for Active; 'I' for Inactive)
    1  A    between atoms: N_3  and  N_25
    2  A    between atoms: C_7  and  C_11
    3  A    between atoms: N_18  and  C_30
    4  A    between atoms: C_23  and  N_25
                            x       y       z     vdW  Elec       q    Type
                         _______ _______ _______ _____ _____    ______ ____

>  <TORSDO>
F 4

$$$$
=
 OpenBabel11052420313D

 34 39  0  0  0  0  0  0  0  0999 V2000
  192.8380  174.3770  143.3510 C   0  0  0  0  0  0  0  0  0  0  0  0
  194.0840  172.5000  140.2790 C   0  0  0  0  0  3  0  0  0  0  0  0
  195.1040  172.8420  142.4410 O   0  0  0  0  0  0  0  0  0  0  0  0
  193.2020  176.0490  145.6980 C   0  0  0  0  0  2  0  0  0  0  0  0
  192.2930  175.7320  143.4030 N   0  0  0  0  0  2  0  0  0  0  0  0
  194.2740  175.0790  145.2840 C   0  0  0  0  0  0  0  0  0  0  0  0
  196.4660  174.1090  145.6380 C   0  0  0  0  0  3  0  0  0  0  0  0
  195.4370  174.9620  146.0500 C   0  0  0  0  0  3  0  0  0  0  0  0
  192.0700  176.0380  144.7620 N   0  0  0  0  0  0  0  0  0  0  0  0
  195.1920  173.5070  143.6670 C   0  0  0  0  0  0  0  0  0  0  0  0
  194.1410  174.3310  144.1020 C   0  0  0  0  0  0  0  0  0  0  0  0
  196.3470  173.3880  144.4460 C   0  0  0  0  0  3  0  0  0  0  0  0
  193.0420  172.7160  139.3720 C   0  0  0  0  0  0  0  0  0  0  0  0
  191.9440  173.4990  139.7580 C   0  0  0  0  0  3  0  0  0  0  0  0
  194.0440  173.0670  141.5560 C   0  0  0  0  0  0  0  0  0  0  0  0
  191.8930  174.0630  141.0360 C   0  0  0  0  0  2  0  0  0  0  0  0
  192.9470  173.8670  141.9360 C   0  0  0  0  0  0  0  0  0  0  0  0
  189.1380  176.7650  146.9810 C   0  0  0  0  0  3  0  0  0  0  0  0
  189.8260  176.9510  144.2720 C   0  0  0  0  0  3  0  0  0  0  0  0
  186.0140  178.1630  145.5650 C   0  0  0  0  0  0  0  0  0  0  0  0
  186.9430  177.6640  146.4880 C   0  0  0  0  0  3  0  0  0  0  0  0
  188.2120  177.2600  146.0620 C   0  0  0  0  0  0  0  0  0  0  0  0
  187.6330  177.8500  143.7760 C   0  0  0  0  0  3  0  0  0  0  0  0
  188.5590  177.3550  144.6960 C   0  0  0  0  0  0  0  0  0  0  0  0
  186.3660  178.2530  144.2100 C   0  0  0  0  0  3  0  0  0  0  0  0
  190.7610  176.4490  145.1930 C   0  0  0  0  0  0  0  0  0  0  0  0
  190.4040  176.3620  146.5490 C   0  0  0  0  0  3  0  0  0  0  0  0
  184.6790  178.5870  146.0190 C   0  0  0  0  0  0  0  0  0  0  0  0
  184.3490  178.5320  147.3690 O   0  0  0  0  0  1  0  0  0  0  0  0
  183.8250  179.0030  145.1920 O   0  0  0  0  0  0  0  0  0  0  0  0
  193.1260  172.1180  138.0650 N   0  0  0  0  0  2  0  0  0  0  0  0
  192.8950  170.7620  137.7520 N   0  0  0  0  0  0  0  0  0  0  0  0
  193.7400  170.3810  136.6300 C   0  0  0  0  0  1  0  0  0  0  0  0
  191.5020  170.5920  137.3650 C   0  0  0  0  0  1  0  0  0  0  0  0
  1  5  1  0  0  0  0
  1 11  1  0  0  0  0
  2 15  2  0  0  0  0
  3 10  1  0  0  0  0
  5  9  1  0  0  0  0
  6  4  1  0  0  0  0
  6  8  1  0  0  0  0
  7  8  2  0  0  0  0
  9 26  1  0  0  0  0
  9  4  1  0  0  0  0
 10 11  1  0  0  0  0
 10 12  2  0  0  0  0
 11  6  2  0  0  0  0
 12  7  1  0  0  0  0
 13 14  2  0  0  0  0
 13  2  1  0  0  0  0
 14 16  1  0  0  0  0
 15 17  1  0  0  0  0
 15  3  1  0  0  0  0
 16 17  1  0  0  0  0
 17  1  2  0  0  0  0
 19 24  2  0  0  0  0
 19 26  1  0  0  0  0
 20 28  1  0  0  0  0
 20 21  2  0  0  0  0
 22 21  1  0  0  0  0
 22 18  2  0  0  0  0
 23 25  2  0  0  0  0
 23 24  1  0  0  0  0
 24 22  1  0  0  0  0
 25 20  1  0  0  0  0
 26 27  2  0  0  0  0
 27 18  1  0  0  0  0
 28 29  1  0  0  0  0
 30 28  2  0  0  0  0
 31 13  1  0  0  0  0
 32 31  1  0  0  0  0
 33 32  1  0  0  0  0
 34 32  1  0  0  0  0
M  END
>  <MODEL>
9

>  <REMARK>
 VINA RESULT:      -7.4      3.565      8.483
  Name = 
  4 active torsions:
  status: ('A' for Active; 'I' for Inactive)
    1  A    between atoms: N_3  and  N_25
    2  A    between atoms: C_7  and  C_11
    3  A    between atoms: N_18  and  C_30
    4  A    between atoms: C_23  and  N_25
                            x       y       z     vdW  Elec       q    Type
                         _______ _______ _______ _____ _____    ______ ____

>  <TORSDO>
F 4

$$$$
