=
 OpenBabel11052420503D

 43 48  0  0  1  0  0  0  0  0999 V2000
  185.1270  178.7560  147.2580 C   0  0  0  0  0  2  0  0  0  0  0  0
  189.1110  176.0810  145.2320 C   0  0  0  0  0  0  0  0  0  0  0  0
  189.4690  176.6730  142.4420 C   0  0  1  0  0  3  0  0  0  0  0  0
  186.9060  177.0880  146.6750 C   0  0  0  0  0  0  0  0  0  0  0  0
  184.8540  178.2060  144.7760 C   0  0  0  0  0  2  0  0  0  0  0  0
  184.1740  178.6600  146.0680 C   0  0  0  0  0  2  0  0  0  0  0  0
  187.1870  177.5860  145.3740 C   0  0  0  0  0  0  0  0  0  0  0  0
  185.8360  177.5390  147.4660 O   0  0  0  0  0  0  0  0  0  0  0  0
  186.3170  178.6280  144.7230 C   0  0  0  0  0  2  0  0  0  0  0  0
  188.6310  177.6330  143.2910 C   0  0  0  0  0  2  0  0  0  0  0  0
  188.2910  177.0780  144.6570 C   0  0  0  0  0  0  0  0  0  0  0  0
  188.8020  175.5840  146.5020 C   0  0  0  0  0  3  0  0  0  0  0  0
  190.2250  175.5460  144.4930 N   0  0  0  0  0  0  0  0  0  0  0  0
  190.6680  176.2060  143.2660 C   0  0  0  0  0  2  0  0  0  0  0  0
  187.7130  176.0830  147.2120 C   0  0  0  0  0  3  0  0  0  0  0  0
  188.6250  175.5050  141.8980 C   0  0  1  0  0  3  0  0  0  0  0  0
  187.5860  176.0030  140.9060 C   0  0  0  0  0  1  0  0  0  0  0  0
  189.4590  174.3860  141.2660 C   0  0  0  0  0  2  0  0  0  0  0  0
  188.9450  173.9820  139.8920 C   0  0  0  0  0  2  0  0  0  0  0  0
  189.7950  172.8450  139.3640 C   0  0  0  0  0  2  0  0  0  0  0  0
  190.7750  172.4040  140.4300 C   0  0  0  0  0  2  0  0  0  0  0  0
  192.1160  172.0670  139.7860 C   0  0  1  0  0  3  0  0  0  0  0  0
  194.0610  171.6600  141.8270 C   0  0  0  0  0  2  0  0  0  0  0  0
  193.1740  173.1580  140.0310 C   0  0  2  0  0  3  0  0  0  0  0  0
  192.6360  170.7340  140.3360 C   0  0  0  0  0  2  0  0  0  0  0  0
  193.7110  173.1060  141.4670 C   0  0  2  0  0  3  0  0  0  0  0  0
  192.6700  174.4270  139.7350 O   0  0  0  0  0  1  0  0  0  0  0  0
  192.9210  170.8440  141.7100 O   0  0  0  0  0  0  0  0  0  0  0  0
  194.9080  173.9940  141.6400 C   0  0  0  0  0  0  0  0  0  0  0  0
  195.8360  176.2210  142.2990 C   0  0  0  0  0  2  0  0  0  0  0  0
  197.3970  174.4820  141.4840 C   0  0  0  0  0  2  0  0  0  0  0  0
  197.1480  175.5000  142.5870 C   0  0  0  0  0  2  0  0  0  0  0  0
  196.3030  173.4130  141.5080 C   0  0  0  0  0  2  0  0  0  0  0  0
  194.7090  175.2470  142.0800 C   0  0  0  0  0  3  0  0  0  0  0  0
  190.8170  174.2590  144.8640 C   0  0  0  0  0  2  0  0  0  0  0  0
  194.4770  172.9430  145.0790 C   0  0  0  0  0  2  0  0  0  0  0  0
  195.1320  174.2930  145.4240 C   0  0  1  0  0  3  0  0  0  0  0  0
  192.9240  175.4910  145.5360 C   0  0  0  0  0  2  0  0  0  0  0  0
  192.9530  172.9430  145.2500 C   0  0  0  0  0  2  0  0  0  0  0  0
  192.3450  174.2730  144.7960 C   0  0  1  0  0  3  0  0  0  0  0  0
  194.2330  175.1940  146.2710 C   0  0  0  0  0  2  0  0  0  0  0  0
  196.5050  174.1060  146.0620 C   0  0  0  0  0  2  0  0  0  0  0  0
  197.1610  172.7950  145.6540 C   0  0  0  0  0  1  0  0  0  0  0  0
  1  8  1  0  0  0  0
  2 12  1  0  0  0  0
  3 16  1  1  0  0  0
  3 14  1  0  0  0  0
  3 10  1  0  0  0  0
  4 15  1  0  0  0  0
  4  8  1  0  0  0  0
  5  6  1  0  0  0  0
  6  1  1  0  0  0  0
  7  4  2  0  0  0  0
  9  5  1  0  0  0  0
  9  7  1  0  0  0  0
 10 11  1  0  0  0  0
 11  2  2  0  0  0  0
 11  7  1  0  0  0  0
 12 15  2  0  0  0  0
 13 35  1  0  0  0  0
 13  2  1  0  0  0  0
 14 13  1  0  0  0  0
 16 17  1  6  0  0  0
 18 16  1  0  0  0  0
 19 18  1  0  0  0  0
 20 19  1  0  0  0  0
 20 21  1  0  0  0  0
 22 24  1  0  0  0  0
 22 25  1  0  0  0  0
 22 21  1  1  0  0  0
 24 27  1  1  0  0  0
 24 26  1  0  0  0  0
 25 28  1  0  0  0  0
 26 29  1  6  0  0  0
 26 23  1  0  0  0  0
 28 23  1  0  0  0  0
 29 34  2  0  0  0  0
 30 32  1  0  0  0  0
 31 33  1  0  0  0  0
 31 32  1  0  0  0  0
 33 29  1  0  0  0  0
 34 30  1  0  0  0  0
 36 39  1  0  0  0  0
 36 37  1  0  0  0  0
 37 42  1  1  0  0  0
 37 41  1  0  0  0  0
 38 41  1  0  0  0  0
 40 35  1  1  0  0  0
 40 39  1  0  0  0  0
 40 38  1  0  0  0  0
 43 42  1  0  0  0  0
M  END
>  <MODEL>
1

>  <REMARK>
 VINA RESULT:      -7.6      0.000      0.000
  Name = 
  10 active torsions:
  status: ('A' for Active; 'I' for Inactive)
    1  A    between atoms: C_1  and  N_34
    2  A    between atoms: C_1  and  C_35
    3  A    between atoms: C_2  and  C_6
    4  A    between atoms: C_2  and  C_13
    5  A    between atoms: C_3  and  C_4
    6  A    between atoms: C_3  and  C_12
    7  A    between atoms: C_6  and  C_17
    8  A    between atoms: C_11  and  C_22
    9  A    between atoms: C_12  and  C_17
   10  A    between atoms: C_19  and  C_25
                            x       y       z     vdW  Elec       q    Type
                         _______ _______ _______ _____ _____    ______ ____

>  <TORSDO>
F 10

$$$$
=
 OpenBabel11052420503D

 43 48  0  0  1  0  0  0  0  0999 V2000
  184.1850  178.1640  146.1950 C   0  0  0  0  0  2  0  0  0  0  0  0
  188.4080  175.6840  144.4210 C   0  0  0  0  0  0  0  0  0  0  0  0
  190.1640  174.9220  146.5650 C   0  0  1  0  0  3  0  0  0  0  0  0
  186.1360  177.2890  144.8830 C   0  0  0  0  0  0  0  0  0  0  0  0
  186.2700  178.4970  147.6380 C   0  0  0  0  0  2  0  0  0  0  0  0
  184.8610  178.9820  147.2950 C   0  0  0  0  0  2  0  0  0  0  0  0
  186.8440  176.7330  145.9830 C   0  0  0  0  0  0  0  0  0  0  0  0
  184.9900  178.0910  145.0220 O   0  0  0  0  0  0  0  0  0  0  0  0
  186.4300  177.0010  147.4050 C   0  0  0  0  0  2  0  0  0  0  0  0
  188.7160  175.2920  146.9020 C   0  0  0  0  0  2  0  0  0  0  0  0
  187.9810  175.9300  145.7440 C   0  0  0  0  0  0  0  0  0  0  0  0
  187.7130  176.2620  143.3540 C   0  0  0  0  0  3  0  0  0  0  0  0
  189.5800  174.8830  144.1760 N   0  0  0  0  0  0  0  0  0  0  0  0
  190.1750  174.1140  145.2680 C   0  0  0  0  0  2  0  0  0  0  0  0
  186.5920  177.0540  143.5850 C   0  0  0  0  0  3  0  0  0  0  0  0
  191.0730  176.1640  146.5070 C   0  0  1  0  0  3  0  0  0  0  0  0
  191.4090  176.6570  147.9050 C   0  0  0  0  0  1  0  0  0  0  0  0
  192.3600  175.9460  145.7040 C   0  0  0  0  0  2  0  0  0  0  0  0
  193.5890  175.8370  146.5940 C   0  0  0  0  0  2  0  0  0  0  0  0
  194.7230  176.6180  145.9640 C   0  0  0  0  0  2  0  0  0  0  0  0
  194.6320  176.5230  144.4560 C   0  0  0  0  0  2  0  0  0  0  0  0
  195.6930  175.5580  143.9380 C   0  0  1  0  0  3  0  0  0  0  0  0
  195.9900  175.9130  141.1270 C   0  0  0  0  0  2  0  0  0  0  0  0
  195.1070  174.4970  142.9890 C   0  0  2  0  0  3  0  0  0  0  0  0
  196.7870  176.3370  143.1990 C   0  0  0  0  0  2  0  0  0  0  0  0
  194.7930  175.0890  141.6090 C   0  0  2  0  0  3  0  0  0  0  0  0
  193.9700  173.8980  143.5410 O   0  0  0  0  0  1  0  0  0  0  0  0
  196.2660  176.9460  142.0410 O   0  0  0  0  0  0  0  0  0  0  0  0
  194.4590  174.0180  140.6130 C   0  0  0  0  0  0  0  0  0  0  0  0
  193.2850  173.3540  138.5060 C   0  0  0  0  0  2  0  0  0  0  0  0
  194.5410  171.6270  139.7570 C   0  0  0  0  0  2  0  0  0  0  0  0
  194.3120  172.2350  138.3820 C   0  0  0  0  0  2  0  0  0  0  0  0
  195.1540  172.6730  140.6900 C   0  0  0  0  0  2  0  0  0  0  0  0
  193.6760  174.3450  139.5710 C   0  0  0  0  0  3  0  0  0  0  0  0
  190.2790  174.9550  142.8920 C   0  0  0  0  0  2  0  0  0  0  0  0
  191.0310  171.5560  141.1470 C   0  0  0  0  0  2  0  0  0  0  0  0
  190.0950  171.7630  139.9420 C   0  0  1  0  0  3  0  0  0  0  0  0
  189.4680  174.0910  140.6550 C   0  0  0  0  0  2  0  0  0  0  0  0
  191.3080  172.8420  141.9330 C   0  0  0  0  0  2  0  0  0  0  0  0
  190.0530  173.7140  142.0280 C   0  0  1  0  0  3  0  0  0  0  0  0
  189.9950  173.2250  139.5090 C   0  0  0  0  0  2  0  0  0  0  0  0
  190.4700  170.8530  138.7760 C   0  0  0  0  0  2  0  0  0  0  0  0
  189.8440  171.3030  137.4630 C   0  0  0  0  0  1  0  0  0  0  0  0
  1  6  1  0  0  0  0
  2 11  1  0  0  0  0
  3 16  1  6  0  0  0
  3 10  1  0  0  0  0
  4  8  1  0  0  0  0
  4  7  1  0  0  0  0
  6  5  1  0  0  0  0
  7  9  1  0  0  0  0
  8  1  1  0  0  0  0
  9  5  1  0  0  0  0
 11  7  2  0  0  0  0
 11 10  1  0  0  0  0
 12 15  1  0  0  0  0
 12  2  2  0  0  0  0
 13  2  1  0  0  0  0
 13 14  1  0  0  0  0
 14  3  1  0  0  0  0
 15  4  2  0  0  0  0
 16 17  1  1  0  0  0
 18 16  1  0  0  0  0
 18 19  1  0  0  0  0
 20 19  1  0  0  0  0
 21 20  1  0  0  0  0
 22 21  1  6  0  0  0
 23 26  1  0  0  0  0
 23 28  1  0  0  0  0
 24 27  1  1  0  0  0
 24 22  1  0  0  0  0
 25 22  1  0  0  0  0
 26 29  1  6  0  0  0
 26 24  1  0  0  0  0
 28 25  1  0  0  0  0
 29 33  1  0  0  0  0
 30 34  1  0  0  0  0
 31 33  1  0  0  0  0
 32 30  1  0  0  0  0
 32 31  1  0  0  0  0
 34 29  2  0  0  0  0
 35 13  1  0  0  0  0
 36 39  1  0  0  0  0
 37 42  1  6  0  0  0
 37 36  1  0  0  0  0
 38 40  1  0  0  0  0
 39 40  1  0  0  0  0
 40 35  1  6  0  0  0
 41 37  1  0  0  0  0
 41 38  1  0  0  0  0
 43 42  1  0  0  0  0
M  END
>  <MODEL>
2

>  <REMARK>
 VINA RESULT:      -7.5      1.819      5.265
  Name = 
  10 active torsions:
  status: ('A' for Active; 'I' for Inactive)
    1  A    between atoms: C_1  and  N_34
    2  A    between atoms: C_1  and  C_35
    3  A    between atoms: C_2  and  C_6
    4  A    between atoms: C_2  and  C_13
    5  A    between atoms: C_3  and  C_4
    6  A    between atoms: C_3  and  C_12
    7  A    between atoms: C_6  and  C_17
    8  A    between atoms: C_11  and  C_22
    9  A    between atoms: C_12  and  C_17
   10  A    between atoms: C_19  and  C_25
                            x       y       z     vdW  Elec       q    Type
                         _______ _______ _______ _____ _____    ______ ____

>  <TORSDO>
F 10

$$$$
=
 OpenBabel11052420503D

 43 48  0  0  1  0  0  0  0  0999 V2000
  184.2340  178.2010  146.0990 C   0  0  0  0  0  2  0  0  0  0  0  0
  188.5640  175.8040  144.4760 C   0  0  0  0  0  0  0  0  0  0  0  0
  190.2320  175.0290  146.6850 C   0  0  1  0  0  3  0  0  0  0  0  0
  186.2520  177.3720  144.8620 C   0  0  0  0  0  0  0  0  0  0  0  0
  186.2470  178.5360  147.6390 C   0  0  0  0  0  2  0  0  0  0  0  0
  184.8490  179.0090  147.2410 C   0  0  0  0  0  2  0  0  0  0  0  0
  186.9180  176.8070  145.9830 C   0  0  0  0  0  0  0  0  0  0  0  0
  185.0910  178.1570  144.9620 O   0  0  0  0  0  0  0  0  0  0  0  0
  186.4380  177.0460  147.3890 C   0  0  0  0  0  2  0  0  0  0  0  0
  188.7670  175.3750  146.9630 C   0  0  0  0  0  2  0  0  0  0  0  0
  188.0750  176.0230  145.7830 C   0  0  0  0  0  0  0  0  0  0  0  0
  187.9100  176.3910  143.3890 C   0  0  0  0  0  3  0  0  0  0  0  0
  189.7560  175.0220  144.2720 N   0  0  0  0  0  0  0  0  0  0  0  0
  190.3120  174.2430  145.3780 C   0  0  0  0  0  2  0  0  0  0  0  0
  186.7690  177.1650  143.5820 C   0  0  0  0  0  3  0  0  0  0  0  0
  191.1260  176.2830  146.6870 C   0  0  1  0  0  3  0  0  0  0  0  0
  191.3450  176.7920  148.1030 C   0  0  0  0  0  1  0  0  0  0  0  0
  192.4760  176.0770  145.9910 C   0  0  0  0  0  2  0  0  0  0  0  0
  193.6190  176.7620  146.7230 C   0  0  0  0  0  2  0  0  0  0  0  0
  194.8020  176.8810  145.7860 C   0  0  0  0  0  2  0  0  0  0  0  0
  194.5490  176.0610  144.5390 C   0  0  0  0  0  2  0  0  0  0  0  0
  195.6890  175.0690  144.3360 C   0  0  1  0  0  3  0  0  0  0  0  0
  195.1200  173.4360  142.0720 C   0  0  0  0  0  2  0  0  0  0  0  0
  195.2450  173.6120  144.5640 C   0  0  2  0  0  3  0  0  0  0  0  0
  196.2490  175.2030  142.9160 C   0  0  0  0  0  2  0  0  0  0  0  0
  194.4140  173.0880  143.3850 C   0  0  2  0  0  3  0  0  0  0  0  0
  194.5410  173.4800  145.7640 O   0  0  0  0  0  1  0  0  0  0  0  0
  195.2810  174.8290  141.9640 O   0  0  0  0  0  0  0  0  0  0  0  0
  194.1910  171.6080  143.4840 C   0  0  0  0  0  0  0  0  0  0  0  0
  195.1640  169.3090  143.6430 C   0  0  0  0  0  2  0  0  0  0  0  0
  192.7020  169.5510  143.5700 C   0  0  0  0  0  2  0  0  0  0  0  0
  193.8570  168.8880  144.3050 C   0  0  0  0  0  2  0  0  0  0  0  0
  192.7930  171.0700  143.7220 C   0  0  0  0  0  2  0  0  0  0  0  0
  195.2690  170.8070  143.5330 C   0  0  0  0  0  3  0  0  0  0  0  0
  190.5110  175.1240  143.0220 C   0  0  0  0  0  2  0  0  0  0  0  0
  191.8450  172.5020  140.4710 C   0  0  0  0  0  2  0  0  0  0  0  0
  190.6540  171.5310  140.5730 C   0  0  1  0  0  3  0  0  0  0  0  0
  189.3850  173.0370  142.1350 C   0  0  0  0  0  2  0  0  0  0  0  0
  191.5610  173.8820  141.0730 C   0  0  0  0  0  2  0  0  0  0  0  0
  190.7220  173.7670  142.3490 C   0  0  1  0  0  3  0  0  0  0  0  0
  189.3250  172.2420  140.8300 C   0  0  0  0  0  2  0  0  0  0  0  0
  190.5750  170.6070  139.3620 C   0  0  0  0  0  2  0  0  0  0  0  0
  189.6940  171.1710  138.2570 C   0  0  0  0  0  1  0  0  0  0  0  0
  1  6  1  0  0  0  0
  2 11  1  0  0  0  0
  3 16  1  6  0  0  0
  3 10  1  0  0  0  0
  4  8  1  0  0  0  0
  4  7  1  0  0  0  0
  6  5  1  0  0  0  0
  7  9  1  0  0  0  0
  8  1  1  0  0  0  0
  9  5  1  0  0  0  0
 11  7  2  0  0  0  0
 11 10  1  0  0  0  0
 12 15  1  0  0  0  0
 12  2  2  0  0  0  0
 13  2  1  0  0  0  0
 13 14  1  0  0  0  0
 14  3  1  0  0  0  0
 15  4  2  0  0  0  0
 16 17  1  1  0  0  0
 18 16  1  0  0  0  0
 18 19  1  0  0  0  0
 20 19  1  0  0  0  0
 21 20  1  0  0  0  0
 22 21  1  6  0  0  0
 22 24  1  0  0  0  0
 23 26  1  0  0  0  0
 24 27  1  1  0  0  0
 25 22  1  0  0  0  0
 26 29  1  1  0  0  0
 26 24  1  0  0  0  0
 28 23  1  0  0  0  0
 28 25  1  0  0  0  0
 29 34  2  0  0  0  0
 29 33  1  0  0  0  0
 30 32  1  0  0  0  0
 31 33  1  0  0  0  0
 31 32  1  0  0  0  0
 34 30  1  0  0  0  0
 35 13  1  0  0  0  0
 36 37  1  0  0  0  0
 36 39  1  0  0  0  0
 37 42  1  6  0  0  0
 37 41  1  0  0  0  0
 38 40  1  0  0  0  0
 39 40  1  0  0  0  0
 40 35  1  6  0  0  0
 41 38  1  0  0  0  0
 43 42  1  0  0  0  0
M  END
>  <MODEL>
3

>  <REMARK>
 VINA RESULT:      -7.4      1.956      5.393
  Name = 
  10 active torsions:
  status: ('A' for Active; 'I' for Inactive)
    1  A    between atoms: C_1  and  N_34
    2  A    between atoms: C_1  and  C_35
    3  A    between atoms: C_2  and  C_6
    4  A    between atoms: C_2  and  C_13
    5  A    between atoms: C_3  and  C_4
    6  A    between atoms: C_3  and  C_12
    7  A    between atoms: C_6  and  C_17
    8  A    between atoms: C_11  and  C_22
    9  A    between atoms: C_12  and  C_17
   10  A    between atoms: C_19  and  C_25
                            x       y       z     vdW  Elec       q    Type
                         _______ _______ _______ _____ _____    ______ ____

>  <TORSDO>
F 10

$$$$
=
 OpenBabel11052420503D

 43 48  0  0  1  0  0  0  0  0999 V2000
  196.2690  176.2290  143.7560 C   0  0  0  0  0  2  0  0  0  0  0  0
  191.5370  175.2080  145.6810 C   0  0  0  0  0  0  0  0  0  0  0  0
  190.0010  173.5670  143.8900 C   0  0  1  0  0  3  0  0  0  0  0  0
  194.0540  176.2380  144.9340 C   0  0  0  0  0  0  0  0  0  0  0  0
  194.4680  175.9020  141.9700 C   0  0  0  0  0  2  0  0  0  0  0  0
  195.8710  176.4170  142.2930 C   0  0  0  0  0  2  0  0  0  0  0  0
  193.4320  175.2440  144.1320 C   0  0  0  0  0  0  0  0  0  0  0  0
  195.3090  176.7990  144.6420 O   0  0  0  0  0  0  0  0  0  0  0  0
  194.0690  174.7370  142.8660 C   0  0  0  0  0  2  0  0  0  0  0  0
  191.5180  173.6390  143.6950 C   0  0  0  0  0  2  0  0  0  0  0  0
  192.1720  174.7330  144.5110 C   0  0  0  0  0  0  0  0  0  0  0  0
  192.1540  176.2070  146.4410 C   0  0  0  0  0  3  0  0  0  0  0  0
  190.2420  174.7030  146.0570 N   0  0  0  0  0  0  0  0  0  0  0  0
  189.6990  173.5230  145.3870 C   0  0  0  0  0  2  0  0  0  0  0  0
  193.3960  176.7140  146.0700 C   0  0  0  0  0  3  0  0  0  0  0  0
  189.2760  174.7170  143.1650 C   0  0  1  0  0  3  0  0  0  0  0  0
  190.2610  175.5760  142.3880 C   0  0  0  0  0  1  0  0  0  0  0  0
  188.1480  174.2460  142.2400 C   0  0  0  0  0  2  0  0  0  0  0  0
  188.2910  172.7840  141.8470 C   0  0  0  0  0  2  0  0  0  0  0  0
  188.9070  172.7040  140.4660 C   0  0  0  0  0  2  0  0  0  0  0  0
  190.2490  172.0090  140.5450 C   0  0  0  0  0  2  0  0  0  0  0  0
  190.9720  172.1340  139.2080 C   0  0  1  0  0  3  0  0  0  0  0  0
  193.4620  170.7600  139.3560 C   0  0  0  0  0  2  0  0  0  0  0  0
  192.2680  172.9570  139.3180 C   0  0  2  0  0  3  0  0  0  0  0  0
  191.3090  170.7410  138.6680 C   0  0  0  0  0  2  0  0  0  0  0  0
  193.3890  172.1520  139.9890 C   0  0  2  0  0  3  0  0  0  0  0  0
  192.0480  174.1600  139.9960 O   0  0  0  0  0  1  0  0  0  0  0  0
  192.2330  170.0930  139.5100 O   0  0  0  0  0  0  0  0  0  0  0  0
  194.7120  172.8500  139.8760 C   0  0  0  0  0  0  0  0  0  0  0  0
  197.0800  173.0740  140.6520 C   0  0  0  0  0  2  0  0  0  0  0  0
  196.2550  174.6170  138.9020 C   0  0  0  0  0  2  0  0  0  0  0  0
  197.3860  173.6750  139.2860 C   0  0  0  0  0  2  0  0  0  0  0  0
  194.9540  173.8290  138.7440 C   0  0  0  0  0  2  0  0  0  0  0  0
  195.7080  172.4520  140.6860 C   0  0  0  0  0  3  0  0  0  0  0  0
  189.3920  175.4490  146.9870 C   0  0  0  0  0  2  0  0  0  0  0  0
  187.4070  177.9110  144.7130 C   0  0  0  0  0  2  0  0  0  0  0  0
  186.0900  177.8680  145.5100 C   0  0  1  0  0  3  0  0  0  0  0  0
  187.0590  176.3840  147.2940 C   0  0  0  0  0  2  0  0  0  0  0  0
  188.6030  177.3320  145.4790 C   0  0  0  0  0  2  0  0  0  0  0  0
  188.1950  176.1030  146.2950 C   0  0  1  0  0  3  0  0  0  0  0  0
  186.3070  177.6870  147.0130 C   0  0  0  0  0  2  0  0  0  0  0  0
  185.2100  179.0770  145.2090 C   0  0  0  0  0  2  0  0  0  0  0  0
  185.5690  179.7430  143.8880 C   0  0  0  0  0  1  0  0  0  0  0  0
  1  8  1  0  0  0  0
  2 13  1  0  0  0  0
  2 12  1  0  0  0  0
  3 16  1  1  0  0  0
  3 14  1  0  0  0  0
  4 15  1  0  0  0  0
  5  6  1  0  0  0  0
  5  9  1  0  0  0  0
  6  1  1  0  0  0  0
  7 11  1  0  0  0  0
  7  4  2  0  0  0  0
  8  4  1  0  0  0  0
  9  7  1  0  0  0  0
 10  3  1  0  0  0  0
 10 11  1  0  0  0  0
 11  2  2  0  0  0  0
 13 35  1  0  0  0  0
 14 13  1  0  0  0  0
 15 12  2  0  0  0  0
 16 17  1  6  0  0  0
 18 16  1  0  0  0  0
 19 18  1  0  0  0  0
 20 21  1  0  0  0  0
 20 19  1  0  0  0  0
 22 24  1  0  0  0  0
 22 21  1  1  0  0  0
 23 28  1  0  0  0  0
 23 26  1  0  0  0  0
 24 26  1  0  0  0  0
 24 27  1  1  0  0  0
 25 22  1  0  0  0  0
 25 28  1  0  0  0  0
 26 29  1  6  0  0  0
 29 34  2  0  0  0  0
 30 34  1  0  0  0  0
 31 32  1  0  0  0  0
 32 30  1  0  0  0  0
 33 31  1  0  0  0  0
 33 29  1  0  0  0  0
 36 39  1  0  0  0  0
 36 37  1  0  0  0  0
 37 42  1  1  0  0  0
 37 41  1  0  0  0  0
 39 40  1  0  0  0  0
 40 35  1  1  0  0  0
 40 38  1  0  0  0  0
 41 38  1  0  0  0  0
 43 42  1  0  0  0  0
M  END
>  <MODEL>
4

>  <REMARK>
 VINA RESULT:      -7.2      2.221      6.103
  Name = 
  10 active torsions:
  status: ('A' for Active; 'I' for Inactive)
    1  A    between atoms: C_1  and  N_34
    2  A    between atoms: C_1  and  C_35
    3  A    between atoms: C_2  and  C_6
    4  A    between atoms: C_2  and  C_13
    5  A    between atoms: C_3  and  C_4
    6  A    between atoms: C_3  and  C_12
    7  A    between atoms: C_6  and  C_17
    8  A    between atoms: C_11  and  C_22
    9  A    between atoms: C_12  and  C_17
   10  A    between atoms: C_19  and  C_25
                            x       y       z     vdW  Elec       q    Type
                         _______ _______ _______ _____ _____    ______ ____

>  <TORSDO>
F 10

$$$$
=
 OpenBabel11052420503D

 43 48  0  0  1  0  0  0  0  0999 V2000
  189.1690  174.3310  135.4950 C   0  0  0  0  0  2  0  0  0  0  0  0
  191.3910  172.5640  139.8630 C   0  0  0  0  0  0  0  0  0  0  0  0
  189.4570  172.2010  141.9580 C   0  0  1  0  0  3  0  0  0  0  0  0
  190.6880  173.7630  137.4080 C   0  0  0  0  0  0  0  0  0  0  0  0
  187.9890  175.0770  137.6370 C   0  0  0  0  0  2  0  0  0  0  0  0
  188.1710  175.2940  136.1350 C   0  0  0  0  0  2  0  0  0  0  0  0
  189.6720  173.3800  138.3240 C   0  0  0  0  0  0  0  0  0  0  0  0
  190.4280  174.3560  136.1620 O   0  0  0  0  0  0  0  0  0  0  0  0
  188.2150  173.6240  138.0340 C   0  0  0  0  0  2  0  0  0  0  0  0
  188.9570  172.3240  140.5160 C   0  0  0  0  0  2  0  0  0  0  0  0
  190.0300  172.7810  139.5520 C   0  0  0  0  0  0  0  0  0  0  0  0
  192.3770  172.9720  138.9590 C   0  0  0  0  0  3  0  0  0  0  0  0
  191.7590  171.9720  141.1230 N   0  0  0  0  0  0  0  0  0  0  0  0
  190.7330  171.3600  141.9660 C   0  0  0  0  0  2  0  0  0  0  0  0
  192.0280  173.5630  137.7490 C   0  0  0  0  0  3  0  0  0  0  0  0
  189.6430  173.5800  142.6190 C   0  0  1  0  0  3  0  0  0  0  0  0
  188.8320  174.6430  141.8950 C   0  0  0  0  0  1  0  0  0  0  0  0
  189.3100  173.5950  144.1150 C   0  0  0  0  0  2  0  0  0  0  0  0
  190.5370  173.3730  144.9860 C   0  0  0  0  0  2  0  0  0  0  0  0
  190.8190  174.6390  145.7690 C   0  0  0  0  0  2  0  0  0  0  0  0
  190.7210  175.8380  144.8510 C   0  0  0  0  0  2  0  0  0  0  0  0
  190.1260  177.0190  145.6120 C   0  0  1  0  0  3  0  0  0  0  0  0
  187.4130  176.4440  146.2630 C   0  0  0  0  0  2  0  0  0  0  0  0
  189.0080  177.7210  144.8200 C   0  0  2  0  0  3  0  0  0  0  0  0
  189.5630  176.5420  146.9550 C   0  0  0  0  0  2  0  0  0  0  0  0
  187.7110  176.9010  144.8330 C   0  0  2  0  0  3  0  0  0  0  0  0
  189.4100  177.9930  143.5090 O   0  0  0  0  0  1  0  0  0  0  0  0
  188.4780  175.6670  146.7540 O   0  0  0  0  0  0  0  0  0  0  0  0
  186.5570  177.6860  144.2820 C   0  0  0  0  0  0  0  0  0  0  0  0
  184.7580  177.9110  142.5590 C   0  0  0  0  0  2  0  0  0  0  0  0
  184.9930  179.6880  144.2660 C   0  0  0  0  0  2  0  0  0  0  0  0
  184.0040  178.7620  143.5730 C   0  0  0  0  0  2  0  0  0  0  0  0
  186.0050  178.8630  145.0620 C   0  0  0  0  0  2  0  0  0  0  0  0
  185.9330  177.2120  143.1910 C   0  0  0  0  0  3  0  0  0  0  0  0
  193.1180  172.1180  141.6470 C   0  0  0  0  0  2  0  0  0  0  0  0
  193.7600  175.6430  143.1750 C   0  0  0  0  0  2  0  0  0  0  0  0
  194.1690  175.1570  144.5780 C   0  0  1  0  0  3  0  0  0  0  0  0
  194.0200  172.7320  143.9320 C   0  0  0  0  0  2  0  0  0  0  0  0
  193.7550  174.5290  142.1210 C   0  0  0  0  0  2  0  0  0  0  0  0
  193.2260  173.2170  142.7060 C   0  0  1  0  0  3  0  0  0  0  0  0
  194.9020  173.8160  144.5550 C   0  0  0  0  0  2  0  0  0  0  0  0
  194.9610  176.2210  145.3330 C   0  0  0  0  0  2  0  0  0  0  0  0
  194.1880  176.7930  146.5130 C   0  0  0  0  0  1  0  0  0  0  0  0
  1  6  1  0  0  0  0
  1  8  1  0  0  0  0
  2 13  1  0  0  0  0
  3 14  1  0  0  0  0
  3 16  1  6  0  0  0
  4 15  2  0  0  0  0
  4  7  1  0  0  0  0
  5  9  1  0  0  0  0
  6  5  1  0  0  0  0
  7 11  2  0  0  0  0
  8  4  1  0  0  0  0
  9  7  1  0  0  0  0
 10  3  1  0  0  0  0
 11  2  1  0  0  0  0
 11 10  1  0  0  0  0
 12  2  2  0  0  0  0
 13 35  1  0  0  0  0
 13 14  1  0  0  0  0
 15 12  1  0  0  0  0
 16 17  1  6  0  0  0
 16 18  1  0  0  0  0
 18 19  1  0  0  0  0
 19 20  1  0  0  0  0
 21 20  1  0  0  0  0
 22 21  1  6  0  0  0
 22 25  1  0  0  0  0
 23 28  1  0  0  0  0
 24 27  1  6  0  0  0
 24 26  1  0  0  0  0
 24 22  1  0  0  0  0
 26 29  1  1  0  0  0
 26 23  1  0  0  0  0
 28 25  1  0  0  0  0
 29 33  1  0  0  0  0
 30 34  1  0  0  0  0
 30 32  1  0  0  0  0
 31 33  1  0  0  0  0
 32 31  1  0  0  0  0
 34 29  2  0  0  0  0
 36 37  1  0  0  0  0
 37 42  1  6  0  0  0
 38 41  1  0  0  0  0
 39 40  1  0  0  0  0
 39 36  1  0  0  0  0
 40 35  1  6  0  0  0
 40 38  1  0  0  0  0
 41 37  1  0  0  0  0
 42 43  1  0  0  0  0
M  END
>  <MODEL>
5

>  <REMARK>
 VINA RESULT:      -7.1      2.269      7.913
  Name = 
  10 active torsions:
  status: ('A' for Active; 'I' for Inactive)
    1  A    between atoms: C_1  and  N_34
    2  A    between atoms: C_1  and  C_35
    3  A    between atoms: C_2  and  C_6
    4  A    between atoms: C_2  and  C_13
    5  A    between atoms: C_3  and  C_4
    6  A    between atoms: C_3  and  C_12
    7  A    between atoms: C_6  and  C_17
    8  A    between atoms: C_11  and  C_22
    9  A    between atoms: C_12  and  C_17
   10  A    between atoms: C_19  and  C_25
                            x       y       z     vdW  Elec       q    Type
                         _______ _______ _______ _____ _____    ______ ____

>  <TORSDO>
F 10

$$$$
=
 OpenBabel11052420503D

 43 48  0  0  1  0  0  0  0  0999 V2000
  185.1930  178.8220  147.3310 C   0  0  0  0  0  2  0  0  0  0  0  0
  189.2540  176.4440  145.0990 C   0  0  0  0  0  0  0  0  0  0  0  0
  189.3190  176.9060  142.2620 C   0  0  1  0  0  3  0  0  0  0  0  0
  187.0830  177.3080  146.6770 C   0  0  0  0  0  0  0  0  0  0  0  0
  184.7760  178.1040  144.9130 C   0  0  0  0  0  2  0  0  0  0  0  0
  184.1610  178.5620  146.2350 C   0  0  0  0  0  2  0  0  0  0  0  0
  187.2020  177.7560  145.3340 C   0  0  0  0  0  0  0  0  0  0  0  0
  186.0400  177.6950  147.5360 O   0  0  0  0  0  0  0  0  0  0  0  0
  186.1780  178.6660  144.7120 C   0  0  0  0  0  2  0  0  0  0  0  0
  188.4580  177.8260  143.1330 C   0  0  0  0  0  2  0  0  0  0  0  0
  188.2910  177.3200  144.5490 C   0  0  0  0  0  0  0  0  0  0  0  0
  189.1040  175.9930  146.4140 C   0  0  0  0  0  3  0  0  0  0  0  0
  190.3540  175.9810  144.2930 N   0  0  0  0  0  0  0  0  0  0  0  0
  190.6230  176.6100  143.0010 C   0  0  0  0  0  2  0  0  0  0  0  0
  188.0310  176.4210  147.1910 C   0  0  0  0  0  3  0  0  0  0  0  0
  188.5590  175.6310  141.8520 C   0  0  1  0  0  3  0  0  0  0  0  0
  187.3820  175.9670  140.9500 C   0  0  0  0  0  1  0  0  0  0  0  0
  189.4460  174.5750  141.1850 C   0  0  0  0  0  2  0  0  0  0  0  0
  188.9310  174.1630  139.8140 C   0  0  0  0  0  2  0  0  0  0  0  0
  189.0540  172.6610  139.6740 C   0  0  0  0  0  2  0  0  0  0  0  0
  189.8420  172.1020  140.8390 C   0  0  0  0  0  2  0  0  0  0  0  0
  191.0850  171.3860  140.3210 C   0  0  1  0  0  3  0  0  0  0  0  0
  191.8370  169.3560  142.1730 C   0  0  0  0  0  2  0  0  0  0  0  0
  192.3130  171.6190  141.2210 C   0  0  2  0  0  3  0  0  0  0  0  0
  190.8160  169.8810  140.2250 C   0  0  0  0  0  2  0  0  0  0  0  0
  192.2250  170.7960  142.5140 C   0  0  2  0  0  3  0  0  0  0  0  0
  192.4790  172.9770  141.5080 O   0  0  0  0  0  1  0  0  0  0  0  0
  190.5990  169.3340  141.5050 O   0  0  0  0  0  0  0  0  0  0  0  0
  193.5190  170.8250  143.2730 C   0  0  0  0  0  0  0  0  0  0  0  0
  194.7000  170.8010  145.4780 C   0  0  0  0  0  2  0  0  0  0  0  0
  196.0510  170.9730  143.4120 C   0  0  0  0  0  2  0  0  0  0  0  0
  195.9060  170.2380  144.7350 C   0  0  0  0  0  2  0  0  0  0  0  0
  194.8340  170.6980  142.5280 C   0  0  0  0  0  2  0  0  0  0  0  0
  193.4660  170.7880  144.6150 C   0  0  0  0  0  3  0  0  0  0  0  0
  191.1060  174.7830  144.6720 C   0  0  0  0  0  2  0  0  0  0  0  0
  194.8630  174.7710  143.6490 C   0  0  0  0  0  2  0  0  0  0  0  0
  195.4370  174.7690  145.0780 C   0  0  1  0  0  3  0  0  0  0  0  0
  193.1630  174.6160  146.1380 C   0  0  0  0  0  2  0  0  0  0  0  0
  193.3720  174.4200  143.5890 C   0  0  0  0  0  2  0  0  0  0  0  0
  192.6110  175.0380  144.7650 C   0  0  1  0  0  3  0  0  0  0  0  0
  194.5630  174.0030  146.0710 C   0  0  0  0  0  2  0  0  0  0  0  0
  196.8820  174.2790  145.1030 C   0  0  0  0  0  2  0  0  0  0  0  0
  197.1870  173.4300  146.3290 C   0  0  0  0  0  1  0  0  0  0  0  0
  1  8  1  0  0  0  0
  2 12  1  0  0  0  0
  3 16  1  1  0  0  0
  3 14  1  0  0  0  0
  3 10  1  0  0  0  0
  4 15  1  0  0  0  0
  4  8  1  0  0  0  0
  5  6  1  0  0  0  0
  6  1  1  0  0  0  0
  7  4  2  0  0  0  0
  9  5  1  0  0  0  0
  9  7  1  0  0  0  0
 10 11  1  0  0  0  0
 11  2  2  0  0  0  0
 11  7  1  0  0  0  0
 12 15  2  0  0  0  0
 13 35  1  0  0  0  0
 13  2  1  0  0  0  0
 14 13  1  0  0  0  0
 16 17  1  6  0  0  0
 18 16  1  0  0  0  0
 19 18  1  0  0  0  0
 20 19  1  0  0  0  0
 20 21  1  0  0  0  0
 22 21  1  1  0  0  0
 22 24  1  0  0  0  0
 23 26  1  0  0  0  0
 24 27  1  1  0  0  0
 24 26  1  0  0  0  0
 25 22  1  0  0  0  0
 25 28  1  0  0  0  0
 26 29  1  6  0  0  0
 28 23  1  0  0  0  0
 29 34  2  0  0  0  0
 31 32  1  0  0  0  0
 32 30  1  0  0  0  0
 33 29  1  0  0  0  0
 33 31  1  0  0  0  0
 34 30  1  0  0  0  0
 36 37  1  0  0  0  0
 37 42  1  6  0  0  0
 37 41  1  0  0  0  0
 39 36  1  0  0  0  0
 39 40  1  0  0  0  0
 40 35  1  1  0  0  0
 40 38  1  0  0  0  0
 41 38  1  0  0  0  0
 42 43  1  0  0  0  0
M  END
>  <MODEL>
6

>  <REMARK>
 VINA RESULT:      -7.0      1.349      2.202
  Name = 
  10 active torsions:
  status: ('A' for Active; 'I' for Inactive)
    1  A    between atoms: C_1  and  N_34
    2  A    between atoms: C_1  and  C_35
    3  A    between atoms: C_2  and  C_6
    4  A    between atoms: C_2  and  C_13
    5  A    between atoms: C_3  and  C_4
    6  A    between atoms: C_3  and  C_12
    7  A    between atoms: C_6  and  C_17
    8  A    between atoms: C_11  and  C_22
    9  A    between atoms: C_12  and  C_17
   10  A    between atoms: C_19  and  C_25
                            x       y       z     vdW  Elec       q    Type
                         _______ _______ _______ _____ _____    ______ ____

>  <TORSDO>
F 10

$$$$
=
 OpenBabel11052420503D

 43 48  0  0  1  0  0  0  0  0999 V2000
  196.9150  173.9490  145.2840 C   0  0  0  0  0  2  0  0  0  0  0  0
  191.9160  175.1640  146.1030 C   0  0  0  0  0  0  0  0  0  0  0  0
  190.1600  173.5210  144.5300 C   0  0  1  0  0  3  0  0  0  0  0  0
  194.7160  175.0490  145.7800 C   0  0  0  0  0  0  0  0  0  0  0  0
  195.4020  173.5460  143.2620 C   0  0  0  0  0  2  0  0  0  0  0  0
  196.8330  173.7000  143.7790 C   0  0  0  0  0  2  0  0  0  0  0  0
  193.8930  174.0650  145.1690 C   0  0  0  0  0  0  0  0  0  0  0  0
  196.1170  175.0620  145.6780 O   0  0  0  0  0  0  0  0  0  0  0  0
  194.4740  172.9650  144.3200 C   0  0  0  0  0  2  0  0  0  0  0  0
  191.6060  173.0600  144.7300 C   0  0  0  0  0  2  0  0  0  0  0  0
  192.4920  174.1280  145.3340 C   0  0  0  0  0  0  0  0  0  0  0  0
  192.7420  176.1380  146.6740 C   0  0  0  0  0  3  0  0  0  0  0  0
  190.4870  175.2430  146.2550 N   0  0  0  0  0  0  0  0  0  0  0  0
  189.6490  174.1190  145.8400 C   0  0  0  0  0  2  0  0  0  0  0  0
  194.1230  176.0790  146.5120 C   0  0  0  0  0  3  0  0  0  0  0  0
  190.0260  174.4860  143.3370 C   0  0  1  0  0  3  0  0  0  0  0  0
  191.3470  174.6190  142.5960 C   0  0  0  0  0  1  0  0  0  0  0  0
  188.9120  174.1030  142.3580 C   0  0  0  0  0  2  0  0  0  0  0  0
  188.6140  172.6110  142.3700 C   0  0  0  0  0  2  0  0  0  0  0  0
  189.4850  171.9270  141.3370 C   0  0  0  0  0  2  0  0  0  0  0  0
  190.3740  170.9070  142.0140 C   0  0  0  0  0  2  0  0  0  0  0  0
  191.2580  170.2250  140.9750 C   0  0  1  0  0  3  0  0  0  0  0  0
  192.9460  168.3330  142.2730 C   0  0  0  0  0  2  0  0  0  0  0  0
  192.7480  170.5640  141.1600 C   0  0  2  0  0  3  0  0  0  0  0  0
  191.0780  168.7060  141.0550 C   0  0  0  0  0  2  0  0  0  0  0  0
  193.3520  169.8070  142.3510 C   0  0  2  0  0  3  0  0  0  0  0  0
  192.9400  171.9420  141.3000 O   0  0  0  0  0  1  0  0  0  0  0  0
  191.5440  168.2160  142.2910 O   0  0  0  0  0  0  0  0  0  0  0  0
  194.8460  169.9380  142.3850 C   0  0  0  0  0  0  0  0  0  0  0  0
  196.9790  169.7060  143.6720 C   0  0  0  0  0  2  0  0  0  0  0  0
  197.0830  170.5520  141.3480 C   0  0  0  0  0  2  0  0  0  0  0  0
  197.6800  169.5520  142.3270 C   0  0  0  0  0  2  0  0  0  0  0  0
  195.6090  170.2250  141.1060 C   0  0  0  0  0  2  0  0  0  0  0  0
  195.4820  169.6220  143.5260 C   0  0  0  0  0  3  0  0  0  0  0  0
  189.8480  176.4940  146.6680 C   0  0  0  0  0  2  0  0  0  0  0  0
  187.4290  177.8320  143.9240 C   0  0  0  0  0  2  0  0  0  0  0  0
  186.1840  177.9460  144.8230 C   0  0  1  0  0  3  0  0  0  0  0  0
  187.4450  177.2610  146.8880 C   0  0  0  0  0  2  0  0  0  0  0  0
  188.7350  177.6640  144.7080 C   0  0  0  0  0  2  0  0  0  0  0  0
  188.5360  176.7580  145.9270 C   0  0  1  0  0  3  0  0  0  0  0  0
  186.5230  178.3130  146.2680 C   0  0  0  0  0  2  0  0  0  0  0  0
  185.1450  178.8920  144.2290 C   0  0  0  0  0  2  0  0  0  0  0  0
  184.4390  178.2950  143.0200 C   0  0  0  0  0  1  0  0  0  0  0  0
  1  8  1  0  0  0  0
  2 13  1  0  0  0  0
  2 12  1  0  0  0  0
  3 16  1  6  0  0  0
  3 10  1  0  0  0  0
  3 14  1  0  0  0  0
  4 15  1  0  0  0  0
  5  6  1  0  0  0  0
  5  9  1  0  0  0  0
  6  1  1  0  0  0  0
  7 11  1  0  0  0  0
  7  4  2  0  0  0  0
  8  4  1  0  0  0  0
  9  7  1  0  0  0  0
 10 11  1  0  0  0  0
 11  2  2  0  0  0  0
 13 35  1  0  0  0  0
 14 13  1  0  0  0  0
 15 12  2  0  0  0  0
 16 17  1  6  0  0  0
 18 19  1  0  0  0  0
 18 16  1  0  0  0  0
 20 21  1  0  0  0  0
 20 19  1  0  0  0  0
 22 25  1  0  0  0  0
 22 24  1  0  0  0  0
 22 21  1  1  0  0  0
 23 28  1  0  0  0  0
 23 26  1  0  0  0  0
 24 27  1  1  0  0  0
 24 26  1  0  0  0  0
 25 28  1  0  0  0  0
 26 29  1  6  0  0  0
 29 34  2  0  0  0  0
 31 32  1  0  0  0  0
 32 30  1  0  0  0  0
 33 31  1  0  0  0  0
 33 29  1  0  0  0  0
 34 30  1  0  0  0  0
 36 39  1  0  0  0  0
 36 37  1  0  0  0  0
 37 42  1  6  0  0  0
 37 41  1  0  0  0  0
 39 40  1  0  0  0  0
 40 35  1  1  0  0  0
 40 38  1  0  0  0  0
 41 38  1  0  0  0  0
 43 42  1  0  0  0  0
M  END
>  <MODEL>
7

>  <REMARK>
 VINA RESULT:      -6.7      2.378      6.731
  Name = 
  10 active torsions:
  status: ('A' for Active; 'I' for Inactive)
    1  A    between atoms: C_1  and  N_34
    2  A    between atoms: C_1  and  C_35
    3  A    between atoms: C_2  and  C_6
    4  A    between atoms: C_2  and  C_13
    5  A    between atoms: C_3  and  C_4
    6  A    between atoms: C_3  and  C_12
    7  A    between atoms: C_6  and  C_17
    8  A    between atoms: C_11  and  C_22
    9  A    between atoms: C_12  and  C_17
   10  A    between atoms: C_19  and  C_25
                            x       y       z     vdW  Elec       q    Type
                         _______ _______ _______ _____ _____    ______ ____

>  <TORSDO>
F 10

$$$$
=
 OpenBabel11052420503D

 43 48  0  0  1  0  0  0  0  0999 V2000
  184.6680  179.1450  145.3420 C   0  0  0  0  0  2  0  0  0  0  0  0
  189.5530  177.3390  145.4080 C   0  0  0  0  0  0  0  0  0  0  0  0
  190.5770  176.9660  142.7480 C   0  0  1  0  0  3  0  0  0  0  0  0
  186.8590  178.0390  145.8600 C   0  0  0  0  0  0  0  0  0  0  0  0
  185.2620  177.6810  143.3320 C   0  0  0  0  0  2  0  0  0  0  0  0
  184.1510  178.3280  144.1590 C   0  0  0  0  0  2  0  0  0  0  0  0
  187.3930  178.0970  144.5440 C   0  0  0  0  0  0  0  0  0  0  0  0
  185.5320  178.3790  146.1760 O   0  0  0  0  0  0  0  0  0  0  0  0
  186.5470  178.4980  143.3660 C   0  0  0  0  0  2  0  0  0  0  0  0
  189.3390  177.8480  142.9380 C   0  0  0  0  0  2  0  0  0  0  0  0
  188.7420  177.7450  144.3250 C   0  0  0  0  0  0  0  0  0  0  0  0
  189.0010  177.2630  146.6910 C   0  0  0  0  0  3  0  0  0  0  0  0
  190.9240  176.9590  145.1830 N   0  0  0  0  0  0  0  0  0  0  0  0
  191.5520  177.2370  143.8930 C   0  0  0  0  0  2  0  0  0  0  0  0
  187.6710  177.6090  146.9110 C   0  0  0  0  0  3  0  0  0  0  0  0
  190.2050  175.4780  142.6160 C   0  0  1  0  0  3  0  0  0  0  0  0
  188.9940  175.2990  141.7140 C   0  0  0  0  0  1  0  0  0  0  0  0
  191.3590  174.5970  142.1260 C   0  0  0  0  0  2  0  0  0  0  0  0
  191.1850  173.1380  142.5190 C   0  0  0  0  0  2  0  0  0  0  0  0
  192.2780  172.3190  141.8660 C   0  0  0  0  0  2  0  0  0  0  0  0
  193.4130  173.2280  141.4440 C   0  0  0  0  0  2  0  0  0  0  0  0
  194.5700  172.3910  140.9100 C   0  0  1  0  0  3  0  0  0  0  0  0
  196.7970  174.0900  140.3950 C   0  0  0  0  0  2  0  0  0  0  0  0
  194.9190  172.7350  139.4510 C   0  0  2  0  0  3  0  0  0  0  0  0
  195.8110  172.6040  141.7830 C   0  0  0  0  0  2  0  0  0  0  0  0
  195.6750  174.0670  139.3540 C   0  0  2  0  0  3  0  0  0  0  0  0
  193.7740  172.7560  138.6490 O   0  0  0  0  0  1  0  0  0  0  0  0
  196.2630  173.9340  141.6860 O   0  0  0  0  0  0  0  0  0  0  0  0
  196.2310  174.2860  137.9780 C   0  0  0  0  0  0  0  0  0  0  0  0
  197.8160  173.5730  136.1790 C   0  0  0  0  0  2  0  0  0  0  0  0
  196.3910  175.5580  135.7840 C   0  0  0  0  0  2  0  0  0  0  0  0
  196.8680  174.2410  135.1900 C   0  0  0  0  0  2  0  0  0  0  0  0
  195.5750  175.2900  137.0500 C   0  0  0  0  0  2  0  0  0  0  0  0
  197.1930  173.4540  137.5450 C   0  0  0  0  0  3  0  0  0  0  0  0
  191.6470  176.1530  146.1690 C   0  0  0  0  0  2  0  0  0  0  0  0
  194.0450  173.2820  145.0870 C   0  0  0  0  0  2  0  0  0  0  0  0
  195.3530  174.0850  145.2110 C   0  0  1  0  0  3  0  0  0  0  0  0
  194.1770  176.1230  146.0990 C   0  0  0  0  0  2  0  0  0  0  0  0
  192.8490  173.9530  145.7720 C   0  0  0  0  0  2  0  0  0  0  0  0
  192.8830  175.4720  145.5800 C   0  0  1  0  0  3  0  0  0  0  0  0
  195.3120  175.1230  146.3330 C   0  0  0  0  0  2  0  0  0  0  0  0
  196.5670  173.1690  145.3340 C   0  0  0  0  0  2  0  0  0  0  0  0
  197.8470  173.8320  144.8450 C   0  0  0  0  0  1  0  0  0  0  0  0
  1  8  1  0  0  0  0
  2 12  1  0  0  0  0
  3 16  1  1  0  0  0
  3 10  1  0  0  0  0
  3 14  1  0  0  0  0
  4  8  1  0  0  0  0
  4 15  1  0  0  0  0
  5  9  1  0  0  0  0
  5  6  1  0  0  0  0
  6  1  1  0  0  0  0
  7  4  2  0  0  0  0
  9  7  1  0  0  0  0
 10 11  1  0  0  0  0
 11  7  1  0  0  0  0
 11  2  2  0  0  0  0
 12 15  2  0  0  0  0
 13  2  1  0  0  0  0
 13 35  1  0  0  0  0
 14 13  1  0  0  0  0
 16 17  1  6  0  0  0
 18 19  1  0  0  0  0
 18 16  1  0  0  0  0
 20 19  1  0  0  0  0
 21 20  1  0  0  0  0
 22 21  1  1  0  0  0
 22 25  1  0  0  0  0
 23 28  1  0  0  0  0
 24 27  1  6  0  0  0
 24 22  1  0  0  0  0
 26 29  1  6  0  0  0
 26 24  1  0  0  0  0
 26 23  1  0  0  0  0
 28 25  1  0  0  0  0
 30 34  1  0  0  0  0
 31 33  1  0  0  0  0
 32 31  1  0  0  0  0
 32 30  1  0  0  0  0
 33 29  1  0  0  0  0
 34 29  2  0  0  0  0
 36 37  1  0  0  0  0
 36 39  1  0  0  0  0
 37 42  1  1  0  0  0
 37 41  1  0  0  0  0
 38 41  1  0  0  0  0
 40 39  1  0  0  0  0
 40 38  1  0  0  0  0
 40 35  1  1  0  0  0
 43 42  1  0  0  0  0
M  END
>  <MODEL>
8

>  <REMARK>
 VINA RESULT:      -6.6      2.324      2.972
  Name = 
  10 active torsions:
  status: ('A' for Active; 'I' for Inactive)
    1  A    between atoms: C_1  and  N_34
    2  A    between atoms: C_1  and  C_35
    3  A    between atoms: C_2  and  C_6
    4  A    between atoms: C_2  and  C_13
    5  A    between atoms: C_3  and  C_4
    6  A    between atoms: C_3  and  C_12
    7  A    between atoms: C_6  and  C_17
    8  A    between atoms: C_11  and  C_22
    9  A    between atoms: C_12  and  C_17
   10  A    between atoms: C_19  and  C_25
                            x       y       z     vdW  Elec       q    Type
                         _______ _______ _______ _____ _____    ______ ____

>  <TORSDO>
F 10

$$$$
=
 OpenBabel11052420503D

 43 48  0  0  1  0  0  0  0  0999 V2000
  196.6280  169.0070  146.7420 C   0  0  0  0  0  2  0  0  0  0  0  0
  195.0990  173.7920  145.3660 C   0  0  0  0  0  0  0  0  0  0  0  0
  192.5450  173.7450  144.0470 C   0  0  1  0  0  3  0  0  0  0  0  0
  196.4460  171.4080  146.0420 C   0  0  0  0  0  0  0  0  0  0  0  0
  195.1640  169.0680  144.6470 C   0  0  0  0  0  2  0  0  0  0  0  0
  196.1370  168.2580  145.5040 C   0  0  0  0  0  2  0  0  0  0  0  0
  195.0920  171.3580  145.6130 C   0  0  0  0  0  0  0  0  0  0  0  0
  197.1890  170.2730  146.4060 O   0  0  0  0  0  0  0  0  0  0  0  0
  194.3540  170.0530  145.4810 C   0  0  0  0  0  2  0  0  0  0  0  0
  192.9670  172.5220  144.8650 C   0  0  0  0  0  2  0  0  0  0  0  0
  194.4230  172.5540  145.2770 C   0  0  0  0  0  0  0  0  0  0  0  0
  196.4390  173.8180  145.7640 C   0  0  0  0  0  3  0  0  0  0  0  0
  194.4250  175.0120  145.0020 N   0  0  0  0  0  0  0  0  0  0  0  0
  192.9780  175.0070  144.7910 C   0  0  0  0  0  2  0  0  0  0  0  0
  197.1020  172.6400  146.0970 C   0  0  0  0  0  3  0  0  0  0  0  0
  193.0860  173.6840  142.6060 C   0  0  1  0  0  3  0  0  0  0  0  0
  193.5970  172.2910  142.2770 C   0  0  0  0  0  1  0  0  0  0  0  0
  192.0710  174.1320  141.5490 C   0  0  0  0  0  2  0  0  0  0  0  0
  190.8990  173.1700  141.4230 C   0  0  0  0  0  2  0  0  0  0  0  0
  189.6210  173.9690  141.2780 C   0  0  0  0  0  2  0  0  0  0  0  0
  189.2700  174.6140  142.6010 C   0  0  0  0  0  2  0  0  0  0  0  0
  189.0720  176.1140  142.4050 C   0  0  1  0  0  3  0  0  0  0  0  0
  188.8710  177.3740  144.9520 C   0  0  0  0  0  2  0  0  0  0  0  0
  187.6910  176.5910  142.8900 C   0  0  2  0  0  3  0  0  0  0  0  0
  190.1600  176.8850  143.1610 C   0  0  0  0  0  2  0  0  0  0  0  0
  187.6260  176.6570  144.4220 C   0  0  2  0  0  3  0  0  0  0  0  0
  186.6700  175.7800  142.3850 O   0  0  0  0  0  1  0  0  0  0  0  0
  190.0310  176.6900  144.5490 O   0  0  0  0  0  0  0  0  0  0  0  0
  186.3820  177.3510  144.8900 C   0  0  0  0  0  0  0  0  0  0  0  0
  184.5020  177.4820  146.5360 C   0  0  0  0  0  2  0  0  0  0  0  0
  184.5800  179.1320  144.6930 C   0  0  0  0  0  2  0  0  0  0  0  0
  184.4140  178.9650  146.1960 C   0  0  0  0  0  2  0  0  0  0  0  0
  185.9780  178.6760  144.2720 C   0  0  0  0  0  2  0  0  0  0  0  0
  185.7520  176.8610  145.9720 C   0  0  0  0  0  3  0  0  0  0  0  0
  195.1880  176.2190  144.6820 C   0  0  0  0  0  2  0  0  0  0  0  0
  195.0200  176.5010  140.8010 C   0  0  0  0  0  2  0  0  0  0  0  0
  196.2390  175.6070  140.5040 C   0  0  1  0  0  3  0  0  0  0  0  0
  196.5910  175.0480  142.9300 C   0  0  0  0  0  2  0  0  0  0  0  0
  194.5090  176.3780  142.2410 C   0  0  0  0  0  2  0  0  0  0  0  0
  195.6700  176.2430  143.2300 C   0  0  1  0  0  3  0  0  0  0  0  0
  196.4130  174.4790  141.5210 C   0  0  0  0  0  2  0  0  0  0  0  0
  196.2140  175.0790  139.0730 C   0  0  0  0  0  2  0  0  0  0  0  0
  194.9500  174.2880  138.7670 C   0  0  0  0  0  1  0  0  0  0  0  0
  2 12  1  0  0  0  0
  3 16  1  6  0  0  0
  3 14  1  0  0  0  0
  3 10  1  0  0  0  0
  4 15  1  0  0  0  0
  4  8  1  0  0  0  0
  5  9  1  0  0  0  0
  5  6  1  0  0  0  0
  6  1  1  0  0  0  0
  7  4  2  0  0  0  0
  8  1  1  0  0  0  0
  9  7  1  0  0  0  0
 10 11  1  0  0  0  0
 11  2  2  0  0  0  0
 11  7  1  0  0  0  0
 12 15  2  0  0  0  0
 13  2  1  0  0  0  0
 14 13  1  0  0  0  0
 16 17  1  6  0  0  0
 18 16  1  0  0  0  0
 19 18  1  0  0  0  0
 20 19  1  0  0  0  0
 20 21  1  0  0  0  0
 22 21  1  1  0  0  0
 22 24  1  0  0  0  0
 22 25  1  0  0  0  0
 24 27  1  1  0  0  0
 24 26  1  0  0  0  0
 25 28  1  0  0  0  0
 26 29  1  6  0  0  0
 26 23  1  0  0  0  0
 28 23  1  0  0  0  0
 29 34  2  0  0  0  0
 31 32  1  0  0  0  0
 32 30  1  0  0  0  0
 33 31  1  0  0  0  0
 33 29  1  0  0  0  0
 34 30  1  0  0  0  0
 35 13  1  0  0  0  0
 36 39  1  0  0  0  0
 37 42  1  6  0  0  0
 37 36  1  0  0  0  0
 37 41  1  0  0  0  0
 38 40  1  0  0  0  0
 39 40  1  0  0  0  0
 40 35  1  1  0  0  0
 41 38  1  0  0  0  0
 43 42  1  0  0  0  0
M  END
>  <MODEL>
9

>  <REMARK>
 VINA RESULT:      -6.6      2.334      8.597
  Name = 
  10 active torsions:
  status: ('A' for Active; 'I' for Inactive)
    1  A    between atoms: C_1  and  N_34
    2  A    between atoms: C_1  and  C_35
    3  A    between atoms: C_2  and  C_6
    4  A    between atoms: C_2  and  C_13
    5  A    between atoms: C_3  and  C_4
    6  A    between atoms: C_3  and  C_12
    7  A    between atoms: C_6  and  C_17
    8  A    between atoms: C_11  and  C_22
    9  A    between atoms: C_12  and  C_17
   10  A    between atoms: C_19  and  C_25
                            x       y       z     vdW  Elec       q    Type
                         _______ _______ _______ _____ _____    ______ ____

>  <TORSDO>
F 10

$$$$
