=
 OpenBabel11052417173D

 30 32  0  0  0  0  0  0  0  0999 V2000
  187.8460  177.4900  144.6610 C   0  0  0  0  0  3  0  0  0  0  0  0
  186.3890  178.0240  146.5310 C   0  0  0  0  0  0  0  0  0  0  0  0
  184.7350  178.2850  141.9300 C   0  0  0  0  0  3  0  0  0  0  0  0
  188.0750  177.3440  143.2890 C   0  0  0  0  0  0  0  0  0  0  0  0
  184.9660  178.1670  140.5580 C   0  0  0  0  0  3  0  0  0  0  0  0
  185.1380  178.4170  147.0120 C   0  0  0  0  0  3  0  0  0  0  0  0
  187.4160  177.7710  147.4340 O   0  0  0  0  0  1  0  0  0  0  0  0
  185.7600  178.0190  142.8560 C   0  0  0  0  0  0  0  0  0  0  0  0
  184.0920  178.6770  146.1260 C   0  0  0  0  0  3  0  0  0  0  0  0
  186.5990  177.8880  145.1480 C   0  0  0  0  0  0  0  0  0  0  0  0
  187.0350  177.6170  142.3780 C   0  0  0  0  0  0  0  0  0  0  0  0
  186.2220  177.7820  140.0920 C   0  0  0  0  0  3  0  0  0  0  0  0
  187.2510  177.5110  140.9950 C   0  0  0  0  0  3  0  0  0  0  0  0
  184.2920  178.5450  144.7500 C   0  0  0  0  0  3  0  0  0  0  0  0
  185.5410  178.1510  144.2430 C   0  0  0  0  0  0  0  0  0  0  0  0
  190.7810  175.1480  142.1970 O   0  0  0  0  0  0  0  0  0  0  0  0
  189.6610  175.5050  142.6500 C   0  0  0  0  0  0  0  0  0  0  0  0
  189.3680  176.9040  142.8400 N   0  0  0  0  0  0  0  0  0  0  0  0
  188.6680  174.4510  143.0180 C   0  0  0  0  0  2  0  0  0  0  0  0
  187.8560  174.0570  141.7980 C   0  0  0  0  0  2  0  0  0  0  0  0
  188.2730  172.6720  139.9080 O   0  0  0  0  0  0  0  0  0  0  0  0
  188.4940  172.8950  141.1260 C   0  0  0  0  0  0  0  0  0  0  0  0
  189.3090  172.0350  141.8520 O   0  0  0  0  0  1  0  0  0  0  0  0
  190.4340  177.8910  142.7060 C   0  0  0  0  0  2  0  0  0  0  0  0
  191.0200  178.2200  144.0700 C   0  0  0  0  0  2  0  0  0  0  0  0
  192.1850  177.2990  144.3750 C   0  0  0  0  0  2  0  0  0  0  0  0
  191.7950  176.3230  145.3800 N   0  0  0  0  0  2  0  0  0  0  0  0
  193.8550  176.7120  146.7020 N   0  0  0  0  0  1  0  0  0  0  0  0
  192.6130  176.0390  146.5150 C   0  0  0  0  0  0  0  0  0  0  0  0
  192.2320  175.1870  147.3580 O   0  0  0  0  0  0  0  0  0  0  0  0
  1 10  1  0  0  0  0
  2  6  1  0  0  0  0
  2  7  1  0  0  0  0
  3  8  1  0  0  0  0
  4  1  2  0  0  0  0
  5  3  2  0  0  0  0
  8 15  1  0  0  0  0
  9  6  2  0  0  0  0
 10  2  2  0  0  0  0
 11  8  2  0  0  0  0
 11  4  1  0  0  0  0
 12  5  1  0  0  0  0
 12 13  2  0  0  0  0
 13 11  1  0  0  0  0
 14  9  1  0  0  0  0
 15 14  2  0  0  0  0
 15 10  1  0  0  0  0
 16 17  2  0  0  0  0
 17 18  1  0  0  0  0
 17 19  1  0  0  0  0
 18  4  1  0  0  0  0
 20 19  1  0  0  0  0
 21 22  2  0  0  0  0
 22 20  1  0  0  0  0
 22 23  1  0  0  0  0
 24 18  1  0  0  0  0
 24 25  1  0  0  0  0
 25 26  1  0  0  0  0
 26 27  1  0  0  0  0
 27 29  1  0  0  0  0
 29 28  1  0  0  0  0
 29 30  2  0  0  0  0
M  END
>  <MODEL>
1

>  <REMARK>
 VINA RESULT:      -7.5      0.000      0.000
  Name = 
  8 active torsions:
  status: ('A' for Active; 'I' for Inactive)
    1  A    between atoms: C_4  and  N_13
    2  A    between atoms: N_7  and  C_16
    3  A    between atoms: C_8  and  C_12
    4  A    between atoms: C_9  and  C_12
    5  A    between atoms: C_9  and  C_17
    6  A    between atoms: N_13  and  C_27
    7  A    between atoms: C_16  and  C_30
    8  A    between atoms: C_27  and  C_30
                            x       y       z     vdW  Elec       q    Type
                         _______ _______ _______ _____ _____    ______ ____

>  <TORSDO>
F 8

$$$$
=
 OpenBabel11052417173D

 30 32  0  0  0  0  0  0  0  0999 V2000
  187.8050  177.4100  144.6100 C   0  0  0  0  0  3  0  0  0  0  0  0
  186.3610  177.9830  146.4780 C   0  0  0  0  0  0  0  0  0  0  0  0
  184.7170  178.2800  141.8770 C   0  0  0  0  0  3  0  0  0  0  0  0
  188.0300  177.2560  143.2390 C   0  0  0  0  0  0  0  0  0  0  0  0
  184.9450  178.1540  140.5050 C   0  0  0  0  0  3  0  0  0  0  0  0
  185.1200  178.4070  146.9580 C   0  0  0  0  0  3  0  0  0  0  0  0
  187.3800  177.7050  147.3830 O   0  0  0  0  0  1  0  0  0  0  0  0
  185.7340  177.9880  142.8030 C   0  0  0  0  0  0  0  0  0  0  0  0
  184.0810  178.6920  146.0710 C   0  0  0  0  0  3  0  0  0  0  0  0
  186.5680  177.8400  145.0960 C   0  0  0  0  0  0  0  0  0  0  0  0
  186.9980  177.5550  142.3270 C   0  0  0  0  0  0  0  0  0  0  0  0
  186.1920  177.7370  140.0400 C   0  0  0  0  0  3  0  0  0  0  0  0
  187.2130  177.4410  140.9440 C   0  0  0  0  0  3  0  0  0  0  0  0
  184.2780  178.5540  144.6960 C   0  0  0  0  0  3  0  0  0  0  0  0
  185.5180  178.1280  144.1900 C   0  0  0  0  0  0  0  0  0  0  0  0
  190.6670  174.9990  142.1000 O   0  0  0  0  0  0  0  0  0  0  0  0
  189.5540  175.3820  142.5520 C   0  0  0  0  0  0  0  0  0  0  0  0
  189.3130  176.7830  142.7910 N   0  0  0  0  0  0  0  0  0  0  0  0
  188.5170  174.3540  142.8660 C   0  0  0  0  0  2  0  0  0  0  0  0
  188.6850  173.1540  141.9540 C   0  0  0  0  0  2  0  0  0  0  0  0
  189.0880  171.9270  143.9530 O   0  0  0  0  0  1  0  0  0  0  0  0
  189.2850  172.0270  142.7150 C   0  0  0  0  0  0  0  0  0  0  0  0
  190.0920  171.1020  142.0630 O   0  0  0  0  0  0  0  0  0  0  0  0
  190.4170  177.7330  142.7090 C   0  0  0  0  0  2  0  0  0  0  0  0
  190.8330  178.1760  144.1030 C   0  0  0  0  0  2  0  0  0  0  0  0
  191.6230  177.0770  144.7880 C   0  0  0  0  0  2  0  0  0  0  0  0
  190.9650  176.6940  146.0270 N   0  0  0  0  0  2  0  0  0  0  0  0
  191.1600  174.2800  145.4990 N   0  0  0  0  0  1  0  0  0  0  0  0
  190.7410  175.3270  146.3700 C   0  0  0  0  0  0  0  0  0  0  0  0
  190.1680  175.0430  147.4540 O   0  0  0  0  0  0  0  0  0  0  0  0
  1 10  1  0  0  0  0
  2  6  1  0  0  0  0
  2  7  1  0  0  0  0
  3  8  1  0  0  0  0
  4  1  2  0  0  0  0
  5  3  2  0  0  0  0
  8 15  1  0  0  0  0
  9  6  2  0  0  0  0
 10  2  2  0  0  0  0
 11  8  2  0  0  0  0
 11  4  1  0  0  0  0
 12  5  1  0  0  0  0
 12 13  2  0  0  0  0
 13 11  1  0  0  0  0
 14  9  1  0  0  0  0
 15 14  2  0  0  0  0
 15 10  1  0  0  0  0
 16 17  2  0  0  0  0
 17 18  1  0  0  0  0
 17 19  1  0  0  0  0
 18  4  1  0  0  0  0
 20 22  1  0  0  0  0
 20 19  1  0  0  0  0
 22 21  1  0  0  0  0
 23 22  2  0  0  0  0
 24 18  1  0  0  0  0
 24 25  1  0  0  0  0
 25 26  1  0  0  0  0
 26 27  1  0  0  0  0
 27 29  1  0  0  0  0
 28 29  1  0  0  0  0
 29 30  2  0  0  0  0
M  END
>  <MODEL>
2

>  <REMARK>
 VINA RESULT:      -7.5      1.056      1.285
  Name = 
  8 active torsions:
  status: ('A' for Active; 'I' for Inactive)
    1  A    between atoms: C_4  and  N_13
    2  A    between atoms: N_7  and  C_16
    3  A    between atoms: C_8  and  C_12
    4  A    between atoms: C_9  and  C_12
    5  A    between atoms: C_9  and  C_17
    6  A    between atoms: N_13  and  C_27
    7  A    between atoms: C_16  and  C_30
    8  A    between atoms: C_27  and  C_30
                            x       y       z     vdW  Elec       q    Type
                         _______ _______ _______ _____ _____    ______ ____

>  <TORSDO>
F 8

$$$$
=
 OpenBabel11052417173D

 30 32  0  0  0  0  0  0  0  0999 V2000
  187.9080  177.4740  144.6270 C   0  0  0  0  0  3  0  0  0  0  0  0
  186.4630  178.0230  146.5020 C   0  0  0  0  0  0  0  0  0  0  0  0
  184.7790  178.2390  141.9100 C   0  0  0  0  0  3  0  0  0  0  0  0
  188.1280  177.3150  143.2560 C   0  0  0  0  0  0  0  0  0  0  0  0
  185.0000  178.1080  140.5380 C   0  0  0  0  0  3  0  0  0  0  0  0
  185.2150  178.4180  146.9880 C   0  0  0  0  0  3  0  0  0  0  0  0
  187.4960  177.7790  147.4010 O   0  0  0  0  0  1  0  0  0  0  0  0
  185.8100  177.9820  142.8310 C   0  0  0  0  0  0  0  0  0  0  0  0
  184.1620  178.6680  146.1060 C   0  0  0  0  0  3  0  0  0  0  0  0
  186.6640  177.8740  145.1190 C   0  0  0  0  0  0  0  0  0  0  0  0
  187.0820  177.5780  142.3490 C   0  0  0  0  0  0  0  0  0  0  0  0
  186.2540  177.7210  140.0670 C   0  0  0  0  0  3  0  0  0  0  0  0
  187.2890  177.4600  140.9660 C   0  0  0  0  0  3  0  0  0  0  0  0
  184.3530  178.5240  144.7300 C   0  0  0  0  0  3  0  0  0  0  0  0
  185.6000  178.1270  144.2190 C   0  0  0  0  0  0  0  0  0  0  0  0
  190.8240  175.1150  142.1430 O   0  0  0  0  0  0  0  0  0  0  0  0
  189.7050  175.4740  142.6000 C   0  0  0  0  0  0  0  0  0  0  0  0
  189.4190  176.8730  142.8020 N   0  0  0  0  0  0  0  0  0  0  0  0
  188.7080  174.4210  142.9600 C   0  0  0  0  0  2  0  0  0  0  0  0
  189.4230  173.1280  143.3050 C   0  0  0  0  0  2  0  0  0  0  0  0
  191.2940  172.8450  144.7490 O   0  0  0  0  0  0  0  0  0  0  0  0
  190.1190  173.2730  144.6100 C   0  0  0  0  0  0  0  0  0  0  0  0
  189.4610  173.8530  145.6870 O   0  0  0  0  0  1  0  0  0  0  0  0
  190.4890  177.8560  142.6760 C   0  0  0  0  0  2  0  0  0  0  0  0
  191.0440  178.2090  144.0470 C   0  0  0  0  0  2  0  0  0  0  0  0
  192.2570  177.3530  144.3580 C   0  0  0  0  0  2  0  0  0  0  0  0
  191.8930  176.2990  145.2910 N   0  0  0  0  0  2  0  0  0  0  0  0
  193.8890  176.7200  146.6990 N   0  0  0  0  0  1  0  0  0  0  0  0
  192.6920  175.9930  146.4330 C   0  0  0  0  0  0  0  0  0  0  0  0
  192.3360  175.0730  147.2130 O   0  0  0  0  0  0  0  0  0  0  0  0
  1 10  1  0  0  0  0
  2  6  1  0  0  0  0
  2  7  1  0  0  0  0
  3  8  1  0  0  0  0
  4  1  2  0  0  0  0
  5  3  2  0  0  0  0
  8 15  1  0  0  0  0
  9  6  2  0  0  0  0
 10  2  2  0  0  0  0
 11  8  2  0  0  0  0
 11  4  1  0  0  0  0
 12  5  1  0  0  0  0
 12 13  2  0  0  0  0
 13 11  1  0  0  0  0
 14  9  1  0  0  0  0
 15 14  2  0  0  0  0
 15 10  1  0  0  0  0
 16 17  2  0  0  0  0
 17 18  1  0  0  0  0
 17 19  1  0  0  0  0
 18  4  1  0  0  0  0
 19 20  1  0  0  0  0
 20 22  1  0  0  0  0
 22 21  2  0  0  0  0
 22 23  1  0  0  0  0
 24 18  1  0  0  0  0
 24 25  1  0  0  0  0
 25 26  1  0  0  0  0
 26 27  1  0  0  0  0
 27 29  1  0  0  0  0
 29 28  1  0  0  0  0
 29 30  2  0  0  0  0
M  END
>  <MODEL>
3

>  <REMARK>
 VINA RESULT:      -7.4      1.117      1.542
  Name = 
  8 active torsions:
  status: ('A' for Active; 'I' for Inactive)
    1  A    between atoms: C_4  and  N_13
    2  A    between atoms: N_7  and  C_16
    3  A    between atoms: C_8  and  C_12
    4  A    between atoms: C_9  and  C_12
    5  A    between atoms: C_9  and  C_17
    6  A    between atoms: N_13  and  C_27
    7  A    between atoms: C_16  and  C_30
    8  A    between atoms: C_27  and  C_30
                            x       y       z     vdW  Elec       q    Type
                         _______ _______ _______ _____ _____    ______ ____

>  <TORSDO>
F 8

$$$$
=
 OpenBabel11052417173D

 30 32  0  0  0  0  0  0  0  0999 V2000
  188.0150  177.1230  143.1730 C   0  0  0  0  0  3  0  0  0  0  0  0
  186.3030  178.7690  143.6900 C   0  0  0  0  0  0  0  0  0  0  0  0
  188.0590  175.8180  147.1800 C   0  0  0  0  0  3  0  0  0  0  0  0
  188.8830  176.0970  143.5570 C   0  0  0  0  0  0  0  0  0  0  0  0
  188.9040  174.7750  147.5630 C   0  0  0  0  0  3  0  0  0  0  0  0
  185.4590  179.3800  144.6200 C   0  0  0  0  0  3  0  0  0  0  0  0
  186.2800  179.1960  142.3670 O   0  0  0  0  0  1  0  0  0  0  0  0
  188.0350  176.2700  145.8490 C   0  0  0  0  0  0  0  0  0  0  0  0
  185.4640  178.9690  145.9540 C   0  0  0  0  0  3  0  0  0  0  0  0
  187.1640  177.7350  144.0970 C   0  0  0  0  0  0  0  0  0  0  0  0
  188.8900  175.6570  144.8960 C   0  0  0  0  0  0  0  0  0  0  0  0
  189.7360  174.1680  146.6220 C   0  0  0  0  0  3  0  0  0  0  0  0
  189.7270  174.6050  145.2970 C   0  0  0  0  0  3  0  0  0  0  0  0
  186.3150  177.9420  146.3660 C   0  0  0  0  0  3  0  0  0  0  0  0
  187.1740  177.3130  145.4490 C   0  0  0  0  0  0  0  0  0  0  0  0
  191.9280  175.2510  141.7260 O   0  0  0  0  0  0  0  0  0  0  0  0
  191.1700  175.8170  142.5580 C   0  0  0  0  0  0  0  0  0  0  0  0
  189.7590  175.5190  142.5730 N   0  0  0  0  0  0  0  0  0  0  0  0
  191.7570  176.8230  143.4930 C   0  0  0  0  0  2  0  0  0  0  0  0
  193.1460  176.3850  143.9180 C   0  0  0  0  0  2  0  0  0  0  0  0
  192.5310  176.5290  146.2130 O   0  0  0  0  0  1  0  0  0  0  0  0
  193.3890  176.7860  145.3280 C   0  0  0  0  0  0  0  0  0  0  0  0
  194.5480  177.4730  145.6650 O   0  0  0  0  0  0  0  0  0  0  0  0
  189.1750  174.7250  141.4980 C   0  0  0  0  0  2  0  0  0  0  0  0
  188.1770  173.7270  142.0650 C   0  0  0  0  0  2  0  0  0  0  0  0
  188.7200  172.3160  141.9380 C   0  0  0  0  0  2  0  0  0  0  0  0
  189.4390  171.9510  143.1490 N   0  0  0  0  0  2  0  0  0  0  0  0
  191.6080  171.8660  141.9530 N   0  0  0  0  0  1  0  0  0  0  0  0
  190.8490  171.7320  143.1520 C   0  0  0  0  0  0  0  0  0  0  0  0
  191.4280  171.4200  144.2240 O   0  0  0  0  0  0  0  0  0  0  0  0
  1  4  2  0  0  0  0
  1 10  1  0  0  0  0
  2 10  2  0  0  0  0
  2  6  1  0  0  0  0
  3  5  1  0  0  0  0
  4 11  1  0  0  0  0
  6  9  2  0  0  0  0
  7  2  1  0  0  0  0
  8  3  2  0  0  0  0
  9 14  1  0  0  0  0
 10 15  1  0  0  0  0
 11 13  2  0  0  0  0
 11  8  1  0  0  0  0
 12  5  2  0  0  0  0
 13 12  1  0  0  0  0
 15  8  1  0  0  0  0
 15 14  2  0  0  0  0
 16 17  2  0  0  0  0
 17 18  1  0  0  0  0
 17 19  1  0  0  0  0
 18  4  1  0  0  0  0
 19 20  1  0  0  0  0
 20 22  1  0  0  0  0
 22 23  2  0  0  0  0
 22 21  1  0  0  0  0
 24 25  1  0  0  0  0
 24 18  1  0  0  0  0
 26 25  1  0  0  0  0
 26 27  1  0  0  0  0
 27 29  1  0  0  0  0
 28 29  1  0  0  0  0
 29 30  2  0  0  0  0
M  END
>  <MODEL>
4

>  <REMARK>
 VINA RESULT:      -7.1      2.558      5.177
  Name = 
  8 active torsions:
  status: ('A' for Active; 'I' for Inactive)
    1  A    between atoms: C_4  and  N_13
    2  A    between atoms: N_7  and  C_16
    3  A    between atoms: C_8  and  C_12
    4  A    between atoms: C_9  and  C_12
    5  A    between atoms: C_9  and  C_17
    6  A    between atoms: N_13  and  C_27
    7  A    between atoms: C_16  and  C_30
    8  A    between atoms: C_27  and  C_30
                            x       y       z     vdW  Elec       q    Type
                         _______ _______ _______ _____ _____    ______ ____

>  <TORSDO>
F 8

$$$$
=
 OpenBabel11052417173D

 30 32  0  0  0  0  0  0  0  0999 V2000
  187.4510  176.3640  144.5410 C   0  0  0  0  0  3  0  0  0  0  0  0
  186.1200  177.1670  146.4080 C   0  0  0  0  0  0  0  0  0  0  0  0
  184.9140  178.3270  141.8080 C   0  0  0  0  0  3  0  0  0  0  0  0
  187.7060  176.2700  143.1700 C   0  0  0  0  0  0  0  0  0  0  0  0
  185.1790  178.2600  140.4390 C   0  0  0  0  0  3  0  0  0  0  0  0
  185.0260  177.8910  146.8870 C   0  0  0  0  0  3  0  0  0  0  0  0
  186.9600  176.5280  147.3140 O   0  0  0  0  0  1  0  0  0  0  0  0
  185.7460  177.6740  142.7340 C   0  0  0  0  0  0  0  0  0  0  0  0
  184.1680  178.5410  145.9990 C   0  0  0  0  0  3  0  0  0  0  0  0
  186.3610  177.0910  145.0260 C   0  0  0  0  0  0  0  0  0  0  0  0
  186.8610  176.9340  142.2580 C   0  0  0  0  0  0  0  0  0  0  0  0
  186.2810  177.5410  139.9760 C   0  0  0  0  0  3  0  0  0  0  0  0
  187.1170  176.8830  140.8790 C   0  0  0  0  0  3  0  0  0  0  0  0
  184.4010  178.4720  144.6240 C   0  0  0  0  0  3  0  0  0  0  0  0
  185.4950  177.7490  144.1190 C   0  0  0  0  0  0  0  0  0  0  0  0
  191.1340  175.2990  142.3630 O   0  0  0  0  0  0  0  0  0  0  0  0
  190.1610  176.0260  142.7020 C   0  0  0  0  0  0  0  0  0  0  0  0
  188.8240  175.4860  142.7200 N   0  0  0  0  0  0  0  0  0  0  0  0
  190.4220  177.4560  143.0450 C   0  0  0  0  0  2  0  0  0  0  0  0
  191.4640  177.5430  144.1440 C   0  0  0  0  0  2  0  0  0  0  0  0
  190.0630  177.5410  146.0680 O   0  0  0  0  0  1  0  0  0  0  0  0
  190.9300  176.9330  145.3900 C   0  0  0  0  0  0  0  0  0  0  0  0
  191.4140  175.7050  145.8240 O   0  0  0  0  0  0  0  0  0  0  0  0
  188.5680  174.1680  142.1490 C   0  0  0  0  0  2  0  0  0  0  0  0
  188.9370  173.0820  143.1480 C   0  0  0  0  0  2  0  0  0  0  0  0
  189.6350  171.9350  142.4420 C   0  0  0  0  0  2  0  0  0  0  0  0
  189.8780  172.2850  141.0520 N   0  0  0  0  0  2  0  0  0  0  0  0
  190.8140  170.0460  140.5490 N   0  0  0  0  0  1  0  0  0  0  0  0
  190.4540  171.3600  140.1300 C   0  0  0  0  0  0  0  0  0  0  0  0
  190.6450  171.7080  138.9360 O   0  0  0  0  0  0  0  0  0  0  0  0
  1 10  1  0  0  0  0
  2  6  1  0  0  0  0
  2  7  1  0  0  0  0
  3  8  1  0  0  0  0
  4  1  2  0  0  0  0
  5  3  2  0  0  0  0
  8 15  1  0  0  0  0
  9  6  2  0  0  0  0
 10  2  2  0  0  0  0
 11  8  2  0  0  0  0
 11  4  1  0  0  0  0
 12  5  1  0  0  0  0
 12 13  2  0  0  0  0
 13 11  1  0  0  0  0
 14  9  1  0  0  0  0
 15 14  2  0  0  0  0
 15 10  1  0  0  0  0
 16 17  2  0  0  0  0
 17 18  1  0  0  0  0
 17 19  1  0  0  0  0
 18  4  1  0  0  0  0
 19 20  1  0  0  0  0
 20 22  1  0  0  0  0
 22 23  2  0  0  0  0
 22 21  1  0  0  0  0
 24 18  1  0  0  0  0
 24 25  1  0  0  0  0
 26 25  1  0  0  0  0
 27 26  1  0  0  0  0
 29 28  1  0  0  0  0
 29 27  1  0  0  0  0
 30 29  2  0  0  0  0
M  END
>  <MODEL>
5

>  <REMARK>
 VINA RESULT:      -7.0      2.059      4.336
  Name = 
  8 active torsions:
  status: ('A' for Active; 'I' for Inactive)
    1  A    between atoms: C_4  and  N_13
    2  A    between atoms: N_7  and  C_16
    3  A    between atoms: C_8  and  C_12
    4  A    between atoms: C_9  and  C_12
    5  A    between atoms: C_9  and  C_17
    6  A    between atoms: N_13  and  C_27
    7  A    between atoms: C_16  and  C_30
    8  A    between atoms: C_27  and  C_30
                            x       y       z     vdW  Elec       q    Type
                         _______ _______ _______ _____ _____    ______ ____

>  <TORSDO>
F 8

$$$$
=
 OpenBabel11052417173D

 30 32  0  0  0  0  0  0  0  0999 V2000
  188.9260  176.3490  142.6340 C   0  0  0  0  0  3  0  0  0  0  0  0
  187.2560  178.0400  142.1260 C   0  0  0  0  0  0  0  0  0  0  0  0
  187.7220  176.2840  146.6720 C   0  0  0  0  0  3  0  0  0  0  0  0
  189.5720  175.4980  143.5350 C   0  0  0  0  0  0  0  0  0  0  0  0
  188.3460  175.4170  147.5710 C   0  0  0  0  0  3  0  0  0  0  0  0
  186.2240  178.8820  142.5480 C   0  0  0  0  0  3  0  0  0  0  0  0
  187.6450  178.0580  140.7910 O   0  0  0  0  0  1  0  0  0  0  0  0
  188.1140  176.3230  145.3230 C   0  0  0  0  0  0  0  0  0  0  0  0
  185.8160  178.8820  143.8820 C   0  0  0  0  0  3  0  0  0  0  0  0
  187.8890  177.1890  143.0480 C   0  0  0  0  0  0  0  0  0  0  0  0
  189.1630  175.4730  144.8830 C   0  0  0  0  0  0  0  0  0  0  0  0
  189.3690  174.5760  147.1340 C   0  0  0  0  0  3  0  0  0  0  0  0
  189.7740  174.6020  145.7990 C   0  0  0  0  0  3  0  0  0  0  0  0
  186.4380  178.0390  144.8050 C   0  0  0  0  0  3  0  0  0  0  0  0
  187.4790  177.1840  144.4040 C   0  0  0  0  0  0  0  0  0  0  0  0
  192.9560  174.3620  142.7610 O   0  0  0  0  0  0  0  0  0  0  0  0
  192.0210  175.1260  143.1220 C   0  0  0  0  0  0  0  0  0  0  0  0
  190.6530  174.6740  143.0650 N   0  0  0  0  0  0  0  0  0  0  0  0
  192.3600  176.5100  143.5690 C   0  0  0  0  0  2  0  0  0  0  0  0
  192.7620  176.4980  145.0320 C   0  0  0  0  0  2  0  0  0  0  0  0
  194.6310  177.4120  146.1870 O   0  0  0  0  0  1  0  0  0  0  0  0
  194.2050  176.8270  145.1580 C   0  0  0  0  0  0  0  0  0  0  0  0
  195.0800  176.5190  144.1240 O   0  0  0  0  0  0  0  0  0  0  0  0
  190.3330  173.4170  142.3980 C   0  0  0  0  0  2  0  0  0  0  0  0
  190.2080  173.6340  140.8980 C   0  0  0  0  0  2  0  0  0  0  0  0
  188.8200  173.2440  140.4270 C   0  0  0  0  0  2  0  0  0  0  0  0
  188.3080  174.2500  139.5110 N   0  0  0  0  0  2  0  0  0  0  0  0
  188.7820  172.8350  137.5330 N   0  0  0  0  0  1  0  0  0  0  0  0
  188.2910  174.0470  138.0980 C   0  0  0  0  0  0  0  0  0  0  0  0
  187.8370  174.9470  137.3460 O   0  0  0  0  0  0  0  0  0  0  0  0
  1 10  2  0  0  0  0
  1  4  1  0  0  0  0
  2  6  2  0  0  0  0
  2 10  1  0  0  0  0
  3  5  2  0  0  0  0
  4 11  2  0  0  0  0
  6  9  1  0  0  0  0
  7  2  1  0  0  0  0
  8  3  1  0  0  0  0
  9 14  2  0  0  0  0
 10 15  1  0  0  0  0
 11  8  1  0  0  0  0
 11 13  1  0  0  0  0
 12  5  1  0  0  0  0
 13 12  2  0  0  0  0
 15 14  1  0  0  0  0
 15  8  2  0  0  0  0
 16 17  2  0  0  0  0
 17 19  1  0  0  0  0
 18 17  1  0  0  0  0
 18  4  1  0  0  0  0
 19 20  1  0  0  0  0
 20 22  1  0  0  0  0
 22 21  1  0  0  0  0
 23 22  2  0  0  0  0
 24 18  1  0  0  0  0
 25 24  1  0  0  0  0
 26 25  1  0  0  0  0
 27 26  1  0  0  0  0
 28 29  1  0  0  0  0
 29 27  1  0  0  0  0
 30 29  2  0  0  0  0
M  END
>  <MODEL>
6

>  <REMARK>
 VINA RESULT:      -6.9      2.731      6.190
  Name = 
  8 active torsions:
  status: ('A' for Active; 'I' for Inactive)
    1  A    between atoms: C_4  and  N_13
    2  A    between atoms: N_7  and  C_16
    3  A    between atoms: C_8  and  C_12
    4  A    between atoms: C_9  and  C_12
    5  A    between atoms: C_9  and  C_17
    6  A    between atoms: N_13  and  C_27
    7  A    between atoms: C_16  and  C_30
    8  A    between atoms: C_27  and  C_30
                            x       y       z     vdW  Elec       q    Type
                         _______ _______ _______ _____ _____    ______ ____

>  <TORSDO>
F 8

$$$$
=
 OpenBabel11052417173D

 30 32  0  0  0  0  0  0  0  0999 V2000
  187.1020  177.3760  143.6230 C   0  0  0  0  0  3  0  0  0  0  0  0
  185.1330  178.5200  144.4710 C   0  0  0  0  0  0  0  0  0  0  0  0
  187.8400  175.7020  147.4200 C   0  0  0  0  0  3  0  0  0  0  0  0
  188.2090  176.5420  143.8080 C   0  0  0  0  0  0  0  0  0  0  0  0
  188.9280  174.8470  147.6040 C   0  0  0  0  0  3  0  0  0  0  0  0
  184.2750  178.8200  145.5310 C   0  0  0  0  0  3  0  0  0  0  0  0
  184.8820  179.0670  143.2170 O   0  0  0  0  0  1  0  0  0  0  0  0
  187.5820  176.2740  146.1610 C   0  0  0  0  0  0  0  0  0  0  0  0
  184.5060  178.2830  146.7980 C   0  0  0  0  0  3  0  0  0  0  0  0
  186.2370  177.6750  144.6780 C   0  0  0  0  0  0  0  0  0  0  0  0
  188.4490  175.9780  145.0770 C   0  0  0  0  0  0  0  0  0  0  0  0
  189.7720  174.5490  146.5340 C   0  0  0  0  0  3  0  0  0  0  0  0
  189.5330  175.1100  145.2790 C   0  0  0  0  0  3  0  0  0  0  0  0
  185.5990  177.4410  147.0120 C   0  0  0  0  0  3  0  0  0  0  0  0
  186.4770  177.1260  145.9610 C   0  0  0  0  0  0  0  0  0  0  0  0
  189.6780  174.9420  140.8720 O   0  0  0  0  0  0  0  0  0  0  0  0
  188.9380  175.1110  141.8780 C   0  0  0  0  0  0  0  0  0  0  0  0
  189.0860  176.2880  142.6970 N   0  0  0  0  0  0  0  0  0  0  0  0
  187.9390  174.0540  142.2180 C   0  0  0  0  0  2  0  0  0  0  0  0
  188.3850  172.7200  141.6490 C   0  0  0  0  0  2  0  0  0  0  0  0
  190.4340  171.6250  142.1650 O   0  0  0  0  0  0  0  0  0  0  0  0
  189.3350  172.0670  142.5870 C   0  0  0  0  0  0  0  0  0  0  0  0
  188.9940  171.9160  143.9260 O   0  0  0  0  0  1  0  0  0  0  0  0
  190.2230  177.1780  142.4880 C   0  0  0  0  0  2  0  0  0  0  0  0
  191.5070  176.5070  142.9480 C   0  0  0  0  0  2  0  0  0  0  0  0
  192.0130  177.1610  144.2200 C   0  0  0  0  0  2  0  0  0  0  0  0
  193.3350  176.6520  144.5460 N   0  0  0  0  0  2  0  0  0  0  0  0
  192.7650  176.4270  146.9480 N   0  0  0  0  0  1  0  0  0  0  0  0
  193.6990  176.2950  145.8800 C   0  0  0  0  0  0  0  0  0  0  0  0
  194.8550  175.8580  146.1130 O   0  0  0  0  0  0  0  0  0  0  0  0
  1  4  2  0  0  0  0
  1 10  1  0  0  0  0
  2 10  2  0  0  0  0
  2  6  1  0  0  0  0
  3  5  1  0  0  0  0
  4 11  1  0  0  0  0
  6  9  2  0  0  0  0
  7  2  1  0  0  0  0
  8  3  2  0  0  0  0
  9 14  1  0  0  0  0
 10 15  1  0  0  0  0
 11 13  2  0  0  0  0
 11  8  1  0  0  0  0
 12  5  2  0  0  0  0
 13 12  1  0  0  0  0
 15  8  1  0  0  0  0
 15 14  2  0  0  0  0
 16 17  2  0  0  0  0
 17 19  1  0  0  0  0
 17 18  1  0  0  0  0
 18  4  1  0  0  0  0
 20 19  1  0  0  0  0
 20 22  1  0  0  0  0
 21 22  2  0  0  0  0
 22 23  1  0  0  0  0
 24 18  1  0  0  0  0
 24 25  1  0  0  0  0
 25 26  1  0  0  0  0
 26 27  1  0  0  0  0
 27 29  1  0  0  0  0
 29 30  2  0  0  0  0
 29 28  1  0  0  0  0
M  END
>  <MODEL>
7

>  <REMARK>
 VINA RESULT:      -6.9      1.941      3.390
  Name = 
  8 active torsions:
  status: ('A' for Active; 'I' for Inactive)
    1  A    between atoms: C_4  and  N_13
    2  A    between atoms: N_7  and  C_16
    3  A    between atoms: C_8  and  C_12
    4  A    between atoms: C_9  and  C_12
    5  A    between atoms: C_9  and  C_17
    6  A    between atoms: N_13  and  C_27
    7  A    between atoms: C_16  and  C_30
    8  A    between atoms: C_27  and  C_30
                            x       y       z     vdW  Elec       q    Type
                         _______ _______ _______ _____ _____    ______ ____

>  <TORSDO>
F 8

$$$$
=
 OpenBabel11052417173D

 30 32  0  0  0  0  0  0  0  0999 V2000
  187.6190  176.9380  142.4670 C   0  0  0  0  0  3  0  0  0  0  0  0
  186.0320  177.7560  140.8190 C   0  0  0  0  0  0  0  0  0  0  0  0
  184.8540  177.6450  145.5690 C   0  0  0  0  0  3  0  0  0  0  0  0
  187.9720  176.6490  143.7880 C   0  0  0  0  0  0  0  0  0  0  0  0
  185.1920  177.3320  146.8870 C   0  0  0  0  0  3  0  0  0  0  0  0
  184.7780  178.2910  140.5120 C   0  0  0  0  0  3  0  0  0  0  0  0
  186.9380  177.5160  139.7910 O   0  0  0  0  0  1  0  0  0  0  0  0
  185.7660  177.4210  144.5220 C   0  0  0  0  0  0  0  0  0  0  0  0
  183.8510  178.5410  141.5240 C   0  0  0  0  0  3  0  0  0  0  0  0
  186.3650  177.4680  142.1530 C   0  0  0  0  0  0  0  0  0  0  0  0
  187.0430  176.8790  144.8230 C   0  0  0  0  0  0  0  0  0  0  0  0
  186.4440  176.7910  147.1780 C   0  0  0  0  0  3  0  0  0  0  0  0
  187.3630  176.5640  146.1530 C   0  0  0  0  0  3  0  0  0  0  0  0
  184.1740  178.2560  142.8530 C   0  0  0  0  0  3  0  0  0  0  0  0
  185.4280  177.7180  143.1860 C   0  0  0  0  0  0  0  0  0  0  0  0
  190.8230  174.3690  143.9080 O   0  0  0  0  0  0  0  0  0  0  0  0
  189.6470  174.7800  143.7150 C   0  0  0  0  0  0  0  0  0  0  0  0
  189.2860  176.1320  144.0620 N   0  0  0  0  0  0  0  0  0  0  0  0
  188.6380  173.8280  143.1610 C   0  0  0  0  0  2  0  0  0  0  0  0
  189.2860  172.9380  142.1160 C   0  0  0  0  0  2  0  0  0  0  0  0
  190.6970  173.7880  140.3980 O   0  0  0  0  0  1  0  0  0  0  0  0
  189.5360  173.7200  140.8770 C   0  0  0  0  0  0  0  0  0  0  0  0
  188.4920  174.4040  140.2660 O   0  0  0  0  0  0  0  0  0  0  0  0
  190.2170  176.9580  144.8230 C   0  0  0  0  0  2  0  0  0  0  0  0
  191.0330  177.8320  143.8830 C   0  0  0  0  0  2  0  0  0  0  0  0
  192.4630  177.3300  143.8120 C   0  0  0  0  0  2  0  0  0  0  0  0
  192.8850  176.8500  145.1180 N   0  0  0  0  0  2  0  0  0  0  0  0
  195.1910  176.4140  144.3230 N   0  0  0  0  0  1  0  0  0  0  0  0
  194.2180  176.4040  145.3630 C   0  0  0  0  0  0  0  0  0  0  0  0
  194.5370  175.9980  146.5110 O   0  0  0  0  0  0  0  0  0  0  0  0
  1  4  1  0  0  0  0
  2 10  1  0  0  0  0
  3  5  2  0  0  0  0
  4 18  1  0  0  0  0
  4 11  2  0  0  0  0
  5 12  1  0  0  0  0
  6  2  2  0  0  0  0
  6  9  1  0  0  0  0
  7  2  1  0  0  0  0
  8 11  1  0  0  0  0
  8  3  1  0  0  0  0
  9 14  2  0  0  0  0
 10  1  2  0  0  0  0
 10 15  1  0  0  0  0
 11 13  1  0  0  0  0
 13 12  2  0  0  0  0
 14 15  1  0  0  0  0
 15  8  2  0  0  0  0
 17 16  2  0  0  0  0
 17 18  1  0  0  0  0
 18 24  1  0  0  0  0
 19 17  1  0  0  0  0
 20 19  1  0  0  0  0
 21 22  1  0  0  0  0
 22 20  1  0  0  0  0
 23 22  2  0  0  0  0
 25 24  1  0  0  0  0
 26 25  1  0  0  0  0
 26 27  1  0  0  0  0
 27 29  1  0  0  0  0
 28 29  1  0  0  0  0
 29 30  2  0  0  0  0
M  END
>  <MODEL>
8

>  <REMARK>
 VINA RESULT:      -6.9      1.737      3.526
  Name = 
  8 active torsions:
  status: ('A' for Active; 'I' for Inactive)
    1  A    between atoms: C_4  and  N_13
    2  A    between atoms: N_7  and  C_16
    3  A    between atoms: C_8  and  C_12
    4  A    between atoms: C_9  and  C_12
    5  A    between atoms: C_9  and  C_17
    6  A    between atoms: N_13  and  C_27
    7  A    between atoms: C_16  and  C_30
    8  A    between atoms: C_27  and  C_30
                            x       y       z     vdW  Elec       q    Type
                         _______ _______ _______ _____ _____    ______ ____

>  <TORSDO>
F 8

$$$$
=
 OpenBabel11052417173D

 30 32  0  0  0  0  0  0  0  0999 V2000
  192.0200  176.1210  143.0980 C   0  0  0  0  0  3  0  0  0  0  0  0
  194.4240  176.0630  143.4460 C   0  0  0  0  0  0  0  0  0  0  0  0
  191.3480  175.1840  147.1520 C   0  0  0  0  0  3  0  0  0  0  0  0
  190.7100  175.9940  143.5720 C   0  0  0  0  0  0  0  0  0  0  0  0
  190.0430  175.0820  147.6370 C   0  0  0  0  0  3  0  0  0  0  0  0
  195.5160  175.8690  144.2950 C   0  0  0  0  0  3  0  0  0  0  0  0
  194.6490  176.3800  142.1110 O   0  0  0  0  0  1  0  0  0  0  0  0
  191.5910  175.4910  145.8010 C   0  0  0  0  0  0  0  0  0  0  0  0
  195.3160  175.5500  145.6390 C   0  0  0  0  0  3  0  0  0  0  0  0
  193.1160  175.9350  143.9440 C   0  0  0  0  0  0  0  0  0  0  0  0
  190.4890  175.6870  144.9290 C   0  0  0  0  0  0  0  0  0  0  0  0
  188.9620  175.2860  146.7790 C   0  0  0  0  0  3  0  0  0  0  0  0
  189.1830  175.5890  145.4350 C   0  0  0  0  0  3  0  0  0  0  0  0
  194.0200  175.4220  146.1420 C   0  0  0  0  0  3  0  0  0  0  0  0
  192.9060  175.6110  145.3060 C   0  0  0  0  0  0  0  0  0  0  0  0
  188.0830  175.2220  141.1550 O   0  0  0  0  0  0  0  0  0  0  0  0
  189.0820  175.0570  141.9050 C   0  0  0  0  0  0  0  0  0  0  0  0
  189.6170  176.1670  142.6540 N   0  0  0  0  0  0  0  0  0  0  0  0
  189.7140  173.7050  141.9700 C   0  0  0  0  0  2  0  0  0  0  0  0
  188.9270  172.8100  142.9070 C   0  0  0  0  0  2  0  0  0  0  0  0
  189.3160  171.9160  145.0780 O   0  0  0  0  0  1  0  0  0  0  0  0
  189.8130  172.3210  143.9960 C   0  0  0  0  0  0  0  0  0  0  0  0
  191.1920  172.3440  143.8300 O   0  0  0  0  0  0  0  0  0  0  0  0
  189.1370  177.5190  142.3870 C   0  0  0  0  0  2  0  0  0  0  0  0
  188.2780  178.0090  143.5430 C   0  0  0  0  0  2  0  0  0  0  0  0
  186.8090  177.7940  143.2320 C   0  0  0  0  0  2  0  0  0  0  0  0
  186.2360  176.8500  144.1770 N   0  0  0  0  0  2  0  0  0  0  0  0
  185.6600  178.6500  145.7800 N   0  0  0  0  0  1  0  0  0  0  0  0
  185.6760  177.2710  145.4210 C   0  0  0  0  0  0  0  0  0  0  0  0
  185.1910  176.4170  146.2060 O   0  0  0  0  0  0  0  0  0  0  0  0
  1  4  2  0  0  0  0
  1 10  1  0  0  0  0
  2 10  2  0  0  0  0
  2  6  1  0  0  0  0
  3  5  1  0  0  0  0
  4 11  1  0  0  0  0
  6  9  2  0  0  0  0
  7  2  1  0  0  0  0
  8  3  2  0  0  0  0
  9 14  1  0  0  0  0
 10 15  1  0  0  0  0
 11 13  2  0  0  0  0
 11  8  1  0  0  0  0
 12  5  2  0  0  0  0
 13 12  1  0  0  0  0
 15  8  1  0  0  0  0
 15 14  2  0  0  0  0
 16 17  2  0  0  0  0
 17 19  1  0  0  0  0
 17 18  1  0  0  0  0
 18  4  1  0  0  0  0
 19 20  1  0  0  0  0
 20 22  1  0  0  0  0
 22 21  1  0  0  0  0
 23 22  2  0  0  0  0
 24 18  1  0  0  0  0
 24 25  1  0  0  0  0
 26 25  1  0  0  0  0
 26 27  1  0  0  0  0
 27 29  1  0  0  0  0
 29 28  1  0  0  0  0
 29 30  2  0  0  0  0
M  END
>  <MODEL>
9

>  <REMARK>
 VINA RESULT:      -6.7      2.473      6.578
  Name = 
  8 active torsions:
  status: ('A' for Active; 'I' for Inactive)
    1  A    between atoms: C_4  and  N_13
    2  A    between atoms: N_7  and  C_16
    3  A    between atoms: C_8  and  C_12
    4  A    between atoms: C_9  and  C_12
    5  A    between atoms: C_9  and  C_17
    6  A    between atoms: N_13  and  C_27
    7  A    between atoms: C_16  and  C_30
    8  A    between atoms: C_27  and  C_30
                            x       y       z     vdW  Elec       q    Type
                         _______ _______ _______ _____ _____    ______ ____

>  <TORSDO>
F 8

$$$$
