=
 OpenBabel11052418093D

 28 32  0  0  1  0  0  0  0  0999 V2000
  185.2090  178.9230  146.4720 C   0  0  0  0  0  2  0  0  0  0  0  0
  187.5190  176.9170  146.3400 C   0  0  2  0  0  3  0  0  0  0  0  0
  185.6220  178.0050  147.6120 C   0  0  0  0  0  2  0  0  0  0  0  0
  185.3940  178.6860  144.0410 C   0  0  1  0  0  3  0  0  0  0  0  0
  187.2600  177.7010  145.0570 C   0  0  0  0  0  2  0  0  0  0  0  0
  184.8090  178.1020  145.2420 C   0  0  1  0  0  3  0  0  0  0  0  0
  187.1210  177.7360  147.5640 C   0  0  0  0  0  2  0  0  0  0  0  0
  185.9240  177.4070  144.5390 N   0  0  1  0  0  0  0  0  0  0  0  0
  189.9700  177.2680  145.8340 C   0  0  0  0  0  3  0  0  0  0  0  0
  189.3090  175.3720  147.1920 C   0  0  0  0  0  0  0  0  0  0  0  0
  191.6480  175.7470  146.6840 C   0  0  0  0  0  0  0  0  0  0  0  0
  188.9590  176.5070  146.4430 C   0  0  0  0  0  0  0  0  0  0  0  0
  190.6500  174.9930  147.3070 C   0  0  0  0  0  3  0  0  0  0  0  0
  188.3560  174.6350  147.8170 F   0  0  0  0  0  0  0  0  0  0  0  0
  192.9460  175.3770  146.7970 F   0  0  0  0  0  0  0  0  0  0  0  0
  191.3090  176.8870  145.9520 C   0  0  0  0  0  3  0  0  0  0  0  0
  184.4890  178.4290  142.8520 C   0  0  0  0  0  2  0  0  0  0  0  0
  185.2910  178.5870  141.5720 C   0  0  0  0  0  2  0  0  0  0  0  0
  186.6840  177.4550  139.9400 C   0  0  0  0  0  2  0  0  0  0  0  0
  187.3310  177.2690  141.2480 N   0  0  0  0  0  0  0  0  0  0  0  0
  185.8630  177.2520  141.1270 C   0  0  1  0  0  3  0  0  0  0  0  0
  187.7370  175.9750  141.2940 O   0  0  0  0  0  0  0  0  0  0  0  0
  189.8700  174.7980  141.9170 C   0  0  2  0  0  0  0  0  0  0  0  0
  189.4540  177.2150  142.4130 O   0  0  0  0  0  1  0  0  0  0  0  0
  188.9620  174.9370  143.1270 C   0  0  0  0  0  2  0  0  0  0  0  0
  188.9360  175.9790  142.0190 C   0  0  1  0  0  0  0  0  0  0  0  0
  189.5510  173.7890  141.0270 F   0  0  0  0  0  0  0  0  0  0  0  0
  191.2140  175.0560  142.1810 O   0  0  0  0  0  1  0  0  0  0  0  0
  1  3  1  0  0  0  0
  2 12  1  1  0  0  0
  2  7  1  0  0  0  0
  4 17  1  6  0  0  0
  4  8  1  0  0  0  0
  4  6  1  0  0  0  0
  5  2  1  0  0  0  0
  6  1  1  1  0  0  0
  7  3  1  0  0  0  0
  8  5  1  1  0  0  0
  8  6  1  0  0  0  0
  9 16  2  0  0  0  0
  9 12  1  0  0  0  0
 10 13  1  0  0  0  0
 10 14  1  0  0  0  0
 11 15  1  0  0  0  0
 11 13  2  0  0  0  0
 12 10  2  0  0  0  0
 16 11  1  0  0  0  0
 18 17  1  0  0  0  0
 19 21  1  0  0  0  0
 19 20  1  0  0  0  0
 20 22  1  0  0  0  0
 21 20  1  0  0  0  0
 21 18  1  1  0  0  0
 22 26  1  0  0  0  0
 23 27  1  6  0  0  0
 23 26  1  0  0  0  0
 23 28  1  0  0  0  0
 23 25  1  0  0  0  0
 26 24  1  1  0  0  0
 26 25  1  0  0  0  0
M  END
>  <MODEL>
1

>  <REMARK>
 VINA RESULT:      -7.5      0.000      0.000
  Name = 
  6 active torsions:
  status: ('A' for Active; 'I' for Inactive)
    1  A    between atoms: O_2  and  N_3
    2  A    between atoms: O_2  and  C_11
    3  A    between atoms: C_10  and  C_13
    4  A    between atoms: C_16  and  C_21
    5  A    between atoms: C_19  and  C_21
    6  A    between atoms: C_19  and  C_26
                            x       y       z     vdW  Elec       q    Type
                         _______ _______ _______ _____ _____    ______ ____

>  <TORSDO>
F 6

$$$$
=
 OpenBabel11052418093D

 28 32  0  0  1  0  0  0  0  0999 V2000
  189.3240  177.3220  144.5660 C   0  0  0  0  0  2  0  0  0  0  0  0
  191.8910  176.1320  145.7420 C   0  0  2  0  0  3  0  0  0  0  0  0
  190.7090  177.9290  144.4080 C   0  0  0  0  0  2  0  0  0  0  0  0
  188.3480  175.9310  146.3310 C   0  0  1  0  0  3  0  0  0  0  0  0
  190.6070  175.3730  146.0690 C   0  0  0  0  0  2  0  0  0  0  0  0
  188.9480  177.2290  146.0480 C   0  0  1  0  0  3  0  0  0  0  0  0
  191.7720  176.8370  144.3930 C   0  0  0  0  0  2  0  0  0  0  0  0
  189.6970  176.2160  146.8440 N   0  0  1  0  0  0  0  0  0  0  0  0
  192.9460  173.8670  145.3660 C   0  0  0  0  0  3  0  0  0  0  0  0
  194.3460  175.7160  146.0740 C   0  0  0  0  0  0  0  0  0  0  0  0
  195.3180  173.5280  145.7000 C   0  0  0  0  0  0  0  0  0  0  0  0
  193.0780  175.2150  145.7400 C   0  0  0  0  0  0  0  0  0  0  0  0
  195.4600  174.8710  146.0570 C   0  0  0  0  0  3  0  0  0  0  0  0
  194.5080  177.0210  146.4090 F   0  0  0  0  0  0  0  0  0  0  0  0
  196.4000  172.7130  145.6850 F   0  0  0  0  0  0  0  0  0  0  0  0
  194.0620  173.0280  145.3490 C   0  0  0  0  0  3  0  0  0  0  0  0
  187.3420  176.0630  147.4560 C   0  0  0  0  0  2  0  0  0  0  0  0
  186.5950  177.3770  147.3050 C   0  0  0  0  0  2  0  0  0  0  0  0
  184.5160  178.3780  146.5570 C   0  0  0  0  0  2  0  0  0  0  0  0
  185.3580  178.2150  145.3630 N   0  0  0  0  0  0  0  0  0  0  0  0
  185.3650  177.2010  146.4310 C   0  0  1  0  0  3  0  0  0  0  0  0
  184.5460  177.7460  144.3820 O   0  0  0  0  0  0  0  0  0  0  0  0
  186.0390  178.7140  142.6030 C   0  0  2  0  0  0  0  0  0  0  0  0
  185.9370  176.2660  143.1110 O   0  0  0  0  0  1  0  0  0  0  0  0
  184.7950  178.1000  141.9840 C   0  0  0  0  0  2  0  0  0  0  0  0
  185.3750  177.5350  143.2710 C   0  0  1  0  0  0  0  0  0  0  0  0
  185.8820  179.9620  143.1780 F   0  0  0  0  0  0  0  0  0  0  0  0
  187.2160  178.4410  141.9090 O   0  0  0  0  0  1  0  0  0  0  0  0
  2 12  1  6  0  0  0
  2  5  1  0  0  0  0
  3  1  1  0  0  0  0
  4  8  1  0  0  0  0
  4 17  1  1  0  0  0
  6  1  1  6  0  0  0
  6  4  1  0  0  0  0
  6  8  1  0  0  0  0
  7  3  1  0  0  0  0
  7  2  1  0  0  0  0
  8  5  1  6  0  0  0
  9 12  1  0  0  0  0
 10 14  1  0  0  0  0
 11 13  2  0  0  0  0
 12 10  2  0  0  0  0
 13 10  1  0  0  0  0
 15 11  1  0  0  0  0
 16  9  2  0  0  0  0
 16 11  1  0  0  0  0
 18 17  1  0  0  0  0
 20 21  1  0  0  0  0
 20 19  1  0  0  0  0
 21 19  1  0  0  0  0
 21 18  1  1  0  0  0
 22 20  1  0  0  0  0
 23 28  1  6  0  0  0
 23 27  1  0  0  0  0
 23 26  1  0  0  0  0
 25 23  1  0  0  0  0
 25 26  1  0  0  0  0
 26 24  1  6  0  0  0
 26 22  1  0  0  0  0
M  END
>  <MODEL>
2

>  <REMARK>
 VINA RESULT:      -7.2      2.887      5.197
  Name = 
  6 active torsions:
  status: ('A' for Active; 'I' for Inactive)
    1  A    between atoms: O_2  and  N_3
    2  A    between atoms: O_2  and  C_11
    3  A    between atoms: C_10  and  C_13
    4  A    between atoms: C_16  and  C_21
    5  A    between atoms: C_19  and  C_21
    6  A    between atoms: C_19  and  C_26
                            x       y       z     vdW  Elec       q    Type
                         _______ _______ _______ _____ _____    ______ ____

>  <TORSDO>
F 6

$$$$
=
 OpenBabel11052418093D

 28 32  0  0  1  0  0  0  0  0999 V2000
  186.4130  177.9030  147.6140 C   0  0  0  0  0  2  0  0  0  0  0  0
  186.0680  178.3940  144.6100 C   0  0  2  0  0  3  0  0  0  0  0  0
  185.8820  179.1910  147.0040 C   0  0  0  0  0  2  0  0  0  0  0  0
  187.9610  176.2110  146.7530 C   0  0  1  0  0  3  0  0  0  0  0  0
  186.6630  177.0400  144.9890 C   0  0  0  0  0  2  0  0  0  0  0  0
  187.8310  177.6190  147.1100 C   0  0  1  0  0  3  0  0  0  0  0  0
  185.1360  178.9000  145.7080 C   0  0  0  0  0  2  0  0  0  0  0  0
  187.9400  177.2170  145.6790 N   0  0  1  0  0  0  0  0  0  0  0  0
  183.9280  178.3120  143.2700 C   0  0  0  0  0  3  0  0  0  0  0  0
  186.0510  178.2920  142.0990 C   0  0  0  0  0  0  0  0  0  0  0  0
  183.9740  178.2170  140.8530 C   0  0  0  0  0  0  0  0  0  0  0  0
  185.3320  178.3170  143.3050 C   0  0  0  0  0  0  0  0  0  0  0  0
  185.3710  178.2370  140.8790 C   0  0  0  0  0  3  0  0  0  0  0  0
  187.4070  178.3270  142.1020 F   0  0  0  0  0  0  0  0  0  0  0  0
  183.3190  178.1640  139.6680 F   0  0  0  0  0  0  0  0  0  0  0  0
  183.2530  178.2590  142.0480 C   0  0  0  0  0  3  0  0  0  0  0  0
  189.3850  175.7510  146.9870 C   0  0  0  0  0  2  0  0  0  0  0  0
  190.3420  176.7510  146.3610 C   0  0  0  0  0  2  0  0  0  0  0  0
  191.6540  177.0620  144.3450 C   0  0  0  0  0  2  0  0  0  0  0  0
  192.5910  176.6370  145.3960 N   0  0  0  0  0  0  0  0  0  0  0  0
  191.2300  176.0760  145.3310 C   0  0  1  0  0  3  0  0  0  0  0  0
  193.4190  175.7260  144.8260 O   0  0  0  0  0  0  0  0  0  0  0  0
  195.6300  176.1190  143.6920 C   0  0  2  0  0  0  0  0  0  0  0  0
  194.9020  177.3770  145.7290 O   0  0  0  0  0  1  0  0  0  0  0  0
  195.8080  175.2600  144.9320 C   0  0  0  0  0  2  0  0  0  0  0  0
  194.6980  176.2970  144.8660 C   0  0  1  0  0  0  0  0  0  0  0  0
  195.1460  175.4750  142.5680 F   0  0  0  0  0  0  0  0  0  0  0  0
  196.6070  177.0990  143.5330 O   0  0  0  0  0  1  0  0  0  0  0  0
  2 12  1  6  0  0  0
  2  5  1  0  0  0  0
  2  7  1  0  0  0  0
  3  1  1  0  0  0  0
  4 17  1  1  0  0  0
  4  6  1  0  0  0  0
  6  1  1  6  0  0  0
  7  3  1  0  0  0  0
  8  5  1  6  0  0  0
  8  4  1  0  0  0  0
  8  6  1  0  0  0  0
  9 12  1  0  0  0  0
 10 14  1  0  0  0  0
 10 12  2  0  0  0  0
 11 13  2  0  0  0  0
 11 16  1  0  0  0  0
 13 10  1  0  0  0  0
 15 11  1  0  0  0  0
 16  9  2  0  0  0  0
 18 17  1  0  0  0  0
 19 21  1  0  0  0  0
 19 20  1  0  0  0  0
 21 20  1  0  0  0  0
 21 18  1  1  0  0  0
 22 26  1  0  0  0  0
 22 20  1  0  0  0  0
 23 27  1  6  0  0  0
 23 26  1  0  0  0  0
 23 25  1  0  0  0  0
 26 25  1  0  0  0  0
 26 24  1  1  0  0  0
 28 23  1  0  0  0  0
M  END
>  <MODEL>
3

>  <REMARK>
 VINA RESULT:      -7.2      3.347      6.436
  Name = 
  6 active torsions:
  status: ('A' for Active; 'I' for Inactive)
    1  A    between atoms: O_2  and  N_3
    2  A    between atoms: O_2  and  C_11
    3  A    between atoms: C_10  and  C_13
    4  A    between atoms: C_16  and  C_21
    5  A    between atoms: C_19  and  C_21
    6  A    between atoms: C_19  and  C_26
                            x       y       z     vdW  Elec       q    Type
                         _______ _______ _______ _____ _____    ______ ____

>  <TORSDO>
F 6

$$$$
=
 OpenBabel11052418093D

 28 32  0  0  1  0  0  0  0  0999 V2000
  190.8730  175.5130  146.5900 C   0  0  0  0  0  2  0  0  0  0  0  0
  188.4950  177.1690  145.5980 C   0  0  2  0  0  3  0  0  0  0  0  0
  190.6570  176.9860  146.9000 C   0  0  0  0  0  2  0  0  0  0  0  0
  190.1930  174.1320  144.6840 C   0  0  1  0  0  3  0  0  0  0  0  0
  188.5270  175.7180  145.1230 C   0  0  0  0  0  2  0  0  0  0  0  0
  190.9800  175.2950  145.0780 C   0  0  1  0  0  3  0  0  0  0  0  0
  189.1690  177.3050  146.9610 C   0  0  0  0  0  2  0  0  0  0  0  0
  189.7160  175.4730  144.3080 N   0  0  1  0  0  0  0  0  0  0  0  0
  186.6180  178.6190  144.7260 C   0  0  0  0  0  3  0  0  0  0  0  0
  186.2140  177.2030  146.6520 C   0  0  0  0  0  0  0  0  0  0  0  0
  184.4420  178.6080  145.7830 C   0  0  0  0  0  0  0  0  0  0  0  0
  187.0880  177.6860  145.6650 C   0  0  0  0  0  0  0  0  0  0  0  0
  184.8970  177.6670  146.7110 C   0  0  0  0  0  3  0  0  0  0  0  0
  186.6320  176.2780  147.5530 F   0  0  0  0  0  0  0  0  0  0  0  0
  183.1650  179.0560  145.8430 F   0  0  0  0  0  0  0  0  0  0  0  0
  185.3010  179.0790  144.7880 C   0  0  0  0  0  3  0  0  0  0  0  0
  190.8270  173.4650  143.4810 C   0  0  0  0  0  2  0  0  0  0  0  0
  189.7330  172.9370  142.5690 C   0  0  0  0  0  2  0  0  0  0  0  0
  188.5460  173.2720  140.4800 C   0  0  0  0  0  2  0  0  0  0  0  0
  188.1320  174.3590  141.3800 N   0  0  0  0  0  0  0  0  0  0  0  0
  189.5200  173.8660  141.3870 C   0  0  1  0  0  3  0  0  0  0  0  0
  188.1220  175.4920  140.6330 O   0  0  0  0  0  0  0  0  0  0  0  0
  186.6610  177.5380  140.5460 C   0  0  2  0  0  0  0  0  0  0  0  0
  186.6340  175.9260  142.4590 O   0  0  0  0  0  1  0  0  0  0  0  0
  187.8600  177.7730  141.4480 C   0  0  0  0  0  2  0  0  0  0  0  0
  187.2670  176.3800  141.3010 C   0  0  1  0  0  0  0  0  0  0  0  0
  186.8940  177.6230  139.1860 F   0  0  0  0  0  0  0  0  0  0  0  0
  185.4610  178.0350  141.0510 O   0  0  0  0  0  1  0  0  0  0  0  0
  1  3  1  0  0  0  0
  2 12  1  1  0  0  0
  2  7  1  0  0  0  0
  3  7  1  0  0  0  0
  4 17  1  6  0  0  0
  4  6  1  0  0  0  0
  5  2  1  0  0  0  0
  6  1  1  1  0  0  0
  8  4  1  0  0  0  0
  8  6  1  0  0  0  0
  8  5  1  1  0  0  0
  9 16  2  0  0  0  0
  9 12  1  0  0  0  0
 10 13  1  0  0  0  0
 10 14  1  0  0  0  0
 11 15  1  0  0  0  0
 11 13  2  0  0  0  0
 12 10  2  0  0  0  0
 16 11  1  0  0  0  0
 18 17  1  0  0  0  0
 19 20  1  0  0  0  0
 19 21  1  0  0  0  0
 20 21  1  0  0  0  0
 21 18  1  1  0  0  0
 22 26  1  0  0  0  0
 22 20  1  0  0  0  0
 23 27  1  6  0  0  0
 23 28  1  0  0  0  0
 23 26  1  0  0  0  0
 23 25  1  0  0  0  0
 26 25  1  0  0  0  0
 26 24  1  1  0  0  0
M  END
>  <MODEL>
4

>  <REMARK>
 VINA RESULT:      -7.1      2.435      5.246
  Name = 
  6 active torsions:
  status: ('A' for Active; 'I' for Inactive)
    1  A    between atoms: O_2  and  N_3
    2  A    between atoms: O_2  and  C_11
    3  A    between atoms: C_10  and  C_13
    4  A    between atoms: C_16  and  C_21
    5  A    between atoms: C_19  and  C_21
    6  A    between atoms: C_19  and  C_26
                            x       y       z     vdW  Elec       q    Type
                         _______ _______ _______ _____ _____    ______ ____

>  <TORSDO>
F 6

$$$$
=
 OpenBabel11052418093D

 28 32  0  0  1  0  0  0  0  0999 V2000
  185.1920  178.0250  141.0990 C   0  0  0  0  0  2  0  0  0  0  0  0
  187.6210  176.4020  142.0210 C   0  0  2  0  0  3  0  0  0  0  0  0
  186.4730  177.8550  140.2960 C   0  0  0  0  0  2  0  0  0  0  0  0
  184.7670  178.0050  143.5110 C   0  0  1  0  0  3  0  0  0  0  0  0
  186.4630  176.4700  143.0140 C   0  0  0  0  0  2  0  0  0  0  0  0
  185.4890  178.6900  142.4460 C   0  0  1  0  0  3  0  0  0  0  0  0
  187.1080  176.5010  140.5860 C   0  0  0  0  0  2  0  0  0  0  0  0
  186.2280  177.8510  143.4320 N   0  0  1  0  0  0  0  0  0  0  0  0
  187.8160  173.8820  142.0130 C   0  0  0  0  0  3  0  0  0  0  0  0
  189.7810  175.2140  142.5090 C   0  0  0  0  0  0  0  0  0  0  0  0
  189.9240  172.7960  142.4890 C   0  0  0  0  0  0  0  0  0  0  0  0
  188.4130  175.1400  142.1980 C   0  0  0  0  0  0  0  0  0  0  0  0
  190.5300  174.0430  142.6590 C   0  0  0  0  0  3  0  0  0  0  0  0
  190.3910  176.4170  142.6630 F   0  0  0  0  0  0  0  0  0  0  0  0
  190.6540  171.6630  142.6350 F   0  0  0  0  0  0  0  0  0  0  0  0
  188.5690  172.7160  142.1620 C   0  0  0  0  0  3  0  0  0  0  0  0
  184.4210  178.9880  144.6120 C   0  0  0  0  0  2  0  0  0  0  0  0
  184.4560  178.2710  145.9500 C   0  0  0  0  0  2  0  0  0  0  0  0
  185.7160  177.9160  147.9920 C   0  0  0  0  0  2  0  0  0  0  0  0
  186.5540  177.4230  146.8890 N   0  0  0  0  0  0  0  0  0  0  0  0
  185.7180  178.6240  146.7180 C   0  0  1  0  0  3  0  0  0  0  0  0
  187.8150  177.8550  147.1420 O   0  0  0  0  0  0  0  0  0  0  0  0
  190.1140  176.8460  146.9790 C   0  0  2  0  0  0  0  0  0  0  0  0
  188.0840  175.7780  145.9800 O   0  0  0  0  0  1  0  0  0  0  0  0
  189.7390  177.5410  145.6810 C   0  0  0  0  0  2  0  0  0  0  0  0
  188.6670  176.9090  146.5540 C   0  0  1  0  0  0  0  0  0  0  0  0
  190.5260  177.6660  148.0120 F   0  0  0  0  0  0  0  0  0  0  0  0
  190.7490  175.6180  146.8050 O   0  0  0  0  0  1  0  0  0  0  0  0
  2 12  1  6  0  0  0
  2  5  1  0  0  0  0
  3  7  1  0  0  0  0
  3  1  1  0  0  0  0
  4 17  1  1  0  0  0
  6  1  1  6  0  0  0
  6  8  1  0  0  0  0
  6  4  1  0  0  0  0
  7  2  1  0  0  0  0
  8  5  1  6  0  0  0
  8  4  1  0  0  0  0
  9 16  2  0  0  0  0
  9 12  1  0  0  0  0
 10 13  1  0  0  0  0
 10 14  1  0  0  0  0
 11 15  1  0  0  0  0
 11 13  2  0  0  0  0
 12 10  2  0  0  0  0
 16 11  1  0  0  0  0
 17 18  1  0  0  0  0
 20 22  1  0  0  0  0
 20 19  1  0  0  0  0
 21 18  1  6  0  0  0
 21 20  1  0  0  0  0
 21 19  1  0  0  0  0
 23 28  1  6  0  0  0
 23 27  1  0  0  0  0
 25 26  1  0  0  0  0
 25 23  1  0  0  0  0
 26 24  1  6  0  0  0
 26 23  1  0  0  0  0
 26 22  1  0  0  0  0
M  END
>  <MODEL>
5

>  <REMARK>
 VINA RESULT:      -7.0      2.192      5.232
  Name = 
  6 active torsions:
  status: ('A' for Active; 'I' for Inactive)
    1  A    between atoms: O_2  and  N_3
    2  A    between atoms: O_2  and  C_11
    3  A    between atoms: C_10  and  C_13
    4  A    between atoms: C_16  and  C_21
    5  A    between atoms: C_19  and  C_21
    6  A    between atoms: C_19  and  C_26
                            x       y       z     vdW  Elec       q    Type
                         _______ _______ _______ _____ _____    ______ ____

>  <TORSDO>
F 6

$$$$
=
 OpenBabel11052418093D

 28 32  0  0  1  0  0  0  0  0999 V2000
  186.7550  177.4840  147.5280 C   0  0  0  0  0  2  0  0  0  0  0  0
  186.2580  178.2330  144.6000 C   0  0  2  0  0  3  0  0  0  0  0  0
  186.1340  178.7930  147.0640 C   0  0  0  0  0  2  0  0  0  0  0  0
  188.3470  175.9660  146.4520 C   0  0  1  0  0  3  0  0  0  0  0  0
  186.9360  176.8840  144.8250 C   0  0  0  0  0  2  0  0  0  0  0  0
  188.1620  177.3250  146.9460 C   0  0  1  0  0  3  0  0  0  0  0  0
  185.3500  178.5840  145.7750 C   0  0  0  0  0  2  0  0  0  0  0  0
  188.2310  177.0650  145.4800 N   0  0  1  0  0  0  0  0  0  0  0  0
  184.0680  178.2890  143.3410 C   0  0  0  0  0  3  0  0  0  0  0  0
  186.1430  178.2350  142.0890 C   0  0  0  0  0  0  0  0  0  0  0  0
  184.0210  178.2910  140.9220 C   0  0  0  0  0  0  0  0  0  0  0  0
  185.4710  178.2380  143.3220 C   0  0  0  0  0  0  0  0  0  0  0  0
  185.4180  178.2570  140.8940 C   0  0  0  0  0  3  0  0  0  0  0  0
  187.5000  178.2170  142.0410 F   0  0  0  0  0  0  0  0  0  0  0  0
  183.3210  178.3120  139.7620 F   0  0  0  0  0  0  0  0  0  0  0  0
  183.3470  178.3120  142.1450 C   0  0  0  0  0  3  0  0  0  0  0  0
  189.8020  175.5630  146.5870 C   0  0  0  0  0  2  0  0  0  0  0  0
  190.0270  174.2530  145.8530 C   0  0  0  0  0  2  0  0  0  0  0  0
  190.5440  173.2250  143.7170 C   0  0  0  0  0  2  0  0  0  0  0  0
  189.3180  174.0120  143.5210 N   0  0  0  0  0  0  0  0  0  0  0  0
  190.3920  174.5030  144.4000 C   0  0  1  0  0  3  0  0  0  0  0  0
  189.4600  174.6520  142.3320 O   0  0  0  0  0  0  0  0  0  0  0  0
  188.9840  173.6420  140.0790 C   0  0  2  0  0  0  0  0  0  0  0  0
  187.4300  173.4170  142.0270 O   0  0  0  0  0  1  0  0  0  0  0  0
  188.1910  174.9230  140.2690 C   0  0  0  0  0  2  0  0  0  0  0  0
  188.5410  174.0480  141.4630 C   0  0  1  0  0  0  0  0  0  0  0  0
  190.3180  173.7920  139.7510 F   0  0  0  0  0  0  0  0  0  0  0  0
  188.2610  172.6080  139.4840 O   0  0  0  0  0  1  0  0  0  0  0  0
  2 12  1  6  0  0  0
  2  5  1  0  0  0  0
  2  7  1  0  0  0  0
  3  1  1  0  0  0  0
  4 17  1  1  0  0  0
  4  6  1  0  0  0  0
  6  1  1  6  0  0  0
  7  3  1  0  0  0  0
  8  5  1  6  0  0  0
  8  4  1  0  0  0  0
  8  6  1  0  0  0  0
 10 12  2  0  0  0  0
 11 16  1  0  0  0  0
 12  9  1  0  0  0  0
 13 11  2  0  0  0  0
 13 10  1  0  0  0  0
 14 10  1  0  0  0  0
 15 11  1  0  0  0  0
 16  9  2  0  0  0  0
 18 17  1  0  0  0  0
 19 21  1  0  0  0  0
 20 19  1  0  0  0  0
 20 21  1  0  0  0  0
 21 18  1  1  0  0  0
 22 20  1  0  0  0  0
 23 28  1  6  0  0  0
 23 25  1  0  0  0  0
 23 26  1  0  0  0  0
 25 26  1  0  0  0  0
 26 24  1  1  0  0  0
 26 22  1  0  0  0  0
 27 23  1  0  0  0  0
M  END
>  <MODEL>
6

>  <REMARK>
 VINA RESULT:      -6.8      2.566      5.709
  Name = 
  6 active torsions:
  status: ('A' for Active; 'I' for Inactive)
    1  A    between atoms: O_2  and  N_3
    2  A    between atoms: O_2  and  C_11
    3  A    between atoms: C_10  and  C_13
    4  A    between atoms: C_16  and  C_21
    5  A    between atoms: C_19  and  C_21
    6  A    between atoms: C_19  and  C_26
                            x       y       z     vdW  Elec       q    Type
                         _______ _______ _______ _____ _____    ______ ____

>  <TORSDO>
F 6

$$$$
=
 OpenBabel11052418093D

 28 32  0  0  1  0  0  0  0  0999 V2000
  190.5210  174.7050  146.2630 C   0  0  0  0  0  2  0  0  0  0  0  0
  188.3980  176.9070  146.4280 C   0  0  2  0  0  3  0  0  0  0  0  0
  189.6080  174.9370  147.4570 C   0  0  0  0  0  2  0  0  0  0  0  0
  191.3990  176.2350  144.5630 C   0  0  1  0  0  3  0  0  0  0  0  0
  189.2300  176.8940  145.1480 C   0  0  0  0  0  2  0  0  0  0  0  0
  191.3730  175.9490  145.9930 C   0  0  1  0  0  3  0  0  0  0  0  0
  188.2670  175.4980  147.0010 C   0  0  0  0  0  2  0  0  0  0  0  0
  190.6410  177.1290  145.4530 N   0  0  1  0  0  0  0  0  0  0  0  0
  186.3250  177.1950  145.0120 C   0  0  0  0  0  3  0  0  0  0  0  0
  186.4490  178.3140  147.1590 C   0  0  0  0  0  0  0  0  0  0  0  0
  184.4790  178.5610  145.7710 C   0  0  0  0  0  0  0  0  0  0  0  0
  187.0380  177.4920  146.1850 C   0  0  0  0  0  0  0  0  0  0  0  0
  185.1750  178.8490  146.9480 C   0  0  0  0  0  3  0  0  0  0  0  0
  187.1020  178.5940  148.3160 F   0  0  0  0  0  0  0  0  0  0  0  0
  183.2440  179.0820  145.5690 F   0  0  0  0  0  0  0  0  0  0  0  0
  185.0520  177.7300  144.8060 C   0  0  0  0  0  3  0  0  0  0  0  0
  192.7160  176.8880  144.1940 C   0  0  0  0  0  2  0  0  0  0  0  0
  193.7520  176.5550  145.2530 C   0  0  0  0  0  2  0  0  0  0  0  0
  195.4960  174.9750  145.8430 C   0  0  0  0  0  2  0  0  0  0  0  0
  194.4250  174.2000  145.1980 N   0  0  0  0  0  0  0  0  0  0  0  0
  194.7630  175.5530  144.7240 C   0  0  1  0  0  3  0  0  0  0  0  0
  195.0360  173.3260  144.3600 O   0  0  0  0  0  0  0  0  0  0  0  0
  195.4310  171.1920  145.6310 C   0  0  2  0  0  0  0  0  0  0  0  0
  193.2020  171.8190  144.6840 O   0  0  0  0  0  1  0  0  0  0  0  0
  195.4020  170.9270  144.1360 C   0  0  0  0  0  2  0  0  0  0  0  0
  194.5770  172.0550  144.7350 C   0  0  1  0  0  0  0  0  0  0  0  0
  196.6010  171.7300  146.1330 F   0  0  0  0  0  0  0  0  0  0  0  0
  194.7520  170.2410  146.3910 O   0  0  0  0  0  1  0  0  0  0  0  0
  1  3  1  0  0  0  0
  2 12  1  6  0  0  0
  2  7  1  0  0  0  0
  4 17  1  1  0  0  0
  4  8  1  0  0  0  0
  4  6  1  0  0  0  0
  5  2  1  0  0  0  0
  6  1  1  6  0  0  0
  7  3  1  0  0  0  0
  8  5  1  6  0  0  0
  8  6  1  0  0  0  0
  9 12  1  0  0  0  0
 10 14  1  0  0  0  0
 11 13  2  0  0  0  0
 12 10  2  0  0  0  0
 13 10  1  0  0  0  0
 15 11  1  0  0  0  0
 16  9  2  0  0  0  0
 16 11  1  0  0  0  0
 17 18  1  0  0  0  0
 20 19  1  0  0  0  0
 21 20  1  0  0  0  0
 21 18  1  1  0  0  0
 21 19  1  0  0  0  0
 22 26  1  0  0  0  0
 22 20  1  0  0  0  0
 23 27  1  1  0  0  0
 23 28  1  0  0  0  0
 25 26  1  0  0  0  0
 25 23  1  0  0  0  0
 26 24  1  1  0  0  0
 26 23  1  0  0  0  0
M  END
>  <MODEL>
7

>  <REMARK>
 VINA RESULT:      -6.8      4.005      7.016
  Name = 
  6 active torsions:
  status: ('A' for Active; 'I' for Inactive)
    1  A    between atoms: O_2  and  N_3
    2  A    between atoms: O_2  and  C_11
    3  A    between atoms: C_10  and  C_13
    4  A    between atoms: C_16  and  C_21
    5  A    between atoms: C_19  and  C_21
    6  A    between atoms: C_19  and  C_26
                            x       y       z     vdW  Elec       q    Type
                         _______ _______ _______ _____ _____    ______ ____

>  <TORSDO>
F 6

$$$$
=
 OpenBabel11052418093D

 28 32  0  0  1  0  0  0  0  0999 V2000
  190.8100  175.4810  143.8530 C   0  0  0  0  0  2  0  0  0  0  0  0
  188.1420  176.1740  145.1900 C   0  0  2  0  0  3  0  0  0  0  0  0
  189.4940  174.7700  143.5770 C   0  0  0  0  0  2  0  0  0  0  0  0
  191.6490  176.6370  145.8430 C   0  0  1  0  0  3  0  0  0  0  0  0
  189.3420  176.9940  145.6580 C   0  0  0  0  0  2  0  0  0  0  0  0
  191.1850  175.3520  145.3330 C   0  0  1  0  0  3  0  0  0  0  0  0
  188.3230  175.7310  143.7400 C   0  0  0  0  0  2  0  0  0  0  0  0
  190.3400  176.1280  146.2840 N   0  0  1  0  0  0  0  0  0  0  0  0
  186.3090  177.6300  144.2390 C   0  0  0  0  0  3  0  0  0  0  0  0
  186.1940  176.9630  146.5670 C   0  0  0  0  0  0  0  0  0  0  0  0
  184.4560  178.3570  145.6150 C   0  0  0  0  0  0  0  0  0  0  0  0
  186.8660  176.9500  145.3340 C   0  0  0  0  0  0  0  0  0  0  0  0
  184.9950  177.6690  146.7050 C   0  0  0  0  0  3  0  0  0  0  0  0
  186.6930  176.2890  147.6340 F   0  0  0  0  0  0  0  0  0  0  0  0
  183.2940  179.0400  145.7520 F   0  0  0  0  0  0  0  0  0  0  0  0
  185.1100  178.3330  144.3810 C   0  0  0  0  0  3  0  0  0  0  0  0
  192.6720  176.4160  146.9390 C   0  0  0  0  0  2  0  0  0  0  0  0
  193.6520  175.3430  146.4980 C   0  0  0  0  0  2  0  0  0  0  0  0
  195.7290  174.8960  145.3270 C   0  0  0  0  0  2  0  0  0  0  0  0
  194.7960  175.4480  144.3340 N   0  0  0  0  0  0  0  0  0  0  0  0
  194.8040  175.9520  145.7180 C   0  0  1  0  0  3  0  0  0  0  0  0
  195.5070  176.3320  143.5900 O   0  0  0  0  0  0  0  0  0  0  0  0
  196.1510  175.2760  141.3990 C   0  0  2  0  0  0  0  0  0  0  0  0
  193.8310  176.0690  141.8990 O   0  0  0  0  0  1  0  0  0  0  0  0
  196.0710  176.7870  141.2630 C   0  0  0  0  0  2  0  0  0  0  0  0
  195.1810  176.0540  142.2550 C   0  0  1  0  0  0  0  0  0  0  0  0
  197.2930  174.7770  141.9970 F   0  0  0  0  0  0  0  0  0  0  0  0
  195.5960  174.5780  140.3280 O   0  0  0  0  0  1  0  0  0  0  0  0
  2 12  1  6  0  0  0
  2  5  1  0  0  0  0
  3  7  1  0  0  0  0
  3  1  1  0  0  0  0
  4  8  1  0  0  0  0
  4 17  1  1  0  0  0
  6  1  1  6  0  0  0
  6  4  1  0  0  0  0
  6  8  1  0  0  0  0
  7  2  1  0  0  0  0
  8  5  1  6  0  0  0
  9 16  2  0  0  0  0
  9 12  1  0  0  0  0
 10 13  1  0  0  0  0
 10 14  1  0  0  0  0
 11 15  1  0  0  0  0
 11 13  2  0  0  0  0
 12 10  2  0  0  0  0
 16 11  1  0  0  0  0
 18 17  1  0  0  0  0
 19 21  1  0  0  0  0
 20 19  1  0  0  0  0
 20 21  1  0  0  0  0
 21 18  1  1  0  0  0
 22 20  1  0  0  0  0
 23 28  1  6  0  0  0
 23 27  1  0  0  0  0
 23 26  1  0  0  0  0
 25 23  1  0  0  0  0
 25 26  1  0  0  0  0
 26 24  1  6  0  0  0
 26 22  1  0  0  0  0
M  END
>  <MODEL>
8

>  <REMARK>
 VINA RESULT:      -6.7      3.819      6.858
  Name = 
  6 active torsions:
  status: ('A' for Active; 'I' for Inactive)
    1  A    between atoms: O_2  and  N_3
    2  A    between atoms: O_2  and  C_11
    3  A    between atoms: C_10  and  C_13
    4  A    between atoms: C_16  and  C_21
    5  A    between atoms: C_19  and  C_21
    6  A    between atoms: C_19  and  C_26
                            x       y       z     vdW  Elec       q    Type
                         _______ _______ _______ _____ _____    ______ ____

>  <TORSDO>
F 6

$$$$
=
 OpenBabel11052418093D

 28 32  0  0  1  0  0  0  0  0999 V2000
  189.3040  175.6250  145.4110 C   0  0  0  0  0  2  0  0  0  0  0  0
  191.9450  174.0770  145.3090 C   0  0  2  0  0  3  0  0  0  0  0  0
  189.8180  174.7190  146.5190 C   0  0  0  0  0  2  0  0  0  0  0  0
  189.6540  175.5930  142.9870 C   0  0  1  0  0  3  0  0  0  0  0  0
  191.6130  174.8890  144.0590 C   0  0  0  0  0  2  0  0  0  0  0  0
  189.1240  174.8330  144.1130 C   0  0  1  0  0  3  0  0  0  0  0  0
  191.3410  174.7260  146.5510 C   0  0  0  0  0  2  0  0  0  0  0  0
  190.3820  174.3970  143.4420 N   0  0  1  0  0  0  0  0  0  0  0  0
  194.2420  175.0390  145.7420 C   0  0  0  0  0  3  0  0  0  0  0  0
  194.0090  172.6480  145.4150 C   0  0  0  0  0  0  0  0  0  0  0  0
  196.1920  173.6120  145.8350 C   0  0  0  0  0  0  0  0  0  0  0  0
  193.4280  173.9250  145.4780 C   0  0  0  0  0  0  0  0  0  0  0  0
  195.3880  172.4960  145.5880 C   0  0  0  0  0  3  0  0  0  0  0  0
  193.2440  171.5500  145.1910 F   0  0  0  0  0  0  0  0  0  0  0  0
  197.5280  173.4600  146.0030 F   0  0  0  0  0  0  0  0  0  0  0  0
  195.6180  174.8820  145.9170 C   0  0  0  0  0  3  0  0  0  0  0  0
  188.8740  175.2610  141.7310 C   0  0  0  0  0  2  0  0  0  0  0  0
  187.6610  176.1710  141.6420 C   0  0  0  0  0  2  0  0  0  0  0  0
  186.8380  178.3870  142.1850 C   0  0  0  0  0  2  0  0  0  0  0  0
  186.6200  177.5530  143.3770 N   0  0  0  0  0  0  0  0  0  0  0  0
  187.8250  177.3790  142.5480 C   0  0  1  0  0  3  0  0  0  0  0  0
  186.9830  178.3080  144.4440 O   0  0  0  0  0  0  0  0  0  0  0  0
  184.8100  179.1530  145.3870 C   0  0  2  0  0  0  0  0  0  0  0  0
  185.7470  176.8990  145.9360 O   0  0  0  0  0  1  0  0  0  0  0  0
  185.9250  179.2830  146.4110 C   0  0  0  0  0  2  0  0  0  0  0  0
  185.9500  178.1640  145.3810 C   0  0  1  0  0  0  0  0  0  0  0  0
  184.7770  180.1160  144.3960 F   0  0  0  0  0  0  0  0  0  0  0  0
  183.6040  178.6920  145.9130 O   0  0  0  0  0  1  0  0  0  0  0  0
  1  3  1  0  0  0  0
  2 12  1  1  0  0  0
  2  7  1  0  0  0  0
  3  7  1  0  0  0  0
  4 17  1  6  0  0  0
  4  8  1  0  0  0  0
  4  6  1  0  0  0  0
  5  2  1  0  0  0  0
  6  1  1  1  0  0  0
  8  5  1  1  0  0  0
  8  6  1  0  0  0  0
  9 16  1  0  0  0  0
 10 12  1  0  0  0  0
 10 13  2  0  0  0  0
 11 16  2  0  0  0  0
 11 15  1  0  0  0  0
 12  9  2  0  0  0  0
 13 11  1  0  0  0  0
 14 10  1  0  0  0  0
 18 17  1  0  0  0  0
 19 21  1  0  0  0  0
 19 20  1  0  0  0  0
 20 22  1  0  0  0  0
 21 18  1  6  0  0  0
 21 20  1  0  0  0  0
 22 26  1  0  0  0  0
 23 27  1  6  0  0  0
 23 28  1  0  0  0  0
 23 25  1  0  0  0  0
 26 23  1  0  0  0  0
 26 24  1  1  0  0  0
 26 25  1  0  0  0  0
M  END
>  <MODEL>
9

>  <REMARK>
 VINA RESULT:      -6.6      3.469      5.485
  Name = 
  6 active torsions:
  status: ('A' for Active; 'I' for Inactive)
    1  A    between atoms: O_2  and  N_3
    2  A    between atoms: O_2  and  C_11
    3  A    between atoms: C_10  and  C_13
    4  A    between atoms: C_16  and  C_21
    5  A    between atoms: C_19  and  C_21
    6  A    between atoms: C_19  and  C_26
                            x       y       z     vdW  Elec       q    Type
                         _______ _______ _______ _____ _____    ______ ____

>  <TORSDO>
F 6

$$$$
