=
 OpenBabel11052421363D

 32 36  0  0  1  0  0  0  0  0999 V2000
  185.9340  178.4030  144.8630 C   0  0  2  0  0  3  0  0  0  0  0  0
  189.2000  176.0210  143.4780 C   0  0  0  0  0  0  0  0  0  0  0  0
  191.4450  176.6170  147.7950 C   0  0  0  0  0  3  0  0  0  0  0  0
  192.7010  176.0680  147.1820 C   0  0  0  0  0  2  0  0  0  0  0  0
  187.0500  177.0490  143.0330 C   0  0  0  0  0  0  0  0  0  0  0  0
  188.2650  177.4960  145.1800 C   0  0  0  0  0  3  0  0  0  0  0  0
  186.1570  179.4330  145.7600 F   0  0  0  0  0  0  0  0  0  0  0  0
  190.3280  176.7320  147.0720 C   0  0  0  0  0  3  0  0  0  0  0  0
  189.2140  176.6200  144.8270 C   0  0  0  0  0  0  0  0  0  0  0  0
  190.2760  176.2440  145.7210 N   0  0  0  0  0  0  0  0  0  0  0  0
  191.2660  174.8920  143.9760 C   0  0  0  0  0  0  0  0  0  0  0  0
  184.6620  177.7380  142.8150 C   0  0  1  0  0  3  0  0  0  0  0  0
  187.2470  178.0020  144.1940 C   0  0  2  0  0  3  0  0  0  0  0  0
  185.8940  176.9930  142.3660 C   0  0  0  0  0  3  0  0  0  0  0  0
  184.9650  178.8790  143.7880 C   0  0  0  0  0  2  0  0  0  0  0  0
  192.3980  174.9410  146.1960 C   0  0  0  0  0  2  0  0  0  0  0  0
  191.3180  175.3690  145.2370 C   0  0  0  0  0  0  0  0  0  0  0  0
  188.1180  176.2460  142.6250 O   0  0  0  0  0  0  0  0  0  0  0  0
  190.1670  175.2360  143.1110 N   0  0  0  0  0  0  0  0  0  0  0  0
  183.8780  178.2260  141.6430 C   0  0  0  0  0  0  0  0  0  0  0  0
  184.4710  178.5760  140.5850 O   0  0  0  0  0  0  0  0  0  0  0  0
  182.4880  178.2860  141.7350 O   0  0  0  0  0  0  0  0  0  0  0  0
  181.6610  178.2740  140.5810 C   0  0  0  0  0  1  0  0  0  0  0  0
  192.3150  173.9560  143.4550 C   0  0  0  0  0  2  0  0  0  0  0  0
  196.3390  176.6880  143.5140 C   0  0  0  0  0  1  0  0  0  0  0  0
  194.3030  175.3040  143.3680 N   0  0  0  0  0  0  0  0  0  0  0  0
  193.2530  174.7730  141.3350 C   0  0  0  0  0  0  0  0  0  0  0  0
  194.2180  175.5000  140.6390 C   0  0  0  0  0  3  0  0  0  0  0  0
  195.2360  176.1320  141.3450 C   0  0  0  0  0  3  0  0  0  0  0  0
  195.2650  176.0230  142.7330 C   0  0  0  0  0  0  0  0  0  0  0  0
  192.3320  174.1970  140.6960 O   0  0  0  0  0  0  0  0  0  0  0  0
  193.3210  174.6930  142.6990 N   0  0  0  0  0  0  0  0  0  0  0  0
  1  7  1  1  0  0  0
  2  9  1  0  0  0  0
  4  3  1  0  0  0  0
  5 13  1  0  0  0  0
  8  3  2  0  0  0  0
  9  6  2  0  0  0  0
  9 10  1  0  0  0  0
 10  8  1  0  0  0  0
 11 17  2  0  0  0  0
 12 20  1  6  0  0  0
 12 15  1  0  0  0  0
 13  1  1  0  0  0  0
 13  6  1  1  0  0  0
 14 12  1  0  0  0  0
 14  5  2  0  0  0  0
 15  1  1  0  0  0  0
 16  4  1  0  0  0  0
 17 10  1  0  0  0  0
 17 16  1  0  0  0  0
 18  5  1  0  0  0  0
 18  2  1  0  0  0  0
 19  2  2  0  0  0  0
 19 11  1  0  0  0  0
 20 22  1  0  0  0  0
 21 20  2  0  0  0  0
 23 22  1  0  0  0  0
 24 11  1  0  0  0  0
 27 32  1  0  0  0  0
 28 27  1  0  0  0  0
 28 29  2  0  0  0  0
 29 30  1  0  0  0  0
 30 26  2  0  0  0  0
 30 25  1  0  0  0  0
 31 27  2  0  0  0  0
 32 26  1  0  0  0  0
 32 24  1  0  0  0  0
M  END
>  <MODEL>
1

>  <REMARK>
 VINA RESULT:      -8.2      0.000      0.000
  Name = 
  4 active torsions:
  status: ('A' for Active; 'I' for Inactive)
    1  A    between atoms: C_1  and  O_10
    2  A    between atoms: C_1  and  C_19
    3  A    between atoms: C_16  and  C_27
    4  A    between atoms: C_27  and  N_32
                            x       y       z     vdW  Elec       q    Type
                         _______ _______ _______ _____ _____    ______ ____

>  <TORSDO>
F 4

$$$$
=
 OpenBabel11052421363D

 32 36  0  0  1  0  0  0  0  0999 V2000
  185.7320  178.4510  144.8730 C   0  0  2  0  0  3  0  0  0  0  0  0
  189.0470  176.1510  143.4670 C   0  0  0  0  0  0  0  0  0  0  0  0
  191.2320  176.6660  147.8240 C   0  0  0  0  0  3  0  0  0  0  0  0
  192.5030  176.1500  147.2120 C   0  0  0  0  0  2  0  0  0  0  0  0
  186.8880  177.1610  143.0230 C   0  0  0  0  0  0  0  0  0  0  0  0
  188.0710  177.5690  145.1950 C   0  0  0  0  0  3  0  0  0  0  0  0
  185.9300  179.4600  145.7990 F   0  0  0  0  0  0  0  0  0  0  0  0
  190.1230  176.7830  147.0910 C   0  0  0  0  0  3  0  0  0  0  0  0
  189.0370  176.7140  144.8300 C   0  0  0  0  0  0  0  0  0  0  0  0
  190.0930  176.3300  145.7270 N   0  0  0  0  0  0  0  0  0  0  0  0
  191.1230  175.0370  143.9600 C   0  0  0  0  0  0  0  0  0  0  0  0
  184.4940  177.8220  142.7930 C   0  0  1  0  0  3  0  0  0  0  0  0
  187.0580  178.0850  144.2100 C   0  0  2  0  0  3  0  0  0  0  0  0
  185.7410  177.1060  142.3400 C   0  0  0  0  0  3  0  0  0  0  0  0
  184.7690  178.9420  143.7980 C   0  0  0  0  0  2  0  0  0  0  0  0
  192.2270  175.0450  146.1940 C   0  0  0  0  0  2  0  0  0  0  0  0
  191.1530  175.4830  145.2330 C   0  0  0  0  0  0  0  0  0  0  0  0
  187.9710  176.3830  142.6070 O   0  0  0  0  0  0  0  0  0  0  0  0
  190.0290  175.3890  143.0910 N   0  0  0  0  0  0  0  0  0  0  0  0
  183.7170  178.3300  141.6250 C   0  0  0  0  0  0  0  0  0  0  0  0
  184.3020  178.5820  140.5350 O   0  0  0  0  0  0  0  0  0  0  0  0
  182.3410  178.5170  141.7550 O   0  0  0  0  0  0  0  0  0  0  0  0
  181.4430  178.2280  140.6940 C   0  0  0  0  0  1  0  0  0  0  0  0
  192.1910  174.1300  143.4280 C   0  0  0  0  0  2  0  0  0  0  0  0
  191.0260  172.6170  138.9540 C   0  0  0  0  0  1  0  0  0  0  0  0
  191.5790  173.2820  141.2630 N   0  0  0  0  0  0  0  0  0  0  0  0
  191.0680  171.9610  143.1380 C   0  0  0  0  0  0  0  0  0  0  0  0
  190.4960  170.9960  142.3110 C   0  0  0  0  0  3  0  0  0  0  0  0
  190.4770  171.2010  140.9350 C   0  0  0  0  0  3  0  0  0  0  0  0
  191.0320  172.3690  140.4190 C   0  0  0  0  0  0  0  0  0  0  0  0
  191.0890  171.7750  144.3850 O   0  0  0  0  0  0  0  0  0  0  0  0
  191.6020  173.0940  142.5870 N   0  0  0  0  0  0  0  0  0  0  0  0
  1  7  1  1  0  0  0
  2  9  1  0  0  0  0
  4  3  1  0  0  0  0
  5 13  1  0  0  0  0
  8  3  2  0  0  0  0
  9  6  2  0  0  0  0
  9 10  1  0  0  0  0
 10  8  1  0  0  0  0
 11 17  2  0  0  0  0
 12 20  1  6  0  0  0
 12 15  1  0  0  0  0
 13  1  1  0  0  0  0
 13  6  1  1  0  0  0
 14 12  1  0  0  0  0
 14  5  2  0  0  0  0
 15  1  1  0  0  0  0
 16  4  1  0  0  0  0
 17 10  1  0  0  0  0
 17 16  1  0  0  0  0
 18  5  1  0  0  0  0
 18  2  1  0  0  0  0
 19  2  2  0  0  0  0
 19 11  1  0  0  0  0
 20 22  1  0  0  0  0
 21 20  2  0  0  0  0
 23 22  1  0  0  0  0
 24 11  1  0  0  0  0
 25 30  1  0  0  0  0
 26 32  1  0  0  0  0
 27 31  2  0  0  0  0
 28 27  1  0  0  0  0
 29 28  2  0  0  0  0
 30 29  1  0  0  0  0
 30 26  2  0  0  0  0
 32 27  1  0  0  0  0
 32 24  1  0  0  0  0
M  END
>  <MODEL>
2

>  <REMARK>
 VINA RESULT:      -7.9      1.896      2.771
  Name = 
  4 active torsions:
  status: ('A' for Active; 'I' for Inactive)
    1  A    between atoms: C_1  and  O_10
    2  A    between atoms: C_1  and  C_19
    3  A    between atoms: C_16  and  C_27
    4  A    between atoms: C_27  and  N_32
                            x       y       z     vdW  Elec       q    Type
                         _______ _______ _______ _____ _____    ______ ____

>  <TORSDO>
F 4

$$$$
=
 OpenBabel11052421363D

 32 36  0  0  1  0  0  0  0  0999 V2000
  186.0750  178.0460  144.8760 C   0  0  2  0  0  3  0  0  0  0  0  0
  189.6540  176.4930  143.1340 C   0  0  0  0  0  0  0  0  0  0  0  0
  191.8140  176.5800  147.5340 C   0  0  0  0  0  3  0  0  0  0  0  0
  193.1350  176.3540  146.8550 C   0  0  0  0  0  2  0  0  0  0  0  0
  187.3700  177.2520  142.8460 C   0  0  0  0  0  0  0  0  0  0  0  0
  188.5190  177.4560  145.0650 C   0  0  0  0  0  3  0  0  0  0  0  0
  186.1460  178.9060  145.9580 F   0  0  0  0  0  0  0  0  0  0  0  0
  190.6880  176.6610  146.8220 C   0  0  0  0  0  3  0  0  0  0  0  0
  189.5870  176.8170  144.5720 C   0  0  0  0  0  0  0  0  0  0  0  0
  190.7000  176.4400  145.4010 N   0  0  0  0  0  0  0  0  0  0  0  0
  191.8720  175.6130  143.4520 C   0  0  0  0  0  0  0  0  0  0  0  0
  184.9040  177.6020  142.7110 C   0  0  1  0  0  3  0  0  0  0  0  0
  187.4280  177.9820  144.1720 C   0  0  2  0  0  3  0  0  0  0  0  0
  186.2310  177.1520  142.1550 C   0  0  0  0  0  3  0  0  0  0  0  0
  185.0370  178.5690  143.8900 C   0  0  0  0  0  2  0  0  0  0  0  0
  192.9990  175.4050  145.6650 C   0  0  0  0  0  2  0  0  0  0  0  0
  191.8600  175.8420  144.7820 C   0  0  0  0  0  0  0  0  0  0  0  0
  188.5440  176.7130  142.3160 O   0  0  0  0  0  0  0  0  0  0  0  0
  190.7270  175.9480  142.6450 N   0  0  0  0  0  0  0  0  0  0  0  0
  184.0470  178.1830  141.6370 C   0  0  0  0  0  0  0  0  0  0  0  0
  184.5540  178.5170  140.5300 O   0  0  0  0  0  0  0  0  0  0  0  0
  182.6820  178.3480  141.8730 O   0  0  0  0  0  0  0  0  0  0  0  0
  181.7260  178.2690  140.8260 C   0  0  0  0  0  1  0  0  0  0  0  0
  193.0470  174.9640  142.7860 C   0  0  0  0  0  2  0  0  0  0  0  0
  190.2970  170.9900  142.2270 C   0  0  0  0  0  1  0  0  0  0  0  0
  191.7810  172.9360  142.5370 N   0  0  0  0  0  0  0  0  0  0  0  0
  193.9940  172.7550  143.3050 C   0  0  0  0  0  0  0  0  0  0  0  0
  193.8570  171.3710  143.3950 C   0  0  0  0  0  3  0  0  0  0  0  0
  192.6470  170.7810  143.0430 C   0  0  0  0  0  3  0  0  0  0  0  0
  191.6010  171.5910  142.6080 C   0  0  0  0  0  0  0  0  0  0  0  0
  195.0900  173.2900  143.6210 O   0  0  0  0  0  0  0  0  0  0  0  0
  192.9390  173.5120  142.8720 N   0  0  0  0  0  0  0  0  0  0  0  0
  1  7  1  1  0  0  0
  2  9  1  0  0  0  0
  4  3  1  0  0  0  0
  5 13  1  0  0  0  0
  8  3  2  0  0  0  0
  9  6  2  0  0  0  0
  9 10  1  0  0  0  0
 10  8  1  0  0  0  0
 11 17  2  0  0  0  0
 12 20  1  6  0  0  0
 12 15  1  0  0  0  0
 13  1  1  0  0  0  0
 13  6  1  1  0  0  0
 14 12  1  0  0  0  0
 14  5  2  0  0  0  0
 15  1  1  0  0  0  0
 16  4  1  0  0  0  0
 17 10  1  0  0  0  0
 17 16  1  0  0  0  0
 18  5  1  0  0  0  0
 18  2  1  0  0  0  0
 19  2  2  0  0  0  0
 19 11  1  0  0  0  0
 20 22  1  0  0  0  0
 21 20  2  0  0  0  0
 23 22  1  0  0  0  0
 24 32  1  0  0  0  0
 24 11  1  0  0  0  0
 25 30  1  0  0  0  0
 26 30  2  0  0  0  0
 26 32  1  0  0  0  0
 27 28  1  0  0  0  0
 27 31  2  0  0  0  0
 29 28  2  0  0  0  0
 30 29  1  0  0  0  0
 32 27  1  0  0  0  0
M  END
>  <MODEL>
3

>  <REMARK>
 VINA RESULT:      -7.6      1.565      2.598
  Name = 
  4 active torsions:
  status: ('A' for Active; 'I' for Inactive)
    1  A    between atoms: C_1  and  O_10
    2  A    between atoms: C_1  and  C_19
    3  A    between atoms: C_16  and  C_27
    4  A    between atoms: C_27  and  N_32
                            x       y       z     vdW  Elec       q    Type
                         _______ _______ _______ _____ _____    ______ ____

>  <TORSDO>
F 4

$$$$
=
 OpenBabel11052421363D

 32 36  0  0  1  0  0  0  0  0999 V2000
  185.4720  177.7020  143.2350 C   0  0  2  0  0  3  0  0  0  0  0  0
  188.9230  175.2100  143.6140 C   0  0  0  0  0  0  0  0  0  0  0  0
  188.5170  173.9580  138.8920 C   0  0  0  0  0  3  0  0  0  0  0  0
  189.5100  172.8560  139.1310 C   0  0  0  0  0  2  0  0  0  0  0  0
  187.3340  176.7200  144.6490 C   0  0  0  0  0  0  0  0  0  0  0  0
  187.0220  175.9560  142.2820 C   0  0  0  0  0  3  0  0  0  0  0  0
  184.4600  177.3560  142.3580 F   0  0  0  0  0  0  0  0  0  0  0  0
  188.1500  174.7710  139.8850 C   0  0  0  0  0  3  0  0  0  0  0  0
  188.1910  175.3060  142.3360 C   0  0  0  0  0  0  0  0  0  0  0  0
  188.7660  174.6710  141.1810 N   0  0  0  0  0  0  0  0  0  0  0  0
  190.5740  173.8230  142.5460 C   0  0  0  0  0  0  0  0  0  0  0  0
  185.9590  178.6140  145.5130 C   0  0  1  0  0  3  0  0  0  0  0  0
  186.3510  176.4860  143.5200 C   0  0  2  0  0  3  0  0  0  0  0  0
  187.1060  177.6390  145.5920 C   0  0  0  0  0  3  0  0  0  0  0  0
  184.8570  178.1750  144.5470 C   0  0  0  0  0  2  0  0  0  0  0  0
  190.6000  173.2870  140.1120 C   0  0  0  0  0  2  0  0  0  0  0  0
  189.9800  173.9050  141.3370 C   0  0  0  0  0  0  0  0  0  0  0  0
  188.4790  175.9240  144.7290 O   0  0  0  0  0  0  0  0  0  0  0  0
  190.0150  174.5090  143.6810 N   0  0  0  0  0  0  0  0  0  0  0  0
  185.4030  178.8930  146.8690 C   0  0  0  0  0  0  0  0  0  0  0  0
  184.3310  178.3390  147.2410 O   0  0  0  0  0  0  0  0  0  0  0  0
  186.0840  179.7670  147.7150 O   0  0  0  0  0  0  0  0  0  0  0  0
  187.0320  179.3020  148.6660 C   0  0  0  0  0  1  0  0  0  0  0  0
  191.8530  173.0630  142.7330 C   0  0  0  0  0  2  0  0  0  0  0  0
  194.9790  176.4830  141.2510 C   0  0  0  0  0  1  0  0  0  0  0  0
  193.4340  174.7630  142.1100 N   0  0  0  0  0  0  0  0  0  0  0  0
  193.4550  174.0140  144.3370 C   0  0  0  0  0  0  0  0  0  0  0  0
  194.5060  174.8830  144.6270 C   0  0  0  0  0  3  0  0  0  0  0  0
  195.0130  175.6990  143.6210 C   0  0  0  0  0  3  0  0  0  0  0  0
  194.4570  175.6260  142.3460 C   0  0  0  0  0  0  0  0  0  0  0  0
  192.9920  173.2760  145.2480 O   0  0  0  0  0  0  0  0  0  0  0  0
  192.9400  173.9760  143.0700 N   0  0  0  0  0  0  0  0  0  0  0  0
  1  7  1  6  0  0  0
  1 13  1  0  0  0  0
  1 15  1  0  0  0  0
  2 19  2  0  0  0  0
  2 18  1  0  0  0  0
  3  4  1  0  0  0  0
  3  8  2  0  0  0  0
  4 16  1  0  0  0  0
  5 18  1  0  0  0  0
  5 14  2  0  0  0  0
  6  9  2  0  0  0  0
  8 10  1  0  0  0  0
  9  2  1  0  0  0  0
 10 17  1  0  0  0  0
 10  9  1  0  0  0  0
 11 24  1  0  0  0  0
 11 19  1  0  0  0  0
 12 14  1  0  0  0  0
 12 20  1  1  0  0  0
 13  6  1  6  0  0  0
 13  5  1  0  0  0  0
 15 12  1  0  0  0  0
 16 17  1  0  0  0  0
 17 11  2  0  0  0  0
 20 21  2  0  0  0  0
 20 22  1  0  0  0  0
 22 23  1  0  0  0  0
 24 32  1  0  0  0  0
 25 30  1  0  0  0  0
 26 30  2  0  0  0  0
 26 32  1  0  0  0  0
 27 28  1  0  0  0  0
 27 31  2  0  0  0  0
 29 28  2  0  0  0  0
 30 29  1  0  0  0  0
 32 27  1  0  0  0  0
M  END
>  <MODEL>
4

>  <REMARK>
 VINA RESULT:      -7.5      2.860      4.670
  Name = 
  4 active torsions:
  status: ('A' for Active; 'I' for Inactive)
    1  A    between atoms: C_1  and  O_10
    2  A    between atoms: C_1  and  C_19
    3  A    between atoms: C_16  and  C_27
    4  A    between atoms: C_27  and  N_32
                            x       y       z     vdW  Elec       q    Type
                         _______ _______ _______ _____ _____    ______ ____

>  <TORSDO>
F 4

$$$$
=
 OpenBabel11052421363D

 32 36  0  0  1  0  0  0  0  0999 V2000
  190.5920  170.9930  141.3600 C   0  0  2  0  0  3  0  0  0  0  0  0
  188.9610  174.9370  141.5690 C   0  0  0  0  0  0  0  0  0  0  0  0
  189.4310  174.8550  146.4480 C   0  0  0  0  0  3  0  0  0  0  0  0
  188.5660  176.0810  146.5200 C   0  0  0  0  0  2  0  0  0  0  0  0
  189.6060  173.0300  140.2180 C   0  0  0  0  0  0  0  0  0  0  0  0
  189.6940  172.9160  142.7210 C   0  0  0  0  0  3  0  0  0  0  0  0
  190.3690  170.0940  142.3880 F   0  0  0  0  0  0  0  0  0  0  0  0
  189.7300  174.3010  145.2710 C   0  0  0  0  0  3  0  0  0  0  0  0
  189.3440  174.2070  142.7930 C   0  0  0  0  0  0  0  0  0  0  0  0
  189.3110  174.9190  144.0420 N   0  0  0  0  0  0  0  0  0  0  0  0
  188.4520  176.8740  142.9040 C   0  0  0  0  0  0  0  0  0  0  0  0
  190.7090  171.2420  138.8740 C   0  0  1  0  0  3  0  0  0  0  0  0
  189.5820  172.1350  141.4390 C   0  0  2  0  0  3  0  0  0  0  0  0
  190.0500  172.5880  139.0380 C   0  0  0  0  0  3  0  0  0  0  0  0
  190.4140  170.2780  140.0260 C   0  0  0  0  0  2  0  0  0  0  0  0
  188.8460  177.0340  145.3590 C   0  0  0  0  0  2  0  0  0  0  0  0
  188.8290  176.2810  144.0550 C   0  0  0  0  0  0  0  0  0  0  0  0
  189.1090  174.3320  140.3200 O   0  0  0  0  0  0  0  0  0  0  0  0
  188.5430  176.1640  141.6540 N   0  0  0  0  0  0  0  0  0  0  0  0
  190.3510  170.6310  137.5600 C   0  0  0  0  0  0  0  0  0  0  0  0
  189.6980  169.5510  137.5190 O   0  0  0  0  0  0  0  0  0  0  0  0
  190.7460  171.2700  136.3850 O   0  0  0  0  0  0  0  0  0  0  0  0
  189.8220  171.5710  135.3500 C   0  0  0  0  0  1  0  0  0  0  0  0
  187.9790  178.2970  142.8810 C   0  0  0  0  0  2  0  0  0  0  0  0
  184.0790  178.6660  145.7630 C   0  0  0  0  0  1  0  0  0  0  0  0
  185.9850  178.4800  144.2100 N   0  0  0  0  0  0  0  0  0  0  0  0
  185.7320  178.2480  141.8860 C   0  0  0  0  0  0  0  0  0  0  0  0
  184.3450  178.2830  142.0260 C   0  0  0  0  0  3  0  0  0  0  0  0
  183.7920  178.4200  143.2960 C   0  0  0  0  0  3  0  0  0  0  0  0
  184.6400  178.5200  144.3950 C   0  0  0  0  0  0  0  0  0  0  0  0
  186.2350  178.1270  140.7360 O   0  0  0  0  0  0  0  0  0  0  0  0
  186.5270  178.3490  142.9940 N   0  0  0  0  0  0  0  0  0  0  0  0
  1 13  1  0  0  0  0
  1  7  1  1  0  0  0
  2 19  2  0  0  0  0
  2  9  1  0  0  0  0
  3  4  1  0  0  0  0
  5 18  1  0  0  0  0
  5 13  1  0  0  0  0
  6  9  2  0  0  0  0
  8  3  2  0  0  0  0
  9 10  1  0  0  0  0
 10 17  1  0  0  0  0
 10  8  1  0  0  0  0
 11 17  2  0  0  0  0
 12 20  1  6  0  0  0
 12 14  1  0  0  0  0
 12 15  1  0  0  0  0
 13  6  1  1  0  0  0
 14  5  2  0  0  0  0
 15  1  1  0  0  0  0
 16  4  1  0  0  0  0
 17 16  1  0  0  0  0
 18  2  1  0  0  0  0
 19 11  1  0  0  0  0
 21 20  2  0  0  0  0
 22 20  1  0  0  0  0
 23 22  1  0  0  0  0
 24 11  1  0  0  0  0
 24 32  1  0  0  0  0
 26 30  2  0  0  0  0
 27 28  1  0  0  0  0
 27 32  1  0  0  0  0
 28 29  2  0  0  0  0
 29 30  1  0  0  0  0
 30 25  1  0  0  0  0
 31 27  2  0  0  0  0
 32 26  1  0  0  0  0
M  END
>  <MODEL>
5

>  <REMARK>
 VINA RESULT:      -7.4      4.018      7.965
  Name = 
  4 active torsions:
  status: ('A' for Active; 'I' for Inactive)
    1  A    between atoms: C_1  and  O_10
    2  A    between atoms: C_1  and  C_19
    3  A    between atoms: C_16  and  C_27
    4  A    between atoms: C_27  and  N_32
                            x       y       z     vdW  Elec       q    Type
                         _______ _______ _______ _____ _____    ______ ____

>  <TORSDO>
F 4

$$$$
=
 OpenBabel11052421363D

 32 36  0  0  1  0  0  0  0  0999 V2000
  187.0480  177.2970  141.1070 C   0  0  2  0  0  3  0  0  0  0  0  0
  189.4820  174.7680  143.5430 C   0  0  0  0  0  0  0  0  0  0  0  0
  191.1760  172.5450  139.5170 C   0  0  0  0  0  3  0  0  0  0  0  0
  191.7560  171.4710  140.3910 C   0  0  0  0  0  2  0  0  0  0  0  0
  187.8430  176.5470  143.3950 C   0  0  0  0  0  0  0  0  0  0  0  0
  188.5770  175.3070  141.3440 C   0  0  0  0  0  3  0  0  0  0  0  0
  186.5320  176.8230  139.9130 F   0  0  0  0  0  0  0  0  0  0  0  0
  190.5110  173.5720  140.0500 C   0  0  0  0  0  3  0  0  0  0  0  0
  189.4670  174.6230  142.0750 C   0  0  0  0  0  0  0  0  0  0  0  0
  190.4160  173.7240  141.4770 N   0  0  0  0  0  0  0  0  0  0  0  0
  191.2090  173.0970  143.6750 C   0  0  0  0  0  0  0  0  0  0  0  0
  186.5300  178.6530  143.1430 C   0  0  1  0  0  3  0  0  0  0  0  0
  187.4900  176.1270  141.9830 C   0  0  2  0  0  3  0  0  0  0  0  0
  187.3390  177.6600  143.9370 C   0  0  0  0  0  3  0  0  0  0  0  0
  185.9640  178.0750  141.8440 C   0  0  0  0  0  2  0  0  0  0  0  0
  192.3030  172.0460  141.6970 C   0  0  0  0  0  2  0  0  0  0  0  0
  191.2790  172.9470  142.3350 C   0  0  0  0  0  0  0  0  0  0  0  0
  188.6770  175.7290  144.1590 O   0  0  0  0  0  0  0  0  0  0  0  0
  190.2900  174.0410  144.2550 N   0  0  0  0  0  0  0  0  0  0  0  0
  185.4470  179.2490  143.9790 C   0  0  0  0  0  0  0  0  0  0  0  0
  185.3860  180.4990  144.1430 O   0  0  0  0  0  0  0  0  0  0  0  0
  184.5070  178.4060  144.5720 O   0  0  0  0  0  0  0  0  0  0  0  0
  184.0930  178.5770  145.9190 C   0  0  0  0  0  1  0  0  0  0  0  0
  192.1140  172.3300  144.5910 C   0  0  0  0  0  2  0  0  0  0  0  0
  193.7060  176.4550  146.6170 C   0  0  0  0  0  1  0  0  0  0  0  0
  193.0090  174.3290  145.5810 N   0  0  0  0  0  0  0  0  0  0  0  0
  194.5320  172.7450  144.7490 C   0  0  0  0  0  0  0  0  0  0  0  0
  195.5980  173.5620  145.1240 C   0  0  0  0  0  3  0  0  0  0  0  0
  195.3370  174.7830  145.7390 C   0  0  0  0  0  3  0  0  0  0  0  0
  194.0150  175.1570  145.9640 C   0  0  0  0  0  0  0  0  0  0  0  0
  194.7670  171.6380  144.1940 O   0  0  0  0  0  0  0  0  0  0  0  0
  193.2490  173.1540  144.9890 N   0  0  0  0  0  0  0  0  0  0  0  0
  1  7  1  6  0  0  0
  1 15  1  0  0  0  0
  1 13  1  0  0  0  0
  2 18  1  0  0  0  0
  2 19  2  0  0  0  0
  3  8  2  0  0  0  0
  3  4  1  0  0  0  0
  4 16  1  0  0  0  0
  5 14  2  0  0  0  0
  5 18  1  0  0  0  0
  6  9  2  0  0  0  0
  8 10  1  0  0  0  0
  9  2  1  0  0  0  0
 10  9  1  0  0  0  0
 10 17  1  0  0  0  0
 11 19  1  0  0  0  0
 11 24  1  0  0  0  0
 12 14  1  0  0  0  0
 12 20  1  1  0  0  0
 13  6  1  6  0  0  0
 13  5  1  0  0  0  0
 15 12  1  0  0  0  0
 16 17  1  0  0  0  0
 17 11  2  0  0  0  0
 20 21  2  0  0  0  0
 20 22  1  0  0  0  0
 22 23  1  0  0  0  0
 24 32  1  0  0  0  0
 26 30  2  0  0  0  0
 27 32  1  0  0  0  0
 27 28  1  0  0  0  0
 28 29  2  0  0  0  0
 29 30  1  0  0  0  0
 30 25  1  0  0  0  0
 31 27  2  0  0  0  0
 32 26  1  0  0  0  0
M  END
>  <MODEL>
6

>  <REMARK>
 VINA RESULT:      -7.3      2.863      4.381
  Name = 
  4 active torsions:
  status: ('A' for Active; 'I' for Inactive)
    1  A    between atoms: C_1  and  O_10
    2  A    between atoms: C_1  and  C_19
    3  A    between atoms: C_16  and  C_27
    4  A    between atoms: C_27  and  N_32
                            x       y       z     vdW  Elec       q    Type
                         _______ _______ _______ _____ _____    ______ ____

>  <TORSDO>
F 4

$$$$
=
 OpenBabel11052421363D

 32 36  0  0  1  0  0  0  0  0999 V2000
  188.4150  177.5460  147.2070 C   0  0  2  0  0  3  0  0  0  0  0  0
  190.1330  175.9460  143.6360 C   0  0  0  0  0  0  0  0  0  0  0  0
  194.5400  175.9260  145.7840 C   0  0  0  0  0  3  0  0  0  0  0  0
  195.1600  175.6830  144.4380 C   0  0  0  0  0  2  0  0  0  0  0  0
  188.1730  176.7550  144.8100 C   0  0  0  0  0  0  0  0  0  0  0  0
  190.4460  176.9040  145.8570 C   0  0  0  0  0  3  0  0  0  0  0  0
  189.1560  178.3890  148.0160 F   0  0  0  0  0  0  0  0  0  0  0  0
  193.2160  176.0410  145.9130 C   0  0  0  0  0  3  0  0  0  0  0  0
  190.9710  176.2500  144.8130 C   0  0  0  0  0  0  0  0  0  0  0  0
  192.3490  175.8400  144.7840 N   0  0  0  0  0  0  0  0  0  0  0  0
  192.0570  175.0170  142.5280 C   0  0  0  0  0  0  0  0  0  0  0  0
  186.1520  177.1570  146.2160 C   0  0  1  0  0  3  0  0  0  0  0  0
  189.0500  177.4650  145.8200 C   0  0  2  0  0  3  0  0  0  0  0  0
  186.8470  176.6880  144.9640 C   0  0  0  0  0  3  0  0  0  0  0  0
  187.0040  178.1030  147.0640 C   0  0  0  0  0  2  0  0  0  0  0  0
  194.2990  174.7550  143.5840 C   0  0  0  0  0  2  0  0  0  0  0  0
  192.8690  175.2270  143.5850 C   0  0  0  0  0  0  0  0  0  0  0  0
  188.7610  176.1990  143.6720 O   0  0  0  0  0  0  0  0  0  0  0  0
  190.6670  175.3860  142.5930 N   0  0  0  0  0  0  0  0  0  0  0  0
  184.8310  177.7700  145.8940 C   0  0  0  0  0  0  0  0  0  0  0  0
  184.0660  178.1540  146.8220 O   0  0  0  0  0  0  0  0  0  0  0  0
  184.4580  177.9160  144.5580 O   0  0  0  0  0  0  0  0  0  0  0  0
  184.3070  179.1930  143.9570 C   0  0  0  0  0  1  0  0  0  0  0  0
  192.5590  174.3530  141.2810 C   0  0  0  0  0  2  0  0  0  0  0  0
  192.3140  169.7180  142.7350 C   0  0  0  0  0  1  0  0  0  0  0  0
  192.3500  172.0470  141.9250 N   0  0  0  0  0  0  0  0  0  0  0  0
  190.9930  172.8180  140.1700 C   0  0  0  0  0  0  0  0  0  0  0  0
  190.4370  171.5470  140.0310 C   0  0  0  0  0  3  0  0  0  0  0  0
  190.8640  170.5220  140.8690 C   0  0  0  0  0  3  0  0  0  0  0  0
  191.8380  170.7930  141.8270 C   0  0  0  0  0  0  0  0  0  0  0  0
  190.6050  173.7490  139.4130 O   0  0  0  0  0  0  0  0  0  0  0  0
  191.9470  173.0390  141.1250 N   0  0  0  0  0  0  0  0  0  0  0  0
  1  7  1  1  0  0  0
  2 18  1  0  0  0  0
  2  9  1  0  0  0  0
  3  8  2  0  0  0  0
  4  3  1  0  0  0  0
  5 14  2  0  0  0  0
  5 13  1  0  0  0  0
  9  6  2  0  0  0  0
 10  9  1  0  0  0  0
 10  8  1  0  0  0  0
 11 19  1  0  0  0  0
 11 17  2  0  0  0  0
 12 20  1  6  0  0  0
 12 15  1  0  0  0  0
 13  6  1  1  0  0  0
 13  1  1  0  0  0  0
 14 12  1  0  0  0  0
 15  1  1  0  0  0  0
 16 17  1  0  0  0  0
 16  4  1  0  0  0  0
 17 10  1  0  0  0  0
 18  5  1  0  0  0  0
 19  2  2  0  0  0  0
 20 21  2  0  0  0  0
 22 20  1  0  0  0  0
 23 22  1  0  0  0  0
 24 11  1  0  0  0  0
 27 32  1  0  0  0  0
 28 27  1  0  0  0  0
 28 29  2  0  0  0  0
 29 30  1  0  0  0  0
 30 26  2  0  0  0  0
 30 25  1  0  0  0  0
 31 27  2  0  0  0  0
 32 24  1  0  0  0  0
 32 26  1  0  0  0  0
M  END
>  <MODEL>
7

>  <REMARK>
 VINA RESULT:      -7.3      2.549      3.828
  Name = 
  4 active torsions:
  status: ('A' for Active; 'I' for Inactive)
    1  A    between atoms: C_1  and  O_10
    2  A    between atoms: C_1  and  C_19
    3  A    between atoms: C_16  and  C_27
    4  A    between atoms: C_27  and  N_32
                            x       y       z     vdW  Elec       q    Type
                         _______ _______ _______ _____ _____    ______ ____

>  <TORSDO>
F 4

$$$$
=
 OpenBabel11052421363D

 32 36  0  0  1  0  0  0  0  0999 V2000
  185.4300  177.6180  142.8460 C   0  0  2  0  0  3  0  0  0  0  0  0
  188.9740  175.3110  143.4580 C   0  0  0  0  0  0  0  0  0  0  0  0
  188.7320  173.7370  138.8230 C   0  0  0  0  0  3  0  0  0  0  0  0
  189.7650  172.6990  139.1540 C   0  0  0  0  0  2  0  0  0  0  0  0
  187.2990  176.8130  144.3590 C   0  0  0  0  0  0  0  0  0  0  0  0
  187.0740  175.8840  142.0420 C   0  0  0  0  0  3  0  0  0  0  0  0
  184.4540  177.1720  141.9730 F   0  0  0  0  0  0  0  0  0  0  0  0
  188.3070  174.5960  139.7520 C   0  0  0  0  0  3  0  0  0  0  0  0
  188.2690  175.2910  142.1630 C   0  0  0  0  0  0  0  0  0  0  0  0
  188.8960  174.6080  141.0640 N   0  0  0  0  0  0  0  0  0  0  0  0
  190.7080  173.9310  142.5180 C   0  0  0  0  0  0  0  0  0  0  0  0
  185.8250  178.6970  145.0680 C   0  0  1  0  0  3  0  0  0  0  0  0
  186.3530  176.4630  143.2290 C   0  0  2  0  0  3  0  0  0  0  0  0
  187.0100  177.7810  145.2340 C   0  0  0  0  0  3  0  0  0  0  0  0
  184.7650  178.1490  144.1100 C   0  0  0  0  0  2  0  0  0  0  0  0
  190.8120  173.2400  140.1260 C   0  0  0  0  0  2  0  0  0  0  0  0
  190.1380  173.9080  141.2940 C   0  0  0  0  0  0  0  0  0  0  0  0
  188.4740  176.0750  144.5140 O   0  0  0  0  0  0  0  0  0  0  0  0
  190.0930  174.6640  143.5940 N   0  0  0  0  0  0  0  0  0  0  0  0
  185.2260  179.0390  146.3910 C   0  0  0  0  0  0  0  0  0  0  0  0
  184.0620  178.6440  146.6810 O   0  0  0  0  0  0  0  0  0  0  0  0
  185.9690  179.7940  147.2980 O   0  0  0  0  0  0  0  0  0  0  0  0
  186.6520  179.1940  148.3880 C   0  0  0  0  0  1  0  0  0  0  0  0
  192.0130  173.2420  142.7810 C   0  0  0  0  0  2  0  0  0  0  0  0
  194.0520  175.6920  146.4560 C   0  0  0  0  0  1  0  0  0  0  0  0
  193.0970  174.4960  144.5210 N   0  0  0  0  0  0  0  0  0  0  0  0
  193.8440  174.8160  142.3170 C   0  0  0  0  0  0  0  0  0  0  0  0
  194.7800  175.7480  142.7610 C   0  0  0  0  0  3  0  0  0  0  0  0
  194.8570  176.0420  144.1190 C   0  0  0  0  0  3  0  0  0  0  0  0
  193.9940  175.3970  145.0010 C   0  0  0  0  0  0  0  0  0  0  0  0
  193.7740  174.5460  141.0870 O   0  0  0  0  0  0  0  0  0  0  0  0
  193.0150  174.2070  143.2190 N   0  0  0  0  0  0  0  0  0  0  0  0
  1  7  1  6  0  0  0
  1 13  1  0  0  0  0
  1 15  1  0  0  0  0
  2 19  2  0  0  0  0
  2 18  1  0  0  0  0
  3  4  1  0  0  0  0
  3  8  2  0  0  0  0
  4 16  1  0  0  0  0
  5 18  1  0  0  0  0
  5 14  2  0  0  0  0
  6  9  2  0  0  0  0
  8 10  1  0  0  0  0
  9  2  1  0  0  0  0
 10 17  1  0  0  0  0
 10  9  1  0  0  0  0
 11 24  1  0  0  0  0
 11 19  1  0  0  0  0
 12 14  1  0  0  0  0
 12 20  1  1  0  0  0
 13  6  1  6  0  0  0
 13  5  1  0  0  0  0
 15 12  1  0  0  0  0
 16 17  1  0  0  0  0
 17 11  2  0  0  0  0
 20 21  2  0  0  0  0
 20 22  1  0  0  0  0
 22 23  1  0  0  0  0
 24 32  1  0  0  0  0
 26 30  2  0  0  0  0
 27 28  1  0  0  0  0
 27 32  1  0  0  0  0
 28 29  2  0  0  0  0
 29 30  1  0  0  0  0
 30 25  1  0  0  0  0
 31 27  2  0  0  0  0
 32 26  1  0  0  0  0
M  END
>  <MODEL>
8

>  <REMARK>
 VINA RESULT:      -7.1      2.693      4.512
  Name = 
  4 active torsions:
  status: ('A' for Active; 'I' for Inactive)
    1  A    between atoms: C_1  and  O_10
    2  A    between atoms: C_1  and  C_19
    3  A    between atoms: C_16  and  C_27
    4  A    between atoms: C_27  and  N_32
                            x       y       z     vdW  Elec       q    Type
                         _______ _______ _______ _____ _____    ______ ____

>  <TORSDO>
F 4

$$$$
=
 OpenBabel11052421363D

 32 36  0  0  1  0  0  0  0  0999 V2000
  188.9050  175.2370  146.4210 C   0  0  2  0  0  3  0  0  0  0  0  0
  192.2620  176.4650  144.0790 C   0  0  0  0  0  0  0  0  0  0  0  0
  194.6960  172.4520  145.4930 C   0  0  0  0  0  3  0  0  0  0  0  0
  195.9540  173.0590  144.9420 C   0  0  0  0  0  2  0  0  0  0  0  0
  190.0170  176.9130  144.8770 C   0  0  0  0  0  0  0  0  0  0  0  0
  191.3130  174.9470  145.7350 C   0  0  0  0  0  3  0  0  0  0  0  0
  189.0980  174.5250  147.5900 F   0  0  0  0  0  0  0  0  0  0  0  0
  193.5340  173.1060  145.4170 C   0  0  0  0  0  3  0  0  0  0  0  0
  192.3060  175.2270  144.8800 C   0  0  0  0  0  0  0  0  0  0  0  0
  193.4430  174.3610  144.7220 N   0  0  0  0  0  0  0  0  0  0  0  0
  194.4350  175.9440  143.1840 C   0  0  0  0  0  0  0  0  0  0  0  0
  187.5740  177.0690  145.3580 C   0  0  1  0  0  3  0  0  0  0  0  0
  190.2050  175.9260  146.0100 C   0  0  2  0  0  3  0  0  0  0  0  0
  188.8330  177.4840  144.6390 C   0  0  0  0  0  3  0  0  0  0  0  0
  187.8420  176.3040  146.6560 C   0  0  0  0  0  2  0  0  0  0  0  0
  195.6830  173.8400  143.6570 C   0  0  0  0  0  2  0  0  0  0  0  0
  194.5210  174.7770  143.8550 C   0  0  0  0  0  0  0  0  0  0  0  0
  191.1190  177.2660  144.0940 O   0  0  0  0  0  0  0  0  0  0  0  0
  193.2650  176.7740  143.3140 N   0  0  0  0  0  0  0  0  0  0  0  0
  186.6890  178.2460  145.6040 C   0  0  0  0  0  0  0  0  0  0  0  0
  186.3090  178.9660  144.6390 O   0  0  0  0  0  0  0  0  0  0  0  0
  186.2880  178.5320  146.9080 O   0  0  0  0  0  0  0  0  0  0  0  0
  184.9190  178.5460  147.2840 C   0  0  0  0  0  1  0  0  0  0  0  0
  195.5220  176.3870  142.2520 C   0  0  0  0  0  2  0  0  0  0  0  0
  192.6500  174.1630  139.0170 C   0  0  0  0  0  1  0  0  0  0  0  0
  194.1950  175.2780  140.5830 N   0  0  0  0  0  0  0  0  0  0  0  0
  196.5030  175.4740  140.1910 C   0  0  0  0  0  0  0  0  0  0  0  0
  196.3620  174.7980  138.9800 C   0  0  0  0  0  3  0  0  0  0  0  0
  195.1000  174.3640  138.5850 C   0  0  0  0  0  3  0  0  0  0  0  0
  194.0090  174.6160  139.4120 C   0  0  0  0  0  0  0  0  0  0  0  0
  197.6440  175.8710  140.5490 O   0  0  0  0  0  0  0  0  0  0  0  0
  195.4020  175.7000  140.9720 N   0  0  0  0  0  0  0  0  0  0  0  0
  1 15  1  0  0  0  0
  1  7  1  1  0  0  0
  2 18  1  0  0  0  0
  2  9  1  0  0  0  0
  4  3  1  0  0  0  0
  5 13  1  0  0  0  0
  8  3  2  0  0  0  0
  9  6  2  0  0  0  0
 10  9  1  0  0  0  0
 10  8  1  0  0  0  0
 11 19  1  0  0  0  0
 11 17  2  0  0  0  0
 12 20  1  1  0  0  0
 12 15  1  0  0  0  0
 13  6  1  6  0  0  0
 13  1  1  0  0  0  0
 14  5  2  0  0  0  0
 14 12  1  0  0  0  0
 16 17  1  0  0  0  0
 16  4  1  0  0  0  0
 17 10  1  0  0  0  0
 18  5  1  0  0  0  0
 19  2  2  0  0  0  0
 20 22  1  0  0  0  0
 21 20  2  0  0  0  0
 22 23  1  0  0  0  0
 24 11  1  0  0  0  0
 25 30  1  0  0  0  0
 26 32  1  0  0  0  0
 27 31  2  0  0  0  0
 27 32  1  0  0  0  0
 28 27  1  0  0  0  0
 29 28  2  0  0  0  0
 29 30  1  0  0  0  0
 30 26  2  0  0  0  0
 32 24  1  0  0  0  0
M  END
>  <MODEL>
9

>  <REMARK>
 VINA RESULT:      -7.0      3.046      4.446
  Name = 
  4 active torsions:
  status: ('A' for Active; 'I' for Inactive)
    1  A    between atoms: C_1  and  O_10
    2  A    between atoms: C_1  and  C_19
    3  A    between atoms: C_16  and  C_27
    4  A    between atoms: C_27  and  N_32
                            x       y       z     vdW  Elec       q    Type
                         _______ _______ _______ _____ _____    ______ ____

>  <TORSDO>
F 4

$$$$
