=
 OpenBabel11052418303D

 27 30  0  0  1  0  0  0  0  0999 V2000
  189.1570  176.2360  145.5350 C   0  0  0  0  0  2  0  0  0  0  0  0
  188.7170  175.4290  143.2120 C   0  0  0  0  0  0  0  0  0  0  0  0
  191.0920  176.0910  143.0180 N   0  0  0  0  0  0  0  0  0  0  0  0
  187.6590  174.6980  142.7690 N   0  0  0  0  0  0  0  0  0  0  0  0
  193.7630  176.1980  144.7690 C   0  0  0  0  0  2  0  0  0  0  0  0
  193.4560  175.2860  145.9610 C   0  0  0  0  0  2  0  0  0  0  0  0
  190.1290  174.3330  141.5570 C   0  0  0  0  0  0  0  0  0  0  0  0
  188.5120  176.4150  144.2340 N   0  0  0  0  0  0  0  0  0  0  0  0
  189.0040  173.6050  141.1360 C   0  0  0  0  0  0  0  0  0  0  0  0
  190.6560  175.9580  145.4390 C   0  0  1  0  0  3  0  0  0  0  0  0
  189.9860  175.2630  142.6190 C   0  0  0  0  0  0  0  0  0  0  0  0
  192.6450  177.2030  144.4820 C   0  0  0  0  0  2  0  0  0  0  0  0
  187.7770  173.7980  141.7650 C   0  0  0  0  0  3  0  0  0  0  0  0
  192.5010  174.1650  145.5470 C   0  0  0  0  0  2  0  0  0  0  0  0
  191.0170  174.5060  145.7580 C   0  0  0  0  0  2  0  0  0  0  0  0
  191.3580  176.4970  144.2250 C   0  0  0  0  0  0  0  0  0  0  0  0
  185.5880  179.4670  143.7230 C   0  0  0  0  0  3  0  0  0  0  0  0
  187.5300  177.4590  144.0640 C   0  0  0  0  0  0  0  0  0  0  0  0
  186.8090  177.9550  145.1650 C   0  0  0  0  0  3  0  0  0  0  0  0
  185.8460  178.9530  144.9960 C   0  0  0  0  0  3  0  0  0  0  0  0
  186.2920  178.9810  142.6190 C   0  0  0  0  0  3  0  0  0  0  0  0
  187.2550  177.9820  142.7880 C   0  0  0  0  0  3  0  0  0  0  0  0
  191.3470  174.0870  140.8970 O   0  0  0  0  0  0  0  0  0  0  0  0
  192.4130  173.2960  141.4020 C   0  0  0  0  0  1  0  0  0  0  0  0
  189.1080  172.5870  140.0500 C   0  0  0  0  0  2  0  0  0  0  0  0
  188.4160  173.5280  138.1780 C   0  0  0  0  0  1  0  0  0  0  0  0
  188.0000  172.6850  139.2070 O   0  0  0  0  0  0  0  0  0  0  0  0
  2  8  1  0  0  0  0
  3 16  2  0  0  0  0
  4  2  1  0  0  0  0
  5  6  1  0  0  0  0
  7 11  1  0  0  0  0
  8  1  1  0  0  0  0
  9  7  2  0  0  0  0
  9 13  1  0  0  0  0
 10  1  1  6  0  0  0
 10 15  1  0  0  0  0
 11  3  1  0  0  0  0
 11  2  2  0  0  0  0
 12  5  1  0  0  0  0
 13  4  2  0  0  0  0
 14 15  1  0  0  0  0
 14  6  1  0  0  0  0
 16 12  1  0  0  0  0
 16 10  1  0  0  0  0
 17 20  1  0  0  0  0
 18  8  1  0  0  0  0
 18 19  1  0  0  0  0
 20 19  2  0  0  0  0
 21 22  1  0  0  0  0
 21 17  2  0  0  0  0
 22 18  2  0  0  0  0
 23 24  1  0  0  0  0
 23  7  1  0  0  0  0
 25  9  1  0  0  0  0
 26 27  1  0  0  0  0
 27 25  1  0  0  0  0
M  END
>  <MODEL>
1

>  <REMARK>
 VINA RESULT:      -6.7      0.000      0.000
  Name = 
  4 active torsions:
  status: ('A' for Active; 'I' for Inactive)
    1  A    between atoms: C_4  and  O_16
    2  A    between atoms: C_4  and  C_17
    3  A    between atoms: O_8  and  C_14
    4  A    between atoms: C_9  and  N_15
                            x       y       z     vdW  Elec       q    Type
                         _______ _______ _______ _____ _____    ______ ____

>  <TORSDO>
F 4

$$$$
=
 OpenBabel11052418303D

 27 30  0  0  1  0  0  0  0  0999 V2000
  192.6880  176.1170  145.5690 C   0  0  0  0  0  2  0  0  0  0  0  0
  192.3090  174.6000  143.6210 C   0  0  0  0  0  0  0  0  0  0  0  0
  190.2320  174.2120  144.9060 N   0  0  0  0  0  0  0  0  0  0  0  0
  192.9870  174.5720  142.4420 N   0  0  0  0  0  0  0  0  0  0  0  0
  188.2050  175.7660  146.8250 C   0  0  0  0  0  2  0  0  0  0  0  0
  188.5330  177.2430  146.5850 C   0  0  0  0  0  2  0  0  0  0  0  0
  190.2920  173.9060  142.4460 C   0  0  0  0  0  0  0  0  0  0  0  0
  193.0190  174.8980  144.8320 N   0  0  0  0  0  0  0  0  0  0  0  0
  191.0370  173.8900  141.2560 C   0  0  0  0  0  0  0  0  0  0  0  0
  191.1940  176.2770  145.8440 C   0  0  1  0  0  3  0  0  0  0  0  0
  190.9380  174.2700  143.6550 C   0  0  0  0  0  0  0  0  0  0  0  0
  189.4490  174.9100  147.0720 C   0  0  0  0  0  2  0  0  0  0  0  0
  192.3860  174.2370  141.2750 C   0  0  0  0  0  3  0  0  0  0  0  0
  189.0140  177.4600  145.1490 C   0  0  0  0  0  2  0  0  0  0  0  0
  190.5400  177.3630  144.9870 C   0  0  0  0  0  2  0  0  0  0  0  0
  190.3910  175.0090  145.9220 C   0  0  0  0  0  0  0  0  0  0  0  0
  196.4410  172.6140  145.9280 C   0  0  0  0  0  3  0  0  0  0  0  0
  194.1750  174.1250  145.2170 C   0  0  0  0  0  0  0  0  0  0  0  0
  195.3820  174.7590  145.5620 C   0  0  0  0  0  3  0  0  0  0  0  0
  196.5060  174.0090  145.9170 C   0  0  0  0  0  3  0  0  0  0  0  0
  195.2510  171.9700  145.5820 C   0  0  0  0  0  3  0  0  0  0  0  0
  194.1270  172.7200  145.2270 C   0  0  0  0  0  3  0  0  0  0  0  0
  188.9300  173.5610  142.3640 O   0  0  0  0  0  0  0  0  0  0  0  0
  187.8550  174.4790  142.2300 C   0  0  0  0  0  1  0  0  0  0  0  0
  190.3970  173.5510  139.9510 C   0  0  0  0  0  2  0  0  0  0  0  0
  190.4000  171.3580  139.7110 C   0  0  0  0  0  1  0  0  0  0  0  0
  191.0960  172.5070  139.3420 O   0  0  0  0  0  0  0  0  0  0  0  0
  1 10  1  0  0  0  0
  2 11  1  0  0  0  0
  2  8  1  0  0  0  0
  3 16  2  0  0  0  0
  4  2  2  0  0  0  0
  5 12  1  0  0  0  0
  6  5  1  0  0  0  0
  7 11  2  0  0  0  0
  8 18  1  0  0  0  0
  8  1  1  0  0  0  0
  9 13  2  0  0  0  0
  9  7  1  0  0  0  0
 10 15  1  6  0  0  0
 10 16  1  0  0  0  0
 11  3  1  0  0  0  0
 13  4  1  0  0  0  0
 14  6  1  0  0  0  0
 15 14  1  0  0  0  0
 16 12  1  0  0  0  0
 18 22  2  0  0  0  0
 18 19  1  0  0  0  0
 19 20  2  0  0  0  0
 20 17  1  0  0  0  0
 21 17  2  0  0  0  0
 22 21  1  0  0  0  0
 23  7  1  0  0  0  0
 24 23  1  0  0  0  0
 25  9  1  0  0  0  0
 27 26  1  0  0  0  0
 27 25  1  0  0  0  0
M  END
>  <MODEL>
2

>  <REMARK>
 VINA RESULT:      -6.6      2.258      5.971
  Name = 
  4 active torsions:
  status: ('A' for Active; 'I' for Inactive)
    1  A    between atoms: C_4  and  O_16
    2  A    between atoms: C_4  and  C_17
    3  A    between atoms: O_8  and  C_14
    4  A    between atoms: C_9  and  N_15
                            x       y       z     vdW  Elec       q    Type
                         _______ _______ _______ _____ _____    ______ ____

>  <TORSDO>
F 4

$$$$
=
 OpenBabel11052418303D

 27 30  0  0  1  0  0  0  0  0999 V2000
  190.7370  175.1940  146.4130 C   0  0  0  0  0  2  0  0  0  0  0  0
  190.0740  174.9030  144.0220 C   0  0  0  0  0  0  0  0  0  0  0  0
  192.2090  176.1220  143.7530 N   0  0  0  0  0  0  0  0  0  0  0  0
  189.1160  174.0790  143.5170 N   0  0  0  0  0  0  0  0  0  0  0  0
  195.0660  176.4100  145.1550 C   0  0  0  0  0  2  0  0  0  0  0  0
  195.1470  175.1880  146.0750 C   0  0  0  0  0  2  0  0  0  0  0  0
  191.3690  174.6030  141.9820 C   0  0  0  0  0  0  0  0  0  0  0  0
  189.8580  175.5330  145.2940 N   0  0  0  0  0  0  0  0  0  0  0  0
  190.3510  173.7620  141.5050 C   0  0  0  0  0  0  0  0  0  0  0  0
  192.2230  175.3020  146.0770 C   0  0  1  0  0  3  0  0  0  0  0  0
  191.2320  175.1860  143.2680 C   0  0  0  0  0  0  0  0  0  0  0  0
  193.7430  177.1690  145.2840 C   0  0  0  0  0  2  0  0  0  0  0  0
  189.2340  173.5050  142.2960 C   0  0  0  0  0  3  0  0  0  0  0  0
  194.3700  174.0140  145.4770 C   0  0  0  0  0  2  0  0  0  0  0  0
  192.9060  173.9400  145.9400 C   0  0  0  0  0  2  0  0  0  0  0  0
  192.5920  176.2700  144.9880 C   0  0  0  0  0  0  0  0  0  0  0  0
  186.3590  177.8630  145.9660 C   0  0  0  0  0  3  0  0  0  0  0  0
  188.6800  176.3320  145.5300 C   0  0  0  0  0  0  0  0  0  0  0  0
  187.8820  176.1180  146.6680 C   0  0  0  0  0  3  0  0  0  0  0  0
  186.7300  176.8790  146.8860 C   0  0  0  0  0  3  0  0  0  0  0  0
  187.1380  178.0840  144.8290 C   0  0  0  0  0  3  0  0  0  0  0  0
  188.2890  177.3220  144.6110 C   0  0  0  0  0  3  0  0  0  0  0  0
  192.4820  174.8150  141.1470 O   0  0  0  0  0  0  0  0  0  0  0  0
  193.7560  174.2080  141.3030 C   0  0  0  0  0  1  0  0  0  0  0  0
  190.4640  173.0940  140.1750 C   0  0  0  0  0  2  0  0  0  0  0  0
  188.8940  172.5410  138.7270 C   0  0  0  0  0  1  0  0  0  0  0  0
  189.5320  173.6430  139.2930 O   0  0  0  0  0  0  0  0  0  0  0  0
  2  8  1  0  0  0  0
  3 16  2  0  0  0  0
  4  2  1  0  0  0  0
  5 12  1  0  0  0  0
  5  6  1  0  0  0  0
  7 11  1  0  0  0  0
  8 18  1  0  0  0  0
  8  1  1  0  0  0  0
  9  7  2  0  0  0  0
  9 13  1  0  0  0  0
 10 15  1  6  0  0  0
 10  1  1  0  0  0  0
 11  3  1  0  0  0  0
 11  2  2  0  0  0  0
 13  4  2  0  0  0  0
 14 15  1  0  0  0  0
 14  6  1  0  0  0  0
 16 12  1  0  0  0  0
 16 10  1  0  0  0  0
 17 20  1  0  0  0  0
 18 19  1  0  0  0  0
 19 20  2  0  0  0  0
 21 17  2  0  0  0  0
 22 21  1  0  0  0  0
 22 18  2  0  0  0  0
 23 24  1  0  0  0  0
 23  7  1  0  0  0  0
 25  9  1  0  0  0  0
 26 27  1  0  0  0  0
 27 25  1  0  0  0  0
M  END
>  <MODEL>
3

>  <REMARK>
 VINA RESULT:      -6.6      1.459      1.870
  Name = 
  4 active torsions:
  status: ('A' for Active; 'I' for Inactive)
    1  A    between atoms: C_4  and  O_16
    2  A    between atoms: C_4  and  C_17
    3  A    between atoms: O_8  and  C_14
    4  A    between atoms: C_9  and  N_15
                            x       y       z     vdW  Elec       q    Type
                         _______ _______ _______ _____ _____    ______ ____

>  <TORSDO>
F 4

$$$$
=
 OpenBabel11052418303D

 27 30  0  0  1  0  0  0  0  0999 V2000
  188.8490  175.5260  142.6390 C   0  0  0  0  0  2  0  0  0  0  0  0
  190.6190  175.9750  144.3430 C   0  0  0  0  0  0  0  0  0  0  0  0
  190.6140  173.5010  144.3390 N   0  0  0  0  0  0  0  0  0  0  0  0
  191.2560  177.1500  144.5940 N   0  0  0  0  0  0  0  0  0  0  0  0
  190.1460  171.0500  142.3430 C   0  0  0  0  0  2  0  0  0  0  0  0
  190.2510  171.6850  140.9530 C   0  0  0  0  0  2  0  0  0  0  0  0
  192.6480  174.7760  144.9610 C   0  0  0  0  0  0  0  0  0  0  0  0
  189.2340  175.9920  143.9710 N   0  0  0  0  0  0  0  0  0  0  0  0
  193.2590  176.0160  145.2090 C   0  0  0  0  0  0  0  0  0  0  0  0
  189.4160  174.1530  142.2860 C   0  0  1  0  0  3  0  0  0  0  0  0
  191.3010  174.7520  144.5170 C   0  0  0  0  0  0  0  0  0  0  0  0
  189.2330  171.8330  143.2890 C   0  0  0  0  0  2  0  0  0  0  0  0
  192.5440  177.1950  145.0090 C   0  0  0  0  0  3  0  0  0  0  0  0
  191.2220  172.8670  140.9740 C   0  0  0  0  0  2  0  0  0  0  0  0
  190.5460  174.2180  141.2550 C   0  0  0  0  0  2  0  0  0  0  0  0
  189.7110  173.2350  143.4390 C   0  0  0  0  0  0  0  0  0  0  0  0
  186.3140  177.8840  146.4250 C   0  0  0  0  0  3  0  0  0  0  0  0
  188.2540  176.6420  144.8080 C   0  0  0  0  0  0  0  0  0  0  0  0
  188.0400  176.2140  146.1310 C   0  0  0  0  0  3  0  0  0  0  0  0
  187.0780  176.8320  146.9340 C   0  0  0  0  0  3  0  0  0  0  0  0
  186.5110  178.3170  145.1120 C   0  0  0  0  0  3  0  0  0  0  0  0
  187.4730  177.6980  144.3080 C   0  0  0  0  0  3  0  0  0  0  0  0
  193.4210  173.6190  145.1650 O   0  0  0  0  0  0  0  0  0  0  0  0
  194.0230  172.8390  144.1410 C   0  0  0  0  0  1  0  0  0  0  0  0
  194.6850  176.0990  145.6410 C   0  0  0  0  0  2  0  0  0  0  0  0
  195.9790  176.0940  143.8550 C   0  0  0  0  0  1  0  0  0  0  0  0
  195.3870  176.9480  144.7840 O   0  0  0  0  0  0  0  0  0  0  0  0
  1  8  1  0  0  0  0
  2 11  2  0  0  0  0
  2  4  1  0  0  0  0
  3 11  1  0  0  0  0
  4 13  2  0  0  0  0
  5 12  1  0  0  0  0
  6 14  1  0  0  0  0
  6  5  1  0  0  0  0
  7 23  1  0  0  0  0
  7  9  2  0  0  0  0
  8  2  1  0  0  0  0
  8 18  1  0  0  0  0
  9 25  1  0  0  0  0
 10 15  1  1  0  0  0
 10  1  1  0  0  0  0
 10 16  1  0  0  0  0
 11  7  1  0  0  0  0
 12 16  1  0  0  0  0
 13  9  1  0  0  0  0
 14 15  1  0  0  0  0
 16  3  2  0  0  0  0
 17 20  1  0  0  0  0
 18 19  1  0  0  0  0
 19 20  2  0  0  0  0
 21 17  2  0  0  0  0
 22 18  2  0  0  0  0
 22 21  1  0  0  0  0
 24 23  1  0  0  0  0
 26 27  1  0  0  0  0
 27 25  1  0  0  0  0
M  END
>  <MODEL>
4

>  <REMARK>
 VINA RESULT:      -6.6      2.326      5.122
  Name = 
  4 active torsions:
  status: ('A' for Active; 'I' for Inactive)
    1  A    between atoms: C_4  and  O_16
    2  A    between atoms: C_4  and  C_17
    3  A    between atoms: O_8  and  C_14
    4  A    between atoms: C_9  and  N_15
                            x       y       z     vdW  Elec       q    Type
                         _______ _______ _______ _____ _____    ______ ____

>  <TORSDO>
F 4

$$$$
=
 OpenBabel11052418303D

 27 30  0  0  1  0  0  0  0  0999 V2000
  188.0290  176.3040  144.5610 C   0  0  0  0  0  2  0  0  0  0  0  0
  188.4040  174.9400  142.5020 C   0  0  0  0  0  0  0  0  0  0  0  0
  190.6230  176.0030  142.7490 N   0  0  0  0  0  0  0  0  0  0  0  0
  187.6280  173.9350  142.0150 N   0  0  0  0  0  0  0  0  0  0  0  0
  192.6200  177.0190  145.0280 C   0  0  0  0  0  2  0  0  0  0  0  0
  192.0960  176.3450  146.3010 C   0  0  0  0  0  2  0  0  0  0  0  0
  190.3710  173.8150  141.6110 C   0  0  0  0  0  0  0  0  0  0  0  0
  187.7790  176.0640  143.1400 N   0  0  0  0  0  0  0  0  0  0  0  0
  189.5260  172.8030  141.1270 C   0  0  0  0  0  0  0  0  0  0  0  0
  189.5120  176.3170  144.9260 C   0  0  1  0  0  3  0  0  0  0  0  0
  189.8020  174.9060  142.3160 C   0  0  0  0  0  0  0  0  0  0  0  0
  191.5150  177.6940  144.2120 C   0  0  0  0  0  2  0  0  0  0  0  0
  188.1530  172.8800  141.3490 C   0  0  0  0  0  3  0  0  0  0  0  0
  191.4600  174.9940  145.9700 C   0  0  0  0  0  2  0  0  0  0  0  0
  189.9490  175.0700  145.6990 C   0  0  0  0  0  2  0  0  0  0  0  0
  190.4660  176.7080  143.8320 C   0  0  0  0  0  0  0  0  0  0  0  0
  184.7700  178.2870  141.1070 C   0  0  0  0  0  3  0  0  0  0  0  0
  186.7650  176.8300  142.4560 C   0  0  0  0  0  0  0  0  0  0  0  0
  185.5800  177.2050  143.1150 C   0  0  0  0  0  3  0  0  0  0  0  0
  184.5910  177.9300  142.4460 C   0  0  0  0  0  3  0  0  0  0  0  0
  185.9390  177.9170  140.4380 C   0  0  0  0  0  3  0  0  0  0  0  0
  186.9280  177.1910  141.1070 C   0  0  0  0  0  3  0  0  0  0  0  0
  191.7510  173.6780  141.3710 O   0  0  0  0  0  0  0  0  0  0  0  0
  192.7260  173.3330  142.3440 C   0  0  0  0  0  1  0  0  0  0  0  0
  190.0780  171.6150  140.4120 C   0  0  0  0  0  2  0  0  0  0  0  0
  191.5670  170.0320  140.7870 C   0  0  0  0  0  1  0  0  0  0  0  0
  190.4370  170.6350  141.3380 O   0  0  0  0  0  0  0  0  0  0  0  0
  2  8  1  0  0  0  0
  3 16  2  0  0  0  0
  4  2  2  0  0  0  0
  5  6  1  0  0  0  0
  7 11  2  0  0  0  0
  8  1  1  0  0  0  0
  9 13  2  0  0  0  0
  9  7  1  0  0  0  0
 10  1  1  6  0  0  0
 10 15  1  0  0  0  0
 11  2  1  0  0  0  0
 11  3  1  0  0  0  0
 12  5  1  0  0  0  0
 13  4  1  0  0  0  0
 14  6  1  0  0  0  0
 15 14  1  0  0  0  0
 16 12  1  0  0  0  0
 16 10  1  0  0  0  0
 17 20  1  0  0  0  0
 18 19  1  0  0  0  0
 18  8  1  0  0  0  0
 20 19  2  0  0  0  0
 21 22  1  0  0  0  0
 21 17  2  0  0  0  0
 22 18  2  0  0  0  0
 23  7  1  0  0  0  0
 23 24  1  0  0  0  0
 25  9  1  0  0  0  0
 25 27  1  0  0  0  0
 26 27  1  0  0  0  0
M  END
>  <MODEL>
5

>  <REMARK>
 VINA RESULT:      -6.4      1.602      1.986
  Name = 
  4 active torsions:
  status: ('A' for Active; 'I' for Inactive)
    1  A    between atoms: C_4  and  O_16
    2  A    between atoms: C_4  and  C_17
    3  A    between atoms: O_8  and  C_14
    4  A    between atoms: C_9  and  N_15
                            x       y       z     vdW  Elec       q    Type
                         _______ _______ _______ _____ _____    ______ ____

>  <TORSDO>
F 4

$$$$
=
 OpenBabel11052418303D

 27 30  0  0  1  0  0  0  0  0999 V2000
  190.8310  175.3890  142.8130 C   0  0  0  0  0  2  0  0  0  0  0  0
  188.4880  176.0510  142.2550 C   0  0  0  0  0  0  0  0  0  0  0  0
  188.1870  175.2360  144.5710 N   0  0  0  0  0  0  0  0  0  0  0  0
  188.0620  176.8110  141.2100 N   0  0  0  0  0  0  0  0  0  0  0  0
  189.7610  175.0940  147.3480 C   0  0  0  0  0  2  0  0  0  0  0  0
  190.8980  176.1060  147.1770 C   0  0  0  0  0  2  0  0  0  0  0  0
  186.6650  176.9380  143.6050 C   0  0  0  0  0  0  0  0  0  0  0  0
  189.5930  175.1560  142.0680 N   0  0  0  0  0  0  0  0  0  0  0  0
  186.2650  177.7000  142.4950 C   0  0  0  0  0  0  0  0  0  0  0  0
  190.6150  175.5680  144.3140 C   0  0  1  0  0  3  0  0  0  0  0  0
  187.8010  176.0970  143.4870 C   0  0  0  0  0  0  0  0  0  0  0  0
  189.6260  174.1400  146.1590 C   0  0  0  0  0  2  0  0  0  0  0  0
  186.9860  177.6270  141.3060 C   0  0  0  0  0  3  0  0  0  0  0  0
  190.4640  177.2500  146.2590 C   0  0  0  0  0  2  0  0  0  0  0  0
  190.7990  177.0160  144.7770 C   0  0  0  0  0  2  0  0  0  0  0  0
  189.4020  174.9020  144.8980 C   0  0  0  0  0  0  0  0  0  0  0  0
  189.5260  172.1950  139.0090 C   0  0  0  0  0  3  0  0  0  0  0  0
  189.5680  174.1630  141.0220 C   0  0  0  0  0  0  0  0  0  0  0  0
  188.3510  173.6160  140.5770 C   0  0  0  0  0  3  0  0  0  0  0  0
  188.3300  172.6410  139.5770 C   0  0  0  0  0  3  0  0  0  0  0  0
  190.7430  172.7250  139.4440 C   0  0  0  0  0  3  0  0  0  0  0  0
  190.7640  173.7000  140.4450 C   0  0  0  0  0  3  0  0  0  0  0  0
  185.9080  177.0620  144.7850 O   0  0  0  0  0  0  0  0  0  0  0  0
  186.2760  177.8300  145.9220 C   0  0  0  0  0  1  0  0  0  0  0  0
  185.1000  178.6290  142.5790 C   0  0  0  0  0  2  0  0  0  0  0  0
  183.3890  178.2600  141.2360 C   0  0  0  0  0  1  0  0  0  0  0  0
  183.9120  177.9030  142.4770 O   0  0  0  0  0  0  0  0  0  0  0  0
  2 11  1  0  0  0  0
  3 16  2  0  0  0  0
  4 13  1  0  0  0  0
  4  2  2  0  0  0  0
  6  5  1  0  0  0  0
  7 23  1  0  0  0  0
  8  2  1  0  0  0  0
  8  1  1  0  0  0  0
  9 25  1  0  0  0  0
  9  7  1  0  0  0  0
 10  1  1  6  0  0  0
 10 15  1  0  0  0  0
 10 16  1  0  0  0  0
 11  7  2  0  0  0  0
 11  3  1  0  0  0  0
 12  5  1  0  0  0  0
 13  9  2  0  0  0  0
 14  6  1  0  0  0  0
 15 14  1  0  0  0  0
 16 12  1  0  0  0  0
 17 21  2  0  0  0  0
 17 20  1  0  0  0  0
 18  8  1  0  0  0  0
 19 18  1  0  0  0  0
 20 19  2  0  0  0  0
 21 22  1  0  0  0  0
 22 18  2  0  0  0  0
 23 24  1  0  0  0  0
 26 27  1  0  0  0  0
 27 25  1  0  0  0  0
M  END
>  <MODEL>
6

>  <REMARK>
 VINA RESULT:      -6.3      2.546      5.555
  Name = 
  4 active torsions:
  status: ('A' for Active; 'I' for Inactive)
    1  A    between atoms: C_4  and  O_16
    2  A    between atoms: C_4  and  C_17
    3  A    between atoms: O_8  and  C_14
    4  A    between atoms: C_9  and  N_15
                            x       y       z     vdW  Elec       q    Type
                         _______ _______ _______ _____ _____    ______ ____

>  <TORSDO>
F 4

$$$$
=
 OpenBabel11052418303D

 27 30  0  0  1  0  0  0  0  0999 V2000
  190.3290  177.9150  143.4890 C   0  0  0  0  0  2  0  0  0  0  0  0
  190.8000  175.5990  142.6810 C   0  0  0  0  0  0  0  0  0  0  0  0
  188.3960  175.4060  143.2280 N   0  0  0  0  0  0  0  0  0  0  0  0
  191.8910  175.1600  141.9970 N   0  0  0  0  0  0  0  0  0  0  0  0
  185.7280  177.1650  143.2270 C   0  0  0  0  0  2  0  0  0  0  0  0
  186.0810  178.3640  142.3420 C   0  0  0  0  0  2  0  0  0  0  0  0
  189.4370  173.9600  141.5030 C   0  0  0  0  0  0  0  0  0  0  0  0
  190.9620  176.6110  143.6860 N   0  0  0  0  0  0  0  0  0  0  0  0
  190.5940  173.5420  140.8250 C   0  0  0  0  0  0  0  0  0  0  0  0
  188.8450  177.8270  143.1400 C   0  0  1  0  0  3  0  0  0  0  0  0
  189.5390  175.0110  142.4500 C   0  0  0  0  0  0  0  0  0  0  0  0
  186.7970  176.8640  144.2810 C   0  0  0  0  0  2  0  0  0  0  0  0
  191.8120  174.1650  141.0820 C   0  0  0  0  0  3  0  0  0  0  0  0
  187.0860  177.9580  141.2630 C   0  0  0  0  0  2  0  0  0  0  0  0
  188.5530  178.1620  141.6760 C   0  0  0  0  0  2  0  0  0  0  0  0
  188.1140  176.6100  143.6340 C   0  0  0  0  0  0  0  0  0  0  0  0
  193.7200  176.0330  146.8770 C   0  0  0  0  0  3  0  0  0  0  0  0
  191.8920  176.4270  144.7740 C   0  0  0  0  0  0  0  0  0  0  0  0
  193.1580  177.0380  144.7490 C   0  0  0  0  0  3  0  0  0  0  0  0
  194.0650  176.8440  145.7930 C   0  0  0  0  0  3  0  0  0  0  0  0
  192.4680  175.4150  146.9140 C   0  0  0  0  0  3  0  0  0  0  0  0
  191.5610  175.6090  145.8680 C   0  0  0  0  0  3  0  0  0  0  0  0
  188.2300  173.3050  141.1930 O   0  0  0  0  0  0  0  0  0  0  0  0
  187.5800  172.3450  142.0120 C   0  0  0  0  0  1  0  0  0  0  0  0
  190.5350  172.4660  139.7930 C   0  0  0  0  0  2  0  0  0  0  0  0
  190.0060  173.4140  137.8720 C   0  0  0  0  0  1  0  0  0  0  0  0
  191.0910  172.9290  138.6000 O   0  0  0  0  0  0  0  0  0  0  0  0
  1  8  1  0  0  0  0
  2  8  1  0  0  0  0
  3 16  2  0  0  0  0
  4  2  2  0  0  0  0
  5 12  1  0  0  0  0
  6  5  1  0  0  0  0
  7 11  2  0  0  0  0
  8 18  1  0  0  0  0
  9 13  2  0  0  0  0
  9  7  1  0  0  0  0
 10 15  1  6  0  0  0
 10  1  1  0  0  0  0
 10 16  1  0  0  0  0
 11  2  1  0  0  0  0
 11  3  1  0  0  0  0
 13  4  1  0  0  0  0
 14 15  1  0  0  0  0
 14  6  1  0  0  0  0
 16 12  1  0  0  0  0
 17 21  1  0  0  0  0
 18 22  1  0  0  0  0
 19 18  2  0  0  0  0
 19 20  1  0  0  0  0
 20 17  2  0  0  0  0
 22 21  2  0  0  0  0
 23  7  1  0  0  0  0
 23 24  1  0  0  0  0
 25  9  1  0  0  0  0
 26 27  1  0  0  0  0
 27 25  1  0  0  0  0
M  END
>  <MODEL>
7

>  <REMARK>
 VINA RESULT:      -6.3      1.419      5.241
  Name = 
  4 active torsions:
  status: ('A' for Active; 'I' for Inactive)
    1  A    between atoms: C_4  and  O_16
    2  A    between atoms: C_4  and  C_17
    3  A    between atoms: O_8  and  C_14
    4  A    between atoms: C_9  and  N_15
                            x       y       z     vdW  Elec       q    Type
                         _______ _______ _______ _____ _____    ______ ____

>  <TORSDO>
F 4

$$$$
=
 OpenBabel11052418303D

 27 30  0  0  1  0  0  0  0  0999 V2000
  191.1420  172.8080  144.0540 C   0  0  0  0  0  2  0  0  0  0  0  0
  190.2520  174.8120  145.2530 C   0  0  0  0  0  0  0  0  0  0  0  0
  189.7220  175.4130  142.9130 N   0  0  0  0  0  0  0  0  0  0  0  0
  190.0190  174.9510  146.5860 N   0  0  0  0  0  0  0  0  0  0  0  0
  188.8930  174.0360  140.1510 C   0  0  0  0  0  2  0  0  0  0  0  0
  188.4300  172.6360  140.5640 C   0  0  0  0  0  2  0  0  0  0  0  0
  188.3790  176.3010  144.7990 C   0  0  0  0  0  0  0  0  0  0  0  0
  191.3770  174.0370  144.8130 N   0  0  0  0  0  0  0  0  0  0  0  0
  188.1830  176.4130  146.1850 C   0  0  0  0  0  0  0  0  0  0  0  0
  190.2030  172.9970  142.8650 C   0  0  1  0  0  3  0  0  0  0  0  0
  189.4340  175.4820  144.3200 C   0  0  0  0  0  0  0  0  0  0  0  0
  190.2340  174.4310  140.7760 C   0  0  0  0  0  2  0  0  0  0  0  0
  189.0120  175.7190  147.0630 C   0  0  0  0  0  3  0  0  0  0  0  0
  187.8130  172.6660  141.9640 C   0  0  0  0  0  2  0  0  0  0  0  0
  188.8190  172.3830  143.0900 C   0  0  0  0  0  2  0  0  0  0  0  0
  190.1560  174.3730  142.2630 C   0  0  0  0  0  0  0  0  0  0  0  0
  195.3190  174.9470  146.1400 C   0  0  0  0  0  3  0  0  0  0  0  0
  192.7090  174.3430  145.2770 C   0  0  0  0  0  0  0  0  0  0  0  0
  193.0510  175.6490  145.6700 C   0  0  0  0  0  3  0  0  0  0  0  0
  194.3460  175.9490  146.1010 C   0  0  0  0  0  3  0  0  0  0  0  0
  194.9960  173.6470  145.7480 C   0  0  0  0  0  3  0  0  0  0  0  0
  193.7000  173.3470  145.3170 C   0  0  0  0  0  3  0  0  0  0  0  0
  187.5020  177.0120  143.9590 O   0  0  0  0  0  0  0  0  0  0  0  0
  186.4340  176.4450  143.2150 C   0  0  0  0  0  1  0  0  0  0  0  0
  187.0650  177.2310  146.7410 C   0  0  0  0  0  2  0  0  0  0  0  0
  184.8770  177.4040  146.5130 C   0  0  0  0  0  1  0  0  0  0  0  0
  185.8910  176.4770  146.7510 O   0  0  0  0  0  0  0  0  0  0  0  0
  1  8  1  0  0  0  0
  2  4  1  0  0  0  0
  3 11  1  0  0  0  0
  4 13  2  0  0  0  0
  5  6  1  0  0  0  0
  5 12  1  0  0  0  0
  6 14  1  0  0  0  0
  7  9  2  0  0  0  0
  8  2  1  0  0  0  0
  8 18  1  0  0  0  0
  9 25  1  0  0  0  0
  9 13  1  0  0  0  0
 10 15  1  1  0  0  0
 10  1  1  0  0  0  0
 11  7  1  0  0  0  0
 11  2  2  0  0  0  0
 12 16  1  0  0  0  0
 14 15  1  0  0  0  0
 16 10  1  0  0  0  0
 16  3  2  0  0  0  0
 18 22  2  0  0  0  0
 18 19  1  0  0  0  0
 19 20  2  0  0  0  0
 20 17  1  0  0  0  0
 21 17  2  0  0  0  0
 22 21  1  0  0  0  0
 23  7  1  0  0  0  0
 24 23  1  0  0  0  0
 25 27  1  0  0  0  0
 26 27  1  0  0  0  0
M  END
>  <MODEL>
8

>  <REMARK>
 VINA RESULT:      -6.3      2.531      6.558
  Name = 
  4 active torsions:
  status: ('A' for Active; 'I' for Inactive)
    1  A    between atoms: C_4  and  O_16
    2  A    between atoms: C_4  and  C_17
    3  A    between atoms: O_8  and  C_14
    4  A    between atoms: C_9  and  N_15
                            x       y       z     vdW  Elec       q    Type
                         _______ _______ _______ _____ _____    ______ ____

>  <TORSDO>
F 4

$$$$
=
 OpenBabel11052418303D

 27 30  0  0  1  0  0  0  0  0999 V2000
  191.6260  174.7630  146.2200 C   0  0  0  0  0  2  0  0  0  0  0  0
  190.6760  173.9930  144.0410 C   0  0  0  0  0  0  0  0  0  0  0  0
  192.7570  175.0820  143.2670 N   0  0  0  0  0  0  0  0  0  0  0  0
  189.6670  173.1030  143.8390 N   0  0  0  0  0  0  0  0  0  0  0  0
  195.7630  175.5930  144.2230 C   0  0  0  0  0  2  0  0  0  0  0  0
  195.9610  174.5890  145.3620 C   0  0  0  0  0  2  0  0  0  0  0  0
  191.7130  173.2450  141.9690 C   0  0  0  0  0  0  0  0  0  0  0  0
  190.6150  174.8790  145.1690 N   0  0  0  0  0  0  0  0  0  0  0  0
  190.6480  172.3450  141.8050 C   0  0  0  0  0  0  0  0  0  0  0  0
  193.0580  174.7650  145.6920 C   0  0  1  0  0  3  0  0  0  0  0  0
  191.7320  174.0870  143.1110 C   0  0  0  0  0  0  0  0  0  0  0  0
  194.4630  176.3910  144.3490 C   0  0  0  0  0  2  0  0  0  0  0  0
  189.6370  172.2850  142.7610 C   0  0  0  0  0  3  0  0  0  0  0  0
  195.1220  173.3330  145.1220 C   0  0  0  0  0  2  0  0  0  0  0  0
  193.7250  173.3890  145.7630 C   0  0  0  0  0  2  0  0  0  0  0  0
  193.2880  175.4760  144.3880 C   0  0  0  0  0  0  0  0  0  0  0  0
  187.2650  177.4320  145.7900 C   0  0  0  0  0  3  0  0  0  0  0  0
  189.4710  175.7350  145.3720 C   0  0  0  0  0  0  0  0  0  0  0  0
  189.1170  176.7020  144.4140 C   0  0  0  0  0  3  0  0  0  0  0  0
  188.0210  177.5440  144.6210 C   0  0  0  0  0  3  0  0  0  0  0  0
  187.6080  176.4810  146.7530 C   0  0  0  0  0  3  0  0  0  0  0  0
  188.7050  175.6400  146.5470 C   0  0  0  0  0  3  0  0  0  0  0  0
  192.7140  173.2530  140.9800 O   0  0  0  0  0  0  0  0  0  0  0  0
  192.7940  174.1670  139.8960 C   0  0  0  0  0  1  0  0  0  0  0  0
  190.5990  171.4120  140.6410 C   0  0  0  0  0  2  0  0  0  0  0  0
  189.6990  171.0040  138.6690 C   0  0  0  0  0  1  0  0  0  0  0  0
  189.9710  172.0380  139.5640 O   0  0  0  0  0  0  0  0  0  0  0  0
  2  8  1  0  0  0  0
  3 16  2  0  0  0  0
  4  2  1  0  0  0  0
  5 12  1  0  0  0  0
  5  6  1  0  0  0  0
  7 11  1  0  0  0  0
  8 18  1  0  0  0  0
  8  1  1  0  0  0  0
  9  7  2  0  0  0  0
  9 13  1  0  0  0  0
 10 15  1  6  0  0  0
 10  1  1  0  0  0  0
 11  3  1  0  0  0  0
 11  2  2  0  0  0  0
 12 16  1  0  0  0  0
 13  4  2  0  0  0  0
 14  6  1  0  0  0  0
 14 15  1  0  0  0  0
 16 10  1  0  0  0  0
 17 21  1  0  0  0  0
 18 22  1  0  0  0  0
 19 20  1  0  0  0  0
 19 18  2  0  0  0  0
 20 17  2  0  0  0  0
 22 21  2  0  0  0  0
 23  7  1  0  0  0  0
 24 23  1  0  0  0  0
 25  9  1  0  0  0  0
 26 27  1  0  0  0  0
 27 25  1  0  0  0  0
M  END
>  <MODEL>
9

>  <REMARK>
 VINA RESULT:      -6.0      1.968      2.734
  Name = 
  4 active torsions:
  status: ('A' for Active; 'I' for Inactive)
    1  A    between atoms: C_4  and  O_16
    2  A    between atoms: C_4  and  C_17
    3  A    between atoms: O_8  and  C_14
    4  A    between atoms: C_9  and  N_15
                            x       y       z     vdW  Elec       q    Type
                         _______ _______ _______ _____ _____    ______ ____

>  <TORSDO>
F 4

$$$$
