=
 OpenBabel11052418193D

 27 31  0  0  1  0  0  0  0  0999 V2000
  187.4180  176.1070  143.9140 N   0  0  0  0  0  2  0  0  0  0  0  0
  189.1360  174.8430  142.7730 C   0  0  0  0  0  0  0  0  0  0  0  0
  187.9130  176.0200  140.9310 N   0  0  0  0  0  2  0  0  0  0  0  0
  190.0580  171.9570  139.9750 C   0  0  0  0  0  3  0  0  0  0  0  0
  189.3650  171.9960  137.5260 C   0  0  0  0  0  1  0  0  0  0  0  0
  189.8790  173.7640  143.1840 N   0  0  0  0  0  0  0  0  0  0  0  0
  188.8240  173.7320  139.2620 N   0  0  0  0  0  0  0  0  0  0  0  0
  184.9050  178.1730  141.2150 C   0  0  0  0  0  3  0  0  0  0  0  0
  188.0600  174.6150  138.3900 C   0  0  0  0  0  1  0  0  0  0  0  0
  184.5860  178.0780  142.5680 C   0  0  0  0  0  0  0  0  0  0  0  0
  189.0900  173.8920  140.5710 C   0  0  0  0  0  0  0  0  0  0  0  0
  188.8490  175.9670  143.7200 C   0  0  2  0  0  3  0  0  0  0  0  0
  189.4100  172.5660  138.9020 C   0  0  0  0  0  0  0  0  0  0  0  0
  189.8300  172.8320  141.0200 C   0  0  0  0  0  0  0  0  0  0  0  0
  186.5620  176.7160  142.9500 C   0  0  0  0  0  0  0  0  0  0  0  0
  188.6940  174.9250  141.4340 C   0  0  0  0  0  0  0  0  0  0  0  0
  186.0350  177.5200  140.7200 C   0  0  0  0  0  3  0  0  0  0  0  0
  190.2330  172.7500  142.3430 C   0  0  0  0  0  3  0  0  0  0  0  0
  183.4530  178.7100  143.0600 O   0  0  0  0  0  1  0  0  0  0  0  0
  185.4130  177.3570  143.4290 C   0  0  0  0  0  3  0  0  0  0  0  0
  186.8670  176.7740  141.5650 C   0  0  0  0  0  0  0  0  0  0  0  0
  190.8060  175.6190  147.5360 C   0  0  0  0  0  3  0  0  0  0  0  0
  189.5510  175.8430  145.0400 C   0  0  0  0  0  0  0  0  0  0  0  0
  190.8000  176.4430  145.2590 C   0  0  0  0  0  3  0  0  0  0  0  0
  191.4260  176.3300  146.5040 C   0  0  0  0  0  3  0  0  0  0  0  0
  189.5590  175.0240  147.3230 C   0  0  0  0  0  3  0  0  0  0  0  0
  188.9330  175.1370  146.0790 C   0  0  0  0  0  3  0  0  0  0  0  0
  2  6  1  0  0  0  0
  2 12  1  0  0  0  0
  3 16  1  0  0  0  0
  3 21  1  0  0  0  0
  4 14  1  0  0  0  0
  5 13  1  0  0  0  0
  7 11  1  0  0  0  0
  8 10  1  0  0  0  0
  9  7  1  0  0  0  0
 10 19  1  0  0  0  0
 10 20  2  0  0  0  0
 11 14  2  0  0  0  0
 11 16  1  0  0  0  0
 12  1  1  0  0  0  0
 12 23  1  1  0  0  0
 13  7  1  0  0  0  0
 13  4  2  0  0  0  0
 14 18  1  0  0  0  0
 15 20  1  0  0  0  0
 15  1  1  0  0  0  0
 16  2  2  0  0  0  0
 17  8  2  0  0  0  0
 17 21  1  0  0  0  0
 18  6  2  0  0  0  0
 21 15  2  0  0  0  0
 23 24  2  0  0  0  0
 23 27  1  0  0  0  0
 24 25  1  0  0  0  0
 25 22  2  0  0  0  0
 26 22  1  0  0  0  0
 27 26  2  0  0  0  0
M  END
>  <MODEL>
1

>  <REMARK>
 VINA RESULT:      -8.0      0.000      0.000
  Name = 
  1 active torsions:
  status: ('A' for Active; 'I' for Inactive)
    1  A    between atoms: C_9  and  C_15
                            x       y       z     vdW  Elec       q    Type
                         _______ _______ _______ _____ _____    ______ ____

>  <TORSDO>
F 1

$$$$
=
 OpenBabel11052418193D

 27 31  0  0  1  0  0  0  0  0999 V2000
  188.6040  177.5210  145.6230 N   0  0  0  0  0  2  0  0  0  0  0  0
  187.8930  176.2110  143.7180 C   0  0  0  0  0  0  0  0  0  0  0  0
  189.4970  174.7170  144.9270 N   0  0  0  0  0  2  0  0  0  0  0  0
  188.9660  174.1760  140.2960 C   0  0  0  0  0  3  0  0  0  0  0  0
  190.6320  172.2550  140.1790 C   0  0  0  0  0  1  0  0  0  0  0  0
  187.3090  176.5920  142.5340 N   0  0  0  0  0  0  0  0  0  0  0  0
  189.9510  173.5210  142.2410 N   0  0  0  0  0  0  0  0  0  0  0  0
  191.5050  175.5080  147.9450 C   0  0  0  0  0  3  0  0  0  0  0  0
  190.7990  172.7940  143.1770 C   0  0  0  0  0  1  0  0  0  0  0  0
  191.2130  176.8520  148.1650 C   0  0  0  0  0  0  0  0  0  0  0  0
  189.1100  174.5380  142.5060 C   0  0  0  0  0  0  0  0  0  0  0  0
  187.4750  176.8520  145.0050 C   0  0  2  0  0  3  0  0  0  0  0  0
  189.8620  173.3010  140.9090 C   0  0  0  0  0  0  0  0  0  0  0  0
  188.5090  174.9470  141.3470 C   0  0  0  0  0  0  0  0  0  0  0  0
  189.6330  176.8220  146.3190 C   0  0  0  0  0  0  0  0  0  0  0  0
  188.8450  175.1680  143.7310 C   0  0  0  0  0  0  0  0  0  0  0  0
  190.8860  174.8240  146.8980 C   0  0  0  0  0  3  0  0  0  0  0  0
  187.5980  175.9910  141.3450 C   0  0  0  0  0  3  0  0  0  0  0  0
  191.8410  177.5400  149.1930 O   0  0  0  0  0  1  0  0  0  0  0  0
  190.2790  177.5020  147.3580 C   0  0  0  0  0  3  0  0  0  0  0  0
  189.9610  175.4640  146.0630 C   0  0  0  0  0  0  0  0  0  0  0  0
  184.1050  179.4980  144.6100 C   0  0  0  0  0  3  0  0  0  0  0  0
  186.3130  177.7920  144.8670 C   0  0  0  0  0  0  0  0  0  0  0  0
  186.3730  178.9010  144.0090 C   0  0  0  0  0  3  0  0  0  0  0  0
  185.2710  179.7520  143.8830 C   0  0  0  0  0  3  0  0  0  0  0  0
  184.0400  178.3910  145.4620 C   0  0  0  0  0  3  0  0  0  0  0  0
  185.1410  177.5400  145.5890 C   0  0  0  0  0  3  0  0  0  0  0  0
  1 15  1  0  0  0  0
  2 16  1  0  0  0  0
  2 12  1  0  0  0  0
  3 21  1  0  0  0  0
  4 13  2  0  0  0  0
  4 14  1  0  0  0  0
  5 13  1  0  0  0  0
  6  2  2  0  0  0  0
  7 11  1  0  0  0  0
  7  9  1  0  0  0  0
  8 10  1  0  0  0  0
 10 19  1  0  0  0  0
 11 16  2  0  0  0  0
 12 23  1  6  0  0  0
 12  1  1  0  0  0  0
 13  7  1  0  0  0  0
 14 11  1  0  0  0  0
 15 20  1  0  0  0  0
 16  3  1  0  0  0  0
 17  8  2  0  0  0  0
 18 14  2  0  0  0  0
 18  6  1  0  0  0  0
 20 10  2  0  0  0  0
 21 15  2  0  0  0  0
 21 17  1  0  0  0  0
 22 26  1  0  0  0  0
 23 27  1  0  0  0  0
 24 23  2  0  0  0  0
 25 24  1  0  0  0  0
 25 22  2  0  0  0  0
 26 27  2  0  0  0  0
M  END
>  <MODEL>
2

>  <REMARK>
 VINA RESULT:      -7.8      2.597      5.520
  Name = 
  1 active torsions:
  status: ('A' for Active; 'I' for Inactive)
    1  A    between atoms: C_9  and  C_15
                            x       y       z     vdW  Elec       q    Type
                         _______ _______ _______ _____ _____    ______ ____

>  <TORSDO>
F 1

$$$$
=
 OpenBabel11052418193D

 27 31  0  0  1  0  0  0  0  0999 V2000
  187.7830  175.3760  143.1820 N   0  0  0  0  0  2  0  0  0  0  0  0
  189.2910  176.5660  144.6510 C   0  0  0  0  0  0  0  0  0  0  0  0
  190.7770  175.6490  142.8570 N   0  0  0  0  0  2  0  0  0  0  0  0
  192.5930  176.4170  147.1150 C   0  0  0  0  0  3  0  0  0  0  0  0
  194.9150  175.6270  146.4310 C   0  0  0  0  0  1  0  0  0  0  0  0
  189.1390  176.9750  145.9540 N   0  0  0  0  0  0  0  0  0  0  0  0
  192.8780  175.7330  144.9620 N   0  0  0  0  0  0  0  0  0  0  0  0
  189.8280  173.4460  140.0260 C   0  0  0  0  0  3  0  0  0  0  0  0
  193.5100  175.2190  143.7540 C   0  0  0  0  0  1  0  0  0  0  0  0
  188.4810  173.1920  140.2730 C   0  0  0  0  0  0  0  0  0  0  0  0
  191.5960  176.1110  145.1280 C   0  0  0  0  0  0  0  0  0  0  0  0
  188.1520  176.6850  143.6860 C   0  0  2  0  0  3  0  0  0  0  0  0
  193.4790  175.9200  146.1600 C   0  0  0  0  0  0  0  0  0  0  0  0
  191.4050  176.5230  146.4190 C   0  0  0  0  0  0  0  0  0  0  0  0
  188.5380  174.6870  142.1880 C   0  0  0  0  0  0  0  0  0  0  0  0
  190.5430  176.0930  144.2020 C   0  0  0  0  0  0  0  0  0  0  0  0
  190.5410  174.2970  140.8720 C   0  0  0  0  0  3  0  0  0  0  0  0
  190.1640  176.9590  146.8540 C   0  0  0  0  0  3  0  0  0  0  0  0
  187.7730  172.3310  139.4460 O   0  0  0  0  0  1  0  0  0  0  0  0
  187.8410  173.8130  141.3450 C   0  0  0  0  0  3  0  0  0  0  0  0
  189.9220  174.9150  141.9660 C   0  0  0  0  0  0  0  0  0  0  0  0
  184.7480  178.7700  145.2930 C   0  0  0  0  0  3  0  0  0  0  0  0
  186.9530  177.3930  144.2450 C   0  0  0  0  0  0  0  0  0  0  0  0
  186.1100  176.7710  145.1790 C   0  0  0  0  0  3  0  0  0  0  0  0
  185.0100  177.4580  145.7010 C   0  0  0  0  0  3  0  0  0  0  0  0
  185.5890  179.3950  144.3670 C   0  0  0  0  0  3  0  0  0  0  0  0
  186.6890  178.7080  143.8460 C   0  0  0  0  0  3  0  0  0  0  0  0
  1 12  1  0  0  0  0
  2  6  1  0  0  0  0
  3 16  1  0  0  0  0
  6 18  2  0  0  0  0
  7 11  1  0  0  0  0
  7 13  1  0  0  0  0
  8 10  2  0  0  0  0
  8 17  1  0  0  0  0
  9  7  1  0  0  0  0
 10 20  1  0  0  0  0
 11 14  2  0  0  0  0
 12 23  1  1  0  0  0
 12  2  1  0  0  0  0
 13  5  1  0  0  0  0
 13  4  2  0  0  0  0
 14 18  1  0  0  0  0
 14  4  1  0  0  0  0
 15  1  1  0  0  0  0
 16  2  2  0  0  0  0
 16 11  1  0  0  0  0
 17 21  2  0  0  0  0
 19 10  1  0  0  0  0
 20 15  2  0  0  0  0
 21 15  1  0  0  0  0
 21  3  1  0  0  0  0
 22 25  1  0  0  0  0
 23 24  1  0  0  0  0
 24 25  2  0  0  0  0
 26 22  2  0  0  0  0
 27 23  2  0  0  0  0
 27 26  1  0  0  0  0
M  END
>  <MODEL>
3

>  <REMARK>
 VINA RESULT:      -7.8      2.602      6.063
  Name = 
  1 active torsions:
  status: ('A' for Active; 'I' for Inactive)
    1  A    between atoms: C_9  and  C_15
                            x       y       z     vdW  Elec       q    Type
                         _______ _______ _______ _____ _____    ______ ____

>  <TORSDO>
F 1

$$$$
=
 OpenBabel11052418193D

 27 31  0  0  1  0  0  0  0  0999 V2000
  187.7430  176.4790  145.1420 N   0  0  0  0  0  2  0  0  0  0  0  0
  189.1690  175.5920  143.4020 C   0  0  0  0  0  0  0  0  0  0  0  0
  187.5030  177.0000  142.1730 N   0  0  0  0  0  2  0  0  0  0  0  0
  189.4690  173.3710  139.9400 C   0  0  0  0  0  3  0  0  0  0  0  0
  188.2030  173.8220  137.7790 C   0  0  0  0  0  1  0  0  0  0  0  0
  190.0210  174.5140  143.4020 N   0  0  0  0  0  0  0  0  0  0  0  0
  188.0480  175.1500  139.9080 N   0  0  0  0  0  0  0  0  0  0  0  0
  184.5920  178.8210  143.5770 C   0  0  0  0  0  3  0  0  0  0  0  0
  187.0700  176.1200  139.4350 C   0  0  0  0  0  1  0  0  0  0  0  0
  184.6130  178.4460  144.9190 C   0  0  0  0  0  0  0  0  0  0  0  0
  188.6190  175.0770  141.1250 C   0  0  0  0  0  0  0  0  0  0  0  0
  189.0870  176.4880  144.5980 C   0  0  2  0  0  3  0  0  0  0  0  0
  188.5630  174.1220  139.1930 C   0  0  0  0  0  0  0  0  0  0  0  0
  189.4760  174.0110  141.1650 C   0  0  0  0  0  0  0  0  0  0  0  0
  186.6610  177.1920  144.5480 C   0  0  0  0  0  0  0  0  0  0  0  0
  188.4140  175.8930  142.2470 C   0  0  0  0  0  0  0  0  0  0  0  0
  185.5860  178.3630  142.7130 C   0  0  0  0  0  3  0  0  0  0  0  0
  190.1900  173.7100  142.3130 C   0  0  0  0  0  3  0  0  0  0  0  0
  183.6150  178.8830  145.7780 O   0  0  0  0  0  1  0  0  0  0  0  0
  185.6450  177.6400  145.4000 C   0  0  0  0  0  3  0  0  0  0  0  0
  186.6200  177.5370  143.1710 C   0  0  0  0  0  0  0  0  0  0  0  0
  191.9230  175.5860  147.7060 C   0  0  0  0  0  3  0  0  0  0  0  0
  190.0920  176.1690  145.6660 C   0  0  0  0  0  0  0  0  0  0  0  0
  191.4250  176.5980  145.5630 C   0  0  0  0  0  3  0  0  0  0  0  0
  192.3380  176.3050  146.5810 C   0  0  0  0  0  3  0  0  0  0  0  0
  190.5950  175.1620  147.8140 C   0  0  0  0  0  3  0  0  0  0  0  0
  189.6820  175.4540  146.7970 C   0  0  0  0  0  3  0  0  0  0  0  0
  2  6  1  0  0  0  0
  2 12  1  0  0  0  0
  3 16  1  0  0  0  0
  3 21  1  0  0  0  0
  4 14  1  0  0  0  0
  5 13  1  0  0  0  0
  7 11  1  0  0  0  0
  8 10  1  0  0  0  0
  9  7  1  0  0  0  0
 10 20  2  0  0  0  0
 10 19  1  0  0  0  0
 11 14  2  0  0  0  0
 11 16  1  0  0  0  0
 12  1  1  0  0  0  0
 12 23  1  1  0  0  0
 13  7  1  0  0  0  0
 13  4  2  0  0  0  0
 14 18  1  0  0  0  0
 15  1  1  0  0  0  0
 15 20  1  0  0  0  0
 16  2  2  0  0  0  0
 17 21  1  0  0  0  0
 17  8  2  0  0  0  0
 18  6  2  0  0  0  0
 21 15  2  0  0  0  0
 22 26  1  0  0  0  0
 23 27  1  0  0  0  0
 24 23  2  0  0  0  0
 24 25  1  0  0  0  0
 25 22  2  0  0  0  0
 27 26  2  0  0  0  0
M  END
>  <MODEL>
4

>  <REMARK>
 VINA RESULT:      -7.7      1.321      1.621
  Name = 
  1 active torsions:
  status: ('A' for Active; 'I' for Inactive)
    1  A    between atoms: C_9  and  C_15
                            x       y       z     vdW  Elec       q    Type
                         _______ _______ _______ _____ _____    ______ ____

>  <TORSDO>
F 1

$$$$
=
 OpenBabel11052418193D

 27 31  0  0  1  0  0  0  0  0999 V2000
  187.6230  176.1270  143.0530 N   0  0  0  0  0  2  0  0  0  0  0  0
  189.9300  175.4190  143.2230 C   0  0  0  0  0  0  0  0  0  0  0  0
  189.2550  175.8850  145.5890 N   0  0  0  0  0  2  0  0  0  0  0  0
  193.7740  176.3280  144.4060 C   0  0  0  0  0  3  0  0  0  0  0  0
  194.4790  176.9930  146.7600 C   0  0  0  0  0  1  0  0  0  0  0  0
  190.9240  175.3630  142.2760 N   0  0  0  0  0  0  0  0  0  0  0  0
  192.1500  176.4310  145.9980 N   0  0  0  0  0  0  0  0  0  0  0  0
  186.0180  177.2300  146.8040 C   0  0  0  0  0  3  0  0  0  0  0  0
  191.4950  176.6320  147.2840 C   0  0  0  0  0  1  0  0  0  0  0  0
  185.3300  177.4930  145.6210 C   0  0  0  0  0  0  0  0  0  0  0  0
  191.5860  176.0660  144.8320 C   0  0  0  0  0  0  0  0  0  0  0  0
  188.5320  175.0110  142.8740 C   0  0  2  0  0  3  0  0  0  0  0  0
  193.4700  176.5870  145.7410 C   0  0  0  0  0  0  0  0  0  0  0  0
  192.5480  176.0000  143.8600 C   0  0  0  0  0  0  0  0  0  0  0  0
  187.1660  176.5560  144.3330 C   0  0  0  0  0  0  0  0  0  0  0  0
  190.2380  175.8020  144.5470 C   0  0  0  0  0  0  0  0  0  0  0  0
  187.2890  176.6570  146.7560 C   0  0  0  0  0  3  0  0  0  0  0  0
  192.2260  175.6510  142.5590 C   0  0  0  0  0  3  0  0  0  0  0  0
  184.0740  178.0800  145.6630 O   0  0  0  0  0  1  0  0  0  0  0  0
  185.9010  177.1520  144.3940 C   0  0  0  0  0  3  0  0  0  0  0  0
  187.8880  176.3270  145.5340 C   0  0  0  0  0  0  0  0  0  0  0  0
  188.1850  173.3120  138.9360 C   0  0  0  0  0  3  0  0  0  0  0  0
  188.3940  174.4320  141.4960 C   0  0  0  0  0  0  0  0  0  0  0  0
  188.1290  175.2500  140.3870 C   0  0  0  0  0  3  0  0  0  0  0  0
  188.0240  174.6900  139.1100 C   0  0  0  0  0  3  0  0  0  0  0  0
  188.4540  172.4950  140.0380 C   0  0  0  0  0  3  0  0  0  0  0  0
  188.5590  173.0550  141.3150 C   0  0  0  0  0  3  0  0  0  0  0  0
  1 15  1  0  0  0  0
  2 16  1  0  0  0  0
  4 13  2  0  0  0  0
  6 18  1  0  0  0  0
  6  2  2  0  0  0  0
  7  9  1  0  0  0  0
 10 19  1  0  0  0  0
 10  8  2  0  0  0  0
 11  7  1  0  0  0  0
 12 23  1  6  0  0  0
 12  1  1  0  0  0  0
 12  2  1  0  0  0  0
 13  7  1  0  0  0  0
 13  5  1  0  0  0  0
 14  4  1  0  0  0  0
 14 11  1  0  0  0  0
 15 20  2  0  0  0  0
 15 21  1  0  0  0  0
 16 11  2  0  0  0  0
 16  3  1  0  0  0  0
 17  8  1  0  0  0  0
 18 14  2  0  0  0  0
 20 10  1  0  0  0  0
 21  3  1  0  0  0  0
 21 17  2  0  0  0  0
 22 25  2  0  0  0  0
 22 26  1  0  0  0  0
 24 23  2  0  0  0  0
 25 24  1  0  0  0  0
 26 27  2  0  0  0  0
 27 23  1  0  0  0  0
M  END
>  <MODEL>
5

>  <REMARK>
 VINA RESULT:      -7.6      2.100      5.901
  Name = 
  1 active torsions:
  status: ('A' for Active; 'I' for Inactive)
    1  A    between atoms: C_9  and  C_15
                            x       y       z     vdW  Elec       q    Type
                         _______ _______ _______ _____ _____    ______ ____

>  <TORSDO>
F 1

$$$$
=
 OpenBabel11052418193D

 27 31  0  0  1  0  0  0  0  0999 V2000
  188.0380  175.2220  143.2450 N   0  0  0  0  0  2  0  0  0  0  0  0
  189.6280  176.3510  144.6750 C   0  0  0  0  0  0  0  0  0  0  0  0
  191.0170  175.4710  142.7870 N   0  0  0  0  0  2  0  0  0  0  0  0
  193.0410  176.0910  146.9740 C   0  0  0  0  0  3  0  0  0  0  0  0
  195.3180  175.2950  146.1580 C   0  0  0  0  0  1  0  0  0  0  0  0
  189.5440  176.7220  145.9950 N   0  0  0  0  0  0  0  0  0  0  0  0
  193.2150  175.4690  144.7910 N   0  0  0  0  0  0  0  0  0  0  0  0
  189.9080  173.3650  139.9410 C   0  0  0  0  0  3  0  0  0  0  0  0
  193.7830  174.9840  143.5400 C   0  0  0  0  0  1  0  0  0  0  0  0
  188.5700  173.1190  140.2440 C   0  0  0  0  0  0  0  0  0  0  0  0
  191.9480  175.8550  145.0290 C   0  0  0  0  0  0  0  0  0  0  0  0
  188.4470  176.5110  143.7700 C   0  0  2  0  0  3  0  0  0  0  0  0
  193.8750  175.6130  145.9650 C   0  0  0  0  0  0  0  0  0  0  0  0
  191.8230  176.2310  146.3390 C   0  0  0  0  0  0  0  0  0  0  0  0
  188.7360  174.5550  142.1970 C   0  0  0  0  0  0  0  0  0  0  0  0
  190.8520  175.8770  144.1530 C   0  0  0  0  0  0  0  0  0  0  0  0
  190.6700  174.1820  140.7760 C   0  0  0  0  0  3  0  0  0  0  0  0
  190.6090  176.6680  146.8450 C   0  0  0  0  0  3  0  0  0  0  0  0
  187.8140  172.2910  139.4270 O   0  0  0  0  0  1  0  0  0  0  0  0
  187.9890  173.7150  141.3630 C   0  0  0  0  0  3  0  0  0  0  0  0
  190.1110  174.7740  141.9160 C   0  0  0  0  0  0  0  0  0  0  0  0
  185.0810  178.4760  145.5930 C   0  0  0  0  0  3  0  0  0  0  0  0
  187.2840  177.2160  144.4060 C   0  0  0  0  0  0  0  0  0  0  0  0
  186.9190  178.5140  144.0170 C   0  0  0  0  0  3  0  0  0  0  0  0
  185.8210  179.1430  144.6110 C   0  0  0  0  0  3  0  0  0  0  0  0
  185.4390  177.1810  145.9790 C   0  0  0  0  0  3  0  0  0  0  0  0
  186.5370  176.5520  145.3850 C   0  0  0  0  0  3  0  0  0  0  0  0
  1 12  1  0  0  0  0
  2  6  1  0  0  0  0
  3 16  1  0  0  0  0
  6 18  2  0  0  0  0
  7 11  1  0  0  0  0
  7 13  1  0  0  0  0
  8 10  2  0  0  0  0
  8 17  1  0  0  0  0
  9  7  1  0  0  0  0
 10 20  1  0  0  0  0
 11 14  2  0  0  0  0
 12 23  1  1  0  0  0
 12  2  1  0  0  0  0
 13  5  1  0  0  0  0
 13  4  2  0  0  0  0
 14 18  1  0  0  0  0
 14  4  1  0  0  0  0
 15  1  1  0  0  0  0
 16  2  2  0  0  0  0
 16 11  1  0  0  0  0
 17 21  2  0  0  0  0
 19 10  1  0  0  0  0
 20 15  2  0  0  0  0
 21 15  1  0  0  0  0
 21  3  1  0  0  0  0
 22 26  1  0  0  0  0
 23 27  1  0  0  0  0
 24 23  2  0  0  0  0
 24 25  1  0  0  0  0
 25 22  2  0  0  0  0
 27 26  2  0  0  0  0
M  END
>  <MODEL>
6

>  <REMARK>
 VINA RESULT:      -7.6      2.649      5.926
  Name = 
  1 active torsions:
  status: ('A' for Active; 'I' for Inactive)
    1  A    between atoms: C_9  and  C_15
                            x       y       z     vdW  Elec       q    Type
                         _______ _______ _______ _____ _____    ______ ____

>  <TORSDO>
F 1

$$$$
=
 OpenBabel11052418193D

 27 31  0  0  1  0  0  0  0  0999 V2000
  189.2460  177.1220  145.1480 N   0  0  0  0  0  2  0  0  0  0  0  0
  188.0680  176.0220  143.3440 C   0  0  0  0  0  0  0  0  0  0  0  0
  190.0070  174.5110  143.8250 N   0  0  0  0  0  2  0  0  0  0  0  0
  188.1910  174.5410  139.4980 C   0  0  0  0  0  3  0  0  0  0  0  0
  189.8250  172.7880  138.6390 C   0  0  0  0  0  1  0  0  0  0  0  0
  187.1560  176.5080  142.4390 N   0  0  0  0  0  0  0  0  0  0  0  0
  189.7160  173.7160  140.9730 N   0  0  0  0  0  0  0  0  0  0  0  0
  192.7650  175.0550  146.2460 C   0  0  0  0  0  3  0  0  0  0  0  0
  190.8240  172.9410  141.5180 C   0  0  0  0  0  1  0  0  0  0  0  0
  192.4970  176.3320  146.7350 C   0  0  0  0  0  0  0  0  0  0  0  0
  188.9490  174.6210  141.6080 C   0  0  0  0  0  0  0  0  0  0  0  0
  188.0130  176.4540  144.7770 C   0  0  2  0  0  3  0  0  0  0  0  0
  189.2570  173.6670  139.7010 C   0  0  0  0  0  0  0  0  0  0  0  0
  188.0260  175.1310  140.7360 C   0  0  0  0  0  0  0  0  0  0  0  0
  190.4570  176.4210  145.4180 C   0  0  0  0  0  0  0  0  0  0  0  0
  189.0230  175.0630  142.9380 C   0  0  0  0  0  0  0  0  0  0  0  0
  191.8970  174.4680  145.3240 C   0  0  0  0  0  3  0  0  0  0  0  0
  187.1140  176.0920  141.1410 C   0  0  0  0  0  3  0  0  0  0  0  0
  193.3670  176.9260  147.6380 O   0  0  0  0  0  1  0  0  0  0  0  0
  191.3470  177.0070  146.3260 C   0  0  0  0  0  3  0  0  0  0  0  0
  190.7480  175.1380  144.8850 C   0  0  0  0  0  0  0  0  0  0  0  0
  184.5730  178.8600  145.7200 C   0  0  0  0  0  3  0  0  0  0  0  0
  186.8260  177.3110  145.1080 C   0  0  0  0  0  0  0  0  0  0  0  0
  186.7020  178.6120  144.5950 C   0  0  0  0  0  3  0  0  0  0  0  0
  185.5780  179.3840  144.9020 C   0  0  0  0  0  3  0  0  0  0  0  0
  184.6900  177.5630  146.2280 C   0  0  0  0  0  3  0  0  0  0  0  0
  185.8140  176.7900  145.9220 C   0  0  0  0  0  3  0  0  0  0  0  0
  1 15  1  0  0  0  0
  2 12  1  0  0  0  0
  3 21  1  0  0  0  0
  4 13  2  0  0  0  0
  4 14  1  0  0  0  0
  5 13  1  0  0  0  0
  6  2  2  0  0  0  0
  7  9  1  0  0  0  0
  7 11  1  0  0  0  0
  8 10  1  0  0  0  0
 10 19  1  0  0  0  0
 11 16  2  0  0  0  0
 12 23  1  6  0  0  0
 12  1  1  0  0  0  0
 13  7  1  0  0  0  0
 14 18  2  0  0  0  0
 14 11  1  0  0  0  0
 15 20  1  0  0  0  0
 16  2  1  0  0  0  0
 16  3  1  0  0  0  0
 17  8  2  0  0  0  0
 18  6  1  0  0  0  0
 20 10  2  0  0  0  0
 21 17  1  0  0  0  0
 21 15  2  0  0  0  0
 22 26  1  0  0  0  0
 23 27  1  0  0  0  0
 24 25  1  0  0  0  0
 24 23  2  0  0  0  0
 25 22  2  0  0  0  0
 27 26  2  0  0  0  0
M  END
>  <MODEL>
7

>  <REMARK>
 VINA RESULT:      -7.5      2.687      5.269
  Name = 
  1 active torsions:
  status: ('A' for Active; 'I' for Inactive)
    1  A    between atoms: C_9  and  C_15
                            x       y       z     vdW  Elec       q    Type
                         _______ _______ _______ _____ _____    ______ ____

>  <TORSDO>
F 1

$$$$
=
 OpenBabel11052418193D

 27 31  0  0  1  0  0  0  0  0999 V2000
  187.7730  176.0200  142.3850 N   0  0  0  0  0  2  0  0  0  0  0  0
  190.0140  175.2150  142.8100 C   0  0  0  0  0  0  0  0  0  0  0  0
  189.1510  175.8550  145.0720 N   0  0  0  0  0  2  0  0  0  0  0  0
  193.7760  176.0120  144.2970 C   0  0  0  0  0  3  0  0  0  0  0  0
  194.2980  176.7840  146.6660 C   0  0  0  0  0  1  0  0  0  0  0  0
  191.0850  175.0550  141.9660 N   0  0  0  0  0  0  0  0  0  0  0  0
  192.0220  176.2880  145.7210 N   0  0  0  0  0  0  0  0  0  0  0  0
  185.8920  177.4240  145.9010 C   0  0  0  0  0  3  0  0  0  0  0  0
  191.2640  176.5970  146.9270 C   0  0  0  0  0  1  0  0  0  0  0  0
  185.3300  177.6460  144.6450 C   0  0  0  0  0  0  0  0  0  0  0  0
  191.5480  175.8800  144.5300 C   0  0  0  0  0  0  0  0  0  0  0  0
  188.6340  174.8530  142.3550 C   0  0  2  0  0  3  0  0  0  0  0  0
  193.3660  176.3660  145.5810 C   0  0  0  0  0  0  0  0  0  0  0  0
  192.5890  175.7100  143.6580 C   0  0  0  0  0  0  0  0  0  0  0  0
  187.2240  176.5480  143.5910 C   0  0  0  0  0  0  0  0  0  0  0  0
  190.2200  175.6630  144.1340 C   0  0  0  0  0  0  0  0  0  0  0  0
  187.1310  176.7890  146.0050 C   0  0  0  0  0  3  0  0  0  0  0  0
  192.3700  175.2980  142.3540 C   0  0  0  0  0  3  0  0  0  0  0  0
  184.1080  178.2930  144.5360 O   0  0  0  0  0  1  0  0  0  0  0  0
  185.9920  177.2050  143.4990 C   0  0  0  0  0  3  0  0  0  0  0  0
  187.8210  176.3580  144.8650 C   0  0  0  0  0  0  0  0  0  0  0  0
  188.4570  173.0100  138.4710 C   0  0  0  0  0  3  0  0  0  0  0  0
  188.5910  174.2000  141.0050 C   0  0  0  0  0  0  0  0  0  0  0  0
  188.9500  172.8530  140.8370 C   0  0  0  0  0  3  0  0  0  0  0  0
  188.8830  172.2610  139.5720 C   0  0  0  0  0  3  0  0  0  0  0  0
  188.0940  174.3510  138.6360 C   0  0  0  0  0  3  0  0  0  0  0  0
  188.1600  174.9430  139.9000 C   0  0  0  0  0  3  0  0  0  0  0  0
  1 15  1  0  0  0  0
  2 16  1  0  0  0  0
  4 13  2  0  0  0  0
  6 18  1  0  0  0  0
  6  2  2  0  0  0  0
  7  9  1  0  0  0  0
  8 17  1  0  0  0  0
 10  8  2  0  0  0  0
 11  7  1  0  0  0  0
 12 23  1  6  0  0  0
 12  1  1  0  0  0  0
 12  2  1  0  0  0  0
 13  7  1  0  0  0  0
 13  5  1  0  0  0  0
 14  4  1  0  0  0  0
 14 11  1  0  0  0  0
 15 21  1  0  0  0  0
 16 11  2  0  0  0  0
 16  3  1  0  0  0  0
 18 14  2  0  0  0  0
 19 10  1  0  0  0  0
 20 15  2  0  0  0  0
 20 10  1  0  0  0  0
 21  3  1  0  0  0  0
 21 17  2  0  0  0  0
 22 26  2  0  0  0  0
 22 25  1  0  0  0  0
 24 23  1  0  0  0  0
 25 24  2  0  0  0  0
 26 27  1  0  0  0  0
 27 23  2  0  0  0  0
M  END
>  <MODEL>
8

>  <REMARK>
 VINA RESULT:      -7.4      1.920      5.812
  Name = 
  1 active torsions:
  status: ('A' for Active; 'I' for Inactive)
    1  A    between atoms: C_9  and  C_15
                            x       y       z     vdW  Elec       q    Type
                         _______ _______ _______ _____ _____    ______ ____

>  <TORSDO>
F 1

$$$$
=
 OpenBabel11052418193D

 27 31  0  0  1  0  0  0  0  0999 V2000
  188.7840  176.3950  145.0750 N   0  0  0  0  0  2  0  0  0  0  0  0
  187.0800  176.7070  143.3870 C   0  0  0  0  0  0  0  0  0  0  0  0
  188.4330  174.7750  142.5450 N   0  0  0  0  0  2  0  0  0  0  0  0
  186.1940  177.4830  139.4350 C   0  0  0  0  0  3  0  0  0  0  0  0
  187.0080  176.1240  137.4420 C   0  0  0  0  0  1  0  0  0  0  0  0
  186.2790  177.7870  143.1080 N   0  0  0  0  0  0  0  0  0  0  0  0
  187.5240  175.6860  139.8630 N   0  0  0  0  0  0  0  0  0  0  0  0
  191.4990  173.3240  144.0470 C   0  0  0  0  0  3  0  0  0  0  0  0
  188.3620  174.5130  139.6500 C   0  0  0  0  0  1  0  0  0  0  0  0
  191.7480  174.1760  145.1220 C   0  0  0  0  0  0  0  0  0  0  0  0
  187.2000  176.2690  141.0320 C   0  0  0  0  0  0  0  0  0  0  0  0
  187.3600  176.3220  144.8060 C   0  0  2  0  0  3  0  0  0  0  0  0
  186.9150  176.4170  138.9000 C   0  0  0  0  0  0  0  0  0  0  0  0
  186.4010  177.3540  140.7950 C   0  0  0  0  0  0  0  0  0  0  0  0
  189.7080  175.4030  144.6350 C   0  0  0  0  0  0  0  0  0  0  0  0
  187.5900  175.9170  142.3330 C   0  0  0  0  0  0  0  0  0  0  0  0
  190.3730  173.5240  143.2490 C   0  0  0  0  0  3  0  0  0  0  0  0
  185.9310  178.1370  141.8370 C   0  0  0  0  0  3  0  0  0  0  0  0
  192.8770  173.9920  145.9070 O   0  0  0  0  0  1  0  0  0  0  0  0
  190.8540  175.2050  145.4140 C   0  0  0  0  0  3  0  0  0  0  0  0
  189.4740  174.5640  143.5140 C   0  0  0  0  0  0  0  0  0  0  0  0
  185.1090  178.6290  147.6560 C   0  0  0  0  0  3  0  0  0  0  0  0
  186.5900  177.1210  145.8160 C   0  0  0  0  0  0  0  0  0  0  0  0
  187.2460  177.8950  146.7860 C   0  0  0  0  0  3  0  0  0  0  0  0
  186.5060  178.6460  147.7040 C   0  0  0  0  0  3  0  0  0  0  0  0
  184.4520  177.8630  146.6880 C   0  0  0  0  0  3  0  0  0  0  0  0
  185.1910  177.1120  145.7700 C   0  0  0  0  0  3  0  0  0  0  0  0
  2 12  1  0  0  0  0
  3 21  1  0  0  0  0
  4 14  1  0  0  0  0
  5 13  1  0  0  0  0
  6  2  1  0  0  0  0
  7 11  1  0  0  0  0
  8 10  1  0  0  0  0
  9  7  1  0  0  0  0
 10 20  2  0  0  0  0
 10 19  1  0  0  0  0
 11 16  1  0  0  0  0
 12  1  1  0  0  0  0
 12 23  1  1  0  0  0
 13  4  2  0  0  0  0
 13  7  1  0  0  0  0
 14 11  2  0  0  0  0
 14 18  1  0  0  0  0
 15  1  1  0  0  0  0
 15 20  1  0  0  0  0
 16  3  1  0  0  0  0
 16  2  2  0  0  0  0
 17 21  1  0  0  0  0
 17  8  2  0  0  0  0
 18  6  2  0  0  0  0
 21 15  2  0  0  0  0
 22 25  1  0  0  0  0
 23 24  1  0  0  0  0
 24 25  2  0  0  0  0
 26 22  2  0  0  0  0
 27 23  2  0  0  0  0
 27 26  1  0  0  0  0
M  END
>  <MODEL>
9

>  <REMARK>
 VINA RESULT:      -7.3      3.004      5.332
  Name = 
  1 active torsions:
  status: ('A' for Active; 'I' for Inactive)
    1  A    between atoms: C_9  and  C_15
                            x       y       z     vdW  Elec       q    Type
                         _______ _______ _______ _____ _____    ______ ____

>  <TORSDO>
F 1

$$$$
