=
 OpenBabel11052418143D

 28 32  0  0  1  0  0  0  0  0999 V2000
  188.4570  177.3180  144.4880 C   0  0  0  0  0  0  0  0  0  0  0  0
  193.1390  176.3180  142.3360 C   0  0  0  0  0  3  0  0  0  0  0  0
  191.4290  176.7960  148.4320 C   0  0  0  0  0  1  0  0  0  0  0  0
  194.5230  176.0780  144.3180 C   0  0  0  0  0  0  0  0  0  0  0  0
  192.1220  176.5740  144.6310 C   0  0  0  0  0  0  0  0  0  0  0  0
  195.5020  175.8320  142.1160 C   0  0  0  0  0  0  0  0  0  0  0  0
  193.2680  176.3220  143.7340 C   0  0  0  0  0  0  0  0  0  0  0  0
  193.5750  176.3190  146.5700 C   0  0  0  0  0  3  0  0  0  0  0  0
  195.6350  175.8350  143.5080 C   0  0  0  0  0  3  0  0  0  0  0  0
  189.9260  177.0600  146.4290 C   0  0  0  0  0  0  0  0  0  0  0  0
  190.9000  176.8120  144.1480 C   0  0  0  0  0  3  0  0  0  0  0  0
  194.6590  176.0800  145.7120 O   0  0  0  0  0  0  0  0  0  0  0  0
  187.5640  177.5480  146.7320 C   0  0  0  0  0  3  0  0  0  0  0  0
  191.2330  176.8050  146.9830 N   0  0  0  0  0  0  0  0  0  0  0  0
  188.8270  177.3020  147.2690 C   0  0  0  0  0  3  0  0  0  0  0  0
  196.5820  175.5950  141.3340 F   0  0  0  0  0  0  0  0  0  0  0  0
  194.2560  176.0730  141.5310 C   0  0  0  0  0  3  0  0  0  0  0  0
  192.3430  176.5600  146.0960 C   0  0  0  0  0  0  0  0  0  0  0  0
  187.3820  177.5550  145.3500 C   0  0  0  0  0  3  0  0  0  0  0  0
  189.7410  177.0670  145.0290 C   0  0  0  0  0  0  0  0  0  0  0  0
  188.1730  177.3440  143.0120 C   0  0  1  0  0  3  0  0  0  0  0  0
  188.1480  175.9300  142.4180 C   0  0  0  0  0  2  0  0  0  0  0  0
  187.0320  177.0800  140.4060 C   0  0  0  0  0  0  0  0  0  0  0  0
  186.8820  178.1030  142.6990 C   0  0  0  0  0  2  0  0  0  0  0  0
  188.1410  174.9910  140.2230 O   0  0  0  0  0  0  0  0  0  0  0  0
  187.8020  175.9550  140.9590 C   0  0  0  0  0  0  0  0  0  0  0  0
  186.7180  177.1050  139.1870 O   0  0  0  0  0  0  0  0  0  0  0  0
  186.6740  178.1720  141.2560 N   0  0  0  0  0  2  0  0  0  0  0  0
  1 20  2  0  0  0  0
  1 19  1  0  0  0  0
  2  7  1  0  0  0  0
  4 12  1  0  0  0  0
  5 18  1  0  0  0  0
  6  9  2  0  0  0  0
  7  4  2  0  0  0  0
  7  5  1  0  0  0  0
  9  4  1  0  0  0  0
 10 14  1  0  0  0  0
 10 15  2  0  0  0  0
 11  5  2  0  0  0  0
 11 20  1  0  0  0  0
 12  8  1  0  0  0  0
 13 15  1  0  0  0  0
 14  3  1  0  0  0  0
 16  6  1  0  0  0  0
 17  6  1  0  0  0  0
 17  2  2  0  0  0  0
 18  8  2  0  0  0  0
 18 14  1  0  0  0  0
 19 13  2  0  0  0  0
 20 10  1  0  0  0  0
 21  1  1  1  0  0  0
 22 21  1  0  0  0  0
 23 26  1  0  0  0  0
 23 28  1  0  0  0  0
 24 21  1  0  0  0  0
 25 26  2  0  0  0  0
 26 22  1  0  0  0  0
 27 23  2  0  0  0  0
 28 24  1  0  0  0  0
M  END
>  <MODEL>
1

>  <REMARK>
 VINA RESULT:      -8.2      0.000      0.000
  Name = 
  1 active torsions:
  status: ('A' for Active; 'I' for Inactive)
    1  A    between atoms: C_1  and  C_2
                            x       y       z     vdW  Elec       q    Type
                         _______ _______ _______ _____ _____    ______ ____

>  <TORSDO>
F 1

$$$$
=
 OpenBabel11052418143D

 28 32  0  0  1  0  0  0  0  0999 V2000
  190.3830  176.6040  145.0730 C   0  0  0  0  0  0  0  0  0  0  0  0
  186.4160  177.4710  141.7460 C   0  0  0  0  0  3  0  0  0  0  0  0
  186.7910  178.3560  148.0220 C   0  0  0  0  0  1  0  0  0  0  0  0
  184.7150  178.3200  143.2570 C   0  0  0  0  0  0  0  0  0  0  0  0
  186.9080  177.6970  144.2100 C   0  0  0  0  0  0  0  0  0  0  0  0
  184.2400  178.1040  140.8920 C   0  0  0  0  0  0  0  0  0  0  0  0
  186.0130  177.8250  143.0430 C   0  0  0  0  0  0  0  0  0  0  0  0
  185.1510  178.5550  145.6620 C   0  0  0  0  0  3  0  0  0  0  0  0
  183.8330  178.4580  142.1820 C   0  0  0  0  0  3  0  0  0  0  0  0
  188.6090  177.4690  146.5230 C   0  0  0  0  0  0  0  0  0  0  0  0
  188.1550  177.2340  144.0830 C   0  0  0  0  0  3  0  0  0  0  0  0
  184.3050  178.6750  144.5480 O   0  0  0  0  0  0  0  0  0  0  0  0
  190.7670  176.8540  147.4560 C   0  0  0  0  0  3  0  0  0  0  0  0
  187.2680  177.9720  146.6940 N   0  0  0  0  0  0  0  0  0  0  0  0
  189.4720  177.3400  147.6230 C   0  0  0  0  0  3  0  0  0  0  0  0
  183.3830  178.2390  139.8520 F   0  0  0  0  0  0  0  0  0  0  0  0
  185.5300  177.6120  140.6740 C   0  0  0  0  0  3  0  0  0  0  0  0
  186.4040  178.0920  145.5460 C   0  0  0  0  0  0  0  0  0  0  0  0
  191.2180  176.4880  146.1880 C   0  0  0  0  0  3  0  0  0  0  0  0
  189.0660  177.0980  145.2390 C   0  0  0  0  0  0  0  0  0  0  0  0
  190.9480  176.1880  143.7440 C   0  0  1  0  0  3  0  0  0  0  0  0
  192.4610  176.4250  143.6770 C   0  0  0  0  0  2  0  0  0  0  0  0
  192.3410  174.9030  141.6070 C   0  0  0  0  0  0  0  0  0  0  0  0
  190.5940  174.7380  143.4090 C   0  0  0  0  0  2  0  0  0  0  0  0
  194.1230  176.4280  141.9630 O   0  0  0  0  0  0  0  0  0  0  0  0
  193.0330  175.9510  142.3730 C   0  0  0  0  0  0  0  0  0  0  0  0
  192.8190  174.4810  140.5210 O   0  0  0  0  0  0  0  0  0  0  0  0
  191.0960  174.3890  142.0840 N   0  0  0  0  0  2  0  0  0  0  0  0
  1 20  2  0  0  0  0
  1 19  1  0  0  0  0
  2  7  1  0  0  0  0
  4 12  1  0  0  0  0
  5 18  1  0  0  0  0
  6  9  2  0  0  0  0
  7  4  2  0  0  0  0
  7  5  1  0  0  0  0
  9  4  1  0  0  0  0
 10 14  1  0  0  0  0
 10 15  2  0  0  0  0
 11  5  2  0  0  0  0
 11 20  1  0  0  0  0
 12  8  1  0  0  0  0
 13 15  1  0  0  0  0
 14  3  1  0  0  0  0
 16  6  1  0  0  0  0
 17  6  1  0  0  0  0
 17  2  2  0  0  0  0
 18  8  2  0  0  0  0
 18 14  1  0  0  0  0
 19 13  2  0  0  0  0
 20 10  1  0  0  0  0
 21  1  1  1  0  0  0
 22 21  1  0  0  0  0
 23 28  1  0  0  0  0
 23 26  1  0  0  0  0
 24 21  1  0  0  0  0
 25 26  2  0  0  0  0
 26 22  1  0  0  0  0
 27 23  2  0  0  0  0
 28 24  1  0  0  0  0
M  END
>  <MODEL>
2

>  <REMARK>
 VINA RESULT:      -8.1      3.584      6.898
  Name = 
  1 active torsions:
  status: ('A' for Active; 'I' for Inactive)
    1  A    between atoms: C_1  and  C_2
                            x       y       z     vdW  Elec       q    Type
                         _______ _______ _______ _____ _____    ______ ____

>  <TORSDO>
F 1

$$$$
=
 OpenBabel11052418143D

 28 32  0  0  1  0  0  0  0  0999 V2000
  187.5010  177.3500  144.3940 C   0  0  0  0  0  0  0  0  0  0  0  0
  189.4980  173.9390  140.9400 C   0  0  0  0  0  3  0  0  0  0  0  0
  185.1070  178.4630  140.1880 C   0  0  0  0  0  1  0  0  0  0  0  0
  188.2840  174.5470  138.9270 C   0  0  0  0  0  0  0  0  0  0  0  0
  187.8040  175.8080  140.9970 C   0  0  0  0  0  0  0  0  0  0  0  0
  189.9080  172.7520  138.8690 C   0  0  0  0  0  0  0  0  0  0  0  0
  188.5480  174.7450  140.2930 C   0  0  0  0  0  0  0  0  0  0  0  0
  186.6270  176.3590  138.9370 C   0  0  0  0  0  3  0  0  0  0  0  0
  188.9640  173.5520  138.2200 C   0  0  0  0  0  3  0  0  0  0  0  0
  186.3230  177.8950  142.3180 C   0  0  0  0  0  0  0  0  0  0  0  0
  188.0040  176.0540  142.2950 C   0  0  0  0  0  3  0  0  0  0  0  0
  187.3380  175.3470  138.2740 O   0  0  0  0  0  0  0  0  0  0  0  0
  185.8550  179.1320  144.3570 C   0  0  0  0  0  3  0  0  0  0  0  0
  186.0850  177.6550  140.9160 N   0  0  0  0  0  0  0  0  0  0  0  0
  185.6230  178.9020  143.0020 C   0  0  0  0  0  3  0  0  0  0  0  0
  190.5670  171.7890  138.1810 F   0  0  0  0  0  0  0  0  0  0  0  0
  190.1760  172.9460  140.2280 C   0  0  0  0  0  3  0  0  0  0  0  0
  186.8180  176.6140  140.2400 C   0  0  0  0  0  0  0  0  0  0  0  0
  186.7880  178.3600  145.0470 C   0  0  0  0  0  3  0  0  0  0  0  0
  187.2690  177.1130  143.0180 C   0  0  0  0  0  0  0  0  0  0  0  0
  188.4880  176.5650  145.2130 C   0  0  1  0  0  3  0  0  0  0  0  0
  189.8280  177.2990  145.3350 C   0  0  0  0  0  2  0  0  0  0  0  0
  190.2810  175.6100  147.2210 C   0  0  0  0  0  0  0  0  0  0  0  0
  187.9210  176.2070  146.5890 C   0  0  0  0  0  2  0  0  0  0  0  0
  192.0260  176.7430  146.0820 O   0  0  0  0  0  0  0  0  0  0  0  0
  190.7890  176.5440  146.2040 C   0  0  0  0  0  0  0  0  0  0  0  0
  191.0760  174.9840  147.9710 O   0  0  0  0  0  0  0  0  0  0  0  0
  188.8740  175.3860  147.3280 N   0  0  0  0  0  2  0  0  0  0  0  0
  1 19  1  0  0  0  0
  3 14  1  0  0  0  0
  4  7  2  0  0  0  0
  5 11  2  0  0  0  0
  6 17  1  0  0  0  0
  7  2  1  0  0  0  0
  7  5  1  0  0  0  0
  8 18  2  0  0  0  0
  9  6  2  0  0  0  0
  9  4  1  0  0  0  0
 10 15  2  0  0  0  0
 10 20  1  0  0  0  0
 11 20  1  0  0  0  0
 12  4  1  0  0  0  0
 12  8  1  0  0  0  0
 13 19  2  0  0  0  0
 14 10  1  0  0  0  0
 15 13  1  0  0  0  0
 16  6  1  0  0  0  0
 17  2  2  0  0  0  0
 18 14  1  0  0  0  0
 18  5  1  0  0  0  0
 20  1  2  0  0  0  0
 21  1  1  1  0  0  0
 21 22  1  0  0  0  0
 21 24  1  0  0  0  0
 22 26  1  0  0  0  0
 23 28  1  0  0  0  0
 23 27  2  0  0  0  0
 24 28  1  0  0  0  0
 25 26  2  0  0  0  0
 26 23  1  0  0  0  0
M  END
>  <MODEL>
3

>  <REMARK>
 VINA RESULT:      -8.0      3.077      6.729
  Name = 
  1 active torsions:
  status: ('A' for Active; 'I' for Inactive)
    1  A    between atoms: C_1  and  C_2
                            x       y       z     vdW  Elec       q    Type
                         _______ _______ _______ _____ _____    ______ ____

>  <TORSDO>
F 1

$$$$
=
 OpenBabel11052418143D

 28 32  0  0  1  0  0  0  0  0999 V2000
  188.7500  176.7640  145.8180 C   0  0  0  0  0  0  0  0  0  0  0  0
  188.5520  173.8400  141.4630 C   0  0  0  0  0  3  0  0  0  0  0  0
  193.1480  174.4560  145.8010 C   0  0  0  0  0  1  0  0  0  0  0  0
  190.7230  172.7530  141.5300 C   0  0  0  0  0  0  0  0  0  0  0  0
  190.1520  174.3190  143.3550 C   0  0  0  0  0  0  0  0  0  0  0  0
  189.1900  172.2910  139.7140 C   0  0  0  0  0  0  0  0  0  0  0  0
  189.7880  173.6350  142.0980 C   0  0  0  0  0  0  0  0  0  0  0  0
  192.3100  173.1910  143.3520 C   0  0  0  0  0  3  0  0  0  0  0  0
  190.4210  172.0840  140.3410 C   0  0  0  0  0  3  0  0  0  0  0  0
  190.9160  175.6240  145.8060 C   0  0  0  0  0  0  0  0  0  0  0  0
  189.3130  175.1710  143.9510 C   0  0  0  0  0  3  0  0  0  0  0  0
  191.9580  172.5440  142.1570 O   0  0  0  0  0  0  0  0  0  0  0  0
  190.3500  177.1660  147.5970 C   0  0  0  0  0  3  0  0  0  0  0  0
  191.8450  174.7100  145.1870 N   0  0  0  0  0  0  0  0  0  0  0  0
  191.2480  176.2820  147.0000 C   0  0  0  0  0  3  0  0  0  0  0  0
  188.9000  171.6400  138.5620 F   0  0  0  0  0  0  0  0  0  0  0  0
  188.2560  173.1670  140.2750 C   0  0  0  0  0  3  0  0  0  0  0  0
  191.4770  174.0480  143.9600 C   0  0  0  0  0  0  0  0  0  0  0  0
  189.1090  177.4040  147.0080 C   0  0  0  0  0  3  0  0  0  0  0  0
  189.6590  175.8650  145.2090 C   0  0  0  0  0  0  0  0  0  0  0  0
  187.3930  177.0770  145.2520 C   0  0  1  0  0  3  0  0  0  0  0  0
  186.4230  177.5500  146.3410 C   0  0  0  0  0  2  0  0  0  0  0  0
  184.9890  178.3320  144.3540 C   0  0  0  0  0  0  0  0  0  0  0  0
  187.4800  178.0870  144.1050 C   0  0  0  0  0  2  0  0  0  0  0  0
  184.0690  177.9160  146.5010 O   0  0  0  0  0  0  0  0  0  0  0  0
  185.0900  177.9210  145.7630 C   0  0  0  0  0  0  0  0  0  0  0  0
  183.8790  178.6660  143.8610 O   0  0  0  0  0  0  0  0  0  0  0  0
  186.1570  178.3140  143.5310 N   0  0  0  0  0  2  0  0  0  0  0  0
  1 19  1  0  0  0  0
  2  7  1  0  0  0  0
  4  7  2  0  0  0  0
  4 12  1  0  0  0  0
  5 11  2  0  0  0  0
  5 18  1  0  0  0  0
  6 17  1  0  0  0  0
  6  9  2  0  0  0  0
  7  5  1  0  0  0  0
  8 18  2  0  0  0  0
  9  4  1  0  0  0  0
 10 15  2  0  0  0  0
 11 20  1  0  0  0  0
 12  8  1  0  0  0  0
 14  3  1  0  0  0  0
 14 10  1  0  0  0  0
 15 13  1  0  0  0  0
 16  6  1  0  0  0  0
 17  2  2  0  0  0  0
 18 14  1  0  0  0  0
 19 13  2  0  0  0  0
 20 10  1  0  0  0  0
 20  1  2  0  0  0  0
 21  1  1  1  0  0  0
 21 22  1  0  0  0  0
 23 26  1  0  0  0  0
 24 21  1  0  0  0  0
 26 22  1  0  0  0  0
 26 25  2  0  0  0  0
 27 23  2  0  0  0  0
 28 24  1  0  0  0  0
 28 23  1  0  0  0  0
M  END
>  <MODEL>
4

>  <REMARK>
 VINA RESULT:      -7.9      3.543      4.786
  Name = 
  1 active torsions:
  status: ('A' for Active; 'I' for Inactive)
    1  A    between atoms: C_1  and  C_2
                            x       y       z     vdW  Elec       q    Type
                         _______ _______ _______ _____ _____    ______ ____

>  <TORSDO>
F 1

$$$$
=
 OpenBabel11052418143D

 28 32  0  0  1  0  0  0  0  0999 V2000
  187.0050  177.2370  144.6990 C   0  0  0  0  0  0  0  0  0  0  0  0
  189.3610  174.0050  141.2990 C   0  0  0  0  0  3  0  0  0  0  0  0
  190.7140  175.2910  147.3680 C   0  0  0  0  0  1  0  0  0  0  0  0
  191.1480  173.1010  142.6730 C   0  0  0  0  0  0  0  0  0  0  0  0
  189.6110  174.7430  143.6990 C   0  0  0  0  0  0  0  0  0  0  0  0
  190.9110  172.3910  140.3700 C   0  0  0  0  0  0  0  0  0  0  0  0
  190.0330  173.9450  142.5300 C   0  0  0  0  0  0  0  0  0  0  0  0
  191.4280  173.7920  145.0130 C   0  0  0  0  0  3  0  0  0  0  0  0
  191.5830  172.3280  141.5940 C   0  0  0  0  0  3  0  0  0  0  0  0
  188.8350  176.2740  146.0110 C   0  0  0  0  0  0  0  0  0  0  0  0
  188.5600  175.5650  143.6370 C   0  0  0  0  0  3  0  0  0  0  0  0
  191.8240  173.0360  143.8980 O   0  0  0  0  0  0  0  0  0  0  0  0
  187.3210  177.8900  147.0140 C   0  0  0  0  0  3  0  0  0  0  0  0
  189.9740  175.3950  146.1110 N   0  0  0  0  0  0  0  0  0  0  0  0
  188.4220  177.0400  147.1120 C   0  0  0  0  0  3  0  0  0  0  0  0
  191.3340  171.6400  139.3260 F   0  0  0  0  0  0  0  0  0  0  0  0
  189.8010  173.2280  140.2230 C   0  0  0  0  0  3  0  0  0  0  0  0
  190.3750  174.6220  144.9620 C   0  0  0  0  0  0  0  0  0  0  0  0
  186.6180  177.9860  145.8140 C   0  0  0  0  0  3  0  0  0  0  0  0
  188.1220  176.3720  144.7950 C   0  0  0  0  0  0  0  0  0  0  0  0
  186.1920  177.4000  143.4450 C   0  0  1  0  0  3  0  0  0  0  0  0
  184.8160  178.0060  143.7410 C   0  0  0  0  0  2  0  0  0  0  0  0
  184.7340  178.3980  141.2010 C   0  0  0  0  0  0  0  0  0  0  0  0
  186.9440  178.2120  142.3870 C   0  0  0  0  0  2  0  0  0  0  0  0
  182.7760  178.3010  142.5360 O   0  0  0  0  0  0  0  0  0  0  0  0
  184.0320  178.2260  142.4810 C   0  0  0  0  0  0  0  0  0  0  0  0
  184.0900  178.6030  140.1380 O   0  0  0  0  0  0  0  0  0  0  0  0
  186.1590  178.2910  141.1600 N   0  0  0  0  0  2  0  0  0  0  0  0
  1 20  2  0  0  0  0
  1 19  1  0  0  0  0
  2  7  1  0  0  0  0
  4 12  1  0  0  0  0
  5 18  1  0  0  0  0
  6  9  2  0  0  0  0
  7  4  2  0  0  0  0
  7  5  1  0  0  0  0
  9  4  1  0  0  0  0
 10 14  1  0  0  0  0
 10 15  2  0  0  0  0
 11  5  2  0  0  0  0
 11 20  1  0  0  0  0
 12  8  1  0  0  0  0
 13 15  1  0  0  0  0
 14  3  1  0  0  0  0
 16  6  1  0  0  0  0
 17  6  1  0  0  0  0
 17  2  2  0  0  0  0
 18  8  2  0  0  0  0
 18 14  1  0  0  0  0
 19 13  2  0  0  0  0
 20 10  1  0  0  0  0
 21 22  1  0  0  0  0
 21  1  1  1  0  0  0
 23 26  1  0  0  0  0
 24 21  1  0  0  0  0
 26 25  2  0  0  0  0
 26 22  1  0  0  0  0
 27 23  2  0  0  0  0
 28 23  1  0  0  0  0
 28 24  1  0  0  0  0
M  END
>  <MODEL>
5

>  <REMARK>
 VINA RESULT:      -7.9      3.156      3.734
  Name = 
  1 active torsions:
  status: ('A' for Active; 'I' for Inactive)
    1  A    between atoms: C_1  and  C_2
                            x       y       z     vdW  Elec       q    Type
                         _______ _______ _______ _____ _____    ______ ____

>  <TORSDO>
F 1

$$$$
=
 OpenBabel11052418143D

 28 32  0  0  1  0  0  0  0  0999 V2000
  190.5350  173.9900  142.8820 C   0  0  0  0  0  0  0  0  0  0  0  0
  186.1800  176.9110  143.1080 C   0  0  0  0  0  3  0  0  0  0  0  0
  190.5880  175.7470  147.5270 C   0  0  0  0  0  1  0  0  0  0  0  0
  186.2820  177.7270  145.3940 C   0  0  0  0  0  0  0  0  0  0  0  0
  188.0960  176.2430  144.6080 C   0  0  0  0  0  0  0  0  0  0  0  0
  184.4410  178.3690  143.9560 C   0  0  0  0  0  0  0  0  0  0  0  0
  186.8340  176.9650  144.3500 C   0  0  0  0  0  0  0  0  0  0  0  0
  188.1270  177.1020  146.8880 C   0  0  0  0  0  3  0  0  0  0  0  0
  185.0880  178.4260  145.1940 C   0  0  0  0  0  3  0  0  0  0  0  0
  190.5570  174.8580  145.1710 C   0  0  0  0  0  0  0  0  0  0  0  0
  188.6790  175.5000  143.6630 C   0  0  0  0  0  3  0  0  0  0  0  0
  186.9270  177.7850  146.6350 O   0  0  0  0  0  0  0  0  0  0  0  0
  192.3380  173.3990  144.3950 C   0  0  0  0  0  3  0  0  0  0  0  0
  189.9530  175.6530  146.2130 N   0  0  0  0  0  0  0  0  0  0  0  0
  191.7560  174.1660  145.4030 C   0  0  0  0  0  3  0  0  0  0  0  0
  183.2850  179.0480  143.7650 F   0  0  0  0  0  0  0  0  0  0  0  0
  184.9870  177.6130  142.9140 C   0  0  0  0  0  3  0  0  0  0  0  0
  188.7210  176.3520  145.9470 C   0  0  0  0  0  0  0  0  0  0  0  0
  191.7300  173.3120  143.1430 C   0  0  0  0  0  3  0  0  0  0  0  0
  189.9410  174.7700  143.9030 C   0  0  0  0  0  0  0  0  0  0  0  0
  189.9470  173.8430  141.5070 C   0  0  1  0  0  3  0  0  0  0  0  0
  191.0360  173.6250  140.4490 C   0  0  0  0  0  2  0  0  0  0  0  0
  189.0710  172.9020  138.9560 C   0  0  0  0  0  0  0  0  0  0  0  0
  188.8930  172.7340  141.4590 C   0  0  0  0  0  2  0  0  0  0  0  0
  191.1390  173.6450  138.0640 O   0  0  0  0  0  0  0  0  0  0  0  0
  190.4430  173.4160  139.0880 C   0  0  0  0  0  0  0  0  0  0  0  0
  188.5660  172.7030  137.8190 O   0  0  0  0  0  0  0  0  0  0  0  0
  188.2930  172.6660  140.1310 N   0  0  0  0  0  2  0  0  0  0  0  0
  1 19  2  0  0  0  0
  1 20  1  0  0  0  0
  2  7  1  0  0  0  0
  4 12  1  0  0  0  0
  5 18  1  0  0  0  0
  6  9  2  0  0  0  0
  7  5  1  0  0  0  0
  7  4  2  0  0  0  0
  9  4  1  0  0  0  0
 10 15  1  0  0  0  0
 10 14  1  0  0  0  0
 11 20  1  0  0  0  0
 11  5  2  0  0  0  0
 12  8  1  0  0  0  0
 13 15  2  0  0  0  0
 14  3  1  0  0  0  0
 16  6  1  0  0  0  0
 17  2  2  0  0  0  0
 17  6  1  0  0  0  0
 18 14  1  0  0  0  0
 18  8  2  0  0  0  0
 19 13  1  0  0  0  0
 20 10  2  0  0  0  0
 21  1  1  1  0  0  0
 22 21  1  0  0  0  0
 23 26  1  0  0  0  0
 23 28  1  0  0  0  0
 24 21  1  0  0  0  0
 25 26  2  0  0  0  0
 26 22  1  0  0  0  0
 27 23  2  0  0  0  0
 28 24  1  0  0  0  0
M  END
>  <MODEL>
6

>  <REMARK>
 VINA RESULT:      -7.9      4.146      6.444
  Name = 
  1 active torsions:
  status: ('A' for Active; 'I' for Inactive)
    1  A    between atoms: C_1  and  C_2
                            x       y       z     vdW  Elec       q    Type
                         _______ _______ _______ _____ _____    ______ ____

>  <TORSDO>
F 1

$$$$
=
 OpenBabel11052418143D

 28 32  0  0  1  0  0  0  0  0999 V2000
  187.4780  176.7630  143.8820 C   0  0  0  0  0  0  0  0  0  0  0  0
  188.4200  173.3040  140.0470 C   0  0  0  0  0  3  0  0  0  0  0  0
  191.4420  174.2750  145.5460 C   0  0  0  0  0  1  0  0  0  0  0  0
  190.3560  172.1370  140.9340 C   0  0  0  0  0  0  0  0  0  0  0  0
  189.3730  173.9540  142.2910 C   0  0  0  0  0  0  0  0  0  0  0  0
  189.4430  171.5110  138.7800 C   0  0  0  0  0  0  0  0  0  0  0  0
  189.3690  173.1290  141.0660 C   0  0  0  0  0  0  0  0  0  0  0  0
  191.3170  172.7380  143.1120 C   0  0  0  0  0  3  0  0  0  0  0  0
  190.3900  171.3330  139.7920 C   0  0  0  0  0  3  0  0  0  0  0  0
  189.4320  175.5340  144.6980 C   0  0  0  0  0  0  0  0  0  0  0  0
  188.4650  174.9150  142.4850 C   0  0  0  0  0  3  0  0  0  0  0  0
  191.3070  171.9570  141.9460 O   0  0  0  0  0  0  0  0  0  0  0  0
  188.4620  177.3220  146.0280 C   0  0  0  0  0  3  0  0  0  0  0  0
  190.4270  174.5040  144.5180 N   0  0  0  0  0  0  0  0  0  0  0  0
  189.4240  176.3270  145.8560 C   0  0  0  0  0  3  0  0  0  0  0  0
  189.4780  170.7290  137.6750 F   0  0  0  0  0  0  0  0  0  0  0  0
  188.4580  172.4950  138.9080 C   0  0  0  0  0  3  0  0  0  0  0  0
  190.4110  173.7050  143.3190 C   0  0  0  0  0  0  0  0  0  0  0  0
  187.4970  177.5360  145.0460 C   0  0  0  0  0  3  0  0  0  0  0  0
  188.4530  175.7520  143.7030 C   0  0  0  0  0  0  0  0  0  0  0  0
  186.4030  177.0600  142.8750 C   0  0  1  0  0  3  0  0  0  0  0  0
  185.2320  177.8200  143.5090 C   0  0  0  0  0  2  0  0  0  0  0  0
  184.5620  178.2930  141.0720 C   0  0  0  0  0  0  0  0  0  0  0  0
  186.9590  177.8060  141.6590 C   0  0  0  0  0  2  0  0  0  0  0  0
  183.0080  178.3950  142.8600 O   0  0  0  0  0  0  0  0  0  0  0  0
  184.1900  178.1700  142.4890 C   0  0  0  0  0  0  0  0  0  0  0  0
  183.7020  178.6060  140.2070 O   0  0  0  0  0  0  0  0  0  0  0  0
  185.9060  178.0150  140.6710 N   0  0  0  0  0  2  0  0  0  0  0  0
  1 19  1  0  0  0  0
  2  7  1  0  0  0  0
  4  7  2  0  0  0  0
  4 12  1  0  0  0  0
  5 11  2  0  0  0  0
  5 18  1  0  0  0  0
  6 17  1  0  0  0  0
  6  9  2  0  0  0  0
  7  5  1  0  0  0  0
  8 18  2  0  0  0  0
  9  4  1  0  0  0  0
 10 15  2  0  0  0  0
 11 20  1  0  0  0  0
 12  8  1  0  0  0  0
 14 10  1  0  0  0  0
 14  3  1  0  0  0  0
 15 13  1  0  0  0  0
 16  6  1  0  0  0  0
 17  2  2  0  0  0  0
 18 14  1  0  0  0  0
 19 13  2  0  0  0  0
 20  1  2  0  0  0  0
 20 10  1  0  0  0  0
 21 22  1  0  0  0  0
 21  1  1  1  0  0  0
 23 26  1  0  0  0  0
 24 21  1  0  0  0  0
 26 25  2  0  0  0  0
 26 22  1  0  0  0  0
 27 23  2  0  0  0  0
 28 23  1  0  0  0  0
 28 24  1  0  0  0  0
M  END
>  <MODEL>
7

>  <REMARK>
 VINA RESULT:      -7.9      3.521      4.835
  Name = 
  1 active torsions:
  status: ('A' for Active; 'I' for Inactive)
    1  A    between atoms: C_1  and  C_2
                            x       y       z     vdW  Elec       q    Type
                         _______ _______ _______ _____ _____    ______ ____

>  <TORSDO>
F 1

$$$$
=
 OpenBabel11052418143D

 28 32  0  0  1  0  0  0  0  0999 V2000
  193.7310  176.0070  144.0850 C   0  0  0  0  0  0  0  0  0  0  0  0
  189.0220  177.5380  142.3410 C   0  0  0  0  0  3  0  0  0  0  0  0
  191.1770  176.8080  148.2690 C   0  0  0  0  0  1  0  0  0  0  0  0
  187.8450  177.9060  144.4330 C   0  0  0  0  0  0  0  0  0  0  0  0
  190.1950  177.1470  144.5410 C   0  0  0  0  0  0  0  0  0  0  0  0
  186.7170  178.2820  142.3230 C   0  0  0  0  0  0  0  0  0  0  0  0
  189.0120  177.5330  143.7450 C   0  0  0  0  0  0  0  0  0  0  0  0
  188.9480  177.5380  146.5960 C   0  0  0  0  0  3  0  0  0  0  0  0
  186.7020  178.2790  143.7210 C   0  0  0  0  0  3  0  0  0  0  0  0
  192.4680  176.4040  146.1450 C   0  0  0  0  0  0  0  0  0  0  0  0
  191.3390  176.7810  143.9550 C   0  0  0  0  0  3  0  0  0  0  0  0
  187.8280  177.9040  145.8330 O   0  0  0  0  0  0  0  0  0  0  0  0
  194.7790  175.6560  146.2450 C   0  0  0  0  0  3  0  0  0  0  0  0
  191.2480  176.7940  146.8080 N   0  0  0  0  0  0  0  0  0  0  0  0
  193.6000  176.0330  146.8870 C   0  0  0  0  0  3  0  0  0  0  0  0
  185.6080  178.6450  141.6360 F   0  0  0  0  0  0  0  0  0  0  0  0
  187.8760  177.9130  141.6340 C   0  0  0  0  0  3  0  0  0  0  0  0
  190.1010  177.1690  146.0190 C   0  0  0  0  0  0  0  0  0  0  0  0
  194.8410  175.6440  144.8520 C   0  0  0  0  0  3  0  0  0  0  0  0
  192.5320  176.3910  144.7340 C   0  0  0  0  0  0  0  0  0  0  0  0
  193.8850  175.9670  142.5900 C   0  0  1  0  0  3  0  0  0  0  0  0
  195.3570  175.8560  142.1780 C   0  0  0  0  0  2  0  0  0  0  0  0
  194.3930  175.2300  139.8780 C   0  0  0  0  0  0  0  0  0  0  0  0
  193.0450  174.8490  141.9660 C   0  0  0  0  0  2  0  0  0  0  0  0
  196.5920  176.0780  140.1470 O   0  0  0  0  0  0  0  0  0  0  0  0
  195.5030  175.7520  140.6890 C   0  0  0  0  0  0  0  0  0  0  0  0
  194.5080  175.1190  138.6280 O   0  0  0  0  0  0  0  0  0  0  0  0
  193.1610  174.8830  140.5120 N   0  0  0  0  0  2  0  0  0  0  0  0
  1 20  2  0  0  0  0
  1 19  1  0  0  0  0
  2  7  1  0  0  0  0
  4 12  1  0  0  0  0
  5 18  1  0  0  0  0
  6  9  2  0  0  0  0
  7  4  2  0  0  0  0
  7  5  1  0  0  0  0
  9  4  1  0  0  0  0
 10 14  1  0  0  0  0
 10 15  2  0  0  0  0
 11  5  2  0  0  0  0
 11 20  1  0  0  0  0
 12  8  1  0  0  0  0
 13 15  1  0  0  0  0
 14  3  1  0  0  0  0
 16  6  1  0  0  0  0
 17  6  1  0  0  0  0
 17  2  2  0  0  0  0
 18  8  2  0  0  0  0
 18 14  1  0  0  0  0
 19 13  2  0  0  0  0
 20 10  1  0  0  0  0
 21  1  1  1  0  0  0
 22 21  1  0  0  0  0
 23 28  1  0  0  0  0
 23 26  1  0  0  0  0
 24 21  1  0  0  0  0
 25 26  2  0  0  0  0
 26 22  1  0  0  0  0
 27 23  2  0  0  0  0
 28 24  1  0  0  0  0
M  END
>  <MODEL>
8

>  <REMARK>
 VINA RESULT:      -7.8      3.416      6.383
  Name = 
  1 active torsions:
  status: ('A' for Active; 'I' for Inactive)
    1  A    between atoms: C_1  and  C_2
                            x       y       z     vdW  Elec       q    Type
                         _______ _______ _______ _____ _____    ______ ____

>  <TORSDO>
F 1

$$$$
=
 OpenBabel11052418143D

 28 32  0  0  1  0  0  0  0  0999 V2000
  188.2500  175.2870  142.5260 C   0  0  0  0  0  0  0  0  0  0  0  0
  193.2060  174.7730  144.1760 C   0  0  0  0  0  3  0  0  0  0  0  0
  188.2100  177.5350  146.9550 C   0  0  0  0  0  1  0  0  0  0  0  0
  193.1010  175.8890  146.3300 C   0  0  0  0  0  0  0  0  0  0  0  0
  191.0330  175.7700  144.9820 C   0  0  0  0  0  0  0  0  0  0  0  0
  195.1880  174.9330  145.5590 C   0  0  0  0  0  0  0  0  0  0  0  0
  192.4680  175.4650  145.1490 C   0  0  0  0  0  0  0  0  0  0  0  0
  191.0080  176.8740  147.1530 C   0  0  0  0  0  3  0  0  0  0  0  0
  194.4580  175.6220  146.5310 C   0  0  0  0  0  3  0  0  0  0  0  0
  188.2350  176.3940  144.7100 C   0  0  0  0  0  0  0  0  0  0  0  0
  190.3660  175.3980  143.8860 C   0  0  0  0  0  3  0  0  0  0  0  0
  192.3720  176.5800  147.3050 O   0  0  0  0  0  0  0  0  0  0  0  0
  186.2040  176.2750  143.3800 C   0  0  0  0  0  3  0  0  0  0  0  0
  188.9260  176.8110  145.9060 N   0  0  0  0  0  0  0  0  0  0  0  0
  186.8720  176.6780  144.5360 C   0  0  0  0  0  3  0  0  0  0  0  0
  196.5030  174.6750  145.7570 F   0  0  0  0  0  0  0  0  0  0  0  0
  194.5630  174.5080  144.3830 C   0  0  0  0  0  3  0  0  0  0  0  0
  190.3270  176.5060  146.0570 C   0  0  0  0  0  0  0  0  0  0  0  0
  186.8910  175.5850  142.3830 C   0  0  0  0  0  3  0  0  0  0  0  0
  188.9300  175.6940  143.6990 C   0  0  0  0  0  0  0  0  0  0  0  0
  188.9130  174.5390  141.4040 C   0  0  1  0  0  3  0  0  0  0  0  0
  189.0590  173.0480  141.7300 C   0  0  0  0  0  2  0  0  0  0  0  0
  189.5370  172.8160  139.2130 C   0  0  0  0  0  0  0  0  0  0  0  0
  188.1830  174.7520  140.0760 C   0  0  0  0  0  2  0  0  0  0  0  0
  190.2420  171.1960  140.7970 O   0  0  0  0  0  0  0  0  0  0  0  0
  189.6630  172.2940  140.5830 C   0  0  0  0  0  0  0  0  0  0  0  0
  190.0230  172.1830  138.2380 O   0  0  0  0  0  0  0  0  0  0  0  0
  188.8910  174.0720  138.9960 N   0  0  0  0  0  2  0  0  0  0  0  0
  1 20  1  0  0  0  0
  2 17  2  0  0  0  0
  2  7  1  0  0  0  0
  4  9  1  0  0  0  0
  4 12  1  0  0  0  0
  5  7  1  0  0  0  0
  5 18  1  0  0  0  0
  6 16  1  0  0  0  0
  6  9  2  0  0  0  0
  7  4  2  0  0  0  0
  8 12  1  0  0  0  0
 10 14  1  0  0  0  0
 11  5  2  0  0  0  0
 13 15  2  0  0  0  0
 14 18  1  0  0  0  0
 14  3  1  0  0  0  0
 15 10  1  0  0  0  0
 17  6  1  0  0  0  0
 18  8  2  0  0  0  0
 19  1  2  0  0  0  0
 19 13  1  0  0  0  0
 20 11  1  0  0  0  0
 20 10  2  0  0  0  0
 21 22  1  0  0  0  0
 21  1  1  1  0  0  0
 23 26  1  0  0  0  0
 24 21  1  0  0  0  0
 26 25  2  0  0  0  0
 26 22  1  0  0  0  0
 27 23  2  0  0  0  0
 28 23  1  0  0  0  0
 28 24  1  0  0  0  0
M  END
>  <MODEL>
9

>  <REMARK>
 VINA RESULT:      -7.5      2.500      3.465
  Name = 
  1 active torsions:
  status: ('A' for Active; 'I' for Inactive)
    1  A    between atoms: C_1  and  C_2
                            x       y       z     vdW  Elec       q    Type
                         _______ _______ _______ _____ _____    ______ ____

>  <TORSDO>
F 1

$$$$
