=
 OpenBabel11052418063D

 28 31  0  0  1  0  0  0  0  0999 V2000
  188.4080  176.3710  145.4800 C   0  0  1  0  0  3  0  0  0  0  0  0
  185.0640  176.9670  146.5640 C   0  0  0  0  0  3  0  0  0  0  0  0
  187.1570  176.8210  146.0830 N   0  0  0  0  0  0  0  0  0  0  0  0
  185.7240  177.8660  147.3880 C   0  0  0  0  0  3  0  0  0  0  0  0
  185.9640  176.3420  145.7830 N   0  0  0  0  0  0  0  0  0  0  0  0
  187.0620  177.7410  147.0570 C   0  0  0  0  0  3  0  0  0  0  0  0
  190.1900  177.9510  145.2520 O   0  0  0  0  0  0  0  0  0  0  0  0
  188.5980  178.0400  143.5650 N   0  0  0  0  0  2  0  0  0  0  0  0
  189.1110  177.4990  144.7850 C   0  0  0  0  0  0  0  0  0  0  0  0
  187.3840  177.5500  142.9270 C   0  0  2  0  0  3  0  0  0  0  0  0
  186.1560  177.4520  140.3510 C   0  0  0  0  0  2  0  0  0  0  0  0
  187.7670  176.6950  141.7100 C   0  0  0  0  0  2  0  0  0  0  0  0
  185.6940  179.2350  143.7230 C   0  0  0  0  0  1  0  0  0  0  0  0
  186.4800  178.7280  142.5300 C   0  0  2  0  0  3  0  0  0  0  0  0
  185.5090  178.3680  141.4010 C   0  0  0  0  0  2  0  0  0  0  0  0
  187.5520  177.3940  140.5100 O   0  0  0  0  0  0  0  0  0  0  0  0
  189.3210  175.7170  146.5180 C   0  0  0  0  0  2  0  0  0  0  0  0
  192.4900  175.2630  146.7000 C   0  0  0  0  0  3  0  0  0  0  0  0
  191.9230  175.0190  144.3670 C   0  0  0  0  0  0  0  0  0  0  0  0
  190.1550  174.5630  145.9490 C   0  0  2  0  0  3  0  0  0  0  0  0
  194.1600  175.6740  144.9840 C   0  0  0  0  0  0  0  0  0  0  0  0
  191.5620  174.9710  145.6960 C   0  0  0  0  0  0  0  0  0  0  0  0
  189.5250  172.5250  144.6590 C   0  0  0  0  0  1  0  0  0  0  0  0
  193.2220  175.3660  143.9900 C   0  0  0  0  0  3  0  0  0  0  0  0
  190.6430  174.5760  143.2200 S   0  0  0  0  0  0  0  0  0  0  0  0
  195.5450  176.0550  144.6040 C   0  0  0  0  0  1  0  0  0  0  0  0
  193.7950  175.6190  146.3380 C   0  0  0  0  0  3  0  0  0  0  0  0
  189.5840  174.0400  144.6240 C   0  0  2  0  0  3  0  0  0  0  0  0
  1  3  1  0  0  0  0
  1 17  1  1  0  0  0
  2  4  1  0  0  0  0
  3  6  1  0  0  0  0
  5  3  1  0  0  0  0
  5  2  2  0  0  0  0
  6  4  2  0  0  0  0
  8  9  1  0  0  0  0
  9  7  2  0  0  0  0
  9  1  1  0  0  0  0
 10  8  1  6  0  0  0
 11 16  1  0  0  0  0
 11 15  1  0  0  0  0
 12 10  1  0  0  0  0
 14 10  1  0  0  0  0
 14 13  1  1  0  0  0
 15 14  1  0  0  0  0
 16 12  1  0  0  0  0
 19 22  1  0  0  0  0
 20 17  1  6  0  0  0
 21 27  2  0  0  0  0
 22 20  1  0  0  0  0
 22 18  2  0  0  0  0
 24 19  2  0  0  0  0
 24 21  1  0  0  0  0
 25 19  1  0  0  0  0
 25 28  1  0  0  0  0
 26 21  1  0  0  0  0
 27 18  1  0  0  0  0
 28 23  1  1  0  0  0
 28 20  1  0  0  0  0
M  END
>  <MODEL>
1

>  <REMARK>
 VINA RESULT:      -7.6      0.000      0.000
  Name = 
  5 active torsions:
  status: ('A' for Active; 'I' for Inactive)
    1  A    between atoms: N_2  and  C_3
    2  A    between atoms: C_10  and  C_17
    3  A    between atoms: N_16  and  C_27
    4  A    between atoms: C_17  and  C_27
    5  A    between atoms: C_26  and  C_27
                            x       y       z     vdW  Elec       q    Type
                         _______ _______ _______ _____ _____    ______ ____

>  <TORSDO>
F 5

$$$$
=
 OpenBabel11052418063D

 28 31  0  0  1  0  0  0  0  0999 V2000
  190.8320  175.4520  144.3000 C   0  0  1  0  0  3  0  0  0  0  0  0
  191.6490  176.5630  147.5870 C   0  0  0  0  0  3  0  0  0  0  0  0
  191.0540  175.6570  145.7280 N   0  0  0  0  0  0  0  0  0  0  0  0
  190.9880  175.3890  147.9120 C   0  0  0  0  0  3  0  0  0  0  0  0
  191.6690  176.7030  146.2490 N   0  0  0  0  0  0  0  0  0  0  0  0
  190.6160  174.8390  146.6980 C   0  0  0  0  0  3  0  0  0  0  0  0
  190.8520  173.1330  143.7070 O   0  0  0  0  0  0  0  0  0  0  0  0
  192.8870  174.2180  143.4390 N   0  0  0  0  0  2  0  0  0  0  0  0
  191.5100  174.2020  143.8200 C   0  0  0  0  0  0  0  0  0  0  0  0
  193.7130  175.4160  143.4910 C   0  0  2  0  0  3  0  0  0  0  0  0
  196.1200  176.4630  142.3660 C   0  0  0  0  0  2  0  0  0  0  0  0
  193.9710  175.9110  142.0600 C   0  0  0  0  0  2  0  0  0  0  0  0
  194.8170  175.1570  145.7360 C   0  0  0  0  0  1  0  0  0  0  0  0
  195.0260  175.1250  144.2360 C   0  0  2  0  0  3  0  0  0  0  0  0
  196.1440  176.1040  143.8600 C   0  0  0  0  0  2  0  0  0  0  0  0
  195.2770  175.6010  141.6430 O   0  0  0  0  0  0  0  0  0  0  0  0
  189.3400  175.4230  143.9680 C   0  0  0  0  0  2  0  0  0  0  0  0
  187.9770  177.4350  146.0610 C   0  0  0  0  0  3  0  0  0  0  0  0
  186.4290  177.2540  144.2190 C   0  0  0  0  0  0  0  0  0  0  0  0
  188.7500  176.8150  143.7100 C   0  0  2  0  0  3  0  0  0  0  0  0
  185.6090  177.8560  146.4040 C   0  0  0  0  0  0  0  0  0  0  0  0
  187.7130  177.1690  144.7140 C   0  0  0  0  0  0  0  0  0  0  0  0
  188.5580  178.1900  141.6400 C   0  0  0  0  0  1  0  0  0  0  0  0
  185.3620  177.6000  145.0500 C   0  0  0  0  0  3  0  0  0  0  0  0
  186.2690  176.9330  142.4800 S   0  0  0  0  0  0  0  0  0  0  0  0
  184.4870  178.2170  147.3090 C   0  0  0  0  0  1  0  0  0  0  0  0
  186.9160  177.7770  146.9090 C   0  0  0  0  0  3  0  0  0  0  0  0
  188.1000  176.9160  142.3230 C   0  0  2  0  0  3  0  0  0  0  0  0
  1 17  1  1  0  0  0
  1  3  1  0  0  0  0
  2  4  1  0  0  0  0
  3  5  1  0  0  0  0
  3  6  1  0  0  0  0
  5  2  2  0  0  0  0
  6  4  2  0  0  0  0
  7  9  2  0  0  0  0
  8  9  1  0  0  0  0
  9  1  1  0  0  0  0
 10  8  1  6  0  0  0
 10 14  1  0  0  0  0
 11 15  1  0  0  0  0
 12 10  1  0  0  0  0
 14 13  1  1  0  0  0
 15 14  1  0  0  0  0
 16 12  1  0  0  0  0
 16 11  1  0  0  0  0
 18 27  1  0  0  0  0
 19 22  1  0  0  0  0
 19 24  2  0  0  0  0
 20 17  1  1  0  0  0
 20 22  1  0  0  0  0
 21 27  2  0  0  0  0
 21 26  1  0  0  0  0
 22 18  2  0  0  0  0
 24 21  1  0  0  0  0
 25 19  1  0  0  0  0
 28 23  1  1  0  0  0
 28 25  1  0  0  0  0
 28 20  1  0  0  0  0
M  END
>  <MODEL>
2

>  <REMARK>
 VINA RESULT:      -7.1      2.725      6.870
  Name = 
  5 active torsions:
  status: ('A' for Active; 'I' for Inactive)
    1  A    between atoms: N_2  and  C_3
    2  A    between atoms: C_10  and  C_17
    3  A    between atoms: N_16  and  C_27
    4  A    between atoms: C_17  and  C_27
    5  A    between atoms: C_26  and  C_27
                            x       y       z     vdW  Elec       q    Type
                         _______ _______ _______ _____ _____    ______ ____

>  <TORSDO>
F 5

$$$$
=
 OpenBabel11052418063D

 28 31  0  0  1  0  0  0  0  0999 V2000
  189.4520  176.2820  143.4700 C   0  0  1  0  0  3  0  0  0  0  0  0
  189.3510  177.3340  146.8750 C   0  0  0  0  0  3  0  0  0  0  0  0
  189.2210  176.5010  144.8950 N   0  0  0  0  0  0  0  0  0  0  0  0
  188.3600  176.3650  146.9160 C   0  0  0  0  0  3  0  0  0  0  0  0
  189.8540  177.3980  145.6290 N   0  0  0  0  0  0  0  0  0  0  0  0
  188.3010  175.8580  145.6310 C   0  0  0  0  0  3  0  0  0  0  0  0
  190.7520  178.0850  142.5830 O   0  0  0  0  0  0  0  0  0  0  0  0
  188.4730  178.2430  142.1730 N   0  0  0  0  0  2  0  0  0  0  0  0
  189.6070  177.5830  142.7410 C   0  0  0  0  0  0  0  0  0  0  0  0
  187.1180  177.7150  142.2640 C   0  0  2  0  0  3  0  0  0  0  0  0
  184.5360  178.1120  141.1110 C   0  0  0  0  0  2  0  0  0  0  0  0
  186.6270  177.3500  140.8550 C   0  0  0  0  0  2  0  0  0  0  0  0
  186.3500  178.7010  144.4470 C   0  0  0  0  0  1  0  0  0  0  0  0
  186.1930  178.7390  142.9400 C   0  0  2  0  0  3  0  0  0  0  0  0
  184.7190  178.5260  142.5790 C   0  0  0  0  0  2  0  0  0  0  0  0
  185.7160  178.3050  140.3720 O   0  0  0  0  0  0  0  0  0  0  0  0
  190.6640  175.3790  143.2360 C   0  0  0  0  0  2  0  0  0  0  0  0
  192.9150  175.3970  145.5200 C   0  0  0  0  0  3  0  0  0  0  0  0
  192.9980  173.1970  144.5300 C   0  0  0  0  0  0  0  0  0  0  0  0
  190.8900  174.3640  144.3630 C   0  0  2  0  0  3  0  0  0  0  0  0
  194.9600  174.0880  145.6120 C   0  0  0  0  0  0  0  0  0  0  0  0
  192.3040  174.3520  144.8200 C   0  0  0  0  0  0  0  0  0  0  0  0
  189.6830  172.2770  144.9980 C   0  0  0  0  0  1  0  0  0  0  0  0
  194.3300  173.0440  144.9220 C   0  0  0  0  0  3  0  0  0  0  0  0
  192.0660  171.9500  143.6790 S   0  0  0  0  0  0  0  0  0  0  0  0
  196.3790  173.9500  146.0310 C   0  0  0  0  0  1  0  0  0  0  0  0
  194.2520  175.2610  145.9140 C   0  0  0  0  0  3  0  0  0  0  0  0
  190.5350  172.9350  143.9300 C   0  0  2  0  0  3  0  0  0  0  0  0
  1 17  1  1  0  0  0
  1  3  1  0  0  0  0
  2  4  1  0  0  0  0
  3  5  1  0  0  0  0
  3  6  1  0  0  0  0
  5  2  2  0  0  0  0
  6  4  2  0  0  0  0
  7  9  2  0  0  0  0
  8  9  1  0  0  0  0
  9  1  1  0  0  0  0
 10  8  1  6  0  0  0
 10 14  1  0  0  0  0
 11 15  1  0  0  0  0
 12 10  1  0  0  0  0
 14 13  1  1  0  0  0
 15 14  1  0  0  0  0
 16 12  1  0  0  0  0
 16 11  1  0  0  0  0
 18 27  1  0  0  0  0
 19 22  1  0  0  0  0
 19 24  2  0  0  0  0
 20 17  1  6  0  0  0
 20 22  1  0  0  0  0
 21 27  2  0  0  0  0
 21 26  1  0  0  0  0
 22 18  2  0  0  0  0
 24 21  1  0  0  0  0
 25 28  1  0  0  0  0
 25 19  1  0  0  0  0
 28 20  1  0  0  0  0
 28 23  1  1  0  0  0
M  END
>  <MODEL>
3

>  <REMARK>
 VINA RESULT:      -7.0      1.791      2.274
  Name = 
  5 active torsions:
  status: ('A' for Active; 'I' for Inactive)
    1  A    between atoms: N_2  and  C_3
    2  A    between atoms: C_10  and  C_17
    3  A    between atoms: N_16  and  C_27
    4  A    between atoms: C_17  and  C_27
    5  A    between atoms: C_26  and  C_27
                            x       y       z     vdW  Elec       q    Type
                         _______ _______ _______ _____ _____    ______ ____

>  <TORSDO>
F 5

$$$$
=
 OpenBabel11052418063D

 28 31  0  0  1  0  0  0  0  0999 V2000
  190.3660  174.4650  144.2930 C   0  0  1  0  0  3  0  0  0  0  0  0
  193.9200  174.5940  144.5520 C   0  0  0  0  0  3  0  0  0  0  0  0
  191.7740  174.4980  144.6810 N   0  0  0  0  0  0  0  0  0  0  0  0
  193.6020  174.6090  145.9010 C   0  0  0  0  0  3  0  0  0  0  0  0
  192.7850  174.5310  143.8320 N   0  0  0  0  0  0  0  0  0  0  0  0
  192.2200  174.5520  145.9450 C   0  0  0  0  0  3  0  0  0  0  0  0
  189.6860  172.2640  144.9410 O   0  0  0  0  0  0  0  0  0  0  0  0
  189.7020  172.6360  142.6500 N   0  0  0  0  0  2  0  0  0  0  0  0
  189.9190  173.0650  143.9960 C   0  0  0  0  0  0  0  0  0  0  0  0
  189.8990  173.5050  141.4980 C   0  0  2  0  0  3  0  0  0  0  0  0
  188.9950  173.8050  138.8060 C   0  0  0  0  0  2  0  0  0  0  0  0
  188.5310  173.9840  140.9900 C   0  0  0  0  0  2  0  0  0  0  0  0
  192.1690  172.7640  140.7040 C   0  0  0  0  0  1  0  0  0  0  0  0
  190.6840  172.7650  140.4020 C   0  0  2  0  0  3  0  0  0  0  0  0
  190.4520  173.3610  139.0100 C   0  0  0  0  0  2  0  0  0  0  0  0
  188.1580  173.3040  139.8180 O   0  0  0  0  0  0  0  0  0  0  0  0
  189.4810  175.1040  145.3640 C   0  0  0  0  0  2  0  0  0  0  0  0
  187.3990  177.0940  146.7740 C   0  0  0  0  0  3  0  0  0  0  0  0
  187.3370  177.6340  144.4220 C   0  0  0  0  0  0  0  0  0  0  0  0
  189.3780  176.6280  145.2340 C   0  0  2  0  0  3  0  0  0  0  0  0
  185.4220  178.1210  145.8040 C   0  0  0  0  0  0  0  0  0  0  0  0
  188.0020  177.1150  145.5120 C   0  0  0  0  0  0  0  0  0  0  0  0
  190.7120  178.2870  143.9370 C   0  0  0  0  0  1  0  0  0  0  0  0
  186.0440  178.1470  144.5490 C   0  0  0  0  0  3  0  0  0  0  0  0
  188.2580  177.6300  142.9050 S   0  0  0  0  0  0  0  0  0  0  0  0
  184.0430  178.6520  145.9590 C   0  0  0  0  0  1  0  0  0  0  0  0
  186.1000  177.5980  146.9160 C   0  0  0  0  0  3  0  0  0  0  0  0
  189.7610  177.1130  143.8280 C   0  0  2  0  0  3  0  0  0  0  0  0
  1  3  1  0  0  0  0
  1 17  1  1  0  0  0
  2  4  1  0  0  0  0
  3  6  1  0  0  0  0
  4  6  2  0  0  0  0
  5  2  2  0  0  0  0
  5  3  1  0  0  0  0
  8  9  1  0  0  0  0
  9  1  1  0  0  0  0
  9  7  2  0  0  0  0
 10  8  1  1  0  0  0
 11 15  1  0  0  0  0
 11 16  1  0  0  0  0
 12 10  1  0  0  0  0
 14 13  1  1  0  0  0
 14 10  1  0  0  0  0
 15 14  1  0  0  0  0
 16 12  1  0  0  0  0
 18 27  1  0  0  0  0
 19 24  2  0  0  0  0
 19 22  1  0  0  0  0
 20 17  1  6  0  0  0
 20 22  1  0  0  0  0
 21 26  1  0  0  0  0
 21 27  2  0  0  0  0
 22 18  2  0  0  0  0
 24 21  1  0  0  0  0
 25 28  1  0  0  0  0
 25 19  1  0  0  0  0
 28 23  1  1  0  0  0
 28 20  1  0  0  0  0
M  END
>  <MODEL>
4

>  <REMARK>
 VINA RESULT:      -7.0      3.139      6.399
  Name = 
  5 active torsions:
  status: ('A' for Active; 'I' for Inactive)
    1  A    between atoms: N_2  and  C_3
    2  A    between atoms: C_10  and  C_17
    3  A    between atoms: N_16  and  C_27
    4  A    between atoms: C_17  and  C_27
    5  A    between atoms: C_26  and  C_27
                            x       y       z     vdW  Elec       q    Type
                         _______ _______ _______ _____ _____    ______ ____

>  <TORSDO>
F 5

$$$$
=
 OpenBabel11052418063D

 28 31  0  0  1  0  0  0  0  0999 V2000
  190.4780  174.3160  144.3880 C   0  0  1  0  0  3  0  0  0  0  0  0
  191.9320  175.6090  147.3750 C   0  0  0  0  0  3  0  0  0  0  0  0
  191.2560  174.9750  145.4330 N   0  0  0  0  0  0  0  0  0  0  0  0
  192.8410  176.1100  146.4550 C   0  0  0  0  0  3  0  0  0  0  0  0
  190.9800  174.9180  146.7230 N   0  0  0  0  0  0  0  0  0  0  0  0
  192.3790  175.6790  145.2240 C   0  0  0  0  0  3  0  0  0  0  0  0
  189.3480  172.3710  145.2060 O   0  0  0  0  0  0  0  0  0  0  0  0
  191.3980  171.9480  144.2020 N   0  0  0  0  0  2  0  0  0  0  0  0
  190.3720  172.8410  144.6410 C   0  0  0  0  0  0  0  0  0  0  0  0
  192.5930  172.3940  143.5000 C   0  0  2  0  0  3  0  0  0  0  0  0
  194.6090  171.3760  141.7520 C   0  0  0  0  0  2  0  0  0  0  0  0
  192.4770  172.0090  142.0170 C   0  0  0  0  0  2  0  0  0  0  0  0
  194.2450  172.5560  145.3900 C   0  0  0  0  0  1  0  0  0  0  0  0
  193.8480  171.7860  144.1470 C   0  0  2  0  0  3  0  0  0  0  0  0
  195.0390  171.7330  143.1830 C   0  0  0  0  0  2  0  0  0  0  0  0
  193.2860  170.9010  141.7150 O   0  0  0  0  0  0  0  0  0  0  0  0
  189.0920  174.9450  144.2470 C   0  0  0  0  0  2  0  0  0  0  0  0
  187.3580  176.7810  146.2230 C   0  0  0  0  0  3  0  0  0  0  0  0
  187.0730  177.7310  144.0230 C   0  0  0  0  0  0  0  0  0  0  0  0
  189.1030  176.4720  144.3880 C   0  0  2  0  0  3  0  0  0  0  0  0
  185.3760  178.0850  145.6990 C   0  0  0  0  0  0  0  0  0  0  0  0
  187.8130  176.9860  144.9170 C   0  0  0  0  0  0  0  0  0  0  0  0
  190.4140  178.2470  143.2290 C   0  0  0  0  0  1  0  0  0  0  0  0
  185.8510  178.2930  144.3970 C   0  0  0  0  0  3  0  0  0  0  0  0
  187.8110  177.9370  142.4220 S   0  0  0  0  0  0  0  0  0  0  0  0
  184.0730  178.6650  146.1150 C   0  0  0  0  0  1  0  0  0  0  0  0
  186.1310  177.3320  146.6120 C   0  0  0  0  0  3  0  0  0  0  0  0
  189.3610  177.1720  143.0470 C   0  0  2  0  0  3  0  0  0  0  0  0
  1 17  1  1  0  0  0
  1  9  1  0  0  0  0
  1  3  1  0  0  0  0
  3  5  1  0  0  0  0
  4  2  1  0  0  0  0
  5  2  2  0  0  0  0
  6  3  1  0  0  0  0
  6  4  2  0  0  0  0
  8  9  1  0  0  0  0
  9  7  2  0  0  0  0
 10 14  1  0  0  0  0
 10  8  1  1  0  0  0
 11 15  1  0  0  0  0
 12 10  1  0  0  0  0
 14 13  1  1  0  0  0
 15 14  1  0  0  0  0
 16 11  1  0  0  0  0
 16 12  1  0  0  0  0
 18 27  1  0  0  0  0
 19 24  2  0  0  0  0
 19 22  1  0  0  0  0
 20 17  1  6  0  0  0
 20 22  1  0  0  0  0
 21 26  1  0  0  0  0
 21 27  2  0  0  0  0
 22 18  2  0  0  0  0
 24 21  1  0  0  0  0
 25 28  1  0  0  0  0
 25 19  1  0  0  0  0
 28 23  1  1  0  0  0
 28 20  1  0  0  0  0
M  END
>  <MODEL>
5

>  <REMARK>
 VINA RESULT:      -6.5      3.388      7.212
  Name = 
  5 active torsions:
  status: ('A' for Active; 'I' for Inactive)
    1  A    between atoms: N_2  and  C_3
    2  A    between atoms: C_10  and  C_17
    3  A    between atoms: N_16  and  C_27
    4  A    between atoms: C_17  and  C_27
    5  A    between atoms: C_26  and  C_27
                            x       y       z     vdW  Elec       q    Type
                         _______ _______ _______ _____ _____    ______ ____

>  <TORSDO>
F 5

$$$$
=
 OpenBabel11052418063D

 28 31  0  0  1  0  0  0  0  0999 V2000
  186.5880  176.9940  144.7160 C   0  0  1  0  0  3  0  0  0  0  0  0
  183.9510  179.1950  143.7620 C   0  0  0  0  0  3  0  0  0  0  0  0
  185.6900  178.1020  144.4030 N   0  0  0  0  0  0  0  0  0  0  0  0
  184.8450  180.1290  144.2630 C   0  0  0  0  0  3  0  0  0  0  0  0
  184.4910  177.9680  143.8660 N   0  0  0  0  0  0  0  0  0  0  0  0
  185.9430  179.3930  144.6680 C   0  0  0  0  0  3  0  0  0  0  0  0
  185.3900  176.6980  146.7660 O   0  0  0  0  0  0  0  0  0  0  0  0
  187.6310  176.0990  146.8600 N   0  0  0  0  0  2  0  0  0  0  0  0
  186.4930  176.6110  146.1630 C   0  0  0  0  0  0  0  0  0  0  0  0
  188.9330  175.9210  146.2340 C   0  0  2  0  0  3  0  0  0  0  0  0
  191.6450  175.3790  146.9440 C   0  0  0  0  0  2  0  0  0  0  0  0
  189.5530  174.6070  146.7310 C   0  0  0  0  0  2  0  0  0  0  0  0
  189.5150  178.2900  145.6220 C   0  0  0  0  0  1  0  0  0  0  0  0
  189.8380  177.1250  146.5360 C   0  0  2  0  0  3  0  0  0  0  0  0
  191.3280  176.7850  146.4150 C   0  0  0  0  0  2  0  0  0  0  0  0
  190.5660  174.8480  147.6740 O   0  0  0  0  0  0  0  0  0  0  0  0
  186.3170  175.7880  143.8150 C   0  0  0  0  0  2  0  0  0  0  0  0
  188.9590  174.1120  143.1140 C   0  0  0  0  0  3  0  0  0  0  0  0
  189.4790  176.4090  142.5880 C   0  0  0  0  0  0  0  0  0  0  0  0
  187.1420  175.8010  142.5220 C   0  0  2  0  0  3  0  0  0  0  0  0
  191.2640  174.8810  143.1250 C   0  0  0  0  0  0  0  0  0  0  0  0
  188.5530  175.4030  142.7630 C   0  0  0  0  0  0  0  0  0  0  0  0
  186.8750  177.0530  140.3840 C   0  0  0  0  0  1  0  0  0  0  0  0
  190.8430  176.1660  142.7620 C   0  0  0  0  0  3  0  0  0  0  0  0
  188.8050  177.9770  142.1000 S   0  0  0  0  0  0  0  0  0  0  0  0
  192.7100  174.6020  143.3240 C   0  0  0  0  0  1  0  0  0  0  0  0
  190.3230  173.8540  143.2980 C   0  0  0  0  0  3  0  0  0  0  0  0
  187.1610  177.1880  141.8660 C   0  0  2  0  0  3  0  0  0  0  0  0
  1 17  1  6  0  0  0
  1  9  1  0  0  0  0
  2  5  2  0  0  0  0
  2  4  1  0  0  0  0
  3  6  1  0  0  0  0
  3  1  1  0  0  0  0
  4  6  2  0  0  0  0
  5  3  1  0  0  0  0
  9  7  2  0  0  0  0
  9  8  1  0  0  0  0
 10 14  1  0  0  0  0
 10 12  1  0  0  0  0
 10  8  1  1  0  0  0
 11 16  1  0  0  0  0
 12 16  1  0  0  0  0
 14 13  1  6  0  0  0
 15 14  1  0  0  0  0
 15 11  1  0  0  0  0
 18 27  1  0  0  0  0
 19 24  2  0  0  0  0
 19 22  1  0  0  0  0
 20 22  1  0  0  0  0
 20 17  1  1  0  0  0
 21 27  2  0  0  0  0
 21 26  1  0  0  0  0
 22 18  2  0  0  0  0
 24 21  1  0  0  0  0
 25 19  1  0  0  0  0
 28 23  1  6  0  0  0
 28 25  1  0  0  0  0
 28 20  1  0  0  0  0
M  END
>  <MODEL>
6

>  <REMARK>
 VINA RESULT:      -6.5      2.308      4.822
  Name = 
  5 active torsions:
  status: ('A' for Active; 'I' for Inactive)
    1  A    between atoms: N_2  and  C_3
    2  A    between atoms: C_10  and  C_17
    3  A    between atoms: N_16  and  C_27
    4  A    between atoms: C_17  and  C_27
    5  A    between atoms: C_26  and  C_27
                            x       y       z     vdW  Elec       q    Type
                         _______ _______ _______ _____ _____    ______ ____

>  <TORSDO>
F 5

$$$$
=
 OpenBabel11052418063D

 28 31  0  0  1  0  0  0  0  0999 V2000
  193.7550  175.5790  143.7680 C   0  0  1  0  0  3  0  0  0  0  0  0
  196.9990  176.7910  142.9220 C   0  0  0  0  0  3  0  0  0  0  0  0
  195.0210  175.9770  143.1600 N   0  0  0  0  0  0  0  0  0  0  0  0
  196.6700  176.1890  141.7180 C   0  0  0  0  0  3  0  0  0  0  0  0
  195.9760  176.6420  143.7840 N   0  0  0  0  0  0  0  0  0  0  0  0
  195.4000  175.6730  141.9090 C   0  0  0  0  0  3  0  0  0  0  0  0
  193.3480  176.4310  145.9670 O   0  0  0  0  0  0  0  0  0  0  0  0
  194.5080  174.4210  145.9080 N   0  0  0  0  0  2  0  0  0  0  0  0
  193.8650  175.5220  145.2620 C   0  0  0  0  0  0  0  0  0  0  0  0
  195.0920  173.3030  145.1790 C   0  0  2  0  0  3  0  0  0  0  0  0
  195.6840  170.5320  145.5330 C   0  0  0  0  0  2  0  0  0  0  0  0
  194.1250  172.1110  145.2280 C   0  0  0  0  0  2  0  0  0  0  0  0
  197.5380  173.8860  145.2590 C   0  0  0  0  0  1  0  0  0  0  0  0
  196.4650  172.9440  145.7680 C   0  0  2  0  0  3  0  0  0  0  0  0
  196.8750  171.4990  145.4620 C   0  0  0  0  0  2  0  0  0  0  0  0
  194.5670  171.1360  146.1380 O   0  0  0  0  0  0  0  0  0  0  0  0
  192.6170  176.5070  143.3400 C   0  0  0  0  0  2  0  0  0  0  0  0
  189.6170  177.3720  144.0720 C   0  0  0  0  0  3  0  0  0  0  0  0
  189.8580  175.1020  144.8560 C   0  0  0  0  0  0  0  0  0  0  0  0
  191.3090  175.7650  143.0420 C   0  0  2  0  0  3  0  0  0  0  0  0
  188.2240  176.5470  145.8840 C   0  0  0  0  0  0  0  0  0  0  0  0
  190.2390  176.1210  144.0100 C   0  0  0  0  0  0  0  0  0  0  0  0
  190.8390  173.6110  141.8780 C   0  0  0  0  0  1  0  0  0  0  0  0
  188.8470  175.2950  145.8000 C   0  0  0  0  0  3  0  0  0  0  0  0
  190.7120  173.5650  144.6180 S   0  0  0  0  0  0  0  0  0  0  0  0
  187.1520  176.7770  146.8870 C   0  0  0  0  0  1  0  0  0  0  0  0
  188.6060  177.5830  145.0180 C   0  0  0  0  0  3  0  0  0  0  0  0
  191.4880  174.2410  143.0950 C   0  0  2  0  0  3  0  0  0  0  0  0
  1 17  1  1  0  0  0
  1  9  1  0  0  0  0
  2  5  2  0  0  0  0
  3  1  1  0  0  0  0
  3  5  1  0  0  0  0
  4  6  2  0  0  0  0
  4  2  1  0  0  0  0
  6  3  1  0  0  0  0
  9  8  1  0  0  0  0
  9  7  2  0  0  0  0
 10 12  1  0  0  0  0
 10 14  1  0  0  0  0
 10  8  1  1  0  0  0
 11 16  1  0  0  0  0
 12 16  1  0  0  0  0
 14 13  1  6  0  0  0
 15 11  1  0  0  0  0
 15 14  1  0  0  0  0
 18 27  1  0  0  0  0
 19 24  2  0  0  0  0
 20 28  1  0  0  0  0
 20 17  1  1  0  0  0
 20 22  1  0  0  0  0
 21 26  1  0  0  0  0
 22 18  2  0  0  0  0
 22 19  1  0  0  0  0
 24 21  1  0  0  0  0
 25 19  1  0  0  0  0
 27 21  2  0  0  0  0
 28 23  1  6  0  0  0
 28 25  1  0  0  0  0
M  END
>  <MODEL>
7

>  <REMARK>
 VINA RESULT:      -6.5      3.718      8.262
  Name = 
  5 active torsions:
  status: ('A' for Active; 'I' for Inactive)
    1  A    between atoms: N_2  and  C_3
    2  A    between atoms: C_10  and  C_17
    3  A    between atoms: N_16  and  C_27
    4  A    between atoms: C_17  and  C_27
    5  A    between atoms: C_26  and  C_27
                            x       y       z     vdW  Elec       q    Type
                         _______ _______ _______ _____ _____    ______ ____

>  <TORSDO>
F 5

$$$$
=
 OpenBabel11052418063D

 28 31  0  0  1  0  0  0  0  0999 V2000
  191.7810  175.0360  144.1820 C   0  0  1  0  0  3  0  0  0  0  0  0
  190.4980  171.8120  143.3610 C   0  0  0  0  0  3  0  0  0  0  0  0
  191.2440  173.8190  143.5790 N   0  0  0  0  0  0  0  0  0  0  0  0
  190.3630  172.4230  142.1240 C   0  0  0  0  0  3  0  0  0  0  0  0
  191.0330  172.6900  144.2300 N   0  0  0  0  0  0  0  0  0  0  0  0
  190.8440  173.7070  142.3030 C   0  0  0  0  0  3  0  0  0  0  0  0
  192.7700  176.4720  142.5430 O   0  0  0  0  0  0  0  0  0  0  0  0
  194.2690  175.0750  143.6350 N   0  0  0  0  0  2  0  0  0  0  0  0
  192.9460  175.5610  143.3960 C   0  0  0  0  0  0  0  0  0  0  0  0
  194.5740  174.0580  144.6320 C   0  0  2  0  0  3  0  0  0  0  0  0
  196.8080  172.9960  146.0580 C   0  0  0  0  0  2  0  0  0  0  0  0
  195.3810  174.6980  145.7710 C   0  0  0  0  0  2  0  0  0  0  0  0
  194.3850  171.9550  143.2640 C   0  0  0  0  0  1  0  0  0  0  0  0
  195.3350  172.8900  143.9840 C   0  0  2  0  0  3  0  0  0  0  0  0
  196.1590  172.0910  145.0000 C   0  0  0  0  0  2  0  0  0  0  0  0
  196.7400  174.3510  145.6890 O   0  0  0  0  0  0  0  0  0  0  0  0
  190.7000  176.1060  144.3330 C   0  0  0  0  0  2  0  0  0  0  0  0
  187.7630  175.7890  143.0850 C   0  0  0  0  0  3  0  0  0  0  0  0
  187.4730  177.0040  145.1500 C   0  0  0  0  0  0  0  0  0  0  0  0
  189.4250  175.5870  145.0090 C   0  0  2  0  0  3  0  0  0  0  0  0
  185.8440  177.2480  143.3890 C   0  0  0  0  0  0  0  0  0  0  0  0
  188.1990  176.1310  144.3680 C   0  0  0  0  0  0  0  0  0  0  0  0
  188.9810  174.7450  147.3130 C   0  0  0  0  0  1  0  0  0  0  0  0
  186.2870  177.5710  144.6780 C   0  0  0  0  0  3  0  0  0  0  0  0
  188.1370  177.2970  146.7690 S   0  0  0  0  0  0  0  0  0  0  0  0
  184.5900  177.8480  142.8630 C   0  0  0  0  0  1  0  0  0  0  0  0
  186.5790  176.3550  142.5940 C   0  0  0  0  0  3  0  0  0  0  0  0
  189.3700  175.9610  146.4970 C   0  0  2  0  0  3  0  0  0  0  0  0
  1 17  1  6  0  0  0
  2  5  2  0  0  0  0
  3  1  1  0  0  0  0
  3  5  1  0  0  0  0
  4  6  2  0  0  0  0
  4  2  1  0  0  0  0
  6  3  1  0  0  0  0
  7  9  2  0  0  0  0
  9  8  1  0  0  0  0
  9  1  1  0  0  0  0
 10  8  1  6  0  0  0
 10 12  1  0  0  0  0
 14 13  1  1  0  0  0
 14 10  1  0  0  0  0
 14 15  1  0  0  0  0
 15 11  1  0  0  0  0
 16 12  1  0  0  0  0
 16 11  1  0  0  0  0
 18 22  1  0  0  0  0
 19 25  1  0  0  0  0
 20 17  1  6  0  0  0
 20 28  1  0  0  0  0
 21 24  2  0  0  0  0
 22 20  1  0  0  0  0
 22 19  2  0  0  0  0
 24 19  1  0  0  0  0
 26 21  1  0  0  0  0
 27 18  2  0  0  0  0
 27 21  1  0  0  0  0
 28 25  1  0  0  0  0
 28 23  1  1  0  0  0
M  END
>  <MODEL>
8

>  <REMARK>
 VINA RESULT:      -6.4      3.273      7.688
  Name = 
  5 active torsions:
  status: ('A' for Active; 'I' for Inactive)
    1  A    between atoms: N_2  and  C_3
    2  A    between atoms: C_10  and  C_17
    3  A    between atoms: N_16  and  C_27
    4  A    between atoms: C_17  and  C_27
    5  A    between atoms: C_26  and  C_27
                            x       y       z     vdW  Elec       q    Type
                         _______ _______ _______ _____ _____    ______ ____

>  <TORSDO>
F 5

$$$$
=
 OpenBabel11052418063D

 28 31  0  0  1  0  0  0  0  0999 V2000
  190.8550  174.3960  142.4470 C   0  0  1  0  0  3  0  0  0  0  0  0
  189.3740  172.0160  140.2430 C   0  0  0  0  0  3  0  0  0  0  0  0
  190.1050  173.6470  141.4430 N   0  0  0  0  0  0  0  0  0  0  0  0
  188.6370  173.1350  139.8850 C   0  0  0  0  0  3  0  0  0  0  0  0
  190.2570  172.3580  141.1990 N   0  0  0  0  0  0  0  0  0  0  0  0
  189.1280  174.1570  140.6770 C   0  0  0  0  0  3  0  0  0  0  0  0
  192.5080  174.6050  140.7290 O   0  0  0  0  0  0  0  0  0  0  0  0
  193.2080  175.2910  142.8330 N   0  0  0  0  0  2  0  0  0  0  0  0
  192.2260  174.7470  141.9480 C   0  0  0  0  0  0  0  0  0  0  0  0
  192.9580  175.5340  144.2470 C   0  0  2  0  0  3  0  0  0  0  0  0
  194.1920  176.7720  146.5040 C   0  0  0  0  0  2  0  0  0  0  0  0
  193.1460  177.0290  144.5400 C   0  0  0  0  0  2  0  0  0  0  0  0
  193.3620  173.2490  145.2180 C   0  0  0  0  0  1  0  0  0  0  0  0
  193.8890  174.6650  145.1080 C   0  0  2  0  0  3  0  0  0  0  0  0
  194.0930  175.2400  146.5140 C   0  0  0  0  0  2  0  0  0  0  0  0
  194.3630  177.2680  145.2000 O   0  0  0  0  0  0  0  0  0  0  0  0
  190.0980  175.6490  142.8860 C   0  0  0  0  0  2  0  0  0  0  0  0
  186.9250  176.1040  142.9780 C   0  0  0  0  0  3  0  0  0  0  0  0
  187.8060  177.2130  144.9320 C   0  0  0  0  0  0  0  0  0  0  0  0
  189.1300  175.3960  144.0480 C   0  0  2  0  0  3  0  0  0  0  0  0
  185.7080  177.9440  143.9960 C   0  0  0  0  0  0  0  0  0  0  0  0
  187.9170  176.2500  143.9520 C   0  0  0  0  0  0  0  0  0  0  0  0
  189.4840  174.5290  146.3570 C   0  0  0  0  0  1  0  0  0  0  0  0
  186.7040  178.0700  144.9730 C   0  0  0  0  0  3  0  0  0  0  0  0
  189.1250  177.2380  146.1190 S   0  0  0  0  0  0  0  0  0  0  0  0
  184.5310  178.8510  144.0150 C   0  0  0  0  0  1  0  0  0  0  0  0
  185.8160  176.9600  143.0020 C   0  0  0  0  0  3  0  0  0  0  0  0
  189.7810  175.6740  145.4100 C   0  0  2  0  0  3  0  0  0  0  0  0
  1 17  1  6  0  0  0
  2  5  2  0  0  0  0
  3  1  1  0  0  0  0
  4  2  1  0  0  0  0
  4  6  2  0  0  0  0
  5  3  1  0  0  0  0
  6  3  1  0  0  0  0
  7  9  2  0  0  0  0
  9  1  1  0  0  0  0
  9  8  1  0  0  0  0
 10  8  1  6  0  0  0
 10 12  1  0  0  0  0
 10 14  1  0  0  0  0
 11 15  1  0  0  0  0
 12 16  1  0  0  0  0
 14 13  1  1  0  0  0
 14 15  1  0  0  0  0
 16 11  1  0  0  0  0
 18 27  2  0  0  0  0
 18 22  1  0  0  0  0
 19 24  1  0  0  0  0
 19 25  1  0  0  0  0
 20 17  1  6  0  0  0
 20 28  1  0  0  0  0
 21 26  1  0  0  0  0
 21 24  2  0  0  0  0
 22 20  1  0  0  0  0
 22 19  2  0  0  0  0
 27 21  1  0  0  0  0
 28 25  1  0  0  0  0
 28 23  1  1  0  0  0
M  END
>  <MODEL>
9

>  <REMARK>
 VINA RESULT:      -6.3      3.044      7.150
  Name = 
  5 active torsions:
  status: ('A' for Active; 'I' for Inactive)
    1  A    between atoms: N_2  and  C_3
    2  A    between atoms: C_10  and  C_17
    3  A    between atoms: N_16  and  C_27
    4  A    between atoms: C_17  and  C_27
    5  A    between atoms: C_26  and  C_27
                            x       y       z     vdW  Elec       q    Type
                         _______ _______ _______ _____ _____    ______ ____

>  <TORSDO>
F 5

$$$$
