=
 OpenBabel11052417273D

 25 27  0  0  1  0  0  0  0  0999 V2000
  189.0730  175.5850  143.7940 N   0  0  0  0  0  0  0  0  0  0  0  0
  188.5530  176.8120  143.1690 C   0  0  0  0  0  0  0  0  0  0  0  0
  188.7120  174.3210  141.8260 C   0  0  0  0  0  3  0  0  0  0  0  0
  187.9430  175.3910  141.2700 N   0  0  0  0  0  0  0  0  0  0  0  0
  186.9220  177.5780  141.3550 C   0  0  1  0  0  3  0  0  0  0  0  0
  186.5140  177.5980  139.9210 C   0  0  0  0  0  1  0  0  0  0  0  0
  187.6920  177.6230  144.1080 C   0  0  0  0  0  3  0  0  0  0  0  0
  189.2240  174.4210  143.0140 N   0  0  0  0  0  0  0  0  0  0  0  0
  186.4220  178.4880  142.1960 C   0  0  0  0  0  3  0  0  0  0  0  0
  186.7490  178.4520  143.6410 C   0  0  0  0  0  0  0  0  0  0  0  0
  187.8140  176.5270  141.8840 C   0  0  0  0  0  0  0  0  0  0  0  0
  189.7270  175.6340  145.0790 C   0  0  0  0  0  0  0  0  0  0  0  0
  190.9650  175.7390  147.6010 C   0  0  0  0  0  3  0  0  0  0  0  0
  190.9590  176.3010  145.2420 C   0  0  0  0  0  0  0  0  0  0  0  0
  191.5680  176.3510  146.5000 C   0  0  0  0  0  3  0  0  0  0  0  0
  189.7490  175.0720  147.4490 C   0  0  0  0  0  3  0  0  0  0  0  0
  191.5940  176.9010  144.1610 O   0  0  0  0  0  1  0  0  0  0  0  0
  189.1330  175.0210  146.1960 C   0  0  0  0  0  3  0  0  0  0  0  0
  185.9940  179.3220  144.5870 C   0  0  0  0  0  2  0  0  0  0  0  0
  184.7000  178.6780  144.9670 C   0  0  0  0  0  0  0  0  0  0  0  0
  183.7920  178.6130  144.1510 O   0  0  0  0  0  0  0  0  0  0  0  0
  184.5200  178.1390  146.3540 C   0  0  2  0  0  3  0  0  0  0  0  0
  185.0810  179.0070  147.2930 O   0  0  0  0  0  1  0  0  0  0  0  0
  186.2420  176.7560  147.3100 O   0  0  0  0  0  1  0  0  0  0  0  0
  185.1030  176.7380  146.5020 C   0  0  0  0  0  2  0  0  0  0  0  0
  1 12  1  0  0  0  0
  2  1  1  0  0  0  0
  2  7  2  0  0  0  0
  3  8  2  0  0  0  0
  4  3  1  0  0  0  0
  4 11  2  0  0  0  0
  5  6  1  1  0  0  0
  5 11  1  0  0  0  0
  5  9  1  0  0  0  0
  8  1  1  0  0  0  0
  9 10  2  0  0  0  0
 10  7  1  0  0  0  0
 10 19  1  0  0  0  0
 11  2  1  0  0  0  0
 12 14  2  0  0  0  0
 12 18  1  0  0  0  0
 14 15  1  0  0  0  0
 15 13  2  0  0  0  0
 16 13  1  0  0  0  0
 17 14  1  0  0  0  0
 18 16  2  0  0  0  0
 19 20  1  0  0  0  0
 20 22  1  0  0  0  0
 21 20  2  0  0  0  0
 22 25  1  0  0  0  0
 22 23  1  1  0  0  0
 25 24  1  0  0  0  0
M  END
>  <MODEL>
1

>  <REMARK>
 VINA RESULT:      -7.4      0.000      0.000
  Name = 
  5 active torsions:
  status: ('A' for Active; 'I' for Inactive)
    1  A    between atoms: N_1  and  C_5
    2  A    between atoms: C_2  and  C_15
    3  A    between atoms: C_2  and  C_21
    4  A    between atoms: C_6  and  C_15
    5  A    between atoms: C_6  and  C_23
                            x       y       z     vdW  Elec       q    Type
                         _______ _______ _______ _____ _____    ______ ____

>  <TORSDO>
F 5

$$$$
=
 OpenBabel11052417273D

 25 27  0  0  1  0  0  0  0  0999 V2000
  188.1590  176.5000  146.3900 N   0  0  0  0  0  0  0  0  0  0  0  0
  189.1690  177.1050  145.5050 C   0  0  0  0  0  0  0  0  0  0  0  0
  189.6570  174.8060  147.0900 C   0  0  0  0  0  3  0  0  0  0  0  0
  190.5690  175.1720  146.0500 N   0  0  0  0  0  0  0  0  0  0  0  0
  191.2370  176.4840  144.1360 C   0  0  1  0  0  3  0  0  0  0  0  0
  192.6300  175.9560  144.0840 C   0  0  0  0  0  1  0  0  0  0  0  0
  188.5890  177.5600  144.1870 C   0  0  0  0  0  3  0  0  0  0  0  0
  188.5270  175.4290  147.2290 N   0  0  0  0  0  0  0  0  0  0  0  0
  190.7560  177.1820  143.1030 C   0  0  0  0  0  3  0  0  0  0  0  0
  189.3540  177.6580  143.0910 C   0  0  0  0  0  0  0  0  0  0  0  0
  190.3490  176.1910  145.2780 C   0  0  0  0  0  0  0  0  0  0  0  0
  186.9120  177.1750  146.6530 C   0  0  0  0  0  0  0  0  0  0  0  0
  184.4730  178.4900  147.1270 C   0  0  0  0  0  3  0  0  0  0  0  0
  186.8560  178.2830  147.5240 C   0  0  0  0  0  0  0  0  0  0  0  0
  185.6390  178.9340  147.7530 C   0  0  0  0  0  3  0  0  0  0  0  0
  184.5170  177.3920  146.2670 C   0  0  0  0  0  3  0  0  0  0  0  0
  187.9960  178.7350  148.1790 O   0  0  0  0  0  1  0  0  0  0  0  0
  185.7300  176.7390  146.0310 C   0  0  0  0  0  3  0  0  0  0  0  0
  188.7780  178.2170  141.8350 C   0  0  0  0  0  2  0  0  0  0  0  0
  187.6020  177.4070  141.3940 C   0  0  0  0  0  0  0  0  0  0  0  0
  187.7770  176.3110  140.8840 O   0  0  0  0  0  0  0  0  0  0  0  0
  186.2180  177.9580  141.5630 C   0  0  2  0  0  3  0  0  0  0  0  0
  185.5050  177.2110  142.5020 O   0  0  0  0  0  1  0  0  0  0  0  0
  184.2090  178.6110  140.4110 O   0  0  0  0  0  1  0  0  0  0  0  0
  185.4630  178.0210  140.2400 C   0  0  0  0  0  2  0  0  0  0  0  0
  1 12  1  0  0  0  0
  1  8  1  0  0  0  0
  2  1  1  0  0  0  0
  3  8  2  0  0  0  0
  4  3  1  0  0  0  0
  5  6  1  6  0  0  0
  5 11  1  0  0  0  0
  7  2  2  0  0  0  0
  9  5  1  0  0  0  0
 10  9  2  0  0  0  0
 10  7  1  0  0  0  0
 11  2  1  0  0  0  0
 11  4  2  0  0  0  0
 12 14  1  0  0  0  0
 13 15  1  0  0  0  0
 14 15  2  0  0  0  0
 14 17  1  0  0  0  0
 16 13  2  0  0  0  0
 18 16  1  0  0  0  0
 18 12  2  0  0  0  0
 19 10  1  0  0  0  0
 20 22  1  0  0  0  0
 20 19  1  0  0  0  0
 21 20  2  0  0  0  0
 22 23  1  1  0  0  0
 25 24  1  0  0  0  0
 25 22  1  0  0  0  0
M  END
>  <MODEL>
2

>  <REMARK>
 VINA RESULT:      -7.2      2.365      5.130
  Name = 
  5 active torsions:
  status: ('A' for Active; 'I' for Inactive)
    1  A    between atoms: N_1  and  C_5
    2  A    between atoms: C_2  and  C_15
    3  A    between atoms: C_2  and  C_21
    4  A    between atoms: C_6  and  C_15
    5  A    between atoms: C_6  and  C_23
                            x       y       z     vdW  Elec       q    Type
                         _______ _______ _______ _____ _____    ______ ____

>  <TORSDO>
F 5

$$$$
=
 OpenBabel11052417273D

 25 27  0  0  1  0  0  0  0  0999 V2000
  188.2220  176.5680  146.5030 N   0  0  0  0  0  0  0  0  0  0  0  0
  189.2650  177.2020  145.6780 C   0  0  0  0  0  0  0  0  0  0  0  0
  189.7230  174.9150  147.2890 C   0  0  0  0  0  3  0  0  0  0  0  0
  190.6830  175.3070  146.3040 N   0  0  0  0  0  0  0  0  0  0  0  0
  191.4260  176.6390  144.4320 C   0  0  1  0  0  3  0  0  0  0  0  0
  192.8330  176.1500  144.4600 C   0  0  0  0  0  1  0  0  0  0  0  0
  188.7500  177.6430  144.3280 C   0  0  0  0  0  3  0  0  0  0  0  0
  188.5700  175.5070  147.3620 N   0  0  0  0  0  0  0  0  0  0  0  0
  190.9870  177.3250  143.3720 C   0  0  0  0  0  3  0  0  0  0  0  0
  189.5740  177.7630  143.2780 C   0  0  0  0  0  0  0  0  0  0  0  0
  190.4810  176.3210  145.5200 C   0  0  0  0  0  0  0  0  0  0  0  0
  186.9440  177.2080  146.6930 C   0  0  0  0  0  0  0  0  0  0  0  0
  184.4460  178.4550  147.0230 C   0  0  0  0  0  3  0  0  0  0  0  0
  186.8060  178.3120  147.5600 C   0  0  0  0  0  0  0  0  0  0  0  0
  185.5610  178.9290  147.7170 C   0  0  0  0  0  3  0  0  0  0  0  0
  184.5710  177.3610  146.1670 C   0  0  0  0  0  3  0  0  0  0  0  0
  187.8930  178.7930  148.2810 O   0  0  0  0  0  1  0  0  0  0  0  0
  185.8130  176.7420  146.0020 C   0  0  0  0  0  3  0  0  0  0  0  0
  189.0570  178.3070  141.9910 C   0  0  0  0  0  2  0  0  0  0  0  0
  187.8840  177.5110  141.5210 C   0  0  0  0  0  0  0  0  0  0  0  0
  186.7790  178.0300  141.4690 O   0  0  0  0  0  0  0  0  0  0  0  0
  188.0700  176.0730  141.1390 C   0  0  2  0  0  3  0  0  0  0  0  0
  187.5290  175.8280  139.8750 O   0  0  0  0  0  1  0  0  0  0  0  0
  188.4770  174.4270  142.8460 O   0  0  0  0  0  1  0  0  0  0  0  0
  187.4720  175.1250  142.1720 C   0  0  0  0  0  2  0  0  0  0  0  0
  1 12  1  0  0  0  0
  1  8  1  0  0  0  0
  2  1  1  0  0  0  0
  3  8  2  0  0  0  0
  4  3  1  0  0  0  0
  5  6  1  6  0  0  0
  5 11  1  0  0  0  0
  7  2  2  0  0  0  0
  9  5  1  0  0  0  0
 10  9  2  0  0  0  0
 10  7  1  0  0  0  0
 11  2  1  0  0  0  0
 11  4  2  0  0  0  0
 12 14  1  0  0  0  0
 13 15  1  0  0  0  0
 14 15  2  0  0  0  0
 14 17  1  0  0  0  0
 16 13  2  0  0  0  0
 18 16  1  0  0  0  0
 18 12  2  0  0  0  0
 19 10  1  0  0  0  0
 20 19  1  0  0  0  0
 21 20  2  0  0  0  0
 22 23  1  6  0  0  0
 22 20  1  0  0  0  0
 22 25  1  0  0  0  0
 25 24  1  0  0  0  0
M  END
>  <MODEL>
3

>  <REMARK>
 VINA RESULT:      -6.8      2.438      5.265
  Name = 
  5 active torsions:
  status: ('A' for Active; 'I' for Inactive)
    1  A    between atoms: N_1  and  C_5
    2  A    between atoms: C_2  and  C_15
    3  A    between atoms: C_2  and  C_21
    4  A    between atoms: C_6  and  C_15
    5  A    between atoms: C_6  and  C_23
                            x       y       z     vdW  Elec       q    Type
                         _______ _______ _______ _____ _____    ______ ____

>  <TORSDO>
F 5

$$$$
=
 OpenBabel11052417273D

 25 27  0  0  1  0  0  0  0  0999 V2000
  189.5770  176.8440  143.3620 N   0  0  0  0  0  0  0  0  0  0  0  0
  189.2950  176.0630  144.5780 C   0  0  2  0  0  3  0  0  0  0  0  0
  191.8790  177.0060  143.8900 C   0  0  0  0  0  3  0  0  0  0  0  0
  191.6200  176.5090  145.2060 N   0  0  0  0  0  0  0  0  0  0  0  0
  190.1610  175.7160  146.9590 C   0  0  0  0  0  0  0  0  0  0  0  0
  191.2580  175.3000  147.8780 C   0  0  0  0  0  1  0  0  0  0  0  0
  188.0020  176.4680  145.2430 C   0  0  0  0  0  3  0  0  0  0  0  0
  190.9110  177.1690  143.0420 N   0  0  0  0  0  0  0  0  0  0  0  0
  188.9090  175.7950  147.4200 C   0  0  0  0  0  3  0  0  0  0  0  0
  187.8060  176.2750  146.5550 C   0  0  0  0  0  0  0  0  0  0  0  0
  190.4370  176.1140  145.5650 C   0  0  0  0  0  0  0  0  0  0  0  0
  188.5730  177.0000  142.3390 C   0  0  0  0  0  0  0  0  0  0  0  0
  186.5890  177.3190  140.3720 C   0  0  0  0  0  3  0  0  0  0  0  0
  188.3230  175.9740  141.4040 C   0  0  0  0  0  0  0  0  0  0  0  0
  187.3330  176.1390  140.4300 C   0  0  0  0  0  3  0  0  0  0  0  0
  186.8320  178.3420  141.2900 C   0  0  0  0  0  3  0  0  0  0  0  0
  189.0610  174.7960  141.4220 O   0  0  0  0  0  1  0  0  0  0  0  0
  187.8170  178.1830  142.2680 C   0  0  0  0  0  3  0  0  0  0  0  0
  186.4790  176.5820  147.1580 C   0  0  0  0  0  2  0  0  0  0  0  0
  186.3060  178.0580  147.3170 C   0  0  0  0  0  0  0  0  0  0  0  0
  187.0880  178.6890  148.0120 O   0  0  0  0  0  0  0  0  0  0  0  0
  185.1600  178.7460  146.6390 C   0  0  2  0  0  3  0  0  0  0  0  0
  184.0410  177.9120  146.6010 O   0  0  0  0  0  1  0  0  0  0  0  0
  184.8660  178.4610  144.2680 O   0  0  0  0  0  1  0  0  0  0  0  0
  185.5260  179.2200  145.2370 C   0  0  0  0  0  2  0  0  0  0  0  0
  1  2  1  0  0  0  0
  2  7  1  1  0  0  0
  2 11  1  0  0  0  0
  3  4  1  0  0  0  0
  4 11  2  0  0  0  0
  5  9  2  0  0  0  0
  5  6  1  0  0  0  0
  7 10  2  0  0  0  0
  8  1  1  0  0  0  0
  8  3  2  0  0  0  0
 10 19  1  0  0  0  0
 10  9  1  0  0  0  0
 11  5  1  0  0  0  0
 12  1  1  0  0  0  0
 13 15  2  0  0  0  0
 13 16  1  0  0  0  0
 14 17  1  0  0  0  0
 14 12  2  0  0  0  0
 15 14  1  0  0  0  0
 16 18  2  0  0  0  0
 18 12  1  0  0  0  0
 19 20  1  0  0  0  0
 20 21  2  0  0  0  0
 22 23  1  6  0  0  0
 22 20  1  0  0  0  0
 24 25  1  0  0  0  0
 25 22  1  0  0  0  0
M  END
>  <MODEL>
4

>  <REMARK>
 VINA RESULT:      -6.7      1.699      4.981
  Name = 
  5 active torsions:
  status: ('A' for Active; 'I' for Inactive)
    1  A    between atoms: N_1  and  C_5
    2  A    between atoms: C_2  and  C_15
    3  A    between atoms: C_2  and  C_21
    4  A    between atoms: C_6  and  C_15
    5  A    between atoms: C_6  and  C_23
                            x       y       z     vdW  Elec       q    Type
                         _______ _______ _______ _____ _____    ______ ____

>  <TORSDO>
F 5

$$$$
=
 OpenBabel11052417273D

 25 27  0  0  1  0  0  0  0  0999 V2000
  189.6470  175.8890  145.1170 N   0  0  0  0  0  0  0  0  0  0  0  0
  188.2500  176.1210  145.5210 C   0  0  2  0  0  3  0  0  0  0  0  0
  190.4790  177.1390  146.9460 C   0  0  0  0  0  3  0  0  0  0  0  0
  189.1640  177.6310  147.2190 N   0  0  0  0  0  0  0  0  0  0  0  0
  186.8000  177.8210  146.7650 C   0  0  0  0  0  0  0  0  0  0  0  0
  186.4740  178.5550  148.0200 C   0  0  0  0  0  1  0  0  0  0  0  0
  187.3420  176.3960  144.3460 C   0  0  0  0  0  3  0  0  0  0  0  0
  190.6920  176.3340  145.9510 N   0  0  0  0  0  0  0  0  0  0  0  0
  185.8960  177.7600  145.7820 C   0  0  0  0  0  3  0  0  0  0  0  0
  186.2130  177.1020  144.4930 C   0  0  0  0  0  0  0  0  0  0  0  0
  188.1300  177.2180  146.5520 C   0  0  0  0  0  0  0  0  0  0  0  0
  189.9640  174.9470  144.0710 C   0  0  0  0  0  0  0  0  0  0  0  0
  190.5970  173.0870  142.0610 C   0  0  0  0  0  3  0  0  0  0  0  0
  190.5570  175.3740  142.8650 C   0  0  0  0  0  0  0  0  0  0  0  0
  190.8710  174.4430  141.8700 C   0  0  0  0  0  3  0  0  0  0  0  0
  190.0070  172.6550  143.2490 C   0  0  0  0  0  3  0  0  0  0  0  0
  190.8220  176.7190  142.6370 O   0  0  0  0  0  1  0  0  0  0  0  0
  189.6930  173.5800  144.2480 C   0  0  0  0  0  3  0  0  0  0  0  0
  185.2840  177.2590  143.3390 C   0  0  0  0  0  2  0  0  0  0  0  0
  185.6400  178.4730  142.5440 C   0  0  0  0  0  0  0  0  0  0  0  0
  185.8120  179.5410  143.1120 O   0  0  0  0  0  0  0  0  0  0  0  0
  185.7600  178.3730  141.0530 C   0  0  2  0  0  3  0  0  0  0  0  0
  184.5390  178.0010  140.4870 O   0  0  0  0  0  1  0  0  0  0  0  0
  188.0940  177.7970  141.1690 O   0  0  0  0  0  1  0  0  0  0  0  0
  186.8640  177.4090  140.6330 C   0  0  0  0  0  2  0  0  0  0  0  0
  1  2  1  0  0  0  0
  1  8  1  0  0  0  0
  2  7  1  6  0  0  0
  2 11  1  0  0  0  0
  3  4  1  0  0  0  0
  5  6  1  0  0  0  0
  7 10  2  0  0  0  0
  8  3  2  0  0  0  0
  9  5  2  0  0  0  0
 10  9  1  0  0  0  0
 11  5  1  0  0  0  0
 11  4  2  0  0  0  0
 12 18  1  0  0  0  0
 12  1  1  0  0  0  0
 13 16  1  0  0  0  0
 14 12  2  0  0  0  0
 15 13  2  0  0  0  0
 15 14  1  0  0  0  0
 16 18  2  0  0  0  0
 17 14  1  0  0  0  0
 19 10  1  0  0  0  0
 20 21  2  0  0  0  0
 20 19  1  0  0  0  0
 22 23  1  6  0  0  0
 22 20  1  0  0  0  0
 25 22  1  0  0  0  0
 25 24  1  0  0  0  0
M  END
>  <MODEL>
5

>  <REMARK>
 VINA RESULT:      -6.5      2.316      4.558
  Name = 
  5 active torsions:
  status: ('A' for Active; 'I' for Inactive)
    1  A    between atoms: N_1  and  C_5
    2  A    between atoms: C_2  and  C_15
    3  A    between atoms: C_2  and  C_21
    4  A    between atoms: C_6  and  C_15
    5  A    between atoms: C_6  and  C_23
                            x       y       z     vdW  Elec       q    Type
                         _______ _______ _______ _____ _____    ______ ____

>  <TORSDO>
F 5

$$$$
=
 OpenBabel11052417273D

 25 27  0  0  1  0  0  0  0  0999 V2000
  186.1980  177.4090  143.2090 N   0  0  0  0  0  0  0  0  0  0  0  0
  186.9790  176.1850  142.9560 C   0  0  0  0  0  0  0  0  0  0  0  0
  185.7720  177.7220  140.9020 C   0  0  0  0  0  3  0  0  0  0  0  0
  186.7420  176.7220  140.5780 N   0  0  0  0  0  0  0  0  0  0  0  0
  188.4290  175.0930  141.1560 C   0  0  1  0  0  3  0  0  0  0  0  0
  188.5640  174.5370  139.7800 C   0  0  0  0  0  1  0  0  0  0  0  0
  188.2100  176.0900  143.8260 C   0  0  0  0  0  3  0  0  0  0  0  0
  185.5370  178.0410  142.1370 N   0  0  0  0  0  0  0  0  0  0  0  0
  189.3410  174.7860  142.0840 C   0  0  0  0  0  3  0  0  0  0  0  0
  189.2770  175.3790  143.4400 C   0  0  0  0  0  0  0  0  0  0  0  0
  187.3460  176.0350  141.4990 C   0  0  0  0  0  0  0  0  0  0  0  0
  185.8320  177.7830  144.5530 C   0  0  0  0  0  0  0  0  0  0  0  0
  185.0890  178.4850  147.1720 C   0  0  0  0  0  3  0  0  0  0  0  0
  185.6930  179.1390  144.9160 C   0  0  0  0  0  0  0  0  0  0  0  0
  185.3200  179.4800  146.2210 C   0  0  0  0  0  3  0  0  0  0  0  0
  185.2290  177.1410  146.8230 C   0  0  0  0  0  3  0  0  0  0  0  0
  185.9370  180.1530  143.9980 O   0  0  0  0  0  1  0  0  0  0  0  0
  185.5970  176.7930  145.5210 C   0  0  0  0  0  3  0  0  0  0  0  0
  190.4300  175.2130  144.3690 C   0  0  0  0  0  2  0  0  0  0  0  0
  190.0460  174.3540  145.5300 C   0  0  0  0  0  0  0  0  0  0  0  0
  189.6920  173.2000  145.3400 O   0  0  0  0  0  0  0  0  0  0  0  0
  190.0770  174.9250  146.9160 C   0  0  2  0  0  3  0  0  0  0  0  0
  188.9410  174.5400  147.6300 O   0  0  0  0  0  1  0  0  0  0  0  0
  188.9700  177.0580  147.0340 O   0  0  0  0  0  1  0  0  0  0  0  0
  190.2170  176.4430  146.9050 C   0  0  0  0  0  2  0  0  0  0  0  0
  1 12  1  0  0  0  0
  2  1  1  0  0  0  0
  2  7  2  0  0  0  0
  3  8  2  0  0  0  0
  4  3  1  0  0  0  0
  4 11  2  0  0  0  0
  5  6  1  6  0  0  0
  5 11  1  0  0  0  0
  5  9  1  0  0  0  0
  8  1  1  0  0  0  0
  9 10  2  0  0  0  0
 10  7  1  0  0  0  0
 10 19  1  0  0  0  0
 11  2  1  0  0  0  0
 12 14  2  0  0  0  0
 12 18  1  0  0  0  0
 14 15  1  0  0  0  0
 15 13  2  0  0  0  0
 16 13  1  0  0  0  0
 17 14  1  0  0  0  0
 18 16  2  0  0  0  0
 19 20  1  0  0  0  0
 20 22  1  0  0  0  0
 21 20  2  0  0  0  0
 22 23  1  6  0  0  0
 25 22  1  0  0  0  0
 25 24  1  0  0  0  0
M  END
>  <MODEL>
6

>  <REMARK>
 VINA RESULT:      -6.5      2.002      4.987
  Name = 
  5 active torsions:
  status: ('A' for Active; 'I' for Inactive)
    1  A    between atoms: N_1  and  C_5
    2  A    between atoms: C_2  and  C_15
    3  A    between atoms: C_2  and  C_21
    4  A    between atoms: C_6  and  C_15
    5  A    between atoms: C_6  and  C_23
                            x       y       z     vdW  Elec       q    Type
                         _______ _______ _______ _____ _____    ______ ____

>  <TORSDO>
F 5

$$$$
=
 OpenBabel11052417273D

 25 27  0  0  1  0  0  0  0  0999 V2000
  187.4170  177.5040  146.7370 N   0  0  0  0  0  0  0  0  0  0  0  0
  186.6930  177.3480  145.4630 C   0  0  0  0  0  0  0  0  0  0  0  0
  185.6490  178.7550  147.6930 C   0  0  0  0  0  3  0  0  0  0  0  0
  185.0330  178.8810  146.4080 N   0  0  0  0  0  0  0  0  0  0  0  0
  184.9370  178.5220  144.0220 C   0  0  1  0  0  3  0  0  0  0  0  0
  183.5490  179.0390  143.8580 C   0  0  0  0  0  1  0  0  0  0  0  0
  187.5940  177.4940  144.2600 C   0  0  0  0  0  3  0  0  0  0  0  0
  186.7720  178.1180  147.8290 N   0  0  0  0  0  0  0  0  0  0  0  0
  185.7010  178.3270  142.9430 C   0  0  0  0  0  3  0  0  0  0  0  0
  187.1090  177.8840  143.0740 C   0  0  0  0  0  0  0  0  0  0  0  0
  185.5150  178.2870  145.3600 C   0  0  0  0  0  0  0  0  0  0  0  0
  188.6300  176.7660  146.9880 C   0  0  0  0  0  0  0  0  0  0  0  0
  190.9720  175.2960  147.4940 C   0  0  0  0  0  3  0  0  0  0  0  0
  189.7350  177.3770  147.6170 C   0  0  0  0  0  0  0  0  0  0  0  0
  190.8960  176.6390  147.8670 C   0  0  0  0  0  3  0  0  0  0  0  0
  189.8870  174.6830  146.8680 C   0  0  0  0  0  3  0  0  0  0  0  0
  189.6980  178.7180  147.9800 O   0  0  0  0  0  1  0  0  0  0  0  0
  188.7220  175.4140  146.6180 C   0  0  0  0  0  3  0  0  0  0  0  0
  188.0020  177.9090  141.8810 C   0  0  0  0  0  2  0  0  0  0  0  0
  187.7760  176.6980  141.0350 C   0  0  0  0  0  0  0  0  0  0  0  0
  187.0720  176.7770  140.0390 O   0  0  0  0  0  0  0  0  0  0  0  0
  188.3980  175.3920  141.4290 C   0  0  2  0  0  3  0  0  0  0  0  0
  189.6480  175.6030  142.0150 O   0  0  0  0  0  1  0  0  0  0  0  0
  188.2010  173.1290  140.6350 O   0  0  0  0  0  1  0  0  0  0  0  0
  188.5120  174.4350  140.2480 C   0  0  0  0  0  2  0  0  0  0  0  0
  1 12  1  0  0  0  0
  1  8  1  0  0  0  0
  2  1  1  0  0  0  0
  3  8  2  0  0  0  0
  4  3  1  0  0  0  0
  5  6  1  1  0  0  0
  5 11  1  0  0  0  0
  7  2  2  0  0  0  0
  9 10  2  0  0  0  0
  9  5  1  0  0  0  0
 10  7  1  0  0  0  0
 11  2  1  0  0  0  0
 11  4  2  0  0  0  0
 12 14  1  0  0  0  0
 13 15  1  0  0  0  0
 14 15  2  0  0  0  0
 14 17  1  0  0  0  0
 16 13  2  0  0  0  0
 18 16  1  0  0  0  0
 18 12  2  0  0  0  0
 19 10  1  0  0  0  0
 20 22  1  0  0  0  0
 20 19  1  0  0  0  0
 21 20  2  0  0  0  0
 22 23  1  6  0  0  0
 25 24  1  0  0  0  0
 25 22  1  0  0  0  0
M  END
>  <MODEL>
7

>  <REMARK>
 VINA RESULT:      -6.4      2.843      4.799
  Name = 
  5 active torsions:
  status: ('A' for Active; 'I' for Inactive)
    1  A    between atoms: N_1  and  C_5
    2  A    between atoms: C_2  and  C_15
    3  A    between atoms: C_2  and  C_21
    4  A    between atoms: C_6  and  C_15
    5  A    between atoms: C_6  and  C_23
                            x       y       z     vdW  Elec       q    Type
                         _______ _______ _______ _____ _____    ______ ____

>  <TORSDO>
F 5

$$$$
=
 OpenBabel11052417273D

 25 27  0  0  1  0  0  0  0  0999 V2000
  189.7560  176.3210  146.3230 N   0  0  0  0  0  0  0  0  0  0  0  0
  190.4850  175.4500  145.3860 C   0  0  0  0  0  0  0  0  0  0  0  0
  191.6920  176.6840  147.6350 C   0  0  0  0  0  3  0  0  0  0  0  0
  192.3720  175.6360  146.9370 N   0  0  0  0  0  0  0  0  0  0  0  0
  192.4900  173.8650  145.2990 C   0  0  1  0  0  3  0  0  0  0  0  0
  193.9570  173.6430  145.4390 C   0  0  0  0  0  1  0  0  0  0  0  0
  189.6770  174.2480  144.9590 C   0  0  0  0  0  3  0  0  0  0  0  0
  190.4640  176.9840  147.3450 N   0  0  0  0  0  0  0  0  0  0  0  0
  191.7460  172.9690  144.6440 C   0  0  0  0  0  3  0  0  0  0  0  0
  190.2750  173.1220  144.5490 C   0  0  0  0  0  0  0  0  0  0  0  0
  191.8260  175.0210  145.9330 C   0  0  0  0  0  0  0  0  0  0  0  0
  188.4140  176.7600  146.0270 C   0  0  0  0  0  0  0  0  0  0  0  0
  185.7860  177.5780  145.4590 C   0  0  0  0  0  3  0  0  0  0  0  0
  188.1390  177.5320  144.8790 C   0  0  0  0  0  0  0  0  0  0  0  0
  186.8290  177.9330  144.6020 C   0  0  0  0  0  3  0  0  0  0  0  0
  186.0470  176.8190  146.5990 C   0  0  0  0  0  3  0  0  0  0  0  0
  189.1600  177.9190  144.0190 O   0  0  0  0  0  1  0  0  0  0  0  0
  187.3540  176.4110  146.8810 C   0  0  0  0  0  3  0  0  0  0  0  0
  189.4520  171.9940  144.0280 C   0  0  0  0  0  2  0  0  0  0  0  0
  189.7660  171.7390  142.5900 C   0  0  0  0  0  0  0  0  0  0  0  0
  190.4880  170.8020  142.2840 O   0  0  0  0  0  0  0  0  0  0  0  0
  189.2090  172.6500  141.5380 C   0  0  2  0  0  3  0  0  0  0  0  0
  190.0780  173.7180  141.3050 O   0  0  0  0  0  1  0  0  0  0  0  0
  187.8090  174.5510  142.0070 O   0  0  0  0  0  1  0  0  0  0  0  0
  187.8180  173.1580  141.9000 C   0  0  0  0  0  2  0  0  0  0  0  0
  1  8  1  0  0  0  0
  2 11  1  0  0  0  0
  2  1  1  0  0  0  0
  4  3  1  0  0  0  0
  5  6  1  1  0  0  0
  5 11  1  0  0  0  0
  7  2  2  0  0  0  0
  8  3  2  0  0  0  0
  9  5  1  0  0  0  0
 10  9  2  0  0  0  0
 10  7  1  0  0  0  0
 11  4  2  0  0  0  0
 12  1  1  0  0  0  0
 12 18  1  0  0  0  0
 13 16  1  0  0  0  0
 14 12  2  0  0  0  0
 15 14  1  0  0  0  0
 15 13  2  0  0  0  0
 16 18  2  0  0  0  0
 17 14  1  0  0  0  0
 19 10  1  0  0  0  0
 20 19  1  0  0  0  0
 21 20  2  0  0  0  0
 22 23  1  1  0  0  0
 22 25  1  0  0  0  0
 22 20  1  0  0  0  0
 25 24  1  0  0  0  0
M  END
>  <MODEL>
8

>  <REMARK>
 VINA RESULT:      -6.3      2.993      6.531
  Name = 
  5 active torsions:
  status: ('A' for Active; 'I' for Inactive)
    1  A    between atoms: N_1  and  C_5
    2  A    between atoms: C_2  and  C_15
    3  A    between atoms: C_2  and  C_21
    4  A    between atoms: C_6  and  C_15
    5  A    between atoms: C_6  and  C_23
                            x       y       z     vdW  Elec       q    Type
                         _______ _______ _______ _____ _____    ______ ____

>  <TORSDO>
F 5

$$$$
=
 OpenBabel11052417273D

 25 27  0  0  1  0  0  0  0  0999 V2000
  186.3600  177.1950  143.0900 N   0  0  0  0  0  0  0  0  0  0  0  0
  187.1370  175.9480  142.9850 C   0  0  0  0  0  0  0  0  0  0  0  0
  186.2950  177.4590  140.7390 C   0  0  0  0  0  3  0  0  0  0  0  0
  187.2760  176.4290  140.5880 N   0  0  0  0  0  0  0  0  0  0  0  0
  188.8120  174.7770  141.4490 C   0  0  1  0  0  3  0  0  0  0  0  0
  189.1380  174.1830  140.1220 C   0  0  0  0  0  1  0  0  0  0  0  0
  188.2190  175.8480  144.0330 C   0  0  0  0  0  3  0  0  0  0  0  0
  185.8840  177.8150  141.9170 N   0  0  0  0  0  0  0  0  0  0  0  0
  189.5650  174.4730  142.5110 C   0  0  0  0  0  3  0  0  0  0  0  0
  189.3140  175.1020  143.8290 C   0  0  0  0  0  0  0  0  0  0  0  0
  187.7150  175.7520  141.6050 C   0  0  0  0  0  0  0  0  0  0  0  0
  185.8050  177.6120  144.3540 C   0  0  0  0  0  0  0  0  0  0  0  0
  184.6970  178.3960  146.8160 C   0  0  0  0  0  3  0  0  0  0  0  0
  185.5720  178.9760  144.6310 C   0  0  0  0  0  0  0  0  0  0  0  0
  185.0180  179.3580  145.8570 C   0  0  0  0  0  3  0  0  0  0  0  0
  184.9280  177.0460  146.5550 C   0  0  0  0  0  3  0  0  0  0  0  0
  185.9010  179.9580  143.7040 O   0  0  0  0  0  1  0  0  0  0  0  0
  185.4780  176.6560  145.3310 C   0  0  0  0  0  3  0  0  0  0  0  0
  190.3080  174.9330  144.9260 C   0  0  0  0  0  2  0  0  0  0  0  0
  190.9570  176.2400  145.2480 C   0  0  0  0  0  0  0  0  0  0  0  0
  190.7410  176.7750  146.3250 O   0  0  0  0  0  0  0  0  0  0  0  0
  191.8490  176.8940  144.2360 C   0  0  2  0  0  3  0  0  0  0  0  0
  193.1340  177.0650  144.7550 O   0  0  0  0  0  1  0  0  0  0  0  0
  190.4580  178.0370  142.6400 O   0  0  0  0  0  1  0  0  0  0  0  0
  191.2840  178.2240  143.7500 C   0  0  0  0  0  2  0  0  0  0  0  0
  1 12  1  0  0  0  0
  2  1  1  0  0  0  0
  2  7  2  0  0  0  0
  3  8  2  0  0  0  0
  4  3  1  0  0  0  0
  4 11  2  0  0  0  0
  5  6  1  6  0  0  0
  5 11  1  0  0  0  0
  5  9  1  0  0  0  0
  8  1  1  0  0  0  0
  9 10  2  0  0  0  0
 10  7  1  0  0  0  0
 10 19  1  0  0  0  0
 11  2  1  0  0  0  0
 12 14  2  0  0  0  0
 12 18  1  0  0  0  0
 14 15  1  0  0  0  0
 15 13  2  0  0  0  0
 16 13  1  0  0  0  0
 17 14  1  0  0  0  0
 18 16  2  0  0  0  0
 19 20  1  0  0  0  0
 20 21  2  0  0  0  0
 22 23  1  1  0  0  0
 22 20  1  0  0  0  0
 24 25  1  0  0  0  0
 25 22  1  0  0  0  0
M  END
>  <MODEL>
9

>  <REMARK>
 VINA RESULT:      -6.2      2.041      5.441
  Name = 
  5 active torsions:
  status: ('A' for Active; 'I' for Inactive)
    1  A    between atoms: N_1  and  C_5
    2  A    between atoms: C_2  and  C_15
    3  A    between atoms: C_2  and  C_21
    4  A    between atoms: C_6  and  C_15
    5  A    between atoms: C_6  and  C_23
                            x       y       z     vdW  Elec       q    Type
                         _______ _______ _______ _____ _____    ______ ____

>  <TORSDO>
F 5

$$$$
