=
 OpenBabel11052418193D

 27 31  0  0  1  0  0  0  0  0999 V2000
  188.1020  176.0340  143.2870 N   0  0  0  0  0  2  0  0  0  0  0  0
  190.1070  174.7260  143.7550 C   0  0  0  0  0  0  0  0  0  0  0  0
  189.2450  175.4730  145.9290 N   0  0  0  0  0  2  0  0  0  0  0  0
  193.6620  175.6330  144.9480 N   0  0  0  0  0  0  0  0  0  0  0  0
  194.1480  177.0920  146.9170 N   0  0  0  0  0  1  0  0  0  0  0  0
  191.2260  174.3480  142.9150 N   0  0  0  0  0  0  0  0  0  0  0  0
  192.1530  175.7250  146.6540 C   0  0  0  0  0  0  0  0  0  0  0  0
  186.5760  177.7300  146.6750 C   0  0  0  0  0  3  0  0  0  0  0  0
  191.5460  176.0530  147.9770 C   0  0  0  0  0  1  0  0  0  0  0  0
  186.2980  178.2640  145.4190 C   0  0  0  0  0  0  0  0  0  0  0  0
  191.6410  174.7100  145.6850 C   0  0  2  0  0  3  0  0  0  0  0  0
  188.7230  174.7220  143.1950 C   0  0  2  0  0  3  0  0  0  0  0  0
  193.3300  176.1540  146.2240 C   0  0  0  0  0  0  0  0  0  0  0  0
  192.7070  174.8140  144.6500 C   0  0  0  0  0  0  0  0  0  0  0  0
  187.7960  176.6490  144.3900 C   0  0  0  0  0  0  0  0  0  0  0  0
  190.3010  175.0240  145.0590 C   0  0  1  0  0  3  0  0  0  0  0  0
  187.5210  176.7120  146.8030 C   0  0  0  0  0  3  0  0  0  0  0  0
  192.4380  174.4140  143.3130 N   0  0  0  0  0  2  0  0  0  0  0  0
  185.3210  179.3760  145.2820 C   0  0  0  0  0  1  0  0  0  0  0  0
  186.8930  177.7150  144.2840 C   0  0  0  0  0  3  0  0  0  0  0  0
  188.1870  176.1970  145.6850 C   0  0  0  0  0  0  0  0  0  0  0  0
  188.4320  173.2490  139.1650 C   0  0  0  0  0  3  0  0  0  0  0  0
  188.6390  174.1970  141.7930 C   0  0  0  0  0  0  0  0  0  0  0  0
  188.8470  172.8370  141.5140 C   0  0  0  0  0  3  0  0  0  0  0  0
  188.7450  172.3660  140.2010 C   0  0  0  0  0  3  0  0  0  0  0  0
  188.2190  174.6030  139.4390 C   0  0  0  0  0  3  0  0  0  0  0  0
  188.3200  175.0750  140.7510 C   0  0  0  0  0  3  0  0  0  0  0  0
  1 15  1  0  0  0  0
  4 13  1  0  0  0  0
  6 18  1  0  0  0  0
  6  2  2  0  0  0  0
  7  9  1  0  0  0  0
  8 17  1  0  0  0  0
 10  8  2  0  0  0  0
 11 14  1  6  0  0  0
 11  7  1  0  0  0  0
 12 23  1  6  0  0  0
 12  1  1  0  0  0  0
 12  2  1  0  0  0  0
 13  7  2  0  0  0  0
 13  5  1  0  0  0  0
 14  4  2  0  0  0  0
 15 21  1  0  0  0  0
 16  2  1  1  0  0  0
 16 11  1  0  0  0  0
 16  3  1  0  0  0  0
 18 14  1  0  0  0  0
 19 10  1  0  0  0  0
 20 15  2  0  0  0  0
 20 10  1  0  0  0  0
 21  3  1  0  0  0  0
 21 17  2  0  0  0  0
 22 26  2  0  0  0  0
 22 25  1  0  0  0  0
 24 23  1  0  0  0  0
 25 24  2  0  0  0  0
 26 27  1  0  0  0  0
 27 23  2  0  0  0  0
M  END
>  <MODEL>
1

>  <REMARK>
 VINA RESULT:      -8.0      0.000      0.000
  Name = 
  1 active torsions:
  status: ('A' for Active; 'I' for Inactive)
    1  A    between atoms: C_9  and  C_15
                            x       y       z     vdW  Elec       q    Type
                         _______ _______ _______ _____ _____    ______ ____

>  <TORSDO>
F 1

$$$$
=
 OpenBabel11052418193D

 27 31  0  0  1  0  0  0  0  0999 V2000
  189.6460  176.8040  145.3670 N   0  0  0  0  0  2  0  0  0  0  0  0
  188.2480  175.5150  143.8390 C   0  0  0  0  0  0  0  0  0  0  0  0
  190.2120  174.1230  144.3200 N   0  0  0  0  0  2  0  0  0  0  0  0
  188.5660  174.5340  140.1210 N   0  0  0  0  0  0  0  0  0  0  0  0
  190.6140  173.5180  139.1130 N   0  0  0  0  0  1  0  0  0  0  0  0
  187.1900  175.9180  142.9340 N   0  0  0  0  0  0  0  0  0  0  0  0
  189.9470  173.2910  141.4410 C   0  0  0  0  0  0  0  0  0  0  0  0
  193.1910  174.9210  146.1270 C   0  0  0  0  0  3  0  0  0  0  0  0
  191.0640  172.3900  141.8500 C   0  0  0  0  0  1  0  0  0  0  0  0
  193.0620  176.2980  146.2900 C   0  0  0  0  0  0  0  0  0  0  0  0
  188.7790  173.6740  142.2880 C   0  0  2  0  0  3  0  0  0  0  0  0
  188.3580  176.1550  145.1840 C   0  0  2  0  0  3  0  0  0  0  0  0
  189.7360  173.7380  140.2130 C   0  0  0  0  0  0  0  0  0  0  0  0
  188.0260  174.4910  141.2950 C   0  0  0  0  0  0  0  0  0  0  0  0
  190.7960  176.2000  145.4140 C   0  0  0  0  0  0  0  0  0  0  0  0
  189.1000  174.5230  143.4970 C   0  0  1  0  0  3  0  0  0  0  0  0
  192.1600  174.1920  145.5330 C   0  0  0  0  0  3  0  0  0  0  0  0
  187.0970  175.4700  141.7420 N   0  0  0  0  0  2  0  0  0  0  0  0
  194.1740  177.0840  146.8850 C   0  0  0  0  0  1  0  0  0  0  0  0
  191.8660  176.9280  145.9500 C   0  0  0  0  0  3  0  0  0  0  0  0
  190.9790  174.8170  145.1160 C   0  0  0  0  0  0  0  0  0  0  0  0
  185.1140  178.8320  146.0840 C   0  0  0  0  0  3  0  0  0  0  0  0
  187.2410  177.1050  145.4960 C   0  0  0  0  0  0  0  0  0  0  0  0
  187.0640  178.2850  144.7570 C   0  0  0  0  0  3  0  0  0  0  0  0
  186.0040  179.1470  145.0530 C   0  0  0  0  0  3  0  0  0  0  0  0
  185.2840  177.6540  146.8190 C   0  0  0  0  0  3  0  0  0  0  0  0
  186.3440  176.7910  146.5230 C   0  0  0  0  0  3  0  0  0  0  0  0
  1 15  1  0  0  0  0
  2 12  1  0  0  0  0
  3 21  1  0  0  0  0
  4 13  1  0  0  0  0
  4 14  2  0  0  0  0
  5 13  1  0  0  0  0
  6  2  2  0  0  0  0
  7  9  1  0  0  0  0
  7 11  1  0  0  0  0
  8 10  1  0  0  0  0
 10 19  1  0  0  0  0
 11 14  1  6  0  0  0
 11 16  1  0  0  0  0
 12  1  1  0  0  0  0
 12 23  1  6  0  0  0
 13  7  2  0  0  0  0
 14 18  1  0  0  0  0
 15 20  1  0  0  0  0
 16  2  1  1  0  0  0
 16  3  1  0  0  0  0
 17  8  2  0  0  0  0
 18  6  1  0  0  0  0
 20 10  2  0  0  0  0
 21 15  2  0  0  0  0
 21 17  1  0  0  0  0
 22 26  1  0  0  0  0
 23 27  1  0  0  0  0
 24 25  1  0  0  0  0
 24 23  2  0  0  0  0
 25 22  2  0  0  0  0
 27 26  2  0  0  0  0
M  END
>  <MODEL>
2

>  <REMARK>
 VINA RESULT:      -7.8      1.699      6.165
  Name = 
  1 active torsions:
  status: ('A' for Active; 'I' for Inactive)
    1  A    between atoms: C_9  and  C_15
                            x       y       z     vdW  Elec       q    Type
                         _______ _______ _______ _____ _____    ______ ____

>  <TORSDO>
F 1

$$$$
=
 OpenBabel11052418193D

 27 31  0  0  1  0  0  0  0  0999 V2000
  188.2380  175.9510  143.1480 N   0  0  0  0  0  2  0  0  0  0  0  0
  190.3910  174.8240  143.3570 C   0  0  0  0  0  0  0  0  0  0  0  0
  189.7390  175.4970  145.6260 N   0  0  0  0  0  2  0  0  0  0  0  0
  193.9730  176.0410  144.1160 N   0  0  0  0  0  0  0  0  0  0  0  0
  194.5660  177.5400  146.0240 N   0  0  0  0  0  1  0  0  0  0  0  0
  191.4270  174.5440  142.3830 N   0  0  0  0  0  0  0  0  0  0  0  0
  192.6810  176.0040  145.9940 C   0  0  0  0  0  0  0  0  0  0  0  0
  186.9950  177.5140  146.7120 C   0  0  0  0  0  3  0  0  0  0  0  0
  192.2140  176.2800  147.3830 C   0  0  0  0  0  1  0  0  0  0  0  0
  186.5200  178.0190  145.5040 C   0  0  0  0  0  0  0  0  0  0  0  0
  192.1440  174.9460  145.0860 C   0  0  2  0  0  3  0  0  0  0  0  0
  188.9550  174.6990  142.9700 C   0  0  2  0  0  3  0  0  0  0  0  0
  193.7550  176.5330  145.4280 C   0  0  0  0  0  0  0  0  0  0  0  0
  193.0630  175.1410  143.9290 C   0  0  0  0  0  0  0  0  0  0  0  0
  188.0160  176.5390  144.2850 C   0  0  0  0  0  0  0  0  0  0  0  0
  190.7160  175.1410  144.6310 C   0  0  1  0  0  3  0  0  0  0  0  0
  188.0340  176.5830  146.7150 C   0  0  0  0  0  3  0  0  0  0  0  0
  192.6680  174.7160  142.6310 N   0  0  0  0  0  2  0  0  0  0  0  0
  185.4410  179.0410  145.4960 C   0  0  0  0  0  1  0  0  0  0  0  0
  187.0180  177.5220  144.3000 C   0  0  0  0  0  3  0  0  0  0  0  0
  188.6000  176.1250  145.5190 C   0  0  0  0  0  0  0  0  0  0  0  0
  188.4080  173.1350  139.0000 C   0  0  0  0  0  3  0  0  0  0  0  0
  188.7460  174.1650  141.5840 C   0  0  0  0  0  0  0  0  0  0  0  0
  188.3620  175.0100  140.5310 C   0  0  0  0  0  3  0  0  0  0  0  0
  188.1910  174.4940  139.2430 C   0  0  0  0  0  3  0  0  0  0  0  0
  188.7970  172.2910  140.0460 C   0  0  0  0  0  3  0  0  0  0  0  0
  188.9680  172.8060  141.3340 C   0  0  0  0  0  3  0  0  0  0  0  0
  1 15  1  0  0  0  0
  4 13  1  0  0  0  0
  6 18  1  0  0  0  0
  6  2  2  0  0  0  0
  7  9  1  0  0  0  0
  8 17  1  0  0  0  0
 10  8  2  0  0  0  0
 11 14  1  6  0  0  0
 11  7  1  0  0  0  0
 12 23  1  6  0  0  0
 12  1  1  0  0  0  0
 12  2  1  0  0  0  0
 13  7  2  0  0  0  0
 13  5  1  0  0  0  0
 14  4  2  0  0  0  0
 15 20  2  0  0  0  0
 15 21  1  0  0  0  0
 16  2  1  1  0  0  0
 16 11  1  0  0  0  0
 16  3  1  0  0  0  0
 18 14  1  0  0  0  0
 19 10  1  0  0  0  0
 20 10  1  0  0  0  0
 21  3  1  0  0  0  0
 21 17  2  0  0  0  0
 22 25  2  0  0  0  0
 22 26  1  0  0  0  0
 24 23  2  0  0  0  0
 25 24  1  0  0  0  0
 26 27  2  0  0  0  0
 27 23  1  0  0  0  0
M  END
>  <MODEL>
3

>  <REMARK>
 VINA RESULT:      -7.8      0.583      1.107
  Name = 
  1 active torsions:
  status: ('A' for Active; 'I' for Inactive)
    1  A    between atoms: C_9  and  C_15
                            x       y       z     vdW  Elec       q    Type
                         _______ _______ _______ _____ _____    ______ ____

>  <TORSDO>
F 1

$$$$
=
 OpenBabel11052418193D

 27 31  0  0  1  0  0  0  0  0999 V2000
  190.2930  176.5590  144.4890 N   0  0  0  0  0  2  0  0  0  0  0  0
  188.9360  174.7210  143.6340 C   0  0  0  0  0  0  0  0  0  0  0  0
  190.9160  173.6980  144.6610 N   0  0  0  0  0  2  0  0  0  0  0  0
  189.3160  172.2830  140.6690 N   0  0  0  0  0  0  0  0  0  0  0  0
  191.3930  170.9790  140.1870 N   0  0  0  0  0  1  0  0  0  0  0  0
  187.8830  174.6880  142.6390 N   0  0  0  0  0  0  0  0  0  0  0  0
  190.7020  171.7330  142.3940 C   0  0  0  0  0  0  0  0  0  0  0  0
  193.8590  175.2390  145.9820 C   0  0  0  0  0  3  0  0  0  0  0  0
  191.8280  171.1090  143.1470 C   0  0  0  0  0  1  0  0  0  0  0  0
  193.7050  176.5550  145.5540 C   0  0  0  0  0  0  0  0  0  0  0  0
  189.5170  172.4120  142.9980 C   0  0  2  0  0  3  0  0  0  0  0  0
  189.0190  175.8670  144.5880 C   0  0  2  0  0  3  0  0  0  0  0  0
  190.4980  171.6210  141.0910 C   0  0  0  0  0  0  0  0  0  0  0  0
  188.7630  172.7230  141.7510 C   0  0  0  0  0  0  0  0  0  0  0  0
  191.4530  176.0540  144.7890 C   0  0  0  0  0  0  0  0  0  0  0  0
  189.8080  173.6950  143.7420 C   0  0  1  0  0  3  0  0  0  0  0  0
  192.8470  174.3080  145.7430 C   0  0  0  0  0  3  0  0  0  0  0  0
  187.8120  173.7800  141.7430 N   0  0  0  0  0  2  0  0  0  0  0  0
  194.7970  177.5400  145.7700 C   0  0  0  0  0  1  0  0  0  0  0  0
  192.5030  176.9610  144.9760 C   0  0  0  0  0  3  0  0  0  0  0  0
  191.6620  174.6770  145.0970 C   0  0  0  0  0  0  0  0  0  0  0  0
  185.7180  178.6050  144.2600 C   0  0  0  0  0  3  0  0  0  0  0  0
  187.8820  176.8370  144.4690 C   0  0  0  0  0  0  0  0  0  0  0  0
  187.8300  177.7690  143.4210 C   0  0  0  0  0  3  0  0  0  0  0  0
  186.7500  178.6520  143.3190 C   0  0  0  0  0  3  0  0  0  0  0  0
  185.7640  177.6740  145.3030 C   0  0  0  0  0  3  0  0  0  0  0  0
  186.8420  176.7910  145.4050 C   0  0  0  0  0  3  0  0  0  0  0  0
  1 12  1  0  0  0  0
  1 15  1  0  0  0  0
  2 12  1  0  0  0  0
  3 21  1  0  0  0  0
  4 13  1  0  0  0  0
  4 14  2  0  0  0  0
  5 13  1  0  0  0  0
  6  2  2  0  0  0  0
  7 11  1  0  0  0  0
  7  9  1  0  0  0  0
 10 19  1  0  0  0  0
 10  8  2  0  0  0  0
 11 14  1  6  0  0  0
 11 16  1  0  0  0  0
 12 23  1  6  0  0  0
 13  7  2  0  0  0  0
 15 20  2  0  0  0  0
 15 21  1  0  0  0  0
 16  2  1  1  0  0  0
 16  3  1  0  0  0  0
 17  8  1  0  0  0  0
 18 14  1  0  0  0  0
 18  6  1  0  0  0  0
 20 10  1  0  0  0  0
 21 17  2  0  0  0  0
 22 26  1  0  0  0  0
 23 27  1  0  0  0  0
 24 23  2  0  0  0  0
 25 24  1  0  0  0  0
 25 22  2  0  0  0  0
 26 27  2  0  0  0  0
M  END
>  <MODEL>
4

>  <REMARK>
 VINA RESULT:      -7.5      1.971      5.850
  Name = 
  1 active torsions:
  status: ('A' for Active; 'I' for Inactive)
    1  A    between atoms: C_9  and  C_15
                            x       y       z     vdW  Elec       q    Type
                         _______ _______ _______ _____ _____    ______ ____

>  <TORSDO>
F 1

$$$$
=
 OpenBabel11052418193D

 27 31  0  0  1  0  0  0  0  0999 V2000
  188.5770  177.1640  145.3510 N   0  0  0  0  0  2  0  0  0  0  0  0
  188.1750  175.6670  143.4670 C   0  0  0  0  0  0  0  0  0  0  0  0
  189.5240  174.4020  145.0810 N   0  0  0  0  0  2  0  0  0  0  0  0
  190.4060  174.2820  140.6420 N   0  0  0  0  0  0  0  0  0  0  0  0
  192.6390  173.2240  141.0130 N   0  0  0  0  0  1  0  0  0  0  0  0
  187.7830  175.9310  142.0970 N   0  0  0  0  0  0  0  0  0  0  0  0
  190.8190  173.2410  142.6270 C   0  0  0  0  0  0  0  0  0  0  0  0
  191.0920  175.4940  148.1020 C   0  0  0  0  0  3  0  0  0  0  0  0
  191.5100  172.4280  143.6700 C   0  0  0  0  0  1  0  0  0  0  0  0
  190.9420  176.8760  148.0150 C   0  0  0  0  0  0  0  0  0  0  0  0
  189.3930  173.6800  142.6640 C   0  0  2  0  0  3  0  0  0  0  0  0
  187.5670  176.4580  144.5790 C   0  0  2  0  0  3  0  0  0  0  0  0
  191.3160  173.5390  141.4360 C   0  0  0  0  0  0  0  0  0  0  0  0
  189.3190  174.3540  141.3380 C   0  0  0  0  0  0  0  0  0  0  0  0
  189.5000  176.6070  146.0760 C   0  0  0  0  0  0  0  0  0  0  0  0
  189.0430  174.6700  143.7510 C   0  0  1  0  0  3  0  0  0  0  0  0
  190.5160  174.6700  147.1340 C   0  0  0  0  0  3  0  0  0  0  0  0
  188.3300  175.3470  141.1010 N   0  0  0  0  0  2  0  0  0  0  0  0
  191.5870  177.7600  149.0210 C   0  0  0  0  0  1  0  0  0  0  0  0
  190.1380  177.4250  147.0170 C   0  0  0  0  0  3  0  0  0  0  0  0
  189.7670  175.2060  146.0810 C   0  0  0  0  0  0  0  0  0  0  0  0
  184.4730  179.1830  143.3550 C   0  0  0  0  0  3  0  0  0  0  0  0
  186.4900  177.4010  144.1320 C   0  0  0  0  0  0  0  0  0  0  0  0
  185.4700  176.9780  143.2660 C   0  0  0  0  0  3  0  0  0  0  0  0
  184.4640  177.8700  142.8780 C   0  0  0  0  0  3  0  0  0  0  0  0
  185.4860  179.6060  144.2220 C   0  0  0  0  0  3  0  0  0  0  0  0
  186.4900  178.7150  144.6110 C   0  0  0  0  0  3  0  0  0  0  0  0
  1 15  1  0  0  0  0
  2 12  1  0  0  0  0
  3 21  1  0  0  0  0
  4 14  2  0  0  0  0
  4 13  1  0  0  0  0
  5 13  1  0  0  0  0
  6  2  2  0  0  0  0
  7 11  1  0  0  0  0
  7  9  1  0  0  0  0
 10  8  1  0  0  0  0
 10 19  1  0  0  0  0
 11 14  1  6  0  0  0
 11 16  1  0  0  0  0
 12 23  1  6  0  0  0
 12  1  1  0  0  0  0
 13  7  2  0  0  0  0
 15 21  2  0  0  0  0
 15 20  1  0  0  0  0
 16  2  1  1  0  0  0
 16  3  1  0  0  0  0
 17  8  2  0  0  0  0
 18 14  1  0  0  0  0
 18  6  1  0  0  0  0
 20 10  2  0  0  0  0
 21 17  1  0  0  0  0
 22 26  1  0  0  0  0
 23 27  1  0  0  0  0
 24 23  2  0  0  0  0
 25 24  1  0  0  0  0
 25 22  2  0  0  0  0
 26 27  2  0  0  0  0
M  END
>  <MODEL>
5

>  <REMARK>
 VINA RESULT:      -7.3      2.192      5.047
  Name = 
  1 active torsions:
  status: ('A' for Active; 'I' for Inactive)
    1  A    between atoms: C_9  and  C_15
                            x       y       z     vdW  Elec       q    Type
                         _______ _______ _______ _____ _____    ______ ____

>  <TORSDO>
F 1

$$$$
=
 OpenBabel11052418193D

 27 31  0  0  1  0  0  0  0  0999 V2000
  189.0460  175.1110  142.9020 N   0  0  0  0  0  2  0  0  0  0  0  0
  191.1410  174.1750  143.7290 C   0  0  0  0  0  0  0  0  0  0  0  0
  190.0010  175.1460  145.6740 N   0  0  0  0  0  2  0  0  0  0  0  0
  194.4390  175.7280  144.9910 N   0  0  0  0  0  0  0  0  0  0  0  0
  194.5660  177.5410  146.7060 N   0  0  0  0  0  1  0  0  0  0  0  0
  192.3680  173.8160  143.0470 N   0  0  0  0  0  0  0  0  0  0  0  0
  192.7800  175.8970  146.5460 C   0  0  0  0  0  0  0  0  0  0  0  0
  187.0250  177.1210  145.8280 C   0  0  0  0  0  3  0  0  0  0  0  0
  192.0200  176.3530  147.7460 C   0  0  0  0  0  1  0  0  0  0  0  0
  186.8020  177.4010  144.4820 C   0  0  0  0  0  0  0  0  0  0  0  0
  192.4820  174.6790  145.7350 C   0  0  2  0  0  3  0  0  0  0  0  0
  189.8240  173.8970  143.0820 C   0  0  2  0  0  3  0  0  0  0  0  0
  193.9320  176.4020  146.1320 C   0  0  0  0  0  0  0  0  0  0  0  0
  193.6190  174.7520  144.7740 C   0  0  0  0  0  0  0  0  0  0  0  0
  188.5690  175.8530  143.8570 C   0  0  0  0  0  0  0  0  0  0  0  0
  191.1780  174.7050  144.9720 C   0  0  1  0  0  3  0  0  0  0  0  0
  188.0700  176.2720  146.1970 C   0  0  0  0  0  3  0  0  0  0  0  0
  193.5220  174.1060  143.5110 N   0  0  0  0  0  2  0  0  0  0  0  0
  185.7170  178.3360  144.0870 C   0  0  0  0  0  1  0  0  0  0  0  0
  187.5600  176.7570  143.5050 C   0  0  0  0  0  3  0  0  0  0  0  0
  188.8910  175.6740  145.2350 C   0  0  0  0  0  0  0  0  0  0  0  0
  190.1810  171.7040  139.4000 C   0  0  0  0  0  3  0  0  0  0  0  0
  189.9310  173.1420  141.7910 C   0  0  0  0  0  0  0  0  0  0  0  0
  189.7860  173.7940  140.5560 C   0  0  0  0  0  3  0  0  0  0  0  0
  189.9090  173.0740  139.3630 C   0  0  0  0  0  3  0  0  0  0  0  0
  190.3320  171.0530  140.6280 C   0  0  0  0  0  3  0  0  0  0  0  0
  190.2100  171.7720  141.8210 C   0  0  0  0  0  3  0  0  0  0  0  0
  1 12  1  0  0  0  0
  1 15  1  0  0  0  0
  4 13  1  0  0  0  0
  6 18  1  0  0  0  0
  6  2  2  0  0  0  0
  7  9  1  0  0  0  0
  8 17  1  0  0  0  0
 10  8  2  0  0  0  0
 11 14  1  6  0  0  0
 11  7  1  0  0  0  0
 12 23  1  6  0  0  0
 12  2  1  0  0  0  0
 13  7  2  0  0  0  0
 13  5  1  0  0  0  0
 14  4  2  0  0  0  0
 15 21  1  0  0  0  0
 16  2  1  1  0  0  0
 16  3  1  0  0  0  0
 16 11  1  0  0  0  0
 18 14  1  0  0  0  0
 19 10  1  0  0  0  0
 20 15  2  0  0  0  0
 20 10  1  0  0  0  0
 21  3  1  0  0  0  0
 21 17  2  0  0  0  0
 22 26  1  0  0  0  0
 23 27  1  0  0  0  0
 24 23  2  0  0  0  0
 25 22  2  0  0  0  0
 25 24  1  0  0  0  0
 26 27  2  0  0  0  0
M  END
>  <MODEL>
6

>  <REMARK>
 VINA RESULT:      -7.1      1.177      1.637
  Name = 
  1 active torsions:
  status: ('A' for Active; 'I' for Inactive)
    1  A    between atoms: C_9  and  C_15
                            x       y       z     vdW  Elec       q    Type
                         _______ _______ _______ _____ _____    ______ ____

>  <TORSDO>
F 1

$$$$
=
 OpenBabel11052418193D

 27 31  0  0  1  0  0  0  0  0999 V2000
  192.3510  174.2750  145.1910 N   0  0  0  0  0  2  0  0  0  0  0  0
  190.4760  173.2540  144.0100 C   0  0  0  0  0  0  0  0  0  0  0  0
  192.1670  171.4940  144.2780 N   0  0  0  0  0  2  0  0  0  0  0  0
  189.9400  172.0710  140.3780 N   0  0  0  0  0  0  0  0  0  0  0  0
  191.5310  170.5970  139.1370 N   0  0  0  0  0  1  0  0  0  0  0  0
  189.3830  173.8360  143.2580 N   0  0  0  0  0  0  0  0  0  0  0  0
  191.2450  170.6170  141.5520 C   0  0  0  0  0  0  0  0  0  0  0  0
  195.5120  171.7080  145.5180 C   0  0  0  0  0  3  0  0  0  0  0  0
  192.2070  169.5150  141.8470 C   0  0  0  0  0  1  0  0  0  0  0  0
  195.6980  173.0870  145.5930 C   0  0  0  0  0  0  0  0  0  0  0  0
  190.3440  171.2770  142.5430 C   0  0  2  0  0  3  0  0  0  0  0  0
  190.9450  173.9110  145.2670 C   0  0  2  0  0  3  0  0  0  0  0  0
  190.9200  171.0470  140.3430 C   0  0  0  0  0  0  0  0  0  0  0  0
  189.6140  172.1940  141.6230 C   0  0  0  0  0  0  0  0  0  0  0  0
  193.3440  173.4410  145.1000 C   0  0  0  0  0  0  0  0  0  0  0  0
  191.0350  172.0880  143.6150 C   0  0  1  0  0  3  0  0  0  0  0  0
  194.2670  171.1940  145.1560 C   0  0  0  0  0  3  0  0  0  0  0  0
  188.9960  173.3680  142.1340 N   0  0  0  0  0  2  0  0  0  0  0  0
  197.0330  173.6400  145.9390 C   0  0  0  0  0  1  0  0  0  0  0  0
  194.6160  173.9440  145.4010 C   0  0  0  0  0  3  0  0  0  0  0  0
  193.1850  172.0400  144.8850 C   0  0  0  0  0  0  0  0  0  0  0  0
  188.6200  177.3280  146.4560 C   0  0  0  0  0  3  0  0  0  0  0  0
  190.1170  175.0910  145.6780 C   0  0  0  0  0  0  0  0  0  0  0  0
  189.0200  174.9410  146.5410 C   0  0  0  0  0  3  0  0  0  0  0  0
  188.2730  176.0590  146.9270 C   0  0  0  0  0  3  0  0  0  0  0  0
  189.7160  177.4810  145.6010 C   0  0  0  0  0  3  0  0  0  0  0  0
  190.4640  176.3650  145.2150 C   0  0  0  0  0  3  0  0  0  0  0  0
  1 12  1  0  0  0  0
  2 12  1  0  0  0  0
  3 21  1  0  0  0  0
  4 14  2  0  0  0  0
  5 13  1  0  0  0  0
  6  2  2  0  0  0  0
  7  9  1  0  0  0  0
  8 10  1  0  0  0  0
 10 19  1  0  0  0  0
 11  7  1  6  0  0  0
 11 16  1  0  0  0  0
 12 23  1  6  0  0  0
 13  4  1  0  0  0  0
 13  7  2  0  0  0  0
 14 18  1  0  0  0  0
 14 11  1  0  0  0  0
 15  1  1  0  0  0  0
 15 20  1  0  0  0  0
 16  2  1  1  0  0  0
 16  3  1  0  0  0  0
 17  8  2  0  0  0  0
 18  6  1  0  0  0  0
 20 10  2  0  0  0  0
 21 15  2  0  0  0  0
 21 17  1  0  0  0  0
 22 25  1  0  0  0  0
 23 24  1  0  0  0  0
 24 25  2  0  0  0  0
 26 22  2  0  0  0  0
 27 26  1  0  0  0  0
 27 23  2  0  0  0  0
M  END
>  <MODEL>
7

>  <REMARK>
 VINA RESULT:      -7.1      2.837      7.181
  Name = 
  1 active torsions:
  status: ('A' for Active; 'I' for Inactive)
    1  A    between atoms: C_9  and  C_15
                            x       y       z     vdW  Elec       q    Type
                         _______ _______ _______ _____ _____    ______ ____

>  <TORSDO>
F 1

$$$$
=
 OpenBabel11052418193D

 27 31  0  0  1  0  0  0  0  0999 V2000
  188.1430  175.9590  143.9160 N   0  0  0  0  0  2  0  0  0  0  0  0
  190.0120  174.6750  143.0160 C   0  0  0  0  0  0  0  0  0  0  0  0
  188.9620  175.8010  141.1040 N   0  0  0  0  0  2  0  0  0  0  0  0
  190.2620  171.4690  140.8850 N   0  0  0  0  0  0  0  0  0  0  0  0
  188.9780  171.0870  138.7750 N   0  0  0  0  0  1  0  0  0  0  0  0
  190.7550  173.5540  143.5560 N   0  0  0  0  0  0  0  0  0  0  0  0
  189.6380  173.2670  139.6300 C   0  0  0  0  0  0  0  0  0  0  0  0
  185.9440  177.7100  140.9520 C   0  0  0  0  0  3  0  0  0  0  0  0
  189.0920  174.0670  138.4960 C   0  0  0  0  0  1  0  0  0  0  0  0
  185.3870  177.4590  142.2040 C   0  0  0  0  0  0  0  0  0  0  0  0
  190.4620  173.7990  140.7570 C   0  0  2  0  0  3  0  0  0  0  0  0
  189.5860  175.7860  143.9180 C   0  0  2  0  0  3  0  0  0  0  0  0
  189.6240  171.9460  139.7110 C   0  0  0  0  0  0  0  0  0  0  0  0
  190.7390  172.5190  141.4690 C   0  0  0  0  0  0  0  0  0  0  0  0
  187.4290  176.3350  142.8970 C   0  0  0  0  0  0  0  0  0  0  0  0
  189.7530  174.7510  141.6920 C   0  0  0  0  0  0  0  0  0  0  0  0
  187.2080  177.2080  140.6400 C   0  0  0  0  0  3  0  0  0  0  0  0
  191.0710  172.5360  142.8510 N   0  0  0  0  0  0  0  0  0  0  0  0
  184.0250  177.9580  142.5260 C   0  0  0  0  0  1  0  0  0  0  0  0
  186.1330  176.7900  143.1730 C   0  0  0  0  0  3  0  0  0  0  0  0
  187.9430  176.4690  141.5740 C   0  0  0  0  0  0  0  0  0  0  0  0
  191.0010  175.4290  147.9640 C   0  0  0  0  0  3  0  0  0  0  0  0
  190.0990  175.6570  145.3220 C   0  0  0  0  0  0  0  0  0  0  0  0
  191.3440  176.1900  145.6910 C   0  0  0  0  0  3  0  0  0  0  0  0
  191.7930  176.0730  147.0100 C   0  0  0  0  0  3  0  0  0  0  0  0
  189.7580  174.9020  147.6010 C   0  0  0  0  0  3  0  0  0  0  0  0
  189.3070  175.0180  146.2820 C   0  0  0  0  0  3  0  0  0  0  0  0
  1 12  1  0  0  0  0
  2  6  1  0  0  0  0
  2 12  1  0  0  0  0
  3 21  1  0  0  0  0
  3 16  1  0  0  0  0
  4 14  2  0  0  0  0
  5 13  1  0  0  0  0
  7 13  2  0  0  0  0
  8 10  1  0  0  0  0
  9  7  1  0  0  0  0
 10 19  1  0  0  0  0
 10 20  2  0  0  0  0
 11  7  1  6  0  0  0
 11 14  1  0  0  0  0
 11 16  1  0  0  0  0
 12 23  1  1  0  0  0
 13  4  1  0  0  0  0
 14 18  1  0  0  0  0
 15 20  1  0  0  0  0
 15  1  1  0  0  0  0
 16  2  2  0  0  0  0
 17  8  2  0  0  0  0
 17 21  1  0  0  0  0
 18  6  2  0  0  0  0
 21 15  2  0  0  0  0
 23 24  2  0  0  0  0
 23 27  1  0  0  0  0
 24 25  1  0  0  0  0
 25 22  2  0  0  0  0
 26 22  1  0  0  0  0
 27 26  2  0  0  0  0
M  END
>  <MODEL>
8

>  <REMARK>
 VINA RESULT:      -7.1      2.226      5.863
  Name = 
  1 active torsions:
  status: ('A' for Active; 'I' for Inactive)
    1  A    between atoms: C_9  and  C_15
                            x       y       z     vdW  Elec       q    Type
                         _______ _______ _______ _____ _____    ______ ____

>  <TORSDO>
F 1

$$$$
=
 OpenBabel11052418193D

 27 31  0  0  1  0  0  0  0  0999 V2000
  190.0360  176.2590  143.7050 N   0  0  0  0  0  2  0  0  0  0  0  0
  189.0820  174.7450  142.0470 C   0  0  0  0  0  0  0  0  0  0  0  0
  190.7280  173.4370  143.3140 N   0  0  0  0  0  2  0  0  0  0  0  0
  190.4330  173.1520  138.8040 N   0  0  0  0  0  0  0  0  0  0  0  0
  192.6240  171.9620  138.6370 N   0  0  0  0  0  1  0  0  0  0  0  0
  188.3670  175.0000  140.8130 N   0  0  0  0  0  0  0  0  0  0  0  0
  191.2830  172.1350  140.6590 C   0  0  0  0  0  0  0  0  0  0  0  0
  193.0760  174.5000  145.7900 C   0  0  0  0  0  3  0  0  0  0  0  0
  192.1720  171.3060  141.5240 C   0  0  0  0  0  1  0  0  0  0  0  0
  192.9860  175.8860  145.6880 C   0  0  0  0  0  0  0  0  0  0  0  0
  189.9400  172.6650  141.0410 C   0  0  2  0  0  3  0  0  0  0  0  0
  188.8250  175.6000  143.2440 C   0  0  2  0  0  3  0  0  0  0  0  0
  191.4730  172.3710  139.3700 C   0  0  0  0  0  0  0  0  0  0  0  0
  189.5670  173.3100  139.7510 C   0  0  0  0  0  0  0  0  0  0  0  0
  191.0820  175.6620  144.1930 C   0  0  0  0  0  0  0  0  0  0  0  0
  189.9370  173.7020  142.1410 C   0  0  1  0  0  3  0  0  0  0  0  0
  192.2270  173.6910  145.0340 C   0  0  0  0  0  3  0  0  0  0  0  0
  188.6060  174.3580  139.7350 N   0  0  0  0  0  2  0  0  0  0  0  0
  193.9160  176.7510  146.4600 C   0  0  0  0  0  1  0  0  0  0  0  0
  191.9850  176.4600  144.9070 C   0  0  0  0  0  3  0  0  0  0  0  0
  191.2630  174.2480  144.1850 C   0  0  0  0  0  0  0  0  0  0  0  0
  185.6320  178.4220  142.6560 C   0  0  0  0  0  3  0  0  0  0  0  0
  187.7230  176.5990  143.0490 C   0  0  0  0  0  0  0  0  0  0  0  0
  187.9990  177.9110  142.6340 C   0  0  0  0  0  3  0  0  0  0  0  0
  186.9540  178.8200  142.4410 C   0  0  0  0  0  3  0  0  0  0  0  0
  185.3530  177.1130  143.0640 C   0  0  0  0  0  3  0  0  0  0  0  0
  186.3970  176.2040  143.2580 C   0  0  0  0  0  3  0  0  0  0  0  0
  1 15  1  0  0  0  0
  2 12  1  0  0  0  0
  3 21  1  0  0  0  0
  4 13  1  0  0  0  0
  4 14  2  0  0  0  0
  5 13  1  0  0  0  0
  6  2  2  0  0  0  0
  7 11  1  0  0  0  0
  7  9  1  0  0  0  0
 10  8  1  0  0  0  0
 10 19  1  0  0  0  0
 11 14  1  6  0  0  0
 11 16  1  0  0  0  0
 12 23  1  6  0  0  0
 12  1  1  0  0  0  0
 13  7  2  0  0  0  0
 15 20  1  0  0  0  0
 16  2  1  1  0  0  0
 16  3  1  0  0  0  0
 17  8  2  0  0  0  0
 18 14  1  0  0  0  0
 18  6  1  0  0  0  0
 20 10  2  0  0  0  0
 21 15  2  0  0  0  0
 21 17  1  0  0  0  0
 22 26  1  0  0  0  0
 23 27  1  0  0  0  0
 24 23  2  0  0  0  0
 25 24  1  0  0  0  0
 25 22  2  0  0  0  0
 26 27  2  0  0  0  0
M  END
>  <MODEL>
9

>  <REMARK>
 VINA RESULT:      -7.0      2.298      5.822
  Name = 
  1 active torsions:
  status: ('A' for Active; 'I' for Inactive)
    1  A    between atoms: C_9  and  C_15
                            x       y       z     vdW  Elec       q    Type
                         _______ _______ _______ _____ _____    ______ ____

>  <TORSDO>
F 1

$$$$
