=
 OpenBabel11052417453D

 31 34  0  0  1  0  0  0  0  0999 V2000
  185.0630  178.0920  146.7600 C   0  0  0  0  0  0  0  0  0  0  0  0
  187.3260  176.0500  144.4940 C   0  0  2  0  0  3  0  0  0  0  0  0
  187.2400  176.6890  143.1190 C   0  0  0  0  0  0  0  0  0  0  0  0
  185.6600  178.3040  142.1080 C   0  0  0  0  0  3  0  0  0  0  0  0
  186.8730  176.9360  145.6290 C   0  0  0  0  0  0  0  0  0  0  0  0
  185.9770  178.6580  147.6520 C   0  0  0  0  0  3  0  0  0  0  0  0
  186.8670  178.1340  142.9660 C   0  0  0  0  0  2  0  0  0  0  0  0
  189.7060  176.4970  145.2110 C   0  0  2  0  0  3  0  0  0  0  0  0
  183.6780  178.3940  146.8750 N   0  0  0  0  0  1  0  0  0  0  0  0
  188.2700  174.6140  142.3260 C   0  0  0  0  0  2  0  0  0  0  0  0
  185.6330  177.9460  140.8260 C   0  0  0  0  0  3  0  0  0  0  0  0
  189.2480  177.1290  146.5260 C   0  0  0  0  0  2  0  0  0  0  0  0
  188.7180  175.4210  144.7340 C   0  0  2  0  0  3  0  0  0  0  0  0
  185.5090  177.2340  145.7530 C   0  0  0  0  0  3  0  0  0  0  0  0
  186.7360  177.2670  140.1190 C   0  0  0  0  0  3  0  0  0  0  0  0
  187.7950  177.5090  146.5300 C   0  0  0  0  0  0  0  0  0  0  0  0
  187.3370  178.3590  147.5420 C   0  0  0  0  0  3  0  0  0  0  0  0
  189.2670  174.6910  143.4870 C   0  0  0  0  0  2  0  0  0  0  0  0
  187.6690  175.9640  142.0670 C   0  0  0  0  0  0  0  0  0  0  0  0
  187.6180  176.4180  140.6600 C   0  0  0  0  0  3  0  0  0  0  0  0
  193.6360  174.8910  145.9290 C   0  0  0  0  0  1  0  0  0  0  0  0
  194.3820  176.3460  142.6620 O   0  0  0  0  0  0  0  0  0  0  0  0
  191.9470  176.9590  143.4440 O   0  0  0  0  0  0  0  0  0  0  0  0
  192.1410  176.2260  144.4510 C   0  0  0  0  0  0  0  0  0  0  0  0
  194.5490  175.8190  143.7940 C   0  0  0  0  0  0  0  0  0  0  0  0
  193.4410  175.6590  144.7050 N   0  0  0  0  0  0  0  0  0  0  0  0
  191.0600  175.9640  145.3580 N   0  0  0  0  0  2  0  0  0  0  0  0
  195.9270  175.3690  144.1740 C   0  0  0  0  0  2  0  0  0  0  0  0
  196.7430  175.0170  142.9400 C   0  0  0  0  0  3  0  0  0  0  0  0
  197.2300  173.5870  143.0550 C   0  0  0  0  0  1  0  0  0  0  0  0
  197.9410  175.9390  142.8160 C   0  0  0  0  0  1  0  0  0  0  0  0
  1  9  1  0  0  0  0
  1  6  1  0  0  0  0
  2  3  1  6  0  0  0
  2 13  1  0  0  0  0
  2  5  1  0  0  0  0
  4  7  1  0  0  0  0
  5 14  1  0  0  0  0
  5 16  2  0  0  0  0
  7  3  1  0  0  0  0
  8 27  1  1  0  0  0
  8 12  1  0  0  0  0
 10 18  1  0  0  0  0
 11  4  2  0  0  0  0
 12 16  1  0  0  0  0
 13 18  1  6  0  0  0
 13  8  1  0  0  0  0
 14  1  2  0  0  0  0
 15 20  2  0  0  0  0
 15 11  1  0  0  0  0
 16 17  1  0  0  0  0
 17  6  2  0  0  0  0
 19 10  1  0  0  0  0
 19  3  2  0  0  0  0
 20 19  1  0  0  0  0
 22 25  2  0  0  0  0
 23 24  2  0  0  0  0
 24 26  1  0  0  0  0
 24 27  1  0  0  0  0
 25 28  1  0  0  0  0
 25 26  1  0  0  0  0
 26 21  1  0  0  0  0
 29 30  1  0  0  0  0
 29 28  1  0  0  0  0
 31 29  1  0  0  0  0
M  END
>  <MODEL>
1

>  <REMARK>
 VINA RESULT:      -8.3      0.000      0.000
  Name = 
  3 active torsions:
  status: ('A' for Active; 'I' for Inactive)
    1  A    between atoms: C_1  and  C_24
    2  A    between atoms: C_15  and  N_23
    3  A    between atoms: C_19  and  C_24
                            x       y       z     vdW  Elec       q    Type
                         _______ _______ _______ _____ _____    ______ ____

>  <TORSDO>
F 3

$$$$
=
 OpenBabel11052417453D

 31 34  0  0  1  0  0  0  0  0999 V2000
  185.5480  177.5250  146.6260 C   0  0  0  0  0  0  0  0  0  0  0  0
  187.5540  176.0770  143.7440 C   0  0  2  0  0  3  0  0  0  0  0  0
  187.1540  176.8630  142.5090 C   0  0  0  0  0  0  0  0  0  0  0  0
  185.2590  178.3780  142.0180 C   0  0  0  0  0  3  0  0  0  0  0  0
  187.2280  176.7530  145.0540 C   0  0  0  0  0  0  0  0  0  0  0  0
  186.5470  178.0870  147.4240 C   0  0  0  0  0  3  0  0  0  0  0  0
  186.6130  178.2580  142.6290 C   0  0  0  0  0  2  0  0  0  0  0  0
  189.9670  176.7270  144.1090 C   0  0  2  0  0  3  0  0  0  0  0  0
  184.1840  177.6330  147.0140 N   0  0  0  0  0  1  0  0  0  0  0  0
  188.2270  175.0470  141.2660 C   0  0  0  0  0  2  0  0  0  0  0  0
  185.0340  178.1800  140.7210 C   0  0  0  0  0  3  0  0  0  0  0  0
  189.6950  177.1310  145.5580 C   0  0  0  0  0  2  0  0  0  0  0  0
  189.0230  175.6020  143.6560 C   0  0  2  0  0  3  0  0  0  0  0  0
  185.8870  176.8590  145.4460 C   0  0  0  0  0  3  0  0  0  0  0  0
  186.0530  177.7370  139.7500 C   0  0  0  0  0  3  0  0  0  0  0  0
  188.2370  177.3220  145.8600 C   0  0  0  0  0  0  0  0  0  0  0  0
  187.8870  177.9770  147.0450 C   0  0  0  0  0  3  0  0  0  0  0  0
  189.4070  175.1060  142.2420 C   0  0  0  0  0  2  0  0  0  0  0  0
  187.4540  176.3320  141.3070 C   0  0  0  0  0  0  0  0  0  0  0  0
  187.1010  176.9460  140.0080 C   0  0  0  0  0  3  0  0  0  0  0  0
  194.1060  175.7840  143.3920 C   0  0  0  0  0  1  0  0  0  0  0  0
  193.5290  173.1960  145.9060 O   0  0  0  0  0  0  0  0  0  0  0  0
  191.3020  174.4650  145.3160 O   0  0  0  0  0  0  0  0  0  0  0  0
  191.9880  175.2170  144.5710 C   0  0  0  0  0  0  0  0  0  0  0  0
  194.0790  173.8550  144.9840 C   0  0  0  0  0  0  0  0  0  0  0  0
  193.3800  174.9360  144.3300 N   0  0  0  0  0  0  0  0  0  0  0  0
  191.3720  176.3550  143.9490 N   0  0  0  0  0  2  0  0  0  0  0  0
  195.4720  173.4850  144.5760 C   0  0  0  0  0  2  0  0  0  0  0  0
  196.1660  172.6910  145.6730 C   0  0  0  0  0  3  0  0  0  0  0  0
  197.1530  173.5890  146.3900 C   0  0  0  0  0  1  0  0  0  0  0  0
  196.9100  171.5090  145.0820 C   0  0  0  0  0  1  0  0  0  0  0  0
  1  9  1  0  0  0  0
  1  6  1  0  0  0  0
  2  3  1  6  0  0  0
  2  5  1  0  0  0  0
  3  7  1  0  0  0  0
  4  7  1  0  0  0  0
  5 14  1  0  0  0  0
  5 16  2  0  0  0  0
  8 27  1  1  0  0  0
  8 12  1  0  0  0  0
 10 19  1  0  0  0  0
 10 18  1  0  0  0  0
 11  4  2  0  0  0  0
 12 16  1  0  0  0  0
 13 18  1  6  0  0  0
 13  2  1  0  0  0  0
 13  8  1  0  0  0  0
 14  1  2  0  0  0  0
 15 20  2  0  0  0  0
 15 11  1  0  0  0  0
 16 17  1  0  0  0  0
 17  6  2  0  0  0  0
 19  3  2  0  0  0  0
 20 19  1  0  0  0  0
 21 26  1  0  0  0  0
 24 23  2  0  0  0  0
 25 22  2  0  0  0  0
 26 24  1  0  0  0  0
 26 25  1  0  0  0  0
 27 24  1  0  0  0  0
 28 25  1  0  0  0  0
 28 29  1  0  0  0  0
 29 30  1  0  0  0  0
 31 29  1  0  0  0  0
M  END
>  <MODEL>
2

>  <REMARK>
 VINA RESULT:      -8.3      1.624      1.950
  Name = 
  3 active torsions:
  status: ('A' for Active; 'I' for Inactive)
    1  A    between atoms: C_1  and  C_24
    2  A    between atoms: C_15  and  N_23
    3  A    between atoms: C_19  and  C_24
                            x       y       z     vdW  Elec       q    Type
                         _______ _______ _______ _____ _____    ______ ____

>  <TORSDO>
F 3

$$$$
=
 OpenBabel11052417453D

 31 34  0  0  1  0  0  0  0  0999 V2000
  194.6770  170.2440  144.2230 C   0  0  0  0  0  0  0  0  0  0  0  0
  193.9610  173.7470  145.5050 C   0  0  2  0  0  3  0  0  0  0  0  0
  194.7180  174.6980  144.5940 C   0  0  0  0  0  0  0  0  0  0  0  0
  196.5400  174.3620  142.9510 C   0  0  0  0  0  3  0  0  0  0  0  0
  193.7410  172.3680  144.9330 C   0  0  0  0  0  0  0  0  0  0  0  0
  193.4170  169.8320  143.7830 C   0  0  0  0  0  3  0  0  0  0  0  0
  195.0690  174.2980  143.1910 C   0  0  0  0  0  2  0  0  0  0  0  0
  191.5370  174.2480  145.0070 C   0  0  2  0  0  3  0  0  0  0  0  0
  195.7970  169.3790  144.0840 N   0  0  0  0  0  1  0  0  0  0  0  0
  194.3080  176.3610  146.3420 C   0  0  0  0  0  2  0  0  0  0  0  0
  197.2310  175.4980  143.0230 C   0  0  0  0  0  3  0  0  0  0  0  0
  191.2360  172.7760  144.7200 C   0  0  0  0  0  2  0  0  0  0  0  0
  192.6640  174.3970  146.0410 C   0  0  2  0  0  3  0  0  0  0  0  0
  194.8380  171.5080  144.7970 C   0  0  0  0  0  3  0  0  0  0  0  0
  196.6680  176.8000  143.4270 C   0  0  0  0  0  3  0  0  0  0  0  0
  192.4690  171.9510  144.4870 C   0  0  0  0  0  0  0  0  0  0  0  0
  192.3160  170.6800  143.9230 C   0  0  0  0  0  3  0  0  0  0  0  0
  192.8550  175.8820  146.4280 C   0  0  0  0  0  2  0  0  0  0  0  0
  194.9120  175.9570  145.0300 C   0  0  0  0  0  0  0  0  0  0  0  0
  195.6620  176.9950  144.2880 C   0  0  0  0  0  3  0  0  0  0  0  0
  187.9530  176.1080  146.5020 C   0  0  0  0  0  1  0  0  0  0  0  0
  187.5440  177.1700  143.0300 O   0  0  0  0  0  0  0  0  0  0  0  0
  189.6150  175.5720  143.3000 O   0  0  0  0  0  0  0  0  0  0  0  0
  189.3920  175.5750  144.5410 C   0  0  0  0  0  0  0  0  0  0  0  0
  187.2820  176.9360  144.2400 C   0  0  0  0  0  0  0  0  0  0  0  0
  188.2100  176.2080  145.0700 N   0  0  0  0  0  0  0  0  0  0  0  0
  190.3170  174.9330  145.4310 N   0  0  0  0  0  2  0  0  0  0  0  0
  185.9790  177.4260  144.7940 C   0  0  0  0  0  2  0  0  0  0  0  0
  186.0660  178.8990  145.1680 C   0  0  0  0  0  3  0  0  0  0  0  0
  185.5940  179.0800  146.5950 C   0  0  0  0  0  1  0  0  0  0  0  0
  185.1940  179.7310  144.2470 C   0  0  0  0  0  1  0  0  0  0  0  0
  1 14  1  0  0  0  0
  2  3  1  6  0  0  0
  2 13  1  0  0  0  0
  3 19  2  0  0  0  0
  4 11  2  0  0  0  0
  4  7  1  0  0  0  0
  5  2  1  0  0  0  0
  6 17  1  0  0  0  0
  6  1  2  0  0  0  0
  7  3  1  0  0  0  0
  8 27  1  1  0  0  0
  8 13  1  0  0  0  0
  9  1  1  0  0  0  0
 10 18  1  0  0  0  0
 11 15  1  0  0  0  0
 12  8  1  0  0  0  0
 13 18  1  6  0  0  0
 14  5  2  0  0  0  0
 15 20  2  0  0  0  0
 16 12  1  0  0  0  0
 16  5  1  0  0  0  0
 17 16  2  0  0  0  0
 19 10  1  0  0  0  0
 20 19  1  0  0  0  0
 22 25  2  0  0  0  0
 23 24  2  0  0  0  0
 24 26  1  0  0  0  0
 24 27  1  0  0  0  0
 25 28  1  0  0  0  0
 25 26  1  0  0  0  0
 26 21  1  0  0  0  0
 28 29  1  0  0  0  0
 29 30  1  0  0  0  0
 31 29  1  0  0  0  0
M  END
>  <MODEL>
3

>  <REMARK>
 VINA RESULT:      -8.0      2.762      9.013
  Name = 
  3 active torsions:
  status: ('A' for Active; 'I' for Inactive)
    1  A    between atoms: C_1  and  C_24
    2  A    between atoms: C_15  and  N_23
    3  A    between atoms: C_19  and  C_24
                            x       y       z     vdW  Elec       q    Type
                         _______ _______ _______ _____ _____    ______ ____

>  <TORSDO>
F 3

$$$$
=
 OpenBabel11052417453D

 31 34  0  0  1  0  0  0  0  0999 V2000
  186.2810  177.9870  147.0060 C   0  0  0  0  0  0  0  0  0  0  0  0
  189.0450  177.1940  144.5240 C   0  0  2  0  0  3  0  0  0  0  0  0
  189.9900  176.2380  145.2310 C   0  0  0  0  0  0  0  0  0  0  0  0
  190.2870  175.6140  147.6080 C   0  0  0  0  0  3  0  0  0  0  0  0
  187.6710  177.2910  145.1420 C   0  0  0  0  0  0  0  0  0  0  0  0
  185.1640  177.4150  146.3920 C   0  0  0  0  0  3  0  0  0  0  0  0
  189.5070  175.3750  146.3590 C   0  0  0  0  0  2  0  0  0  0  0  0
  188.0270  175.7800  142.6960 C   0  0  2  0  0  3  0  0  0  0  0  0
  186.1470  178.6280  148.2680 N   0  0  0  0  0  1  0  0  0  0  0  0
  191.5480  176.7810  143.4220 C   0  0  0  0  0  2  0  0  0  0  0  0
  191.5920  175.3650  147.6990 C   0  0  0  0  0  3  0  0  0  0  0  0
  186.6070  176.1310  143.1400 C   0  0  0  0  0  2  0  0  0  0  0  0
  189.0080  176.9230  143.0020 C   0  0  2  0  0  3  0  0  0  0  0  0
  187.5290  177.9260  146.3820 C   0  0  0  0  0  3  0  0  0  0  0  0
  192.4420  174.9150  146.5810 C   0  0  0  0  0  3  0  0  0  0  0  0
  186.5420  176.7120  144.5230 C   0  0  0  0  0  0  0  0  0  0  0  0
  185.2950  176.7880  145.1500 C   0  0  0  0  0  3  0  0  0  0  0  0
  190.4050  176.6140  142.4160 C   0  0  0  0  0  2  0  0  0  0  0  0
  191.2200  176.0760  144.7040 C   0  0  0  0  0  0  0  0  0  0  0  0
  192.2740  175.2180  145.2880 C   0  0  0  0  0  3  0  0  0  0  0  0
  187.8160  174.9160  138.4830 C   0  0  0  0  0  1  0  0  0  0  0  0
  189.9430  172.0820  139.3730 O   0  0  0  0  0  0  0  0  0  0  0  0
  189.1740  173.4050  141.5110 O   0  0  0  0  0  0  0  0  0  0  0  0
  188.6160  174.2300  140.7380 C   0  0  0  0  0  0  0  0  0  0  0  0
  189.1810  172.8330  138.7070 C   0  0  0  0  0  0  0  0  0  0  0  0
  188.5490  173.9760  139.3210 N   0  0  0  0  0  0  0  0  0  0  0  0
  188.0330  175.4260  141.2760 N   0  0  0  0  0  2  0  0  0  0  0  0
  188.9410  172.5070  137.2640 C   0  0  0  0  0  2  0  0  0  0  0  0
  190.2560  172.2770  136.5330 C   0  0  0  0  0  3  0  0  0  0  0  0
  190.8830  173.6150  136.2020 C   0  0  0  0  0  1  0  0  0  0  0  0
  190.0190  171.5080  135.2470 C   0  0  0  0  0  1  0  0  0  0  0  0
  1  9  1  0  0  0  0
  2  5  1  1  0  0  0
  2  3  1  0  0  0  0
  3  7  1  0  0  0  0
  4 11  2  0  0  0  0
  5 14  1  0  0  0  0
  6  1  1  0  0  0  0
  7  4  1  0  0  0  0
  8 27  1  6  0  0  0
  8 13  1  0  0  0  0
  8 12  1  0  0  0  0
 10 19  1  0  0  0  0
 12 16  1  0  0  0  0
 13 18  1  1  0  0  0
 13  2  1  0  0  0  0
 14  1  2  0  0  0  0
 15 11  1  0  0  0  0
 16  5  2  0  0  0  0
 16 17  1  0  0  0  0
 17  6  2  0  0  0  0
 18 10  1  0  0  0  0
 19  3  2  0  0  0  0
 19 20  1  0  0  0  0
 20 15  2  0  0  0  0
 21 26  1  0  0  0  0
 24 27  1  0  0  0  0
 24 23  2  0  0  0  0
 25 26  1  0  0  0  0
 25 22  2  0  0  0  0
 26 24  1  0  0  0  0
 28 25  1  0  0  0  0
 29 28  1  0  0  0  0
 30 29  1  0  0  0  0
 31 29  1  0  0  0  0
M  END
>  <MODEL>
4

>  <REMARK>
 VINA RESULT:      -7.9      3.506      6.196
  Name = 
  3 active torsions:
  status: ('A' for Active; 'I' for Inactive)
    1  A    between atoms: C_1  and  C_24
    2  A    between atoms: C_15  and  N_23
    3  A    between atoms: C_19  and  C_24
                            x       y       z     vdW  Elec       q    Type
                         _______ _______ _______ _____ _____    ______ ____

>  <TORSDO>
F 3

$$$$
=
 OpenBabel11052417453D

 31 34  0  0  1  0  0  0  0  0999 V2000
  186.1520  177.9260  140.8450 C   0  0  0  0  0  0  0  0  0  0  0  0
  188.3980  177.6290  143.8940 C   0  0  2  0  0  3  0  0  0  0  0  0
  187.4970  177.2320  145.0500 C   0  0  0  0  0  0  0  0  0  0  0  0
  185.0410  177.2670  145.3590 C   0  0  0  0  0  3  0  0  0  0  0  0
  187.8150  177.3750  142.5260 C   0  0  0  0  0  0  0  0  0  0  0  0
  186.6190  176.8880  140.0370 C   0  0  0  0  0  3  0  0  0  0  0  0
  186.2020  176.5150  144.8020 C   0  0  0  0  0  2  0  0  0  0  0  0
  189.8590  175.5980  143.5540 C   0  0  2  0  0  3  0  0  0  0  0  0
  185.0670  178.7340  140.4080 N   0  0  0  0  0  1  0  0  0  0  0  0
  189.3850  177.8820  146.4660 C   0  0  0  0  0  2  0  0  0  0  0  0
  184.8990  177.5090  146.6610 C   0  0  0  0  0  3  0  0  0  0  0  0
  189.5020  175.5220  142.0690 C   0  0  0  0  0  2  0  0  0  0  0  0
  189.8200  177.0460  144.0660 C   0  0  2  0  0  3  0  0  0  0  0  0
  186.7490  178.1690  142.0850 C   0  0  0  0  0  3  0  0  0  0  0  0
  185.8890  177.1540  147.6950 C   0  0  0  0  0  3  0  0  0  0  0  0
  188.2850  176.3250  141.7080 C   0  0  0  0  0  0  0  0  0  0  0  0
  187.6880  176.0970  140.4640 C   0  0  0  0  0  3  0  0  0  0  0  0
  190.3250  177.1220  145.5250 C   0  0  0  0  0  2  0  0  0  0  0  0
  187.9760  177.3960  146.2990 C   0  0  0  0  0  0  0  0  0  0  0  0
  187.2160  177.0990  147.5330 C   0  0  0  0  0  3  0  0  0  0  0  0
  193.8190  174.0100  144.1390 C   0  0  0  0  0  1  0  0  0  0  0  0
  192.0640  170.8110  144.3380 O   0  0  0  0  0  0  0  0  0  0  0  0
  190.4160  172.7650  143.7240 O   0  0  0  0  0  0  0  0  0  0  0  0
  191.3860  173.5590  143.8600 C   0  0  0  0  0  0  0  0  0  0  0  0
  193.0000  171.6490  144.2390 C   0  0  0  0  0  0  0  0  0  0  0  0
  192.7190  173.0550  144.0770 N   0  0  0  0  0  0  0  0  0  0  0  0
  191.1620  174.9750  143.7860 N   0  0  0  0  0  2  0  0  0  0  0  0
  194.4120  171.1500  144.2840 C   0  0  0  0  0  2  0  0  0  0  0  0
  194.8930  171.0110  145.7210 C   0  0  0  0  0  3  0  0  0  0  0  0
  196.3300  171.4810  145.8140 C   0  0  0  0  0  1  0  0  0  0  0  0
  194.8160  169.5630  146.1670 C   0  0  0  0  0  1  0  0  0  0  0  0
  1 14  1  0  0  0  0
  2  5  1  6  0  0  0
  2 13  1  0  0  0  0
  2  3  1  0  0  0  0
  3 19  2  0  0  0  0
  4 11  2  0  0  0  0
  6 17  1  0  0  0  0
  6  1  2  0  0  0  0
  7  3  1  0  0  0  0
  7  4  1  0  0  0  0
  8 27  1  6  0  0  0
  8 13  1  0  0  0  0
  9  1  1  0  0  0  0
 11 15  1  0  0  0  0
 12  8  1  0  0  0  0
 13 18  1  1  0  0  0
 14  5  2  0  0  0  0
 16 12  1  0  0  0  0
 16  5  1  0  0  0  0
 17 16  2  0  0  0  0
 18 10  1  0  0  0  0
 19 10  1  0  0  0  0
 19 20  1  0  0  0  0
 20 15  2  0  0  0  0
 23 24  2  0  0  0  0
 24 26  1  0  0  0  0
 25 28  1  0  0  0  0
 25 22  2  0  0  0  0
 26 21  1  0  0  0  0
 26 25  1  0  0  0  0
 27 24  1  0  0  0  0
 28 29  1  0  0  0  0
 29 30  1  0  0  0  0
 29 31  1  0  0  0  0
M  END
>  <MODEL>
5

>  <REMARK>
 VINA RESULT:      -7.9      2.732      4.853
  Name = 
  3 active torsions:
  status: ('A' for Active; 'I' for Inactive)
    1  A    between atoms: C_1  and  C_24
    2  A    between atoms: C_15  and  N_23
    3  A    between atoms: C_19  and  C_24
                            x       y       z     vdW  Elec       q    Type
                         _______ _______ _______ _____ _____    ______ ____

>  <TORSDO>
F 3

$$$$
=
 OpenBabel11052417453D

 31 34  0  0  1  0  0  0  0  0999 V2000
  186.3950  177.8570  141.0810 C   0  0  0  0  0  0  0  0  0  0  0  0
  188.2410  177.8020  144.4000 C   0  0  2  0  0  3  0  0  0  0  0  0
  187.1970  177.5120  145.4640 C   0  0  0  0  0  0  0  0  0  0  0  0
  184.7230  177.5950  145.4600 C   0  0  0  0  0  3  0  0  0  0  0  0
  187.8270  177.4370  142.9950 C   0  0  0  0  0  0  0  0  0  0  0  0
  186.9380  176.7500  140.4270 C   0  0  0  0  0  3  0  0  0  0  0  0
  185.9290  176.7890  145.1170 C   0  0  0  0  0  2  0  0  0  0  0  0
  189.6940  175.7360  144.4150 C   0  0  2  0  0  3  0  0  0  0  0  0
  185.3880  178.6340  140.4460 N   0  0  0  0  0  1  0  0  0  0  0  0
  188.9080  178.2650  147.0440 C   0  0  0  0  0  2  0  0  0  0  0  0
  184.4260  177.9490  146.7100 C   0  0  0  0  0  3  0  0  0  0  0  0
  189.5210  175.5380  142.9090 C   0  0  0  0  0  2  0  0  0  0  0  0
  189.6200  177.2230  144.7950 C   0  0  2  0  0  3  0  0  0  0  0  0
  186.8390  178.2000  142.3600 C   0  0  0  0  0  3  0  0  0  0  0  0
  185.2740  177.6750  147.8850 C   0  0  0  0  0  3  0  0  0  0  0  0
  188.3740  176.3170  142.3340 C   0  0  0  0  0  0  0  0  0  0  0  0
  187.9310  175.9880  141.0480 C   0  0  0  0  0  3  0  0  0  0  0  0
  189.9420  177.4190  146.2950 C   0  0  0  0  0  2  0  0  0  0  0  0
  187.5210  177.7780  146.7440 C   0  0  0  0  0  0  0  0  0  0  0  0
  186.6100  177.5950  147.8950 C   0  0  0  0  0  3  0  0  0  0  0  0
  193.2310  173.8120  145.9390 C   0  0  0  0  0  1  0  0  0  0  0  0
  194.9640  176.2040  143.7890 O   0  0  0  0  0  0  0  0  0  0  0  0
  192.3720  176.6410  143.8040 O   0  0  0  0  0  0  0  0  0  0  0  0
  192.2540  175.6150  144.5280 C   0  0  0  0  0  0  0  0  0  0  0  0
  194.7630  175.3340  144.6780 C   0  0  0  0  0  0  0  0  0  0  0  0
  193.4220  174.9400  145.0350 N   0  0  0  0  0  0  0  0  0  0  0  0
  190.9460  175.1240  144.8590 N   0  0  0  0  0  2  0  0  0  0  0  0
  195.9490  174.7250  145.3610 C   0  0  0  0  0  2  0  0  0  0  0  0
  196.6060  173.6750  144.4770 C   0  0  0  0  0  3  0  0  0  0  0  0
  196.8570  172.4230  145.2920 C   0  0  0  0  0  1  0  0  0  0  0  0
  197.9270  174.1890  143.9370 C   0  0  0  0  0  1  0  0  0  0  0  0
  1 14  1  0  0  0  0
  2  5  1  6  0  0  0
  2 13  1  0  0  0  0
  2  3  1  0  0  0  0
  3 19  2  0  0  0  0
  4 11  2  0  0  0  0
  6 17  1  0  0  0  0
  6  1  2  0  0  0  0
  7  4  1  0  0  0  0
  7  3  1  0  0  0  0
  8 13  1  0  0  0  0
  8 27  1  6  0  0  0
  9  1  1  0  0  0  0
 11 15  1  0  0  0  0
 12  8  1  0  0  0  0
 13 18  1  1  0  0  0
 14  5  2  0  0  0  0
 15 20  2  0  0  0  0
 16 12  1  0  0  0  0
 16  5  1  0  0  0  0
 17 16  2  0  0  0  0
 18 10  1  0  0  0  0
 19 10  1  0  0  0  0
 19 20  1  0  0  0  0
 22 25  2  0  0  0  0
 23 24  2  0  0  0  0
 24 27  1  0  0  0  0
 24 26  1  0  0  0  0
 25 26  1  0  0  0  0
 25 28  1  0  0  0  0
 26 21  1  0  0  0  0
 29 30  1  0  0  0  0
 29 28  1  0  0  0  0
 31 29  1  0  0  0  0
M  END
>  <MODEL>
6

>  <REMARK>
 VINA RESULT:      -7.8      1.618      4.133
  Name = 
  3 active torsions:
  status: ('A' for Active; 'I' for Inactive)
    1  A    between atoms: C_1  and  C_24
    2  A    between atoms: C_15  and  N_23
    3  A    between atoms: C_19  and  C_24
                            x       y       z     vdW  Elec       q    Type
                         _______ _______ _______ _____ _____    ______ ____

>  <TORSDO>
F 3

$$$$
=
 OpenBabel11052417453D

 31 34  0  0  1  0  0  0  0  0999 V2000
  184.5070  178.5040  143.2420 C   0  0  0  0  0  0  0  0  0  0  0  0
  187.0350  175.7110  142.7500 C   0  0  2  0  0  3  0  0  0  0  0  0
  187.4440  175.7600  141.2890 C   0  0  0  0  0  0  0  0  0  0  0  0
  186.4650  176.8650  139.3020 C   0  0  0  0  0  3  0  0  0  0  0  0
  186.3940  176.9760  143.2670 C   0  0  0  0  0  0  0  0  0  0  0  0
  185.1870  179.3640  144.1070 C   0  0  0  0  0  3  0  0  0  0  0  0
  187.3330  177.0330  140.5030 C   0  0  0  0  0  2  0  0  0  0  0  0
  189.1370  176.3780  143.9800 C   0  0  2  0  0  3  0  0  0  0  0  0
  183.2040  178.8410  142.7840 N   0  0  0  0  0  1  0  0  0  0  0  0
  188.3680  173.5300  141.6950 C   0  0  0  0  0  2  0  0  0  0  0  0
  186.7680  176.0330  138.3070 C   0  0  0  0  0  3  0  0  0  0  0  0
  188.4040  177.4810  144.7450 C   0  0  0  0  0  2  0  0  0  0  0  0
  188.1950  175.2120  143.6420 C   0  0  2  0  0  3  0  0  0  0  0  0
  185.1080  177.3140  142.8240 C   0  0  0  0  0  3  0  0  0  0  0  0
  187.9260  175.1200  138.2980 C   0  0  0  0  0  3  0  0  0  0  0  0
  187.0810  177.8470  144.1390 C   0  0  0  0  0  0  0  0  0  0  0  0
  186.4650  179.0310  144.5600 C   0  0  0  0  0  3  0  0  0  0  0  0
  188.9820  174.0450  143.0010 C   0  0  0  0  0  2  0  0  0  0  0  0
  188.0600  174.6760  140.7780 C   0  0  0  0  0  0  0  0  0  0  0  0
  188.4860  174.5420  139.3670 C   0  0  0  0  0  3  0  0  0  0  0  0
  192.4040  175.0800  146.4670 C   0  0  0  0  0  1  0  0  0  0  0  0
  194.4250  175.9030  143.5360 O   0  0  0  0  0  0  0  0  0  0  0  0
  191.9070  176.5690  143.1750 O   0  0  0  0  0  0  0  0  0  0  0  0
  191.6620  176.0510  144.2980 C   0  0  0  0  0  0  0  0  0  0  0  0
  194.1150  175.6100  144.7220 C   0  0  0  0  0  0  0  0  0  0  0  0
  192.7340  175.5900  145.1410 N   0  0  0  0  0  0  0  0  0  0  0  0
  190.3020  175.9310  144.7430 N   0  0  0  0  0  2  0  0  0  0  0  0
  195.2150  175.2900  145.6880 C   0  0  0  0  0  2  0  0  0  0  0  0
  195.9410  174.0160  145.2830 C   0  0  0  0  0  3  0  0  0  0  0  0
  194.9500  172.8710  145.2360 C   0  0  0  0  0  1  0  0  0  0  0  0
  197.0320  173.6860  146.2840 C   0  0  0  0  0  1  0  0  0  0  0  0
  1  6  1  0  0  0  0
  2  3  1  6  0  0  0
  2  5  1  0  0  0  0
  2 13  1  0  0  0  0
  4  7  1  0  0  0  0
  5 16  2  0  0  0  0
  6 17  2  0  0  0  0
  7  3  1  0  0  0  0
  8 27  1  1  0  0  0
  8 12  1  0  0  0  0
  9  1  1  0  0  0  0
 10 18  1  0  0  0  0
 11  4  2  0  0  0  0
 13 18  1  6  0  0  0
 13  8  1  0  0  0  0
 14  1  2  0  0  0  0
 14  5  1  0  0  0  0
 15 11  1  0  0  0  0
 15 20  2  0  0  0  0
 16 17  1  0  0  0  0
 16 12  1  0  0  0  0
 19  3  2  0  0  0  0
 19 10  1  0  0  0  0
 20 19  1  0  0  0  0
 22 25  2  0  0  0  0
 23 24  2  0  0  0  0
 24 27  1  0  0  0  0
 24 26  1  0  0  0  0
 25 26  1  0  0  0  0
 25 28  1  0  0  0  0
 26 21  1  0  0  0  0
 29 28  1  0  0  0  0
 29 31  1  0  0  0  0
 30 29  1  0  0  0  0
M  END
>  <MODEL>
7

>  <REMARK>
 VINA RESULT:      -7.6      1.921      2.439
  Name = 
  3 active torsions:
  status: ('A' for Active; 'I' for Inactive)
    1  A    between atoms: C_1  and  C_24
    2  A    between atoms: C_15  and  N_23
    3  A    between atoms: C_19  and  C_24
                            x       y       z     vdW  Elec       q    Type
                         _______ _______ _______ _____ _____    ______ ____

>  <TORSDO>
F 3

$$$$
=
 OpenBabel11052417453D

 31 34  0  0  1  0  0  0  0  0999 V2000
  186.4140  178.0170  144.9570 C   0  0  0  0  0  0  0  0  0  0  0  0
  189.8540  176.8760  143.8190 C   0  0  2  0  0  3  0  0  0  0  0  0
  190.4940  176.1930  145.0150 C   0  0  0  0  0  0  0  0  0  0  0  0
  189.9540  176.1760  147.4310 C   0  0  0  0  0  3  0  0  0  0  0  0
  188.3530  177.0100  143.8990 C   0  0  0  0  0  0  0  0  0  0  0  0
  185.5710  177.2300  144.1700 C   0  0  0  0  0  3  0  0  0  0  0  0
  189.6470  175.5880  146.0960 C   0  0  0  0  0  2  0  0  0  0  0  0
  189.5120  174.9940  142.1710 C   0  0  2  0  0  3  0  0  0  0  0  0
  185.8620  178.9270  145.8990 N   0  0  0  0  0  1  0  0  0  0  0  0
  192.5800  176.4120  143.7530 C   0  0  0  0  0  2  0  0  0  0  0  0
  191.1480  176.0590  148.0110 C   0  0  0  0  0  3  0  0  0  0  0  0
  188.0280  175.3280  142.0140 C   0  0  0  0  0  2  0  0  0  0  0  0
  190.3380  176.2500  142.4900 C   0  0  2  0  0  3  0  0  0  0  0  0
  187.8000  177.9080  144.8210 C   0  0  0  0  0  3  0  0  0  0  0  0
  192.3250  175.4250  147.3900 C   0  0  0  0  0  3  0  0  0  0  0  0
  187.4990  176.2140  143.1050 C   0  0  0  0  0  0  0  0  0  0  0  0
  186.1130  176.3390  143.2410 C   0  0  0  0  0  3  0  0  0  0  0  0
  191.8490  175.9210  142.5000 C   0  0  0  0  0  2  0  0  0  0  0  0
  191.8280  176.0070  144.9860 C   0  0  0  0  0  0  0  0  0  0  0  0
  192.6120  175.3980  146.0830 C   0  0  0  0  0  3  0  0  0  0  0  0
  190.8240  173.2050  138.4810 C   0  0  0  0  0  1  0  0  0  0  0  0
  191.3820  170.2660  140.5780 O   0  0  0  0  0  0  0  0  0  0  0  0
  190.2440  172.2060  141.9400 O   0  0  0  0  0  0  0  0  0  0  0  0
  190.3490  172.9230  140.9080 C   0  0  0  0  0  0  0  0  0  0  0  0
  191.2450  170.9850  139.5530 C   0  0  0  0  0  0  0  0  0  0  0  0
  190.8050  172.3550  139.6650 N   0  0  0  0  0  0  0  0  0  0  0  0
  190.0000  174.3140  140.9710 N   0  0  0  0  0  2  0  0  0  0  0  0
  191.5420  170.3820  138.2140 C   0  0  0  0  0  2  0  0  0  0  0  0
  190.2870  169.7780  137.6000 C   0  0  0  0  0  3  0  0  0  0  0  0
  190.4380  168.2720  137.5390 C   0  0  0  0  0  1  0  0  0  0  0  0
  190.0740  170.3120  136.1960 C   0  0  0  0  0  1  0  0  0  0  0  0
  1  9  1  0  0  0  0
  2  5  1  1  0  0  0
  2  3  1  0  0  0  0
  3  7  1  0  0  0  0
  4 11  2  0  0  0  0
  5 14  2  0  0  0  0
  6  1  2  0  0  0  0
  7  4  1  0  0  0  0
  8 27  1  6  0  0  0
  8 13  1  0  0  0  0
 10 19  1  0  0  0  0
 12  8  1  0  0  0  0
 12 16  1  0  0  0  0
 13 18  1  1  0  0  0
 13  2  1  0  0  0  0
 14  1  1  0  0  0  0
 15 11  1  0  0  0  0
 16 17  2  0  0  0  0
 16  5  1  0  0  0  0
 17  6  1  0  0  0  0
 18 10  1  0  0  0  0
 19  3  2  0  0  0  0
 19 20  1  0  0  0  0
 20 15  2  0  0  0  0
 21 26  1  0  0  0  0
 24 27  1  0  0  0  0
 24 23  2  0  0  0  0
 25 26  1  0  0  0  0
 25 22  2  0  0  0  0
 26 24  1  0  0  0  0
 28 25  1  0  0  0  0
 29 28  1  0  0  0  0
 30 29  1  0  0  0  0
 31 29  1  0  0  0  0
M  END
>  <MODEL>
8

>  <REMARK>
 VINA RESULT:      -7.6      3.921      6.256
  Name = 
  3 active torsions:
  status: ('A' for Active; 'I' for Inactive)
    1  A    between atoms: C_1  and  C_24
    2  A    between atoms: C_15  and  N_23
    3  A    between atoms: C_19  and  C_24
                            x       y       z     vdW  Elec       q    Type
                         _______ _______ _______ _____ _____    ______ ____

>  <TORSDO>
F 3

$$$$
=
 OpenBabel11052417453D

 31 34  0  0  1  0  0  0  0  0999 V2000
  186.5360  177.6430  146.8700 C   0  0  0  0  0  0  0  0  0  0  0  0
  187.9340  175.7480  143.8900 C   0  0  2  0  0  3  0  0  0  0  0  0
  187.5820  176.5680  142.6600 C   0  0  0  0  0  0  0  0  0  0  0  0
  185.9860  178.4190  142.2720 C   0  0  0  0  0  3  0  0  0  0  0  0
  187.8740  176.5090  145.1920 C   0  0  0  0  0  0  0  0  0  0  0  0
  187.6970  178.0130  147.5510 C   0  0  0  0  0  3  0  0  0  0  0  0
  187.3420  178.0450  142.7660 C   0  0  0  0  0  2  0  0  0  0  0  0
  190.4510  175.9110  144.0120 C   0  0  2  0  0  3  0  0  0  0  0  0
  185.2630  178.0330  147.3700 N   0  0  0  0  0  1  0  0  0  0  0  0
  188.1530  174.5420  141.4100 C   0  0  0  0  0  2  0  0  0  0  0  0
  185.6050  178.2360  141.0090 C   0  0  0  0  0  3  0  0  0  0  0  0
  190.4030  176.3980  145.4610 C   0  0  0  0  0  2  0  0  0  0  0  0
  189.2660  174.9860  143.6940 C   0  0  2  0  0  3  0  0  0  0  0  0
  186.6240  176.8930  145.6950 C   0  0  0  0  0  3  0  0  0  0  0  0
  186.4190  177.5730  139.9730 C   0  0  0  0  0  3  0  0  0  0  0  0
  189.0470  176.8850  145.8800 C   0  0  0  0  0  0  0  0  0  0  0  0
  188.9470  177.6270  147.0620 C   0  0  0  0  0  3  0  0  0  0  0  0
  189.4080  174.3870  142.2750 C   0  0  0  0  0  2  0  0  0  0  0  0
  187.6560  175.9560  141.4620 C   0  0  0  0  0  0  0  0  0  0  0  0
  187.3090  176.5950  140.1730 C   0  0  0  0  0  3  0  0  0  0  0  0
  194.1740  173.8200  143.4590 C   0  0  0  0  0  1  0  0  0  0  0  0
  195.0030  176.6890  141.3550 O   0  0  0  0  0  0  0  0  0  0  0  0
  192.6840  177.0210  142.5480 O   0  0  0  0  0  0  0  0  0  0  0  0
  192.8140  175.8560  143.0140 C   0  0  0  0  0  0  0  0  0  0  0  0
  195.1350  175.6360  142.0350 C   0  0  0  0  0  0  0  0  0  0  0  0
  194.0420  175.1260  142.8260 N   0  0  0  0  0  0  0  0  0  0  0  0
  191.7340  175.2590  143.7470 N   0  0  0  0  0  2  0  0  0  0  0  0
  196.4580  174.9320  142.0090 C   0  0  0  0  0  2  0  0  0  0  0  0
  196.7260  174.3290  140.6380 C   0  0  0  0  0  3  0  0  0  0  0  0
  197.4160  175.3580  139.7670 C   0  0  0  0  0  1  0  0  0  0  0  0
  195.4240  173.9140  139.9790 C   0  0  0  0  0  1  0  0  0  0  0  0
  1  9  1  0  0  0  0
  1  6  1  0  0  0  0
  2  3  1  6  0  0  0
  2  5  1  0  0  0  0
  3  7  1  0  0  0  0
  4  7  1  0  0  0  0
  5 14  1  0  0  0  0
  5 16  2  0  0  0  0
  8 27  1  1  0  0  0
  8 12  1  0  0  0  0
 10 19  1  0  0  0  0
 10 18  1  0  0  0  0
 11  4  2  0  0  0  0
 12 16  1  0  0  0  0
 13 18  1  6  0  0  0
 13  2  1  0  0  0  0
 13  8  1  0  0  0  0
 14  1  2  0  0  0  0
 15 20  2  0  0  0  0
 15 11  1  0  0  0  0
 16 17  1  0  0  0  0
 17  6  2  0  0  0  0
 19  3  2  0  0  0  0
 20 19  1  0  0  0  0
 22 25  2  0  0  0  0
 23 24  2  0  0  0  0
 24 27  1  0  0  0  0
 25 26  1  0  0  0  0
 26 24  1  0  0  0  0
 26 21  1  0  0  0  0
 28 25  1  0  0  0  0
 29 28  1  0  0  0  0
 30 29  1  0  0  0  0
 31 29  1  0  0  0  0
M  END
>  <MODEL>
9

>  <REMARK>
 VINA RESULT:      -7.2      1.446      1.773
  Name = 
  3 active torsions:
  status: ('A' for Active; 'I' for Inactive)
    1  A    between atoms: C_1  and  C_24
    2  A    between atoms: C_15  and  N_23
    3  A    between atoms: C_19  and  C_24
                            x       y       z     vdW  Elec       q    Type
                         _______ _______ _______ _____ _____    ______ ____

>  <TORSDO>
F 3

$$$$
