=
 OpenBabel11052417453D

 31 35  0  0  1  0  0  0  0  0999 V2000
  185.8030  179.0170  147.0930 C   0  0  1  0  0  3  0  0  0  0  0  0
  186.8320  177.8050  143.6650 C   0  0  0  0  0  0  0  0  0  0  0  0
  188.2330  177.5620  143.7810 C   0  0  0  0  0  0  0  0  0  0  0  0
  182.4640  177.6250  139.4470 O   0  0  0  0  0  0  0  0  0  0  0  0
  182.8250  177.8390  140.6350 C   0  0  0  0  0  0  0  0  0  0  0  0
  190.3010  177.4840  145.0760 C   0  0  0  0  0  3  0  0  0  0  0  0
  186.0250  178.2340  144.7500 C   0  0  0  0  0  0  0  0  0  0  0  0
  184.3560  178.5500  147.0280 C   0  0  0  0  0  2  0  0  0  0  0  0
  188.9290  177.7290  144.9910 C   0  0  0  0  0  3  0  0  0  0  0  0
  184.8320  177.8440  142.2510 C   0  0  0  0  0  0  0  0  0  0  0  0
  186.4110  178.6320  148.4240 C   0  0  0  0  0  1  0  0  0  0  0  0
  188.3310  176.9540  141.4200 C   0  0  0  0  0  3  0  0  0  0  0  0
  192.7250  176.7560  144.0550 Cl  0  0  0  0  0  0  0  0  0  0  0  0
  184.1010  178.2500  143.3220 N   0  0  0  0  0  0  0  0  0  0  0  0
  186.2100  177.6120  142.4010 C   0  0  0  0  0  0  0  0  0  0  0  0
  184.2070  177.6540  140.9700 N   0  0  0  0  0  2  0  0  0  0  0  0
  186.5580  178.4320  146.0340 O   0  0  0  0  0  0  0  0  0  0  0  0
  191.0060  177.0640  143.9480 C   0  0  0  0  0  0  0  0  0  0  0  0
  184.6470  178.4370  144.5470 C   0  0  0  0  0  0  0  0  0  0  0  0
  183.7740  178.9210  145.6690 C   0  0  0  0  0  2  0  0  0  0  0  0
  186.9660  177.1910  141.3000 C   0  0  0  0  0  3  0  0  0  0  0  0
  188.9670  177.1340  142.6430 C   0  0  0  0  0  0  0  0  0  0  0  0
  190.3410  176.8900  142.7350 C   0  0  0  0  0  3  0  0  0  0  0  0
  181.8380  178.2660  141.6460 C   0  0  0  0  0  3  0  0  0  0  0  0
  178.0530  178.8200  141.5530 C   0  0  0  0  0  2  0  0  0  0  0  0
  179.8960  178.1680  140.1990 N   0  0  0  0  0  0  0  0  0  0  0  0
  179.4350  178.9350  142.7450 S   0  0  0  0  0  0  0  0  0  0  0  0
  180.5280  178.4120  141.4430 C   0  0  0  0  0  0  0  0  0  0  0  0
  178.6230  178.3760  140.2440 C   0  0  0  0  0  0  0  0  0  0  0  0
  177.8040  178.1960  139.1280 O   0  0  0  0  0  0  0  0  0  0  0  0
  178.0420  177.1710  138.1760 C   0  0  0  0  0  1  0  0  0  0  0  0
  1 11  1  1  0  0  0
  2  3  1  0  0  0  0
  2  7  1  0  0  0  0
  3  9  1  0  0  0  0
  4  5  2  0  0  0  0
  5 16  1  0  0  0  0
  5 24  1  0  0  0  0
  7 17  1  0  0  0  0
  8  1  1  0  0  0  0
  9  6  2  0  0  0  0
 10 15  1  0  0  0  0
 10 14  2  0  0  0  0
 12 22  1  0  0  0  0
 14 19  1  0  0  0  0
 15  2  2  0  0  0  0
 16 10  1  0  0  0  0
 17  1  1  0  0  0  0
 18 13  1  0  0  0  0
 18  6  1  0  0  0  0
 19  7  2  0  0  0  0
 19 20  1  0  0  0  0
 20  8  1  0  0  0  0
 21 12  2  0  0  0  0
 21 15  1  0  0  0  0
 22 23  1  0  0  0  0
 22  3  2  0  0  0  0
 23 18  2  0  0  0  0
 25 27  1  0  0  0  0
 26 29  2  0  0  0  0
 26 28  1  0  0  0  0
 28 24  2  0  0  0  0
 28 27  1  0  0  0  0
 29 25  1  0  0  0  0
 30 29  1  0  0  0  0
 31 30  1  0  0  0  0
M  END
>  <MODEL>
1

>  <REMARK>
 VINA RESULT:      -9.0      0.000      0.000
  Name = 
  2 active torsions:
  status: ('A' for Active; 'I' for Inactive)
    1  A    between atoms: O_1  and  C_24
    2  A    between atoms: C_3  and  C_9
                            x       y       z     vdW  Elec       q    Type
                         _______ _______ _______ _____ _____    ______ ____

>  <TORSDO>
F 2

$$$$
=
 OpenBabel11052417453D

 31 35  0  0  1  0  0  0  0  0999 V2000
  185.7300  177.5890  146.8840 C   0  0  1  0  0  3  0  0  0  0  0  0
  186.5150  177.2920  143.2000 C   0  0  0  0  0  0  0  0  0  0  0  0
  185.3180  177.7110  142.5480 C   0  0  0  0  0  0  0  0  0  0  0  0
  192.0170  175.1440  141.7810 O   0  0  0  0  0  0  0  0  0  0  0  0
  191.1790  175.5090  142.6490 C   0  0  0  0  0  0  0  0  0  0  0  0
  183.0320  178.5680  142.5930 C   0  0  0  0  0  3  0  0  0  0  0  0
  186.6740  177.2930  144.6100 C   0  0  0  0  0  0  0  0  0  0  0  0
  187.1570  177.8220  147.3600 C   0  0  0  0  0  2  0  0  0  0  0  0
  184.1920  178.1640  143.2580 C   0  0  0  0  0  3  0  0  0  0  0  0
  188.7990  176.4240  143.0130 C   0  0  0  0  0  0  0  0  0  0  0  0
  184.7960  178.5780  147.5480 C   0  0  0  0  0  1  0  0  0  0  0  0
  186.3250  177.2370  140.3770 C   0  0  0  0  0  3  0  0  0  0  0  0
  181.5230  179.0360  140.3680 Cl  0  0  0  0  0  0  0  0  0  0  0  0
  188.9030  176.4490  144.3660 N   0  0  0  0  0  0  0  0  0  0  0  0
  187.6050  176.8470  142.4020 C   0  0  0  0  0  0  0  0  0  0  0  0
  189.8960  175.9690  142.2030 N   0  0  0  0  0  2  0  0  0  0  0  0
  185.6530  177.7330  145.4670 O   0  0  0  0  0  0  0  0  0  0  0  0
  182.9760  178.5280  141.2010 C   0  0  0  0  0  0  0  0  0  0  0  0
  187.8970  176.8740  145.1670 C   0  0  0  0  0  0  0  0  0  0  0  0
  188.0830  176.8350  146.6560 C   0  0  0  0  0  2  0  0  0  0  0  0
  187.4940  176.8260  141.0070 C   0  0  0  0  0  3  0  0  0  0  0  0
  185.2430  177.6770  141.1300 C   0  0  0  0  0  0  0  0  0  0  0  0
  184.0790  178.0840  140.4710 C   0  0  0  0  0  3  0  0  0  0  0  0
  191.5240  175.4600  144.0830 C   0  0  0  0  0  3  0  0  0  0  0  0
  194.7090  176.2610  146.0470 C   0  0  0  0  0  2  0  0  0  0  0  0
  193.8150  176.2190  143.8450 N   0  0  0  0  0  0  0  0  0  0  0  0
  193.0040  175.6810  146.3620 S   0  0  0  0  0  0  0  0  0  0  0  0
  192.7070  175.7800  144.6110 C   0  0  0  0  0  0  0  0  0  0  0  0
  194.8500  176.4690  144.5740 C   0  0  0  0  0  0  0  0  0  0  0  0
  196.0520  176.9150  144.0230 O   0  0  0  0  0  0  0  0  0  0  0  0
  196.4690  176.5410  142.7180 C   0  0  0  0  0  1  0  0  0  0  0  0
  1  8  1  0  0  0  0
  1 11  1  1  0  0  0
  2  7  1  0  0  0  0
  3  2  1  0  0  0  0
  3  9  1  0  0  0  0
  4  5  2  0  0  0  0
  5 24  1  0  0  0  0
  6  9  2  0  0  0  0
  7 19  2  0  0  0  0
  7 17  1  0  0  0  0
 10 14  2  0  0  0  0
 12 21  2  0  0  0  0
 12 22  1  0  0  0  0
 13 18  1  0  0  0  0
 14 19  1  0  0  0  0
 15 10  1  0  0  0  0
 15  2  2  0  0  0  0
 16  5  1  0  0  0  0
 16 10  1  0  0  0  0
 17  1  1  0  0  0  0
 18  6  1  0  0  0  0
 19 20  1  0  0  0  0
 20  8  1  0  0  0  0
 21 15  1  0  0  0  0
 22  3  2  0  0  0  0
 23 22  1  0  0  0  0
 23 18  2  0  0  0  0
 24 28  2  0  0  0  0
 25 27  1  0  0  0  0
 26 29  2  0  0  0  0
 26 28  1  0  0  0  0
 28 27  1  0  0  0  0
 29 25  1  0  0  0  0
 30 29  1  0  0  0  0
 31 30  1  0  0  0  0
M  END
>  <MODEL>
2

>  <REMARK>
 VINA RESULT:      -8.8      5.035      9.341
  Name = 
  2 active torsions:
  status: ('A' for Active; 'I' for Inactive)
    1  A    between atoms: O_1  and  C_24
    2  A    between atoms: C_3  and  C_9
                            x       y       z     vdW  Elec       q    Type
                         _______ _______ _______ _____ _____    ______ ____

>  <TORSDO>
F 2

$$$$
=
 OpenBabel11052417453D

 31 35  0  0  1  0  0  0  0  0999 V2000
  192.0870  175.5080  145.7560 C   0  0  1  0  0  3  0  0  0  0  0  0
  188.8480  175.8870  143.8480 C   0  0  0  0  0  0  0  0  0  0  0  0
  187.9690  176.5350  144.7660 C   0  0  0  0  0  0  0  0  0  0  0  0
  188.7440  173.5780  138.2300 O   0  0  0  0  0  0  0  0  0  0  0  0
  189.3710  173.8360  139.2920 C   0  0  0  0  0  0  0  0  0  0  0  0
  187.5010  177.5690  146.9270 C   0  0  0  0  0  3  0  0  0  0  0  0
  190.2030  175.5910  144.1450 C   0  0  0  0  0  0  0  0  0  0  0  0
  193.0150  175.5110  144.5490 C   0  0  0  0  0  2  0  0  0  0  0  0
  188.3830  176.9360  146.0490 C   0  0  0  0  0  3  0  0  0  0  0  0
  189.1820  174.8710  141.6430 C   0  0  0  0  0  0  0  0  0  0  0  0
  192.6330  176.4250  146.8290 C   0  0  0  0  0  1  0  0  0  0  0  0
  186.1610  176.4170  143.1320 C   0  0  0  0  0  3  0  0  0  0  0  0
  185.0800  178.6080  147.6390 Cl  0  0  0  0  0  0  0  0  0  0  0  0
  190.4730  174.6140  141.9740 N   0  0  0  0  0  0  0  0  0  0  0  0
  188.3440  175.5140  142.5720 C   0  0  0  0  0  0  0  0  0  0  0  0
  188.6670  174.4900  140.3560 N   0  0  0  0  0  2  0  0  0  0  0  0
  190.7820  175.9400  145.3750 O   0  0  0  0  0  0  0  0  0  0  0  0
  186.1850  177.8150  146.5390 C   0  0  0  0  0  0  0  0  0  0  0  0
  191.0010  174.9600  143.1730 C   0  0  0  0  0  0  0  0  0  0  0  0
  192.4290  174.6060  143.4710 C   0  0  0  0  0  2  0  0  0  0  0  0
  187.0120  175.7830  142.2330 C   0  0  0  0  0  3  0  0  0  0  0  0
  186.6250  176.7930  144.3870 C   0  0  0  0  0  0  0  0  0  0  0  0
  185.7480  177.4270  145.2720 C   0  0  0  0  0  3  0  0  0  0  0  0
  190.7950  173.4690  139.4220 C   0  0  0  0  0  3  0  0  0  0  0  0
  192.5980  170.2290  140.3680 C   0  0  0  0  0  2  0  0  0  0  0  0
  190.4310  171.1600  140.0650 N   0  0  0  0  0  0  0  0  0  0  0  0
  193.0070  171.9470  139.8930 S   0  0  0  0  0  0  0  0  0  0  0  0
  191.2610  172.2680  139.7690 C   0  0  0  0  0  0  0  0  0  0  0  0
  191.1080  170.1060  140.3750 C   0  0  0  0  0  0  0  0  0  0  0  0
  190.4880  168.8990  140.7020 O   0  0  0  0  0  0  0  0  0  0  0  0
  190.8320  168.1660  141.8680 C   0  0  0  0  0  1  0  0  0  0  0  0
  1 11  1  1  0  0  0
  2  7  1  0  0  0  0
  2  3  1  0  0  0  0
  3  9  1  0  0  0  0
  4  5  2  0  0  0  0
  5 24  1  0  0  0  0
  5 16  1  0  0  0  0
  7 17  1  0  0  0  0
  8  1  1  0  0  0  0
  9  6  2  0  0  0  0
 10 14  2  0  0  0  0
 10 15  1  0  0  0  0
 12 22  1  0  0  0  0
 14 19  1  0  0  0  0
 15  2  2  0  0  0  0
 16 10  1  0  0  0  0
 17  1  1  0  0  0  0
 18  6  1  0  0  0  0
 18 13  1  0  0  0  0
 19 20  1  0  0  0  0
 19  7  2  0  0  0  0
 20  8  1  0  0  0  0
 21 15  1  0  0  0  0
 21 12  2  0  0  0  0
 22  3  2  0  0  0  0
 22 23  1  0  0  0  0
 23 18  2  0  0  0  0
 24 28  2  0  0  0  0
 25 29  1  0  0  0  0
 26 29  2  0  0  0  0
 27 25  1  0  0  0  0
 28 27  1  0  0  0  0
 28 26  1  0  0  0  0
 29 30  1  0  0  0  0
 30 31  1  0  0  0  0
M  END
>  <MODEL>
3

>  <REMARK>
 VINA RESULT:      -8.5      5.884      8.968
  Name = 
  2 active torsions:
  status: ('A' for Active; 'I' for Inactive)
    1  A    between atoms: O_1  and  C_24
    2  A    between atoms: C_3  and  C_9
                            x       y       z     vdW  Elec       q    Type
                         _______ _______ _______ _____ _____    ______ ____

>  <TORSDO>
F 2

$$$$
=
 OpenBabel11052417453D

 31 35  0  0  1  0  0  0  0  0999 V2000
  191.1040  175.9600  147.6300 C   0  0  1  0  0  3  0  0  0  0  0  0
  188.9400  175.6470  144.5480 C   0  0  0  0  0  0  0  0  0  0  0  0
  187.8030  176.4610  144.8290 C   0  0  0  0  0  0  0  0  0  0  0  0
  190.9890  171.9560  140.1800 O   0  0  0  0  0  0  0  0  0  0  0  0
  191.1460  172.5150  141.2980 C   0  0  0  0  0  0  0  0  0  0  0  0
  186.5580  177.9930  146.2670 C   0  0  0  0  0  3  0  0  0  0  0  0
  190.0400  175.5150  145.4340 C   0  0  0  0  0  0  0  0  0  0  0  0
  192.4390  175.7010  146.9460 C   0  0  0  0  0  2  0  0  0  0  0  0
  187.6840  177.2040  146.0170 C   0  0  0  0  0  3  0  0  0  0  0  0
  190.0800  174.1140  143.0140 C   0  0  0  0  0  0  0  0  0  0  0  0
  191.2190  177.1540  148.5540 C   0  0  0  0  0  1  0  0  0  0  0  0
  186.8070  175.8200  142.6960 C   0  0  0  0  0  3  0  0  0  0  0  0
  184.1180  179.0440  145.6420 Cl  0  0  0  0  0  0  0  0  0  0  0  0
  191.1110  174.0240  143.8930 N   0  0  0  0  0  0  0  0  0  0  0  0
  188.9750  174.9270  143.3220 C   0  0  0  0  0  0  0  0  0  0  0  0
  190.1100  173.3830  141.7760 N   0  0  0  0  0  2  0  0  0  0  0  0
  190.0910  176.2040  146.6560 O   0  0  0  0  0  0  0  0  0  0  0  0
  185.5280  178.0550  145.3290 C   0  0  0  0  0  0  0  0  0  0  0  0
  191.1270  174.6990  145.0680 C   0  0  0  0  0  0  0  0  0  0  0  0
  192.2900  174.5160  145.9990 C   0  0  0  0  0  2  0  0  0  0  0  0
  187.9120  175.0240  142.4170 C   0  0  0  0  0  3  0  0  0  0  0  0
  186.7430  176.5350  143.8870 C   0  0  0  0  0  0  0  0  0  0  0  0
  185.6200  177.3280  144.1430 C   0  0  0  0  0  3  0  0  0  0  0  0
  192.3730  172.2760  142.0830 C   0  0  0  0  0  3  0  0  0  0  0  0
  195.6840  174.1650  142.4230 C   0  0  0  0  0  2  0  0  0  0  0  0
  193.5810  174.2340  141.3170 N   0  0  0  0  0  0  0  0  0  0  0  0
  194.8820  172.6570  143.0780 S   0  0  0  0  0  0  0  0  0  0  0  0
  193.4590  173.0510  142.0860 C   0  0  0  0  0  0  0  0  0  0  0  0
  194.7210  174.8140  141.4830 C   0  0  0  0  0  0  0  0  0  0  0  0
  195.0520  175.9970  140.8200 O   0  0  0  0  0  0  0  0  0  0  0  0
  196.1150  176.8330  141.2520 C   0  0  0  0  0  1  0  0  0  0  0  0
  1 11  1  1  0  0  0
  2  3  1  0  0  0  0
  2  7  1  0  0  0  0
  3  9  1  0  0  0  0
  4  5  2  0  0  0  0
  5 16  1  0  0  0  0
  5 24  1  0  0  0  0
  7 17  1  0  0  0  0
  8  1  1  0  0  0  0
  9  6  2  0  0  0  0
 10 15  1  0  0  0  0
 10 14  2  0  0  0  0
 12 22  1  0  0  0  0
 14 19  1  0  0  0  0
 15  2  2  0  0  0  0
 16 10  1  0  0  0  0
 17  1  1  0  0  0  0
 18 13  1  0  0  0  0
 18  6  1  0  0  0  0
 19  7  2  0  0  0  0
 19 20  1  0  0  0  0
 20  8  1  0  0  0  0
 21 12  2  0  0  0  0
 21 15  1  0  0  0  0
 22 23  1  0  0  0  0
 22  3  2  0  0  0  0
 23 18  2  0  0  0  0
 24 28  2  0  0  0  0
 25 27  1  0  0  0  0
 26 29  2  0  0  0  0
 26 28  1  0  0  0  0
 28 27  1  0  0  0  0
 29 25  1  0  0  0  0
 30 31  1  0  0  0  0
 30 29  1  0  0  0  0
M  END
>  <MODEL>
4

>  <REMARK>
 VINA RESULT:      -8.5      6.485      9.790
  Name = 
  2 active torsions:
  status: ('A' for Active; 'I' for Inactive)
    1  A    between atoms: O_1  and  C_24
    2  A    between atoms: C_3  and  C_9
                            x       y       z     vdW  Elec       q    Type
                         _______ _______ _______ _____ _____    ______ ____

>  <TORSDO>
F 2

$$$$
=
 OpenBabel11052417453D

 31 35  0  0  1  0  0  0  0  0999 V2000
  185.6220  177.7030  146.9860 C   0  0  1  0  0  3  0  0  0  0  0  0
  186.6390  177.8350  143.3490 C   0  0  0  0  0  0  0  0  0  0  0  0
  185.4110  178.0010  142.6430 C   0  0  0  0  0  0  0  0  0  0  0  0
  192.5600  177.1370  142.1810 O   0  0  0  0  0  0  0  0  0  0  0  0
  191.6160  177.2380  143.0090 C   0  0  0  0  0  0  0  0  0  0  0  0
  182.9880  178.2910  142.5850 C   0  0  0  0  0  3  0  0  0  0  0  0
  186.7230  177.7840  144.7650 C   0  0  0  0  0  0  0  0  0  0  0  0
  186.9260  178.2350  147.5630 C   0  0  0  0  0  2  0  0  0  0  0  0
  184.1750  178.1290  143.3020 C   0  0  0  0  0  3  0  0  0  0  0  0
  189.0710  177.5430  143.2660 C   0  0  0  0  0  0  0  0  0  0  0  0
  184.4470  178.4010  147.6370 C   0  0  0  0  0  1  0  0  0  0  0  0
  186.6110  177.9160  140.5200 C   0  0  0  0  0  3  0  0  0  0  0  0
  181.5250  178.5310  140.2940 Cl  0  0  0  0  0  0  0  0  0  0  0  0
  189.0980  177.5050  144.6230 N   0  0  0  0  0  0  0  0  0  0  0  0
  187.8430  177.7100  142.6020 C   0  0  0  0  0  0  0  0  0  0  0  0
  190.2850  177.4110  142.5060 N   0  0  0  0  0  2  0  0  0  0  0  0
  185.5840  177.9150  145.5760 O   0  0  0  0  0  0  0  0  0  0  0  0
  183.0130  178.3280  141.1910 C   0  0  0  0  0  0  0  0  0  0  0  0
  187.9800  177.6300  145.3770 C   0  0  0  0  0  0  0  0  0  0  0  0
  188.0950  177.5410  146.8720 C   0  0  0  0  0  2  0  0  0  0  0  0
  187.8110  177.7520  141.2030 C   0  0  0  0  0  3  0  0  0  0  0  0
  185.4180  178.0400  141.2240 C   0  0  0  0  0  0  0  0  0  0  0  0
  184.2250  178.2020  140.5130 C   0  0  0  0  0  3  0  0  0  0  0  0
  191.8900  177.1810  144.4590 C   0  0  0  0  0  3  0  0  0  0  0  0
  193.0140  174.3800  146.8110 C   0  0  0  0  0  2  0  0  0  0  0  0
  192.4930  174.8340  144.5360 N   0  0  0  0  0  0  0  0  0  0  0  0
  192.5820  176.1550  146.8880 S   0  0  0  0  0  0  0  0  0  0  0  0
  192.2820  176.1000  145.1350 C   0  0  0  0  0  0  0  0  0  0  0  0
  192.8690  173.9420  145.3890 C   0  0  0  0  0  0  0  0  0  0  0  0
  193.1330  172.6240  145.0130 O   0  0  0  0  0  0  0  0  0  0  0  0
  194.3660  171.9860  145.3120 C   0  0  0  0  0  1  0  0  0  0  0  0
  1  8  1  0  0  0  0
  1 11  1  1  0  0  0
  2  7  1  0  0  0  0
  3  9  1  0  0  0  0
  3  2  1  0  0  0  0
  4  5  2  0  0  0  0
  5 24  1  0  0  0  0
  6  9  2  0  0  0  0
  7 19  2  0  0  0  0
  7 17  1  0  0  0  0
 10 14  2  0  0  0  0
 12 21  2  0  0  0  0
 12 22  1  0  0  0  0
 13 18  1  0  0  0  0
 14 19  1  0  0  0  0
 15 10  1  0  0  0  0
 15  2  2  0  0  0  0
 16  5  1  0  0  0  0
 16 10  1  0  0  0  0
 17  1  1  0  0  0  0
 18  6  1  0  0  0  0
 19 20  1  0  0  0  0
 20  8  1  0  0  0  0
 21 15  1  0  0  0  0
 22  3  2  0  0  0  0
 23 18  2  0  0  0  0
 23 22  1  0  0  0  0
 24 28  2  0  0  0  0
 25 27  1  0  0  0  0
 26 28  1  0  0  0  0
 26 29  2  0  0  0  0
 28 27  1  0  0  0  0
 29 25  1  0  0  0  0
 30 31  1  0  0  0  0
 30 29  1  0  0  0  0
M  END
>  <MODEL>
5

>  <REMARK>
 VINA RESULT:      -8.5      4.990      9.028
  Name = 
  2 active torsions:
  status: ('A' for Active; 'I' for Inactive)
    1  A    between atoms: O_1  and  C_24
    2  A    between atoms: C_3  and  C_9
                            x       y       z     vdW  Elec       q    Type
                         _______ _______ _______ _____ _____    ______ ____

>  <TORSDO>
F 2

$$$$
=
 OpenBabel11052417453D

 31 35  0  0  1  0  0  0  0  0999 V2000
  186.3920  179.0110  142.8750 C   0  0  1  0  0  3  0  0  0  0  0  0
  188.8690  176.1810  143.2350 C   0  0  0  0  0  0  0  0  0  0  0  0
  189.4300  176.3640  144.5330 C   0  0  0  0  0  0  0  0  0  0  0  0
  189.4720  172.5020  138.4380 O   0  0  0  0  0  0  0  0  0  0  0  0
  188.9080  173.4780  138.9990 C   0  0  0  0  0  0  0  0  0  0  0  0
  189.5770  177.5450  146.6640 C   0  0  0  0  0  3  0  0  0  0  0  0
  187.8460  177.0090  142.7050 C   0  0  0  0  0  0  0  0  0  0  0  0
  185.4540  178.3140  141.8990 C   0  0  0  0  0  2  0  0  0  0  0  0
  189.0090  177.3890  145.3980 C   0  0  0  0  0  3  0  0  0  0  0  0
  188.8270  174.9100  141.1400 C   0  0  0  0  0  0  0  0  0  0  0  0
  185.5920  179.6770  143.9740 C   0  0  0  0  0  1  0  0  0  0  0  0
  190.9090  174.4570  144.1710 C   0  0  0  0  0  3  0  0  0  0  0  0
  191.2900  176.8710  148.6790 Cl  0  0  0  0  0  0  0  0  0  0  0  0
  187.8460  175.7290  140.6800 N   0  0  0  0  0  0  0  0  0  0  0  0
  189.3570  175.1180  142.4260 C   0  0  0  0  0  0  0  0  0  0  0  0
  189.3280  173.8380  140.3220 N   0  0  0  0  0  2  0  0  0  0  0  0
  187.2980  178.0690  143.4450 O   0  0  0  0  0  0  0  0  0  0  0  0
  190.5790  176.6750  147.0920 C   0  0  0  0  0  0  0  0  0  0  0  0
  187.3420  176.7470  141.4180 C   0  0  0  0  0  0  0  0  0  0  0  0
  186.2820  177.6260  140.8200 C   0  0  0  0  0  2  0  0  0  0  0  0
  190.3670  174.2740  142.9040 C   0  0  0  0  0  3  0  0  0  0  0  0
  190.4530  175.4870  144.9850 C   0  0  0  0  0  0  0  0  0  0  0  0
  191.0160  175.6500  146.2540 C   0  0  0  0  0  3  0  0  0  0  0  0
  187.8410  174.2230  138.3010 C   0  0  0  0  0  3  0  0  0  0  0  0
  187.7470  176.2640  135.0660 C   0  0  0  0  0  2  0  0  0  0  0  0
  189.2010  174.9840  136.4440 N   0  0  0  0  0  0  0  0  0  0  0  0
  186.6160  175.7570  136.4100 S   0  0  0  0  0  0  0  0  0  0  0  0
  187.9810  174.8950  137.1570 C   0  0  0  0  0  0  0  0  0  0  0  0
  189.0920  175.6860  135.3670 C   0  0  0  0  0  0  0  0  0  0  0  0
  190.1750  175.9020  134.5130 O   0  0  0  0  0  0  0  0  0  0  0  0
  191.1830  176.8600  134.8000 C   0  0  0  0  0  1  0  0  0  0  0  0
  1 17  1  0  0  0  0
  1 11  1  1  0  0  0
  2  3  1  0  0  0  0
  3 22  2  0  0  0  0
  3  9  1  0  0  0  0
  4  5  2  0  0  0  0
  5 16  1  0  0  0  0
  6 18  1  0  0  0  0
  7  2  1  0  0  0  0
  7 17  1  0  0  0  0
  8  1  1  0  0  0  0
  9  6  2  0  0  0  0
 10 15  1  0  0  0  0
 12 22  1  0  0  0  0
 14 10  2  0  0  0  0
 14 19  1  0  0  0  0
 15 21  1  0  0  0  0
 15  2  2  0  0  0  0
 16 10  1  0  0  0  0
 18 13  1  0  0  0  0
 19  7  2  0  0  0  0
 20 19  1  0  0  0  0
 20  8  1  0  0  0  0
 21 12  2  0  0  0  0
 22 23  1  0  0  0  0
 23 18  2  0  0  0  0
 24  5  1  0  0  0  0
 25 29  1  0  0  0  0
 25 27  1  0  0  0  0
 26 28  1  0  0  0  0
 27 28  1  0  0  0  0
 28 24  2  0  0  0  0
 29 26  2  0  0  0  0
 30 31  1  0  0  0  0
 30 29  1  0  0  0  0
M  END
>  <MODEL>
6

>  <REMARK>
 VINA RESULT:      -8.2      4.689      6.969
  Name = 
  2 active torsions:
  status: ('A' for Active; 'I' for Inactive)
    1  A    between atoms: O_1  and  C_24
    2  A    between atoms: C_3  and  C_9
                            x       y       z     vdW  Elec       q    Type
                         _______ _______ _______ _____ _____    ______ ____

>  <TORSDO>
F 2

$$$$
=
 OpenBabel11052417453D

 31 35  0  0  1  0  0  0  0  0999 V2000
  191.6190  174.5670  145.7690 C   0  0  1  0  0  3  0  0  0  0  0  0
  188.5990  175.6820  143.7910 C   0  0  0  0  0  0  0  0  0  0  0  0
  187.8490  176.4770  144.7070 C   0  0  0  0  0  0  0  0  0  0  0  0
  188.1910  173.6060  138.0970 O   0  0  0  0  0  0  0  0  0  0  0  0
  188.8230  173.6940  139.1820 C   0  0  0  0  0  0  0  0  0  0  0  0
  187.5410  177.5270  146.8900 C   0  0  0  0  0  3  0  0  0  0  0  0
  189.8500  175.0950  144.1130 C   0  0  0  0  0  0  0  0  0  0  0  0
  192.5650  174.4050  144.5880 C   0  0  0  0  0  2  0  0  0  0  0  0
  188.2960  176.7450  146.0130 C   0  0  0  0  0  3  0  0  0  0  0  0
  188.7820  174.6800  141.5620 C   0  0  0  0  0  0  0  0  0  0  0  0
  192.3120  175.3160  146.8870 C   0  0  0  0  0  1  0  0  0  0  0  0
  186.1120  176.7940  143.0230 C   0  0  0  0  0  3  0  0  0  0  0  0
  185.3750  179.0400  147.5730 Cl  0  0  0  0  0  0  0  0  0  0  0  0
  189.9770  174.1440  141.9180 N   0  0  0  0  0  0  0  0  0  0  0  0
  188.0690  175.4610  142.4900 C   0  0  0  0  0  0  0  0  0  0  0  0
  188.2400  174.4540  140.2490 N   0  0  0  0  0  2  0  0  0  0  0  0
  190.4490  175.2780  145.3690 O   0  0  0  0  0  0  0  0  0  0  0  0
  186.3200  178.0590  146.4750 C   0  0  0  0  0  0  0  0  0  0  0  0
  190.5270  174.3350  143.1410 C   0  0  0  0  0  0  0  0  0  0  0  0
  191.8360  173.6760  143.4640 C   0  0  0  0  0  2  0  0  0  0  0  0
  186.8380  176.0180  142.1260 C   0  0  0  0  0  3  0  0  0  0  0  0
  186.6040  177.0270  144.3020 C   0  0  0  0  0  0  0  0  0  0  0  0
  185.8530  177.8100  145.1850 C   0  0  0  0  0  3  0  0  0  0  0  0
  190.1310  173.0280  139.3370 C   0  0  0  0  0  3  0  0  0  0  0  0
  193.4580  173.3060  137.4660 C   0  0  0  0  0  2  0  0  0  0  0  0
  191.2430  174.1680  137.5090 N   0  0  0  0  0  0  0  0  0  0  0  0
  192.7370  172.3780  138.8670 S   0  0  0  0  0  0  0  0  0  0  0  0
  191.2100  173.2460  138.5830 C   0  0  0  0  0  0  0  0  0  0  0  0
  192.3940  174.2070  136.9270 C   0  0  0  0  0  0  0  0  0  0  0  0
  192.6460  175.0490  135.8430 O   0  0  0  0  0  0  0  0  0  0  0  0
  193.0530  176.3980  136.0140 C   0  0  0  0  0  1  0  0  0  0  0  0
  1 11  1  1  0  0  0
  2  7  1  0  0  0  0
  2  3  1  0  0  0  0
  3  9  1  0  0  0  0
  4  5  2  0  0  0  0
  5 24  1  0  0  0  0
  5 16  1  0  0  0  0
  7 17  1  0  0  0  0
  8  1  1  0  0  0  0
  9  6  2  0  0  0  0
 10 14  2  0  0  0  0
 10 15  1  0  0  0  0
 12 22  1  0  0  0  0
 14 19  1  0  0  0  0
 15  2  2  0  0  0  0
 16 10  1  0  0  0  0
 17  1  1  0  0  0  0
 18  6  1  0  0  0  0
 18 13  1  0  0  0  0
 19 20  1  0  0  0  0
 19  7  2  0  0  0  0
 20  8  1  0  0  0  0
 21 15  1  0  0  0  0
 21 12  2  0  0  0  0
 22  3  2  0  0  0  0
 22 23  1  0  0  0  0
 23 18  2  0  0  0  0
 25 27  1  0  0  0  0
 26 28  1  0  0  0  0
 28 27  1  0  0  0  0
 28 24  2  0  0  0  0
 29 25  1  0  0  0  0
 29 26  2  0  0  0  0
 30 31  1  0  0  0  0
 30 29  1  0  0  0  0
M  END
>  <MODEL>
7

>  <REMARK>
 VINA RESULT:      -8.2      5.738      8.792
  Name = 
  2 active torsions:
  status: ('A' for Active; 'I' for Inactive)
    1  A    between atoms: O_1  and  C_24
    2  A    between atoms: C_3  and  C_9
                            x       y       z     vdW  Elec       q    Type
                         _______ _______ _______ _____ _____    ______ ____

>  <TORSDO>
F 2

$$$$
=
 OpenBabel11052417453D

 31 35  0  0  1  0  0  0  0  0999 V2000
  190.2880  173.6370  140.2220 C   0  0  1  0  0  3  0  0  0  0  0  0
  188.9840  176.0540  142.8170 C   0  0  0  0  0  0  0  0  0  0  0  0
  187.8960  176.7130  142.1720 C   0  0  0  0  0  0  0  0  0  0  0  0
  191.9750  176.2040  148.1020 O   0  0  0  0  0  0  0  0  0  0  0  0
  191.8120  175.7100  146.9550 C   0  0  0  0  0  0  0  0  0  0  0  0
  186.4120  177.0470  140.2630 C   0  0  0  0  0  3  0  0  0  0  0  0
  189.7380  175.0190  142.2070 C   0  0  0  0  0  0  0  0  0  0  0  0
  190.8570  172.6120  141.1920 C   0  0  0  0  0  2  0  0  0  0  0  0
  187.4810  176.3840  140.8700 C   0  0  0  0  0  3  0  0  0  0  0  0
  190.4050  175.8250  144.7990 C   0  0  0  0  0  0  0  0  0  0  0  0
  189.4960  172.9380  139.1370 C   0  0  0  0  0  1  0  0  0  0  0  0
  187.5620  178.1080  144.1460 C   0  0  0  0  0  3  0  0  0  0  0  0
  184.3940  178.8820  140.1890 Cl  0  0  0  0  0  0  0  0  0  0  0  0
  191.0940  174.8360  144.1730 N   0  0  0  0  0  0  0  0  0  0  0  0
  189.3360  176.4520  144.1360 C   0  0  0  0  0  0  0  0  0  0  0  0
  190.7620  176.2350  146.1310 N   0  0  0  0  0  2  0  0  0  0  0  0
  189.4450  174.5560  140.9140 O   0  0  0  0  0  0  0  0  0  0  0  0
  185.7340  178.0530  140.9500 C   0  0  0  0  0  0  0  0  0  0  0  0
  190.7890  174.4150  142.9230 C   0  0  0  0  0  0  0  0  0  0  0  0
  191.6240  173.3400  142.2900 C   0  0  0  0  0  2  0  0  0  0  0  0
  188.6220  177.4700  144.7790 C   0  0  0  0  0  3  0  0  0  0  0  0
  187.1940  177.7410  142.8570 C   0  0  0  0  0  0  0  0  0  0  0  0
  186.1240  178.3990  142.2430 C   0  0  0  0  0  3  0  0  0  0  0  0
  192.6860  174.6160  146.4860 C   0  0  0  0  0  3  0  0  0  0  0  0
  195.9030  174.5290  144.4150 C   0  0  0  0  0  2  0  0  0  0  0  0
  194.2900  176.0180  145.3290 N   0  0  0  0  0  0  0  0  0  0  0  0
  194.7670  173.3630  145.2490 S   0  0  0  0  0  0  0  0  0  0  0  0
  193.7940  174.7630  145.7570 C   0  0  0  0  0  0  0  0  0  0  0  0
  195.3740  175.9090  144.6370 C   0  0  0  0  0  0  0  0  0  0  0  0
  196.0340  177.0230  144.1160 O   0  0  0  0  0  0  0  0  0  0  0  0
  197.0460  176.9070  143.1270 C   0  0  0  0  0  1  0  0  0  0  0  0
  1 11  1  6  0  0  0
  1 17  1  0  0  0  0
  1  8  1  0  0  0  0
  2 15  1  0  0  0  0
  3  2  2  0  0  0  0
  3 22  1  0  0  0  0
  5  4  2  0  0  0  0
  6  9  2  0  0  0  0
  6 18  1  0  0  0  0
  7  2  1  0  0  0  0
  7 19  2  0  0  0  0
  8 20  1  0  0  0  0
  9  3  1  0  0  0  0
 10 16  1  0  0  0  0
 12 21  1  0  0  0  0
 13 18  1  0  0  0  0
 14 10  2  0  0  0  0
 15 21  2  0  0  0  0
 15 10  1  0  0  0  0
 16  5  1  0  0  0  0
 17  7  1  0  0  0  0
 18 23  2  0  0  0  0
 19 14  1  0  0  0  0
 20 19  1  0  0  0  0
 22 12  2  0  0  0  0
 23 22  1  0  0  0  0
 24  5  1  0  0  0  0
 25 29  1  0  0  0  0
 25 27  1  0  0  0  0
 26 28  1  0  0  0  0
 27 28  1  0  0  0  0
 28 24  2  0  0  0  0
 29 26  2  0  0  0  0
 30 29  1  0  0  0  0
 31 30  1  0  0  0  0
M  END
>  <MODEL>
8

>  <REMARK>
 VINA RESULT:      -8.1      6.250     10.735
  Name = 
  2 active torsions:
  status: ('A' for Active; 'I' for Inactive)
    1  A    between atoms: O_1  and  C_24
    2  A    between atoms: C_3  and  C_9
                            x       y       z     vdW  Elec       q    Type
                         _______ _______ _______ _____ _____    ______ ____

>  <TORSDO>
F 2

$$$$
=
 OpenBabel11052417453D

 31 35  0  0  1  0  0  0  0  0999 V2000
  186.8550  177.9970  143.7280 C   0  0  1  0  0  3  0  0  0  0  0  0
  189.7640  175.8600  144.8450 C   0  0  0  0  0  0  0  0  0  0  0  0
  190.1750  176.4390  146.0810 C   0  0  0  0  0  0  0  0  0  0  0  0
  191.4110  171.3760  141.0910 O   0  0  0  0  0  0  0  0  0  0  0  0
  190.6360  172.3260  141.3820 C   0  0  0  0  0  0  0  0  0  0  0  0
  189.9310  178.0800  147.8730 C   0  0  0  0  0  3  0  0  0  0  0  0
  188.6550  176.3310  144.0950 C   0  0  0  0  0  0  0  0  0  0  0  0
  186.1410  176.9270  142.9130 C   0  0  0  0  0  2  0  0  0  0  0  0
  189.5060  177.5320  146.6600 C   0  0  0  0  0  3  0  0  0  0  0  0
  190.1230  174.1630  143.1140 C   0  0  0  0  0  0  0  0  0  0  0  0
  185.8610  178.7260  144.6060 C   0  0  0  0  0  1  0  0  0  0  0  0
  191.9980  174.8250  146.2400 C   0  0  0  0  0  3  0  0  0  0  0  0
  191.5670  178.2280  150.0520 Cl  0  0  0  0  0  0  0  0  0  0  0  0
  189.0520  174.6480  142.4360 N   0  0  0  0  0  0  0  0  0  0  0  0
  190.5000  174.7570  144.3320 C   0  0  0  0  0  0  0  0  0  0  0  0
  190.8740  173.0510  142.5950 N   0  0  0  0  0  2  0  0  0  0  0  0
  187.8670  177.4040  144.5390 O   0  0  0  0  0  0  0  0  0  0  0  0
  191.0350  177.5420  148.5330 C   0  0  0  0  0  0  0  0  0  0  0  0
  188.3130  175.6900  142.8900 C   0  0  0  0  0  0  0  0  0  0  0  0
  187.1650  176.1870  142.0600 C   0  0  0  0  0  2  0  0  0  0  0  0
  191.6030  174.2570  145.0340 C   0  0  0  0  0  3  0  0  0  0  0  0
  191.2980  175.9050  146.7670 C   0  0  0  0  0  0  0  0  0  0  0  0
  191.7170  176.4580  147.9810 C   0  0  0  0  0  3  0  0  0  0  0  0
  189.5130  172.6690  140.4870 C   0  0  0  0  0  3  0  0  0  0  0  0
  189.3210  173.9830  136.8980 C   0  0  0  0  0  2  0  0  0  0  0  0
  190.8640  173.3410  138.5890 N   0  0  0  0  0  0  0  0  0  0  0  0
  188.1910  173.5060  138.2540 S   0  0  0  0  0  0  0  0  0  0  0  0
  189.6240  173.1240  139.2380 C   0  0  0  0  0  0  0  0  0  0  0  0
  190.7200  173.7830  137.3850 C   0  0  0  0  0  0  0  0  0  0  0  0
  191.8140  174.0650  136.5660 O   0  0  0  0  0  0  0  0  0  0  0  0
  192.6410  175.2000  136.7750 C   0  0  0  0  0  1  0  0  0  0  0  0
  1 17  1  0  0  0  0
  1 11  1  1  0  0  0
  2  3  1  0  0  0  0
  3  9  2  0  0  0  0
  3 22  1  0  0  0  0
  4  5  2  0  0  0  0
  5 16  1  0  0  0  0
  6 18  2  0  0  0  0
  7 17  1  0  0  0  0
  7  2  1  0  0  0  0
  8  1  1  0  0  0  0
  9  6  1  0  0  0  0
 10 15  1  0  0  0  0
 12 22  1  0  0  0  0
 14 19  1  0  0  0  0
 14 10  2  0  0  0  0
 15  2  2  0  0  0  0
 15 21  1  0  0  0  0
 16 10  1  0  0  0  0
 18 13  1  0  0  0  0
 19  7  2  0  0  0  0
 20 19  1  0  0  0  0
 20  8  1  0  0  0  0
 21 12  2  0  0  0  0
 22 23  2  0  0  0  0
 23 18  1  0  0  0  0
 24  5  1  0  0  0  0
 25 29  1  0  0  0  0
 25 27  1  0  0  0  0
 26 28  1  0  0  0  0
 27 28  1  0  0  0  0
 28 24  2  0  0  0  0
 29 26  2  0  0  0  0
 30 31  1  0  0  0  0
 30 29  1  0  0  0  0
M  END
>  <MODEL>
9

>  <REMARK>
 VINA RESULT:      -8.1      5.361      8.066
  Name = 
  2 active torsions:
  status: ('A' for Active; 'I' for Inactive)
    1  A    between atoms: O_1  and  C_24
    2  A    between atoms: C_3  and  C_9
                            x       y       z     vdW  Elec       q    Type
                         _______ _______ _______ _____ _____    ______ ____

>  <TORSDO>
F 2

$$$$
