=
 OpenBabel11052417383D

 25 27  0  0  1  0  0  0  0  0999 V2000
  189.5060  177.8300  144.8490 C   0  0  1  0  0  3  0  0  0  0  0  0
  188.6310  176.8410  144.0800 C   0  0  1  0  0  0  0  0  0  0  0  0
  191.2550  174.7610  143.1490 O   0  0  0  0  0  0  0  0  0  0  0  0
  189.0080  176.5420  145.5410 C   0  0  1  0  0  3  0  0  0  0  0  0
  187.1530  177.9430  142.7560 C   0  0  1  0  0  3  0  0  0  0  0  0
  190.5930  175.8680  142.6080 C   0  0  0  0  0  2  0  0  0  0  0  0
  192.3700  174.8580  145.2810 C   0  0  0  0  0  2  0  0  0  0  0  0
  191.3710  175.6660  146.1060 C   0  0  1  0  0  3  0  0  0  0  0  0
  188.2810  175.9060  141.7810 N   0  0  0  0  0  0  0  0  0  0  0  0
  188.3280  174.8310  140.8010 C   0  0  0  0  0  1  0  0  0  0  0  0
  187.2890  177.2530  143.9780 O   0  0  0  0  0  0  0  0  0  0  0  0
  190.8440  177.7890  144.4610 O   0  0  0  0  0  1  0  0  0  0  0  0
  192.3720  175.2840  143.8130 C   0  0  0  0  0  2  0  0  0  0  0  0
  187.3840  177.0080  141.5970 C   0  0  0  0  0  0  0  0  0  0  0  0
  189.9530  175.3320  145.6590 C   0  0  0  0  0  2  0  0  0  0  0  0
  186.8480  177.2200  140.4740 O   0  0  0  0  0  0  0  0  0  0  0  0
  189.1100  175.8190  142.9860 C   0  0  2  0  0  3  0  0  0  0  0  0
  191.5520  175.3430  147.5790 C   0  0  0  0  0  2  0  0  0  0  0  0
  191.4550  176.6080  148.4110 C   0  0  0  0  0  1  0  0  0  0  0  0
  185.7970  178.6510  142.6890 C   0  0  0  0  0  2  0  0  0  0  0  0
  185.5680  179.5910  143.8650 C   0  0  0  0  0  2  0  0  0  0  0  0
  184.4210  179.0930  144.7260 C   0  0  0  0  0  2  0  0  0  0  0  0
  184.9430  178.5850  146.0240 C   0  0  0  0  0  0  0  0  0  0  0  0
  185.6590  179.4270  146.8640 O   0  0  0  0  0  1  0  0  0  0  0  0
  184.7290  177.3280  146.3780 C   0  0  0  0  0  2  0  0  0  0  0  0
  1 12  1  6  0  0  0
  1  4  1  0  0  0  0
  2 11  1  6  0  0  0
  2  1  1  0  0  0  0
  2  4  1  0  0  0  0
  3 13  1  0  0  0  0
  4 15  1  6  0  0  0
  5 20  1  6  0  0  0
  5 11  1  0  0  0  0
  6  3  1  0  0  0  0
  7  8  1  0  0  0  0
  8 18  1  1  0  0  0
  9 17  1  0  0  0  0
 10  9  1  0  0  0  0
 13  7  1  0  0  0  0
 14  9  1  0  0  0  0
 14  5  1  0  0  0  0
 15  8  1  0  0  0  0
 16 14  2  0  0  0  0
 17  6  1  6  0  0  0
 17  2  1  0  0  0  0
 18 19  1  0  0  0  0
 20 21  1  0  0  0  0
 21 22  1  0  0  0  0
 22 23  1  0  0  0  0
 23 25  2  0  0  0  0
 23 24  1  0  0  0  0
M  END
>  <MODEL>
1

>  <REMARK>
 VINA RESULT:      -6.9      0.000      0.000
  Name = 
  5 active torsions:
  status: ('A' for Active; 'I' for Inactive)
    1  A    between atoms: C_2  and  C_21
    2  A    between atoms: C_6  and  C_15
    3  A    between atoms: C_8  and  C_11
    4  A    between atoms: C_15  and  C_25
    5  A    between atoms: C_21  and  C_25
                            x       y       z     vdW  Elec       q    Type
                         _______ _______ _______ _____ _____    ______ ____

>  <TORSDO>
F 5

$$$$
=
 OpenBabel11052417383D

 25 27  0  0  1  0  0  0  0  0999 V2000
  190.3450  178.2620  144.1470 C   0  0  1  0  0  3  0  0  0  0  0  0
  189.1730  177.2830  144.1120 C   0  0  1  0  0  0  0  0  0  0  0  0
  191.0890  174.5350  143.1870 O   0  0  0  0  0  0  0  0  0  0  0  0
  190.0450  177.3740  145.3760 C   0  0  1  0  0  3  0  0  0  0  0  0
  187.3950  178.2030  143.0400 C   0  0  1  0  0  3  0  0  0  0  0  0
  190.3590  175.5340  142.5320 C   0  0  0  0  0  2  0  0  0  0  0  0
  192.9240  175.0510  144.6560 C   0  0  0  0  0  2  0  0  0  0  0  0
  192.3720  176.2560  145.4150 C   0  0  1  0  0  3  0  0  0  0  0  0
  187.9160  175.7820  142.5470 N   0  0  0  0  0  0  0  0  0  0  0  0
  187.5100  174.4730  142.0580 C   0  0  0  0  0  1  0  0  0  0  0  0
  187.9260  177.9050  144.3130 O   0  0  0  0  0  0  0  0  0  0  0  0
  191.4330  177.8360  143.3880 O   0  0  0  0  0  1  0  0  0  0  0  0
  192.4090  175.0000  143.2180 C   0  0  0  0  0  2  0  0  0  0  0  0
  187.1030  176.9320  142.2840 C   0  0  0  0  0  0  0  0  0  0  0  0
  190.8690  176.0940  145.6040 C   0  0  0  0  0  2  0  0  0  0  0  0
  186.2030  176.8940  141.4000 O   0  0  0  0  0  0  0  0  0  0  0  0
  189.1270  175.9020  143.3640 C   0  0  2  0  0  3  0  0  0  0  0  0
  193.0660  176.3680  146.7610 C   0  0  0  0  0  2  0  0  0  0  0  0
  194.4030  177.0700  146.6070 C   0  0  0  0  0  1  0  0  0  0  0  0
  186.1720  179.1140  143.1700 C   0  0  0  0  0  2  0  0  0  0  0  0
  185.8150  179.4140  144.6200 C   0  0  0  0  0  2  0  0  0  0  0  0
  184.5310  178.7040  145.0070 C   0  0  0  0  0  2  0  0  0  0  0  0
  184.7350  177.9350  146.2640 C   0  0  0  0  0  0  0  0  0  0  0  0
  184.3760  178.4880  147.4860 O   0  0  0  0  0  1  0  0  0  0  0  0
  185.2640  176.7220  146.2210 C   0  0  0  0  0  2  0  0  0  0  0  0
  1 12  1  6  0  0  0
  1  4  1  0  0  0  0
  2  1  1  0  0  0  0
  2 11  1  1  0  0  0
  2  4  1  0  0  0  0
  3 13  1  0  0  0  0
  4 15  1  6  0  0  0
  5 20  1  1  0  0  0
  5 11  1  0  0  0  0
  6  3  1  0  0  0  0
  7  8  1  0  0  0  0
  8 15  1  0  0  0  0
  8 18  1  1  0  0  0
  9 17  1  0  0  0  0
 10  9  1  0  0  0  0
 13  7  1  0  0  0  0
 14  9  1  0  0  0  0
 14  5  1  0  0  0  0
 16 14  2  0  0  0  0
 17  6  1  6  0  0  0
 17  2  1  0  0  0  0
 19 18  1  0  0  0  0
 20 21  1  0  0  0  0
 21 22  1  0  0  0  0
 22 23  1  0  0  0  0
 23 24  1  0  0  0  0
 25 23  2  0  0  0  0
M  END
>  <MODEL>
2

>  <REMARK>
 VINA RESULT:      -6.9      1.174      1.232
  Name = 
  5 active torsions:
  status: ('A' for Active; 'I' for Inactive)
    1  A    between atoms: C_2  and  C_21
    2  A    between atoms: C_6  and  C_15
    3  A    between atoms: C_8  and  C_11
    4  A    between atoms: C_15  and  C_25
    5  A    between atoms: C_21  and  C_25
                            x       y       z     vdW  Elec       q    Type
                         _______ _______ _______ _____ _____    ______ ____

>  <TORSDO>
F 5

$$$$
=
 OpenBabel11052417383D

 25 27  0  0  1  0  0  0  0  0999 V2000
  190.0160  177.3890  145.8510 C   0  0  1  0  0  3  0  0  0  0  0  0
  189.2150  176.2430  145.2360 C   0  0  1  0  0  0  0  0  0  0  0  0
  191.4450  175.6670  142.6330 O   0  0  0  0  0  0  0  0  0  0  0  0
  190.3710  175.9270  146.2000 C   0  0  1  0  0  3  0  0  0  0  0  0
  187.0110  176.7750  145.1280 C   0  0  1  0  0  3  0  0  0  0  0  0
  190.3000  176.4440  142.8390 C   0  0  0  0  0  2  0  0  0  0  0  0
  193.4210  175.9250  143.9850 C   0  0  0  0  0  2  0  0  0  0  0  0
  192.8130  176.0890  145.3760 C   0  0  1  0  0  3  0  0  0  0  0  0
  188.0140  175.5960  143.1340 N   0  0  0  0  0  0  0  0  0  0  0  0
  187.8630  174.8030  141.9220 C   0  0  0  0  0  1  0  0  0  0  0  0
  187.9690  176.0420  145.8580 O   0  0  0  0  0  0  0  0  0  0  0  0
  190.8910  177.9890  144.9480 O   0  0  0  0  0  1  0  0  0  0  0  0
  192.5240  176.5190  142.8980 C   0  0  0  0  0  2  0  0  0  0  0  0
  186.8700  176.2140  143.7360 C   0  0  0  0  0  0  0  0  0  0  0  0
  191.5520  175.2430  145.4840 C   0  0  0  0  0  2  0  0  0  0  0  0
  185.7910  176.3330  143.0930 O   0  0  0  0  0  0  0  0  0  0  0  0
  189.3320  175.7020  143.7650 C   0  0  2  0  0  3  0  0  0  0  0  0
  193.8270  175.6660  146.4240 C   0  0  0  0  0  2  0  0  0  0  0  0
  195.1730  175.3970  145.7780 C   0  0  0  0  0  1  0  0  0  0  0  0
  185.6830  176.8270  145.8870 C   0  0  0  0  0  2  0  0  0  0  0  0
  185.3570  178.2210  146.4050 C   0  0  0  0  0  2  0  0  0  0  0  0
  184.0780  178.7360  145.7710 C   0  0  0  0  0  2  0  0  0  0  0  0
  184.3460  179.1840  144.3770 C   0  0  0  0  0  0  0  0  0  0  0  0
  183.5240  178.7640  143.3400 O   0  0  0  0  0  1  0  0  0  0  0  0
  185.3730  179.9800  144.1230 C   0  0  0  0  0  2  0  0  0  0  0  0
  1 12  1  6  0  0  0
  1  4  1  0  0  0  0
  2  1  1  0  0  0  0
  2 11  1  1  0  0  0
  2  4  1  0  0  0  0
  3  6  1  0  0  0  0
  3 13  1  0  0  0  0
  4 15  1  6  0  0  0
  5 11  1  0  0  0  0
  5 20  1  1  0  0  0
  7  8  1  0  0  0  0
  8 15  1  0  0  0  0
  8 18  1  1  0  0  0
  9 14  1  0  0  0  0
  9 17  1  0  0  0  0
 10  9  1  0  0  0  0
 13  7  1  0  0  0  0
 14  5  1  0  0  0  0
 16 14  2  0  0  0  0
 17  6  1  6  0  0  0
 17  2  1  0  0  0  0
 19 18  1  0  0  0  0
 20 21  1  0  0  0  0
 22 21  1  0  0  0  0
 23 22  1  0  0  0  0
 24 23  1  0  0  0  0
 25 23  2  0  0  0  0
M  END
>  <MODEL>
3

>  <REMARK>
 VINA RESULT:      -6.9      1.660      2.333
  Name = 
  5 active torsions:
  status: ('A' for Active; 'I' for Inactive)
    1  A    between atoms: C_2  and  C_21
    2  A    between atoms: C_6  and  C_15
    3  A    between atoms: C_8  and  C_11
    4  A    between atoms: C_15  and  C_25
    5  A    between atoms: C_21  and  C_25
                            x       y       z     vdW  Elec       q    Type
                         _______ _______ _______ _____ _____    ______ ____

>  <TORSDO>
F 5

$$$$
=
 OpenBabel11052417383D

 25 27  0  0  1  0  0  0  0  0999 V2000
  188.7220  176.0650  143.7210 C   0  0  1  0  0  3  0  0  0  0  0  0
  188.1070  177.1970  144.5420 C   0  0  1  0  0  0  0  0  0  0  0  0
  189.7200  176.3460  147.5010 O   0  0  0  0  0  0  0  0  0  0  0  0
  189.5010  177.3840  143.9210 C   0  0  1  0  0  3  0  0  0  0  0  0
  185.8800  177.3620  144.1350 C   0  0  1  0  0  3  0  0  0  0  0  0
  188.5010  176.0440  146.8830 C   0  0  0  0  0  2  0  0  0  0  0  0
  191.8350  175.8590  146.4580 C   0  0  0  0  0  2  0  0  0  0  0  0
  191.5560  176.2640  145.0120 C   0  0  1  0  0  3  0  0  0  0  0  0
  186.6360  177.6030  146.5310 N   0  0  0  0  0  0  0  0  0  0  0  0
  186.4010  178.0530  147.8950 C   0  0  0  0  0  1  0  0  0  0  0  0
  187.1350  177.9300  143.8350 O   0  0  0  0  0  0  0  0  0  0  0  0
  189.1780  175.0080  144.5050 O   0  0  0  0  0  1  0  0  0  0  0  0
  190.5860  175.3050  147.1440 C   0  0  0  0  0  2  0  0  0  0  0  0
  185.5530  177.5500  145.5940 C   0  0  0  0  0  0  0  0  0  0  0  0
  190.6070  177.4550  144.9900 C   0  0  0  0  0  2  0  0  0  0  0  0
  184.3570  177.6040  145.9910 O   0  0  0  0  0  0  0  0  0  0  0  0
  187.9990  177.2660  146.1090 C   0  0  2  0  0  3  0  0  0  0  0  0
  192.8640  176.6160  144.3240 C   0  0  0  0  0  2  0  0  0  0  0  0
  193.9560  176.8430  145.3530 C   0  0  0  0  0  1  0  0  0  0  0  0
  184.8010  177.9260  143.2060 C   0  0  0  0  0  2  0  0  0  0  0  0
  185.3850  178.7100  142.0380 C   0  0  0  0  0  2  0  0  0  0  0  0
  185.1340  177.9810  140.7310 C   0  0  0  0  0  2  0  0  0  0  0  0
  186.4290  177.5740  140.1200 C   0  0  0  0  0  0  0  0  0  0  0  0
  187.6190  177.7900  140.8010 O   0  0  0  0  0  1  0  0  0  0  0  0
  186.4480  177.0090  138.9230 C   0  0  0  0  0  2  0  0  0  0  0  0
  1  4  1  0  0  0  0
  1 12  1  1  0  0  0
  1  2  1  0  0  0  0
  2 11  1  6  0  0  0
  2 17  1  0  0  0  0
  4  2  1  0  0  0  0
  4 15  1  1  0  0  0
  5 20  1  6  0  0  0
  5 14  1  0  0  0  0
  6  3  1  0  0  0  0
  7 13  1  0  0  0  0
  8 18  1  1  0  0  0
  8  7  1  0  0  0  0
  9 10  1  0  0  0  0
 11  5  1  0  0  0  0
 13  3  1  0  0  0  0
 14 16  2  0  0  0  0
 14  9  1  0  0  0  0
 15  8  1  0  0  0  0
 17  9  1  0  0  0  0
 17  6  1  1  0  0  0
 18 19  1  0  0  0  0
 21 20  1  0  0  0  0
 22 21  1  0  0  0  0
 23 22  1  0  0  0  0
 23 24  1  0  0  0  0
 25 23  2  0  0  0  0
M  END
>  <MODEL>
4

>  <REMARK>
 VINA RESULT:      -6.6      2.033      4.241
  Name = 
  5 active torsions:
  status: ('A' for Active; 'I' for Inactive)
    1  A    between atoms: C_2  and  C_21
    2  A    between atoms: C_6  and  C_15
    3  A    between atoms: C_8  and  C_11
    4  A    between atoms: C_15  and  C_25
    5  A    between atoms: C_21  and  C_25
                            x       y       z     vdW  Elec       q    Type
                         _______ _______ _______ _____ _____    ______ ____

>  <TORSDO>
F 5

$$$$
=
 OpenBabel11052417383D

 25 27  0  0  1  0  0  0  0  0999 V2000
  188.5560  176.5460  143.6440 C   0  0  1  0  0  3  0  0  0  0  0  0
  187.9790  177.5640  144.6260 C   0  0  1  0  0  0  0  0  0  0  0  0
  189.2260  176.0010  147.4680 O   0  0  0  0  0  0  0  0  0  0  0  0
  189.4360  177.7090  144.1550 C   0  0  1  0  0  3  0  0  0  0  0  0
  185.8250  178.0490  144.0990 C   0  0  1  0  0  3  0  0  0  0  0  0
  188.0460  175.9570  146.7180 C   0  0  0  0  0  2  0  0  0  0  0  0
  191.3710  175.4860  146.5050 C   0  0  0  0  0  2  0  0  0  0  0  0
  191.2660  176.1830  145.1500 C   0  0  1  0  0  3  0  0  0  0  0  0
  186.3770  177.7510  146.5440 N   0  0  0  0  0  0  0  0  0  0  0  0
  186.0620  177.9610  147.9500 C   0  0  0  0  0  1  0  0  0  0  0  0
  187.1510  178.5200  144.0080 O   0  0  0  0  0  0  0  0  0  0  0  0
  188.8370  175.3160  144.2380 O   0  0  0  0  0  1  0  0  0  0  0  0
  190.0170  174.9550  146.9780 C   0  0  0  0  0  2  0  0  0  0  0  0
  185.3850  177.9950  145.5400 C   0  0  0  0  0  0  0  0  0  0  0  0
  190.4410  177.4550  145.2940 C   0  0  0  0  0  2  0  0  0  0  0  0
  184.1680  178.1060  145.8530 O   0  0  0  0  0  0  0  0  0  0  0  0
  187.7350  177.3500  146.1640 C   0  0  2  0  0  3  0  0  0  0  0  0
  192.6590  176.5100  144.6400 C   0  0  0  0  0  2  0  0  0  0  0  0
  193.6690  176.4190  145.7700 C   0  0  0  0  0  1  0  0  0  0  0  0
  184.8950  178.8930  143.2240 C   0  0  0  0  0  2  0  0  0  0  0  0
  184.1790  178.0670  142.1630 C   0  0  0  0  0  2  0  0  0  0  0  0
  182.6990  178.4040  142.1390 C   0  0  0  0  0  2  0  0  0  0  0  0
  182.1370  178.1270  140.7890 C   0  0  0  0  0  0  0  0  0  0  0  0
  182.9470  177.5980  139.7920 O   0  0  0  0  0  1  0  0  0  0  0  0
  180.8650  178.3880  140.5340 C   0  0  0  0  0  2  0  0  0  0  0  0
  1  4  1  0  0  0  0
  1 12  1  1  0  0  0
  1  2  1  0  0  0  0
  2 11  1  6  0  0  0
  2 17  1  0  0  0  0
  4  2  1  0  0  0  0
  4 15  1  1  0  0  0
  5 20  1  6  0  0  0
  5 14  1  0  0  0  0
  6  3  1  0  0  0  0
  7 13  1  0  0  0  0
  8 18  1  1  0  0  0
  8 15  1  0  0  0  0
  8  7  1  0  0  0  0
  9 10  1  0  0  0  0
 11  5  1  0  0  0  0
 13  3  1  0  0  0  0
 14 16  2  0  0  0  0
 14  9  1  0  0  0  0
 17  9  1  0  0  0  0
 17  6  1  6  0  0  0
 18 19  1  0  0  0  0
 21 20  1  0  0  0  0
 22 21  1  0  0  0  0
 23 22  1  0  0  0  0
 24 23  1  0  0  0  0
 25 23  2  0  0  0  0
M  END
>  <MODEL>
5

>  <REMARK>
 VINA RESULT:      -6.6      2.531      4.252
  Name = 
  5 active torsions:
  status: ('A' for Active; 'I' for Inactive)
    1  A    between atoms: C_2  and  C_21
    2  A    between atoms: C_6  and  C_15
    3  A    between atoms: C_8  and  C_11
    4  A    between atoms: C_15  and  C_25
    5  A    between atoms: C_21  and  C_25
                            x       y       z     vdW  Elec       q    Type
                         _______ _______ _______ _____ _____    ______ ____

>  <TORSDO>
F 5

$$$$
=
 OpenBabel11052417383D

 25 27  0  0  1  0  0  0  0  0999 V2000
  192.7240  176.1270  146.4080 C   0  0  1  0  0  3  0  0  0  0  0  0
  191.8130  175.2330  145.5680 C   0  0  1  0  0  0  0  0  0  0  0  0
  193.8130  175.3290  142.7280 O   0  0  0  0  0  0  0  0  0  0  0  0
  193.0130  174.6130  146.3040 C   0  0  1  0  0  3  0  0  0  0  0  0
  189.6440  175.8580  145.8010 C   0  0  1  0  0  3  0  0  0  0  0  0
  192.7350  176.0590  143.2380 C   0  0  0  0  0  2  0  0  0  0  0  0
  195.8920  175.1190  143.9240 C   0  0  0  0  0  2  0  0  0  0  0  0
  195.3960  174.9080  145.3520 C   0  0  1  0  0  3  0  0  0  0  0  0
  190.4290  175.2510  143.4790 N   0  0  0  0  0  0  0  0  0  0  0  0
  190.1440  174.8380  142.1130 C   0  0  0  0  0  1  0  0  0  0  0  0
  190.6040  174.9120  146.2140 O   0  0  0  0  0  0  0  0  0  0  0  0
  193.5670  176.9230  145.6350 O   0  0  0  0  0  1  0  0  0  0  0  0
  194.9590  176.0290  143.1260 C   0  0  0  0  0  2  0  0  0  0  0  0
  189.3700  175.7170  144.3250 C   0  0  0  0  0  0  0  0  0  0  0  0
  194.0960  174.1140  145.3290 C   0  0  0  0  0  2  0  0  0  0  0  0
  188.2570  176.0550  143.8350 O   0  0  0  0  0  0  0  0  0  0  0  0
  191.7920  175.1240  144.0000 C   0  0  2  0  0  3  0  0  0  0  0  0
  196.4540  174.1670  146.1520 C   0  0  0  0  0  2  0  0  0  0  0  0
  196.4880  172.7040  145.7520 C   0  0  0  0  0  1  0  0  0  0  0  0
  188.3780  175.7440  146.6540 C   0  0  0  0  0  2  0  0  0  0  0  0
  187.7040  177.0900  146.8860 C   0  0  0  0  0  2  0  0  0  0  0  0
  186.1970  176.9540  146.7770 C   0  0  0  0  0  2  0  0  0  0  0  0
  185.6350  178.1120  146.0300 C   0  0  0  0  0  0  0  0  0  0  0  0
  186.3270  178.6480  144.9520 O   0  0  0  0  0  1  0  0  0  0  0  0
  184.4760  178.6370  146.3960 C   0  0  0  0  0  2  0  0  0  0  0  0
  1 12  1  6  0  0  0
  2 11  1  1  0  0  0
  2  4  1  0  0  0  0
  2  1  1  0  0  0  0
  3 13  1  0  0  0  0
  3  6  1  0  0  0  0
  4 15  1  6  0  0  0
  4  1  1  0  0  0  0
  5 11  1  0  0  0  0
  5 20  1  1  0  0  0
  7  8  1  0  0  0  0
  8 18  1  1  0  0  0
  9 17  1  0  0  0  0
  9 14  1  0  0  0  0
 10  9  1  0  0  0  0
 13  7  1  0  0  0  0
 14  5  1  0  0  0  0
 15  8  1  0  0  0  0
 16 14  2  0  0  0  0
 17  6  1  6  0  0  0
 17  2  1  0  0  0  0
 19 18  1  0  0  0  0
 20 21  1  0  0  0  0
 22 21  1  0  0  0  0
 23 25  2  0  0  0  0
 23 22  1  0  0  0  0
 24 23  1  0  0  0  0
M  END
>  <MODEL>
6

>  <REMARK>
 VINA RESULT:      -6.2      2.299      3.828
  Name = 
  5 active torsions:
  status: ('A' for Active; 'I' for Inactive)
    1  A    between atoms: C_2  and  C_21
    2  A    between atoms: C_6  and  C_15
    3  A    between atoms: C_8  and  C_11
    4  A    between atoms: C_15  and  C_25
    5  A    between atoms: C_21  and  C_25
                            x       y       z     vdW  Elec       q    Type
                         _______ _______ _______ _____ _____    ______ ____

>  <TORSDO>
F 5

$$$$
=
 OpenBabel11052417383D

 25 27  0  0  1  0  0  0  0  0999 V2000
  187.8970  177.7530  142.2220 C   0  0  1  0  0  3  0  0  0  0  0  0
  188.1100  176.5840  143.1810 C   0  0  1  0  0  0  0  0  0  0  0  0
  186.1040  177.8810  145.7060 O   0  0  0  0  0  0  0  0  0  0  0  0
  186.8640  176.6050  142.2800 C   0  0  1  0  0  3  0  0  0  0  0  0
  190.3040  176.0080  143.2640 C   0  0  1  0  0  3  0  0  0  0  0  0
  187.4590  177.9270  145.3570 C   0  0  0  0  0  2  0  0  0  0  0  0
  184.3780  178.6660  144.2230 C   0  0  0  0  0  2  0  0  0  0  0  0
  184.8690  178.1310  142.8800 C   0  0  1  0  0  3  0  0  0  0  0  0
  189.0380  176.0490  145.4470 N   0  0  0  0  0  0  0  0  0  0  0  0
  188.8990  175.6480  146.8400 C   0  0  0  0  0  1  0  0  0  0  0  0
  189.0550  175.6500  142.7150 O   0  0  0  0  0  0  0  0  0  0  0  0
  187.4900  178.9190  142.8670 O   0  0  0  0  0  1  0  0  0  0  0  0
  185.5370  179.0340  145.1490 C   0  0  0  0  0  2  0  0  0  0  0  0
  190.2820  175.8540  144.7630 C   0  0  0  0  0  0  0  0  0  0  0  0
  185.5670  176.7940  143.0890 C   0  0  0  0  0  2  0  0  0  0  0  0
  191.3400  175.6160  145.4080 O   0  0  0  0  0  0  0  0  0  0  0  0
  187.8770  176.5920  144.7360 C   0  0  2  0  0  3  0  0  0  0  0  0
  183.6900  177.9720  141.9360 C   0  0  0  0  0  2  0  0  0  0  0  0
  184.1090  178.2900  140.5130 C   0  0  0  0  0  1  0  0  0  0  0  0
  191.4290  175.2090  142.6000 C   0  0  0  0  0  2  0  0  0  0  0  0
  190.9550  173.8660  142.0610 C   0  0  0  0  0  2  0  0  0  0  0  0
  191.1730  172.7740  143.0920 C   0  0  0  0  0  2  0  0  0  0  0  0
  189.8660  172.3360  143.6540 C   0  0  0  0  0  0  0  0  0  0  0  0
  188.8260  171.9820  142.8050 O   0  0  0  0  0  1  0  0  0  0  0  0
  189.6910  172.2890  144.9650 C   0  0  0  0  0  2  0  0  0  0  0  0
  1  4  1  0  0  0  0
  1 12  1  1  0  0  0
  1  2  1  0  0  0  0
  2 11  1  6  0  0  0
  2 17  1  0  0  0  0
  4 15  1  1  0  0  0
  4  2  1  0  0  0  0
  5 20  1  6  0  0  0
  5 14  1  0  0  0  0
  6  3  1  0  0  0  0
  7 13  1  0  0  0  0
  8 18  1  6  0  0  0
  8 15  1  0  0  0  0
  8  7  1  0  0  0  0
  9 10  1  0  0  0  0
 11  5  1  0  0  0  0
 13  3  1  0  0  0  0
 14 16  2  0  0  0  0
 14  9  1  0  0  0  0
 17  6  1  1  0  0  0
 17  9  1  0  0  0  0
 19 18  1  0  0  0  0
 21 20  1  0  0  0  0
 21 22  1  0  0  0  0
 22 23  1  0  0  0  0
 23 25  2  0  0  0  0
 24 23  1  0  0  0  0
M  END
>  <MODEL>
7

>  <REMARK>
 VINA RESULT:      -6.1      2.156      6.628
  Name = 
  5 active torsions:
  status: ('A' for Active; 'I' for Inactive)
    1  A    between atoms: C_2  and  C_21
    2  A    between atoms: C_6  and  C_15
    3  A    between atoms: C_8  and  C_11
    4  A    between atoms: C_15  and  C_25
    5  A    between atoms: C_21  and  C_25
                            x       y       z     vdW  Elec       q    Type
                         _______ _______ _______ _____ _____    ______ ____

>  <TORSDO>
F 5

$$$$
=
 OpenBabel11052417383D

 25 27  0  0  1  0  0  0  0  0999 V2000
  192.2690  176.8140  144.8140 C   0  0  1  0  0  3  0  0  0  0  0  0
  191.1480  175.7780  144.8570 C   0  0  1  0  0  0  0  0  0  0  0  0
  192.7970  173.4500  142.8720 O   0  0  0  0  0  0  0  0  0  0  0  0
  192.3220  175.6620  145.8420 C   0  0  1  0  0  3  0  0  0  0  0  0
  189.1330  176.7660  144.5120 C   0  0  1  0  0  3  0  0  0  0  0  0
  191.9020  174.5060  142.6710 C   0  0  0  0  0  2  0  0  0  0  0  0
  194.9480  173.7780  143.9020 C   0  0  0  0  0  2  0  0  0  0  0  0
  194.5960  174.7440  145.0300 C   0  0  1  0  0  3  0  0  0  0  0  0
  189.5470  174.5560  143.3650 N   0  0  0  0  0  0  0  0  0  0  0  0
  189.0490  173.3550  142.7100 C   0  0  0  0  0  1  0  0  0  0  0  0
  189.9880  176.2430  145.5050 O   0  0  0  0  0  0  0  0  0  0  0  0
  193.1240  176.6470  143.7260 O   0  0  0  0  0  1  0  0  0  0  0  0
  194.0700  173.9970  142.6700 C   0  0  0  0  0  2  0  0  0  0  0  0
  188.6720  175.6690  143.5870 C   0  0  0  0  0  0  0  0  0  0  0  0
  193.2010  174.4300  145.5550 C   0  0  0  0  0  2  0  0  0  0  0  0
  187.5710  175.7530  142.9770 O   0  0  0  0  0  0  0  0  0  0  0  0
  190.9290  174.5900  143.8500 C   0  0  2  0  0  3  0  0  0  0  0  0
  195.6210  174.6180  146.1440 C   0  0  0  0  0  2  0  0  0  0  0  0
  196.7400  173.6820  145.7260 C   0  0  0  0  0  1  0  0  0  0  0  0
  187.9720  177.5300  145.1540 C   0  0  0  0  0  2  0  0  0  0  0  0
  187.2950  176.7420  146.2670 C   0  0  0  0  0  2  0  0  0  0  0  0
  185.7880  176.7590  146.0870 C   0  0  0  0  0  2  0  0  0  0  0  0
  185.2260  178.0270  146.6270 C   0  0  0  0  0  0  0  0  0  0  0  0
  185.6810  178.5300  147.8390 O   0  0  0  0  0  1  0  0  0  0  0  0
  184.2880  178.6750  145.9550 C   0  0  0  0  0  2  0  0  0  0  0  0
  1 12  1  6  0  0  0
  1  2  1  0  0  0  0
  1  4  1  0  0  0  0
  2 11  1  1  0  0  0
  2  4  1  0  0  0  0
  4 15  1  6  0  0  0
  5 20  1  1  0  0  0
  5 11  1  0  0  0  0
  6  3  1  0  0  0  0
  7  8  1  0  0  0  0
  8 15  1  0  0  0  0
  8 18  1  1  0  0  0
  9 14  1  0  0  0  0
  9 17  1  0  0  0  0
 10  9  1  0  0  0  0
 13  3  1  0  0  0  0
 13  7  1  0  0  0  0
 14  5  1  0  0  0  0
 16 14  2  0  0  0  0
 17  6  1  6  0  0  0
 17  2  1  0  0  0  0
 19 18  1  0  0  0  0
 20 21  1  0  0  0  0
 22 21  1  0  0  0  0
 22 23  1  0  0  0  0
 23 24  1  0  0  0  0
 25 23  2  0  0  0  0
M  END
>  <MODEL>
8

>  <REMARK>
 VINA RESULT:      -6.0      2.053      3.108
  Name = 
  5 active torsions:
  status: ('A' for Active; 'I' for Inactive)
    1  A    between atoms: C_2  and  C_21
    2  A    between atoms: C_6  and  C_15
    3  A    between atoms: C_8  and  C_11
    4  A    between atoms: C_15  and  C_25
    5  A    between atoms: C_21  and  C_25
                            x       y       z     vdW  Elec       q    Type
                         _______ _______ _______ _____ _____    ______ ____

>  <TORSDO>
F 5

$$$$
=
 OpenBabel11052417383D

 25 27  0  0  1  0  0  0  0  0999 V2000
  187.8640  177.3100  142.1400 C   0  0  1  0  0  3  0  0  0  0  0  0
  187.9160  176.2280  143.2170 C   0  0  1  0  0  0  0  0  0  0  0  0
  186.3200  178.1320  145.6480 O   0  0  0  0  0  0  0  0  0  0  0  0
  186.6460  176.3860  142.3630 C   0  0  1  0  0  3  0  0  0  0  0  0
  189.9700  175.2660  143.2870 C   0  0  1  0  0  3  0  0  0  0  0  0
  187.6390  177.8890  145.2490 C   0  0  0  0  0  2  0  0  0  0  0  0
  184.6840  179.0650  144.1480 C   0  0  0  0  0  2  0  0  0  0  0  0
  184.9960  178.3100  142.8570 C   0  0  1  0  0  3  0  0  0  0  0  0
  188.8550  175.7700  145.4950 N   0  0  0  0  0  0  0  0  0  0  0  0
  188.7240  175.5500  146.9280 C   0  0  0  0  0  1  0  0  0  0  0  0
  188.6490  175.0920  142.8260 O   0  0  0  0  0  0  0  0  0  0  0  0
  187.7110  178.5920  142.6630 O   0  0  0  0  0  1  0  0  0  0  0  0
  185.9410  179.3050  144.9840 C   0  0  0  0  0  2  0  0  0  0  0  0
  190.0040  175.2770  144.7940 C   0  0  0  0  0  0  0  0  0  0  0  0
  185.4510  176.8950  143.1910 C   0  0  0  0  0  2  0  0  0  0  0  0
  191.0350  174.9160  145.4240 O   0  0  0  0  0  0  0  0  0  0  0  0
  187.7740  176.4410  144.7680 C   0  0  2  0  0  3  0  0  0  0  0  0
  183.7570  178.2750  141.9790 C   0  0  0  0  0  2  0  0  0  0  0  0
  184.1500  178.2910  140.5130 C   0  0  0  0  0  1  0  0  0  0  0  0
  190.8940  174.2070  142.6790 C   0  0  0  0  0  2  0  0  0  0  0  0
  190.1270  173.0920  141.9810 C   0  0  0  0  0  2  0  0  0  0  0  0
  190.5130  173.0200  140.5150 C   0  0  0  0  0  2  0  0  0  0  0  0
  189.2910  173.0470  139.6660 C   0  0  0  0  0  0  0  0  0  0  0  0
  188.9160  171.9180  138.9490 O   0  0  0  0  0  1  0  0  0  0  0  0
  188.5620  174.1490  139.5890 C   0  0  0  0  0  2  0  0  0  0  0  0
  1  4  1  0  0  0  0
  1 12  1  1  0  0  0
  1  2  1  0  0  0  0
  2 11  1  6  0  0  0
  2 17  1  0  0  0  0
  4 15  1  1  0  0  0
  4  2  1  0  0  0  0
  5 20  1  1  0  0  0
  5 14  1  0  0  0  0
  6  3  1  0  0  0  0
  7 13  1  0  0  0  0
  8 18  1  6  0  0  0
  8 15  1  0  0  0  0
  8  7  1  0  0  0  0
  9 10  1  0  0  0  0
 11  5  1  0  0  0  0
 13  3  1  0  0  0  0
 14 16  2  0  0  0  0
 14  9  1  0  0  0  0
 17  6  1  6  0  0  0
 17  9  1  0  0  0  0
 19 18  1  0  0  0  0
 21 20  1  0  0  0  0
 22 21  1  0  0  0  0
 23 22  1  0  0  0  0
 24 23  1  0  0  0  0
 25 23  2  0  0  0  0
M  END
>  <MODEL>
9

>  <REMARK>
 VINA RESULT:      -6.0      2.217      6.897
  Name = 
  5 active torsions:
  status: ('A' for Active; 'I' for Inactive)
    1  A    between atoms: C_2  and  C_21
    2  A    between atoms: C_6  and  C_15
    3  A    between atoms: C_8  and  C_11
    4  A    between atoms: C_15  and  C_25
    5  A    between atoms: C_21  and  C_25
                            x       y       z     vdW  Elec       q    Type
                         _______ _______ _______ _____ _____    ______ ____

>  <TORSDO>
F 5

$$$$
