=
 OpenBabel11052417473D

 31 36  0  0  0  0  0  0  0  0999 V2000
  185.5240  177.9280  140.9030 C   0  0  0  0  0  0  0  0  0  0  0  0
  187.4390  177.0730  144.0110 C   0  0  0  0  0  0  0  0  0  0  0  0
  186.6970  177.7450  145.1330 C   0  0  0  0  0  0  0  0  0  0  0  0
  184.5280  178.9370  145.2200 C   0  0  0  0  0  3  0  0  0  0  0  0
  187.0450  177.1640  142.6490 C   0  0  0  0  0  0  0  0  0  0  0  0
  186.3020  177.2940  139.9330 C   0  0  0  0  0  3  0  0  0  0  0  0
  185.9760  179.0370  144.8810 C   0  0  0  0  0  2  0  0  0  0  0  0
  189.3320  175.6550  143.3430 C   0  0  0  0  0  0  0  0  0  0  0  0
  184.3560  178.6430  140.5220 N   0  0  0  0  0  1  0  0  0  0  0  0
  187.7560  176.1260  146.6760 C   0  0  0  0  0  2  0  0  0  0  0  0
  184.0980  178.7210  146.4610 C   0  0  0  0  0  3  0  0  0  0  0  0
  188.9420  175.7770  142.0080 C   0  0  0  0  0  3  0  0  0  0  0  0
  188.5700  176.2860  144.3420 C   0  0  0  0  0  0  0  0  0  0  0  0
  185.8920  177.8590  142.2490 C   0  0  0  0  0  3  0  0  0  0  0  0
  184.9770  178.4720  147.6160 C   0  0  0  0  0  3  0  0  0  0  0  0
  187.8160  176.5120  141.6550 C   0  0  0  0  0  0  0  0  0  0  0  0
  187.4440  176.5860  140.3090 C   0  0  0  0  0  3  0  0  0  0  0  0
  188.9870  176.1720  145.7800 C   0  0  0  0  0  2  0  0  0  0  0  0
  186.8570  177.2980  146.4030 C   0  0  0  0  0  0  0  0  0  0  0  0
  186.1710  177.8660  147.5850 C   0  0  0  0  0  3  0  0  0  0  0  0
  190.4910  174.8890  143.7180 N   0  0  0  0  0  2  0  0  0  0  0  0
  196.5720  176.7220  142.6320 C   0  0  0  0  0  3  0  0  0  0  0  0
  193.8910  175.9170  142.5930 C   0  0  0  0  0  0  0  0  0  0  0  0
  193.8710  175.9020  145.0240 C   0  0  0  0  0  3  0  0  0  0  0  0
  192.5330  175.4990  145.0010 C   0  0  0  0  0  3  0  0  0  0  0  0
  195.9140  176.5290  141.4130 C   0  0  0  0  0  3  0  0  0  0  0  0
  191.8640  175.3040  143.7810 C   0  0  0  0  0  0  0  0  0  0  0  0
  194.5740  176.1260  141.3920 C   0  0  0  0  0  3  0  0  0  0  0  0
  194.5560  176.1120  143.8250 C   0  0  0  0  0  0  0  0  0  0  0  0
  192.5520  175.5150  142.5810 C   0  0  0  0  0  3  0  0  0  0  0  0
  195.8940  176.5140  143.8370 C   0  0  0  0  0  3  0  0  0  0  0  0
  1 14  1  0  0  0  0
  2 13  2  0  0  0  0
  2  3  1  0  0  0  0
  3 19  2  0  0  0  0
  4 11  2  0  0  0  0
  5  2  1  0  0  0  0
  6 17  1  0  0  0  0
  6  1  2  0  0  0  0
  7  3  1  0  0  0  0
  7  4  1  0  0  0  0
  8 21  1  0  0  0  0
  8 13  1  0  0  0  0
  9  1  1  0  0  0  0
 11 15  1  0  0  0  0
 12  8  2  0  0  0  0
 13 18  1  0  0  0  0
 14  5  2  0  0  0  0
 16 12  1  0  0  0  0
 16  5  1  0  0  0  0
 17 16  2  0  0  0  0
 18 10  1  0  0  0  0
 19 10  1  0  0  0  0
 19 20  1  0  0  0  0
 20 15  2  0  0  0  0
 21 27  1  0  0  0  0
 22 31  1  0  0  0  0
 23 29  1  0  0  0  0
 25 24  2  0  0  0  0
 26 22  2  0  0  0  0
 27 25  1  0  0  0  0
 28 26  1  0  0  0  0
 28 23  2  0  0  0  0
 29 31  2  0  0  0  0
 29 24  1  0  0  0  0
 30 23  1  0  0  0  0
 30 27  2  0  0  0  0
M  END
>  <MODEL>
1

>  <REMARK>
 VINA RESULT:     -10.2      0.000      0.000
  Name = 
  2 active torsions:
  status: ('A' for Active; 'I' for Inactive)
    1  A    between atoms: C_9  and  N_23
    2  A    between atoms: C_15  and  N_23
                            x       y       z     vdW  Elec       q    Type
                         _______ _______ _______ _____ _____    ______ ____

>  <TORSDO>
F 2

$$$$
=
 OpenBabel11052417473D

 31 36  0  0  0  0  0  0  0  0999 V2000
  186.5350  177.1270  141.0380 C   0  0  0  0  0  0  0  0  0  0  0  0
  187.6640  176.5490  144.5670 C   0  0  0  0  0  0  0  0  0  0  0  0
  186.8050  177.4500  145.4110 C   0  0  0  0  0  0  0  0  0  0  0  0
  184.8350  178.8540  144.8820 C   0  0  0  0  0  3  0  0  0  0  0  0
  187.5650  176.4780  143.1510 C   0  0  0  0  0  0  0  0  0  0  0  0
  187.4030  176.2820  140.3440 C   0  0  0  0  0  3  0  0  0  0  0  0
  186.3230  178.7570  144.8540 C   0  0  0  0  0  2  0  0  0  0  0  0
  189.4530  174.8650  144.5000 C   0  0  0  0  0  0  0  0  0  0  0  0
  185.5690  177.8930  140.3300 N   0  0  0  0  0  1  0  0  0  0  0  0
  187.3160  175.9760  147.3330 C   0  0  0  0  0  2  0  0  0  0  0  0
  184.1420  178.8670  146.0180 C   0  0  0  0  0  3  0  0  0  0  0  0
  189.3560  174.8280  143.1080 C   0  0  0  0  0  3  0  0  0  0  0  0
  188.5940  175.7090  145.2270 C   0  0  0  0  0  0  0  0  0  0  0  0
  186.6140  177.2200  142.4300 C   0  0  0  0  0  3  0  0  0  0  0  0
  184.7330  178.7030  147.3570 C   0  0  0  0  0  3  0  0  0  0  0  0
  188.4270  175.6130  142.4330 C   0  0  0  0  0  0  0  0  0  0  0  0
  188.3450  175.5260  141.0400 C   0  0  0  0  0  3  0  0  0  0  0  0
  188.6970  175.7660  146.7240 C   0  0  0  0  0  2  0  0  0  0  0  0
  186.6500  177.1800  146.7300 C   0  0  0  0  0  0  0  0  0  0  0  0
  185.8200  177.9820  147.6580 C   0  0  0  0  0  3  0  0  0  0  0  0
  190.4040  174.0490  145.2080 N   0  0  0  0  0  2  0  0  0  0  0  0
  196.8030  173.6190  145.8250 C   0  0  0  0  0  3  0  0  0  0  0  0
  194.0420  173.2980  145.4890 C   0  0  0  0  0  0  0  0  0  0  0  0
  193.7400  175.6920  145.7850 C   0  0  0  0  0  3  0  0  0  0  0  0
  192.3610  175.5280  145.6160 C   0  0  0  0  0  3  0  0  0  0  0  0
  196.2660  172.3480  145.5940 C   0  0  0  0  0  3  0  0  0  0  0  0
  191.8130  174.2560  145.3830 C   0  0  0  0  0  0  0  0  0  0  0  0
  194.8870  172.1860  145.4270 C   0  0  0  0  0  3  0  0  0  0  0  0
  194.5840  174.5820  145.7220 C   0  0  0  0  0  0  0  0  0  0  0  0
  192.6630  173.1450  145.3210 C   0  0  0  0  0  3  0  0  0  0  0  0
  195.9630  174.7350  145.8900 C   0  0  0  0  0  3  0  0  0  0  0  0
  1 14  1  0  0  0  0
  2 13  2  0  0  0  0
  2  3  1  0  0  0  0
  3 19  2  0  0  0  0
  4 11  2  0  0  0  0
  5  2  1  0  0  0  0
  6  1  2  0  0  0  0
  6 17  1  0  0  0  0
  7  4  1  0  0  0  0
  7  3  1  0  0  0  0
  8 21  1  0  0  0  0
  8 13  1  0  0  0  0
  9  1  1  0  0  0  0
 11 15  1  0  0  0  0
 12  8  2  0  0  0  0
 13 18  1  0  0  0  0
 14  5  2  0  0  0  0
 15 20  2  0  0  0  0
 16 12  1  0  0  0  0
 16  5  1  0  0  0  0
 17 16  2  0  0  0  0
 18 10  1  0  0  0  0
 19 10  1  0  0  0  0
 19 20  1  0  0  0  0
 21 27  1  0  0  0  0
 22 31  1  0  0  0  0
 23 29  1  0  0  0  0
 25 24  2  0  0  0  0
 26 22  2  0  0  0  0
 27 25  1  0  0  0  0
 28 23  2  0  0  0  0
 28 26  1  0  0  0  0
 29 24  1  0  0  0  0
 29 31  2  0  0  0  0
 30 27  2  0  0  0  0
 30 23  1  0  0  0  0
M  END
>  <MODEL>
2

>  <REMARK>
 VINA RESULT:     -10.1      1.892      2.255
  Name = 
  2 active torsions:
  status: ('A' for Active; 'I' for Inactive)
    1  A    between atoms: C_9  and  N_23
    2  A    between atoms: C_15  and  N_23
                            x       y       z     vdW  Elec       q    Type
                         _______ _______ _______ _____ _____    ______ ____

>  <TORSDO>
F 2

$$$$
=
 OpenBabel11052417473D

 31 36  0  0  0  0  0  0  0  0999 V2000
  184.8770  178.0890  141.1410 C   0  0  0  0  0  0  0  0  0  0  0  0
  187.3470  177.9490  143.9590 C   0  0  0  0  0  0  0  0  0  0  0  0
  186.5660  178.3150  145.1900 C   0  0  0  0  0  0  0  0  0  0  0  0
  184.1480  178.6750  145.5880 C   0  0  0  0  0  3  0  0  0  0  0  0
  186.7760  177.9000  142.6580 C   0  0  0  0  0  0  0  0  0  0  0  0
  185.6970  177.7700  140.0570 C   0  0  0  0  0  3  0  0  0  0  0  0
  185.4180  179.2750  145.0860 C   0  0  0  0  0  2  0  0  0  0  0  0
  189.5130  177.2830  143.0060 C   0  0  0  0  0  0  0  0  0  0  0  0
  183.4950  178.3520  140.9340 N   0  0  0  0  0  1  0  0  0  0  0  0
  188.3070  177.1640  146.5200 C   0  0  0  0  0  2  0  0  0  0  0  0
  183.9810  178.3180  146.8590 C   0  0  0  0  0  3  0  0  0  0  0  0
  188.9390  177.2640  141.7330 C   0  0  0  0  0  3  0  0  0  0  0  0
  188.7120  177.6040  144.1160 C   0  0  0  0  0  0  0  0  0  0  0  0
  185.4130  178.1490  142.4300 C   0  0  0  0  0  3  0  0  0  0  0  0
  185.0310  178.3890  147.8900 C   0  0  0  0  0  3  0  0  0  0  0  0
  187.5920  177.5610  141.5500 C   0  0  0  0  0  0  0  0  0  0  0  0
  187.0510  177.5040  140.2620 C   0  0  0  0  0  3  0  0  0  0  0  0
  189.3220  177.6390  145.4880 C   0  0  0  0  0  2  0  0  0  0  0  0
  187.0310  177.9490  146.4100 C   0  0  0  0  0  0  0  0  0  0  0  0
  186.3460  178.2380  147.6900 C   0  0  0  0  0  3  0  0  0  0  0  0
  190.9020  176.9680  143.2060 N   0  0  0  0  0  2  0  0  0  0  0  0
  194.6300  172.2290  145.4780 C   0  0  0  0  0  3  0  0  0  0  0  0
  193.4080  174.5910  144.6030 C   0  0  0  0  0  0  0  0  0  0  0  0
  191.4190  173.3280  144.0060 C   0  0  0  0  0  3  0  0  0  0  0  0
  190.8120  174.5090  143.5700 C   0  0  0  0  0  3  0  0  0  0  0  0
  195.3150  173.4450  145.5570 C   0  0  0  0  0  3  0  0  0  0  0  0
  191.4920  175.7360  143.6470 C   0  0  0  0  0  0  0  0  0  0  0  0
  194.7060  174.6260  145.1200 C   0  0  0  0  0  3  0  0  0  0  0  0
  192.7150  173.3610  144.5230 C   0  0  0  0  0  0  0  0  0  0  0  0
  192.7920  175.7660  144.1650 C   0  0  0  0  0  3  0  0  0  0  0  0
  193.3310  172.1860  144.9610 C   0  0  0  0  0  3  0  0  0  0  0  0
  1 14  1  0  0  0  0
  2 13  2  0  0  0  0
  2  3  1  0  0  0  0
  3 19  2  0  0  0  0
  4 11  2  0  0  0  0
  5  2  1  0  0  0  0
  6 17  1  0  0  0  0
  6  1  2  0  0  0  0
  7  3  1  0  0  0  0
  7  4  1  0  0  0  0
  8 21  1  0  0  0  0
  8 13  1  0  0  0  0
  9  1  1  0  0  0  0
 11 15  1  0  0  0  0
 12  8  2  0  0  0  0
 13 18  1  0  0  0  0
 14  5  2  0  0  0  0
 16 12  1  0  0  0  0
 16  5  1  0  0  0  0
 17 16  2  0  0  0  0
 18 10  1  0  0  0  0
 19 10  1  0  0  0  0
 19 20  1  0  0  0  0
 20 15  2  0  0  0  0
 21 27  1  0  0  0  0
 22 26  1  0  0  0  0
 23 28  1  0  0  0  0
 24 29  2  0  0  0  0
 25 27  2  0  0  0  0
 25 24  1  0  0  0  0
 27 30  1  0  0  0  0
 28 26  2  0  0  0  0
 29 23  1  0  0  0  0
 29 31  1  0  0  0  0
 30 23  2  0  0  0  0
 31 22  2  0  0  0  0
M  END
>  <MODEL>
3

>  <REMARK>
 VINA RESULT:      -9.9      1.658      2.311
  Name = 
  2 active torsions:
  status: ('A' for Active; 'I' for Inactive)
    1  A    between atoms: C_9  and  N_23
    2  A    between atoms: C_15  and  N_23
                            x       y       z     vdW  Elec       q    Type
                         _______ _______ _______ _____ _____    ______ ____

>  <TORSDO>
F 2

$$$$
=
 OpenBabel11052417473D

 31 36  0  0  0  0  0  0  0  0999 V2000
  191.3480  170.9470  142.8060 C   0  0  0  0  0  0  0  0  0  0  0  0
  192.3820  173.7910  145.0190 C   0  0  0  0  0  0  0  0  0  0  0  0
  193.8020  173.4930  145.4120 C   0  0  0  0  0  0  0  0  0  0  0  0
  195.4110  171.7630  144.6700 C   0  0  0  0  0  3  0  0  0  0  0  0
  191.6060  172.9390  144.1870 C   0  0  0  0  0  0  0  0  0  0  0  0
  190.0260  171.2980  142.5280 C   0  0  0  0  0  3  0  0  0  0  0  0
  194.2520  172.0690  145.5560 C   0  0  0  0  0  2  0  0  0  0  0  0
  190.4720  175.3300  145.1800 C   0  0  0  0  0  0  0  0  0  0  0  0
  191.8990  169.7570  142.2550 N   0  0  0  0  0  1  0  0  0  0  0  0
  194.0740  175.9050  145.8930 C   0  0  0  0  0  2  0  0  0  0  0  0
  196.5960  172.3500  144.8150 C   0  0  0  0  0  3  0  0  0  0  0  0
  189.7190  174.4670  144.3810 C   0  0  0  0  0  3  0  0  0  0  0  0
  191.8050  175.0010  145.4800 C   0  0  0  0  0  0  0  0  0  0  0  0
  192.1310  171.7630  143.6250 C   0  0  0  0  0  3  0  0  0  0  0  0
  196.8840  173.4150  145.7910 C   0  0  0  0  0  3  0  0  0  0  0  0
  190.2680  173.2910  143.8820 C   0  0  0  0  0  0  0  0  0  0  0  0
  189.4880  172.4680  143.0630 C   0  0  0  0  0  3  0  0  0  0  0  0
  192.6200  175.9150  146.3480 C   0  0  0  0  0  2  0  0  0  0  0  0
  194.6030  174.5010  145.8370 C   0  0  0  0  0  0  0  0  0  0  0  0
  196.0190  174.3350  146.2360 C   0  0  0  0  0  3  0  0  0  0  0  0
  189.9150  176.5540  145.6920 N   0  0  0  0  0  2  0  0  0  0  0  0
  183.9000  178.8600  145.5450 C   0  0  0  0  0  3  0  0  0  0  0  0
  186.5820  178.1410  145.1870 C   0  0  0  0  0  0  0  0  0  0  0  0
  186.4590  176.7370  147.1680 C   0  0  0  0  0  3  0  0  0  0  0  0
  187.7980  176.3800  146.9860 C   0  0  0  0  0  3  0  0  0  0  0  0
  184.6300  179.3800  144.4710 C   0  0  0  0  0  3  0  0  0  0  0  0
  188.5380  176.8950  145.9090 C   0  0  0  0  0  0  0  0  0  0  0  0
  185.9700  179.0210  144.2910 C   0  0  0  0  0  3  0  0  0  0  0  0
  185.8460  177.6160  146.2730 C   0  0  0  0  0  0  0  0  0  0  0  0
  187.9210  177.7770  145.0140 C   0  0  0  0  0  3  0  0  0  0  0  0
  184.5070  177.9790  146.4460 C   0  0  0  0  0  3  0  0  0  0  0  0
  1 14  1  0  0  0  0
  2  3  1  0  0  0  0
  2 13  2  0  0  0  0
  3  7  1  0  0  0  0
  3 19  2  0  0  0  0
  4 11  2  0  0  0  0
  4  7  1  0  0  0  0
  5  2  1  0  0  0  0
  6  1  2  0  0  0  0
  6 17  1  0  0  0  0
  8 13  1  0  0  0  0
  8 21  1  0  0  0  0
  9  1  1  0  0  0  0
 10 18  1  0  0  0  0
 11 15  1  0  0  0  0
 12  8  2  0  0  0  0
 13 18  1  0  0  0  0
 14  5  2  0  0  0  0
 15 20  2  0  0  0  0
 16  5  1  0  0  0  0
 16 12  1  0  0  0  0
 17 16  2  0  0  0  0
 19 10  1  0  0  0  0
 19 20  1  0  0  0  0
 21 27  1  0  0  0  0
 22 31  1  0  0  0  0
 23 29  1  0  0  0  0
 25 24  2  0  0  0  0
 26 22  2  0  0  0  0
 27 25  1  0  0  0  0
 28 26  1  0  0  0  0
 28 23  2  0  0  0  0
 29 31  2  0  0  0  0
 29 24  1  0  0  0  0
 30 23  1  0  0  0  0
 30 27  2  0  0  0  0
M  END
>  <MODEL>
4

>  <REMARK>
 VINA RESULT:      -9.9      2.974      8.642
  Name = 
  2 active torsions:
  status: ('A' for Active; 'I' for Inactive)
    1  A    between atoms: C_9  and  N_23
    2  A    between atoms: C_15  and  N_23
                            x       y       z     vdW  Elec       q    Type
                         _______ _______ _______ _____ _____    ______ ____

>  <TORSDO>
F 2

$$$$
=
 OpenBabel11052417473D

 31 36  0  0  0  0  0  0  0  0999 V2000
  185.0980  178.0800  146.8400 C   0  0  0  0  0  0  0  0  0  0  0  0
  187.7440  177.4330  144.2640 C   0  0  0  0  0  0  0  0  0  0  0  0
  187.0170  177.3930  142.9490 C   0  0  0  0  0  0  0  0  0  0  0  0
  184.6770  177.9040  142.3190 C   0  0  0  0  0  3  0  0  0  0  0  0
  187.0930  177.6410  145.5100 C   0  0  0  0  0  0  0  0  0  0  0  0
  185.8600  178.0660  148.0090 C   0  0  0  0  0  3  0  0  0  0  0  0
  185.6050  176.8880  142.8930 C   0  0  0  0  0  2  0  0  0  0  0  0
  189.8960  177.2820  145.4420 C   0  0  0  0  0  0  0  0  0  0  0  0
  183.6950  178.3060  146.9080 N   0  0  0  0  0  1  0  0  0  0  0  0
  189.1740  177.9060  141.8490 C   0  0  0  0  0  2  0  0  0  0  0  0
  184.7740  178.3310  141.0630 C   0  0  0  0  0  3  0  0  0  0  0  0
  189.2350  177.4630  146.6580 C   0  0  0  0  0  3  0  0  0  0  0  0
  189.1530  177.2880  144.2480 C   0  0  0  0  0  0  0  0  0  0  0  0
  185.7110  177.8730  145.6020 C   0  0  0  0  0  3  0  0  0  0  0  0
  185.8370  177.9290  140.1250 C   0  0  0  0  0  3  0  0  0  0  0  0
  187.8570  177.6470  146.7040 C   0  0  0  0  0  0  0  0  0  0  0  0
  187.2370  177.8520  147.9400 C   0  0  0  0  0  3  0  0  0  0  0  0
  189.8530  177.0810  142.9360 C   0  0  0  0  0  2  0  0  0  0  0  0
  187.7030  177.6090  141.7990 C   0  0  0  0  0  0  0  0  0  0  0  0
  187.0960  177.6090  140.4490 C   0  0  0  0  0  3  0  0  0  0  0  0
  191.3230  177.1010  145.3840 N   0  0  0  0  0  2  0  0  0  0  0  0
  195.7740  172.4520  145.6760 C   0  0  0  0  0  3  0  0  0  0  0  0
  194.2330  174.7890  145.6370 C   0  0  0  0  0  0  0  0  0  0  0  0
  192.2430  173.4560  145.2190 C   0  0  0  0  0  3  0  0  0  0  0  0
  191.4770  174.6250  145.2000 C   0  0  0  0  0  3  0  0  0  0  0  0
  196.3810  173.6970  145.8730 C   0  0  0  0  0  3  0  0  0  0  0  0
  192.0770  175.8800  145.4000 C   0  0  0  0  0  0  0  0  0  0  0  0
  195.6120  174.8650  145.8540 C   0  0  0  0  0  3  0  0  0  0  0  0
  193.6200  173.5310  145.4360 C   0  0  0  0  0  0  0  0  0  0  0  0
  193.4580  175.9510  145.6160 C   0  0  0  0  0  3  0  0  0  0  0  0
  194.3950  172.3680  145.4560 C   0  0  0  0  0  3  0  0  0  0  0  0
  1  9  1  0  0  0  0
  1  6  1  0  0  0  0
  2  5  1  0  0  0  0
  3  2  1  0  0  0  0
  4  7  1  0  0  0  0
  5 14  1  0  0  0  0
  5 16  2  0  0  0  0
  7  3  1  0  0  0  0
  8 12  2  0  0  0  0
 10 18  1  0  0  0  0
 11  4  2  0  0  0  0
 12 16  1  0  0  0  0
 13  2  2  0  0  0  0
 13  8  1  0  0  0  0
 14  1  2  0  0  0  0
 15 20  2  0  0  0  0
 15 11  1  0  0  0  0
 16 17  1  0  0  0  0
 17  6  2  0  0  0  0
 18 13  1  0  0  0  0
 19 10  1  0  0  0  0
 19  3  2  0  0  0  0
 20 19  1  0  0  0  0
 21 27  1  0  0  0  0
 21  8  1  0  0  0  0
 22 26  1  0  0  0  0
 23 28  1  0  0  0  0
 24 29  1  0  0  0  0
 25 24  2  0  0  0  0
 25 27  1  0  0  0  0
 27 30  2  0  0  0  0
 28 26  2  0  0  0  0
 29 31  1  0  0  0  0
 29 23  2  0  0  0  0
 30 23  1  0  0  0  0
 31 22  2  0  0  0  0
M  END
>  <MODEL>
5

>  <REMARK>
 VINA RESULT:      -9.6      2.305      4.610
  Name = 
  2 active torsions:
  status: ('A' for Active; 'I' for Inactive)
    1  A    between atoms: C_9  and  N_23
    2  A    between atoms: C_15  and  N_23
                            x       y       z     vdW  Elec       q    Type
                         _______ _______ _______ _____ _____    ______ ____

>  <TORSDO>
F 2

$$$$
=
 OpenBabel11052417473D

 31 36  0  0  0  0  0  0  0  0999 V2000
  190.9410  176.6650  147.0220 C   0  0  0  0  0  0  0  0  0  0  0  0
  188.0440  176.4460  144.6530 C   0  0  0  0  0  0  0  0  0  0  0  0
  186.8620  176.9720  145.4190 C   0  0  0  0  0  0  0  0  0  0  0  0
  186.6620  178.0690  147.6310 C   0  0  0  0  0  3  0  0  0  0  0  0
  189.3500  176.3430  145.2040 C   0  0  0  0  0  0  0  0  0  0  0  0
  191.9630  176.1310  146.2370 C   0  0  0  0  0  3  0  0  0  0  0  0
  186.7890  176.7730  146.9050 C   0  0  0  0  0  2  0  0  0  0  0  0
  188.8930  175.5340  142.5340 C   0  0  0  0  0  0  0  0  0  0  0  0
  191.2160  177.1010  148.3480 N   0  0  0  0  0  1  0  0  0  0  0  0
  185.7740  177.4270  143.2440 C   0  0  0  0  0  2  0  0  0  0  0  0
  185.6030  178.8620  147.4950 C   0  0  0  0  0  3  0  0  0  0  0  0
  190.1640  175.4180  143.1020 C   0  0  0  0  0  3  0  0  0  0  0  0
  187.8430  176.0660  143.3030 C   0  0  0  0  0  0  0  0  0  0  0  0
  189.6470  176.7730  146.5070 C   0  0  0  0  0  3  0  0  0  0  0  0
  184.4850  178.6100  146.5680 C   0  0  0  0  0  3  0  0  0  0  0  0
  190.4010  175.8180  144.4120 C   0  0  0  0  0  0  0  0  0  0  0  0
  191.6940  175.7100  144.9340 C   0  0  0  0  0  3  0  0  0  0  0  0
  186.4700  176.1830  142.7060 C   0  0  0  0  0  2  0  0  0  0  0  0
  185.7780  177.4290  144.7460 C   0  0  0  0  0  0  0  0  0  0  0  0
  184.5640  177.9830  145.3880 C   0  0  0  0  0  3  0  0  0  0  0  0
  188.6400  175.1320  141.1750 N   0  0  0  0  0  2  0  0  0  0  0  0
  190.0320  170.3950  137.0360 C   0  0  0  0  0  3  0  0  0  0  0  0
  189.2910  172.7150  138.4160 C   0  0  0  0  0  0  0  0  0  0  0  0
  189.8880  171.6450  140.5150 C   0  0  0  0  0  3  0  0  0  0  0  0
  189.5170  172.8050  141.2010 C   0  0  0  0  0  3  0  0  0  0  0  0
  189.5500  171.5050  136.3350 C   0  0  0  0  0  3  0  0  0  0  0  0
  189.0330  173.9250  140.5050 C   0  0  0  0  0  0  0  0  0  0  0  0
  189.1790  172.6650  137.0240 C   0  0  0  0  0  3  0  0  0  0  0  0
  189.7770  171.5930  139.1240 C   0  0  0  0  0  0  0  0  0  0  0  0
  188.9230  173.8710  139.1110 C   0  0  0  0  0  3  0  0  0  0  0  0
  190.1450  170.4380  138.4300 C   0  0  0  0  0  3  0  0  0  0  0  0
  1  9  1  0  0  0  0
  2  5  1  0  0  0  0
  2  3  1  0  0  0  0
  3  7  1  0  0  0  0
  5 14  2  0  0  0  0
  6  1  2  0  0  0  0
  7  4  1  0  0  0  0
  8 12  2  0  0  0  0
  8 13  1  0  0  0  0
 10 19  1  0  0  0  0
 11  4  2  0  0  0  0
 12 16  1  0  0  0  0
 13  2  2  0  0  0  0
 14  1  1  0  0  0  0
 15 11  1  0  0  0  0
 16 17  2  0  0  0  0
 16  5  1  0  0  0  0
 17  6  1  0  0  0  0
 18 10  1  0  0  0  0
 18 13  1  0  0  0  0
 19 20  1  0  0  0  0
 19  3  2  0  0  0  0
 20 15  2  0  0  0  0
 21  8  1  0  0  0  0
 22 31  1  0  0  0  0
 23 30  1  0  0  0  0
 23 29  1  0  0  0  0
 24 25  2  0  0  0  0
 26 28  1  0  0  0  0
 26 22  2  0  0  0  0
 27 21  1  0  0  0  0
 27 25  1  0  0  0  0
 28 23  2  0  0  0  0
 29 24  1  0  0  0  0
 30 27  2  0  0  0  0
 31 29  2  0  0  0  0
M  END
>  <MODEL>
6

>  <REMARK>
 VINA RESULT:      -9.3      3.251      5.829
  Name = 
  2 active torsions:
  status: ('A' for Active; 'I' for Inactive)
    1  A    between atoms: C_9  and  N_23
    2  A    between atoms: C_15  and  N_23
                            x       y       z     vdW  Elec       q    Type
                         _______ _______ _______ _____ _____    ______ ____

>  <TORSDO>
F 2

$$$$
=
 OpenBabel11052417473D

 31 36  0  0  0  0  0  0  0  0999 V2000
  184.7290  178.1050  141.0900 C   0  0  0  0  0  0  0  0  0  0  0  0
  187.2650  177.8710  143.8420 C   0  0  0  0  0  0  0  0  0  0  0  0
  186.5340  178.2770  145.0910 C   0  0  0  0  0  0  0  0  0  0  0  0
  184.1450  178.7430  145.5510 C   0  0  0  0  0  3  0  0  0  0  0  0
  186.6580  177.8400  142.5570 C   0  0  0  0  0  0  0  0  0  0  0  0
  185.5060  177.7450  139.9870 C   0  0  0  0  0  3  0  0  0  0  0  0
  185.4250  179.2850  145.0120 C   0  0  0  0  0  2  0  0  0  0  0  0
  189.3730  177.1070  142.8370 C   0  0  0  0  0  0  0  0  0  0  0  0
  183.3550  178.4270  140.9180 N   0  0  0  0  0  1  0  0  0  0  0  0
  188.2570  177.0570  146.3820 C   0  0  0  0  0  2  0  0  0  0  0  0
  183.9960  178.4000  146.8270 C   0  0  0  0  0  3  0  0  0  0  0  0
  188.7660  177.1070  141.5800 C   0  0  0  0  0  3  0  0  0  0  0  0
  188.6170  177.4680  143.9660 C   0  0  0  0  0  0  0  0  0  0  0  0
  185.3020  178.1480  142.3640 C   0  0  0  0  0  3  0  0  0  0  0  0
  185.0750  178.4300  147.8300 C   0  0  0  0  0  3  0  0  0  0  0  0
  187.4290  177.4610  141.4300 C   0  0  0  0  0  0  0  0  0  0  0  0
  186.8520  177.4220  140.1580 C   0  0  0  0  0  3  0  0  0  0  0  0
  189.2640  177.4830  145.3210 C   0  0  0  0  0  2  0  0  0  0  0  0
  187.0140  177.8960  146.3000 C   0  0  0  0  0  0  0  0  0  0  0  0
  186.3770  178.2210  147.5970 C   0  0  0  0  0  3  0  0  0  0  0  0
  190.7530  176.7330  143.0020 N   0  0  0  0  0  2  0  0  0  0  0  0
  192.4200  170.5990  141.9480 C   0  0  0  0  0  3  0  0  0  0  0  0
  191.2420  173.0680  142.5410 C   0  0  0  0  0  0  0  0  0  0  0  0
  193.3140  174.1890  141.9390 C   0  0  0  0  0  3  0  0  0  0  0  0
  192.7220  175.4200  142.2370 C   0  0  0  0  0  3  0  0  0  0  0  0
  191.0960  170.6560  142.3950 C   0  0  0  0  0  3  0  0  0  0  0  0
  191.3930  175.4870  142.6850 C   0  0  0  0  0  0  0  0  0  0  0  0
  190.5070  171.8890  142.6920 C   0  0  0  0  0  3  0  0  0  0  0  0
  192.5800  173.0100  142.0900 C   0  0  0  0  0  0  0  0  0  0  0  0
  190.6600  174.3040  142.8350 C   0  0  0  0  0  3  0  0  0  0  0  0
  193.1620  171.7740  141.7950 C   0  0  0  0  0  3  0  0  0  0  0  0
  1 14  1  0  0  0  0
  2 13  2  0  0  0  0
  2  3  1  0  0  0  0
  3 19  2  0  0  0  0
  4 11  2  0  0  0  0
  5  2  1  0  0  0  0
  6 17  1  0  0  0  0
  6  1  2  0  0  0  0
  7  3  1  0  0  0  0
  7  4  1  0  0  0  0
  8 21  1  0  0  0  0
  8 13  1  0  0  0  0
  9  1  1  0  0  0  0
 11 15  1  0  0  0  0
 12  8  2  0  0  0  0
 13 18  1  0  0  0  0
 14  5  2  0  0  0  0
 16 12  1  0  0  0  0
 16  5  1  0  0  0  0
 17 16  2  0  0  0  0
 18 10  1  0  0  0  0
 19 10  1  0  0  0  0
 19 20  1  0  0  0  0
 20 15  2  0  0  0  0
 22 26  1  0  0  0  0
 23 28  1  0  0  0  0
 23 30  1  0  0  0  0
 24 29  1  0  0  0  0
 24 25  2  0  0  0  0
 25 27  1  0  0  0  0
 26 28  2  0  0  0  0
 27 30  2  0  0  0  0
 27 21  1  0  0  0  0
 29 23  2  0  0  0  0
 31 22  2  0  0  0  0
 31 29  1  0  0  0  0
M  END
>  <MODEL>
7

>  <REMARK>
 VINA RESULT:      -9.2      1.964      2.921
  Name = 
  2 active torsions:
  status: ('A' for Active; 'I' for Inactive)
    1  A    between atoms: C_9  and  N_23
    2  A    between atoms: C_15  and  N_23
                            x       y       z     vdW  Elec       q    Type
                         _______ _______ _______ _____ _____    ______ ____

>  <TORSDO>
F 2

$$$$
=
 OpenBabel11052417473D

 31 36  0  0  0  0  0  0  0  0999 V2000
  184.8560  178.2490  146.3450 C   0  0  0  0  0  0  0  0  0  0  0  0
  187.4150  176.4190  144.3050 C   0  0  0  0  0  0  0  0  0  0  0  0
  186.9940  176.6120  142.8740 C   0  0  0  0  0  0  0  0  0  0  0  0
  185.2430  178.0130  141.8240 C   0  0  0  0  0  3  0  0  0  0  0  0
  186.6930  176.9480  145.4090 C   0  0  0  0  0  0  0  0  0  0  0  0
  185.3120  177.9850  147.6370 C   0  0  0  0  0  3  0  0  0  0  0  0
  185.5380  176.7370  142.5360 C   0  0  0  0  0  2  0  0  0  0  0  0
  189.0470  175.4530  145.8680 C   0  0  0  0  0  0  0  0  0  0  0  0
  183.6910  179.0410  146.1500 N   0  0  0  0  0  1  0  0  0  0  0  0
  189.3300  176.1200  142.2220 C   0  0  0  0  0  2  0  0  0  0  0  0
  185.7400  178.2900  140.6210 C   0  0  0  0  0  3  0  0  0  0  0  0
  188.3100  175.9600  146.9400 C   0  0  0  0  0  3  0  0  0  0  0  0
  188.6100  175.7010  144.5540 C   0  0  0  0  0  0  0  0  0  0  0  0
  185.5440  177.7380  145.2420 C   0  0  0  0  0  3  0  0  0  0  0  0
  186.6910  177.4310  139.8930 C   0  0  0  0  0  3  0  0  0  0  0  0
  187.1540  176.7020  146.7260 C   0  0  0  0  0  0  0  0  0  0  0  0
  186.4600  177.2140  147.8270 C   0  0  0  0  0  3  0  0  0  0  0  0
  189.3880  175.1490  143.3950 C   0  0  0  0  0  2  0  0  0  0  0  0
  187.9070  176.4590  141.8840 C   0  0  0  0  0  0  0  0  0  0  0  0
  187.6170  176.6360  140.4420 C   0  0  0  0  0  3  0  0  0  0  0  0
  190.2510  174.6930  146.0780 N   0  0  0  0  0  2  0  0  0  0  0  0
  196.5270  174.9160  144.6360 C   0  0  0  0  0  3  0  0  0  0  0  0
  193.8650  174.3110  145.2560 C   0  0  0  0  0  0  0  0  0  0  0  0
  193.3540  176.6860  145.3320 C   0  0  0  0  0  3  0  0  0  0  0  0
  192.0250  176.3800  145.6410 C   0  0  0  0  0  3  0  0  0  0  0  0
  196.1190  173.5830  144.7540 C   0  0  0  0  0  3  0  0  0  0  0  0
  191.6060  175.0450  145.7590 C   0  0  0  0  0  0  0  0  0  0  0  0
  194.7890  173.2800  145.0640 C   0  0  0  0  0  3  0  0  0  0  0  0
  194.2780  175.6570  145.1390 C   0  0  0  0  0  0  0  0  0  0  0  0
  192.5350  174.0160  145.5660 C   0  0  0  0  0  3  0  0  0  0  0  0
  195.6080  175.9530  144.8290 C   0  0  0  0  0  3  0  0  0  0  0  0
  1  6  1  0  0  0  0
  2 13  2  0  0  0  0
  2  5  1  0  0  0  0
  3  2  1  0  0  0  0
  4  7  1  0  0  0  0
  5 16  2  0  0  0  0
  6 17  2  0  0  0  0
  7  3  1  0  0  0  0
  8 21  1  0  0  0  0
  8 12  2  0  0  0  0
  9  1  1  0  0  0  0
 10 18  1  0  0  0  0
 11  4  2  0  0  0  0
 13  8  1  0  0  0  0
 14  5  1  0  0  0  0
 14  1  2  0  0  0  0
 15 20  2  0  0  0  0
 15 11  1  0  0  0  0
 16 12  1  0  0  0  0
 16 17  1  0  0  0  0
 18 13  1  0  0  0  0
 19 10  1  0  0  0  0
 19  3  2  0  0  0  0
 20 19  1  0  0  0  0
 22 26  2  0  0  0  0
 22 31  1  0  0  0  0
 23 30  1  0  0  0  0
 24 25  2  0  0  0  0
 25 27  1  0  0  0  0
 26 28  1  0  0  0  0
 27 21  1  0  0  0  0
 28 23  2  0  0  0  0
 29 23  1  0  0  0  0
 29 24  1  0  0  0  0
 30 27  2  0  0  0  0
 31 29  2  0  0  0  0
M  END
>  <MODEL>
8

>  <REMARK>
 VINA RESULT:      -9.0      1.844      4.320
  Name = 
  2 active torsions:
  status: ('A' for Active; 'I' for Inactive)
    1  A    between atoms: C_9  and  N_23
    2  A    between atoms: C_15  and  N_23
                            x       y       z     vdW  Elec       q    Type
                         _______ _______ _______ _____ _____    ______ ____

>  <TORSDO>
F 2

$$$$
=
 OpenBabel11052417473D

 31 36  0  0  0  0  0  0  0  0999 V2000
  195.6780  173.9910  144.7540 C   0  0  0  0  0  0  0  0  0  0  0  0
  191.9860  173.4800  144.3450 C   0  0  0  0  0  0  0  0  0  0  0  0
  191.8450  172.4690  143.2410 C   0  0  0  0  0  0  0  0  0  0  0  0
  193.4990  171.0840  142.0250 C   0  0  0  0  0  3  0  0  0  0  0  0
  193.2410  173.9670  144.8020 C   0  0  0  0  0  0  0  0  0  0  0  0
  195.6990  174.9560  145.7620 C   0  0  0  0  0  3  0  0  0  0  0  0
  192.8580  172.4250  142.1360 C   0  0  0  0  0  2  0  0  0  0  0  0
  190.8580  174.9130  145.9930 C   0  0  0  0  0  0  0  0  0  0  0  0
  196.8980  173.5070  144.2070 N   0  0  0  0  0  1  0  0  0  0  0  0
  189.5940  171.9530  144.1320 C   0  0  0  0  0  2  0  0  0  0  0  0
  192.8150  169.9910  141.6960 C   0  0  0  0  0  3  0  0  0  0  0  0
  192.0990  175.3970  146.4110 C   0  0  0  0  0  3  0  0  0  0  0  0
  190.8050  173.9420  144.9760 C   0  0  0  0  0  0  0  0  0  0  0  0
  194.4580  173.4990  144.2820 C   0  0  0  0  0  3  0  0  0  0  0  0
  191.3570  169.9500  141.4880 C   0  0  0  0  0  3  0  0  0  0  0  0
  193.2780  174.9350  145.8360 C   0  0  0  0  0  0  0  0  0  0  0  0
  194.5020  175.4250  146.3030 C   0  0  0  0  0  3  0  0  0  0  0  0
  189.4750  173.4250  144.5100 C   0  0  0  0  0  2  0  0  0  0  0  0
  190.7000  171.7500  143.1370 C   0  0  0  0  0  0  0  0  0  0  0  0
  190.4500  170.7180  142.1050 C   0  0  0  0  0  3  0  0  0  0  0  0
  189.6330  175.3780  146.5880 N   0  0  0  0  0  2  0  0  0  0  0  0
  184.5030  179.0370  145.2410 C   0  0  0  0  0  3  0  0  0  0  0  0
  186.4540  177.2870  146.2260 C   0  0  0  0  0  0  0  0  0  0  0  0
  187.9270  177.9180  144.3990 C   0  0  0  0  0  3  0  0  0  0  0  0
  188.8990  177.0430  144.8930 C   0  0  0  0  0  3  0  0  0  0  0  0
  184.2560  178.2860  146.3950 C   0  0  0  0  0  3  0  0  0  0  0  0
  188.6610  176.2880  146.0520 C   0  0  0  0  0  0  0  0  0  0  0  0
  185.2300  177.4120  146.8880 C   0  0  0  0  0  3  0  0  0  0  0  0
  186.7040  178.0440  145.0590 C   0  0  0  0  0  0  0  0  0  0  0  0
  187.4320  176.4150  146.7120 C   0  0  0  0  0  3  0  0  0  0  0  0
  185.7260  178.9160  144.5730 C   0  0  0  0  0  3  0  0  0  0  0  0
  1  6  1  0  0  0  0
  2  5  2  0  0  0  0
  2 13  1  0  0  0  0
  3  2  1  0  0  0  0
  4  7  1  0  0  0  0
  5 16  1  0  0  0  0
  6 17  2  0  0  0  0
  7  3  1  0  0  0  0
  8 12  1  0  0  0  0
  8 21  1  0  0  0  0
  9  1  1  0  0  0  0
 10 18  1  0  0  0  0
 11  4  2  0  0  0  0
 13  8  2  0  0  0  0
 14  1  2  0  0  0  0
 14  5  1  0  0  0  0
 15 11  1  0  0  0  0
 15 20  2  0  0  0  0
 16 17  1  0  0  0  0
 16 12  2  0  0  0  0
 18 13  1  0  0  0  0
 19  3  2  0  0  0  0
 19 10  1  0  0  0  0
 20 19  1  0  0  0  0
 22 26  1  0  0  0  0
 23 30  1  0  0  0  0
 23 28  1  0  0  0  0
 24 25  2  0  0  0  0
 24 29  1  0  0  0  0
 25 27  1  0  0  0  0
 26 28  2  0  0  0  0
 27 21  1  0  0  0  0
 27 30  2  0  0  0  0
 29 23  2  0  0  0  0
 31 29  1  0  0  0  0
 31 22  2  0  0  0  0
M  END
>  <MODEL>
9

>  <REMARK>
 VINA RESULT:      -9.0      2.919      8.924
  Name = 
  2 active torsions:
  status: ('A' for Active; 'I' for Inactive)
    1  A    between atoms: C_9  and  N_23
    2  A    between atoms: C_15  and  N_23
                            x       y       z     vdW  Elec       q    Type
                         _______ _______ _______ _____ _____    ______ ____

>  <TORSDO>
F 2

$$$$
