=
 OpenBabel11052420073D

 37 40  0  0  1  0  0  0  0  0999 V2000
  187.7680  173.6500  141.1230 C   0  0  0  0  0  2  0  0  0  0  0  0
  188.4730  176.5240  144.8240 C   0  0  1  0  0  3  0  0  0  0  0  0
  188.8370  173.5150  140.0320 C   0  0  1  0  0  3  0  0  0  0  0  0
  191.1610  173.7770  144.2350 C   0  0  0  0  0  2  0  0  0  0  0  0
  189.0280  175.1850  144.3990 C   0  0  2  0  0  3  0  0  0  0  0  0
  187.4390  176.8990  143.7680 C   0  0  1  0  0  3  0  0  0  0  0  0
  190.4720  174.9860  144.8780 C   0  0  1  0  0  3  0  0  0  0  0  0
  189.6330  172.3690  140.2530 O   0  0  0  0  0  0  0  0  0  0  0  0
  187.9760  176.2790  142.4820 C   0  0  2  0  0  3  0  0  0  0  0  0
  188.3640  175.8300  147.2720 C   0  0  0  0  0  3  0  0  0  0  0  0
  190.4020  172.5540  141.4260 C   0  0  2  0  0  3  0  0  0  0  0  0
  190.2270  172.5840  144.0080 C   0  0  0  0  0  2  0  0  0  0  0  0
  187.9710  176.6040  146.2470 C   0  0  0  0  0  3  0  0  0  0  0  0
  188.9230  175.1340  142.8830 C   0  0  2  0  0  3  0  0  0  0  0  0
  190.6060  174.9120  146.4090 C   0  0  2  0  0  3  0  0  0  0  0  0
  189.4870  172.6470  142.6600 C   0  0  1  0  0  3  0  0  0  0  0  0
  188.4030  173.7350  142.5170 C   0  0  2  0  0  3  0  0  0  0  0  0
  189.3030  174.6560  147.1850 C   0  0  0  0  0  2  0  0  0  0  0  0
  191.4930  177.1620  146.3400 O   0  0  0  0  0  1  0  0  0  0  0  0
  191.5890  175.9400  147.0240 C   0  0  2  0  0  0  0  0  0  0  0  0
  193.6190  175.9430  145.7340 O   0  0  0  0  0  1  0  0  0  0  0  0
  193.0210  175.4300  146.8870 C   0  0  0  0  0  2  0  0  0  0  0  0
  191.3220  176.1210  148.4040 O   0  0  0  0  0  0  0  0  0  0  0  0
  190.3930  178.1810  148.6790 F   0  0  0  0  0  0  0  0  0  0  0  0
  191.5680  177.4580  148.7590 C   0  0  0  0  0  2  0  0  0  0  0  0
  191.2480  173.6670  141.3060 O   0  0  0  0  0  0  0  0  0  0  0  0
  192.4400  173.1550  140.7920 C   0  0  0  0  0  1  0  0  0  0  0  0
  187.8230  174.7050  138.1580 N   0  0  0  0  0  1  0  0  0  0  0  0
  188.1730  173.3930  138.6710 C   0  0  0  0  0  2  0  0  0  0  0  0
  188.6670  177.3450  141.6140 C   0  0  2  0  0  3  0  0  0  0  0  0
  189.6340  178.1630  142.4420 C   0  0  0  0  0  1  0  0  0  0  0  0
  187.7040  178.2840  140.8890 C   0  0  0  0  0  2  0  0  0  0  0  0
  186.5620  177.5180  140.2380 C   0  0  0  0  0  2  0  0  0  0  0  0
  185.2380  178.2030  140.5160 C   0  0  0  0  0  1  0  0  0  0  0  0
  186.0630  176.3070  144.0670 C   0  0  0  0  0  2  0  0  0  0  0  0
  184.9960  177.3820  143.9810 C   0  0  0  0  0  2  0  0  0  0  0  0
  185.6250  178.7360  144.2380 C   0  0  0  0  0  1  0  0  0  0  0  0
  1 17  1  0  0  0  0
  2 13  1  1  0  0  0
  3 29  1  6  0  0  0
  3  8  1  0  0  0  0
  3  1  1  0  0  0  0
  4  7  1  0  0  0  0
  5  2  1  0  0  0  0
  5  7  1  0  0  0  0
  6 35  1  0  0  0  0
  6  2  1  0  0  0  0
  7 15  1  0  0  0  0
  8 11  1  0  0  0  0
  9 14  1  0  0  0  0
  9  6  1  0  0  0  0
 11 16  1  0  0  0  0
 12  4  1  0  0  0  0
 13 10  2  0  0  0  0
 14  5  1  0  0  0  0
 15 20  1  0  0  0  0
 15 18  1  0  0  0  0
 16 12  1  0  0  0  0
 17 16  1  0  0  0  0
 17 14  1  0  0  0  0
 18 10  1  0  0  0  0
 19 20  1  0  0  0  0
 20 23  1  0  0  0  0
 21 22  1  0  0  0  0
 22 20  1  0  0  0  0
 23 25  1  0  0  0  0
 24 25  1  0  0  0  0
 26 11  1  0  0  0  0
 27 26  1  0  0  0  0
 28 29  1  0  0  0  0
 30 31  1  0  0  0  0
 30  9  1  0  0  0  0
 32 30  1  0  0  0  0
 33 34  1  0  0  0  0
 33 32  1  0  0  0  0
 36 35  1  0  0  0  0
 36 37  1  0  0  0  0
M  END
>  <MODEL>
1

>  <REMARK>
 VINA RESULT:      -6.3      0.000      0.000
  Name = 
  11 active torsions:
  status: ('A' for Active; 'I' for Inactive)
    1  A    between atoms: C_3  and  C_32
    2  A    between atoms: C_5  and  C_23
    3  A    between atoms: C_8  and  O_18
    4  A    between atoms: C_8  and  C_19
    5  A    between atoms: C_8  and  C_31
    6  A    between atoms: C_9  and  C_13
    7  A    between atoms: C_9  and  C_16
    8  A    between atoms: O_11  and  C_26
    9  A    between atoms: O_18  and  C_35
   10  A    between atoms: C_20  and  C_21
   11  A    between atoms: C_21  and  C_32
                            x       y       z     vdW  Elec       q    Type
                         _______ _______ _______ _____ _____    ______ ____

>  <TORSDO>
F 11

$$$$
=
 OpenBabel11052420073D

 37 40  0  0  1  0  0  0  0  0999 V2000
  193.3190  175.7930  145.4400 C   0  0  0  0  0  2  0  0  0  0  0  0
  188.6040  175.3250  145.4410 C   0  0  1  0  0  3  0  0  0  0  0  0
  194.1500  175.2570  144.2680 C   0  0  1  0  0  3  0  0  0  0  0  0
  190.1550  177.1620  142.3850 C   0  0  0  0  0  2  0  0  0  0  0  0
  189.5840  176.1910  144.6850 C   0  0  2  0  0  3  0  0  0  0  0  0
  189.4400  174.5020  146.4140 C   0  0  1  0  0  3  0  0  0  0  0  0
  189.0790  176.5310  143.2770 C   0  0  1  0  0  3  0  0  0  0  0  0
  194.4530  176.2930  143.3570 O   0  0  0  0  0  0  0  0  0  0  0  0
  190.7670  174.3000  145.6890 C   0  0  2  0  0  3  0  0  0  0  0  0
  186.9330  177.2320  145.6830 C   0  0  0  0  0  3  0  0  0  0  0  0
  193.2620  176.7240  142.7270 C   0  0  2  0  0  3  0  0  0  0  0  0
  191.1070  178.0980  143.1360 C   0  0  0  0  0  2  0  0  0  0  0  0
  187.4410  176.0520  146.0760 C   0  0  0  0  0  3  0  0  0  0  0  0
  190.8970  175.4240  144.6460 C   0  0  2  0  0  3  0  0  0  0  0  0
  187.8160  177.4090  143.2740 C   0  0  2  0  0  3  0  0  0  0  0  0
  192.3110  177.3630  143.7530 C   0  0  1  0  0  3  0  0  0  0  0  0
  192.0140  176.4340  144.9490 C   0  0  2  0  0  3  0  0  0  0  0  0
  187.4880  178.1180  144.5990 C   0  0  0  0  0  2  0  0  0  0  0  0
  186.7270  175.4200  142.4320 O   0  0  0  0  0  1  0  0  0  0  0  0
  186.6180  176.8180  142.4880 C   0  0  2  0  0  0  0  0  0  0  0  0
  187.3470  176.5050  140.2180 O   0  0  0  0  0  1  0  0  0  0  0  0
  186.6240  177.3530  141.0590 C   0  0  0  0  0  2  0  0  0  0  0  0
  185.3920  177.1970  143.0890 O   0  0  0  0  0  0  0  0  0  0  0  0
  184.8230  179.4000  143.1250 F   0  0  0  0  0  0  0  0  0  0  0  0
  184.8150  178.2500  142.3590 C   0  0  0  0  0  2  0  0  0  0  0  0
  192.6550  175.6750  142.0210 O   0  0  0  0  0  0  0  0  0  0  0  0
  193.5970  175.2980  141.0620 C   0  0  0  0  0  1  0  0  0  0  0  0
  196.5300  174.9180  143.8470 N   0  0  0  0  0  1  0  0  0  0  0  0
  195.4510  174.6670  144.7850 C   0  0  0  0  0  2  0  0  0  0  0  0
  190.8350  172.8970  145.0620 C   0  0  2  0  0  3  0  0  0  0  0  0
  191.7910  172.8830  143.8900 C   0  0  0  0  0  1  0  0  0  0  0  0
  189.4810  172.3450  144.6150 C   0  0  0  0  0  2  0  0  0  0  0  0
  189.5090  171.9110  143.1580 C   0  0  0  0  0  2  0  0  0  0  0  0
  188.4880  172.6910  142.3530 C   0  0  0  0  0  1  0  0  0  0  0  0
  189.6990  175.2410  147.7260 C   0  0  0  0  0  2  0  0  0  0  0  0
  191.1860  175.2930  148.0180 C   0  0  0  0  0  2  0  0  0  0  0  0
  191.5620  176.6900  148.4660 C   0  0  0  0  0  1  0  0  0  0  0  0
  2 13  1  1  0  0  0
  2  6  1  0  0  0  0
  3 29  1  1  0  0  0
  3  1  1  0  0  0  0
  4 12  1  0  0  0  0
  4  7  1  0  0  0  0
  5  2  1  0  0  0  0
  6 35  1  0  0  0  0
  7  5  1  0  0  0  0
  8  3  1  0  0  0  0
  9  6  1  0  0  0  0
 10 13  2  0  0  0  0
 11  8  1  0  0  0  0
 11 16  1  0  0  0  0
 12 16  1  0  0  0  0
 14  5  1  0  0  0  0
 14 17  1  0  0  0  0
 14  9  1  0  0  0  0
 15  7  1  0  0  0  0
 15 18  1  0  0  0  0
 16 17  1  0  0  0  0
 17  1  1  0  0  0  0
 18 10  1  0  0  0  0
 19 20  1  0  0  0  0
 20 23  1  0  0  0  0
 20 15  1  0  0  0  0
 21 22  1  0  0  0  0
 22 20  1  0  0  0  0
 25 23  1  0  0  0  0
 25 24  1  0  0  0  0
 26 11  1  0  0  0  0
 27 26  1  0  0  0  0
 28 29  1  0  0  0  0
 30  9  1  0  0  0  0
 31 30  1  0  0  0  0
 32 30  1  0  0  0  0
 33 32  1  0  0  0  0
 34 33  1  0  0  0  0
 35 36  1  0  0  0  0
 36 37  1  0  0  0  0
M  END
>  <MODEL>
2

>  <REMARK>
 VINA RESULT:      -6.2      3.139      6.189
  Name = 
  11 active torsions:
  status: ('A' for Active; 'I' for Inactive)
    1  A    between atoms: C_3  and  C_32
    2  A    between atoms: C_5  and  C_23
    3  A    between atoms: C_8  and  O_18
    4  A    between atoms: C_8  and  C_19
    5  A    between atoms: C_8  and  C_31
    6  A    between atoms: C_9  and  C_13
    7  A    between atoms: C_9  and  C_16
    8  A    between atoms: O_11  and  C_26
    9  A    between atoms: O_18  and  C_35
   10  A    between atoms: C_20  and  C_21
   11  A    between atoms: C_21  and  C_32
                            x       y       z     vdW  Elec       q    Type
                         _______ _______ _______ _____ _____    ______ ____

>  <TORSDO>
F 11

$$$$
=
 OpenBabel11052420073D

 37 40  0  0  1  0  0  0  0  0999 V2000
  188.1270  176.4520  142.6400 C   0  0  0  0  0  2  0  0  0  0  0  0
  192.1190  174.0430  141.7930 C   0  0  1  0  0  3  0  0  0  0  0  0
  187.5960  176.5910  144.0720 C   0  0  1  0  0  3  0  0  0  0  0  0
  192.3830  176.9860  144.3200 C   0  0  0  0  0  2  0  0  0  0  0  0
  191.7990  175.3860  142.4080 C   0  0  2  0  0  3  0  0  0  0  0  0
  190.7820  173.4600  141.3500 C   0  0  1  0  0  3  0  0  0  0  0  0
  192.8220  175.7800  143.4810 C   0  0  1  0  0  3  0  0  0  0  0  0
  187.9820  177.8300  144.6300 O   0  0  0  0  0  0  0  0  0  0  0  0
  189.7810  174.0050  142.3650 C   0  0  2  0  0  3  0  0  0  0  0  0
  194.1640  174.9580  140.5820 C   0  0  0  0  0  3  0  0  0  0  0  0
  189.3850  177.8420  144.8120 C   0  0  2  0  0  3  0  0  0  0  0  0
  191.6190  178.0470  143.5210 C   0  0  0  0  0  2  0  0  0  0  0  0
  193.1830  174.0500  140.7200 C   0  0  0  0  0  3  0  0  0  0  0  0
  190.3930  175.2760  142.9780 C   0  0  2  0  0  3  0  0  0  0  0  0
  194.2360  176.0170  142.9240 C   0  0  2  0  0  3  0  0  0  0  0  0
  190.1050  177.7760  143.4540 C   0  0  1  0  0  3  0  0  0  0  0  0
  189.6560  176.5710  142.6010 C   0  0  2  0  0  3  0  0  0  0  0  0
  194.3340  176.2100  141.4010 C   0  0  0  0  0  2  0  0  0  0  0  0
  195.6660  175.6910  144.8480 O   0  0  0  0  0  1  0  0  0  0  0  0
  195.3450  175.1630  143.5880 C   0  0  2  0  0  0  0  0  0  0  0  0
  197.7370  175.4100  143.5140 O   0  0  0  0  0  1  0  0  0  0  0  0
  196.6050  175.1930  142.7260 C   0  0  0  0  0  2  0  0  0  0  0  0
  194.9320  173.8130  143.7060 O   0  0  0  0  0  0  0  0  0  0  0  0
  193.7500  173.3130  145.5850 F   0  0  0  0  0  0  0  0  0  0  0  0
  195.0200  173.4090  145.0490 C   0  0  0  0  0  2  0  0  0  0  0  0
  189.7910  176.8190  145.6800 O   0  0  0  0  0  0  0  0  0  0  0  0
  189.7460  177.3910  146.9520 C   0  0  0  0  0  1  0  0  0  0  0  0
  185.5070  177.6770  144.7170 N   0  0  0  0  0  1  0  0  0  0  0  0
  186.0790  176.5100  144.0690 C   0  0  0  0  0  2  0  0  0  0  0  0
  189.4460  172.9380  143.4220 C   0  0  2  0  0  3  0  0  0  0  0  0
  189.7500  173.4520  144.8130 C   0  0  0  0  0  1  0  0  0  0  0  0
  190.1590  171.6020  143.2110 C   0  0  0  0  0  2  0  0  0  0  0  0
  191.3270  171.4350  144.1710 C   0  0  0  0  0  2  0  0  0  0  0  0
  192.5060  170.7970  143.4640 C   0  0  0  0  0  1  0  0  0  0  0  0
  190.3770  173.9310  139.9530 C   0  0  0  0  0  2  0  0  0  0  0  0
  188.8660  173.9790  139.8300 C   0  0  0  0  0  2  0  0  0  0  0  0
  188.3680  172.6760  139.2390 C   0  0  0  0  0  1  0  0  0  0  0  0
  1  3  1  0  0  0  0
  2 13  1  6  0  0  0
  2  5  1  0  0  0  0
  3 29  1  6  0  0  0
  3  8  1  0  0  0  0
  5 14  1  0  0  0  0
  5  7  1  0  0  0  0
  6  2  1  0  0  0  0
  6  9  1  0  0  0  0
  7  4  1  0  0  0  0
  8 11  1  0  0  0  0
  9 14  1  0  0  0  0
  9 30  1  0  0  0  0
 10 13  2  0  0  0  0
 10 18  1  0  0  0  0
 11 26  1  0  0  0  0
 12  4  1  0  0  0  0
 15  7  1  0  0  0  0
 15 20  1  0  0  0  0
 16 12  1  0  0  0  0
 16 11  1  0  0  0  0
 17  1  1  0  0  0  0
 17 14  1  0  0  0  0
 17 16  1  0  0  0  0
 18 15  1  0  0  0  0
 20 23  1  0  0  0  0
 20 19  1  0  0  0  0
 22 21  1  0  0  0  0
 22 20  1  0  0  0  0
 23 25  1  0  0  0  0
 25 24  1  0  0  0  0
 26 27  1  0  0  0  0
 29 28  1  0  0  0  0
 30 31  1  0  0  0  0
 32 30  1  0  0  0  0
 32 33  1  0  0  0  0
 34 33  1  0  0  0  0
 35  6  1  0  0  0  0
 36 35  1  0  0  0  0
 37 36  1  0  0  0  0
M  END
>  <MODEL>
3

>  <REMARK>
 VINA RESULT:      -6.1      2.905      6.162
  Name = 
  11 active torsions:
  status: ('A' for Active; 'I' for Inactive)
    1  A    between atoms: C_3  and  C_32
    2  A    between atoms: C_5  and  C_23
    3  A    between atoms: C_8  and  O_18
    4  A    between atoms: C_8  and  C_19
    5  A    between atoms: C_8  and  C_31
    6  A    between atoms: C_9  and  C_13
    7  A    between atoms: C_9  and  C_16
    8  A    between atoms: O_11  and  C_26
    9  A    between atoms: O_18  and  C_35
   10  A    between atoms: C_20  and  C_21
   11  A    between atoms: C_21  and  C_32
                            x       y       z     vdW  Elec       q    Type
                         _______ _______ _______ _____ _____    ______ ____

>  <TORSDO>
F 11

$$$$
=
 OpenBabel11052420073D

 37 40  0  0  1  0  0  0  0  0999 V2000
  189.7080  173.5680  143.5340 C   0  0  0  0  0  2  0  0  0  0  0  0
  193.7120  175.7600  144.8070 C   0  0  1  0  0  3  0  0  0  0  0  0
  189.1910  173.6750  142.0950 C   0  0  1  0  0  3  0  0  0  0  0  0
  193.9770  173.2760  141.8270 C   0  0  0  0  0  2  0  0  0  0  0  0
  193.3870  174.5420  143.9740 C   0  0  2  0  0  3  0  0  0  0  0  0
  192.3760  176.2750  145.3290 C   0  0  1  0  0  3  0  0  0  0  0  0
  194.4170  174.3210  142.8590 C   0  0  1  0  0  3  0  0  0  0  0  0
  189.5720  172.5420  141.3420 O   0  0  0  0  0  0  0  0  0  0  0  0
  191.3820  175.9180  144.2290 C   0  0  2  0  0  3  0  0  0  0  0  0
  195.7360  174.6350  145.8670 C   0  0  0  0  0  3  0  0  0  0  0  0
  190.9760  172.5460  141.1720 C   0  0  2  0  0  3  0  0  0  0  0  0
  193.1950  172.1060  142.4310 C   0  0  0  0  0  2  0  0  0  0  0  0
  194.7650  175.5630  145.8730 C   0  0  0  0  0  3  0  0  0  0  0  0
  191.9890  174.7600  143.4170 C   0  0  2  0  0  3  0  0  0  0  0  0
  195.8230  173.9800  143.3810 C   0  0  2  0  0  3  0  0  0  0  0  0
  191.6830  172.3780  142.5290 C   0  0  1  0  0  3  0  0  0  0  0  0
  191.2360  173.4280  143.5670 C   0  0  2  0  0  3  0  0  0  0  0  0
  195.9030  173.5350  144.8520 C   0  0  0  0  0  2  0  0  0  0  0  0
  197.9400  175.0480  143.8640 O   0  0  0  0  0  1  0  0  0  0  0  0
  196.9480  174.9210  142.8790 C   0  0  2  0  0  0  0  0  0  0  0  0
  196.8340  177.2300  143.5450 O   0  0  0  0  0  1  0  0  0  0  0  0
  196.3740  176.3080  142.6020 C   0  0  0  0  0  2  0  0  0  0  0  0
  197.5060  174.4320  141.6720 O   0  0  0  0  0  0  0  0  0  0  0  0
  196.3660  174.6290  139.7110 F   0  0  0  0  0  0  0  0  0  0  0  0
  197.1720  175.2960  140.6150 C   0  0  0  0  0  2  0  0  0  0  0  0
  191.4010  173.6950  140.4900 O   0  0  0  0  0  0  0  0  0  0  0  0
  191.4030  173.3310  139.1430 C   0  0  0  0  0  1  0  0  0  0  0  0
  187.2490  175.0790  141.6330 N   0  0  0  0  0  1  0  0  0  0  0  0
  187.6750  173.7710  142.0970 C   0  0  0  0  0  2  0  0  0  0  0  0
  191.0670  177.1490  143.3610 C   0  0  2  0  0  3  0  0  0  0  0  0
  191.5930  178.4090  144.0130 C   0  0  0  0  0  1  0  0  0  0  0  0
  189.5830  177.3280  143.0430 C   0  0  0  0  0  2  0  0  0  0  0  0
  188.7960  177.7570  144.2720 C   0  0  0  0  0  2  0  0  0  0  0  0
  187.7810  176.6960  144.6480 C   0  0  0  0  0  1  0  0  0  0  0  0
  191.9520  175.5830  146.6240 C   0  0  0  0  0  2  0  0  0  0  0  0
  190.5760  176.0570  147.0500 C   0  0  0  0  0  2  0  0  0  0  0  0
  189.6770  174.8590  147.2690 C   0  0  0  0  0  1  0  0  0  0  0  0
  1 17  1  0  0  0  0
  2  6  1  0  0  0  0
  2 13  1  1  0  0  0
  3 29  1  1  0  0  0
  3  1  1  0  0  0  0
  4 12  1  0  0  0  0
  4  7  1  0  0  0  0
  5  2  1  0  0  0  0
  6 35  1  0  0  0  0
  7 15  1  0  0  0  0
  7  5  1  0  0  0  0
  8  3  1  0  0  0  0
  9  6  1  0  0  0  0
 10 13  2  0  0  0  0
 11  8  1  0  0  0  0
 11 16  1  0  0  0  0
 12 16  1  0  0  0  0
 14 17  1  0  0  0  0
 14  5  1  0  0  0  0
 14  9  1  0  0  0  0
 15 18  1  0  0  0  0
 16 17  1  0  0  0  0
 18 10  1  0  0  0  0
 20 15  1  0  0  0  0
 20 19  1  0  0  0  0
 22 20  1  0  0  0  0
 22 21  1  0  0  0  0
 23 20  1  0  0  0  0
 24 25  1  0  0  0  0
 25 23  1  0  0  0  0
 26 11  1  0  0  0  0
 27 26  1  0  0  0  0
 28 29  1  0  0  0  0
 30 31  1  0  0  0  0
 30  9  1  0  0  0  0
 32 30  1  0  0  0  0
 32 33  1  0  0  0  0
 33 34  1  0  0  0  0
 35 36  1  0  0  0  0
 36 37  1  0  0  0  0
M  END
>  <MODEL>
4

>  <REMARK>
 VINA RESULT:      -6.0      3.330      5.344
  Name = 
  11 active torsions:
  status: ('A' for Active; 'I' for Inactive)
    1  A    between atoms: C_3  and  C_32
    2  A    between atoms: C_5  and  C_23
    3  A    between atoms: C_8  and  O_18
    4  A    between atoms: C_8  and  C_19
    5  A    between atoms: C_8  and  C_31
    6  A    between atoms: C_9  and  C_13
    7  A    between atoms: C_9  and  C_16
    8  A    between atoms: O_11  and  C_26
    9  A    between atoms: O_18  and  C_35
   10  A    between atoms: C_20  and  C_21
   11  A    between atoms: C_21  and  C_32
                            x       y       z     vdW  Elec       q    Type
                         _______ _______ _______ _____ _____    ______ ____

>  <TORSDO>
F 11

$$$$
=
 OpenBabel11052420073D

 37 40  0  0  1  0  0  0  0  0999 V2000
  186.9270  177.1770  144.7350 C   0  0  0  0  0  2  0  0  0  0  0  0
  190.8010  174.4840  144.3100 C   0  0  1  0  0  3  0  0  0  0  0  0
  186.6180  178.2610  143.6950 C   0  0  1  0  0  3  0  0  0  0  0  0
  188.3540  174.4740  141.2890 C   0  0  0  0  0  2  0  0  0  0  0  0
  189.4750  174.5570  143.5900 C   0  0  2  0  0  3  0  0  0  0  0  0
  190.7300  175.5250  145.4210 C   0  0  1  0  0  3  0  0  0  0  0  0
  189.6010  174.1460  142.1170 C   0  0  1  0  0  3  0  0  0  0  0  0
  185.6910  177.7870  142.7410 O   0  0  0  0  0  0  0  0  0  0  0  0
  189.8390  176.6230  144.8470 C   0  0  2  0  0  3  0  0  0  0  0  0
  190.8270  171.9380  144.2400 C   0  0  0  0  0  3  0  0  0  0  0  0
  186.2960  176.7700  141.9660 C   0  0  2  0  0  3  0  0  0  0  0  0
  187.0400  174.2930  142.0560 C   0  0  0  0  0  2  0  0  0  0  0  0
  191.2220  173.1070  144.7710 C   0  0  0  0  0  3  0  0  0  0  0  0
  188.9820  175.9880  143.7380 C   0  0  2  0  0  3  0  0  0  0  0  0
  189.9850  172.6690  141.9230 C   0  0  2  0  0  3  0  0  0  0  0  0
  186.6230  175.5490  142.8430 C   0  0  1  0  0  3  0  0  0  0  0  0
  187.4830  175.9110  144.0710 C   0  0  2  0  0  3  0  0  0  0  0  0
  189.8020  171.7610  143.1510 C   0  0  0  0  0  2  0  0  0  0  0  0
  192.1940  173.4510  141.3240 O   0  0  0  0  0  1  0  0  0  0  0  0
  191.2580  172.4360  141.0720 C   0  0  2  0  0  0  0  0  0  0  0  0
  189.7300  171.7590  139.3420 O   0  0  0  0  0  1  0  0  0  0  0  0
  190.9020  172.4760  139.5880 C   0  0  0  0  0  2  0  0  0  0  0  0
  191.8180  171.1640  141.3490 O   0  0  0  0  0  0  0  0  0  0  0  0
  193.6380  171.0030  142.7070 F   0  0  0  0  0  0  0  0  0  0  0  0
  193.2180  171.2700  141.4180 C   0  0  0  0  0  2  0  0  0  0  0  0
  187.4230  177.2550  141.2870 O   0  0  0  0  0  0  0  0  0  0  0  0
  186.9490  177.6230  140.0270 C   0  0  0  0  0  1  0  0  0  0  0  0
  184.5810  179.4450  144.3300 N   0  0  0  0  0  1  0  0  0  0  0  0
  186.0320  179.4830  144.3800 C   0  0  0  0  0  2  0  0  0  0  0  0
  190.6890  177.8010  144.3390 C   0  0  2  0  0  3  0  0  0  0  0  0
  190.2190  178.2460  142.9710 C   0  0  0  0  0  1  0  0  0  0  0  0
  192.1900  177.5140  144.2880 C   0  0  0  0  0  2  0  0  0  0  0  0
  192.6140  177.0070  142.9180 C   0  0  0  0  0  2  0  0  0  0  0  0
  193.7790  176.0450  143.0470 C   0  0  0  0  0  1  0  0  0  0  0  0
  190.0830  174.9760  146.6910 C   0  0  0  0  0  2  0  0  0  0  0  0
  190.9060  175.3540  147.9080 C   0  0  0  0  0  2  0  0  0  0  0  0
  192.3080  175.7230  147.4710 C   0  0  0  0  0  1  0  0  0  0  0  0
  2 13  1  1  0  0  0
  2  6  1  0  0  0  0
  3 29  1  1  0  0  0
  3  1  1  0  0  0  0
  4 12  1  0  0  0  0
  4  7  1  0  0  0  0
  5 14  1  0  0  0  0
  5  2  1  0  0  0  0
  6 35  1  0  0  0  0
  7  5  1  0  0  0  0
  8  3  1  0  0  0  0
  9  6  1  0  0  0  0
 10 13  2  0  0  0  0
 11  8  1  0  0  0  0
 11 16  1  0  0  0  0
 12 16  1  0  0  0  0
 14 17  1  0  0  0  0
 14  9  1  0  0  0  0
 15  7  1  0  0  0  0
 15 18  1  0  0  0  0
 16 17  1  0  0  0  0
 17  1  1  0  0  0  0
 18 10  1  0  0  0  0
 20 19  1  0  0  0  0
 20 23  1  0  0  0  0
 20 15  1  0  0  0  0
 21 22  1  0  0  0  0
 22 20  1  0  0  0  0
 23 25  1  0  0  0  0
 25 24  1  0  0  0  0
 26 11  1  0  0  0  0
 27 26  1  0  0  0  0
 28 29  1  0  0  0  0
 30  9  1  0  0  0  0
 31 30  1  0  0  0  0
 32 30  1  0  0  0  0
 33 34  1  0  0  0  0
 33 32  1  0  0  0  0
 35 36  1  0  0  0  0
 37 36  1  0  0  0  0
M  END
>  <MODEL>
5

>  <REMARK>
 VINA RESULT:      -5.9      3.101      6.147
  Name = 
  11 active torsions:
  status: ('A' for Active; 'I' for Inactive)
    1  A    between atoms: C_3  and  C_32
    2  A    between atoms: C_5  and  C_23
    3  A    between atoms: C_8  and  O_18
    4  A    between atoms: C_8  and  C_19
    5  A    between atoms: C_8  and  C_31
    6  A    between atoms: C_9  and  C_13
    7  A    between atoms: C_9  and  C_16
    8  A    between atoms: O_11  and  C_26
    9  A    between atoms: O_18  and  C_35
   10  A    between atoms: C_20  and  C_21
   11  A    between atoms: C_21  and  C_32
                            x       y       z     vdW  Elec       q    Type
                         _______ _______ _______ _____ _____    ______ ____

>  <TORSDO>
F 11

$$$$
=
 OpenBabel11052420073D

 37 40  0  0  1  0  0  0  0  0999 V2000
  192.5140  176.7340  143.7120 C   0  0  0  0  0  2  0  0  0  0  0  0
  189.3060  173.7190  141.9610 C   0  0  1  0  0  3  0  0  0  0  0  0
  193.7230  176.2100  144.4970 C   0  0  1  0  0  3  0  0  0  0  0  0
  192.9900  173.1500  140.8590 C   0  0  0  0  0  2  0  0  0  0  0  0
  190.7250  174.0880  141.5980 C   0  0  2  0  0  3  0  0  0  0  0  0
  188.9300  174.6170  143.1340 C   0  0  1  0  0  3  0  0  0  0  0  0
  191.4810  172.9060  140.9790 C   0  0  1  0  0  3  0  0  0  0  0  0
  194.8590  176.1200  143.6620 O   0  0  0  0  0  0  0  0  0  0  0  0
  190.2440  174.8310  143.8780 C   0  0  2  0  0  3  0  0  0  0  0  0
  188.5980  173.5720  139.5190 C   0  0  0  0  0  3  0  0  0  0  0  0
  194.6490  175.1090  142.6950 C   0  0  2  0  0  3  0  0  0  0  0  0
  193.3550  174.5960  140.5130 C   0  0  0  0  0  2  0  0  0  0  0  0
  188.3130  173.7320  140.8220 C   0  0  0  0  0  3  0  0  0  0  0  0
  191.3860  174.5740  142.8780 C   0  0  2  0  0  3  0  0  0  0  0  0
  190.9140  172.4580  139.6200 C   0  0  2  0  0  3  0  0  0  0  0  0
  193.4940  175.4960  141.7550 C   0  0  1  0  0  3  0  0  0  0  0  0
  192.1940  175.8300  142.5150 C   0  0  2  0  0  3  0  0  0  0  0  0
  189.9770  173.4580  138.9220 C   0  0  0  0  0  2  0  0  0  0  0  0
  190.1730  170.4950  140.8240 O   0  0  0  0  0  1  0  0  0  0  0  0
  190.5130  170.9630  139.5460 C   0  0  2  0  0  0  0  0  0  0  0  0
  192.3290  169.4840  140.0930 O   0  0  0  0  0  1  0  0  0  0  0  0
  191.6920  170.1370  139.0370 C   0  0  0  0  0  2  0  0  0  0  0  0
  189.4340  170.7810  138.6460 O   0  0  0  0  0  0  0  0  0  0  0  0
  189.3790  170.4600  136.3930 F   0  0  0  0  0  0  0  0  0  0  0  0
  189.8360  169.9440  137.5910 C   0  0  0  0  0  2  0  0  0  0  0  0
  194.4450  173.8620  143.3030 O   0  0  0  0  0  0  0  0  0  0  0  0
  195.7180  173.2990  143.3980 C   0  0  0  0  0  1  0  0  0  0  0  0
  194.1780  176.4020  146.8870 N   0  0  0  0  0  1  0  0  0  0  0  0
  194.0370  177.1480  145.6490 C   0  0  0  0  0  2  0  0  0  0  0  0
  190.3220  173.9180  145.1140 C   0  0  2  0  0  3  0  0  0  0  0  0
  189.6960  172.5720  144.8240 C   0  0  0  0  0  1  0  0  0  0  0  0
  189.6840  174.5100  146.3710 C   0  0  0  0  0  2  0  0  0  0  0  0
  190.6950  175.2960  147.1920 C   0  0  0  0  0  2  0  0  0  0  0  0
  190.4690  176.7860  147.0270 C   0  0  0  0  0  1  0  0  0  0  0  0
  188.3920  175.9730  142.6790 C   0  0  0  0  0  2  0  0  0  0  0  0
  188.6220  177.0190  143.7520 C   0  0  0  0  0  2  0  0  0  0  0  0
  187.4340  177.0440  144.6920 C   0  0  0  0  0  1  0  0  0  0  0  0
  1  3  1  0  0  0  0
  2 13  1  6  0  0  0
  2  6  1  0  0  0  0
  3 29  1  1  0  0  0
  4  7  1  0  0  0  0
  5  2  1  0  0  0  0
  5 14  1  0  0  0  0
  6  9  1  0  0  0  0
  7  5  1  0  0  0  0
  8  3  1  0  0  0  0
  9 30  1  0  0  0  0
 10 13  2  0  0  0  0
 11 26  1  0  0  0  0
 11  8  1  0  0  0  0
 12  4  1  0  0  0  0
 12 16  1  0  0  0  0
 14  9  1  0  0  0  0
 15  7  1  0  0  0  0
 16 17  1  0  0  0  0
 16 11  1  0  0  0  0
 17 14  1  0  0  0  0
 17  1  1  0  0  0  0
 18 10  1  0  0  0  0
 18 15  1  0  0  0  0
 20 15  1  0  0  0  0
 20 19  1  0  0  0  0
 22 20  1  0  0  0  0
 22 21  1  0  0  0  0
 23 20  1  0  0  0  0
 24 25  1  0  0  0  0
 25 23  1  0  0  0  0
 26 27  1  0  0  0  0
 29 28  1  0  0  0  0
 30 32  1  0  0  0  0
 31 30  1  0  0  0  0
 32 33  1  0  0  0  0
 34 33  1  0  0  0  0
 35  6  1  0  0  0  0
 35 36  1  0  0  0  0
 36 37  1  0  0  0  0
M  END
>  <MODEL>
6

>  <REMARK>
 VINA RESULT:      -5.7      3.694      7.222
  Name = 
  11 active torsions:
  status: ('A' for Active; 'I' for Inactive)
    1  A    between atoms: C_3  and  C_32
    2  A    between atoms: C_5  and  C_23
    3  A    between atoms: C_8  and  O_18
    4  A    between atoms: C_8  and  C_19
    5  A    between atoms: C_8  and  C_31
    6  A    between atoms: C_9  and  C_13
    7  A    between atoms: C_9  and  C_16
    8  A    between atoms: O_11  and  C_26
    9  A    between atoms: O_18  and  C_35
   10  A    between atoms: C_20  and  C_21
   11  A    between atoms: C_21  and  C_32
                            x       y       z     vdW  Elec       q    Type
                         _______ _______ _______ _____ _____    ______ ____

>  <TORSDO>
F 11

$$$$
=
 OpenBabel11052420073D

 37 40  0  0  1  0  0  0  0  0999 V2000
  191.7530  177.2890  146.1720 C   0  0  0  0  0  2  0  0  0  0  0  0
  187.1180  177.2840  145.1910 C   0  0  1  0  0  3  0  0  0  0  0  0
  192.6840  176.2590  145.5220 C   0  0  1  0  0  3  0  0  0  0  0  0
  189.5240  177.6010  142.1540 C   0  0  0  0  0  2  0  0  0  0  0  0
  188.3620  177.6850  144.4340 C   0  0  2  0  0  3  0  0  0  0  0  0
  187.5930  176.8470  146.5720 C   0  0  1  0  0  3  0  0  0  0  0  0
  188.2040  177.4780  142.9220 C   0  0  1  0  0  3  0  0  0  0  0  0
  193.3340  176.8120  144.3980 O   0  0  0  0  0  0  0  0  0  0  0  0
  188.9760  176.2550  146.3210 C   0  0  2  0  0  3  0  0  0  0  0  0
  185.7970  179.2700  144.2960 C   0  0  0  0  0  3  0  0  0  0  0  0
  192.3810  177.0600  143.3820 C   0  0  2  0  0  3  0  0  0  0  0  0
  190.4670  178.6700  142.7150 C   0  0  0  0  0  2  0  0  0  0  0  0
  186.0040  178.3050  145.2080 C   0  0  0  0  0  3  0  0  0  0  0  0
  189.5010  176.8520  145.0030 C   0  0  2  0  0  3  0  0  0  0  0  0
  187.1410  178.3900  142.2860 C   0  0  2  0  0  3  0  0  0  0  0  0
  191.3810  178.1390  143.8340 C   0  0  1  0  0  3  0  0  0  0  0  0
  190.7020  177.7950  145.1760 C   0  0  2  0  0  3  0  0  0  0  0  0
  186.6980  179.5960  143.1330 C   0  0  0  0  0  2  0  0  0  0  0  0
  185.3250  176.7940  142.3730 O   0  0  0  0  0  1  0  0  0  0  0  0
  186.0290  177.6450  141.5070 C   0  0  2  0  0  0  0  0  0  0  0  0
  186.5690  177.4360  139.1720 O   0  0  0  0  0  1  0  0  0  0  0  0
  186.6540  176.7900  140.4070 C   0  0  0  0  0  2  0  0  0  0  0  0
  185.1470  178.5670  140.8910 O   0  0  0  0  0  0  0  0  0  0  0  0
  183.1160  177.9150  140.0970 F   0  0  0  0  0  0  0  0  0  0  0  0
  183.8210  178.2540  141.2370 C   0  0  0  0  0  2  0  0  0  0  0  0
  191.7430  175.8750  142.9870 O   0  0  0  0  0  0  0  0  0  0  0  0
  192.5740  175.3320  142.0070 C   0  0  0  0  0  1  0  0  0  0  0  0
  194.9460  175.3970  145.8340 N   0  0  0  0  0  1  0  0  0  0  0  0
  193.7360  175.8100  146.5220 C   0  0  0  0  0  2  0  0  0  0  0  0
  188.9110  174.7180  146.2920 C   0  0  2  0  0  3  0  0  0  0  0  0
  188.9300  174.1580  147.6980 C   0  0  0  0  0  1  0  0  0  0  0  0
  190.0210  174.0600  145.4730 C   0  0  0  0  0  2  0  0  0  0  0  0
  189.4700  172.9780  144.5570 C   0  0  0  0  0  2  0  0  0  0  0  0
  189.2850  173.5160  143.1510 C   0  0  0  0  0  1  0  0  0  0  0  0
  187.7240  178.0230  147.5390 C   0  0  0  0  0  2  0  0  0  0  0  0
  186.3720  178.3740  148.1300 C   0  0  0  0  0  2  0  0  0  0  0  0
  186.3040  179.8660  148.3770 C   0  0  0  0  0  1  0  0  0  0  0  0
  2 13  1  1  0  0  0
  2  6  1  0  0  0  0
  3  1  1  0  0  0  0
  3 29  1  1  0  0  0
  4 12  1  0  0  0  0
  4  7  1  0  0  0  0
  5 14  1  0  0  0  0
  5  2  1  0  0  0  0
  6 35  1  0  0  0  0
  7  5  1  0  0  0  0
  8  3  1  0  0  0  0
  9  6  1  0  0  0  0
 10 13  2  0  0  0  0
 11 16  1  0  0  0  0
 11  8  1  0  0  0  0
 12 16  1  0  0  0  0
 14 17  1  0  0  0  0
 14  9  1  0  0  0  0
 15  7  1  0  0  0  0
 15 18  1  0  0  0  0
 16 17  1  0  0  0  0
 17  1  1  0  0  0  0
 18 10  1  0  0  0  0
 20 15  1  0  0  0  0
 20 19  1  0  0  0  0
 21 22  1  0  0  0  0
 22 20  1  0  0  0  0
 23 25  1  0  0  0  0
 23 20  1  0  0  0  0
 24 25  1  0  0  0  0
 26 11  1  0  0  0  0
 27 26  1  0  0  0  0
 28 29  1  0  0  0  0
 30  9  1  0  0  0  0
 30 31  1  0  0  0  0
 32 30  1  0  0  0  0
 33 32  1  0  0  0  0
 34 33  1  0  0  0  0
 35 36  1  0  0  0  0
 36 37  1  0  0  0  0
M  END
>  <MODEL>
7

>  <REMARK>
 VINA RESULT:      -5.5      3.588      6.620
  Name = 
  11 active torsions:
  status: ('A' for Active; 'I' for Inactive)
    1  A    between atoms: C_3  and  C_32
    2  A    between atoms: C_5  and  C_23
    3  A    between atoms: C_8  and  O_18
    4  A    between atoms: C_8  and  C_19
    5  A    between atoms: C_8  and  C_31
    6  A    between atoms: C_9  and  C_13
    7  A    between atoms: C_9  and  C_16
    8  A    between atoms: O_11  and  C_26
    9  A    between atoms: O_18  and  C_35
   10  A    between atoms: C_20  and  C_21
   11  A    between atoms: C_21  and  C_32
                            x       y       z     vdW  Elec       q    Type
                         _______ _______ _______ _____ _____    ______ ____

>  <TORSDO>
F 11

$$$$
=
 OpenBabel11052420073D

 37 40  0  0  1  0  0  0  0  0999 V2000
  190.0560  174.9970  145.0680 C   0  0  0  0  0  2  0  0  0  0  0  0
  192.4970  172.8440  141.6230 C   0  0  1  0  0  3  0  0  0  0  0  0
  189.5840  176.4450  144.8930 C   0  0  1  0  0  3  0  0  0  0  0  0
  189.0180  174.2740  140.6390 C   0  0  0  0  0  2  0  0  0  0  0  0
  191.0530  173.2490  141.8080 C   0  0  2  0  0  3  0  0  0  0  0  0
  193.2040  173.2280  142.9180 C   0  0  1  0  0  3  0  0  0  0  0  0
  190.3810  173.5930  140.4720 C   0  0  1  0  0  3  0  0  0  0  0  0
  188.2360  176.4830  144.4710 O   0  0  0  0  0  0  0  0  0  0  0  0
  192.4540  174.4630  143.4030 C   0  0  2  0  0  3  0  0  0  0  0  0
  191.8550  170.6410  140.5170 C   0  0  0  0  0  3  0  0  0  0  0  0
  188.1440  175.9620  143.1590 C   0  0  2  0  0  3  0  0  0  0  0  0
  188.2060  173.7450  141.8240 C   0  0  0  0  0  2  0  0  0  0  0  0
  192.7260  171.4160  141.1860 C   0  0  0  0  0  3  0  0  0  0  0  0
  191.0550  174.4340  142.7610 C   0  0  2  0  0  3  0  0  0  0  0  0
  190.2520  172.3900  139.5220 C   0  0  2  0  0  3  0  0  0  0  0  0
  188.5230  174.4710  143.1440 C   0  0  1  0  0  3  0  0  0  0  0  0
  189.9120  174.2040  143.7620 C   0  0  2  0  0  3  0  0  0  0  0  0
  190.4370  171.0050  140.1650 C   0  0  0  0  0  2  0  0  0  0  0  0
  192.0670  173.3490  138.2420 O   0  0  0  0  0  1  0  0  0  0  0  0
  190.8890  172.5960  138.1250 C   0  0  2  0  0  0  0  0  0  0  0  0
  190.5120  174.5400  136.7610 O   0  0  0  0  0  1  0  0  0  0  0  0
  189.9230  173.3630  137.2250 C   0  0  0  0  0  2  0  0  0  0  0  0
  191.1570  171.3470  137.5100 O   0  0  0  0  0  0  0  0  0  0  0  0
  189.3520  170.0120  137.1390 F   0  0  0  0  0  0  0  0  0  0  0  0
  190.1220  171.0310  136.6140 C   0  0  0  0  0  2  0  0  0  0  0  0
  188.9130  176.7150  142.2600 O   0  0  0  0  0  0  0  0  0  0  0  0
  188.0480  177.7070  141.7950 C   0  0  0  0  0  1  0  0  0  0  0  0
  188.4160  177.2360  146.8850 N   0  0  0  0  0  1  0  0  0  0  0  0
  189.7020  177.1890  146.2120 C   0  0  0  0  0  2  0  0  0  0  0  0
  193.2370  175.7430  143.0600 C   0  0  2  0  0  3  0  0  0  0  0  0
  194.6960  175.4260  142.8170 C   0  0  0  0  0  1  0  0  0  0  0  0
  193.1290  176.8440  144.1150 C   0  0  0  0  0  2  0  0  0  0  0  0
  194.0950  176.6100  145.2660 C   0  0  0  0  0  2  0  0  0  0  0  0
  193.3380  176.2420  146.5280 C   0  0  0  0  0  1  0  0  0  0  0  0
  193.1010  172.1360  143.9820 C   0  0  0  0  0  2  0  0  0  0  0  0
  193.5390  172.6710  145.3320 C   0  0  0  0  0  2  0  0  0  0  0  0
  195.0510  172.7280  145.3830 C   0  0  0  0  0  1  0  0  0  0  0  0
  2 13  1  1  0  0  0
  2  5  1  0  0  0  0
  2  6  1  0  0  0  0
  3  1  1  0  0  0  0
  3 29  1  1  0  0  0
  4 12  1  0  0  0  0
  5 14  1  0  0  0  0
  6  9  1  0  0  0  0
  6 35  1  0  0  0  0
  7  4  1  0  0  0  0
  7  5  1  0  0  0  0
  8  3  1  0  0  0  0
 10 13  2  0  0  0  0
 11  8  1  0  0  0  0
 12 16  1  0  0  0  0
 14  9  1  0  0  0  0
 14 17  1  0  0  0  0
 15 18  1  0  0  0  0
 15  7  1  0  0  0  0
 16 11  1  0  0  0  0
 16 17  1  0  0  0  0
 17  1  1  0  0  0  0
 18 10  1  0  0  0  0
 20 19  1  0  0  0  0
 20 15  1  0  0  0  0
 21 22  1  0  0  0  0
 22 20  1  0  0  0  0
 23 20  1  0  0  0  0
 25 24  1  0  0  0  0
 25 23  1  0  0  0  0
 26 11  1  0  0  0  0
 27 26  1  0  0  0  0
 29 28  1  0  0  0  0
 30  9  1  0  0  0  0
 30 32  1  0  0  0  0
 31 30  1  0  0  0  0
 32 33  1  0  0  0  0
 33 34  1  0  0  0  0
 35 36  1  0  0  0  0
 36 37  1  0  0  0  0
M  END
>  <MODEL>
8

>  <REMARK>
 VINA RESULT:      -5.5      3.638      7.842
  Name = 
  11 active torsions:
  status: ('A' for Active; 'I' for Inactive)
    1  A    between atoms: C_3  and  C_32
    2  A    between atoms: C_5  and  C_23
    3  A    between atoms: C_8  and  O_18
    4  A    between atoms: C_8  and  C_19
    5  A    between atoms: C_8  and  C_31
    6  A    between atoms: C_9  and  C_13
    7  A    between atoms: C_9  and  C_16
    8  A    between atoms: O_11  and  C_26
    9  A    between atoms: O_18  and  C_35
   10  A    between atoms: C_20  and  C_21
   11  A    between atoms: C_21  and  C_32
                            x       y       z     vdW  Elec       q    Type
                         _______ _______ _______ _____ _____    ______ ____

>  <TORSDO>
F 11

$$$$
=
 OpenBabel11052420073D

 37 40  0  0  1  0  0  0  0  0999 V2000
  195.8060  172.5770  144.1020 C   0  0  0  0  0  2  0  0  0  0  0  0
  191.1580  173.4920  143.9810 C   0  0  1  0  0  3  0  0  0  0  0  0
  196.7850  173.4320  143.2890 C   0  0  1  0  0  3  0  0  0  0  0  0
  193.4660  176.4260  145.0650 C   0  0  0  0  0  2  0  0  0  0  0  0
  192.3560  174.1640  144.6090 C   0  0  2  0  0  3  0  0  0  0  0  0
  191.6930  172.2330  143.3080 C   0  0  1  0  0  3  0  0  0  0  0  0
  192.1750  175.6850  144.7000 C   0  0  1  0  0  3  0  0  0  0  0  0
  197.3720  174.4280  144.1000 O   0  0  0  0  0  0  0  0  0  0  0  0
  193.1050  172.6120  142.8740 C   0  0  2  0  0  3  0  0  0  0  0  0
  189.6920  173.9520  146.0120 C   0  0  0  0  0  3  0  0  0  0  0  0
  196.3800  175.3620  144.4820 C   0  0  2  0  0  3  0  0  0  0  0  0
  194.3510  175.6700  146.0600 C   0  0  0  0  0  2  0  0  0  0  0  0
  189.9820  173.2570  144.9000 C   0  0  0  0  0  3  0  0  0  0  0  0
  193.5590  173.7880  143.7570 C   0  0  2  0  0  3  0  0  0  0  0  0
  191.0410  176.1120  145.6470 C   0  0  2  0  0  3  0  0  0  0  0  0
  195.3240  174.6910  145.3770 C   0  0  1  0  0  3  0  0  0  0  0  0
  194.7010  173.4390  144.7260 C   0  0  2  0  0  3  0  0  0  0  0  0
  190.5420  175.0340  146.6250 C   0  0  0  0  0  2  0  0  0  0  0  0
  190.5190  178.2550  144.6550 O   0  0  0  0  0  1  0  0  0  0  0  0
  189.9610  177.0150  145.0000 C   0  0  2  0  0  0  0  0  0  0  0  0
  187.6210  176.7750  145.5020 O   0  0  0  0  0  1  0  0  0  0  0  0
  188.8310  177.2640  145.9970 C   0  0  0  0  0  2  0  0  0  0  0  0
  189.4030  176.3860  143.8600 O   0  0  0  0  0  0  0  0  0  0  0  0
  188.6740  176.9150  141.7690 F   0  0  0  0  0  0  0  0  0  0  0  0
  189.6400  177.1780  142.7230 C   0  0  0  0  0  2  0  0  0  0  0  0
  195.8110  175.9820  143.3610 O   0  0  0  0  0  0  0  0  0  0  0  0
  196.7780  176.8890  142.9250 C   0  0  0  0  0  1  0  0  0  0  0  0
  197.7460  172.4310  141.2810 N   0  0  0  0  0  1  0  0  0  0  0  0
  197.8870  172.5550  142.7200 C   0  0  0  0  0  2  0  0  0  0  0  0
  193.1390  172.9510  141.3730 C   0  0  2  0  0  3  0  0  0  0  0  0
  193.4310  174.4210  141.1640 C   0  0  0  0  0  1  0  0  0  0  0  0
  191.8630  172.5780  140.6180 C   0  0  0  0  0  2  0  0  0  0  0  0
  191.1340  173.8130  140.1120 C   0  0  0  0  0  2  0  0  0  0  0  0
  189.6970  173.8160  140.5970 C   0  0  0  0  0  1  0  0  0  0  0  0
  191.7720  171.0480  144.2710 C   0  0  0  0  0  2  0  0  0  0  0  0
  192.8380  170.0700  143.8170 C   0  0  0  0  0  2  0  0  0  0  0  0
  193.6830  169.6600  145.0050 C   0  0  0  0  0  1  0  0  0  0  0  0
  1 17  1  0  0  0  0
  2  5  1  0  0  0  0
  2 13  1  1  0  0  0
  3 29  1  1  0  0  0
  3  8  1  0  0  0  0
  3  1  1  0  0  0  0
  4 12  1  0  0  0  0
  5  7  1  0  0  0  0
  6  2  1  0  0  0  0
  6 35  1  0  0  0  0
  7  4  1  0  0  0  0
  7 15  1  0  0  0  0
  8 11  1  0  0  0  0
  9  6  1  0  0  0  0
  9 14  1  0  0  0  0
 10 18  1  0  0  0  0
 11 16  1  0  0  0  0
 13 10  2  0  0  0  0
 14  5  1  0  0  0  0
 14 17  1  0  0  0  0
 15 18  1  0  0  0  0
 16 12  1  0  0  0  0
 17 16  1  0  0  0  0
 19 20  1  0  0  0  0
 20 15  1  0  0  0  0
 20 22  1  0  0  0  0
 21 22  1  0  0  0  0
 23 20  1  0  0  0  0
 24 25  1  0  0  0  0
 25 23  1  0  0  0  0
 26 11  1  0  0  0  0
 27 26  1  0  0  0  0
 28 29  1  0  0  0  0
 30  9  1  0  0  0  0
 31 30  1  0  0  0  0
 32 30  1  0  0  0  0
 33 34  1  0  0  0  0
 33 32  1  0  0  0  0
 36 35  1  0  0  0  0
 36 37  1  0  0  0  0
M  END
>  <MODEL>
9

>  <REMARK>
 VINA RESULT:      -5.5      3.530      6.527
  Name = 
  11 active torsions:
  status: ('A' for Active; 'I' for Inactive)
    1  A    between atoms: C_3  and  C_32
    2  A    between atoms: C_5  and  C_23
    3  A    between atoms: C_8  and  O_18
    4  A    between atoms: C_8  and  C_19
    5  A    between atoms: C_8  and  C_31
    6  A    between atoms: C_9  and  C_13
    7  A    between atoms: C_9  and  C_16
    8  A    between atoms: O_11  and  C_26
    9  A    between atoms: O_18  and  C_35
   10  A    between atoms: C_20  and  C_21
   11  A    between atoms: C_21  and  C_32
                            x       y       z     vdW  Elec       q    Type
                         _______ _______ _______ _____ _____    ______ ____

>  <TORSDO>
F 11

$$$$
