=
 OpenBabel11052417363D

 25 29  0  0  1  0  0  0  0  0999 V2000
  187.9580  177.2500  145.6810 N   0  0  0  0  0  0  0  0  0  0  0  0
  189.3970  177.3830  145.4610 C   0  0  2  0  0  3  0  0  0  0  0  0
  188.1970  175.6430  147.4280 C   0  0  0  0  0  3  0  0  0  0  0  0
  186.9490  178.2640  145.4230 C   0  0  2  0  0  3  0  0  0  0  0  0
  190.3470  176.3390  143.4050 N   0  0  2  0  0  0  0  0  0  0  0  0
  184.3370  179.1910  144.8220 C   0  0  0  0  0  2  0  0  0  0  0  0
  189.5790  175.5100  147.0630 N   0  0  0  0  0  0  0  0  0  0  0  0
  185.8090  177.8210  146.3070 C   0  0  0  0  0  0  0  0  0  0  0  0
  184.4030  178.2890  146.0700 C   0  0  0  0  0  2  0  0  0  0  0  0
  191.5700  176.0430  145.8880 N   0  0  0  0  0  0  0  0  0  0  0  0
  192.3370  175.0610  146.6400 C   0  0  0  0  0  1  0  0  0  0  0  0
  189.6840  177.5300  143.9580 C   0  0  0  0  0  2  0  0  0  0  0  0
  185.2350  178.6860  143.7130 C   0  0  0  0  0  3  0  0  0  0  0  0
  187.4350  176.4900  146.7510 C   0  0  0  0  0  0  0  0  0  0  0  0
  186.0910  176.8080  147.0630 N   0  0  0  0  0  0  0  0  0  0  0  0
  192.2810  176.8370  144.8930 C   0  0  0  0  0  2  0  0  0  0  0  0
  186.4740  178.2480  143.9960 C   0  0  0  0  0  3  0  0  0  0  0  0
  191.8010  176.5070  143.4760 C   0  0  0  0  0  2  0  0  0  0  0  0
  190.1700  176.2550  146.1630 C   0  0  0  0  0  0  0  0  0  0  0  0
  188.3870  175.6270  141.7290 S   0  0  0  0  0  0  0  0  0  0  0  0
  187.4230  175.1950  142.7990 O   0  0  0  0  0  0  0  0  0  0  0  0
  187.8500  175.6420  140.3270 O   0  0  0  0  0  0  0  0  0  0  0  0
  189.9950  175.9830  142.0120 C   0  0  2  0  0  3  0  0  0  0  0  0
  190.4660  173.3210  141.6900 C   0  0  0  0  0  2  0  0  0  0  0  0
  189.8990  174.5190  141.7930 C   0  0  0  0  0  0  0  0  0  0  0  0
  1 14  1  0  0  0  0
  2 12  1  6  0  0  0
  2  1  1  0  0  0  0
  2 19  1  0  0  0  0
  4 17  1  6  0  0  0
  4  1  1  0  0  0  0
  4  8  1  0  0  0  0
  5 18  1  6  0  0  0
  5 12  1  0  0  0  0
  6  9  1  0  0  0  0
  7  3  1  0  0  0  0
  8 15  2  0  0  0  0
  9  8  1  0  0  0  0
 10 19  1  0  0  0  0
 10 11  1  0  0  0  0
 13 17  2  0  0  0  0
 13  6  1  0  0  0  0
 14 15  1  0  0  0  0
 14  3  2  0  0  0  0
 16 10  1  0  0  0  0
 18 16  1  0  0  0  0
 19  7  2  0  0  0  0
 20 25  1  0  0  0  0
 20 23  1  0  0  0  0
 20 21  2  0  0  0  0
 22 20  2  0  0  0  0
 23 25  1  1  0  0  0
 23  5  1  0  0  0  0
 24 25  2  0  0  0  0
M  END
>  <MODEL>
1

>  <REMARK>
 VINA RESULT:      -7.4      0.000      0.000
  Name = 
  1 active torsions:
  status: ('A' for Active; 'I' for Inactive)
    1  A    between atoms: N_6  and  C_15
                            x       y       z     vdW  Elec       q    Type
                         _______ _______ _______ _____ _____    ______ ____

>  <TORSDO>
F 1

$$$$
=
 OpenBabel11052417363D

 25 29  0  0  1  0  0  0  0  0999 V2000
  187.9480  176.6220  144.5670 N   0  0  0  0  0  0  0  0  0  0  0  0
  188.6580  175.3700  144.3180 C   0  0  2  0  0  3  0  0  0  0  0  0
  188.5620  177.5920  142.4770 C   0  0  0  0  0  3  0  0  0  0  0  0
  186.7790  176.7960  145.4150 C   0  0  2  0  0  3  0  0  0  0  0  0
  190.7800  174.9820  145.5690 N   0  0  2  0  0  0  0  0  0  0  0  0
  185.0160  178.2600  147.0870 C   0  0  0  0  0  2  0  0  0  0  0  0
  189.5080  176.5250  142.3040 N   0  0  0  0  0  0  0  0  0  0  0  0
  186.1780  178.0740  144.8820 C   0  0  0  0  0  0  0  0  0  0  0  0
  185.2170  178.8900  145.6950 C   0  0  0  0  0  2  0  0  0  0  0  0
  190.5870  174.4800  142.8390 N   0  0  0  0  0  0  0  0  0  0  0  0
  191.4050  174.5400  141.6360 C   0  0  0  0  0  1  0  0  0  0  0  0
  189.3140  174.8730  145.6160 C   0  0  0  0  0  2  0  0  0  0  0  0
  186.3100  177.7090  147.6480 C   0  0  0  0  0  3  0  0  0  0  0  0
  187.8200  177.6180  143.5730 C   0  0  0  0  0  0  0  0  0  0  0  0
  186.7750  178.5390  143.8300 N   0  0  0  0  0  0  0  0  0  0  0  0
  190.7530  173.3240  143.7110 C   0  0  0  0  0  2  0  0  0  0  0  0
  187.1460  177.0130  146.8570 C   0  0  0  0  0  3  0  0  0  0  0  0
  191.3510  173.7330  145.0620 C   0  0  0  0  0  2  0  0  0  0  0  0
  189.6110  175.5050  143.1190 C   0  0  0  0  0  0  0  0  0  0  0  0
  191.0330  176.7640  147.5500 S   0  0  0  0  0  0  0  0  0  0  0  0
  190.4320  177.9160  146.7940 O   0  0  0  0  0  0  0  0  0  0  0  0
  191.3350  177.0140  148.9990 O   0  0  0  0  0  0  0  0  0  0  0  0
  191.4530  175.3070  146.8470 C   0  0  2  0  0  3  0  0  0  0  0  0
  193.8410  176.4710  146.2590 C   0  0  0  0  0  2  0  0  0  0  0  0
  192.6060  176.2250  146.6820 C   0  0  0  0  0  0  0  0  0  0  0  0
  1  4  1  0  0  0  0
  2  1  1  0  0  0  0
  2 12  1  1  0  0  0
  3 14  2  0  0  0  0
  4 17  1  1  0  0  0
  5 18  1  1  0  0  0
  5 12  1  0  0  0  0
  5 23  1  0  0  0  0
  6 13  1  0  0  0  0
  7  3  1  0  0  0  0
  7 19  2  0  0  0  0
  8  4  1  0  0  0  0
  8  9  1  0  0  0  0
  9  6  1  0  0  0  0
 10 19  1  0  0  0  0
 10 16  1  0  0  0  0
 11 10  1  0  0  0  0
 14 15  1  0  0  0  0
 14  1  1  0  0  0  0
 15  8  2  0  0  0  0
 16 18  1  0  0  0  0
 17 13  2  0  0  0  0
 19  2  1  0  0  0  0
 20 22  2  0  0  0  0
 21 20  2  0  0  0  0
 23 25  1  6  0  0  0
 23 20  1  0  0  0  0
 24 25  2  0  0  0  0
 25 20  1  0  0  0  0
M  END
>  <MODEL>
2

>  <REMARK>
 VINA RESULT:      -7.3      2.758      4.396
  Name = 
  1 active torsions:
  status: ('A' for Active; 'I' for Inactive)
    1  A    between atoms: N_6  and  C_15
                            x       y       z     vdW  Elec       q    Type
                         _______ _______ _______ _____ _____    ______ ____

>  <TORSDO>
F 1

$$$$
=
 OpenBabel11052417363D

 25 29  0  0  1  0  0  0  0  0999 V2000
  187.1330  177.5060  143.5990 N   0  0  0  0  0  0  0  0  0  0  0  0
  188.5350  177.6520  143.9840 C   0  0  2  0  0  3  0  0  0  0  0  0
  186.4150  176.8820  145.7860 C   0  0  0  0  0  3  0  0  0  0  0  0
  186.4590  178.2030  142.5150 C   0  0  2  0  0  3  0  0  0  0  0  0
  190.1250  175.8850  143.2300 N   0  0  2  0  0  0  0  0  0  0  0  0
  184.4770  178.5270  140.5130 C   0  0  0  0  0  2  0  0  0  0  0  0
  187.7950  176.7210  146.1500 N   0  0  0  0  0  0  0  0  0  0  0  0
  185.0080  178.1050  142.9190 C   0  0  0  0  0  0  0  0  0  0  0  0
  183.9010  178.2910  141.9230 C   0  0  0  0  0  2  0  0  0  0  0  0
  190.1450  176.8440  145.8420 N   0  0  0  0  0  0  0  0  0  0  0  0
  190.3970  176.3760  147.1970 C   0  0  0  0  0  1  0  0  0  0  0  0
  189.4430  177.1340  142.8570 C   0  0  0  0  0  2  0  0  0  0  0  0
  185.6880  177.6600  140.2460 C   0  0  0  0  0  3  0  0  0  0  0  0
  186.1200  177.2640  144.5530 C   0  0  0  0  0  0  0  0  0  0  0  0
  184.8190  177.5690  144.0820 N   0  0  0  0  0  0  0  0  0  0  0  0
  191.3000  177.1660  145.0130 C   0  0  0  0  0  2  0  0  0  0  0  0
  186.6300  177.5060  141.1940 C   0  0  0  0  0  3  0  0  0  0  0  0
  191.4230  176.1940  143.8350 C   0  0  0  0  0  2  0  0  0  0  0  0
  188.7960  177.0330  145.3660 C   0  0  0  0  0  0  0  0  0  0  0  0
  188.9790  174.3040  141.4010 S   0  0  0  0  0  0  0  0  0  0  0  0
  187.6180  174.2950  142.0410 O   0  0  0  0  0  0  0  0  0  0  0  0
  189.0790  173.6380  140.0590 O   0  0  0  0  0  0  0  0  0  0  0  0
  190.3500  174.9120  142.1370 C   0  0  2  0  0  3  0  0  0  0  0  0
  190.6350  172.4500  143.2610 C   0  0  0  0  0  2  0  0  0  0  0  0
  190.2040  173.5020  142.5740 C   0  0  0  0  0  0  0  0  0  0  0  0
  1  2  1  0  0  0  0
  1 14  1  0  0  0  0
  2 12  1  6  0  0  0
  2 19  1  0  0  0  0
  3  7  1  0  0  0  0
  4 17  1  6  0  0  0
  4  8  1  0  0  0  0
  4  1  1  0  0  0  0
  5 12  1  6  0  0  0
  5 18  1  0  0  0  0
  6  9  1  0  0  0  0
  8 15  2  0  0  0  0
  9  8  1  0  0  0  0
 10 11  1  0  0  0  0
 13  6  1  0  0  0  0
 13 17  2  0  0  0  0
 14  3  2  0  0  0  0
 15 14  1  0  0  0  0
 16 10  1  0  0  0  0
 18 16  1  0  0  0  0
 19 10  1  0  0  0  0
 19  7  2  0  0  0  0
 20 21  2  0  0  0  0
 20 23  1  0  0  0  0
 20 25  1  0  0  0  0
 22 20  2  0  0  0  0
 23 25  1  1  0  0  0
 23  5  1  0  0  0  0
 25 24  2  0  0  0  0
M  END
>  <MODEL>
3

>  <REMARK>
 VINA RESULT:      -7.3      1.824      2.438
  Name = 
  1 active torsions:
  status: ('A' for Active; 'I' for Inactive)
    1  A    between atoms: N_6  and  C_15
                            x       y       z     vdW  Elec       q    Type
                         _______ _______ _______ _____ _____    ______ ____

>  <TORSDO>
F 1

$$$$
=
 OpenBabel11052417363D

 25 29  0  0  1  0  0  0  0  0999 V2000
  188.0970  177.1470  144.6940 N   0  0  0  0  0  0  0  0  0  0  0  0
  189.5500  177.2750  144.7870 C   0  0  2  0  0  3  0  0  0  0  0  0
  187.8780  176.0950  146.8240 C   0  0  0  0  0  3  0  0  0  0  0  0
  187.2030  178.0090  143.9380 C   0  0  2  0  0  3  0  0  0  0  0  0
  190.9310  175.7470  143.3800 N   0  0  2  0  0  0  0  0  0  0  0  0
  184.8280  178.6240  142.5130 C   0  0  0  0  0  2  0  0  0  0  0  0
  189.3040  175.9240  146.8410 N   0  0  0  0  0  0  0  0  0  0  0  0
  185.8770  177.7780  144.6190 C   0  0  0  0  0  0  0  0  0  0  0  0
  184.5770  178.1030  143.9420 C   0  0  0  0  0  2  0  0  0  0  0  0
  191.5280  176.1960  146.0610 N   0  0  0  0  0  0  0  0  0  0  0  0
  192.0720  175.4920  147.2130 C   0  0  0  0  0  1  0  0  0  0  0  0
  190.1860  177.0150  143.4110 C   0  0  0  0  0  2  0  0  0  0  0  0
  185.9490  177.8720  141.8290 C   0  0  0  0  0  3  0  0  0  0  0  0
  187.3190  176.6890  145.7810 C   0  0  0  0  0  0  0  0  0  0  0  0
  185.9470  177.0250  145.6710 N   0  0  0  0  0  0  0  0  0  0  0  0
  192.4730  176.7150  145.0790 C   0  0  0  0  0  2  0  0  0  0  0  0
  187.0760  177.5800  142.5020 C   0  0  0  0  0  3  0  0  0  0  0  0
  192.3300  175.9880  143.7370 C   0  0  0  0  0  2  0  0  0  0  0  0
  190.1090  176.4170  145.9340 C   0  0  0  0  0  0  0  0  0  0  0  0
  189.4110  174.4570  141.5950 S   0  0  0  0  0  0  0  0  0  0  0  0
  188.2420  174.2450  142.5170 O   0  0  0  0  0  0  0  0  0  0  0  0
  189.2010  174.0550  140.1630 O   0  0  0  0  0  0  0  0  0  0  0  0
  190.9070  175.0060  142.0990 C   0  0  2  0  0  3  0  0  0  0  0  0
  191.4970  172.4030  142.6300 C   0  0  0  0  0  2  0  0  0  0  0  0
  190.8950  173.5340  142.2770 C   0  0  0  0  0  0  0  0  0  0  0  0
  1  2  1  0  0  0  0
  1 14  1  0  0  0  0
  2 12  1  6  0  0  0
  2 19  1  0  0  0  0
  3  7  1  0  0  0  0
  4 17  1  6  0  0  0
  4  8  1  0  0  0  0
  4  1  1  0  0  0  0
  5 12  1  6  0  0  0
  5 18  1  0  0  0  0
  6  9  1  0  0  0  0
  8 15  2  0  0  0  0
  9  8  1  0  0  0  0
 10 11  1  0  0  0  0
 13 17  2  0  0  0  0
 13  6  1  0  0  0  0
 14  3  2  0  0  0  0
 15 14  1  0  0  0  0
 16 10  1  0  0  0  0
 18 16  1  0  0  0  0
 19 10  1  0  0  0  0
 19  7  2  0  0  0  0
 20 23  1  0  0  0  0
 20 25  1  0  0  0  0
 20 21  2  0  0  0  0
 22 20  2  0  0  0  0
 23 25  1  1  0  0  0
 23  5  1  0  0  0  0
 25 24  2  0  0  0  0
M  END
>  <MODEL>
4

>  <REMARK>
 VINA RESULT:      -7.0      1.149      1.372
  Name = 
  1 active torsions:
  status: ('A' for Active; 'I' for Inactive)
    1  A    between atoms: N_6  and  C_15
                            x       y       z     vdW  Elec       q    Type
                         _______ _______ _______ _____ _____    ______ ____

>  <TORSDO>
F 1

$$$$
=
 OpenBabel11052417363D

 25 29  0  0  1  0  0  0  0  0999 V2000
  187.1240  176.6770  143.2390 N   0  0  0  0  0  0  0  0  0  0  0  0
  187.5150  175.3560  142.7530 C   0  0  2  0  0  3  0  0  0  0  0  0
  186.7940  177.5770  141.0540 C   0  0  0  0  0  3  0  0  0  0  0  0
  186.5010  176.9760  144.5180 C   0  0  2  0  0  3  0  0  0  0  0  0
  189.9270  174.7410  142.9080 N   0  0  2  0  0  0  0  0  0  0  0  0
  185.8580  178.6190  146.7390 C   0  0  0  0  0  2  0  0  0  0  0  0
  187.4460  176.4140  140.5200 N   0  0  0  0  0  0  0  0  0  0  0  0
  185.8480  178.3110  144.2580 C   0  0  0  0  0  0  0  0  0  0  0  0
  185.4540  179.2260  145.3810 C   0  0  0  0  0  2  0  0  0  0  0  0
  188.4480  174.2650  140.5990 N   0  0  0  0  0  0  0  0  0  0  0  0
  188.6200  174.2370  139.1540 C   0  0  0  0  0  1  0  0  0  0  0  0
  188.6450  174.7900  143.6280 C   0  0  0  0  0  2  0  0  0  0  0  0
  187.2050  177.9310  146.6700 C   0  0  0  0  0  3  0  0  0  0  0  0
  186.6470  177.6810  142.3670 C   0  0  0  0  0  0  0  0  0  0  0  0
  185.9330  178.7090  143.0290 N   0  0  0  0  0  0  0  0  0  0  0  0
  188.8860  173.0970  141.3540 C   0  0  0  0  0  2  0  0  0  0  0  0
  187.5110  177.1510  145.6190 C   0  0  0  0  0  3  0  0  0  0  0  0
  190.0760  173.4370  142.2570 C   0  0  0  0  0  2  0  0  0  0  0  0
  187.8150  175.3880  141.2450 C   0  0  0  0  0  0  0  0  0  0  0  0
  191.3020  176.5290  144.3480 S   0  0  0  0  0  0  0  0  0  0  0  0
  190.6030  177.7390  143.7910 O   0  0  0  0  0  0  0  0  0  0  0  0
  192.2550  176.7820  145.4800 O   0  0  0  0  0  0  0  0  0  0  0  0
  191.1410  174.9900  143.7180 C   0  0  2  0  0  3  0  0  0  0  0  0
  193.1550  175.6600  142.0130 C   0  0  0  0  0  2  0  0  0  0  0  0
  192.2190  175.6680  142.9570 C   0  0  0  0  0  0  0  0  0  0  0  0
  1  4  1  0  0  0  0
  2  1  1  0  0  0  0
  2 12  1  1  0  0  0
  3 14  2  0  0  0  0
  4 17  1  1  0  0  0
  5 18  1  1  0  0  0
  5 12  1  0  0  0  0
  5 23  1  0  0  0  0
  7  3  1  0  0  0  0
  7 19  2  0  0  0  0
  8  4  1  0  0  0  0
  8  9  1  0  0  0  0
  9  6  1  0  0  0  0
 10 19  1  0  0  0  0
 10 16  1  0  0  0  0
 11 10  1  0  0  0  0
 13  6  1  0  0  0  0
 14 15  1  0  0  0  0
 14  1  1  0  0  0  0
 15  8  2  0  0  0  0
 16 18  1  0  0  0  0
 17 13  2  0  0  0  0
 19  2  1  0  0  0  0
 20 22  2  0  0  0  0
 21 20  2  0  0  0  0
 23 25  1  6  0  0  0
 23 20  1  0  0  0  0
 24 25  2  0  0  0  0
 25 20  1  0  0  0  0
M  END
>  <MODEL>
5

>  <REMARK>
 VINA RESULT:      -7.0      2.689      4.491
  Name = 
  1 active torsions:
  status: ('A' for Active; 'I' for Inactive)
    1  A    between atoms: N_6  and  C_15
                            x       y       z     vdW  Elec       q    Type
                         _______ _______ _______ _____ _____    ______ ____

>  <TORSDO>
F 1

$$$$
=
 OpenBabel11052417363D

 25 29  0  0  1  0  0  0  0  0999 V2000
  187.8020  177.7040  144.9380 N   0  0  0  0  0  0  0  0  0  0  0  0
  189.1730  177.7800  144.4370 C   0  0  2  0  0  3  0  0  0  0  0  0
  188.4550  177.0660  147.1410 C   0  0  0  0  0  3  0  0  0  0  0  0
  186.6600  178.4540  144.4410 C   0  0  2  0  0  3  0  0  0  0  0  0
  189.9430  175.9600  142.9150 N   0  0  2  0  0  0  0  0  0  0  0  0
  183.9020  178.9100  143.9560 C   0  0  0  0  0  2  0  0  0  0  0  0
  189.7810  176.8360  146.6390 N   0  0  0  0  0  0  0  0  0  0  0  0
  185.7090  178.4120  145.6110 C   0  0  0  0  0  0  0  0  0  0  0  0
  184.2400  178.6690  145.4410 C   0  0  0  0  0  2  0  0  0  0  0  0
  191.5200  176.8600  145.0250 N   0  0  0  0  0  0  0  0  0  0  0  0
  192.4870  176.3520  145.9860 C   0  0  0  0  0  1  0  0  0  0  0  0
  189.2330  177.2460  142.9970 C   0  0  0  0  0  2  0  0  0  0  0  0
  184.6910  177.9950  143.0430 C   0  0  0  0  0  3  0  0  0  0  0  0
  187.5190  177.4870  146.3050 C   0  0  0  0  0  0  0  0  0  0  0  0
  186.2030  177.8600  146.6730 N   0  0  0  0  0  0  0  0  0  0  0  0
  191.9940  177.1480  143.6770 C   0  0  0  0  0  2  0  0  0  0  0  0
  185.9980  177.7790  143.2710 C   0  0  0  0  0  3  0  0  0  0  0  0
  191.3640  176.1980  142.6530 C   0  0  0  0  0  2  0  0  0  0  0  0
  190.1560  177.1190  145.4170 C   0  0  0  0  0  0  0  0  0  0  0  0
  188.9500  173.5140  142.4800 S   0  0  0  0  0  0  0  0  0  0  0  0
  189.3950  172.9340  143.7940 O   0  0  0  0  0  0  0  0  0  0  0  0
  188.0790  172.6310  141.6330 O   0  0  0  0  0  0  0  0  0  0  0  0
  189.4450  175.0020  141.9030 C   0  0  2  0  0  3  0  0  0  0  0  0
  191.5950  173.6950  140.8650 C   0  0  0  0  0  2  0  0  0  0  0  0
  190.4650  174.0070  141.4910 C   0  0  0  0  0  0  0  0  0  0  0  0
  1 14  1  0  0  0  0
  2 12  1  6  0  0  0
  2  1  1  0  0  0  0
  2 19  1  0  0  0  0
  4 17  1  6  0  0  0
  4  1  1  0  0  0  0
  4  8  1  0  0  0  0
  5 18  1  6  0  0  0
  5 12  1  0  0  0  0
  6  9  1  0  0  0  0
  7  3  1  0  0  0  0
  8 15  2  0  0  0  0
  9  8  1  0  0  0  0
 10 19  1  0  0  0  0
 10 11  1  0  0  0  0
 13 17  2  0  0  0  0
 13  6  1  0  0  0  0
 14 15  1  0  0  0  0
 14  3  2  0  0  0  0
 16 10  1  0  0  0  0
 18 16  1  0  0  0  0
 19  7  2  0  0  0  0
 20 21  2  0  0  0  0
 22 20  2  0  0  0  0
 23 25  1  6  0  0  0
 23 20  1  0  0  0  0
 23  5  1  0  0  0  0
 24 25  2  0  0  0  0
 25 20  1  0  0  0  0
M  END
>  <MODEL>
6

>  <REMARK>
 VINA RESULT:      -7.0      1.377      1.467
  Name = 
  1 active torsions:
  status: ('A' for Active; 'I' for Inactive)
    1  A    between atoms: N_6  and  C_15
                            x       y       z     vdW  Elec       q    Type
                         _______ _______ _______ _____ _____    ______ ____

>  <TORSDO>
F 1

$$$$
=
 OpenBabel11052417363D

 25 29  0  0  1  0  0  0  0  0999 V2000
  189.3390  176.3100  145.2630 N   0  0  0  0  0  0  0  0  0  0  0  0
  190.6940  176.6020  144.8000 C   0  0  2  0  0  3  0  0  0  0  0  0
  190.0630  175.3030  147.3000 C   0  0  0  0  0  3  0  0  0  0  0  0
  188.1320  177.0440  144.9150 C   0  0  2  0  0  3  0  0  0  0  0  0
  191.6050  175.1960  142.9520 N   0  0  2  0  0  0  0  0  0  0  0  0
  185.3420  177.3480  144.5060 C   0  0  0  0  0  2  0  0  0  0  0  0
  191.3990  175.2930  146.7740 N   0  0  0  0  0  0  0  0  0  0  0  0
  187.1980  176.6870  146.0450 C   0  0  0  0  0  0  0  0  0  0  0  0
  185.7110  176.8450  145.9150 C   0  0  0  0  0  2  0  0  0  0  0  0
  193.1160  175.7880  145.2130 N   0  0  0  0  0  0  0  0  0  0  0  0
  194.1310  175.1830  146.0620 C   0  0  0  0  0  1  0  0  0  0  0  0
  190.7880  176.3730  143.2820 C   0  0  0  0  0  2  0  0  0  0  0  0
  186.1990  176.7050  143.4360 C   0  0  0  0  0  3  0  0  0  0  0  0
  189.0870  175.8010  146.5560 C   0  0  0  0  0  0  0  0  0  0  0  0
  187.7470  175.9780  146.9800 N   0  0  0  0  0  0  0  0  0  0  0  0
  193.5530  176.3800  143.9540 C   0  0  0  0  0  2  0  0  0  0  0  0
  187.5220  176.5620  143.6280 C   0  0  0  0  0  3  0  0  0  0  0  0
  192.9980  175.6020  142.7560 C   0  0  0  0  0  2  0  0  0  0  0  0
  191.7380  175.8460  145.6370 C   0  0  0  0  0  0  0  0  0  0  0  0
  189.6940  173.6680  141.8690 S   0  0  0  0  0  0  0  0  0  0  0  0
  189.0120  173.3360  143.1670 O   0  0  0  0  0  0  0  0  0  0  0  0
  189.0000  173.1990  140.6220 O   0  0  0  0  0  0  0  0  0  0  0  0
  191.1830  174.4200  141.7640 C   0  0  2  0  0  3  0  0  0  0  0  0
  192.2660  171.9310  141.9680 C   0  0  0  0  0  2  0  0  0  0  0  0
  191.4330  172.9640  141.9010 C   0  0  0  0  0  0  0  0  0  0  0  0
  1 14  1  0  0  0  0
  2 12  1  6  0  0  0
  2  1  1  0  0  0  0
  2 19  1  0  0  0  0
  4 17  1  6  0  0  0
  4  1  1  0  0  0  0
  4  8  1  0  0  0  0
  5 18  1  6  0  0  0
  5 12  1  0  0  0  0
  6  9  1  0  0  0  0
  7  3  1  0  0  0  0
  8 15  2  0  0  0  0
  9  8  1  0  0  0  0
 10 19  1  0  0  0  0
 10 11  1  0  0  0  0
 13 17  2  0  0  0  0
 13  6  1  0  0  0  0
 14 15  1  0  0  0  0
 14  3  2  0  0  0  0
 16 10  1  0  0  0  0
 18 16  1  0  0  0  0
 19  7  2  0  0  0  0
 20 25  1  0  0  0  0
 20 21  2  0  0  0  0
 22 20  2  0  0  0  0
 23 20  1  0  0  0  0
 23 25  1  1  0  0  0
 23  5  1  0  0  0  0
 25 24  2  0  0  0  0
M  END
>  <MODEL>
7

>  <REMARK>
 VINA RESULT:      -6.8      1.693      1.971
  Name = 
  1 active torsions:
  status: ('A' for Active; 'I' for Inactive)
    1  A    between atoms: N_6  and  C_15
                            x       y       z     vdW  Elec       q    Type
                         _______ _______ _______ _____ _____    ______ ____

>  <TORSDO>
F 1

$$$$
=
 OpenBabel11052417363D

 25 29  0  0  1  0  0  0  0  0999 V2000
  189.7430  176.2560  143.9220 N   0  0  0  0  0  0  0  0  0  0  0  0
  188.8730  177.2110  143.2380 C   0  0  2  0  0  3  0  0  0  0  0  0
  189.9280  174.8060  142.0380 C   0  0  0  0  0  3  0  0  0  0  0  0
  190.6550  176.5510  145.0160 C   0  0  2  0  0  3  0  0  0  0  0  0
  186.4640  177.2350  143.8790 N   0  0  2  0  0  0  0  0  0  0  0  0
  192.1820  175.9270  147.3240 C   0  0  0  0  0  2  0  0  0  0  0  0
  188.8560  175.5360  141.4210 N   0  0  0  0  0  0  0  0  0  0  0  0
  191.6340  175.4060  144.9410 C   0  0  0  0  0  0  0  0  0  0  0  0
  192.4970  175.0310  146.1100 C   0  0  0  0  0  2  0  0  0  0  0  0
  187.2620  177.2810  141.2140 N   0  0  0  0  0  0  0  0  0  0  0  0
  186.8250  176.7960  139.9130 C   0  0  0  0  0  1  0  0  0  0  0  0
  187.8060  177.7360  144.2120 C   0  0  0  0  0  2  0  0  0  0  0  0
  190.6980  176.2040  147.4490 C   0  0  0  0  0  3  0  0  0  0  0  0
  190.3410  175.1720  143.2420 C   0  0  0  0  0  0  0  0  0  0  0  0
  191.4520  174.6220  143.9260 N   0  0  0  0  0  0  0  0  0  0  0  0
  186.6270  178.4860  141.7330 C   0  0  0  0  0  2  0  0  0  0  0  0
  189.9740  176.5020  146.3560 C   0  0  0  0  0  3  0  0  0  0  0  0
  185.7940  178.1780  142.9810 C   0  0  0  0  0  2  0  0  0  0  0  0
  188.3250  176.6190  141.9300 C   0  0  0  0  0  0  0  0  0  0  0  0
  185.0320  178.3180  145.8640 S   0  0  0  0  0  0  0  0  0  0  0  0
  185.7380  179.6460  145.8520 O   0  0  0  0  0  0  0  0  0  0  0  0
  183.8350  178.2170  146.7640 O   0  0  0  0  0  0  0  0  0  0  0  0
  185.5620  176.9740  145.0240 C   0  0  2  0  0  3  0  0  0  0  0  0
  187.1090  176.4350  147.1970 C   0  0  0  0  0  2  0  0  0  0  0  0
  186.2630  176.9820  146.3310 C   0  0  0  0  0  0  0  0  0  0  0  0
  1  4  1  0  0  0  0
  2  1  1  0  0  0  0
  2 12  1  1  0  0  0
  3 14  2  0  0  0  0
  4 17  1  1  0  0  0
  5 18  1  6  0  0  0
  5 12  1  0  0  0  0
  5 23  1  0  0  0  0
  6 13  1  0  0  0  0
  7 19  2  0  0  0  0
  7  3  1  0  0  0  0
  8  4  1  0  0  0  0
  8  9  1  0  0  0  0
  9  6  1  0  0  0  0
 10 16  1  0  0  0  0
 10 19  1  0  0  0  0
 11 10  1  0  0  0  0
 14  1  1  0  0  0  0
 14 15  1  0  0  0  0
 15  8  2  0  0  0  0
 16 18  1  0  0  0  0
 17 13  2  0  0  0  0
 19  2  1  0  0  0  0
 20 25  1  0  0  0  0
 20 22  2  0  0  0  0
 21 20  2  0  0  0  0
 23 20  1  0  0  0  0
 23 25  1  1  0  0  0
 25 24  2  0  0  0  0
M  END
>  <MODEL>
8

>  <REMARK>
 VINA RESULT:      -6.7      2.712      6.085
  Name = 
  1 active torsions:
  status: ('A' for Active; 'I' for Inactive)
    1  A    between atoms: N_6  and  C_15
                            x       y       z     vdW  Elec       q    Type
                         _______ _______ _______ _____ _____    ______ ____

>  <TORSDO>
F 1

$$$$
=
 OpenBabel11052417363D

 25 29  0  0  1  0  0  0  0  0999 V2000
  186.6900  176.8470  143.2140 N   0  0  0  0  0  0  0  0  0  0  0  0
  187.5160  175.6480  143.0850 C   0  0  2  0  0  3  0  0  0  0  0  0
  186.4140  177.1230  140.8610 C   0  0  0  0  0  3  0  0  0  0  0  0
  185.8370  177.1890  144.3410 C   0  0  2  0  0  3  0  0  0  0  0  0
  189.9570  175.8780  143.5430 N   0  0  2  0  0  0  0  0  0  0  0  0
  184.4410  178.9640  146.0570 C   0  0  0  0  0  2  0  0  0  0  0  0
  187.4460  176.1440  140.6650 N   0  0  0  0  0  0  0  0  0  0  0  0
  184.8630  178.1630  143.7270 C   0  0  0  0  0  0  0  0  0  0  0  0
  184.0660  179.1160  144.5690 C   0  0  0  0  0  2  0  0  0  0  0  0
  189.0160  174.4900  141.3220 N   0  0  0  0  0  0  0  0  0  0  0  0
  189.3850  174.2200  139.9400 C   0  0  0  0  0  1  0  0  0  0  0  0
  188.6310  175.6650  144.1440 C   0  0  0  0  0  2  0  0  0  0  0  0
  185.9270  178.7420  146.2430 C   0  0  0  0  0  3  0  0  0  0  0  0
  186.0640  177.4440  142.0980 C   0  0  0  0  0  0  0  0  0  0  0  0
  184.9950  178.3050  142.4460 N   0  0  0  0  0  0  0  0  0  0  0  0
  189.6700  173.7040  142.3610 C   0  0  0  0  0  2  0  0  0  0  0  0
  186.5900  177.9000  145.4320 C   0  0  0  0  0  3  0  0  0  0  0  0
  190.5710  174.5850  143.2340 C   0  0  0  0  0  2  0  0  0  0  0  0
  187.9970  175.4610  141.6370 C   0  0  0  0  0  0  0  0  0  0  0  0
  191.9640  175.7790  145.3100 S   0  0  0  0  0  0  0  0  0  0  0  0
  191.6970  174.3700  145.7630 O   0  0  0  0  0  0  0  0  0  0  0  0
  193.2110  176.4180  145.8490 O   0  0  0  0  0  0  0  0  0  0  0  0
  190.9210  176.6610  144.3480 C   0  0  2  0  0  3  0  0  0  0  0  0
  189.6780  177.3900  146.6570 C   0  0  0  0  0  2  0  0  0  0  0  0
  190.4880  176.8480  145.7550 C   0  0  0  0  0  0  0  0  0  0  0  0
  1  4  1  0  0  0  0
  2  1  1  0  0  0  0
  2 12  1  1  0  0  0
  3 14  2  0  0  0  0
  4 17  1  1  0  0  0
  5 18  1  1  0  0  0
  5 12  1  0  0  0  0
  5 23  1  0  0  0  0
  6 13  1  0  0  0  0
  7  3  1  0  0  0  0
  7 19  2  0  0  0  0
  8  4  1  0  0  0  0
  8  9  1  0  0  0  0
  9  6  1  0  0  0  0
 10 19  1  0  0  0  0
 10 16  1  0  0  0  0
 11 10  1  0  0  0  0
 14 15  1  0  0  0  0
 14  1  1  0  0  0  0
 15  8  2  0  0  0  0
 16 18  1  0  0  0  0
 17 13  2  0  0  0  0
 19  2  1  0  0  0  0
 20 25  1  0  0  0  0
 20 21  2  0  0  0  0
 20 22  2  0  0  0  0
 23 20  1  0  0  0  0
 23 25  1  1  0  0  0
 25 24  2  0  0  0  0
M  END
>  <MODEL>
9

>  <REMARK>
 VINA RESULT:      -6.6      2.818      4.539
  Name = 
  1 active torsions:
  status: ('A' for Active; 'I' for Inactive)
    1  A    between atoms: N_6  and  C_15
                            x       y       z     vdW  Elec       q    Type
                         _______ _______ _______ _____ _____    ______ ____

>  <TORSDO>
F 1

$$$$
