=
 OpenBabel11052420363D

 34 39  0  0  1  0  0  0  0  0999 V2000
  187.0610  178.0240  144.5660 C   0  0  2  0  0  3  0  0  0  0  0  0
  184.9590  178.3860  141.5470 C   0  0  0  0  0  3  0  0  0  0  0  0
  184.5660  179.3350  143.7110 C   0  0  0  0  0  2  0  0  0  0  0  0
  187.9960  176.7670  146.5530 C   0  0  0  0  0  0  0  0  0  0  0  0
  188.2950  177.4570  145.2100 C   0  0  0  0  0  2  0  0  0  0  0  0
  185.9940  178.0630  146.7550 C   0  0  0  0  0  0  0  0  0  0  0  0
  184.6890  178.2250  147.1910 C   0  0  0  0  0  3  0  0  0  0  0  0
  186.9250  177.0870  147.2370 N   0  0  0  0  0  0  0  0  0  0  0  0
  184.8810  179.0220  145.1000 N   0  0  0  0  0  0  0  0  0  0  0  0
  186.0640  178.5380  145.4870 C   0  0  0  0  0  0  0  0  0  0  0  0
  184.0190  178.8320  146.1220 C   0  0  0  0  0  3  0  0  0  0  0  0
  185.5010  177.7170  140.3640 C   0  0  0  0  0  3  0  0  0  0  0  0
  186.7230  177.2280  140.1220 C   0  0  0  0  0  0  0  0  0  0  0  0
  187.8690  177.2880  141.0510 C   0  0  0  0  0  3  0  0  0  0  0  0
  185.4640  178.5360  142.7680 C   0  0  1  0  0  3  0  0  0  0  0  0
  187.8890  177.5870  142.3430 C   0  0  0  0  0  3  0  0  0  0  0  0
  186.7950  177.9880  143.2430 C   0  0  0  0  0  0  0  0  0  0  0  0
  186.9370  176.5840  138.8120 C   0  0  0  0  0  0  0  0  0  0  0  0
  187.4900  175.3090  138.7280 O   0  0  0  0  0  1  0  0  0  0  0  0
  186.6410  177.1990  137.7470 O   0  0  0  0  0  0  0  0  0  0  0  0
  188.8370  175.7730  147.0730 O   0  0  0  0  0  0  0  0  0  0  0  0
  192.4690  176.4350  147.1270 C   0  0  0  0  0  3  0  0  0  0  0  0
  190.7050  174.6000  145.9810 C   0  0  0  0  0  3  0  0  0  0  0  0
  194.8620  174.9260  144.8460 N   0  0  0  0  0  0  0  0  0  0  0  0
  194.1940  173.3440  144.4480 P   0  0  2  0  0  0  0  0  0  0  0  0
  194.4500  175.2480  146.2070 C   0  0  0  0  0  2  0  0  0  0  0  0
  194.3220  173.0840  142.9620 O   0  0  0  0  0  0  0  0  0  0  0  0
  192.9600  175.4240  146.2960 C   0  0  0  0  0  0  0  0  0  0  0  0
  196.3040  174.8150  144.8080 C   0  0  0  0  0  1  0  0  0  0  0  0
  192.5210  173.4970  144.8240 O   0  0  0  0  0  0  0  0  0  0  0  0
  192.0700  174.5070  145.6920 C   0  0  0  0  0  0  0  0  0  0  0  0
  194.8790  172.0910  145.3550 O   0  0  0  0  0  1  0  0  0  0  0  0
  190.2060  175.6220  146.8010 C   0  0  0  0  0  0  0  0  0  0  0  0
  191.0910  176.5460  147.3540 C   0  0  0  0  0  3  0  0  0  0  0  0
  1  5  1  1  0  0  0
  1 10  1  0  0  0  0
  3  9  1  0  0  0  0
  4 21  1  0  0  0  0
  4  8  2  0  0  0  0
  5  4  1  0  0  0  0
  6  7  1  0  0  0  0
  6  8  1  0  0  0  0
  9 10  1  0  0  0  0
  9 11  1  0  0  0  0
 10  6  2  0  0  0  0
 11  7  2  0  0  0  0
 12  2  2  0  0  0  0
 13 12  1  0  0  0  0
 13 14  2  0  0  0  0
 14 16  1  0  0  0  0
 15  2  1  1  0  0  0
 15 17  1  0  0  0  0
 15  3  1  0  0  0  0
 16 17  2  0  0  0  0
 17  1  1  0  0  0  0
 18 13  1  0  0  0  0
 19 18  1  0  0  0  0
 20 18  2  0  0  0  0
 22 34  1  0  0  0  0
 23 33  1  0  0  0  0
 24 26  1  0  0  0  0
 25 27  2  6  0  0  0
 25 30  1  0  0  0  0
 25 24  1  0  0  0  0
 25 32  1  0  0  0  0
 26 28  1  0  0  0  0
 28 22  2  0  0  0  0
 29 24  1  0  0  0  0
 30 31  1  0  0  0  0
 31 23  2  0  0  0  0
 31 28  1  0  0  0  0
 33 21  1  0  0  0  0
 33 34  2  0  0  0  0
M  END
>  <MODEL>
1

>  <REMARK>
 VINA RESULT:      -9.2      0.000      0.000
  Name = 
  3 active torsions:
  status: ('A' for Active; 'I' for Inactive)
    1  A    between atoms: C_3  and  C_25
    2  A    between atoms: C_8  and  O_18
    3  A    between atoms: O_18  and  C_30
                            x       y       z     vdW  Elec       q    Type
                         _______ _______ _______ _____ _____    ______ ____

>  <TORSDO>
F 3

$$$$
=
 OpenBabel11052420363D

 34 39  0  0  1  0  0  0  0  0999 V2000
  189.5900  177.0880  144.8640 C   0  0  2  0  0  3  0  0  0  0  0  0
  186.0120  176.9590  143.9390 C   0  0  0  0  0  3  0  0  0  0  0  0
  186.9560  176.7110  146.1270 C   0  0  0  0  0  2  0  0  0  0  0  0
  191.9420  176.1660  144.9970 C   0  0  0  0  0  0  0  0  0  0  0  0
  191.0200  177.2630  144.4360 C   0  0  0  0  0  2  0  0  0  0  0  0
  190.3660  175.7610  146.7520 C   0  0  0  0  0  0  0  0  0  0  0  0
  189.7470  174.9160  147.6600 C   0  0  0  0  0  3  0  0  0  0  0  0
  191.6020  175.5050  146.0760 N   0  0  0  0  0  0  0  0  0  0  0  0
  188.2090  176.2550  146.7170 N   0  0  0  0  0  0  0  0  0  0  0  0
  189.4050  176.5370  146.1940 C   0  0  0  0  0  0  0  0  0  0  0  0
  188.3900  175.2580  147.6090 C   0  0  0  0  0  3  0  0  0  0  0  0
  185.7590  177.1940  142.5170 C   0  0  0  0  0  3  0  0  0  0  0  0
  186.5520  177.6930  141.5620 C   0  0  0  0  0  0  0  0  0  0  0  0
  187.9350  178.1700  141.7580 C   0  0  0  0  0  3  0  0  0  0  0  0
  187.1430  177.0030  144.6390 C   0  0  1  0  0  3  0  0  0  0  0  0
  188.7460  177.9920  142.7920 C   0  0  0  0  0  3  0  0  0  0  0  0
  188.5150  177.3070  144.0740 C   0  0  0  0  0  0  0  0  0  0  0  0
  185.9850  177.7790  140.2020 C   0  0  0  0  0  0  0  0  0  0  0  0
  184.7370  178.3570  139.9860 O   0  0  0  0  0  1  0  0  0  0  0  0
  186.6220  177.3030  139.2180 O   0  0  0  0  0  0  0  0  0  0  0  0
  193.1500  175.8290  144.3700 O   0  0  0  0  0  0  0  0  0  0  0  0
  196.2220  174.0930  145.4530 C   0  0  0  0  0  3  0  0  0  0  0  0
  193.5980  173.4410  144.7600 C   0  0  0  0  0  3  0  0  0  0  0  0
  196.7250  170.4990  145.2540 N   0  0  0  0  0  0  0  0  0  0  0  0
  195.1210  169.7930  145.4440 P   0  0  2  0  0  0  0  0  0  0  0  0
  196.7560  171.7340  146.0290 C   0  0  0  0  0  2  0  0  0  0  0  0
  194.9190  168.6820  144.4350 O   0  0  0  0  0  0  0  0  0  0  0  0
  195.8140  172.7560  145.4590 C   0  0  0  0  0  0  0  0  0  0  0  0
  197.6820  169.5710  145.8150 C   0  0  0  0  0  1  0  0  0  0  0  0
  194.0530  171.0820  145.0450 O   0  0  0  0  0  0  0  0  0  0  0  0
  194.4930  172.4170  145.0850 C   0  0  0  0  0  0  0  0  0  0  0  0
  194.8180  169.2560  147.0200 O   0  0  0  0  0  1  0  0  0  0  0  0
  194.0080  174.7820  144.7370 C   0  0  0  0  0  0  0  0  0  0  0  0
  195.3260  175.0970  145.0670 C   0  0  0  0  0  3  0  0  0  0  0  0
  1  5  1  6  0  0  0
  1 10  1  0  0  0  0
  3  9  1  0  0  0  0
  4  8  2  0  0  0  0
  5  4  1  0  0  0  0
  6  7  1  0  0  0  0
  8  6  1  0  0  0  0
  9 11  1  0  0  0  0
 10  9  1  0  0  0  0
 10  6  2  0  0  0  0
 11  7  2  0  0  0  0
 12  2  2  0  0  0  0
 13 14  2  0  0  0  0
 13 12  1  0  0  0  0
 14 16  1  0  0  0  0
 15  2  1  6  0  0  0
 15  3  1  0  0  0  0
 16 17  2  0  0  0  0
 17 15  1  0  0  0  0
 17  1  1  0  0  0  0
 18 13  1  0  0  0  0
 19 18  1  0  0  0  0
 20 18  2  0  0  0  0
 21 33  1  0  0  0  0
 21  4  1  0  0  0  0
 22 28  1  0  0  0  0
 23 31  1  0  0  0  0
 24 25  1  0  0  0  0
 24 29  1  0  0  0  0
 24 26  1  0  0  0  0
 25 27  2  6  0  0  0
 25 32  1  0  0  0  0
 28 26  1  0  0  0  0
 30 31  1  0  0  0  0
 30 25  1  0  0  0  0
 31 28  2  0  0  0  0
 33 23  2  0  0  0  0
 33 34  1  0  0  0  0
 34 22  2  0  0  0  0
M  END
>  <MODEL>
2

>  <REMARK>
 VINA RESULT:      -8.5      2.381      3.925
  Name = 
  3 active torsions:
  status: ('A' for Active; 'I' for Inactive)
    1  A    between atoms: C_3  and  C_25
    2  A    between atoms: C_8  and  O_18
    3  A    between atoms: O_18  and  C_30
                            x       y       z     vdW  Elec       q    Type
                         _______ _______ _______ _____ _____    ______ ____

>  <TORSDO>
F 3

$$$$
=
 OpenBabel11052420363D

 34 39  0  0  1  0  0  0  0  0999 V2000
  187.3600  177.7570  143.8430 C   0  0  2  0  0  3  0  0  0  0  0  0
  183.8160  178.7970  144.0020 C   0  0  0  0  0  3  0  0  0  0  0  0
  185.4720  179.0150  145.7200 C   0  0  0  0  0  2  0  0  0  0  0  0
  189.2390  176.0620  143.8430 C   0  0  0  0  0  0  0  0  0  0  0  0
  188.4840  177.1460  143.0530 C   0  0  0  0  0  2  0  0  0  0  0  0
  188.4690  177.0390  145.8880 C   0  0  0  0  0  0  0  0  0  0  0  0
  188.0800  176.9370  147.2140 C   0  0  0  0  0  3  0  0  0  0  0  0
  189.2110  176.0590  145.1540 N   0  0  0  0  0  0  0  0  0  0  0  0
  186.6930  178.3350  146.1350 N   0  0  0  0  0  0  0  0  0  0  0  0
  187.6000  177.8740  145.2700 C   0  0  0  0  0  0  0  0  0  0  0  0
  186.9580  177.7670  147.3310 C   0  0  0  0  0  3  0  0  0  0  0  0
  183.0750  178.5660  142.7610 C   0  0  0  0  0  3  0  0  0  0  0  0
  183.5080  178.2910  141.5260 C   0  0  0  0  0  0  0  0  0  0  0  0
  184.9220  178.1830  141.1170 C   0  0  0  0  0  3  0  0  0  0  0  0
  185.1030  178.6240  144.2900 C   0  0  1  0  0  3  0  0  0  0  0  0
  186.0090  178.0840  141.8720 C   0  0  0  0  0  3  0  0  0  0  0  0
  186.1540  178.0910  143.3360 C   0  0  0  0  0  0  0  0  0  0  0  0
  182.4790  178.0910  140.4870 C   0  0  0  0  0  0  0  0  0  0  0  0
  182.6770  177.1750  139.4570 O   0  0  0  0  0  0  0  0  0  0  0  0
  181.4130  178.7710  140.5110 O   0  0  0  0  0  1  0  0  0  0  0  0
  189.9540  175.0450  143.1970 O   0  0  0  0  0  0  0  0  0  0  0  0
  193.0020  173.2220  144.2060 C   0  0  0  0  0  3  0  0  0  0  0  0
  192.3340  175.6160  142.9350 C   0  0  0  0  0  3  0  0  0  0  0  0
  196.3300  174.6790  144.2880 N   0  0  0  0  0  0  0  0  0  0  0  0
  196.3350  175.9020  143.0180 P   0  0  2  0  0  0  0  0  0  0  0  0
  195.4340  173.6100  143.8650 C   0  0  0  0  0  2  0  0  0  0  0  0
  196.9970  177.1680  143.5180 O   0  0  0  0  0  1  0  0  0  0  0  0
  194.0130  174.0920  143.7870 C   0  0  0  0  0  0  0  0  0  0  0  0
  197.6730  174.1500  144.3920 C   0  0  0  0  0  1  0  0  0  0  0  0
  194.6660  176.2350  142.7600 O   0  0  0  0  0  0  0  0  0  0  0  0
  193.6810  175.3180  143.1650 C   0  0  0  0  0  0  0  0  0  0  0  0
  197.0470  175.3610  141.5820 O   0  0  0  0  0  0  0  0  0  0  0  0
  191.3160  174.7540  143.3690 C   0  0  0  0  0  0  0  0  0  0  0  0
  191.6580  173.5690  144.0190 C   0  0  0  0  0  3  0  0  0  0  0  0
  1  5  1  1  0  0  0
  1 10  1  0  0  0  0
  3  9  1  0  0  0  0
  4  8  2  0  0  0  0
  5  4  1  0  0  0  0
  6  7  1  0  0  0  0
  7 11  2  0  0  0  0
  8  6  1  0  0  0  0
  9 11  1  0  0  0  0
 10  6  2  0  0  0  0
 10  9  1  0  0  0  0
 12  2  2  0  0  0  0
 13 12  1  0  0  0  0
 14 13  2  0  0  0  0
 14 16  1  0  0  0  0
 15  2  1  1  0  0  0
 15  3  1  0  0  0  0
 16 17  2  0  0  0  0
 17  1  1  0  0  0  0
 17 15  1  0  0  0  0
 18 20  1  0  0  0  0
 18 13  1  0  0  0  0
 19 18  2  0  0  0  0
 21 33  1  0  0  0  0
 21  4  1  0  0  0  0
 23 31  2  0  0  0  0
 23 33  1  0  0  0  0
 24 29  1  0  0  0  0
 25 32  2  6  0  0  0
 25 27  1  0  0  0  0
 25 24  1  0  0  0  0
 26 24  1  0  0  0  0
 28 26  1  0  0  0  0
 28 22  2  0  0  0  0
 30 25  1  0  0  0  0
 30 31  1  0  0  0  0
 31 28  1  0  0  0  0
 33 34  2  0  0  0  0
 34 22  1  0  0  0  0
M  END
>  <MODEL>
3

>  <REMARK>
 VINA RESULT:      -8.4      2.585      3.468
  Name = 
  3 active torsions:
  status: ('A' for Active; 'I' for Inactive)
    1  A    between atoms: C_3  and  C_25
    2  A    between atoms: C_8  and  O_18
    3  A    between atoms: O_18  and  C_30
                            x       y       z     vdW  Elec       q    Type
                         _______ _______ _______ _____ _____    ______ ____

>  <TORSDO>
F 3

$$$$
=
 OpenBabel11052420363D

 34 39  0  0  1  0  0  0  0  0999 V2000
  190.9450  177.1020  144.3150 C   0  0  2  0  0  3  0  0  0  0  0  0
  187.3490  177.5300  145.0600 C   0  0  0  0  0  3  0  0  0  0  0  0
  189.1420  177.3110  146.6340 C   0  0  0  0  0  2  0  0  0  0  0  0
  192.9750  175.7920  143.5620 C   0  0  0  0  0  0  0  0  0  0  0  0
  192.0370  176.9820  143.2890 C   0  0  0  0  0  2  0  0  0  0  0  0
  192.3250  175.8290  145.8660 C   0  0  0  0  0  0  0  0  0  0  0  0
  192.0870  175.1910  147.0720 C   0  0  0  0  0  3  0  0  0  0  0  0
  193.0830  175.2990  144.7720 N   0  0  0  0  0  0  0  0  0  0  0  0
  190.4620  176.6940  146.6880 N   0  0  0  0  0  0  0  0  0  0  0  0
  191.3170  176.7110  145.6620 C   0  0  0  0  0  0  0  0  0  0  0  0
  190.9050  175.7630  147.5600 C   0  0  0  0  0  3  0  0  0  0  0  0
  186.5120  177.6800  143.8700 C   0  0  0  0  0  3  0  0  0  0  0  0
  186.8410  177.9440  142.6000 C   0  0  0  0  0  0  0  0  0  0  0  0
  188.2090  178.1830  142.1010 C   0  0  0  0  0  3  0  0  0  0  0  0
  188.6700  177.4340  145.1870 C   0  0  1  0  0  3  0  0  0  0  0  0
  189.3720  177.9550  142.6970 C   0  0  0  0  0  3  0  0  0  0  0  0
  189.6650  177.4380  144.0440 C   0  0  0  0  0  0  0  0  0  0  0  0
  185.7360  178.0090  141.6240 C   0  0  0  0  0  0  0  0  0  0  0  0
  184.4100  177.9450  142.0440 O   0  0  0  0  0  1  0  0  0  0  0  0
  185.9860  178.1010  140.3880 O   0  0  0  0  0  0  0  0  0  0  0  0
  193.7190  175.1920  142.5370 O   0  0  0  0  0  0  0  0  0  0  0  0
  193.5280  174.2930  138.9620 C   0  0  0  0  0  3  0  0  0  0  0  0
  191.9480  174.0670  141.2520 C   0  0  0  0  0  3  0  0  0  0  0  0
  190.4820  173.2670  137.2660 N   0  0  0  0  0  0  0  0  0  0  0  0
  189.5100  172.4630  138.4980 P   0  0  2  0  0  0  0  0  0  0  0  0
  191.8840  173.0310  137.5880 C   0  0  0  0  0  2  0  0  0  0  0  0
  188.0690  172.9160  138.4010 O   0  0  0  0  0  0  0  0  0  0  0  0
  192.2640  173.7010  138.8790 C   0  0  0  0  0  0  0  0  0  0  0  0
  190.1830  172.6430  135.9950 C   0  0  0  0  0  1  0  0  0  0  0  0
  190.1590  173.0480  139.9800 O   0  0  0  0  0  0  0  0  0  0  0  0
  191.4490  173.6060  140.0300 C   0  0  0  0  0  0  0  0  0  0  0  0
  189.6310  170.7760  138.4380 O   0  0  0  0  0  1  0  0  0  0  0  0
  193.2080  174.6760  141.3360 C   0  0  0  0  0  0  0  0  0  0  0  0
  193.9830  174.8020  140.1840 C   0  0  0  0  0  3  0  0  0  0  0  0
  1  5  1  6  0  0  0
  1 10  1  0  0  0  0
  3  9  1  0  0  0  0
  4  8  2  0  0  0  0
  5  4  1  0  0  0  0
  6  7  1  0  0  0  0
  7 11  2  0  0  0  0
  8  6  1  0  0  0  0
  9 11  1  0  0  0  0
 10  6  2  0  0  0  0
 10  9  1  0  0  0  0
 12  2  2  0  0  0  0
 13 12  1  0  0  0  0
 14 13  2  0  0  0  0
 14 16  1  0  0  0  0
 15  2  1  6  0  0  0
 15  3  1  0  0  0  0
 16 17  2  0  0  0  0
 17  1  1  0  0  0  0
 17 15  1  0  0  0  0
 18 19  1  0  0  0  0
 18 13  1  0  0  0  0
 20 18  2  0  0  0  0
 21  4  1  0  0  0  0
 22 34  1  0  0  0  0
 23 33  1  0  0  0  0
 24 26  1  0  0  0  0
 24 25  1  0  0  0  0
 25 27  2  6  0  0  0
 25 30  1  0  0  0  0
 26 28  1  0  0  0  0
 28 22  2  0  0  0  0
 28 31  1  0  0  0  0
 29 24  1  0  0  0  0
 30 31  1  0  0  0  0
 31 23  2  0  0  0  0
 32 25  1  0  0  0  0
 33 21  1  0  0  0  0
 34 33  2  0  0  0  0
M  END
>  <MODEL>
4

>  <REMARK>
 VINA RESULT:      -8.4      3.929      6.301
  Name = 
  3 active torsions:
  status: ('A' for Active; 'I' for Inactive)
    1  A    between atoms: C_3  and  C_25
    2  A    between atoms: C_8  and  O_18
    3  A    between atoms: O_18  and  C_30
                            x       y       z     vdW  Elec       q    Type
                         _______ _______ _______ _____ _____    ______ ____

>  <TORSDO>
F 3

$$$$
=
 OpenBabel11052420363D

 34 39  0  0  1  0  0  0  0  0999 V2000
  188.4300  176.1170  143.9050 C   0  0  2  0  0  3  0  0  0  0  0  0
  185.3700  177.9800  144.8180 C   0  0  0  0  0  3  0  0  0  0  0  0
  187.2270  177.4520  146.2380 C   0  0  0  0  0  2  0  0  0  0  0  0
  189.7420  174.0270  143.3430 C   0  0  0  0  0  0  0  0  0  0  0  0
  189.2260  175.3930  142.8550 C   0  0  0  0  0  2  0  0  0  0  0  0
  189.5460  174.7800  145.6070 C   0  0  0  0  0  0  0  0  0  0  0  0
  189.3170  174.5400  146.9520 C   0  0  0  0  0  3  0  0  0  0  0  0
  189.8830  173.7930  144.6250 N   0  0  0  0  0  0  0  0  0  0  0  0
  188.2510  176.4190  146.3360 N   0  0  0  0  0  0  0  0  0  0  0  0
  188.8730  175.9070  145.2710 C   0  0  0  0  0  0  0  0  0  0  0  0
  188.4980  175.5940  147.3760 C   0  0  0  0  0  3  0  0  0  0  0  0
  184.4410  178.1750  143.7050 C   0  0  0  0  0  3  0  0  0  0  0  0
  184.6180  178.0290  142.3870 C   0  0  0  0  0  0  0  0  0  0  0  0
  185.8800  177.6400  141.7290 C   0  0  0  0  0  3  0  0  0  0  0  0
  186.5830  177.4340  144.8530 C   0  0  1  0  0  3  0  0  0  0  0  0
  186.9830  177.1310  142.2620 C   0  0  0  0  0  3  0  0  0  0  0  0
  187.3110  176.8340  143.6670 C   0  0  0  0  0  0  0  0  0  0  0  0
  183.4500  178.2910  141.5240 C   0  0  0  0  0  0  0  0  0  0  0  0
  183.5810  178.3220  140.1380 O   0  0  0  0  0  0  0  0  0  0  0  0
  182.3170  178.5140  142.0400 O   0  0  0  0  0  1  0  0  0  0  0  0
  190.0550  172.9970  142.4460 O   0  0  0  0  0  0  0  0  0  0  0  0
  188.4830  172.7040  139.1180 C   0  0  0  0  0  3  0  0  0  0  0  0
  190.9550  173.4260  140.1960 C   0  0  0  0  0  3  0  0  0  0  0  0
  190.3110  172.7460  135.9770 N   0  0  0  0  0  0  0  0  0  0  0  0
  191.7220  173.7610  136.2720 P   0  0  2  0  0  0  0  0  0  0  0  0
  189.2240  173.2500  136.8090 C   0  0  0  0  0  2  0  0  0  0  0  0
  192.9580  173.1180  135.6800 O   0  0  0  0  0  0  0  0  0  0  0  0
  189.5310  173.0720  138.2690 C   0  0  0  0  0  0  0  0  0  0  0  0
  189.9440  172.8990  134.5860 C   0  0  0  0  0  1  0  0  0  0  0  0
  191.8810  173.7560  137.9850 O   0  0  0  0  0  0  0  0  0  0  0  0
  190.7930  173.4150  138.8070 C   0  0  0  0  0  0  0  0  0  0  0  0
  191.5240  175.3460  135.7130 O   0  0  0  0  0  1  0  0  0  0  0  0
  189.9110  173.0420  141.0510 C   0  0  0  0  0  0  0  0  0  0  0  0
  188.6860  172.6650  140.5030 C   0  0  0  0  0  3  0  0  0  0  0  0
  1  5  1  1  0  0  0
  1 10  1  0  0  0  0
  3  9  1  0  0  0  0
  4  8  2  0  0  0  0
  5  4  1  0  0  0  0
  6  7  1  0  0  0  0
  7 11  2  0  0  0  0
  8  6  1  0  0  0  0
  9 11  1  0  0  0  0
 10  6  2  0  0  0  0
 10  9  1  0  0  0  0
 12  2  2  0  0  0  0
 13 12  1  0  0  0  0
 14 16  1  0  0  0  0
 14 13  2  0  0  0  0
 15  2  1  1  0  0  0
 15  3  1  0  0  0  0
 16 17  2  0  0  0  0
 17  1  1  0  0  0  0
 17 15  1  0  0  0  0
 18 20  1  0  0  0  0
 18 13  1  0  0  0  0
 19 18  2  0  0  0  0
 21  4  1  0  0  0  0
 22 34  1  0  0  0  0
 23 33  1  0  0  0  0
 24 25  1  0  0  0  0
 24 26  1  0  0  0  0
 25 27  2  6  0  0  0
 25 30  1  0  0  0  0
 26 28  1  0  0  0  0
 28 31  1  0  0  0  0
 28 22  2  0  0  0  0
 29 24  1  0  0  0  0
 30 31  1  0  0  0  0
 31 23  2  0  0  0  0
 32 25  1  0  0  0  0
 33 21  1  0  0  0  0
 34 33  2  0  0  0  0
M  END
>  <MODEL>
5

>  <REMARK>
 VINA RESULT:      -8.1      4.185      6.427
  Name = 
  3 active torsions:
  status: ('A' for Active; 'I' for Inactive)
    1  A    between atoms: C_3  and  C_25
    2  A    between atoms: C_8  and  O_18
    3  A    between atoms: O_18  and  C_30
                            x       y       z     vdW  Elec       q    Type
                         _______ _______ _______ _____ _____    ______ ____

>  <TORSDO>
F 3

$$$$
=
 OpenBabel11052420363D

 34 39  0  0  1  0  0  0  0  0999 V2000
  189.5700  177.2300  144.7070 C   0  0  2  0  0  3  0  0  0  0  0  0
  185.9550  176.8370  144.0400 C   0  0  0  0  0  3  0  0  0  0  0  0
  187.0820  176.5710  146.1370 C   0  0  0  0  0  2  0  0  0  0  0  0
  191.9940  176.5090  144.6200 C   0  0  0  0  0  0  0  0  0  0  0  0
  190.9440  177.5470  144.1860 C   0  0  0  0  0  2  0  0  0  0  0  0
  190.5960  175.8890  146.4610 C   0  0  0  0  0  0  0  0  0  0  0  0
  190.1200  174.9530  147.3660 C   0  0  0  0  0  3  0  0  0  0  0  0
  191.7940  175.7720  145.6850 N   0  0  0  0  0  0  0  0  0  0  0  0
  188.4100  176.1970  146.6090 N   0  0  0  0  0  0  0  0  0  0  0  0
  189.5350  176.6050  146.0160 C   0  0  0  0  0  0  0  0  0  0  0  0
  188.7400  175.1790  147.4330 C   0  0  0  0  0  3  0  0  0  0  0  0
  185.5750  177.1150  142.6540 C   0  0  0  0  0  3  0  0  0  0  0  0
  186.2480  177.7240  141.6710 C   0  0  0  0  0  0  0  0  0  0  0  0
  187.5980  178.3080  141.7910 C   0  0  0  0  0  3  0  0  0  0  0  0
  187.1290  176.9460  144.6570 C   0  0  1  0  0  3  0  0  0  0  0  0
  188.4990  178.1530  142.7530 C   0  0  0  0  0  3  0  0  0  0  0  0
  188.4240  177.3920  144.0110 C   0  0  0  0  0  0  0  0  0  0  0  0
  185.5740  177.8230  140.3620 C   0  0  0  0  0  0  0  0  0  0  0  0
  186.2200  177.4210  139.1960 O   0  0  0  0  0  0  0  0  0  0  0  0
  184.4050  178.3000  140.2860 O   0  0  0  0  0  1  0  0  0  0  0  0
  193.1730  176.3060  143.8900 O   0  0  0  0  0  0  0  0  0  0  0  0
  192.2950  174.1800  141.0030 C   0  0  0  0  0  3  0  0  0  0  0  0
  194.3670  175.8810  141.7800 C   0  0  0  0  0  3  0  0  0  0  0  0
  194.6140  173.2450  138.3660 N   0  0  0  0  0  0  0  0  0  0  0  0
  195.7460  174.5900  138.2410 P   0  0  2  0  0  0  0  0  0  0  0  0
  193.3250  173.7910  138.7740 C   0  0  0  0  0  2  0  0  0  0  0  0
  197.1620  174.0690  138.1200 O   0  0  0  0  0  1  0  0  0  0  0  0
  193.3940  174.3670  140.1600 C   0  0  0  0  0  0  0  0  0  0  0  0
  194.4780  172.6620  137.0480 C   0  0  0  0  0  1  0  0  0  0  0  0
  195.5970  175.3950  139.7540 O   0  0  0  0  0  0  0  0  0  0  0  0
  194.4590  175.2080  140.5580 C   0  0  0  0  0  0  0  0  0  0  0  0
  195.3710  175.6540  136.9800 O   0  0  0  0  0  0  0  0  0  0  0  0
  193.2740  175.6840  142.6370 C   0  0  0  0  0  0  0  0  0  0  0  0
  192.2520  174.8180  142.2490 C   0  0  0  0  0  3  0  0  0  0  0  0
  1  5  1  6  0  0  0
  1 10  1  0  0  0  0
  3  9  1  0  0  0  0
  4  8  2  0  0  0  0
  5  4  1  0  0  0  0
  6  7  1  0  0  0  0
  7 11  2  0  0  0  0
  8  6  1  0  0  0  0
  9 11  1  0  0  0  0
 10  6  2  0  0  0  0
 10  9  1  0  0  0  0
 12  2  2  0  0  0  0
 13 14  2  0  0  0  0
 13 12  1  0  0  0  0
 14 16  1  0  0  0  0
 15  2  1  6  0  0  0
 15  3  1  0  0  0  0
 16 17  2  0  0  0  0
 17 15  1  0  0  0  0
 17  1  1  0  0  0  0
 18 13  1  0  0  0  0
 19 18  2  0  0  0  0
 20 18  1  0  0  0  0
 21  4  1  0  0  0  0
 22 34  1  0  0  0  0
 23 33  1  0  0  0  0
 24 26  1  0  0  0  0
 25 32  2  6  0  0  0
 25 24  1  0  0  0  0
 25 30  1  0  0  0  0
 26 28  1  0  0  0  0
 27 25  1  0  0  0  0
 28 31  1  0  0  0  0
 28 22  2  0  0  0  0
 29 24  1  0  0  0  0
 30 31  1  0  0  0  0
 31 23  2  0  0  0  0
 33 21  1  0  0  0  0
 34 33  2  0  0  0  0
M  END
>  <MODEL>
6

>  <REMARK>
 VINA RESULT:      -8.1      3.753      5.100
  Name = 
  3 active torsions:
  status: ('A' for Active; 'I' for Inactive)
    1  A    between atoms: C_3  and  C_25
    2  A    between atoms: C_8  and  O_18
    3  A    between atoms: O_18  and  C_30
                            x       y       z     vdW  Elec       q    Type
                         _______ _______ _______ _____ _____    ______ ____

>  <TORSDO>
F 3

$$$$
=
 OpenBabel11052420363D

 34 39  0  0  1  0  0  0  0  0999 V2000
  193.5360  174.7460  144.0830 C   0  0  2  0  0  3  0  0  0  0  0  0
  195.5800  176.1760  141.3550 C   0  0  0  0  0  3  0  0  0  0  0  0
  195.9220  176.4320  143.7120 C   0  0  0  0  0  2  0  0  0  0  0  0
  191.4850  174.6040  145.5590 C   0  0  0  0  0  0  0  0  0  0  0  0
  192.3610  173.9080  144.5020 C   0  0  0  0  0  2  0  0  0  0  0  0
  193.3510  175.9700  146.1810 C   0  0  0  0  0  0  0  0  0  0  0  0
  193.8830  177.1570  146.6570 C   0  0  0  0  0  3  0  0  0  0  0  0
  191.9900  175.5460  146.3190 N   0  0  0  0  0  0  0  0  0  0  0  0
  195.1150  176.4280  144.9270 N   0  0  0  0  0  0  0  0  0  0  0  0
  194.1090  175.5740  145.1290 C   0  0  0  0  0  0  0  0  0  0  0  0
  194.9930  177.4130  145.8430 C   0  0  0  0  0  3  0  0  0  0  0  0
  195.1310  175.7930  140.0160 C   0  0  0  0  0  3  0  0  0  0  0  0
  194.2910  174.8310  139.6200 C   0  0  0  0  0  0  0  0  0  0  0  0
  193.6120  173.8680  140.5090 C   0  0  0  0  0  3  0  0  0  0  0  0
  195.1480  175.8020  142.5560 C   0  0  1  0  0  3  0  0  0  0  0  0
  193.4820  173.8900  141.8290 C   0  0  0  0  0  3  0  0  0  0  0  0
  194.0020  174.8470  142.8200 C   0  0  0  0  0  0  0  0  0  0  0  0
  194.0330  174.7240  138.1710 C   0  0  0  0  0  0  0  0  0  0  0  0
  195.0700  174.8570  137.2520 O   0  0  0  0  0  0  0  0  0  0  0  0
  192.8560  174.5320  137.7490 O   0  0  0  0  0  1  0  0  0  0  0  0
  190.1340  174.2740  145.7280 O   0  0  0  0  0  0  0  0  0  0  0  0
  187.5090  176.3960  147.2230 C   0  0  0  0  0  3  0  0  0  0  0  0
  188.4730  175.7580  144.6830 C   0  0  0  0  0  3  0  0  0  0  0  0
  184.7880  177.9140  145.3540 N   0  0  0  0  0  0  0  0  0  0  0  0
  185.4360  178.2060  143.7410 P   0  0  2  0  0  0  0  0  0  0  0  0
  185.8900  178.0400  146.3000 C   0  0  0  0  0  2  0  0  0  0  0  0
  184.4250  177.7950  142.6920 O   0  0  0  0  0  0  0  0  0  0  0  0
  186.9110  176.9580  146.0920 C   0  0  0  0  0  0  0  0  0  0  0  0
  183.8140  178.9490  145.6290 C   0  0  0  0  0  1  0  0  0  0  0  0
  186.7810  177.1370  143.6380 O   0  0  0  0  0  0  0  0  0  0  0  0
  187.3780  176.6200  144.8010 C   0  0  0  0  0  0  0  0  0  0  0  0
  185.9470  179.8030  143.5130 O   0  0  0  0  0  1  0  0  0  0  0  0
  189.0650  175.1790  145.8140 C   0  0  0  0  0  0  0  0  0  0  0  0
  188.5660  175.4880  147.0780 C   0  0  0  0  0  3  0  0  0  0  0  0
  1  5  1  6  0  0  0
  1 10  1  0  0  0  0
  3  9  1  0  0  0  0
  4 21  1  0  0  0  0
  4  8  2  0  0  0  0
  5  4  1  0  0  0  0
  6  8  1  0  0  0  0
  6  7  1  0  0  0  0
  9 10  1  0  0  0  0
  9 11  1  0  0  0  0
 10  6  2  0  0  0  0
 11  7  2  0  0  0  0
 12  2  2  0  0  0  0
 13 12  1  0  0  0  0
 13 14  2  0  0  0  0
 14 16  1  0  0  0  0
 15  2  1  1  0  0  0
 15 17  1  0  0  0  0
 15  3  1  0  0  0  0
 16 17  2  0  0  0  0
 17  1  1  0  0  0  0
 18 13  1  0  0  0  0
 19 18  2  0  0  0  0
 20 18  1  0  0  0  0
 21 33  1  0  0  0  0
 23 31  2  0  0  0  0
 23 33  1  0  0  0  0
 24 29  1  0  0  0  0
 24 26  1  0  0  0  0
 25 27  2  6  0  0  0
 25 24  1  0  0  0  0
 28 26  1  0  0  0  0
 28 22  2  0  0  0  0
 30 25  1  0  0  0  0
 30 31  1  0  0  0  0
 31 28  1  0  0  0  0
 32 25  1  0  0  0  0
 33 34  2  0  0  0  0
 34 22  1  0  0  0  0
M  END
>  <MODEL>
7

>  <REMARK>
 VINA RESULT:      -8.1      3.780      8.227
  Name = 
  3 active torsions:
  status: ('A' for Active; 'I' for Inactive)
    1  A    between atoms: C_3  and  C_25
    2  A    between atoms: C_8  and  O_18
    3  A    between atoms: O_18  and  C_30
                            x       y       z     vdW  Elec       q    Type
                         _______ _______ _______ _____ _____    ______ ____

>  <TORSDO>
F 3

$$$$
=
 OpenBabel11052420363D

 34 39  0  0  1  0  0  0  0  0999 V2000
  194.2370  174.3460  144.4310 C   0  0  2  0  0  3  0  0  0  0  0  0
  197.3920  172.4220  144.3090 C   0  0  0  0  0  3  0  0  0  0  0  0
  197.0400  174.6800  143.5890 C   0  0  0  0  0  2  0  0  0  0  0  0
  191.9050  174.9490  143.6550 C   0  0  0  0  0  0  0  0  0  0  0  0
  192.7800  174.3990  144.7960 C   0  0  0  0  0  2  0  0  0  0  0  0
  193.8250  176.0410  142.7310 C   0  0  0  0  0  0  0  0  0  0  0  0
  194.5480  176.5230  141.6510 C   0  0  0  0  0  3  0  0  0  0  0  0
  192.4310  175.7120  142.7280 N   0  0  0  0  0  0  0  0  0  0  0  0
  195.9400  175.4920  143.0820 N   0  0  0  0  0  0  0  0  0  0  0  0
  194.6950  175.4120  143.5590 C   0  0  0  0  0  0  0  0  0  0  0  0
  195.8750  176.1580  141.9090 C   0  0  0  0  0  3  0  0  0  0  0  0
  197.2860  171.0750  144.8700 C   0  0  0  0  0  2  0  0  0  0  0  0
  196.3400  170.5230  145.6380 C   0  0  0  0  0  0  0  0  0  0  0  0
  195.1330  171.2100  146.1380 C   0  0  0  0  0  3  0  0  0  0  0  0
  196.5040  173.4110  144.2500 C   0  0  0  0  0  0  0  0  0  0  0  0
  194.6090  172.3700  145.7620 C   0  0  0  0  0  3  0  0  0  0  0  0
  195.0820  173.3480  144.7690 C   0  0  0  0  0  0  0  0  0  0  0  0
  196.5300  169.1100  146.0200 C   0  0  0  0  0  0  0  0  0  0  0  0
  195.4430  168.2450  146.1150 O   0  0  0  0  0  0  0  0  0  0  0  0
  197.6880  168.6770  146.2910 O   0  0  0  0  0  1  0  0  0  0  0  0
  190.5420  174.6410  143.5590 O   0  0  0  0  0  0  0  0  0  0  0  0
  188.2880  176.0410  146.1270 C   0  0  0  0  0  3  0  0  0  0  0  0
  188.5910  176.1270  143.3530 C   0  0  0  0  0  3  0  0  0  0  0  0
  185.1000  177.6310  145.4090 N   0  0  0  0  0  0  0  0  0  0  0  0
  185.2920  178.3630  143.8170 P   0  0  2  0  0  0  0  0  0  0  0  0
  186.4020  177.6590  146.0660 C   0  0  0  0  0  2  0  0  0  0  0  0
  184.0660  178.0960  142.9700 O   0  0  0  0  0  0  0  0  0  0  0  0
  187.3880  176.7790  145.3520 C   0  0  0  0  0  0  0  0  0  0  0  0
  184.1790  178.4550  146.1620 C   0  0  0  0  0  1  0  0  0  0  0  0
  186.6180  177.5090  143.1280 O   0  0  0  0  0  0  0  0  0  0  0  0
  187.5220  176.8070  143.9440 C   0  0  0  0  0  0  0  0  0  0  0  0
  185.6430  180.0170  143.8880 O   0  0  0  0  0  1  0  0  0  0  0  0
  189.4860  175.3720  144.1250 C   0  0  0  0  0  0  0  0  0  0  0  0
  189.3170  175.3190  145.5080 C   0  0  0  0  0  3  0  0  0  0  0  0
  1 17  1  0  0  0  0
  1  5  1  6  0  0  0
  2 12  1  0  0  0  0
  3 15  1  0  0  0  0
  4  5  1  0  0  0  0
  6 10  2  0  0  0  0
  7 11  2  0  0  0  0
  7  6  1  0  0  0  0
  8  6  1  0  0  0  0
  8  4  2  0  0  0  0
  9 10  1  0  0  0  0
  9  3  1  0  0  0  0
 10  1  1  0  0  0  0
 11  9  1  0  0  0  0
 12 13  1  0  0  0  0
 13 18  1  0  0  0  0
 13 14  2  0  0  0  0
 15  2  2  0  0  0  0
 15 17  1  0  0  0  0
 16 14  1  0  0  0  0
 17 16  2  0  0  0  0
 18 19  2  0  0  0  0
 18 20  1  0  0  0  0
 21  4  1  0  0  0  0
 21 33  1  0  0  0  0
 23 31  2  0  0  0  0
 23 33  1  0  0  0  0
 24 26  1  0  0  0  0
 24 29  1  0  0  0  0
 25 27  2  6  0  0  0
 25 32  1  0  0  0  0
 25 24  1  0  0  0  0
 28 26  1  0  0  0  0
 28 22  2  0  0  0  0
 30 25  1  0  0  0  0
 30 31  1  0  0  0  0
 31 28  1  0  0  0  0
 33 34  2  0  0  0  0
 34 22  1  0  0  0  0
M  END
>  <MODEL>
8

>  <REMARK>
 VINA RESULT:      -8.0      3.595     10.153
  Name = 
  3 active torsions:
  status: ('A' for Active; 'I' for Inactive)
    1  A    between atoms: C_3  and  C_25
    2  A    between atoms: C_8  and  O_18
    3  A    between atoms: O_18  and  C_30
                            x       y       z     vdW  Elec       q    Type
                         _______ _______ _______ _____ _____    ______ ____

>  <TORSDO>
F 3

$$$$
=
 OpenBabel11052420363D

 34 39  0  0  1  0  0  0  0  0999 V2000
  194.0240  173.8790  144.6560 C   0  0  2  0  0  3  0  0  0  0  0  0
  194.3290  171.9130  141.5400 C   0  0  0  0  0  3  0  0  0  0  0  0
  195.9910  173.3210  142.5360 C   0  0  0  0  0  2  0  0  0  0  0  0
  193.1930  175.8180  146.0540 C   0  0  0  0  0  0  0  0  0  0  0  0
  193.1890  174.2940  145.8350 C   0  0  0  0  0  2  0  0  0  0  0  0
  195.2590  175.9690  144.8550 C   0  0  0  0  0  0  0  0  0  0  0  0
  196.1410  176.6520  144.0330 C   0  0  0  0  0  3  0  0  0  0  0  0
  194.1760  176.5500  145.5910 N   0  0  0  0  0  0  0  0  0  0  0  0
  196.0340  174.5030  143.3900 N   0  0  0  0  0  0  0  0  0  0  0  0
  195.2090  174.6850  144.4240 C   0  0  0  0  0  0  0  0  0  0  0  0
  196.6090  175.6960  143.1240 C   0  0  0  0  0  3  0  0  0  0  0  0
  193.1430  171.1150  141.2250 C   0  0  0  0  0  3  0  0  0  0  0  0
  192.0930  170.7780  141.9820 C   0  0  0  0  0  0  0  0  0  0  0  0
  191.9080  171.1410  143.4010 C   0  0  0  0  0  3  0  0  0  0  0  0
  194.6100  172.6710  142.5960 C   0  0  1  0  0  3  0  0  0  0  0  0
  192.5610  172.0340  144.1320 C   0  0  0  0  0  3  0  0  0  0  0  0
  193.6920  172.9080  143.7780 C   0  0  0  0  0  0  0  0  0  0  0  0
  191.0400  169.9670  141.3410 C   0  0  0  0  0  0  0  0  0  0  0  0
  190.3970  170.4170  140.1900 O   0  0  0  0  0  0  0  0  0  0  0  0
  190.6940  168.8610  141.8480 O   0  0  0  0  0  1  0  0  0  0  0  0
  192.1500  176.4660  146.7290 O   0  0  0  0  0  0  0  0  0  0  0  0
  189.6150  177.4210  144.2200 C   0  0  0  0  0  3  0  0  0  0  0  0
  189.7460  176.9400  146.9660 C   0  0  0  0  0  3  0  0  0  0  0  0
  186.3190  178.7200  145.0280 N   0  0  0  0  0  0  0  0  0  0  0  0
  185.8920  177.9820  146.5710 P   0  0  2  0  0  0  0  0  0  0  0  0
  187.1560  177.7710  144.3030 C   0  0  0  0  0  2  0  0  0  0  0  0
  185.2850  179.0180  147.4930 O   0  0  0  0  0  1  0  0  0  0  0  0
  188.4670  177.5570  145.0050 C   0  0  0  0  0  0  0  0  0  0  0  0
  185.0930  178.9240  144.2860 C   0  0  0  0  0  1  0  0  0  0  0  0
  187.4070  177.4990  147.2290 O   0  0  0  0  0  0  0  0  0  0  0  0
  188.5310  177.3390  146.4010 C   0  0  0  0  0  0  0  0  0  0  0  0
  184.8780  176.6380  146.4030 O   0  0  0  0  0  0  0  0  0  0  0  0
  190.9050  176.8180  146.1860 C   0  0  0  0  0  0  0  0  0  0  0  0
  190.8350  177.0780  144.8180 C   0  0  0  0  0  3  0  0  0  0  0  0
  1  5  1  6  0  0  0
  3 15  1  0  0  0  0
  3  9  1  0  0  0  0
  4 21  1  0  0  0  0
  5  4  1  0  0  0  0
  6  8  1  0  0  0  0
  7  6  1  0  0  0  0
  8  4  2  0  0  0  0
  9 10  1  0  0  0  0
 10  1  1  0  0  0  0
 10  6  2  0  0  0  0
 11  9  1  0  0  0  0
 11  7  2  0  0  0  0
 12  2  2  0  0  0  0
 12 13  1  0  0  0  0
 13 14  2  0  0  0  0
 14 16  1  0  0  0  0
 15  2  1  6  0  0  0
 15 17  1  0  0  0  0
 17 16  2  0  0  0  0
 17  1  1  0  0  0  0
 18 20  1  0  0  0  0
 18 13  1  0  0  0  0
 19 18  2  0  0  0  0
 22 34  2  0  0  0  0
 22 28  1  0  0  0  0
 24 25  1  0  0  0  0
 25 32  2  6  0  0  0
 25 30  1  0  0  0  0
 25 27  1  0  0  0  0
 26 28  1  0  0  0  0
 26 24  1  0  0  0  0
 28 31  2  0  0  0  0
 29 24  1  0  0  0  0
 31 23  1  0  0  0  0
 31 30  1  0  0  0  0
 33 21  1  0  0  0  0
 33 23  2  0  0  0  0
 34 33  1  0  0  0  0
M  END
>  <MODEL>
9

>  <REMARK>
 VINA RESULT:      -8.0      3.570      8.779
  Name = 
  3 active torsions:
  status: ('A' for Active; 'I' for Inactive)
    1  A    between atoms: C_3  and  C_25
    2  A    between atoms: C_8  and  O_18
    3  A    between atoms: O_18  and  C_30
                            x       y       z     vdW  Elec       q    Type
                         _______ _______ _______ _____ _____    ______ ____

>  <TORSDO>
F 3

$$$$
