=
 OpenBabel11052418103D

 28 31  0  0  1  0  0  0  0  0999 V2000
  187.2730  176.7090  142.8800 C   0  0  0  0  0  0  0  0  0  0  0  0
  192.2190  176.1530  143.9210 C   0  0  0  0  0  2  0  0  0  0  0  0
  187.4790  177.8230  147.5720 F   0  0  0  0  0  0  0  0  0  0  0  0
  192.1710  176.2160  146.4190 C   0  0  0  0  0  0  0  0  0  0  0  0
  190.0700  176.6730  145.2450 C   0  0  0  0  0  0  0  0  0  0  0  0
  194.2610  175.5320  145.1870 C   0  0  2  0  0  3  0  0  0  0  0  0
  191.5190  176.3650  145.2420 C   0  0  0  0  0  0  0  0  0  0  0  0
  190.2830  177.2960  147.6700 C   0  0  0  0  0  2  0  0  0  0  0  0
  193.6680  176.0640  146.4870 C   0  0  0  0  0  2  0  0  0  0  0  0
  187.3510  177.2630  145.2480 C   0  0  0  0  0  0  0  0  0  0  0  0
  189.3370  176.5600  144.1030 N   0  0  0  0  0  0  0  0  0  0  0  0
  191.4150  176.2690  147.7200 C   0  0  0  0  0  2  0  0  0  0  0  0
  185.2940  177.4060  144.0430 N   0  0  0  0  0  0  0  0  0  0  0  0
  188.0850  177.3980  146.4340 C   0  0  0  0  0  0  0  0  0  0  0  0
  185.9830  177.5450  145.2060 C   0  0  0  0  0  3  0  0  0  0  0  0
  195.6370  175.6320  145.2340 F   0  0  0  0  0  0  0  0  0  0  0  0
  193.7280  176.3470  144.0210 C   0  0  0  0  0  2  0  0  0  0  0  0
  189.4500  177.0930  146.4370 C   0  0  0  0  0  0  0  0  0  0  0  0
  185.9000  176.9970  142.8980 C   0  0  0  0  0  3  0  0  0  0  0  0
  188.0040  176.8380  144.0710 C   0  0  0  0  0  0  0  0  0  0  0  0
  187.9360  176.2290  141.6170 C   0  0  2  0  0  3  0  0  0  0  0  0
  187.3260  176.7640  140.4790 O   0  0  0  0  0  1  0  0  0  0  0  0
  188.0210  174.7030  141.5380 C   0  0  0  0  0  2  0  0  0  0  0  0
  189.4820  173.7720  139.6590 N   0  0  0  0  0  0  0  0  0  0  0  0
  190.3300  174.1860  141.7980 O   0  0  0  0  0  0  0  0  0  0  0  0
  189.3400  174.2140  141.0170 C   0  0  0  0  0  0  0  0  0  0  0  0
  188.3850  173.8790  138.7120 C   0  0  0  0  0  1  0  0  0  0  0  0
  190.7470  173.2330  139.1870 C   0  0  0  0  0  1  0  0  0  0  0  0
  1 19  2  0  0  0  0
  1 20  1  0  0  0  0
  2 17  1  0  0  0  0
  2  7  1  0  0  0  0
  4  9  1  0  0  0  0
  4 12  1  0  0  0  0
  5 18  1  0  0  0  0
  6 16  1  1  0  0  0
  6  9  1  0  0  0  0
  7  5  1  0  0  0  0
  7  4  2  0  0  0  0
  8 12  1  0  0  0  0
 10 14  1  0  0  0  0
 11  5  2  0  0  0  0
 13 15  2  0  0  0  0
 14 18  2  0  0  0  0
 14  3  1  0  0  0  0
 15 10  1  0  0  0  0
 17  6  1  0  0  0  0
 18  8  1  0  0  0  0
 19 13  1  0  0  0  0
 20 11  1  0  0  0  0
 20 10  2  0  0  0  0
 21 22  1  6  0  0  0
 21  1  1  0  0  0  0
 23 21  1  0  0  0  0
 24 26  1  0  0  0  0
 26 23  1  0  0  0  0
 26 25  2  0  0  0  0
 27 24  1  0  0  0  0
 28 24  1  0  0  0  0
M  END
>  <MODEL>
1

>  <REMARK>
 VINA RESULT:      -7.6      0.000      0.000
  Name = 
  3 active torsions:
  status: ('A' for Active; 'I' for Inactive)
    1  A    between atoms: C_1  and  C_2
    2  A    between atoms: C_2  and  C_3
    3  A    between atoms: C_3  and  C_11
                            x       y       z     vdW  Elec       q    Type
                         _______ _______ _______ _____ _____    ______ ____

>  <TORSDO>
F 3

$$$$
=
 OpenBabel11052418103D

 28 31  0  0  1  0  0  0  0  0999 V2000
  189.0170  177.0570  144.2270 C   0  0  0  0  0  0  0  0  0  0  0  0
  193.6000  176.2490  142.1780 C   0  0  0  0  0  2  0  0  0  0  0  0
  191.8610  176.7800  148.1170 F   0  0  0  0  0  0  0  0  0  0  0  0
  194.9010  175.5930  144.2080 C   0  0  0  0  0  0  0  0  0  0  0  0
  192.5990  176.3580  144.5500 C   0  0  0  0  0  0  0  0  0  0  0  0
  195.8770  175.3010  141.9030 C   0  0  2  0  0  3  0  0  0  0  0  0
  193.7540  176.0700  143.6690 C   0  0  0  0  0  0  0  0  0  0  0  0
  194.1650  176.2610  146.5130 C   0  0  0  0  0  2  0  0  0  0  0  0
  196.1600  175.4360  143.3960 C   0  0  0  0  0  2  0  0  0  0  0  0
  190.4300  176.9090  146.2020 C   0  0  0  0  0  0  0  0  0  0  0  0
  191.3630  176.5730  144.0200 N   0  0  0  0  0  0  0  0  0  0  0  0
  194.9740  175.2680  145.6770 C   0  0  0  0  0  2  0  0  0  0  0  0
  188.0990  177.3810  146.4190 N   0  0  0  0  0  0  0  0  0  0  0  0
  191.6930  176.7010  146.7720 C   0  0  0  0  0  0  0  0  0  0  0  0
  189.3140  177.1850  146.9960 C   0  0  0  0  0  3  0  0  0  0  0  0
  197.0630  175.3900  141.2010 F   0  0  0  0  0  0  0  0  0  0  0  0
  194.9390  176.4140  141.4660 C   0  0  0  0  0  2  0  0  0  0  0  0
  192.7830  176.4160  145.9440 C   0  0  0  0  0  0  0  0  0  0  0  0
  187.9300  177.3200  145.0720 C   0  0  0  0  0  3  0  0  0  0  0  0
  190.2800  176.8420  144.8010 C   0  0  0  0  0  0  0  0  0  0  0  0
  188.8220  176.9620  142.7370 C   0  0  2  0  0  3  0  0  0  0  0  0
  188.8910  178.2180  142.1280 O   0  0  0  0  0  1  0  0  0  0  0  0
  187.5330  176.2290  142.3560 C   0  0  0  0  0  2  0  0  0  0  0  0
  185.5800  177.6820  141.5780 N   0  0  0  0  0  0  0  0  0  0  0  0
  187.1590  176.8240  140.0820 O   0  0  0  0  0  0  0  0  0  0  0  0
  186.7610  176.9240  141.2740 C   0  0  0  0  0  0  0  0  0  0  0  0
  185.1500  177.8920  142.9500 C   0  0  0  0  0  1  0  0  0  0  0  0
  184.8000  178.2910  140.5130 C   0  0  0  0  0  1  0  0  0  0  0  0
  1 20  2  0  0  0  0
  1 19  1  0  0  0  0
  2  7  1  0  0  0  0
  4 12  1  0  0  0  0
  5 18  1  0  0  0  0
  6 16  1  6  0  0  0
  6  9  1  0  0  0  0
  7  4  2  0  0  0  0
  7  5  1  0  0  0  0
  9  4  1  0  0  0  0
 10 14  1  0  0  0  0
 10 15  2  0  0  0  0
 11  5  2  0  0  0  0
 11 20  1  0  0  0  0
 12  8  1  0  0  0  0
 13 15  1  0  0  0  0
 14  3  1  0  0  0  0
 17  6  1  0  0  0  0
 17  2  1  0  0  0  0
 18  8  1  0  0  0  0
 18 14  2  0  0  0  0
 19 13  2  0  0  0  0
 20 10  1  0  0  0  0
 21 22  1  1  0  0  0
 21  1  1  0  0  0  0
 23 21  1  0  0  0  0
 24 27  1  0  0  0  0
 25 26  2  0  0  0  0
 26 24  1  0  0  0  0
 26 23  1  0  0  0  0
 28 24  1  0  0  0  0
M  END
>  <MODEL>
2

>  <REMARK>
 VINA RESULT:      -7.4      2.482      3.874
  Name = 
  3 active torsions:
  status: ('A' for Active; 'I' for Inactive)
    1  A    between atoms: C_1  and  C_2
    2  A    between atoms: C_2  and  C_3
    3  A    between atoms: C_3  and  C_11
                            x       y       z     vdW  Elec       q    Type
                         _______ _______ _______ _____ _____    ______ ____

>  <TORSDO>
F 3

$$$$
=
 OpenBabel11052418103D

 28 31  0  0  1  0  0  0  0  0999 V2000
  190.9980  176.1880  144.8550 C   0  0  0  0  0  0  0  0  0  0  0  0
  187.1250  177.4800  141.8230 C   0  0  0  0  0  2  0  0  0  0  0  0
  187.2210  175.9980  147.8550 F   0  0  0  0  0  0  0  0  0  0  0  0
  185.3310  177.8790  143.5170 C   0  0  0  0  0  0  0  0  0  0  0  0
  187.4590  176.9770  144.3290 C   0  0  0  0  0  0  0  0  0  0  0  0
  185.0030  178.5510  141.1100 C   0  0  2  0  0  3  0  0  0  0  0  0
  186.5800  177.4410  143.2310 C   0  0  0  0  0  0  0  0  0  0  0  0
  185.4280  176.8450  145.8020 C   0  0  0  0  0  2  0  0  0  0  0  0
  184.3340  178.2070  142.4360 C   0  0  0  0  0  2  0  0  0  0  0  0
  189.1100  176.0970  146.3880 C   0  0  0  0  0  0  0  0  0  0  0  0
  188.7920  176.7930  144.1160 N   0  0  0  0  0  0  0  0  0  0  0  0
  184.8700  177.9840  144.9460 C   0  0  0  0  0  2  0  0  0  0  0  0
  191.3000  175.5030  147.1330 N   0  0  0  0  0  0  0  0  0  0  0  0
  187.7410  176.2690  146.6300 C   0  0  0  0  0  0  0  0  0  0  0  0
  189.9750  175.6600  147.3940 C   0  0  0  0  0  3  0  0  0  0  0  0
  184.0470  178.6170  140.1160 F   0  0  0  0  0  0  0  0  0  0  0  0
  186.0240  177.4780  140.7680 C   0  0  0  0  0  2  0  0  0  0  0  0
  186.9110  176.7200  145.5990 C   0  0  0  0  0  0  0  0  0  0  0  0
  191.8210  175.7570  145.9050 C   0  0  0  0  0  3  0  0  0  0  0  0
  189.6280  176.3660  145.1030 C   0  0  0  0  0  0  0  0  0  0  0  0
  191.5820  176.4950  143.5020 C   0  0  2  0  0  3  0  0  0  0  0  0
  191.4950  177.8570  143.2000 O   0  0  0  0  0  1  0  0  0  0  0  0
  190.9740  175.6390  142.3880 C   0  0  0  0  0  2  0  0  0  0  0  0
  189.9630  173.3040  142.6340 N   0  0  0  0  0  0  0  0  0  0  0  0
  192.2570  173.6920  142.8670 O   0  0  0  0  0  0  0  0  0  0  0  0
  191.1110  174.1670  142.6390 C   0  0  0  0  0  0  0  0  0  0  0  0
  188.6450  173.8060  142.2850 C   0  0  0  0  0  1  0  0  0  0  0  0
  190.1000  171.8920  142.9500 C   0  0  0  0  0  1  0  0  0  0  0  0
  1 20  2  0  0  0  0
  1 19  1  0  0  0  0
  2  7  1  0  0  0  0
  4 12  1  0  0  0  0
  5 18  1  0  0  0  0
  6 16  1  6  0  0  0
  6  9  1  0  0  0  0
  7  4  2  0  0  0  0
  7  5  1  0  0  0  0
  9  4  1  0  0  0  0
 10 14  1  0  0  0  0
 10 15  2  0  0  0  0
 11  5  2  0  0  0  0
 11 20  1  0  0  0  0
 12  8  1  0  0  0  0
 13 15  1  0  0  0  0
 14  3  1  0  0  0  0
 17  6  1  0  0  0  0
 17  2  1  0  0  0  0
 18  8  1  0  0  0  0
 18 14  2  0  0  0  0
 19 13  2  0  0  0  0
 20 10  1  0  0  0  0
 21 22  1  6  0  0  0
 21  1  1  0  0  0  0
 23 26  1  0  0  0  0
 23 21  1  0  0  0  0
 24 26  1  0  0  0  0
 24 28  1  0  0  0  0
 26 25  2  0  0  0  0
 27 24  1  0  0  0  0
M  END
>  <MODEL>
3

>  <REMARK>
 VINA RESULT:      -7.4      2.646      5.764
  Name = 
  3 active torsions:
  status: ('A' for Active; 'I' for Inactive)
    1  A    between atoms: C_1  and  C_2
    2  A    between atoms: C_2  and  C_3
    3  A    between atoms: C_3  and  C_11
                            x       y       z     vdW  Elec       q    Type
                         _______ _______ _______ _____ _____    ______ ____

>  <TORSDO>
F 3

$$$$
=
 OpenBabel11052418103D

 28 31  0  0  1  0  0  0  0  0999 V2000
  190.1440  173.7180  143.2800 C   0  0  0  0  0  0  0  0  0  0  0  0
  187.2870  176.8160  146.1260 C   0  0  0  0  0  2  0  0  0  0  0  0
  187.5110  176.0410  139.9670 F   0  0  0  0  0  0  0  0  0  0  0  0
  185.6120  177.5770  144.4350 C   0  0  0  0  0  0  0  0  0  0  0  0
  187.4710  176.1980  143.6310 C   0  0  0  0  0  0  0  0  0  0  0  0
  185.2840  178.0690  146.8850 C   0  0  2  0  0  3  0  0  0  0  0  0
  186.7570  176.9110  144.7160 C   0  0  0  0  0  0  0  0  0  0  0  0
  186.1010  177.5010  141.9740 C   0  0  0  0  0  2  0  0  0  0  0  0
  184.9290  178.4530  145.4520 C   0  0  0  0  0  2  0  0  0  0  0  0
  188.8190  174.8680  141.5940 C   0  0  0  0  0  0  0  0  0  0  0  0
  188.4570  175.3060  143.9220 N   0  0  0  0  0  0  0  0  0  0  0  0
  185.0170  177.5190  143.0530 C   0  0  0  0  0  2  0  0  0  0  0  0
  190.4870  173.2860  140.9460 N   0  0  0  0  0  0  0  0  0  0  0  0
  187.8160  175.7900  141.2660 C   0  0  0  0  0  0  0  0  0  0  0  0
  189.5190  174.1750  140.6020 C   0  0  0  0  0  3  0  0  0  0  0  0
  184.8160  179.0390  147.7500 F   0  0  0  0  0  0  0  0  0  0  0  0
  186.7930  177.9520  147.0150 C   0  0  0  0  0  2  0  0  0  0  0  0
  187.1310  176.4530  142.2890 C   0  0  0  0  0  0  0  0  0  0  0  0
  190.8070  173.0440  142.2440 C   0  0  0  0  0  3  0  0  0  0  0  0
  189.1340  174.6350  142.9490 C   0  0  0  0  0  0  0  0  0  0  0  0
  190.4800  173.4280  144.7190 C   0  0  2  0  0  3  0  0  0  0  0  0
  189.5870  172.5130  145.2830 O   0  0  0  0  0  1  0  0  0  0  0  0
  190.5860  174.6980  145.5670 C   0  0  0  0  0  2  0  0  0  0  0  0
  192.4460  176.3670  145.0310 N   0  0  0  0  0  0  0  0  0  0  0  0
  192.7910  174.5410  146.4500 O   0  0  0  0  0  0  0  0  0  0  0  0
  191.9950  175.1880  145.7170 C   0  0  0  0  0  0  0  0  0  0  0  0
  191.5290  177.1840  144.2540 C   0  0  0  0  0  1  0  0  0  0  0  0
  193.8330  176.7910  145.1260 C   0  0  0  0  0  1  0  0  0  0  0  0
  1 21  1  0  0  0  0
  2 17  1  0  0  0  0
  3 14  1  0  0  0  0
  4  7  2  0  0  0  0
  4  9  1  0  0  0  0
  5 11  1  0  0  0  0
  5  7  1  0  0  0  0
  6 17  1  0  0  0  0
  6 16  1  1  0  0  0
  7  2  1  0  0  0  0
  8 18  1  0  0  0  0
  8 12  1  0  0  0  0
  9  6  1  0  0  0  0
 10 20  1  0  0  0  0
 12  4  1  0  0  0  0
 13 19  1  0  0  0  0
 14 10  2  0  0  0  0
 14 18  1  0  0  0  0
 15 13  2  0  0  0  0
 15 10  1  0  0  0  0
 18  5  2  0  0  0  0
 19  1  2  0  0  0  0
 20  1  1  0  0  0  0
 20 11  2  0  0  0  0
 21 22  1  1  0  0  0
 21 23  1  0  0  0  0
 23 26  1  0  0  0  0
 24 28  1  0  0  0  0
 24 26  1  0  0  0  0
 26 25  2  0  0  0  0
 27 24  1  0  0  0  0
M  END
>  <MODEL>
4

>  <REMARK>
 VINA RESULT:      -7.3      2.897      6.541
  Name = 
  3 active torsions:
  status: ('A' for Active; 'I' for Inactive)
    1  A    between atoms: C_1  and  C_2
    2  A    between atoms: C_2  and  C_3
    3  A    between atoms: C_3  and  C_11
                            x       y       z     vdW  Elec       q    Type
                         _______ _______ _______ _____ _____    ______ ____

>  <TORSDO>
F 3

$$$$
=
 OpenBabel11052418103D

 28 31  0  0  1  0  0  0  0  0999 V2000
  190.5900  175.5720  145.0900 C   0  0  0  0  0  0  0  0  0  0  0  0
  186.9920  177.3070  141.9430 C   0  0  0  0  0  2  0  0  0  0  0  0
  186.8140  176.1440  148.0420 F   0  0  0  0  0  0  0  0  0  0  0  0
  185.2750  178.0750  143.5890 C   0  0  0  0  0  0  0  0  0  0  0  0
  187.2270  176.8880  144.4750 C   0  0  0  0  0  0  0  0  0  0  0  0
  185.0730  178.6660  141.1470 C   0  0  2  0  0  3  0  0  0  0  0  0
  186.4390  177.4290  143.3430 C   0  0  0  0  0  0  0  0  0  0  0  0
  185.1920  177.1590  145.9240 C   0  0  0  0  0  2  0  0  0  0  0  0
  184.3500  178.5020  142.4800 C   0  0  0  0  0  2  0  0  0  0  0  0
  188.7030  175.8640  146.5980 C   0  0  0  0  0  0  0  0  0  0  0  0
  188.5130  176.4830  144.2900 N   0  0  0  0  0  0  0  0  0  0  0  0
  184.8290  178.3270  145.0050 C   0  0  0  0  0  2  0  0  0  0  0  0
  190.7650  174.9670  147.4040 N   0  0  0  0  0  0  0  0  0  0  0  0
  187.3780  176.2650  146.8130 C   0  0  0  0  0  0  0  0  0  0  0  0
  189.4810  175.3470  147.6380 C   0  0  0  0  0  3  0  0  0  0  0  0
  184.1450  178.8320  140.1380 F   0  0  0  0  0  0  0  0  0  0  0  0
  185.9110  177.4270  140.8740 C   0  0  0  0  0  2  0  0  0  0  0  0
  186.6370  176.7880  145.7490 C   0  0  0  0  0  0  0  0  0  0  0  0
  191.3270  175.0700  146.1710 C   0  0  0  0  0  3  0  0  0  0  0  0
  189.2640  175.9790  145.3090 C   0  0  0  0  0  0  0  0  0  0  0  0
  191.2240  175.7120  143.7310 C   0  0  2  0  0  3  0  0  0  0  0  0
  191.7920  174.5090  143.3010 O   0  0  0  0  0  1  0  0  0  0  0  0
  192.2360  176.8590  143.6670 C   0  0  0  0  0  2  0  0  0  0  0  0
  194.6930  176.3460  144.1500 N   0  0  0  0  0  0  0  0  0  0  0  0
  193.7750  176.1130  142.0120 O   0  0  0  0  0  0  0  0  0  0  0  0
  193.5980  176.4160  143.2230 C   0  0  0  0  0  0  0  0  0  0  0  0
  194.4980  176.6000  145.5670 C   0  0  0  0  0  1  0  0  0  0  0  0
  196.0240  175.9850  143.6930 C   0  0  0  0  0  1  0  0  0  0  0  0
  1 20  2  0  0  0  0
  1 19  1  0  0  0  0
  2  7  1  0  0  0  0
  4 12  1  0  0  0  0
  5 18  1  0  0  0  0
  6 16  1  6  0  0  0
  6  9  1  0  0  0  0
  7  4  2  0  0  0  0
  7  5  1  0  0  0  0
  9  4  1  0  0  0  0
 10 14  1  0  0  0  0
 10 15  2  0  0  0  0
 11  5  2  0  0  0  0
 11 20  1  0  0  0  0
 12  8  1  0  0  0  0
 13 15  1  0  0  0  0
 14  3  1  0  0  0  0
 17  6  1  0  0  0  0
 17  2  1  0  0  0  0
 18  8  1  0  0  0  0
 18 14  2  0  0  0  0
 19 13  2  0  0  0  0
 20 10  1  0  0  0  0
 21 22  1  1  0  0  0
 21  1  1  0  0  0  0
 23 21  1  0  0  0  0
 24 27  1  0  0  0  0
 25 26  2  0  0  0  0
 26 23  1  0  0  0  0
 26 24  1  0  0  0  0
 28 24  1  0  0  0  0
M  END
>  <MODEL>
5

>  <REMARK>
 VINA RESULT:      -7.3      3.098      6.410
  Name = 
  3 active torsions:
  status: ('A' for Active; 'I' for Inactive)
    1  A    between atoms: C_1  and  C_2
    2  A    between atoms: C_2  and  C_3
    3  A    between atoms: C_3  and  C_11
                            x       y       z     vdW  Elec       q    Type
                         _______ _______ _______ _____ _____    ______ ____

>  <TORSDO>
F 3

$$$$
=
 OpenBabel11052418103D

 28 31  0  0  1  0  0  0  0  0999 V2000
  187.5900  177.0590  146.3170 C   0  0  0  0  0  0  0  0  0  0  0  0
  188.5090  174.5210  142.0080 C   0  0  0  0  0  2  0  0  0  0  0  0
  184.7080  179.2980  143.1580 F   0  0  0  0  0  0  0  0  0  0  0  0
  187.4230  176.0360  140.3440 C   0  0  0  0  0  0  0  0  0  0  0  0
  187.1340  176.5830  142.7140 C   0  0  0  0  0  0  0  0  0  0  0  0
  188.8970  174.1360  139.5870 C   0  0  2  0  0  3  0  0  0  0  0  0
  187.6590  175.7130  141.6370 C   0  0  0  0  0  0  0  0  0  0  0  0
  185.6200  177.6470  141.0140 C   0  0  0  0  0  2  0  0  0  0  0  0
  187.7870  175.1120  139.2110 C   0  0  0  0  0  2  0  0  0  0  0  0
  186.1390  178.2100  144.7390 C   0  0  0  0  0  0  0  0  0  0  0  0
  187.5770  176.4430  143.9940 N   0  0  0  0  0  0  0  0  0  0  0  0
  186.7140  177.3180  139.9970 C   0  0  0  0  0  2  0  0  0  0  0  0
  186.1520  178.8360  147.0440 N   0  0  0  0  0  0  0  0  0  0  0  0
  185.6590  178.3670  143.4320 C   0  0  0  0  0  0  0  0  0  0  0  0
  185.6690  179.0080  145.7850 C   0  0  0  0  0  3  0  0  0  0  0  0
  189.0240  173.1800  138.5990 F   0  0  0  0  0  0  0  0  0  0  0  0
  188.5530  173.4670  140.9070 C   0  0  0  0  0  2  0  0  0  0  0  0
  186.1640  177.5560  142.4110 C   0  0  0  0  0  0  0  0  0  0  0  0
  187.0910  177.8950  147.3260 C   0  0  0  0  0  3  0  0  0  0  0  0
  187.1130  177.2240  145.0080 C   0  0  0  0  0  0  0  0  0  0  0  0
  188.6500  176.0370  146.6270 C   0  0  2  0  0  3  0  0  0  0  0  0
  188.2290  175.1400  147.6130 O   0  0  0  0  0  1  0  0  0  0  0  0
  189.9950  176.6720  146.9920 C   0  0  0  0  0  2  0  0  0  0  0  0
  192.1100  176.0340  145.7060 N   0  0  0  0  0  0  0  0  0  0  0  0
  190.6230  177.6560  144.9170 O   0  0  0  0  0  0  0  0  0  0  0  0
  190.9130  176.8190  145.8140 C   0  0  0  0  0  0  0  0  0  0  0  0
  192.4230  174.9990  146.6770 C   0  0  0  0  0  1  0  0  0  0  0  0
  193.0280  176.2370  144.5980 C   0  0  0  0  0  1  0  0  0  0  0  0
  1 21  1  0  0  0  0
  1 19  1  0  0  0  0
  3 14  1  0  0  0  0
  4  7  2  0  0  0  0
  5 11  2  0  0  0  0
  6 16  1  6  0  0  0
  6 17  1  0  0  0  0
  7  2  1  0  0  0  0
  7  5  1  0  0  0  0
  8 18  1  0  0  0  0
  9  6  1  0  0  0  0
  9  4  1  0  0  0  0
 10 20  1  0  0  0  0
 10 15  2  0  0  0  0
 11 20  1  0  0  0  0
 12  4  1  0  0  0  0
 12  8  1  0  0  0  0
 13 19  2  0  0  0  0
 14 10  1  0  0  0  0
 15 13  1  0  0  0  0
 17  2  1  0  0  0  0
 18  5  1  0  0  0  0
 18 14  2  0  0  0  0
 20  1  2  0  0  0  0
 21 23  1  0  0  0  0
 21 22  1  1  0  0  0
 24 26  1  0  0  0  0
 24 27  1  0  0  0  0
 25 26  2  0  0  0  0
 26 23  1  0  0  0  0
 28 24  1  0  0  0  0
M  END
>  <MODEL>
6

>  <REMARK>
 VINA RESULT:      -7.3      2.936      6.077
  Name = 
  3 active torsions:
  status: ('A' for Active; 'I' for Inactive)
    1  A    between atoms: C_1  and  C_2
    2  A    between atoms: C_2  and  C_3
    3  A    between atoms: C_3  and  C_11
                            x       y       z     vdW  Elec       q    Type
                         _______ _______ _______ _____ _____    ______ ____

>  <TORSDO>
F 3

$$$$
=
 OpenBabel11052418103D

 28 31  0  0  1  0  0  0  0  0999 V2000
  191.6090  176.1470  145.6320 C   0  0  0  0  0  0  0  0  0  0  0  0
  188.4130  176.5360  141.6960 C   0  0  0  0  0  2  0  0  0  0  0  0
  187.6550  178.0070  147.6830 F   0  0  0  0  0  0  0  0  0  0  0  0
  186.6270  177.9690  142.6960 C   0  0  0  0  0  0  0  0  0  0  0  0
  188.4100  177.1950  144.1870 C   0  0  0  0  0  0  0  0  0  0  0  0
  186.6680  177.5020  140.2200 C   0  0  2  0  0  3  0  0  0  0  0  0
  187.7580  177.2430  142.8580 C   0  0  0  0  0  0  0  0  0  0  0  0
  186.2870  178.1050  145.1790 C   0  0  0  0  0  2  0  0  0  0  0  0
  185.8280  177.9270  141.4200 C   0  0  0  0  0  2  0  0  0  0  0  0
  189.6310  177.0950  146.6850 C   0  0  0  0  0  0  0  0  0  0  0  0
  189.6750  176.7090  144.3200 N   0  0  0  0  0  0  0  0  0  0  0  0
  186.0850  178.7980  143.8310 C   0  0  0  0  0  2  0  0  0  0  0  0
  191.5500  176.5480  147.9960 N   0  0  0  0  0  0  0  0  0  0  0  0
  188.3240  177.5900  146.5780 C   0  0  0  0  0  0  0  0  0  0  0  0
  190.2820  177.0310  147.9190 C   0  0  0  0  0  3  0  0  0  0  0  0
  185.8400  177.2640  139.1400 F   0  0  0  0  0  0  0  0  0  0  0  0
  187.4340  176.2360  140.5660 C   0  0  0  0  0  2  0  0  0  0  0  0
  187.7120  177.6490  145.3220 C   0  0  0  0  0  0  0  0  0  0  0  0
  192.2180  176.1140  146.8950 C   0  0  0  0  0  3  0  0  0  0  0  0
  190.3020  176.6500  145.5270 C   0  0  0  0  0  0  0  0  0  0  0  0
  192.3600  175.6920  144.4100 C   0  0  2  0  0  3  0  0  0  0  0  0
  192.5420  174.3060  144.4030 O   0  0  0  0  0  1  0  0  0  0  0  0
  193.6900  176.4290  144.2260 C   0  0  0  0  0  2  0  0  0  0  0  0
  195.7100  175.3710  143.0720 N   0  0  0  0  0  0  0  0  0  0  0  0
  193.9050  176.2360  141.8630 O   0  0  0  0  0  0  0  0  0  0  0  0
  194.4260  176.0090  142.9890 C   0  0  0  0  0  0  0  0  0  0  0  0
  196.2930  175.0140  144.3540 C   0  0  0  0  0  1  0  0  0  0  0  0
  196.4460  175.0350  141.8650 C   0  0  0  0  0  1  0  0  0  0  0  0
  1 19  1  0  0  0  0
  2  7  1  0  0  0  0
  4  7  2  0  0  0  0
  4 12  1  0  0  0  0
  5 11  2  0  0  0  0
  5 18  1  0  0  0  0
  6 16  1  6  0  0  0
  6 17  1  0  0  0  0
  6  9  1  0  0  0  0
  7  5  1  0  0  0  0
  8 18  1  0  0  0  0
  9  4  1  0  0  0  0
 10 15  2  0  0  0  0
 11 20  1  0  0  0  0
 12  8  1  0  0  0  0
 14 10  1  0  0  0  0
 14  3  1  0  0  0  0
 15 13  1  0  0  0  0
 17  2  1  0  0  0  0
 18 14  2  0  0  0  0
 19 13  2  0  0  0  0
 20  1  2  0  0  0  0
 20 10  1  0  0  0  0
 21 22  1  1  0  0  0
 21  1  1  0  0  0  0
 23 21  1  0  0  0  0
 24 27  1  0  0  0  0
 25 26  2  0  0  0  0
 26 24  1  0  0  0  0
 26 23  1  0  0  0  0
 28 24  1  0  0  0  0
M  END
>  <MODEL>
7

>  <REMARK>
 VINA RESULT:      -7.1      2.900      6.192
  Name = 
  3 active torsions:
  status: ('A' for Active; 'I' for Inactive)
    1  A    between atoms: C_1  and  C_2
    2  A    between atoms: C_2  and  C_3
    3  A    between atoms: C_3  and  C_11
                            x       y       z     vdW  Elec       q    Type
                         _______ _______ _______ _____ _____    ______ ____

>  <TORSDO>
F 3

$$$$
=
 OpenBabel11052418103D

 28 31  0  0  1  0  0  0  0  0999 V2000
  188.8990  176.3910  143.9830 C   0  0  0  0  0  0  0  0  0  0  0  0
  193.6840  176.1460  142.2810 C   0  0  0  0  0  2  0  0  0  0  0  0
  191.4690  176.7210  148.0550 F   0  0  0  0  0  0  0  0  0  0  0  0
  194.9150  175.7860  144.4250 C   0  0  0  0  0  0  0  0  0  0  0  0
  192.5110  176.2290  144.5730 C   0  0  0  0  0  0  0  0  0  0  0  0
  196.0850  175.5210  142.2080 C   0  0  2  0  0  3  0  0  0  0  0  0
  193.7550  176.0660  143.7870 C   0  0  0  0  0  0  0  0  0  0  0  0
  193.9310  176.4570  146.6340 C   0  0  0  0  0  2  0  0  0  0  0  0
  196.2380  175.7700  143.7050 C   0  0  0  0  0  2  0  0  0  0  0  0
  190.1740  176.5470  146.0490 C   0  0  0  0  0  0  0  0  0  0  0  0
  191.2980  176.2380  143.9550 N   0  0  0  0  0  0  0  0  0  0  0  0
  194.9280  175.5490  145.9130 C   0  0  0  0  0  2  0  0  0  0  0  0
  187.7910  176.6900  146.0880 N   0  0  0  0  0  0  0  0  0  0  0  0
  191.4100  176.5510  146.7090 C   0  0  0  0  0  0  0  0  0  0  0  0
  188.9760  176.7000  146.7520 C   0  0  0  0  0  3  0  0  0  0  0  0
  197.2940  175.7430  141.5790 F   0  0  0  0  0  0  0  0  0  0  0  0
  195.0340  176.4640  141.6470 C   0  0  0  0  0  2  0  0  0  0  0  0
  192.5850  176.3830  145.9700 C   0  0  0  0  0  0  0  0  0  0  0  0
  187.7280  176.5380  144.7400 C   0  0  0  0  0  3  0  0  0  0  0  0
  190.1350  176.3890  144.6470 C   0  0  0  0  0  0  0  0  0  0  0  0
  188.8260  176.1950  142.4920 C   0  0  2  0  0  3  0  0  0  0  0  0
  188.4510  177.3700  141.8350 O   0  0  0  0  0  1  0  0  0  0  0  0
  187.9230  175.0230  142.0940 C   0  0  0  0  0  2  0  0  0  0  0  0
  189.1030  172.8880  141.3330 N   0  0  0  0  0  0  0  0  0  0  0  0
  188.5100  174.5780  139.8310 O   0  0  0  0  0  0  0  0  0  0  0  0
  188.5190  174.1620  141.0210 C   0  0  0  0  0  0  0  0  0  0  0  0
  189.0450  172.3410  142.6790 C   0  0  0  0  0  1  0  0  0  0  0  0
  189.7410  172.0950  140.2960 C   0  0  0  0  0  1  0  0  0  0  0  0
  1 20  2  0  0  0  0
  1 19  1  0  0  0  0
  2  7  1  0  0  0  0
  4 12  1  0  0  0  0
  5 18  1  0  0  0  0
  6 16  1  6  0  0  0
  6  9  1  0  0  0  0
  7  4  2  0  0  0  0
  7  5  1  0  0  0  0
  9  4  1  0  0  0  0
 10 14  1  0  0  0  0
 10 15  2  0  0  0  0
 11  5  2  0  0  0  0
 11 20  1  0  0  0  0
 12  8  1  0  0  0  0
 13 15  1  0  0  0  0
 14  3  1  0  0  0  0
 17  6  1  0  0  0  0
 17  2  1  0  0  0  0
 18  8  1  0  0  0  0
 18 14  2  0  0  0  0
 19 13  2  0  0  0  0
 20 10  1  0  0  0  0
 21 22  1  6  0  0  0
 21  1  1  0  0  0  0
 23 21  1  0  0  0  0
 24 27  1  0  0  0  0
 25 26  2  0  0  0  0
 26 24  1  0  0  0  0
 26 23  1  0  0  0  0
 28 24  1  0  0  0  0
M  END
>  <MODEL>
8

>  <REMARK>
 VINA RESULT:      -7.1      1.924      2.944
  Name = 
  3 active torsions:
  status: ('A' for Active; 'I' for Inactive)
    1  A    between atoms: C_1  and  C_2
    2  A    between atoms: C_2  and  C_3
    3  A    between atoms: C_3  and  C_11
                            x       y       z     vdW  Elec       q    Type
                         _______ _______ _______ _____ _____    ______ ____

>  <TORSDO>
F 3

$$$$
=
 OpenBabel11052418103D

 28 31  0  0  1  0  0  0  0  0999 V2000
  186.1430  177.9570  145.3630 C   0  0  0  0  0  0  0  0  0  0  0  0
  188.1770  174.8620  141.8790 C   0  0  0  0  0  2  0  0  0  0  0  0
  190.0330  176.2360  147.6460 F   0  0  0  0  0  0  0  0  0  0  0  0
  189.8360  173.6240  143.2780 C   0  0  0  0  0  0  0  0  0  0  0  0
  188.6430  175.4840  144.3360 C   0  0  0  0  0  0  0  0  0  0  0  0
  189.3010  172.8600  140.9370 C   0  0  2  0  0  3  0  0  0  0  0  0
  188.9390  174.6310  143.1620 C   0  0  0  0  0  0  0  0  0  0  0  0
  190.7220  174.5830  145.4220 C   0  0  0  0  0  2  0  0  0  0  0  0
  190.3020  172.8290  142.0870 C   0  0  0  0  0  2  0  0  0  0  0  0
  188.0920  177.0930  146.5370 C   0  0  0  0  0  0  0  0  0  0  0  0
  187.5640  176.3140  144.3320 N   0  0  0  0  0  0  0  0  0  0  0  0
  190.4600  173.3120  144.6130 C   0  0  0  0  0  2  0  0  0  0  0  0
  186.6810  178.7180  147.5730 N   0  0  0  0  0  0  0  0  0  0  0  0
  189.2140  176.2550  146.5620 C   0  0  0  0  0  0  0  0  0  0  0  0
  187.7760  177.9150  147.6220 C   0  0  0  0  0  3  0  0  0  0  0  0
  189.8790  172.3120  139.8090 F   0  0  0  0  0  0  0  0  0  0  0  0
  188.8980  174.2990  140.6600 C   0  0  0  0  0  2  0  0  0  0  0  0
  189.4880  175.4390  145.4600 C   0  0  0  0  0  0  0  0  0  0  0  0
  185.8690  178.7530  146.4850 C   0  0  0  0  0  3  0  0  0  0  0  0
  187.2640  177.1130  145.3940 C   0  0  0  0  0  0  0  0  0  0  0  0
  185.2260  177.9760  144.1700 C   0  0  2  0  0  3  0  0  0  0  0  0
  185.1490  176.7220  143.5590 O   0  0  0  0  0  1  0  0  0  0  0  0
  185.5960  179.0650  143.1590 C   0  0  0  0  0  2  0  0  0  0  0  0
  185.6190  178.1140  140.7870 N   0  0  0  0  0  0  0  0  0  0  0  0
  187.5850  178.4430  142.0080 O   0  0  0  0  0  0  0  0  0  0  0  0
  186.3280  178.5320  141.9630 C   0  0  0  0  0  0  0  0  0  0  0  0
  184.1810  178.2890  140.6710 C   0  0  0  0  0  1  0  0  0  0  0  0
  186.3320  177.5310  139.6630 C   0  0  0  0  0  1  0  0  0  0  0  0
  1 20  2  0  0  0  0
  1 19  1  0  0  0  0
  2  7  1  0  0  0  0
  4 12  1  0  0  0  0
  5 18  1  0  0  0  0
  6 16  1  6  0  0  0
  6  9  1  0  0  0  0
  7  4  2  0  0  0  0
  7  5  1  0  0  0  0
  8 18  1  0  0  0  0
  9  4  1  0  0  0  0
 10 14  1  0  0  0  0
 10 15  2  0  0  0  0
 11  5  2  0  0  0  0
 11 20  1  0  0  0  0
 12  8  1  0  0  0  0
 13 15  1  0  0  0  0
 14  3  1  0  0  0  0
 17  6  1  0  0  0  0
 17  2  1  0  0  0  0
 18 14  2  0  0  0  0
 19 13  2  0  0  0  0
 20 10  1  0  0  0  0
 21 22  1  6  0  0  0
 21  1  1  0  0  0  0
 23 21  1  0  0  0  0
 24 26  1  0  0  0  0
 26 25  2  0  0  0  0
 26 23  1  0  0  0  0
 27 24  1  0  0  0  0
 28 24  1  0  0  0  0
M  END
>  <MODEL>
9

>  <REMARK>
 VINA RESULT:      -6.8      2.742      4.623
  Name = 
  3 active torsions:
  status: ('A' for Active; 'I' for Inactive)
    1  A    between atoms: C_1  and  C_2
    2  A    between atoms: C_2  and  C_3
    3  A    between atoms: C_3  and  C_11
                            x       y       z     vdW  Elec       q    Type
                         _______ _______ _______ _____ _____    ______ ____

>  <TORSDO>
F 3

$$$$
