=
 OpenBabel11052420023D

 37 40  0  0  1  0  0  0  0  0999 V2000
  191.7550  174.0800  146.1540 O   0  0  0  0  0  0  0  0  0  0  0  0
  193.8700  172.9090  143.3470 C   0  0  0  0  0  2  0  0  0  0  0  0
  190.1350  177.5130  145.4410 C   0  0  0  0  0  2  0  0  0  0  0  0
  191.4870  173.6020  144.8570 C   0  0  2  0  0  3  0  0  0  0  0  0
  190.5830  176.0700  145.1690 C   0  0  1  0  0  3  0  0  0  0  0  0
  191.8960  172.1980  144.7050 N   0  0  0  0  0  0  0  0  0  0  0  0
  191.8120  176.1150  147.3770 C   0  0  0  0  0  1  0  0  0  0  0  0
  191.6600  176.0060  144.0770 C   0  0  2  0  0  3  0  0  0  0  0  0
  190.7490  178.1080  143.0700 C   0  0  0  0  0  2  0  0  0  0  0  0
  190.9820  175.2480  146.4360 C   0  0  2  0  0  0  0  0  0  0  0  0
  191.1560  176.6620  142.7980 C   0  0  0  0  0  2  0  0  0  0  0  0
  193.3440  172.0480  144.5010 C   0  0  0  0  0  2  0  0  0  0  0  0
  192.0750  174.5580  143.7950 C   0  0  1  0  0  3  0  0  0  0  0  0
  189.6650  178.1870  144.1500 C   0  0  1  0  0  3  0  0  0  0  0  0
  193.5990  174.3870  143.6200 C   0  0  1  0  0  3  0  0  0  0  0  0
  187.5260  177.9330  144.6560 C   0  0  0  0  0  1  0  0  0  0  0  0
  188.4830  177.5970  143.6960 O   0  0  0  0  0  0  0  0  0  0  0  0
  188.6320  174.9950  146.6320 O   0  0  0  0  0  0  0  0  0  0  0  0
  189.7270  174.8430  147.1500 C   0  0  0  0  0  3  0  0  0  0  0  0
  194.4470  174.9030  144.8170 C   0  0  2  0  0  3  0  0  0  0  0  0
  195.0430  177.2410  145.1180 O   0  0  0  0  0  1  0  0  0  0  0  0
  195.5130  176.2710  142.9830 C   0  0  0  0  0  1  0  0  0  0  0  0
  195.4140  176.0530  144.4820 C   0  0  2  0  0  3  0  0  0  0  0  0
  195.0260  173.8820  145.6120 O   0  0  0  0  0  0  0  0  0  0  0  0
  196.4120  174.0970  145.7090 C   0  0  0  0  0  2  0  0  0  0  0  0
  197.4490  170.4150  145.5240 C   0  0  0  0  0  1  0  0  0  0  0  0
  197.1470  172.8370  145.3930 C   0  0  0  0  0  3  0  0  0  0  0  0
  196.7060  171.6690  145.8480 C   0  0  0  0  0  3  0  0  0  0  0  0
  191.1860  171.6250  143.5660 C   0  0  0  0  0  2  0  0  0  0  0  0
  189.3930  171.9050  143.7450 S   0  0  0  0  0  0  0  0  0  0  0  0
  190.4180  172.4970  141.2220 C   0  0  0  0  0  2  0  0  0  0  0  0
  189.1010  172.3690  142.0010 C   0  0  0  0  0  3  0  0  0  0  0  0
  188.1760  173.5970  141.9090 C   0  0  0  0  0  2  0  0  0  0  0  0
  188.4960  174.2330  139.4500 C   0  0  0  0  0  2  0  0  0  0  0  0
  188.8640  172.7710  139.1760 C   0  0  0  0  0  2  0  0  0  0  0  0
  188.6480  174.6600  140.9120 C   0  0  0  0  0  2  0  0  0  0  0  0
  190.2480  172.3670  139.7010 C   0  0  0  0  0  2  0  0  0  0  0  0
  1 10  1  0  0  0  0
  2 15  1  0  0  0  0
  2 12  1  0  0  0  0
  4  1  1  1  0  0  0
  5  3  1  1  0  0  0
  5 10  1  0  0  0  0
  6  4  1  0  0  0  0
  8 11  1  6  0  0  0
  8  5  1  0  0  0  0
  9 14  1  0  0  0  0
 10 19  1  0  0  0  0
 10  7  1  1  0  0  0
 11  9  1  0  0  0  0
 12  6  1  0  0  0  0
 13  8  1  0  0  0  0
 13  4  1  0  0  0  0
 14  3  1  0  0  0  0
 15 13  1  0  0  0  0
 15 20  1  0  0  0  0
 17 14  1  0  0  0  0
 17 16  1  0  0  0  0
 18 19  2  0  0  0  0
 20 24  1  0  0  0  0
 22 23  1  0  0  0  0
 23 20  1  0  0  0  0
 23 21  1  0  0  0  0
 24 25  1  0  0  0  0
 26 28  1  0  0  0  0
 27 25  1  0  0  0  0
 27 28  2  0  0  0  0
 29 30  1  0  0  0  0
 29  6  1  0  0  0  0
 31 32  1  0  0  0  0
 32 30  1  0  0  0  0
 33 32  1  0  0  0  0
 34 36  1  0  0  0  0
 35 34  1  0  0  0  0
 35 37  1  0  0  0  0
 36 33  1  0  0  0  0
 37 31  1  0  0  0  0
M  END
>  <MODEL>
1

>  <REMARK>
 VINA RESULT:      -6.2      0.000      0.000
  Name = 
  10 active torsions:
  status: ('A' for Active; 'I' for Inactive)
    1  A    between atoms: C_1  and  C_23
    2  A    between atoms: C_1  and  O_33
    3  A    between atoms: C_1  and  C_36
    4  A    between atoms: C_6  and  S_31
    5  A    between atoms: N_14  and  C_37
    6  A    between atoms: C_17  and  C_26
    7  A    between atoms: C_17  and  O_33
    8  A    between atoms: C_24  and  C_28
    9  A    between atoms: O_30  and  C_32
   10  A    between atoms: S_31  and  C_37
                            x       y       z     vdW  Elec       q    Type
                         _______ _______ _______ _____ _____    ______ ____

>  <TORSDO>
F 10

$$$$
=
 OpenBabel11052420023D

 37 40  0  0  1  0  0  0  0  0999 V2000
  190.2470  176.9510  142.4700 O   0  0  0  0  0  0  0  0  0  0  0  0
  186.9670  175.2300  142.4120 C   0  0  0  0  0  2  0  0  0  0  0  0
  192.0230  176.6140  145.8830 C   0  0  0  0  0  2  0  0  0  0  0  0
  189.8470  175.6010  142.4620 C   0  0  2  0  0  3  0  0  0  0  0  0
  191.2410  176.1690  144.6390 C   0  0  1  0  0  3  0  0  0  0  0  0
  189.1580  175.2500  141.2120 N   0  0  0  0  0  0  0  0  0  0  0  0
  191.0920  178.5980  143.9570 C   0  0  0  0  0  1  0  0  0  0  0  0
  189.8130  175.7320  144.9920 C   0  0  2  0  0  3  0  0  0  0  0  0
  190.5880  175.0860  147.2820 C   0  0  0  0  0  2  0  0  0  0  0  0
  191.2690  177.1740  143.4430 C   0  0  2  0  0  0  0  0  0  0  0  0
  189.8420  174.6210  146.0330 C   0  0  0  0  0  2  0  0  0  0  0  0
  187.7600  175.7020  141.1890 C   0  0  0  0  0  2  0  0  0  0  0  0
  189.0550  175.2630  143.7450 C   0  0  1  0  0  3  0  0  0  0  0  0
  192.0200  175.5150  146.9470 C   0  0  1  0  0  3  0  0  0  0  0  0
  187.5980  175.7680  143.6950 C   0  0  1  0  0  3  0  0  0  0  0  0
  194.0060  174.9490  146.1510 C   0  0  0  0  0  1  0  0  0  0  0  0
  192.7670  174.4160  146.5130 O   0  0  0  0  0  0  0  0  0  0  0  0
  193.1840  176.0030  142.6770 O   0  0  0  0  0  0  0  0  0  0  0  0
  192.6090  177.0750  142.7750 C   0  0  0  0  0  3  0  0  0  0  0  0
  187.4480  177.3130  143.7920 C   0  0  2  0  0  3  0  0  0  0  0  0
  187.5760  178.1660  146.0650 O   0  0  0  0  0  1  0  0  0  0  0  0
  185.6960  176.7880  145.5310 C   0  0  0  0  0  1  0  0  0  0  0  0
  186.6960  177.8170  145.0370 C   0  0  2  0  0  3  0  0  0  0  0  0
  187.0460  177.9420  142.5870 O   0  0  0  0  0  0  0  0  0  0  0  0
  185.9030  178.7250  142.8300 C   0  0  0  0  0  2  0  0  0  0  0  0
  182.5230  178.0120  141.1770 C   0  0  0  0  0  1  0  0  0  0  0  0
  184.8460  178.4090  141.8250 C   0  0  0  0  0  3  0  0  0  0  0  0
  183.5710  178.3280  142.1920 C   0  0  0  0  0  3  0  0  0  0  0  0
  189.1990  173.8010  141.0450 C   0  0  0  0  0  2  0  0  0  0  0  0
  190.6230  173.3340  140.0050 S   0  0  0  0  0  0  0  0  0  0  0  0
  190.3090  171.0120  141.5120 C   0  0  0  0  0  2  0  0  0  0  0  0
  191.3200  172.1170  141.1760 C   0  0  0  0  0  3  0  0  0  0  0  0
  191.9330  172.8230  142.4000 C   0  0  0  0  0  2  0  0  0  0  0  0
  192.2430  170.8300  143.9760 C   0  0  0  0  0  2  0  0  0  0  0  0
  192.3100  169.9310  142.7380 C   0  0  0  0  0  2  0  0  0  0  0  0
  191.5630  172.1820  143.7410 C   0  0  0  0  0  2  0  0  0  0  0  0
  190.9570  169.7260  142.0430 C   0  0  0  0  0  2  0  0  0  0  0  0
  1 10  1  0  0  0  0
  2 15  1  0  0  0  0
  3 14  1  0  0  0  0
  4  1  1  6  0  0  0
  4 13  1  0  0  0  0
  5  8  1  0  0  0  0
  5  3  1  1  0  0  0
  6  4  1  0  0  0  0
  8 11  1  1  0  0  0
 10  7  1  1  0  0  0
 10  5  1  0  0  0  0
 11  9  1  0  0  0  0
 12  6  1  0  0  0  0
 12  2  1  0  0  0  0
 13  8  1  0  0  0  0
 14  9  1  0  0  0  0
 15 13  1  0  0  0  0
 15 20  1  0  0  0  0
 16 17  1  0  0  0  0
 17 14  1  0  0  0  0
 18 19  2  0  0  0  0
 19 10  1  0  0  0  0
 20 23  1  0  0  0  0
 23 22  1  0  0  0  0
 23 21  1  0  0  0  0
 24 25  1  0  0  0  0
 24 20  1  0  0  0  0
 26 28  1  0  0  0  0
 27 28  2  0  0  0  0
 27 25  1  0  0  0  0
 29  6  1  0  0  0  0
 30 29  1  0  0  0  0
 30 32  1  0  0  0  0
 31 37  1  0  0  0  0
 32 31  1  0  0  0  0
 32 33  1  0  0  0  0
 33 36  1  0  0  0  0
 35 34  1  0  0  0  0
 36 34  1  0  0  0  0
 37 35  1  0  0  0  0
M  END
>  <MODEL>
2

>  <REMARK>
 VINA RESULT:      -6.0      2.430      7.178
  Name = 
  10 active torsions:
  status: ('A' for Active; 'I' for Inactive)
    1  A    between atoms: C_1  and  C_23
    2  A    between atoms: C_1  and  O_33
    3  A    between atoms: C_1  and  C_36
    4  A    between atoms: C_6  and  S_31
    5  A    between atoms: N_14  and  C_37
    6  A    between atoms: C_17  and  C_26
    7  A    between atoms: C_17  and  O_33
    8  A    between atoms: C_24  and  C_28
    9  A    between atoms: O_30  and  C_32
   10  A    between atoms: S_31  and  C_37
                            x       y       z     vdW  Elec       q    Type
                         _______ _______ _______ _____ _____    ______ ____

>  <TORSDO>
F 10

$$$$
=
 OpenBabel11052420023D

 37 40  0  0  1  0  0  0  0  0999 V2000
  189.9280  177.2130  142.6350 O   0  0  0  0  0  0  0  0  0  0  0  0
  186.6090  175.5740  142.7870 C   0  0  0  0  0  2  0  0  0  0  0  0
  192.0810  176.4630  145.7530 C   0  0  0  0  0  2  0  0  0  0  0  0
  189.4860  175.8810  142.5290 C   0  0  2  0  0  3  0  0  0  0  0  0
  191.1450  176.1750  144.5710 C   0  0  1  0  0  3  0  0  0  0  0  0
  188.6450  175.6840  141.3410 N   0  0  0  0  0  0  0  0  0  0  0  0
  190.9960  178.6680  144.1790 C   0  0  0  0  0  1  0  0  0  0  0  0
  189.7550  175.7300  145.0440 C   0  0  2  0  0  3  0  0  0  0  0  0
  190.7720  174.8170  147.1400 C   0  0  0  0  0  2  0  0  0  0  0  0
  191.0650  177.3060  143.4960 C   0  0  2  0  0  0  0  0  0  0  0  0
  189.8690  174.5090  145.9480 C   0  0  0  0  0  2  0  0  0  0  0  0
  187.2680  176.1630  141.5350 C   0  0  0  0  0  2  0  0  0  0  0  0
  188.8400  175.4170  143.8550 C   0  0  1  0  0  3  0  0  0  0  0  0
  192.1680  175.2530  146.6840 C   0  0  1  0  0  3  0  0  0  0  0  0
  187.4050  175.9530  144.0350 C   0  0  1  0  0  3  0  0  0  0  0  0
  194.1040  174.6800  145.7770 C   0  0  0  0  0  1  0  0  0  0  0  0
  192.8220  174.1950  146.0470 O   0  0  0  0  0  0  0  0  0  0  0  0
  192.8650  176.1940  142.4240 O   0  0  0  0  0  0  0  0  0  0  0  0
  192.3130  177.2560  142.6650 C   0  0  0  0  0  3  0  0  0  0  0  0
  187.3180  177.4800  144.3170 C   0  0  2  0  0  3  0  0  0  0  0  0
  187.9540  177.9850  146.6070 O   0  0  0  0  0  1  0  0  0  0  0  0
  185.8770  176.8440  146.2890 C   0  0  0  0  0  1  0  0  0  0  0  0
  186.8670  177.8560  145.7400 C   0  0  2  0  0  3  0  0  0  0  0  0
  186.6790  178.2300  143.2970 O   0  0  0  0  0  0  0  0  0  0  0  0
  185.8200  179.1760  143.8850 C   0  0  0  0  0  2  0  0  0  0  0  0
  182.8660  178.1400  141.6780 C   0  0  0  0  0  1  0  0  0  0  0  0
  184.4720  179.1050  143.2480 C   0  0  0  0  0  3  0  0  0  0  0  0
  184.2190  178.2020  142.3070 C   0  0  0  0  0  3  0  0  0  0  0  0
  188.6180  174.2630  141.0150 C   0  0  0  0  0  2  0  0  0  0  0  0
  190.3190  173.6080  140.9470 S   0  0  0  0  0  0  0  0  0  0  0  0
  188.9040  173.4360  138.5520 C   0  0  0  0  0  2  0  0  0  0  0  0
  190.2350  173.0450  139.2100 C   0  0  0  0  0  3  0  0  0  0  0  0
  190.5920  171.5500  139.1010 C   0  0  0  0  0  2  0  0  0  0  0  0
  189.8100  171.0610  136.7130 C   0  0  0  0  0  2  0  0  0  0  0  0
  190.0190  172.5460  136.3990 C   0  0  0  0  0  2  0  0  0  0  0  0
  189.6460  170.7470  138.2020 C   0  0  0  0  0  2  0  0  0  0  0  0
  188.9620  173.4690  137.0190 C   0  0  0  0  0  2  0  0  0  0  0  0
  1 10  1  0  0  0  0
  2 15  1  0  0  0  0
  3 14  1  0  0  0  0
  4  1  1  1  0  0  0
  4 13  1  0  0  0  0
  5  8  1  0  0  0  0
  5  3  1  1  0  0  0
  6 12  1  0  0  0  0
  6  4  1  0  0  0  0
  8 11  1  1  0  0  0
 10  7  1  1  0  0  0
 10  5  1  0  0  0  0
 11  9  1  0  0  0  0
 12  2  1  0  0  0  0
 13 15  1  0  0  0  0
 13  8  1  0  0  0  0
 14  9  1  0  0  0  0
 15 20  1  0  0  0  0
 16 17  1  0  0  0  0
 17 14  1  0  0  0  0
 18 19  2  0  0  0  0
 19 10  1  0  0  0  0
 20 23  1  0  0  0  0
 23 22  1  0  0  0  0
 23 21  1  0  0  0  0
 24 25  1  0  0  0  0
 24 20  1  0  0  0  0
 26 28  1  0  0  0  0
 27 25  1  0  0  0  0
 28 27  2  0  0  0  0
 29  6  1  0  0  0  0
 30 29  1  0  0  0  0
 31 32  1  0  0  0  0
 32 30  1  0  0  0  0
 33 32  1  0  0  0  0
 34 36  1  0  0  0  0
 35 34  1  0  0  0  0
 35 37  1  0  0  0  0
 36 33  1  0  0  0  0
 37 31  1  0  0  0  0
M  END
>  <MODEL>
3

>  <REMARK>
 VINA RESULT:      -5.9      2.509      7.124
  Name = 
  10 active torsions:
  status: ('A' for Active; 'I' for Inactive)
    1  A    between atoms: C_1  and  C_23
    2  A    between atoms: C_1  and  O_33
    3  A    between atoms: C_1  and  C_36
    4  A    between atoms: C_6  and  S_31
    5  A    between atoms: N_14  and  C_37
    6  A    between atoms: C_17  and  C_26
    7  A    between atoms: C_17  and  O_33
    8  A    between atoms: C_24  and  C_28
    9  A    between atoms: O_30  and  C_32
   10  A    between atoms: S_31  and  C_37
                            x       y       z     vdW  Elec       q    Type
                         _______ _______ _______ _____ _____    ______ ____

>  <TORSDO>
F 10

$$$$
=
 OpenBabel11052420023D

 37 40  0  0  1  0  0  0  0  0999 V2000
  189.8050  173.1400  143.2170 O   0  0  0  0  0  0  0  0  0  0  0  0
  189.6060  173.7750  139.5720 C   0  0  0  0  0  2  0  0  0  0  0  0
  193.1890  174.2410  144.7160 C   0  0  0  0  0  2  0  0  0  0  0  0
  189.6940  174.3000  142.4280 C   0  0  2  0  0  3  0  0  0  0  0  0
  191.9120  174.3380  143.8710 C   0  0  1  0  0  3  0  0  0  0  0  0
  188.4180  174.3370  141.6980 N   0  0  0  0  0  0  0  0  0  0  0  0
  191.4150  171.9360  144.4810 C   0  0  0  0  0  1  0  0  0  0  0  0
  192.2260  174.3450  142.3680 C   0  0  2  0  0  3  0  0  0  0  0  0
  194.4630  175.3570  142.8510 C   0  0  0  0  0  2  0  0  0  0  0  0
  190.7950  173.3070  144.2320 C   0  0  2  0  0  0  0  0  0  0  0  0
  193.1800  175.4840  142.0320 C   0  0  0  0  0  2  0  0  0  0  0  0
  188.4240  173.4810  140.5030 C   0  0  0  0  0  2  0  0  0  0  0  0
  190.9450  174.4720  141.5370 C   0  0  1  0  0  3  0  0  0  0  0  0
  194.1670  175.3600  144.3530 C   0  0  1  0  0  3  0  0  0  0  0  0
  190.9270  173.5470  140.3030 C   0  0  1  0  0  3  0  0  0  0  0  0
  194.1760  176.8140  146.0220 C   0  0  0  0  0  1  0  0  0  0  0  0
  193.6540  176.6000  144.7440 O   0  0  0  0  0  0  0  0  0  0  0  0
  189.9580  174.9470  145.7270 O   0  0  0  0  0  0  0  0  0  0  0  0
  190.1270  173.7610  145.4970 C   0  0  0  0  0  3  0  0  0  0  0  0
  191.1410  172.0410  140.6240 C   0  0  2  0  0  3  0  0  0  0  0  0
  193.2670  171.1450  141.3890 O   0  0  0  0  0  1  0  0  0  0  0  0
  193.3050  172.4700  139.3990 C   0  0  0  0  0  1  0  0  0  0  0  0
  192.5280  171.4850  140.2530 C   0  0  2  0  0  3  0  0  0  0  0  0
  190.0660  171.1990  140.2400 O   0  0  0  0  0  0  0  0  0  0  0  0
  190.5330  170.2340  139.3290 C   0  0  0  0  0  2  0  0  0  0  0  0
  189.5410  171.2080  135.7600 C   0  0  0  0  0  1  0  0  0  0  0  0
  189.7970  170.3550  138.0360 C   0  0  0  0  0  3  0  0  0  0  0  0
  190.2870  171.0960  137.0490 C   0  0  0  0  0  3  0  0  0  0  0  0
  188.1420  175.7140  141.3040 C   0  0  0  0  0  2  0  0  0  0  0  0
  188.4880  176.8410  142.6950 S   0  0  0  0  0  0  0  0  0  0  0  0
  186.3050  178.2750  141.7240 C   0  0  0  0  0  2  0  0  0  0  0  0
  186.7650  177.4120  142.9080 C   0  0  0  0  0  3  0  0  0  0  0  0
  186.5690  178.0590  144.2920 C   0  0  0  0  0  2  0  0  0  0  0  0
  184.2970  179.1900  143.9560 C   0  0  0  0  0  2  0  0  0  0  0  0
  183.9970  178.1440  142.8780 C   0  0  0  0  0  2  0  0  0  0  0  0
  185.7860  179.3760  144.2600 C   0  0  0  0  0  2  0  0  0  0  0  0
  184.7790  178.3500  141.5740 C   0  0  0  0  0  2  0  0  0  0  0  0
  1 10  1  0  0  0  0
  2 15  1  0  0  0  0
  2 12  1  0  0  0  0
  4  1  1  6  0  0  0
  5 10  1  0  0  0  0
  5  3  1  1  0  0  0
  6  4  1  0  0  0  0
  8 11  1  1  0  0  0
  8  5  1  0  0  0  0
  9 14  1  0  0  0  0
 10  7  1  1  0  0  0
 10 19  1  0  0  0  0
 11  9  1  0  0  0  0
 12  6  1  0  0  0  0
 13  8  1  0  0  0  0
 13  4  1  0  0  0  0
 14  3  1  0  0  0  0
 14 17  1  0  0  0  0
 15 20  1  0  0  0  0
 15 13  1  0  0  0  0
 17 16  1  0  0  0  0
 19 18  2  0  0  0  0
 22 23  1  0  0  0  0
 23 20  1  0  0  0  0
 23 21  1  0  0  0  0
 24 20  1  0  0  0  0
 25 24  1  0  0  0  0
 26 28  1  0  0  0  0
 27 25  1  0  0  0  0
 28 27  2  0  0  0  0
 29  6  1  0  0  0  0
 29 30  1  0  0  0  0
 30 32  1  0  0  0  0
 31 32  1  0  0  0  0
 32 33  1  0  0  0  0
 34 36  1  0  0  0  0
 35 34  1  0  0  0  0
 36 33  1  0  0  0  0
 37 31  1  0  0  0  0
 37 35  1  0  0  0  0
M  END
>  <MODEL>
4

>  <REMARK>
 VINA RESULT:      -5.7      2.825      6.315
  Name = 
  10 active torsions:
  status: ('A' for Active; 'I' for Inactive)
    1  A    between atoms: C_1  and  C_23
    2  A    between atoms: C_1  and  O_33
    3  A    between atoms: C_1  and  C_36
    4  A    between atoms: C_6  and  S_31
    5  A    between atoms: N_14  and  C_37
    6  A    between atoms: C_17  and  C_26
    7  A    between atoms: C_17  and  O_33
    8  A    between atoms: C_24  and  C_28
    9  A    between atoms: O_30  and  C_32
   10  A    between atoms: S_31  and  C_37
                            x       y       z     vdW  Elec       q    Type
                         _______ _______ _______ _____ _____    ______ ____

>  <TORSDO>
F 10

$$$$
=
 OpenBabel11052420023D

 37 40  0  0  1  0  0  0  0  0999 V2000
  191.5680  174.6040  142.4150 O   0  0  0  0  0  0  0  0  0  0  0  0
  189.6920  172.6010  144.9040 C   0  0  0  0  0  2  0  0  0  0  0  0
  194.9560  175.8510  143.7880 C   0  0  0  0  0  2  0  0  0  0  0  0
  191.7340  173.3200  142.9670 C   0  0  2  0  0  3  0  0  0  0  0  0
  193.8180  174.8620  143.4990 C   0  0  1  0  0  3  0  0  0  0  0  0
  190.6290  172.4250  142.5930 N   0  0  0  0  0  0  0  0  0  0  0  0
  192.4750  176.7930  142.5740 C   0  0  0  0  0  1  0  0  0  0  0  0
  193.1090  174.4220  144.7870 C   0  0  2  0  0  3  0  0  0  0  0  0
  195.2180  174.8230  146.0730 C   0  0  0  0  0  2  0  0  0  0  0  0
  192.8070  175.3150  142.3980 C   0  0  2  0  0  0  0  0  0  0  0  0
  194.1100  173.8180  145.7630 C   0  0  0  0  0  2  0  0  0  0  0  0
  189.4190  172.6530  143.3960 C   0  0  0  0  0  2  0  0  0  0  0  0
  191.9950  173.4130  144.4870 C   0  0  1  0  0  3  0  0  0  0  0  0
  195.9430  175.2630  144.7970 C   0  0  1  0  0  3  0  0  0  0  0  0
  190.7080  173.6710  145.2970 C   0  0  1  0  0  3  0  0  0  0  0  0
  197.7840  174.0540  145.0110 C   0  0  0  0  0  1  0  0  0  0  0  0
  196.6310  174.1850  144.2340 O   0  0  0  0  0  0  0  0  0  0  0  0
  192.8850  174.5370  140.1590 O   0  0  0  0  0  0  0  0  0  0  0  0
  193.4570  175.1320  141.0580 C   0  0  0  0  0  3  0  0  0  0  0  0
  190.1160  175.0990  145.1290 C   0  0  2  0  0  3  0  0  0  0  0  0
  191.3810  176.9790  146.0080 O   0  0  0  0  0  1  0  0  0  0  0  0
  190.7260  175.2910  147.5700 C   0  0  0  0  0  1  0  0  0  0  0  0
  190.3760  176.0550  146.3070 C   0  0  2  0  0  3  0  0  0  0  0  0
  188.7820  175.1300  144.6500 O   0  0  0  0  0  0  0  0  0  0  0  0
  188.5090  176.4030  144.1150 C   0  0  0  0  0  2  0  0  0  0  0  0
  185.3640  177.1800  146.1570 C   0  0  0  0  0  1  0  0  0  0  0  0
  187.1370  176.8380  144.5100 C   0  0  0  0  0  3  0  0  0  0  0  0
  186.7380  176.7410  145.7740 C   0  0  0  0  0  3  0  0  0  0  0  0
  191.0670  171.0440  142.7630 C   0  0  0  0  0  2  0  0  0  0  0  0
  192.4300  170.6770  141.6080 S   0  0  0  0  0  0  0  0  0  0  0  0
  192.8070  169.6950  144.1890 C   0  0  0  0  0  2  0  0  0  0  0  0
  193.5310  169.9160  142.8530 C   0  0  0  0  0  3  0  0  0  0  0  0
  194.8570  170.6920  142.9600 C   0  0  0  0  0  2  0  0  0  0  0  0
  195.8040  169.6960  145.1200 C   0  0  0  0  0  2  0  0  0  0  0  0
  194.9690  168.4420  144.8430 C   0  0  0  0  0  2  0  0  0  0  0  0
  195.3120  170.9550  144.3990 C   0  0  0  0  0  2  0  0  0  0  0  0
  193.4650  168.6300  145.0770 C   0  0  0  0  0  2  0  0  0  0  0  0
  2 15  1  0  0  0  0
  3 14  1  0  0  0  0
  4  1  1  1  0  0  0
  4 13  1  0  0  0  0
  5  3  1  1  0  0  0
  5  8  1  0  0  0  0
  6 29  1  0  0  0  0
  6  4  1  0  0  0  0
  6 12  1  0  0  0  0
  8 11  1  1  0  0  0
 10  1  1  0  0  0  0
 10  7  1  1  0  0  0
 10  5  1  0  0  0  0
 11  9  1  0  0  0  0
 12  2  1  0  0  0  0
 13  8  1  0  0  0  0
 13 15  1  0  0  0  0
 14  9  1  0  0  0  0
 17 14  1  0  0  0  0
 17 16  1  0  0  0  0
 18 19  2  0  0  0  0
 19 10  1  0  0  0  0
 20 15  1  0  0  0  0
 20 23  1  0  0  0  0
 21 23  1  0  0  0  0
 23 22  1  0  0  0  0
 24 20  1  0  0  0  0
 25 27  1  0  0  0  0
 25 24  1  0  0  0  0
 27 28  2  0  0  0  0
 28 26  1  0  0  0  0
 30 29  1  0  0  0  0
 30 32  1  0  0  0  0
 31 37  1  0  0  0  0
 32 33  1  0  0  0  0
 32 31  1  0  0  0  0
 33 36  1  0  0  0  0
 35 37  1  0  0  0  0
 35 34  1  0  0  0  0
 36 34  1  0  0  0  0
M  END
>  <MODEL>
5

>  <REMARK>
 VINA RESULT:      -5.7      2.262      6.739
  Name = 
  10 active torsions:
  status: ('A' for Active; 'I' for Inactive)
    1  A    between atoms: C_1  and  C_23
    2  A    between atoms: C_1  and  O_33
    3  A    between atoms: C_1  and  C_36
    4  A    between atoms: C_6  and  S_31
    5  A    between atoms: N_14  and  C_37
    6  A    between atoms: C_17  and  C_26
    7  A    between atoms: C_17  and  O_33
    8  A    between atoms: C_24  and  C_28
    9  A    between atoms: O_30  and  C_32
   10  A    between atoms: S_31  and  C_37
                            x       y       z     vdW  Elec       q    Type
                         _______ _______ _______ _____ _____    ______ ____

>  <TORSDO>
F 10

$$$$
=
 OpenBabel11052420023D

 37 40  0  0  1  0  0  0  0  0999 V2000
  191.4900  173.8440  144.4980 O   0  0  0  0  0  0  0  0  0  0  0  0
  191.3940  177.3320  143.2540 C   0  0  0  0  0  2  0  0  0  0  0  0
  190.2250  171.3120  141.8690 C   0  0  0  0  0  2  0  0  0  0  0  0
  192.2360  174.5680  143.5480 C   0  0  2  0  0  3  0  0  0  0  0  0
  191.0110  172.5070  142.4270 C   0  0  1  0  0  3  0  0  0  0  0  0
  193.0000  175.6550  144.1770 N   0  0  0  0  0  0  0  0  0  0  0  0
  189.7750  172.2050  144.6110 C   0  0  0  0  0  1  0  0  0  0  0  0
  190.5210  173.8350  141.8340 C   0  0  2  0  0  3  0  0  0  0  0  0
  189.7900  172.6300  139.7660 C   0  0  0  0  0  2  0  0  0  0  0  0
  191.1190  172.5630  143.9840 C   0  0  2  0  0  0  0  0  0  0  0  0
  190.6050  173.7990  140.3130 C   0  0  0  0  0  2  0  0  0  0  0  0
  192.1700  176.8310  144.4770 C   0  0  0  0  0  2  0  0  0  0  0  0
  191.3330  175.0150  142.3770 C   0  0  1  0  0  3  0  0  0  0  0  0
  190.2760  171.2950  140.3410 C   0  0  1  0  0  3  0  0  0  0  0  0
  190.4630  176.2400  142.7310 C   0  0  1  0  0  3  0  0  0  0  0  0
  191.7690  169.6690  140.1920 C   0  0  0  0  0  1  0  0  0  0  0  0
  191.5730  171.0200  139.8990 O   0  0  0  0  0  0  0  0  0  0  0  0
  192.9460  171.0910  143.6370 O   0  0  0  0  0  0  0  0  0  0  0  0
  192.1320  171.5480  144.4240 C   0  0  0  0  0  3  0  0  0  0  0  0
  189.3170  175.9450  143.7390 C   0  0  2  0  0  3  0  0  0  0  0  0
  187.5160  175.0100  142.4010 O   0  0  0  0  0  1  0  0  0  0  0  0
  187.7680  177.3880  142.3650 C   0  0  0  0  0  1  0  0  0  0  0  0
  187.8940  176.1100  143.1740 C   0  0  2  0  0  3  0  0  0  0  0  0
  189.4960  176.5270  145.0190 O   0  0  0  0  0  0  0  0  0  0  0  0
  188.6280  175.9080  145.9370 C   0  0  0  0  0  2  0  0  0  0  0  0
  186.0680  178.1890  147.6430 C   0  0  0  0  0  1  0  0  0  0  0  0
  187.9960  176.9370  146.8150 C   0  0  0  0  0  3  0  0  0  0  0  0
  186.6880  177.1580  146.7590 C   0  0  0  0  0  3  0  0  0  0  0  0
  194.0840  176.0450  143.2830 C   0  0  0  0  0  2  0  0  0  0  0  0
  195.6290  176.2490  144.2300 S   0  0  0  0  0  0  0  0  0  0  0  0
  196.8920  174.1850  145.6120 C   0  0  0  0  0  2  0  0  0  0  0  0
  195.9770  174.4640  144.4110 C   0  0  0  0  0  3  0  0  0  0  0  0
  196.4630  173.8630  143.0780 C   0  0  0  0  0  2  0  0  0  0  0  0
  197.3550  171.6040  143.8870 C   0  0  0  0  0  2  0  0  0  0  0  0
  196.3900  171.7090  145.0710 C   0  0  0  0  0  2  0  0  0  0  0  0
  197.6790  172.9420  143.2150 C   0  0  0  0  0  2  0  0  0  0  0  0
  196.8070  172.7410  146.1270 C   0  0  0  0  0  2  0  0  0  0  0  0
  2 12  1  0  0  0  0
  4  6  1  0  0  0  0
  4  1  1  1  0  0  0
  5  3  1  1  0  0  0
  5 10  1  0  0  0  0
  6 12  1  0  0  0  0
  8 11  1  6  0  0  0
  8 13  1  0  0  0  0
  8  5  1  0  0  0  0
  9 11  1  0  0  0  0
  9 14  1  0  0  0  0
 10 19  1  0  0  0  0
 10  1  1  0  0  0  0
 10  7  1  1  0  0  0
 13 15  1  0  0  0  0
 13  4  1  0  0  0  0
 14  3  1  0  0  0  0
 15  2  1  0  0  0  0
 15 20  1  0  0  0  0
 17 16  1  0  0  0  0
 17 14  1  0  0  0  0
 18 19  2  0  0  0  0
 20 24  1  0  0  0  0
 21 23  1  0  0  0  0
 22 23  1  0  0  0  0
 23 20  1  0  0  0  0
 24 25  1  0  0  0  0
 25 27  1  0  0  0  0
 28 27  2  0  0  0  0
 28 26  1  0  0  0  0
 29  6  1  0  0  0  0
 29 30  1  0  0  0  0
 30 32  1  0  0  0  0
 31 37  1  0  0  0  0
 32 31  1  0  0  0  0
 33 36  1  0  0  0  0
 33 32  1  0  0  0  0
 34 35  1  0  0  0  0
 35 37  1  0  0  0  0
 36 34  1  0  0  0  0
M  END
>  <MODEL>
6

>  <REMARK>
 VINA RESULT:      -5.6      2.581      7.289
  Name = 
  10 active torsions:
  status: ('A' for Active; 'I' for Inactive)
    1  A    between atoms: C_1  and  C_23
    2  A    between atoms: C_1  and  O_33
    3  A    between atoms: C_1  and  C_36
    4  A    between atoms: C_6  and  S_31
    5  A    between atoms: N_14  and  C_37
    6  A    between atoms: C_17  and  C_26
    7  A    between atoms: C_17  and  O_33
    8  A    between atoms: C_24  and  C_28
    9  A    between atoms: O_30  and  C_32
   10  A    between atoms: S_31  and  C_37
                            x       y       z     vdW  Elec       q    Type
                         _______ _______ _______ _____ _____    ______ ____

>  <TORSDO>
F 10

$$$$
=
 OpenBabel11052420023D

 37 40  0  0  1  0  0  0  0  0999 V2000
  191.3150  174.0770  144.6270 O   0  0  0  0  0  0  0  0  0  0  0  0
  191.0270  177.5170  143.2830 C   0  0  0  0  0  2  0  0  0  0  0  0
  190.3060  171.3980  142.0350 C   0  0  0  0  0  2  0  0  0  0  0  0
  192.0410  174.8250  143.6810 C   0  0  2  0  0  3  0  0  0  0  0  0
  190.9930  172.6570  142.5820 C   0  0  1  0  0  3  0  0  0  0  0  0
  192.7110  175.9770  144.3020 N   0  0  0  0  0  0  0  0  0  0  0  0
  189.7110  172.3300  144.7350 C   0  0  0  0  0  1  0  0  0  0  0  0
  190.4340  173.9330  141.9370 C   0  0  2  0  0  3  0  0  0  0  0  0
  189.8510  172.6280  139.8830 C   0  0  0  0  0  2  0  0  0  0  0  0
  191.0470  172.7620  144.1390 C   0  0  2  0  0  0  0  0  0  0  0  0
  190.5700  173.8640  140.4210 C   0  0  0  0  0  2  0  0  0  0  0  0
  191.7950  177.1020  144.5420 C   0  0  0  0  0  2  0  0  0  0  0  0
  191.1490  175.1800  142.4700 C   0  0  1  0  0  3  0  0  0  0  0  0
  190.4070  171.3450  140.5090 C   0  0  1  0  0  3  0  0  0  0  0  0
  190.1880  176.3510  142.7630 C   0  0  1  0  0  3  0  0  0  0  0  0
  191.6450  170.6160  138.8260 C   0  0  0  0  0  1  0  0  0  0  0  0
  191.7320  171.1470  140.1150 O   0  0  0  0  0  0  0  0  0  0  0  0
  193.1230  171.6260  143.9870 O   0  0  0  0  0  0  0  0  0  0  0  0
  192.1100  171.8290  144.6380 C   0  0  0  0  0  3  0  0  0  0  0  0
  189.0330  176.0070  143.7440 C   0  0  2  0  0  3  0  0  0  0  0  0
  187.3360  174.9160  142.3880 O   0  0  0  0  0  1  0  0  0  0  0  0
  187.4400  177.3020  142.2770 C   0  0  0  0  0  1  0  0  0  0  0  0
  187.6200  176.0630  143.1330 C   0  0  2  0  0  3  0  0  0  0  0  0
  189.1320  176.6320  145.0130 O   0  0  0  0  0  0  0  0  0  0  0  0
  188.4380  175.8640  145.9660 C   0  0  0  0  0  2  0  0  0  0  0  0
  185.5500  177.9740  147.3340 C   0  0  0  0  0  1  0  0  0  0  0  0
  187.6060  176.7530  146.8280 C   0  0  0  0  0  3  0  0  0  0  0  0
  186.3730  177.0850  146.4610 C   0  0  0  0  0  3  0  0  0  0  0  0
  193.7950  176.4150  143.4300 C   0  0  0  0  0  2  0  0  0  0  0  0
  195.3620  175.6380  143.9450 S   0  0  0  0  0  0  0  0  0  0  0  0
  196.1820  176.1290  141.3270 C   0  0  0  0  0  2  0  0  0  0  0  0
  195.8060  174.9950  142.2930 C   0  0  0  0  0  3  0  0  0  0  0  0
  194.7200  174.0360  141.7690 C   0  0  0  0  0  2  0  0  0  0  0  0
  195.4180  173.8470  139.3130 C   0  0  0  0  0  2  0  0  0  0  0  0
  196.8450  174.1950  139.7480 C   0  0  0  0  0  2  0  0  0  0  0  0
  194.3320  174.2730  140.3050 C   0  0  0  0  0  2  0  0  0  0  0  0
  197.0370  175.6660  140.1390 C   0  0  0  0  0  2  0  0  0  0  0  0
  2 12  1  0  0  0  0
  4  6  1  0  0  0  0
  4  1  1  1  0  0  0
  5  3  1  1  0  0  0
  5 10  1  0  0  0  0
  6 12  1  0  0  0  0
  8 11  1  6  0  0  0
  8 13  1  0  0  0  0
  8  5  1  0  0  0  0
  9 11  1  0  0  0  0
  9 14  1  0  0  0  0
 10  1  1  0  0  0  0
 10 19  1  0  0  0  0
 10  7  1  1  0  0  0
 13 15  1  0  0  0  0
 13  4  1  0  0  0  0
 14  3  1  0  0  0  0
 15  2  1  0  0  0  0
 15 20  1  0  0  0  0
 16 17  1  0  0  0  0
 17 14  1  0  0  0  0
 18 19  2  0  0  0  0
 20 24  1  0  0  0  0
 21 23  1  0  0  0  0
 22 23  1  0  0  0  0
 23 20  1  0  0  0  0
 24 25  1  0  0  0  0
 25 27  1  0  0  0  0
 28 27  2  0  0  0  0
 28 26  1  0  0  0  0
 29 30  1  0  0  0  0
 29  6  1  0  0  0  0
 31 32  1  0  0  0  0
 32 30  1  0  0  0  0
 33 32  1  0  0  0  0
 34 35  1  0  0  0  0
 34 36  1  0  0  0  0
 35 37  1  0  0  0  0
 36 33  1  0  0  0  0
 37 31  1  0  0  0  0
M  END
>  <MODEL>
7

>  <REMARK>
 VINA RESULT:      -5.5      2.752      6.919
  Name = 
  10 active torsions:
  status: ('A' for Active; 'I' for Inactive)
    1  A    between atoms: C_1  and  C_23
    2  A    between atoms: C_1  and  O_33
    3  A    between atoms: C_1  and  C_36
    4  A    between atoms: C_6  and  S_31
    5  A    between atoms: N_14  and  C_37
    6  A    between atoms: C_17  and  C_26
    7  A    between atoms: C_17  and  O_33
    8  A    between atoms: C_24  and  C_28
    9  A    between atoms: O_30  and  C_32
   10  A    between atoms: S_31  and  C_37
                            x       y       z     vdW  Elec       q    Type
                         _______ _______ _______ _____ _____    ______ ____

>  <TORSDO>
F 10

$$$$
=
 OpenBabel11052420023D

 37 40  0  0  1  0  0  0  0  0999 V2000
  191.9030  174.0220  142.2450 O   0  0  0  0  0  0  0  0  0  0  0  0
  189.8810  172.0460  144.6400 C   0  0  0  0  0  2  0  0  0  0  0  0
  194.6370  176.1080  144.0030 C   0  0  0  0  0  2  0  0  0  0  0  0
  192.1550  172.8870  143.0400 C   0  0  2  0  0  3  0  0  0  0  0  0
  193.7760  174.8780  143.6810 C   0  0  1  0  0  3  0  0  0  0  0  0
  191.3290  171.7440  142.6250 N   0  0  0  0  0  0  0  0  0  0  0  0
  192.3700  176.3490  142.1820 C   0  0  0  0  0  1  0  0  0  0  0  0
  192.8810  174.4880  144.8650 C   0  0  2  0  0  3  0  0  0  0  0  0
  194.5490  175.4820  146.4420 C   0  0  0  0  0  2  0  0  0  0  0  0
  192.9770  174.9590  142.3420 C   0  0  2  0  0  0  0  0  0  0  0  0
  193.7250  174.2410  146.1090 C   0  0  0  0  0  2  0  0  0  0  0  0
  189.9490  171.8320  143.1240 C   0  0  0  0  0  2  0  0  0  0  0  0
  192.0490  173.2420  144.5400 C   0  0  1  0  0  3  0  0  0  0  0  0
  195.4570  175.8780  145.2740 C   0  0  1  0  0  3  0  0  0  0  0  0
  190.5880  173.3440  145.0250 C   0  0  1  0  0  3  0  0  0  0  0  0
  197.0790  175.2900  143.8880 C   0  0  0  0  0  1  0  0  0  0  0  0
  196.4260  174.8950  145.0570 O   0  0  0  0  0  0  0  0  0  0  0  0
  194.3280  175.6550  140.5210 O   0  0  0  0  0  0  0  0  0  0  0  0
  193.9320  174.7270  141.2080 C   0  0  0  0  0  3  0  0  0  0  0  0
  189.8180  174.5850  144.4920 C   0  0  2  0  0  3  0  0  0  0  0  0
  190.1720  176.7120  145.6140 O   0  0  0  0  0  1  0  0  0  0  0  0
  189.3020  174.9220  146.9400 C   0  0  0  0  0  1  0  0  0  0  0  0
  189.3550  175.5790  145.5730 C   0  0  2  0  0  3  0  0  0  0  0  0
  188.8250  174.2900  143.5240 O   0  0  0  0  0  0  0  0  0  0  0  0
  188.7170  175.3670  142.6250 C   0  0  0  0  0  2  0  0  0  0  0  0
  188.4970  173.7150  139.1770 C   0  0  0  0  0  1  0  0  0  0  0  0
  188.2150  174.8810  141.3060 C   0  0  0  0  0  3  0  0  0  0  0  0
  189.0120  174.1970  140.4930 C   0  0  0  0  0  3  0  0  0  0  0  0
  191.9430  170.5170  143.1210 C   0  0  0  0  0  2  0  0  0  0  0  0
  193.4690  170.1640  142.1870 S   0  0  0  0  0  0  0  0  0  0  0  0
  193.7160  169.7970  144.9390 C   0  0  0  0  0  2  0  0  0  0  0  0
  194.5410  169.9480  143.6520 C   0  0  0  0  0  3  0  0  0  0  0  0
  195.6230  171.0430  143.7060 C   0  0  0  0  0  2  0  0  0  0  0  0
  196.4780  170.7310  146.0990 C   0  0  0  0  0  2  0  0  0  0  0  0
  196.0040  169.2770  146.0210 C   0  0  0  0  0  2  0  0  0  0  0  0
  195.8080  171.6700  145.0920 C   0  0  0  0  0  2  0  0  0  0  0  0
  194.4790  169.1140  146.0820 C   0  0  0  0  0  2  0  0  0  0  0  0
  1 10  1  0  0  0  0
  2 15  1  0  0  0  0
  3 14  1  0  0  0  0
  4  1  1  6  0  0  0
  4 13  1  0  0  0  0
  5  3  1  1  0  0  0
  5  8  1  0  0  0  0
  6  4  1  0  0  0  0
  6 29  1  0  0  0  0
  6 12  1  0  0  0  0
  8 11  1  1  0  0  0
 10  7  1  6  0  0  0
 10  5  1  0  0  0  0
 11  9  1  0  0  0  0
 12  2  1  0  0  0  0
 13  8  1  0  0  0  0
 13 15  1  0  0  0  0
 14  9  1  0  0  0  0
 16 17  1  0  0  0  0
 17 14  1  0  0  0  0
 18 19  2  0  0  0  0
 19 10  1  0  0  0  0
 20 15  1  0  0  0  0
 20 23  1  0  0  0  0
 23 21  1  0  0  0  0
 23 22  1  0  0  0  0
 24 20  1  0  0  0  0
 25 24  1  0  0  0  0
 26 28  1  0  0  0  0
 27 25  1  0  0  0  0
 28 27  2  0  0  0  0
 30 29  1  0  0  0  0
 30 32  1  0  0  0  0
 31 37  1  0  0  0  0
 32 33  1  0  0  0  0
 32 31  1  0  0  0  0
 33 36  1  0  0  0  0
 35 37  1  0  0  0  0
 35 34  1  0  0  0  0
 36 34  1  0  0  0  0
M  END
>  <MODEL>
8

>  <REMARK>
 VINA RESULT:      -5.5      2.115      6.714
  Name = 
  10 active torsions:
  status: ('A' for Active; 'I' for Inactive)
    1  A    between atoms: C_1  and  C_23
    2  A    between atoms: C_1  and  O_33
    3  A    between atoms: C_1  and  C_36
    4  A    between atoms: C_6  and  S_31
    5  A    between atoms: N_14  and  C_37
    6  A    between atoms: C_17  and  C_26
    7  A    between atoms: C_17  and  O_33
    8  A    between atoms: C_24  and  C_28
    9  A    between atoms: O_30  and  C_32
   10  A    between atoms: S_31  and  C_37
                            x       y       z     vdW  Elec       q    Type
                         _______ _______ _______ _____ _____    ______ ____

>  <TORSDO>
F 10

$$$$
=
 OpenBabel11052420023D

 37 40  0  0  1  0  0  0  0  0999 V2000
  192.2040  174.7420  142.7940 O   0  0  0  0  0  0  0  0  0  0  0  0
  193.2330  174.9480  146.3470 C   0  0  0  0  0  2  0  0  0  0  0  0
  192.5880  171.1780  141.3580 C   0  0  0  0  0  2  0  0  0  0  0  0
  191.6550  174.2750  144.0030 C   0  0  2  0  0  3  0  0  0  0  0  0
  192.1970  172.2690  142.3640 C   0  0  1  0  0  3  0  0  0  0  0  0
  191.2570  175.3860  144.8800 N   0  0  0  0  0  0  0  0  0  0  0  0
  193.3870  173.9460  140.8950 C   0  0  0  0  0  1  0  0  0  0  0  0
  193.0180  172.1680  143.6570 C   0  0  2  0  0  3  0  0  0  0  0  0
  193.2900  169.7090  143.2810 C   0  0  0  0  0  2  0  0  0  0  0  0
  192.1750  173.7230  141.7940 C   0  0  2  0  0  0  0  0  0  0  0  0
  192.8630  170.7850  144.2770 C   0  0  0  0  0  2  0  0  0  0  0  0
  192.3980  175.9850  145.5870 C   0  0  0  0  0  2  0  0  0  0  0  0
  192.5970  173.2440  144.6640 C   0  0  1  0  0  3  0  0  0  0  0  0
  192.4700  169.7890  141.9900 C   0  0  1  0  0  3  0  0  0  0  0  0
  193.7920  173.9060  145.3810 C   0  0  1  0  0  3  0  0  0  0  0  0
  190.8170  168.4740  141.3300 C   0  0  0  0  0  1  0  0  0  0  0  0
  191.1310  169.4820  142.2450 O   0  0  0  0  0  0  0  0  0  0  0  0
  189.9000  173.3130  141.2650 O   0  0  0  0  0  0  0  0  0  0  0  0
  190.9360  173.8850  140.9650 C   0  0  0  0  0  3  0  0  0  0  0  0
  194.8500  174.5310  144.4280 C   0  0  2  0  0  3  0  0  0  0  0  0
  196.4410  172.9040  143.5730 O   0  0  0  0  0  1  0  0  0  0  0  0
  196.5330  173.3800  145.9150 C   0  0  0  0  0  1  0  0  0  0  0  0
  196.2570  173.9140  144.5210 C   0  0  2  0  0  3  0  0  0  0  0  0
  194.8470  175.9490  144.3950 O   0  0  0  0  0  0  0  0  0  0  0  0
  196.0120  176.4010  143.7500 C   0  0  0  0  0  2  0  0  0  0  0  0
  196.6640  175.6790  140.0450 C   0  0  0  0  0  1  0  0  0  0  0  0
  195.8530  176.2830  142.2700 C   0  0  0  0  0  3  0  0  0  0  0  0
  196.8360  175.7930  141.5240 C   0  0  0  0  0  3  0  0  0  0  0  0
  190.2910  174.8920  145.8540 C   0  0  0  0  0  2  0  0  0  0  0  0
  189.6780  176.2710  146.8780 S   0  0  0  0  0  0  0  0  0  0  0  0
  188.3150  177.5840  144.8320 C   0  0  0  0  0  2  0  0  0  0  0  0
  188.1340  176.5320  145.9360 C   0  0  0  0  0  3  0  0  0  0  0  0
  186.9490  176.7930  146.8860 C   0  0  0  0  0  2  0  0  0  0  0  0
  185.2020  177.6490  145.2230 C   0  0  0  0  0  2  0  0  0  0  0  0
  185.9350  176.8640  144.1310 C   0  0  0  0  0  2  0  0  0  0  0  0
  186.0510  177.9580  146.4590 C   0  0  0  0  0  2  0  0  0  0  0  0
  187.2730  177.4830  143.7090 C   0  0  0  0  0  2  0  0  0  0  0  0
  3 14  1  0  0  0  0
  4  1  1  6  0  0  0
  4 13  1  0  0  0  0
  4  6  1  0  0  0  0
  5  3  1  6  0  0  0
  5  8  1  0  0  0  0
  6 12  1  0  0  0  0
  6 29  1  0  0  0  0
  8 11  1  1  0  0  0
  8 13  1  0  0  0  0
  9 11  1  0  0  0  0
 10  7  1  6  0  0  0
 10  5  1  0  0  0  0
 10  1  1  0  0  0  0
 12  2  1  0  0  0  0
 13 15  1  0  0  0  0
 14 17  1  0  0  0  0
 14  9  1  0  0  0  0
 15  2  1  0  0  0  0
 16 17  1  0  0  0  0
 19 18  2  0  0  0  0
 19 10  1  0  0  0  0
 20 23  1  0  0  0  0
 20 15  1  0  0  0  0
 21 23  1  0  0  0  0
 23 22  1  0  0  0  0
 24 20  1  0  0  0  0
 25 24  1  0  0  0  0
 26 28  1  0  0  0  0
 27 25  1  0  0  0  0
 28 27  2  0  0  0  0
 29 30  1  0  0  0  0
 31 32  1  0  0  0  0
 32 30  1  0  0  0  0
 32 33  1  0  0  0  0
 34 36  1  0  0  0  0
 35 34  1  0  0  0  0
 36 33  1  0  0  0  0
 37 35  1  0  0  0  0
 37 31  1  0  0  0  0
M  END
>  <MODEL>
9

>  <REMARK>
 VINA RESULT:      -5.4      2.530      5.798
  Name = 
  10 active torsions:
  status: ('A' for Active; 'I' for Inactive)
    1  A    between atoms: C_1  and  C_23
    2  A    between atoms: C_1  and  O_33
    3  A    between atoms: C_1  and  C_36
    4  A    between atoms: C_6  and  S_31
    5  A    between atoms: N_14  and  C_37
    6  A    between atoms: C_17  and  C_26
    7  A    between atoms: C_17  and  O_33
    8  A    between atoms: C_24  and  C_28
    9  A    between atoms: O_30  and  C_32
   10  A    between atoms: S_31  and  C_37
                            x       y       z     vdW  Elec       q    Type
                         _______ _______ _______ _____ _____    ______ ____

>  <TORSDO>
F 10

$$$$
