=
 OpenBabel11052419233D

 32 34  0  0  1  0  0  0  0  0999 V2000
  191.7290  175.4120  144.4470 O   0  0  0  0  0  0  0  0  0  0  0  0
  192.0550  176.4540  143.5760 C   0  0  0  0  0  2  0  0  0  0  0  0
  190.8450  177.3440  143.3190 C   0  0  2  0  0  3  0  0  0  0  0  0
  191.0280  178.6120  143.8790 O   0  0  0  0  0  1  0  0  0  0  0  0
  189.5260  176.7040  143.7700 C   0  0  2  0  0  3  0  0  0  0  0  0
  188.9140  176.0430  142.7040 O   0  0  0  0  0  1  0  0  0  0  0  0
  188.5480  177.6590  144.4700 C   0  0  0  0  0  2  0  0  0  0  0  0
  187.1070  177.1560  144.4880 C   0  0  2  0  0  3  0  0  0  0  0  0
  186.1740  178.2770  144.0460 C   0  0  1  0  0  3  0  0  0  0  0  0
  186.2870  178.4940  142.5510 C   0  0  0  0  0  2  0  0  0  0  0  0
  185.1170  177.7160  143.1130 C   0  0  2  0  0  3  0  0  0  0  0  0
  183.9930  178.5400  143.1540 O   0  0  0  0  0  1  0  0  0  0  0  0
  186.7410  176.7080  145.8950 C   0  0  0  0  0  2  0  0  0  0  0  0
  187.1340  177.7670  146.9110 C   0  0  0  0  0  2  0  0  0  0  0  0
  184.8420  178.3050  147.3030 O   0  0  0  0  0  1  0  0  0  0  0  0
  186.0310  177.9430  147.9370 C   0  0  0  0  0  2  0  0  0  0  0  0
  192.6970  175.4590  145.4560 C   0  0  2  0  0  3  0  0  0  0  0  0
  193.9300  174.6510  145.0550 C   0  0  1  0  0  3  0  0  0  0  0  0
  195.2550  175.3600  145.4800 C   0  0  0  0  0  2  0  0  0  0  0  0
  196.4990  170.9660  145.8470 C   0  0  0  0  0  0  0  0  0  0  0  0
  193.8100  173.1980  145.5700 C   0  0  0  0  0  2  0  0  0  0  0  0
  197.1990  172.1630  145.9540 O   0  0  0  0  0  0  0  0  0  0  0  0
  196.2120  173.1700  145.9570 C   0  0  1  0  0  3  0  0  0  0  0  0
  196.5110  174.4860  145.2810 C   0  0  0  0  0  2  0  0  0  0  0  0
  195.2540  171.1060  145.5130 N   0  0  0  0  0  0  0  0  0  0  0  0
  197.1060  169.6400  146.1370 C   0  0  0  0  0  1  0  0  0  0  0  0
  195.1030  172.5140  145.1960 C   0  0  1  0  0  3  0  0  0  0  0  0
  192.1210  174.9260  146.7660 C   0  0  0  0  0  2  0  0  0  0  0  0
  190.8870  175.6690  147.1700 C   0  0  0  0  0  0  0  0  0  0  0  0
  190.9410  176.9790  147.4180 C   0  0  0  0  0  2  0  0  0  0  0  0
  189.5040  173.8490  146.2120 C   0  0  0  0  0  1  0  0  0  0  0  0
  189.5900  174.9340  147.2700 C   0  0  0  0  0  2  0  0  0  0  0  0
  1 17  1  0  0  0  0
  2  1  1  0  0  0  0
  3  2  1  0  0  0  0
  3  5  1  0  0  0  0
  3  4  1  1  0  0  0
  5  6  1  6  0  0  0
  5  7  1  0  0  0  0
  8  7  1  1  0  0  0
  8 13  1  0  0  0  0
  9  8  1  6  0  0  0
 10 11  1  0  0  0  0
 10  9  1  0  0  0  0
 11 12  1  1  0  0  0
 11  9  1  0  0  0  0
 13 14  1  0  0  0  0
 14 16  1  0  0  0  0
 15 16  1  0  0  0  0
 17 28  1  1  0  0  0
 18 17  1  1  0  0  0
 18 19  1  0  0  0  0
 18 21  1  0  0  0  0
 20 22  1  0  0  0  0
 20 26  1  0  0  0  0
 22 23  1  0  0  0  0
 23 24  1  6  0  0  0
 24 19  1  0  0  0  0
 25 20  2  0  0  0  0
 27 25  1  0  0  0  0
 27 21  1  1  0  0  0
 27 23  1  0  0  0  0
 28 29  1  0  0  0  0
 29 32  1  0  0  0  0
 29 30  2  0  0  0  0
 31 32  1  0  0  0  0
M  END
>  <MODEL>
1

>  <REMARK>
 VINA RESULT:      -6.2      0.000      0.000
  Name = 
  14 active torsions:
  status: ('A' for Active; 'I' for Inactive)
    1  A    between atoms: C_1  and  C_4
    2  A    between atoms: C_1  and  O_5
    3  A    between atoms: C_2  and  C_14
    4  A    between atoms: C_3  and  C_20
    5  A    between atoms: C_4  and  C_24
    6  A    between atoms: O_5  and  C_14
    7  A    between atoms: C_13  and  C_29
    8  A    between atoms: C_13  and  C_30
    9  A    between atoms: C_14  and  C_30
   10  A    between atoms: C_15  and  C_20
   11  A    between atoms: C_15  and  C_26
   12  A    between atoms: C_16  and  C_20
   13  A    between atoms: C_16  and  C_24
   14  A    between atoms: C_19  and  C_26
                            x       y       z     vdW  Elec       q    Type
                         _______ _______ _______ _____ _____    ______ ____

>  <TORSDO>
F 14

$$$$
=
 OpenBabel11052419233D

 32 34  0  0  1  0  0  0  0  0999 V2000
  188.5450  177.5590  143.4850 O   0  0  0  0  0  0  0  0  0  0  0  0
  187.6690  176.6560  142.8760 C   0  0  0  0  0  2  0  0  0  0  0  0
  188.3130  176.0190  141.6510 C   0  0  2  0  0  3  0  0  0  0  0  0
  187.5320  176.2270  140.5100 O   0  0  0  0  0  1  0  0  0  0  0  0
  188.6470  174.5360  141.8540 C   0  0  2  0  0  3  0  0  0  0  0  0
  187.4790  173.7930  142.0370 O   0  0  0  0  0  1  0  0  0  0  0  0
  189.6700  174.2490  142.9630 C   0  0  0  0  0  2  0  0  0  0  0  0
  190.9570  173.6040  142.4560 C   0  0  2  0  0  3  0  0  0  0  0  0
  191.6830  172.9420  143.6210 C   0  0  1  0  0  3  0  0  0  0  0  0
  190.7200  172.0920  144.4240 C   0  0  0  0  0  2  0  0  0  0  0  0
  191.6620  171.4360  143.4390 C   0  0  2  0  0  3  0  0  0  0  0  0
  192.7370  170.8800  144.1300 O   0  0  0  0  0  1  0  0  0  0  0  0
  191.8490  174.6670  141.8320 C   0  0  0  0  0  2  0  0  0  0  0  0
  193.1270  174.8290  142.6360 C   0  0  0  0  0  2  0  0  0  0  0  0
  195.0750  176.1860  142.8830 O   0  0  0  0  0  1  0  0  0  0  0  0
  193.8450  176.1010  142.2280 C   0  0  0  0  0  2  0  0  0  0  0  0
  188.1080  177.6580  144.8100 C   0  0  2  0  0  3  0  0  0  0  0  0
  189.1910  177.1680  145.7700 C   0  0  1  0  0  3  0  0  0  0  0  0
  188.8620  175.7550  146.3470 C   0  0  0  0  0  2  0  0  0  0  0  0
  193.4390  175.5730  146.2350 C   0  0  0  0  0  0  0  0  0  0  0  0
  190.5820  177.2590  145.1020 C   0  0  0  0  0  2  0  0  0  0  0  0
  192.4670  174.7160  146.7410 O   0  0  0  0  0  0  0  0  0  0  0  0
  191.2410  175.2280  146.2680 C   0  0  1  0  0  3  0  0  0  0  0  0
  190.0220  175.1350  147.1550 C   0  0  0  0  0  2  0  0  0  0  0  0
  192.9720  176.6810  145.7500 N   0  0  0  0  0  0  0  0  0  0  0  0
  194.8860  175.2330  146.2040 C   0  0  0  0  0  1  0  0  0  0  0  0
  191.5620  176.6800  146.0940 C   0  0  1  0  0  3  0  0  0  0  0  0
  186.8260  176.8510  145.0060 C   0  0  0  0  0  2  0  0  0  0  0  0
  185.7730  177.6490  145.7070 C   0  0  0  0  0  0  0  0  0  0  0  0
  184.8950  177.0470  146.5110 C   0  0  0  0  0  2  0  0  0  0  0  0
  184.7840  179.4990  144.3870 C   0  0  0  0  0  1  0  0  0  0  0  0
  185.7290  179.1310  145.5160 C   0  0  0  0  0  2  0  0  0  0  0  0
  1 17  1  0  0  0  0
  2  1  1  0  0  0  0
  3  4  1  6  0  0  0
  3  5  1  0  0  0  0
  3  2  1  0  0  0  0
  5  6  1  1  0  0  0
  5  7  1  0  0  0  0
  8 13  1  1  0  0  0
  8  7  1  0  0  0  0
  9  8  1  6  0  0  0
  9 10  1  0  0  0  0
 11  9  1  0  0  0  0
 11 12  1  1  0  0  0
 11 10  1  0  0  0  0
 13 14  1  0  0  0  0
 16 14  1  0  0  0  0
 16 15  1  0  0  0  0
 17 28  1  6  0  0  0
 18 17  1  6  0  0  0
 18 19  1  0  0  0  0
 19 24  1  0  0  0  0
 20 22  1  0  0  0  0
 21 18  1  0  0  0  0
 23 22  1  0  0  0  0
 23 24  1  1  0  0  0
 25 27  1  0  0  0  0
 25 20  2  0  0  0  0
 26 20  1  0  0  0  0
 27 21  1  6  0  0  0
 27 23  1  0  0  0  0
 28 29  1  0  0  0  0
 29 30  2  0  0  0  0
 31 32  1  0  0  0  0
 32 29  1  0  0  0  0
M  END
>  <MODEL>
2

>  <REMARK>
 VINA RESULT:      -6.0      2.825      6.559
  Name = 
  14 active torsions:
  status: ('A' for Active; 'I' for Inactive)
    1  A    between atoms: C_1  and  C_4
    2  A    between atoms: C_1  and  O_5
    3  A    between atoms: C_2  and  C_14
    4  A    between atoms: C_3  and  C_20
    5  A    between atoms: C_4  and  C_24
    6  A    between atoms: O_5  and  C_14
    7  A    between atoms: C_13  and  C_29
    8  A    between atoms: C_13  and  C_30
    9  A    between atoms: C_14  and  C_30
   10  A    between atoms: C_15  and  C_20
   11  A    between atoms: C_15  and  C_26
   12  A    between atoms: C_16  and  C_20
   13  A    between atoms: C_16  and  C_24
   14  A    between atoms: C_19  and  C_26
                            x       y       z     vdW  Elec       q    Type
                         _______ _______ _______ _____ _____    ______ ____

>  <TORSDO>
F 14

$$$$
=
 OpenBabel11052419233D

 32 34  0  0  1  0  0  0  0  0999 V2000
  190.6250  175.3470  146.3140 O   0  0  0  0  0  0  0  0  0  0  0  0
  190.5810  176.7440  146.2830 C   0  0  0  0  0  2  0  0  0  0  0  0
  189.7510  177.2330  145.1020 C   0  0  2  0  0  3  0  0  0  0  0  0
  190.3570  178.3310  144.4850 O   0  0  0  0  0  1  0  0  0  0  0  0
  188.2910  177.5200  145.4760 C   0  0  2  0  0  3  0  0  0  0  0  0
  188.1010  177.3730  146.8510 O   0  0  0  0  0  1  0  0  0  0  0  0
  187.2490  176.7200  144.6810 C   0  0  0  0  0  2  0  0  0  0  0  0
  186.4410  177.5680  143.7030 C   0  0  2  0  0  3  0  0  0  0  0  0
  187.2460  177.7710  142.4250 C   0  0  1  0  0  3  0  0  0  0  0  0
  187.7160  176.4360  141.8840 C   0  0  0  0  0  2  0  0  0  0  0  0
  186.5190  177.1220  141.2620 C   0  0  2  0  0  3  0  0  0  0  0  0
  186.9090  177.7450  140.0780 O   0  0  0  0  0  1  0  0  0  0  0  0
  186.1310  178.9170  144.3340 C   0  0  0  0  0  2  0  0  0  0  0  0
  184.6800  178.9760  144.7800 C   0  0  0  0  0  2  0  0  0  0  0  0
  184.3560  177.4590  146.5930 O   0  0  0  0  0  1  0  0  0  0  0  0
  184.5860  178.8000  146.2830 C   0  0  0  0  0  2  0  0  0  0  0  0
  191.6750  174.9930  145.4610 C   0  0  2  0  0  3  0  0  0  0  0  0
  191.2130  173.9520  144.4430 C   0  0  1  0  0  3  0  0  0  0  0  0
  190.0290  173.0910  144.9870 C   0  0  0  0  0  2  0  0  0  0  0  0
  189.0310  173.1620  140.5160 C   0  0  0  0  0  0  0  0  0  0  0  0
  190.9190  174.6240  143.0820 C   0  0  0  0  0  2  0  0  0  0  0  0
  188.4810  172.4870  141.6010 O   0  0  0  0  0  0  0  0  0  0  0  0
  189.0900  173.0570  142.7380 C   0  0  1  0  0  3  0  0  0  0  0  0
  189.3960  172.1710  143.9210 C   0  0  0  0  0  2  0  0  0  0  0  0
  190.0790  173.8680  140.8050 N   0  0  0  0  0  0  0  0  0  0  0  0
  188.4450  173.1210  139.1510 C   0  0  0  0  0  1  0  0  0  0  0  0
  190.3950  173.5330  142.1810 C   0  0  1  0  0  3  0  0  0  0  0  0
  192.8530  174.4530  146.2700 C   0  0  0  0  0  2  0  0  0  0  0  0
  194.1380  175.1130  145.8820 C   0  0  0  0  0  0  0  0  0  0  0  0
  194.3910  176.3680  146.2580 C   0  0  0  0  0  2  0  0  0  0  0  0
  196.4060  174.1120  145.9050 C   0  0  0  0  0  1  0  0  0  0  0  0
  195.1460  174.3430  145.0900 C   0  0  0  0  0  2  0  0  0  0  0  0
  2  1  1  0  0  0  0
  3  4  1  1  0  0  0
  3  5  1  0  0  0  0
  3  2  1  0  0  0  0
  5  6  1  1  0  0  0
  7  5  1  0  0  0  0
  8 13  1  1  0  0  0
  8  7  1  0  0  0  0
  9  8  1  1  0  0  0
 10  9  1  0  0  0  0
 11 12  1  6  0  0  0
 11 10  1  0  0  0  0
 11  9  1  0  0  0  0
 13 14  1  0  0  0  0
 14 16  1  0  0  0  0
 16 15  1  0  0  0  0
 17 28  1  1  0  0  0
 17  1  1  0  0  0  0
 18 19  1  0  0  0  0
 18 17  1  1  0  0  0
 20 25  2  0  0  0  0
 20 22  1  0  0  0  0
 21 18  1  0  0  0  0
 22 23  1  0  0  0  0
 23 24  1  1  0  0  0
 24 19  1  0  0  0  0
 25 27  1  0  0  0  0
 26 20  1  0  0  0  0
 27 23  1  0  0  0  0
 27 21  1  1  0  0  0
 29 30  2  0  0  0  0
 29 28  1  0  0  0  0
 32 29  1  0  0  0  0
 32 31  1  0  0  0  0
M  END
>  <MODEL>
3

>  <REMARK>
 VINA RESULT:      -6.0      2.754      5.023
  Name = 
  14 active torsions:
  status: ('A' for Active; 'I' for Inactive)
    1  A    between atoms: C_1  and  C_4
    2  A    between atoms: C_1  and  O_5
    3  A    between atoms: C_2  and  C_14
    4  A    between atoms: C_3  and  C_20
    5  A    between atoms: C_4  and  C_24
    6  A    between atoms: O_5  and  C_14
    7  A    between atoms: C_13  and  C_29
    8  A    between atoms: C_13  and  C_30
    9  A    between atoms: C_14  and  C_30
   10  A    between atoms: C_15  and  C_20
   11  A    between atoms: C_15  and  C_26
   12  A    between atoms: C_16  and  C_20
   13  A    between atoms: C_16  and  C_24
   14  A    between atoms: C_19  and  C_26
                            x       y       z     vdW  Elec       q    Type
                         _______ _______ _______ _____ _____    ______ ____

>  <TORSDO>
F 14

$$$$
=
 OpenBabel11052419233D

 32 34  0  0  1  0  0  0  0  0999 V2000
  190.3240  175.4050  146.5580 O   0  0  0  0  0  0  0  0  0  0  0  0
  189.8390  176.6530  146.1600 C   0  0  0  0  0  2  0  0  0  0  0  0
  188.3260  176.7230  146.3230 C   0  0  2  0  0  3  0  0  0  0  0  0
  187.8660  175.7130  147.1720 O   0  0  0  0  0  1  0  0  0  0  0  0
  187.5800  176.7280  144.9820 C   0  0  2  0  0  3  0  0  0  0  0  0
  188.1890  175.8530  144.0820 O   0  0  0  0  0  1  0  0  0  0  0  0
  187.3770  178.1170  144.3590 C   0  0  0  0  0  2  0  0  0  0  0  0
  185.9370  178.3940  143.9380 C   0  0  2  0  0  3  0  0  0  0  0  0
  185.9190  178.9010  142.5010 C   0  0  1  0  0  3  0  0  0  0  0  0
  186.7020  177.9630  141.6040 C   0  0  0  0  0  2  0  0  0  0  0  0
  185.1900  177.9020  141.6220 C   0  0  2  0  0  3  0  0  0  0  0  0
  184.6900  178.5640  140.5020 O   0  0  0  0  0  1  0  0  0  0  0  0
  185.3280  179.4410  144.8590 C   0  0  0  0  0  2  0  0  0  0  0  0
  184.0610  178.9100  145.5050 C   0  0  0  0  0  2  0  0  0  0  0  0
  185.3110  178.6220  147.5170 O   0  0  0  0  0  1  0  0  0  0  0  0
  184.4070  177.9920  146.6620 C   0  0  0  0  0  2  0  0  0  0  0  0
  191.4630  175.1860  145.7750 C   0  0  2  0  0  3  0  0  0  0  0  0
  191.2590  173.9840  144.8540 C   0  0  1  0  0  3  0  0  0  0  0  0
  189.9540  173.2000  145.2000 C   0  0  0  0  0  2  0  0  0  0  0  0
  190.1630  172.5240  140.6740 C   0  0  0  0  0  0  0  0  0  0  0  0
  191.3470  174.4210  143.3730 C   0  0  0  0  0  2  0  0  0  0  0  0
  189.3320  172.0240  141.6710 O   0  0  0  0  0  0  0  0  0  0  0  0
  189.6360  172.7820  142.8200 C   0  0  1  0  0  3  0  0  0  0  0  0
  189.6010  172.1070  144.1690 C   0  0  0  0  0  2  0  0  0  0  0  0
  191.1150  173.2890  141.1090 N   0  0  0  0  0  0  0  0  0  0  0  0
  189.9540  172.2500  139.2280 C   0  0  0  0  0  1  0  0  0  0  0  0
  191.0520  173.1870  142.5550 C   0  0  1  0  0  3  0  0  0  0  0  0
  192.6820  174.9640  146.6670 C   0  0  0  0  0  2  0  0  0  0  0  0
  193.9010  175.6320  146.1130 C   0  0  0  0  0  0  0  0  0  0  0  0
  193.8860  176.9370  145.8340 C   0  0  0  0  0  2  0  0  0  0  0  0
  194.7980  173.4160  145.4600 C   0  0  0  0  0  1  0  0  0  0  0  0
  195.1430  174.8280  145.8990 C   0  0  0  0  0  2  0  0  0  0  0  0
  2  3  1  0  0  0  0
  2  1  1  0  0  0  0
  3  4  1  1  0  0  0
  5  6  1  6  0  0  0
  5  3  1  0  0  0  0
  7  5  1  0  0  0  0
  8  7  1  1  0  0  0
  8 13  1  0  0  0  0
  9  8  1  1  0  0  0
 10 11  1  0  0  0  0
 10  9  1  0  0  0  0
 11 12  1  6  0  0  0
 11  9  1  0  0  0  0
 13 14  1  0  0  0  0
 14 16  1  0  0  0  0
 16 15  1  0  0  0  0
 17  1  1  0  0  0  0
 17 28  1  1  0  0  0
 18 19  1  0  0  0  0
 18 17  1  1  0  0  0
 20 25  2  0  0  0  0
 20 22  1  0  0  0  0
 21 18  1  0  0  0  0
 22 23  1  0  0  0  0
 23 24  1  1  0  0  0
 24 19  1  0  0  0  0
 25 27  1  0  0  0  0
 26 20  1  0  0  0  0
 27 23  1  0  0  0  0
 27 21  1  1  0  0  0
 29 28  1  0  0  0  0
 30 29  2  0  0  0  0
 31 32  1  0  0  0  0
 32 29  1  0  0  0  0
M  END
>  <MODEL>
4

>  <REMARK>
 VINA RESULT:      -6.0      2.722      4.622
  Name = 
  14 active torsions:
  status: ('A' for Active; 'I' for Inactive)
    1  A    between atoms: C_1  and  C_4
    2  A    between atoms: C_1  and  O_5
    3  A    between atoms: C_2  and  C_14
    4  A    between atoms: C_3  and  C_20
    5  A    between atoms: C_4  and  C_24
    6  A    between atoms: O_5  and  C_14
    7  A    between atoms: C_13  and  C_29
    8  A    between atoms: C_13  and  C_30
    9  A    between atoms: C_14  and  C_30
   10  A    between atoms: C_15  and  C_20
   11  A    between atoms: C_15  and  C_26
   12  A    between atoms: C_16  and  C_20
   13  A    between atoms: C_16  and  C_24
   14  A    between atoms: C_19  and  C_26
                            x       y       z     vdW  Elec       q    Type
                         _______ _______ _______ _____ _____    ______ ____

>  <TORSDO>
F 14

$$$$
=
 OpenBabel11052419233D

 32 34  0  0  1  0  0  0  0  0999 V2000
  189.8430  174.4850  142.9990 O   0  0  0  0  0  0  0  0  0  0  0  0
  189.7020  175.1220  141.7640 C   0  0  0  0  0  2  0  0  0  0  0  0
  188.2320  175.2350  141.3770 C   0  0  2  0  0  3  0  0  0  0  0  0
  188.0570  175.0220  140.0070 O   0  0  0  0  0  1  0  0  0  0  0  0
  187.5920  176.5500  141.8390 C   0  0  2  0  0  3  0  0  0  0  0  0
  188.5540  177.5570  141.9250 O   0  0  0  0  0  1  0  0  0  0  0  0
  186.7710  176.4520  143.1330 C   0  0  0  0  0  2  0  0  0  0  0  0
  186.2540  177.7970  143.6340 C   0  0  2  0  0  3  0  0  0  0  0  0
  185.3490  177.5730  144.8400 C   0  0  1  0  0  3  0  0  0  0  0  0
  186.0900  176.8040  145.9160 C   0  0  0  0  0  2  0  0  0  0  0  0
  185.9200  178.3030  146.0420 C   0  0  2  0  0  3  0  0  0  0  0  0
  184.8890  178.5750  146.9390 O   0  0  0  0  0  1  0  0  0  0  0  0
  185.4720  178.4880  142.5270 C   0  0  0  0  0  2  0  0  0  0  0  0
  183.9830  178.2370  142.6900 C   0  0  0  0  0  2  0  0  0  0  0  0
  184.2430  178.4330  140.3260 O   0  0  0  0  0  1  0  0  0  0  0  0
  183.3060  178.2010  141.3330 C   0  0  0  0  0  2  0  0  0  0  0  0
  190.5590  175.3830  143.7980 C   0  0  2  0  0  3  0  0  0  0  0  0
  192.0610  175.1460  143.6590 C   0  0  1  0  0  3  0  0  0  0  0  0
  192.8800  176.4610  143.8580 C   0  0  0  0  0  2  0  0  0  0  0  0
  195.8310  173.3750  145.5180 C   0  0  0  0  0  0  0  0  0  0  0  0
  192.5100  173.9890  144.5810 C   0  0  0  0  0  2  0  0  0  0  0  0
  195.9260  174.7400  145.2680 O   0  0  0  0  0  0  0  0  0  0  0  0
  194.6110  175.1520  144.9680 C   0  0  1  0  0  3  0  0  0  0  0  0
  194.4040  176.2320  143.9330 C   0  0  0  0  0  2  0  0  0  0  0  0
  194.7060  172.8440  145.1540 N   0  0  0  0  0  0  0  0  0  0  0  0
  196.9040  172.5960  146.1910 C   0  0  0  0  0  1  0  0  0  0  0  0
  194.0090  173.8920  144.4320 C   0  0  1  0  0  3  0  0  0  0  0  0
  190.1360  175.2430  145.2580 C   0  0  0  0  0  2  0  0  0  0  0  0
  190.0720  176.5710  145.9450 C   0  0  0  0  0  0  0  0  0  0  0  0
  189.6090  177.6420  145.2990 C   0  0  0  0  0  2  0  0  0  0  0  0
  191.9800  176.3150  147.5070 C   0  0  0  0  0  1  0  0  0  0  0  0
  190.5130  176.6790  147.3700 C   0  0  0  0  0  2  0  0  0  0  0  0
  1 17  1  0  0  0  0
  2  1  1  0  0  0  0
  3  4  1  6  0  0  0
  3  2  1  0  0  0  0
  3  5  1  0  0  0  0
  5  6  1  1  0  0  0
  5  7  1  0  0  0  0
  7  8  1  0  0  0  0
  8 13  1  6  0  0  0
  9  8  1  6  0  0  0
  9 10  1  0  0  0  0
  9 11  1  0  0  0  0
 10 11  1  0  0  0  0
 11 12  1  1  0  0  0
 13 14  1  0  0  0  0
 15 16  1  0  0  0  0
 16 14  1  0  0  0  0
 17 28  1  1  0  0  0
 18 17  1  1  0  0  0
 18 19  1  0  0  0  0
 18 21  1  0  0  0  0
 19 24  1  0  0  0  0
 20 26  1  0  0  0  0
 22 20  1  0  0  0  0
 23 24  1  6  0  0  0
 23 22  1  0  0  0  0
 25 20  2  0  0  0  0
 27 21  1  1  0  0  0
 27 23  1  0  0  0  0
 27 25  1  0  0  0  0
 28 29  1  0  0  0  0
 29 32  1  0  0  0  0
 30 29  2  0  0  0  0
 32 31  1  0  0  0  0
M  END
>  <MODEL>
5

>  <REMARK>
 VINA RESULT:      -5.9      1.762      3.446
  Name = 
  14 active torsions:
  status: ('A' for Active; 'I' for Inactive)
    1  A    between atoms: C_1  and  C_4
    2  A    between atoms: C_1  and  O_5
    3  A    between atoms: C_2  and  C_14
    4  A    between atoms: C_3  and  C_20
    5  A    between atoms: C_4  and  C_24
    6  A    between atoms: O_5  and  C_14
    7  A    between atoms: C_13  and  C_29
    8  A    between atoms: C_13  and  C_30
    9  A    between atoms: C_14  and  C_30
   10  A    between atoms: C_15  and  C_20
   11  A    between atoms: C_15  and  C_26
   12  A    between atoms: C_16  and  C_20
   13  A    between atoms: C_16  and  C_24
   14  A    between atoms: C_19  and  C_26
                            x       y       z     vdW  Elec       q    Type
                         _______ _______ _______ _____ _____    ______ ____

>  <TORSDO>
F 14

$$$$
=
 OpenBabel11052419233D

 32 34  0  0  1  0  0  0  0  0999 V2000
  188.5050  175.1790  140.9730 O   0  0  0  0  0  0  0  0  0  0  0  0
  187.5190  175.4580  141.9230 C   0  0  0  0  0  2  0  0  0  0  0  0
  186.9410  176.8520  141.7110 C   0  0  2  0  0  3  0  0  0  0  0  0
  187.9480  177.7680  141.3940 O   0  0  0  0  0  1  0  0  0  0  0  0
  186.0830  177.3280  142.8900 C   0  0  2  0  0  3  0  0  0  0  0  0
  184.8870  177.8800  142.4310 O   0  0  0  0  0  1  0  0  0  0  0  0
  186.7950  178.2750  143.8680 C   0  0  0  0  0  2  0  0  0  0  0  0
  186.9840  177.6850  145.2630 C   0  0  2  0  0  3  0  0  0  0  0  0
  188.2810  176.8850  145.3020 C   0  0  1  0  0  3  0  0  0  0  0  0
  189.4310  177.7240  144.7850 C   0  0  0  0  0  2  0  0  0  0  0  0
  189.2460  177.5350  146.2750 C   0  0  2  0  0  3  0  0  0  0  0  0
  190.1460  176.5740  146.7320 O   0  0  0  0  0  1  0  0  0  0  0  0
  185.8100  176.7770  145.5960 C   0  0  0  0  0  2  0  0  0  0  0  0
  184.8350  177.4840  146.5210 C   0  0  0  0  0  2  0  0  0  0  0  0
  185.6480  179.4300  147.6370 O   0  0  0  0  0  1  0  0  0  0  0  0
  185.5660  178.0400  147.7280 C   0  0  0  0  0  2  0  0  0  0  0  0
  189.2080  174.0820  141.4840 C   0  0  2  0  0  3  0  0  0  0  0  0
  189.8020  174.4150  142.8510 C   0  0  1  0  0  3  0  0  0  0  0  0
  189.6980  173.2110  143.8410 C   0  0  0  0  0  2  0  0  0  0  0  0
  193.5850  175.1540  145.2900 C   0  0  0  0  0  0  0  0  0  0  0  0
  191.2380  174.9670  142.6940 C   0  0  0  0  0  2  0  0  0  0  0  0
  192.8100  174.1050  145.7740 O   0  0  0  0  0  0  0  0  0  0  0  0
  191.8620  173.8490  144.7620 C   0  0  1  0  0  3  0  0  0  0  0  0
  190.4670  173.4300  145.1600 C   0  0  0  0  0  2  0  0  0  0  0  0
  193.0840  175.7520  144.2550 N   0  0  0  0  0  0  0  0  0  0  0  0
  194.9000  175.5290  145.8730 C   0  0  0  0  0  1  0  0  0  0  0  0
  191.7580  175.1840  144.0940 C   0  0  1  0  0  3  0  0  0  0  0  0
  190.3150  173.6680  140.5160 C   0  0  0  0  0  2  0  0  0  0  0  0
  190.0360  172.3350  139.8960 C   0  0  0  0  0  0  0  0  0  0  0  0
  189.1340  172.2220  138.9200 C   0  0  0  0  0  2  0  0  0  0  0  0
  191.9340  171.5480  141.2820 C   0  0  0  0  0  1  0  0  0  0  0  0
  190.7960  171.1370  140.3660 C   0  0  0  0  0  2  0  0  0  0  0  0
  1 17  1  0  0  0  0
  1  2  1  0  0  0  0
  3  4  1  1  0  0  0
  3  2  1  0  0  0  0
  3  5  1  0  0  0  0
  5  6  1  6  0  0  0
  5  7  1  0  0  0  0
  8  7  1  6  0  0  0
  8 13  1  0  0  0  0
  9  8  1  1  0  0  0
  9 11  1  0  0  0  0
 10  9  1  0  0  0  0
 10 11  1  0  0  0  0
 11 12  1  6  0  0  0
 13 14  1  0  0  0  0
 14 16  1  0  0  0  0
 15 16  1  0  0  0  0
 17 28  1  6  0  0  0
 18 17  1  6  0  0  0
 18 19  1  0  0  0  0
 19 24  1  0  0  0  0
 20 22  1  0  0  0  0
 20 26  1  0  0  0  0
 21 18  1  0  0  0  0
 23 24  1  1  0  0  0
 23 22  1  0  0  0  0
 25 20  2  0  0  0  0
 27 21  1  6  0  0  0
 27 25  1  0  0  0  0
 27 23  1  0  0  0  0
 29 32  1  0  0  0  0
 29 28  1  0  0  0  0
 30 29  2  0  0  0  0
 32 31  1  0  0  0  0
M  END
>  <MODEL>
6

>  <REMARK>
 VINA RESULT:      -5.8      2.963      5.127
  Name = 
  14 active torsions:
  status: ('A' for Active; 'I' for Inactive)
    1  A    between atoms: C_1  and  C_4
    2  A    between atoms: C_1  and  O_5
    3  A    between atoms: C_2  and  C_14
    4  A    between atoms: C_3  and  C_20
    5  A    between atoms: C_4  and  C_24
    6  A    between atoms: O_5  and  C_14
    7  A    between atoms: C_13  and  C_29
    8  A    between atoms: C_13  and  C_30
    9  A    between atoms: C_14  and  C_30
   10  A    between atoms: C_15  and  C_20
   11  A    between atoms: C_15  and  C_26
   12  A    between atoms: C_16  and  C_20
   13  A    between atoms: C_16  and  C_24
   14  A    between atoms: C_19  and  C_26
                            x       y       z     vdW  Elec       q    Type
                         _______ _______ _______ _____ _____    ______ ____

>  <TORSDO>
F 14

$$$$
=
 OpenBabel11052419233D

 32 34  0  0  1  0  0  0  0  0999 V2000
  187.8960  178.1970  143.1310 O   0  0  0  0  0  0  0  0  0  0  0  0
  186.9120  177.6160  142.3260 C   0  0  0  0  0  2  0  0  0  0  0  0
  187.5400  176.8790  141.1500 C   0  0  2  0  0  3  0  0  0  0  0  0
  186.7000  176.9090  140.0340 O   0  0  0  0  0  1  0  0  0  0  0  0
  187.9740  175.4500  141.5020 C   0  0  2  0  0  3  0  0  0  0  0  0
  187.0660  174.8700  142.3890 O   0  0  0  0  0  1  0  0  0  0  0  0
  189.4160  175.3190  142.0140 C   0  0  0  0  0  2  0  0  0  0  0  0
  190.0310  173.9450  141.7660 C   0  0  2  0  0  3  0  0  0  0  0  0
  191.5360  174.0910  141.5790 C   0  0  1  0  0  3  0  0  0  0  0  0
  192.0590  175.2430  142.4130 C   0  0  0  0  0  2  0  0  0  0  0  0
  192.2380  173.8200  142.8970 C   0  0  2  0  0  3  0  0  0  0  0  0
  193.5440  173.4080  142.6390 O   0  0  0  0  0  1  0  0  0  0  0  0
  189.4160  173.3280  140.5180 C   0  0  0  0  0  2  0  0  0  0  0  0
  190.3820  173.4160  139.3490 C   0  0  0  0  0  2  0  0  0  0  0  0
  190.3350  171.0360  139.5130 O   0  0  0  0  0  1  0  0  0  0  0  0
  190.4290  172.0930  138.6080 C   0  0  0  0  0  2  0  0  0  0  0  0
  187.3550  178.2130  144.4210 C   0  0  2  0  0  3  0  0  0  0  0  0
  188.3050  177.5390  145.4100 C   0  0  1  0  0  3  0  0  0  0  0  0
  187.8370  176.0950  145.7770 C   0  0  0  0  0  2  0  0  0  0  0  0
  192.3830  175.6040  146.0680 C   0  0  0  0  0  0  0  0  0  0  0  0
  189.7590  177.6080  144.8890 C   0  0  0  0  0  2  0  0  0  0  0  0
  191.3160  174.7660  146.3730 O   0  0  0  0  0  0  0  0  0  0  0  0
  190.1760  175.4150  145.8550 C   0  0  1  0  0  3  0  0  0  0  0  0
  188.8720  175.3060  146.6070 C   0  0  0  0  0  2  0  0  0  0  0  0
  192.0330  176.7910  145.6810 N   0  0  0  0  0  0  0  0  0  0  0  0
  193.8030  175.1680  146.1290 C   0  0  0  0  0  1  0  0  0  0  0  0
  190.5980  176.8500  145.8890 C   0  0  1  0  0  3  0  0  0  0  0  0
  185.9990  177.5110  144.4320 C   0  0  0  0  0  2  0  0  0  0  0  0
  184.9680  178.3130  145.1620 C   0  0  0  0  0  0  0  0  0  0  0  0
  184.4580  179.4160  144.6100 C   0  0  0  0  0  2  0  0  0  0  0  0
  185.3790  178.4200  147.6040 C   0  0  0  0  0  1  0  0  0  0  0  0
  184.4990  177.8540  146.5050 C   0  0  0  0  0  2  0  0  0  0  0  0
  1 17  1  0  0  0  0
  2  1  1  0  0  0  0
  3  4  1  6  0  0  0
  3  5  1  0  0  0  0
  3  2  1  0  0  0  0
  5  7  1  0  0  0  0
  5  6  1  1  0  0  0
  8 13  1  6  0  0  0
  8  7  1  0  0  0  0
  9  8  1  1  0  0  0
  9 10  1  0  0  0  0
  9 11  1  0  0  0  0
 10 11  1  0  0  0  0
 11 12  1  6  0  0  0
 14 13  1  0  0  0  0
 16 14  1  0  0  0  0
 16 15  1  0  0  0  0
 17 28  1  6  0  0  0
 18 17  1  6  0  0  0
 18 19  1  0  0  0  0
 19 24  1  0  0  0  0
 20 26  1  0  0  0  0
 20 22  1  0  0  0  0
 21 18  1  0  0  0  0
 23 27  1  0  0  0  0
 23 22  1  0  0  0  0
 23 24  1  1  0  0  0
 25 27  1  0  0  0  0
 25 20  2  0  0  0  0
 27 21  1  6  0  0  0
 28 29  1  0  0  0  0
 29 32  1  0  0  0  0
 30 29  2  0  0  0  0
 32 31  1  0  0  0  0
M  END
>  <MODEL>
7

>  <REMARK>
 VINA RESULT:      -5.7      3.044      6.979
  Name = 
  14 active torsions:
  status: ('A' for Active; 'I' for Inactive)
    1  A    between atoms: C_1  and  C_4
    2  A    between atoms: C_1  and  O_5
    3  A    between atoms: C_2  and  C_14
    4  A    between atoms: C_3  and  C_20
    5  A    between atoms: C_4  and  C_24
    6  A    between atoms: O_5  and  C_14
    7  A    between atoms: C_13  and  C_29
    8  A    between atoms: C_13  and  C_30
    9  A    between atoms: C_14  and  C_30
   10  A    between atoms: C_15  and  C_20
   11  A    between atoms: C_15  and  C_26
   12  A    between atoms: C_16  and  C_20
   13  A    between atoms: C_16  and  C_24
   14  A    between atoms: C_19  and  C_26
                            x       y       z     vdW  Elec       q    Type
                         _______ _______ _______ _____ _____    ______ ____

>  <TORSDO>
F 14

$$$$
=
 OpenBabel11052419233D

 32 34  0  0  1  0  0  0  0  0999 V2000
  188.9750  177.1310  145.4390 O   0  0  0  0  0  0  0  0  0  0  0  0
  189.3270  176.8460  146.7610 C   0  0  0  0  0  2  0  0  0  0  0  0
  189.8380  175.4160  146.8900 C   0  0  2  0  0  3  0  0  0  0  0  0
  188.9500  174.6320  147.6310 O   0  0  0  0  0  1  0  0  0  0  0  0
  191.2680  175.3400  147.4420 C   0  0  2  0  0  3  0  0  0  0  0  0
  191.6380  176.5610  148.0070 O   0  0  0  0  0  1  0  0  0  0  0  0
  192.3230  174.8460  146.4410 C   0  0  0  0  0  2  0  0  0  0  0  0
  191.9970  175.1860  144.9890 C   0  0  2  0  0  3  0  0  0  0  0  0
  192.4640  174.0500  144.0880 C   0  0  1  0  0  3  0  0  0  0  0  0
  192.0420  172.7140  144.6660 C   0  0  0  0  0  2  0  0  0  0  0  0
  191.2560  173.3230  143.5260 C   0  0  2  0  0  3  0  0  0  0  0  0
  191.6170  172.6990  142.3330 O   0  0  0  0  0  1  0  0  0  0  0  0
  192.7030  176.4760  144.5970 C   0  0  0  0  0  2  0  0  0  0  0  0
  194.1960  176.3650  144.8490 C   0  0  0  0  0  2  0  0  0  0  0  0
  194.5680  177.5480  146.8880 O   0  0  0  0  0  1  0  0  0  0  0  0
  194.7130  177.6320  145.5030 C   0  0  0  0  0  2  0  0  0  0  0  0
  187.5850  176.9810  145.3880 C   0  0  2  0  0  3  0  0  0  0  0  0
  187.1540  176.4330  144.0290 C   0  0  1  0  0  3  0  0  0  0  0  0
  186.8110  177.5770  143.0220 C   0  0  0  0  0  2  0  0  0  0  0  0
  188.4380  174.3940  140.1560 C   0  0  0  0  0  0  0  0  0  0  0  0
  188.2030  175.4300  143.4970 C   0  0  0  0  0  2  0  0  0  0  0  0
  187.8350  175.6310  139.9570 O   0  0  0  0  0  0  0  0  0  0  0  0
  187.7660  176.2190  141.2370 C   0  0  1  0  0  3  0  0  0  0  0  0
  186.5720  177.0760  141.5810 C   0  0  0  0  0  2  0  0  0  0  0  0
  188.5010  174.0260  141.3980 N   0  0  0  0  0  0  0  0  0  0  0  0
  189.0080  173.5800  139.0510 C   0  0  0  0  0  1  0  0  0  0  0  0
  187.7270  175.0150  142.1260 C   0  0  1  0  0  3  0  0  0  0  0  0
  186.9000  178.3190  145.6590 C   0  0  0  0  0  2  0  0  0  0  0  0
  185.6180  178.1410  146.4100 C   0  0  0  0  0  0  0  0  0  0  0  0
  185.5140  177.2020  147.3520 C   0  0  0  0  0  2  0  0  0  0  0  0
  184.0150  178.8770  144.6690 C   0  0  0  0  0  1  0  0  0  0  0  0
  184.4630  179.0420  146.1090 C   0  0  0  0  0  2  0  0  0  0  0  0
  1  2  1  0  0  0  0
  2  3  1  0  0  0  0
  3  5  1  0  0  0  0
  3  4  1  1  0  0  0
  5  6  1  6  0  0  0
  7  5  1  0  0  0  0
  8 13  1  6  0  0  0
  8  7  1  0  0  0  0
  9 10  1  0  0  0  0
  9  8  1  1  0  0  0
 11 12  1  6  0  0  0
 11  9  1  0  0  0  0
 11 10  1  0  0  0  0
 13 14  1  0  0  0  0
 14 16  1  0  0  0  0
 16 15  1  0  0  0  0
 17  1  1  0  0  0  0
 17 28  1  6  0  0  0
 18 17  1  1  0  0  0
 19 18  1  0  0  0  0
 20 25  2  0  0  0  0
 21 18  1  0  0  0  0
 22 20  1  0  0  0  0
 22 23  1  0  0  0  0
 23 24  1  6  0  0  0
 23 27  1  0  0  0  0
 24 19  1  0  0  0  0
 25 27  1  0  0  0  0
 26 20  1  0  0  0  0
 27 21  1  1  0  0  0
 28 29  1  0  0  0  0
 29 30  2  0  0  0  0
 31 32  1  0  0  0  0
 32 29  1  0  0  0  0
M  END
>  <MODEL>
8

>  <REMARK>
 VINA RESULT:      -5.7      3.201      7.675
  Name = 
  14 active torsions:
  status: ('A' for Active; 'I' for Inactive)
    1  A    between atoms: C_1  and  C_4
    2  A    between atoms: C_1  and  O_5
    3  A    between atoms: C_2  and  C_14
    4  A    between atoms: C_3  and  C_20
    5  A    between atoms: C_4  and  C_24
    6  A    between atoms: O_5  and  C_14
    7  A    between atoms: C_13  and  C_29
    8  A    between atoms: C_13  and  C_30
    9  A    between atoms: C_14  and  C_30
   10  A    between atoms: C_15  and  C_20
   11  A    between atoms: C_15  and  C_26
   12  A    between atoms: C_16  and  C_20
   13  A    between atoms: C_16  and  C_24
   14  A    between atoms: C_19  and  C_26
                            x       y       z     vdW  Elec       q    Type
                         _______ _______ _______ _____ _____    ______ ____

>  <TORSDO>
F 14

$$$$
=
 OpenBabel11052419233D

 32 34  0  0  1  0  0  0  0  0999 V2000
  191.6440  174.4920  146.0870 O   0  0  0  0  0  0  0  0  0  0  0  0
  191.6680  175.8890  146.0950 C   0  0  0  0  0  2  0  0  0  0  0  0
  190.2710  176.4530  146.3200 C   0  0  2  0  0  3  0  0  0  0  0  0
  189.5370  175.6430  147.1900 O   0  0  0  0  0  1  0  0  0  0  0  0
  189.5160  176.7190  145.0100 C   0  0  2  0  0  3  0  0  0  0  0  0
  189.3380  178.0890  144.8190 O   0  0  0  0  0  1  0  0  0  0  0  0
  188.1910  175.9580  144.8610 C   0  0  0  0  0  2  0  0  0  0  0  0
  187.0150  176.8460  144.4650 C   0  0  2  0  0  3  0  0  0  0  0  0
  185.9510  176.7910  145.5540 C   0  0  1  0  0  3  0  0  0  0  0  0
  186.4900  177.3730  146.8450 C   0  0  0  0  0  2  0  0  0  0  0  0
  185.5770  178.2020  145.9670 C   0  0  2  0  0  3  0  0  0  0  0  0
  184.2900  178.1920  146.5030 O   0  0  0  0  0  1  0  0  0  0  0  0
  186.4290  176.3600  143.1490 C   0  0  0  0  0  2  0  0  0  0  0  0
  187.4580  176.4620  142.0370 C   0  0  0  0  0  2  0  0  0  0  0  0
  188.9390  178.2910  141.6380 O   0  0  0  0  0  1  0  0  0  0  0  0
  187.6000  177.9030  141.5840 C   0  0  0  0  0  2  0  0  0  0  0  0
  192.4190  174.1160  144.9840 C   0  0  2  0  0  3  0  0  0  0  0  0
  191.5820  173.3150  143.9880 C   0  0  1  0  0  3  0  0  0  0  0  0
  190.2610  172.7860  144.6300 C   0  0  0  0  0  2  0  0  0  0  0  0
  188.8950  173.4260  140.3040 C   0  0  0  0  0  0  0  0  0  0  0  0
  191.3610  174.1310  142.6940 C   0  0  0  0  0  2  0  0  0  0  0  0
  188.2830  172.8630  141.4190 O   0  0  0  0  0  0  0  0  0  0  0  0
  189.1380  173.1630  142.5000 C   0  0  1  0  0  3  0  0  0  0  0  0
  189.2920  172.1510  143.6100 C   0  0  0  0  0  2  0  0  0  0  0  0
  190.1240  173.7910  140.4990 N   0  0  0  0  0  0  0  0  0  0  0  0
  188.1920  173.6410  139.0130 C   0  0  0  0  0  1  0  0  0  0  0  0
  190.4630  173.2910  141.8180 C   0  0  1  0  0  3  0  0  0  0  0  0
  193.6240  173.2960  145.4410 C   0  0  0  0  0  2  0  0  0  0  0  0
  194.9070  173.8650  144.9250 C   0  0  0  0  0  0  0  0  0  0  0  0
  194.9260  175.0670  144.3460 C   0  0  0  0  0  2  0  0  0  0  0  0
  197.0640  173.7170  146.1380 C   0  0  0  0  0  1  0  0  0  0  0  0
  196.1710  173.0840  145.0860 C   0  0  0  0  0  2  0  0  0  0  0  0
  1  2  1  0  0  0  0
  2  3  1  0  0  0  0
  3  4  1  1  0  0  0
  5  6  1  1  0  0  0
  5  3  1  0  0  0  0
  7  5  1  0  0  0  0
  8 13  1  6  0  0  0
  8  7  1  0  0  0  0
  9  8  1  6  0  0  0
  9 11  1  0  0  0  0
  9 10  1  0  0  0  0
 11 12  1  1  0  0  0
 11 10  1  0  0  0  0
 14 13  1  0  0  0  0
 16 15  1  0  0  0  0
 16 14  1  0  0  0  0
 17 28  1  1  0  0  0
 17  1  1  0  0  0  0
 18 19  1  0  0  0  0
 18 17  1  1  0  0  0
 20 25  2  0  0  0  0
 20 22  1  0  0  0  0
 21 18  1  0  0  0  0
 22 23  1  0  0  0  0
 23 24  1  1  0  0  0
 24 19  1  0  0  0  0
 25 27  1  0  0  0  0
 26 20  1  0  0  0  0
 27 23  1  0  0  0  0
 27 21  1  1  0  0  0
 29 32  1  0  0  0  0
 29 28  1  0  0  0  0
 30 29  2  0  0  0  0
 32 31  1  0  0  0  0
M  END
>  <MODEL>
9

>  <REMARK>
 VINA RESULT:      -5.7      2.762      5.613
  Name = 
  14 active torsions:
  status: ('A' for Active; 'I' for Inactive)
    1  A    between atoms: C_1  and  C_4
    2  A    between atoms: C_1  and  O_5
    3  A    between atoms: C_2  and  C_14
    4  A    between atoms: C_3  and  C_20
    5  A    between atoms: C_4  and  C_24
    6  A    between atoms: O_5  and  C_14
    7  A    between atoms: C_13  and  C_29
    8  A    between atoms: C_13  and  C_30
    9  A    between atoms: C_14  and  C_30
   10  A    between atoms: C_15  and  C_20
   11  A    between atoms: C_15  and  C_26
   12  A    between atoms: C_16  and  C_20
   13  A    between atoms: C_16  and  C_24
   14  A    between atoms: C_19  and  C_26
                            x       y       z     vdW  Elec       q    Type
                         _______ _______ _______ _____ _____    ______ ____

>  <TORSDO>
F 14

$$$$
