=
 OpenBabel11052417433D

 31 35  0  0  1  0  0  0  0  0999 V2000
  187.9630  177.0160  144.1770 N   0  0  0  0  0  0  0  0  0  0  0  0
  186.8040  177.4190  144.8420 C   0  0  0  0  0  0  0  0  0  0  0  0
  185.3700  177.2700  146.9050 C   0  0  0  0  0  3  0  0  0  0  0  0
  189.1040  176.6400  143.4850 C   0  0  2  0  0  0  0  0  0  0  0  0
  186.5260  176.9660  146.0580 C   0  0  0  0  0  3  0  0  0  0  0  0
  186.4690  178.7560  142.6660 C   0  0  0  0  0  3  0  0  0  0  0  0
  184.3330  178.0610  146.6530 C   0  0  0  0  0  3  0  0  0  0  0  0
  188.2900  177.5150  142.8050 C   0  0  0  0  0  0  0  0  0  0  0  0
  184.0400  178.8600  145.4580 C   0  0  0  0  0  3  0  0  0  0  0  0
  187.7110  178.3040  142.0010 N   0  0  0  0  0  0  0  0  0  0  0  0
  186.0140  178.3860  143.9480 C   0  0  0  0  0  0  0  0  0  0  0  0
  184.7380  178.9950  144.3340 C   0  0  0  0  0  3  0  0  0  0  0  0
  189.6780  173.9530  141.0200 N   0  0  0  0  0  0  0  0  0  0  0  0
  188.2850  173.7060  141.3700 C   0  0  0  0  0  2  0  0  0  0  0  0
  190.3620  172.6720  141.0770 C   0  0  0  0  0  1  0  0  0  0  0  0
  190.2380  174.7830  142.0820 C   0  0  0  0  0  2  0  0  0  0  0  0
  189.1160  175.1640  143.0390 C   0  0  2  0  0  3  0  0  0  0  0  0
  187.8500  174.7990  142.3110 C   0  0  0  0  0  2  0  0  0  0  0  0
  190.3700  177.2520  144.0640 C   0  0  0  0  0  2  0  0  0  0  0  0
  190.3320  177.2040  145.5870 C   0  0  0  0  0  2  0  0  0  0  0  0
  191.4250  176.3060  146.1670 C   0  0  1  0  0  3  0  0  0  0  0  0
  189.5730  174.7610  146.7930 C   0  0  0  0  0  1  0  0  0  0  0  0
  190.8610  175.4110  147.2590 C   0  0  0  0  0  2  0  0  0  0  0  0
  192.0520  175.4980  145.1230 N   0  0  0  0  0  2  0  0  0  0  0  0
  195.6090  175.8480  144.2300 C   0  0  0  0  0  0  0  0  0  0  0  0
  195.3660  173.8890  145.6090 C   0  0  0  0  0  3  0  0  0  0  0  0
  196.4580  176.7650  143.4260 C   0  0  0  0  0  1  0  0  0  0  0  0
  194.2720  176.0780  144.3340 N   0  0  0  0  0  0  0  0  0  0  0  0
  193.9970  174.1420  145.7050 C   0  0  0  0  0  3  0  0  0  0  0  0
  193.4580  175.2540  145.0530 C   0  0  0  0  0  0  0  0  0  0  0  0
  196.1800  174.7440  144.8660 C   0  0  0  0  0  3  0  0  0  0  0  0
  1  2  1  0  0  0  0
  2  5  2  0  0  0  0
  4 19  1  1  0  0  0
  4  1  1  0  0  0  0
  5  3  1  0  0  0  0
  6 11  2  0  0  0  0
  7  3  2  0  0  0  0
  8  4  1  0  0  0  0
  8  1  1  0  0  0  0
  9  7  1  0  0  0  0
 10  6  1  0  0  0  0
 10  8  2  0  0  0  0
 11 12  1  0  0  0  0
 11  2  1  0  0  0  0
 12  9  2  0  0  0  0
 13 15  1  0  0  0  0
 13 14  1  0  0  0  0
 13 16  1  0  0  0  0
 14 18  1  0  0  0  0
 17 16  1  6  0  0  0
 17  4  1  0  0  0  0
 18 17  1  0  0  0  0
 19 20  1  0  0  0  0
 21 20  1  6  0  0  0
 21 23  1  0  0  0  0
 22 23  1  0  0  0  0
 24 21  1  0  0  0  0
 25 28  1  0  0  0  0
 25 31  2  0  0  0  0
 26 29  2  0  0  0  0
 27 25  1  0  0  0  0
 28 30  2  0  0  0  0
 30 24  1  0  0  0  0
 30 29  1  0  0  0  0
 31 26  1  0  0  0  0
M  END
>  <MODEL>
1

>  <REMARK>
 VINA RESULT:      -8.1      0.000      0.000
  Name = 
  7 active torsions:
  status: ('A' for Active; 'I' for Inactive)
    1  A    between atoms: N_3  and  C_9
    2  A    between atoms: N_3  and  C_22
    3  A    between atoms: C_9  and  C_15
    4  A    between atoms: C_9  and  C_23
    5  A    between atoms: C_12  and  C_20
    6  A    between atoms: C_12  and  C_27
    7  A    between atoms: C_15  and  C_20
                            x       y       z     vdW  Elec       q    Type
                         _______ _______ _______ _____ _____    ______ ____

>  <TORSDO>
F 7

$$$$
=
 OpenBabel11052417433D

 31 35  0  0  1  0  0  0  0  0999 V2000
  188.0010  176.8340  144.1800 N   0  0  0  0  0  0  0  0  0  0  0  0
  186.8320  177.2990  144.7860 C   0  0  0  0  0  0  0  0  0  0  0  0
  185.2750  177.2070  146.7610 C   0  0  0  0  0  3  0  0  0  0  0  0
  189.1550  176.3980  143.5470 C   0  0  2  0  0  0  0  0  0  0  0  0
  186.4560  176.8440  145.9750 C   0  0  0  0  0  3  0  0  0  0  0  0
  186.7100  178.6910  142.6220 C   0  0  0  0  0  3  0  0  0  0  0  0
  184.3050  178.0670  146.4660 C   0  0  0  0  0  3  0  0  0  0  0  0
  188.4380  177.3350  142.8400 C   0  0  0  0  0  0  0  0  0  0  0  0
  184.1330  178.9020  145.2720 C   0  0  0  0  0  3  0  0  0  0  0  0
  187.9570  178.1720  142.0200 N   0  0  0  0  0  0  0  0  0  0  0  0
  186.1580  178.3290  143.8680 C   0  0  0  0  0  0  0  0  0  0  0  0
  184.9020  179.0110  144.1930 C   0  0  0  0  0  3  0  0  0  0  0  0
  189.7200  173.7180  141.0730 N   0  0  0  0  0  0  0  0  0  0  0  0
  188.2930  173.5590  141.3220 C   0  0  0  0  0  2  0  0  0  0  0  0
  190.3120  172.3940  141.1500 C   0  0  0  0  0  1  0  0  0  0  0  0
  190.2590  174.4920  142.1870 C   0  0  0  0  0  2  0  0  0  0  0  0
  189.1000  174.9320  143.0730 C   0  0  2  0  0  3  0  0  0  0  0  0
  187.8670  174.6640  142.2540 C   0  0  0  0  0  2  0  0  0  0  0  0
  190.4200  176.9190  144.2110 C   0  0  0  0  0  2  0  0  0  0  0  0
  190.2430  176.9680  145.7240 C   0  0  0  0  0  2  0  0  0  0  0  0
  191.1930  176.0170  146.4510 C   0  0  1  0  0  3  0  0  0  0  0  0
  189.2040  174.7000  147.1720 C   0  0  0  0  0  1  0  0  0  0  0  0
  190.4930  175.3560  147.6280 C   0  0  0  0  0  2  0  0  0  0  0  0
  191.7210  175.0030  145.5410 N   0  0  0  0  0  2  0  0  0  0  0  0
  194.6450  172.7630  145.4300 C   0  0  0  0  0  0  0  0  0  0  0  0
  195.4210  174.9960  145.8950 C   0  0  0  0  0  3  0  0  0  0  0  0
  194.9180  171.3180  145.2220 C   0  0  0  0  0  1  0  0  0  0  0  0
  193.3670  173.2270  145.3760 N   0  0  0  0  0  0  0  0  0  0  0  0
  194.1030  175.4520  145.8350 C   0  0  0  0  0  3  0  0  0  0  0  0
  193.0750  174.5440  145.5720 C   0  0  0  0  0  0  0  0  0  0  0  0
  195.6970  173.6430  145.6930 C   0  0  0  0  0  3  0  0  0  0  0  0
  1  2  1  0  0  0  0
  2  5  2  0  0  0  0
  4  1  1  0  0  0  0
  4 19  1  1  0  0  0
  5  3  1  0  0  0  0
  6 11  2  0  0  0  0
  7  3  2  0  0  0  0
  8  4  1  0  0  0  0
  8  1  1  0  0  0  0
  9  7  1  0  0  0  0
 10  6  1  0  0  0  0
 10  8  2  0  0  0  0
 11 12  1  0  0  0  0
 11  2  1  0  0  0  0
 12  9  2  0  0  0  0
 13 15  1  0  0  0  0
 13 14  1  0  0  0  0
 13 16  1  0  0  0  0
 14 18  1  0  0  0  0
 17 16  1  6  0  0  0
 17  4  1  0  0  0  0
 18 17  1  0  0  0  0
 19 20  1  0  0  0  0
 21 20  1  6  0  0  0
 21 23  1  0  0  0  0
 22 23  1  0  0  0  0
 24 30  1  0  0  0  0
 24 21  1  0  0  0  0
 25 31  2  0  0  0  0
 27 25  1  0  0  0  0
 28 25  1  0  0  0  0
 28 30  2  0  0  0  0
 29 26  2  0  0  0  0
 30 29  1  0  0  0  0
 31 26  1  0  0  0  0
M  END
>  <MODEL>
2

>  <REMARK>
 VINA RESULT:      -8.1      0.970      1.456
  Name = 
  7 active torsions:
  status: ('A' for Active; 'I' for Inactive)
    1  A    between atoms: N_3  and  C_9
    2  A    between atoms: N_3  and  C_22
    3  A    between atoms: C_9  and  C_15
    4  A    between atoms: C_9  and  C_23
    5  A    between atoms: C_12  and  C_20
    6  A    between atoms: C_12  and  C_27
    7  A    between atoms: C_15  and  C_20
                            x       y       z     vdW  Elec       q    Type
                         _______ _______ _______ _____ _____    ______ ____

>  <TORSDO>
F 7

$$$$
=
 OpenBabel11052417433D

 31 35  0  0  1  0  0  0  0  0999 V2000
  188.6510  176.6150  144.3510 N   0  0  0  0  0  0  0  0  0  0  0  0
  189.6080  176.2440  145.2960 C   0  0  0  0  0  0  0  0  0  0  0  0
  190.1210  175.0650  147.4600 C   0  0  0  0  0  3  0  0  0  0  0  0
  187.7290  177.0010  143.3900 C   0  0  2  0  0  0  0  0  0  0  0  0
  189.2670  175.5410  146.3690 C   0  0  0  0  0  3  0  0  0  0  0  0
  191.1570  177.5140  143.6750 C   0  0  0  0  0  3  0  0  0  0  0  0
  191.4290  175.2290  147.6310 C   0  0  0  0  0  3  0  0  0  0  0  0
  189.0180  177.4070  143.1360 C   0  0  0  0  0  0  0  0  0  0  0  0
  192.3980  175.9310  146.7840 C   0  0  0  0  0  3  0  0  0  0  0  0
  190.1080  177.8820  142.6990 N   0  0  0  0  0  0  0  0  0  0  0  0
  190.9830  176.7750  144.8640 C   0  0  0  0  0  0  0  0  0  0  0  0
  192.2140  176.5740  145.6340 C   0  0  0  0  0  3  0  0  0  0  0  0
  184.4530  178.0470  144.7300 N   0  0  0  0  0  0  0  0  0  0  0  0
  184.5140  178.8450  143.5120 C   0  0  0  0  0  2  0  0  0  0  0  0
  184.0490  178.9410  145.8020 C   0  0  0  0  0  1  0  0  0  0  0  0
  185.8170  177.6200  145.0230 C   0  0  0  0  0  2  0  0  0  0  0  0
  186.7170  178.0590  143.8740 C   0  0  2  0  0  3  0  0  0  0  0  0
  185.7700  178.4570  142.7750 C   0  0  0  0  0  2  0  0  0  0  0  0
  187.2400  175.8360  142.5440 C   0  0  0  0  0  2  0  0  0  0  0  0
  187.9380  175.8360  141.1880 C   0  0  0  0  0  2  0  0  0  0  0  0
  188.6020  174.4940  140.8780 C   0  0  1  0  0  3  0  0  0  0  0  0
  188.2350  172.6570  139.2340 C   0  0  0  0  0  1  0  0  0  0  0  0
  188.4490  174.1490  139.4050 C   0  0  0  0  0  2  0  0  0  0  0  0
  190.0140  174.5060  141.2520 N   0  0  0  0  0  2  0  0  0  0  0  0
  192.3470  173.3980  143.8800 C   0  0  0  0  0  0  0  0  0  0  0  0
  190.1500  172.5760  144.4250 C   0  0  0  0  0  3  0  0  0  0  0  0
  193.7970  173.5090  144.1840 C   0  0  0  0  0  1  0  0  0  0  0  0
  191.8400  173.9900  142.7650 N   0  0  0  0  0  0  0  0  0  0  0  0
  189.6490  173.1900  143.2770 C   0  0  0  0  0  3  0  0  0  0  0  0
  190.5180  173.9020  142.4460 C   0  0  0  0  0  0  0  0  0  0  0  0
  191.5080  172.6770  144.7310 C   0  0  0  0  0  3  0  0  0  0  0  0
  1  2  1  0  0  0  0
  2  5  2  0  0  0  0
  3  7  2  0  0  0  0
  4 19  1  6  0  0  0
  4 17  1  0  0  0  0
  4  1  1  0  0  0  0
  5  3  1  0  0  0  0
  6 11  2  0  0  0  0
  8  4  1  0  0  0  0
  8  1  1  0  0  0  0
  9  7  1  0  0  0  0
 10  8  2  0  0  0  0
 10  6  1  0  0  0  0
 11  2  1  0  0  0  0
 11 12  1  0  0  0  0
 12  9  2  0  0  0  0
 13 16  1  0  0  0  0
 13 15  1  0  0  0  0
 14 13  1  0  0  0  0
 17 18  1  6  0  0  0
 17 16  1  0  0  0  0
 18 14  1  0  0  0  0
 20 19  1  0  0  0  0
 21 23  1  6  0  0  0
 21 20  1  0  0  0  0
 21 24  1  0  0  0  0
 22 23  1  0  0  0  0
 24 30  1  0  0  0  0
 25 27  1  0  0  0  0
 25 31  2  0  0  0  0
 26 31  1  0  0  0  0
 28 25  1  0  0  0  0
 29 26  2  0  0  0  0
 30 28  2  0  0  0  0
 30 29  1  0  0  0  0
M  END
>  <MODEL>
3

>  <REMARK>
 VINA RESULT:      -8.1      1.804      5.582
  Name = 
  7 active torsions:
  status: ('A' for Active; 'I' for Inactive)
    1  A    between atoms: N_3  and  C_9
    2  A    between atoms: N_3  and  C_22
    3  A    between atoms: C_9  and  C_15
    4  A    between atoms: C_9  and  C_23
    5  A    between atoms: C_12  and  C_20
    6  A    between atoms: C_12  and  C_27
    7  A    between atoms: C_15  and  C_20
                            x       y       z     vdW  Elec       q    Type
                         _______ _______ _______ _____ _____    ______ ____

>  <TORSDO>
F 7

$$$$
=
 OpenBabel11052417433D

 31 35  0  0  1  0  0  0  0  0999 V2000
  188.5420  176.0020  144.2540 N   0  0  0  0  0  0  0  0  0  0  0  0
  189.4560  175.8900  145.3030 C   0  0  0  0  0  0  0  0  0  0  0  0
  190.0210  174.8790  147.5370 C   0  0  0  0  0  3  0  0  0  0  0  0
  187.6600  176.1390  143.1920 C   0  0  2  0  0  0  0  0  0  0  0  0
  189.1950  175.1200  146.3520 C   0  0  0  0  0  3  0  0  0  0  0  0
  190.7870  177.5250  143.8220 C   0  0  0  0  0  3  0  0  0  0  0  0
  191.2150  175.3760  147.8400 C   0  0  0  0  0  3  0  0  0  0  0  0
  188.8200  176.8660  143.0650 C   0  0  0  0  0  0  0  0  0  0  0  0
  192.0550  176.3100  147.0820 C   0  0  0  0  0  3  0  0  0  0  0  0
  189.7900  177.6100  142.7320 N   0  0  0  0  0  0  0  0  0  0  0  0
  190.6840  176.7620  145.0030 C   0  0  0  0  0  0  0  0  0  0  0  0
  191.8350  176.8850  145.9030 C   0  0  0  0  0  3  0  0  0  0  0  0
  185.0180  178.6240  142.5140 N   0  0  0  0  0  0  0  0  0  0  0  0
  185.4830  179.0740  143.8190 C   0  0  0  0  0  2  0  0  0  0  0  0
  183.5670  178.5840  142.5720 C   0  0  0  0  0  1  0  0  0  0  0  0
  185.4760  177.2480  142.3530 C   0  0  0  0  0  2  0  0  0  0  0  0
  186.3630  176.8950  143.5410 C   0  0  2  0  0  3  0  0  0  0  0  0
  186.6560  178.2110  144.2070 C   0  0  0  0  0  2  0  0  0  0  0  0
  187.5840  174.8890  142.3290 C   0  0  0  0  0  2  0  0  0  0  0  0
  188.4280  175.0610  141.0720 C   0  0  0  0  0  2  0  0  0  0  0  0
  189.4570  173.9420  140.9050 C   0  0  1  0  0  3  0  0  0  0  0  0
  188.2110  172.7310  139.1190 C   0  0  0  0  0  1  0  0  0  0  0  0
  189.4950  173.4590  139.4640 C   0  0  0  0  0  2  0  0  0  0  0  0
  190.7850  174.3800  141.3290 N   0  0  0  0  0  2  0  0  0  0  0  0
  193.2030  174.1110  144.0970 C   0  0  0  0  0  0  0  0  0  0  0  0
  191.3190  172.6970  144.5990 C   0  0  0  0  0  3  0  0  0  0  0  0
  194.5380  174.6570  144.4490 C   0  0  0  0  0  1  0  0  0  0  0  0
  192.6020  174.4840  142.9340 N   0  0  0  0  0  0  0  0  0  0  0  0
  190.7200  173.0920  143.4030 C   0  0  0  0  0  3  0  0  0  0  0  0
  191.3820  173.9970  142.5700 C   0  0  0  0  0  0  0  0  0  0  0  0
  192.5700  173.2060  144.9510 C   0  0  0  0  0  3  0  0  0  0  0  0
  1  2  1  0  0  0  0
  2  5  2  0  0  0  0
  3  7  2  0  0  0  0
  4 19  1  6  0  0  0
  4 17  1  0  0  0  0
  4  1  1  0  0  0  0
  5  3  1  0  0  0  0
  6 11  2  0  0  0  0
  8  4  1  0  0  0  0
  8  1  1  0  0  0  0
  9  7  1  0  0  0  0
 10  8  2  0  0  0  0
 10  6  1  0  0  0  0
 11  2  1  0  0  0  0
 11 12  1  0  0  0  0
 12  9  2  0  0  0  0
 13 15  1  0  0  0  0
 13 14  1  0  0  0  0
 14 18  1  0  0  0  0
 16 13  1  0  0  0  0
 17 16  1  6  0  0  0
 17 18  1  0  0  0  0
 20 19  1  0  0  0  0
 21 23  1  6  0  0  0
 21 20  1  0  0  0  0
 21 24  1  0  0  0  0
 22 23  1  0  0  0  0
 24 30  1  0  0  0  0
 25 27  1  0  0  0  0
 25 31  2  0  0  0  0
 26 31  1  0  0  0  0
 28 25  1  0  0  0  0
 29 26  2  0  0  0  0
 30 28  2  0  0  0  0
 30 29  1  0  0  0  0
M  END
>  <MODEL>
4

>  <REMARK>
 VINA RESULT:      -7.7      1.709      5.202
  Name = 
  7 active torsions:
  status: ('A' for Active; 'I' for Inactive)
    1  A    between atoms: N_3  and  C_9
    2  A    between atoms: N_3  and  C_22
    3  A    between atoms: C_9  and  C_15
    4  A    between atoms: C_9  and  C_23
    5  A    between atoms: C_12  and  C_20
    6  A    between atoms: C_12  and  C_27
    7  A    between atoms: C_15  and  C_20
                            x       y       z     vdW  Elec       q    Type
                         _______ _______ _______ _____ _____    ______ ____

>  <TORSDO>
F 7

$$$$
=
 OpenBabel11052417433D

 31 35  0  0  1  0  0  0  0  0999 V2000
  188.4750  177.0670  143.7840 N   0  0  0  0  0  0  0  0  0  0  0  0
  187.4250  177.5630  144.5580 C   0  0  0  0  0  0  0  0  0  0  0  0
  186.3760  177.7850  146.8350 C   0  0  0  0  0  3  0  0  0  0  0  0
  189.5010  176.5910  142.9820 C   0  0  2  0  0  0  0  0  0  0  0  0
  187.3860  177.3500  145.8680 C   0  0  0  0  0  3  0  0  0  0  0  0
  186.6450  178.4420  142.2650 C   0  0  0  0  0  3  0  0  0  0  0  0
  185.2670  178.4860  146.6290 C   0  0  0  0  0  3  0  0  0  0  0  0
  188.5330  177.2970  142.3070 C   0  0  0  0  0  0  0  0  0  0  0  0
  184.7270  179.0290  145.3770 C   0  0  0  0  0  3  0  0  0  0  0  0
  187.7790  177.9000  141.4860 N   0  0  0  0  0  0  0  0  0  0  0  0
  186.4390  178.3180  143.6540 C   0  0  0  0  0  0  0  0  0  0  0  0
  185.2140  178.9590  144.1420 C   0  0  0  0  0  3  0  0  0  0  0  0
  189.6530  173.4890  140.9880 N   0  0  0  0  0  0  0  0  0  0  0  0
  188.4210  173.2710  141.7330 C   0  0  0  0  0  2  0  0  0  0  0  0
  190.4340  172.2690  141.0930 C   0  0  0  0  0  1  0  0  0  0  0  0
  190.3930  174.5310  141.6920 C   0  0  0  0  0  2  0  0  0  0  0  0
  189.5230  175.0580  142.8260 C   0  0  2  0  0  3  0  0  0  0  0  0
  188.1500  174.5140  142.5410 C   0  0  0  0  0  2  0  0  0  0  0  0
  190.8090  177.3360  143.2000 C   0  0  0  0  0  2  0  0  0  0  0  0
  191.3410  177.0710  144.6050 C   0  0  0  0  0  2  0  0  0  0  0  0
  192.5490  176.1350  144.6010 C   0  0  1  0  0  3  0  0  0  0  0  0
  193.8620  176.9590  146.5520 C   0  0  0  0  0  1  0  0  0  0  0  0
  193.8020  176.8750  145.0390 C   0  0  0  0  0  2  0  0  0  0  0  0
  192.3180  174.9750  145.4600 N   0  0  0  0  0  2  0  0  0  0  0  0
  194.6740  172.1460  145.3070 C   0  0  0  0  0  0  0  0  0  0  0  0
  192.6240  171.4810  144.2330 C   0  0  0  0  0  3  0  0  0  0  0  0
  196.0680  171.8490  145.7290 C   0  0  0  0  0  1  0  0  0  0  0  0
  194.1300  173.3640  145.5750 N   0  0  0  0  0  0  0  0  0  0  0  0
  192.0840  172.7350  144.5170 C   0  0  0  0  0  3  0  0  0  0  0  0
  192.8590  173.6780  145.1960 C   0  0  0  0  0  0  0  0  0  0  0  0
  193.9290  171.1810  144.6280 C   0  0  0  0  0  3  0  0  0  0  0  0
  1  2  1  0  0  0  0
  2  5  2  0  0  0  0
  4 19  1  1  0  0  0
  4  1  1  0  0  0  0
  5  3  1  0  0  0  0
  6 11  2  0  0  0  0
  7  3  2  0  0  0  0
  8  4  1  0  0  0  0
  8  1  1  0  0  0  0
  9  7  1  0  0  0  0
 10  6  1  0  0  0  0
 10  8  2  0  0  0  0
 11 12  1  0  0  0  0
 11  2  1  0  0  0  0
 12  9  2  0  0  0  0
 13 15  1  0  0  0  0
 13 16  1  0  0  0  0
 13 14  1  0  0  0  0
 14 18  1  0  0  0  0
 17 16  1  6  0  0  0
 17  4  1  0  0  0  0
 18 17  1  0  0  0  0
 19 20  1  0  0  0  0
 21 20  1  1  0  0  0
 21 23  1  0  0  0  0
 21 24  1  0  0  0  0
 23 22  1  0  0  0  0
 25 28  1  0  0  0  0
 25 27  1  0  0  0  0
 26 29  2  0  0  0  0
 26 31  1  0  0  0  0
 29 30  1  0  0  0  0
 30 24  1  0  0  0  0
 30 28  2  0  0  0  0
 31 25  2  0  0  0  0
M  END
>  <MODEL>
5

>  <REMARK>
 VINA RESULT:      -7.1      1.547      2.211
  Name = 
  7 active torsions:
  status: ('A' for Active; 'I' for Inactive)
    1  A    between atoms: N_3  and  C_9
    2  A    between atoms: N_3  and  C_22
    3  A    between atoms: C_9  and  C_15
    4  A    between atoms: C_9  and  C_23
    5  A    between atoms: C_12  and  C_20
    6  A    between atoms: C_12  and  C_27
    7  A    between atoms: C_15  and  C_20
                            x       y       z     vdW  Elec       q    Type
                         _______ _______ _______ _____ _____    ______ ____

>  <TORSDO>
F 7

$$$$
=
 OpenBabel11052417433D

 31 35  0  0  1  0  0  0  0  0999 V2000
  189.7950  174.8430  142.6730 N   0  0  0  0  0  0  0  0  0  0  0  0
  190.7340  175.3080  143.5950 C   0  0  0  0  0  0  0  0  0  0  0  0
  192.2640  177.1690  144.3220 C   0  0  0  0  0  3  0  0  0  0  0  0
  188.8580  174.3460  141.7800 C   0  0  2  0  0  0  0  0  0  0  0  0
  191.2730  176.5140  143.4660 C   0  0  0  0  0  3  0  0  0  0  0  0
  190.3070  172.9900  144.6350 C   0  0  0  0  0  3  0  0  0  0  0  0
  192.8580  176.7090  145.4190 C   0  0  0  0  0  3  0  0  0  0  0  0
  189.1790  173.4860  142.8030 C   0  0  0  0  0  0  0  0  0  0  0  0
  192.6960  175.4150  146.0920 C   0  0  0  0  0  3  0  0  0  0  0  0
  189.3130  172.5410  143.6360 N   0  0  0  0  0  0  0  0  0  0  0  0
  190.9780  174.2300  144.6610 C   0  0  0  0  0  0  0  0  0  0  0  0
  191.9150  174.3850  145.7770 C   0  0  0  0  0  3  0  0  0  0  0  0
  189.4960  172.1350  138.8940 N   0  0  0  0  0  0  0  0  0  0  0  0
  190.8520  172.5670  139.2080 C   0  0  0  0  0  2  0  0  0  0  0  0
  189.3250  172.2870  137.4600 C   0  0  0  0  0  1  0  0  0  0  0  0
  188.5920  173.0840  139.5350 C   0  0  0  0  0  2  0  0  0  0  0  0
  189.4200  174.0470  140.3760 C   0  0  2  0  0  3  0  0  0  0  0  0
  190.7830  173.4150  140.4520 C   0  0  0  0  0  2  0  0  0  0  0  0
  187.5050  175.0280  141.9090 C   0  0  0  0  0  2  0  0  0  0  0  0
  187.5840  176.4640  141.4040 C   0  0  0  0  0  2  0  0  0  0  0  0
  186.6020  177.3880  142.1250 C   0  0  1  0  0  3  0  0  0  0  0  0
  184.2470  178.1660  141.8850 C   0  0  0  0  0  1  0  0  0  0  0  0
  185.5540  177.9150  141.1580 C   0  0  0  0  0  2  0  0  0  0  0  0
  185.9600  176.7030  143.2440 N   0  0  0  0  0  2  0  0  0  0  0  0
  187.9300  177.1640  146.3240 C   0  0  0  0  0  0  0  0  0  0  0  0
  185.5960  177.3510  146.8860 C   0  0  0  0  0  3  0  0  0  0  0  0
  189.3600  177.1620  146.7280 C   0  0  0  0  0  1  0  0  0  0  0  0
  187.5920  176.9630  145.0210 N   0  0  0  0  0  0  0  0  0  0  0  0
  185.2700  177.1430  145.5450 C   0  0  0  0  0  3  0  0  0  0  0  0
  186.2920  176.9470  144.6130 C   0  0  0  0  0  0  0  0  0  0  0  0
  186.9340  177.3600  147.2820 C   0  0  0  0  0  3  0  0  0  0  0  0
  1  8  1  0  0  0  0
  1  2  1  0  0  0  0
  2 11  1  0  0  0  0
  3  7  2  0  0  0  0
  4 19  1  1  0  0  0
  4  1  1  0  0  0  0
  4  8  1  0  0  0  0
  5  2  2  0  0  0  0
  5  3  1  0  0  0  0
  6 11  2  0  0  0  0
  7  9  1  0  0  0  0
  8 10  2  0  0  0  0
 10  6  1  0  0  0  0
 11 12  1  0  0  0  0
 12  9  2  0  0  0  0
 13 14  1  0  0  0  0
 13 16  1  0  0  0  0
 14 18  1  0  0  0  0
 15 13  1  0  0  0  0
 17 16  1  1  0  0  0
 17 18  1  0  0  0  0
 17  4  1  0  0  0  0
 20 19  1  0  0  0  0
 20 21  1  0  0  0  0
 21 23  1  6  0  0  0
 21 24  1  0  0  0  0
 23 22  1  0  0  0  0
 24 30  1  0  0  0  0
 25 27  1  0  0  0  0
 25 31  2  0  0  0  0
 26 31  1  0  0  0  0
 28 25  1  0  0  0  0
 29 26  2  0  0  0  0
 30 28  2  0  0  0  0
 30 29  1  0  0  0  0
M  END
>  <MODEL>
6

>  <REMARK>
 VINA RESULT:      -7.0      2.222      6.628
  Name = 
  7 active torsions:
  status: ('A' for Active; 'I' for Inactive)
    1  A    between atoms: N_3  and  C_9
    2  A    between atoms: N_3  and  C_22
    3  A    between atoms: C_9  and  C_15
    4  A    between atoms: C_9  and  C_23
    5  A    between atoms: C_12  and  C_20
    6  A    between atoms: C_12  and  C_27
    7  A    between atoms: C_15  and  C_20
                            x       y       z     vdW  Elec       q    Type
                         _______ _______ _______ _____ _____    ______ ____

>  <TORSDO>
F 7

$$$$
=
 OpenBabel11052417433D

 31 35  0  0  1  0  0  0  0  0999 V2000
  190.2530  173.9310  142.3750 N   0  0  0  0  0  0  0  0  0  0  0  0
  191.2840  174.5410  143.0910 C   0  0  0  0  0  0  0  0  0  0  0  0
  192.9990  176.3800  143.2090 C   0  0  0  0  0  3  0  0  0  0  0  0
  189.2250  173.2980  141.6940 C   0  0  2  0  0  0  0  0  0  0  0  0
  191.9060  175.6110  142.6100 C   0  0  0  0  0  3  0  0  0  0  0  0
  190.7460  172.6470  144.7530 C   0  0  0  0  0  3  0  0  0  0  0  0
  193.6250  176.1840  144.3650 C   0  0  0  0  0  3  0  0  0  0  0  0
  189.5440  172.7240  142.9020 C   0  0  0  0  0  0  0  0  0  0  0  0
  193.4070  175.1450  145.3770 C   0  0  0  0  0  3  0  0  0  0  0  0
  189.6570  172.0360  143.9600 N   0  0  0  0  0  0  0  0  0  0  0  0
  191.5120  173.7790  144.4050 C   0  0  0  0  0  0  0  0  0  0  0  0
  192.5290  174.1460  145.3940 C   0  0  0  0  0  3  0  0  0  0  0  0
  191.5490  171.2070  139.7320 N   0  0  0  0  0  0  0  0  0  0  0  0
  191.4780  172.3950  138.8910 C   0  0  0  0  0  2  0  0  0  0  0  0
  191.3690  170.0600  138.8590 C   0  0  0  0  0  1  0  0  0  0  0  0
  190.3930  171.2510  140.6220 C   0  0  0  0  0  2  0  0  0  0  0  0
  189.6700  172.5750  140.4070 C   0  0  2  0  0  3  0  0  0  0  0  0
  190.6310  173.4130  139.6100 C   0  0  0  0  0  2  0  0  0  0  0  0
  187.9400  174.1110  141.6840 C   0  0  0  0  0  2  0  0  0  0  0  0
  188.1160  175.3690  140.8410 C   0  0  0  0  0  2  0  0  0  0  0  0
  188.1020  176.6420  141.6890 C   0  0  1  0  0  3  0  0  0  0  0  0
  186.0360  178.0100  141.9480 C   0  0  0  0  0  1  0  0  0  0  0  0
  187.2180  177.7010  141.0500 C   0  0  0  0  0  2  0  0  0  0  0  0
  187.6550  176.3620  143.0510 N   0  0  0  0  0  2  0  0  0  0  0  0
  189.2070  175.7060  146.3280 C   0  0  0  0  0  0  0  0  0  0  0  0
  190.1630  177.7250  145.4310 C   0  0  0  0  0  3  0  0  0  0  0  0
  189.1020  174.6970  147.4140 C   0  0  0  0  0  1  0  0  0  0  0  0
  188.4370  175.5840  145.2130 N   0  0  0  0  0  0  0  0  0  0  0  0
  189.3650  177.5830  144.2940 C   0  0  0  0  0  3  0  0  0  0  0  0
  188.4960  176.4940  144.2000 C   0  0  0  0  0  0  0  0  0  0  0  0
  190.0840  176.7830  146.4570 C   0  0  0  0  0  3  0  0  0  0  0  0
  1  8  1  0  0  0  0
  1  2  1  0  0  0  0
  2 11  1  0  0  0  0
  3  7  2  0  0  0  0
  4 19  1  6  0  0  0
  4  1  1  0  0  0  0
  4  8  1  0  0  0  0
  5  2  2  0  0  0  0
  5  3  1  0  0  0  0
  7  9  1  0  0  0  0
  8 10  2  0  0  0  0
  9 12  2  0  0  0  0
 10  6  1  0  0  0  0
 11  6  2  0  0  0  0
 11 12  1  0  0  0  0
 13 16  1  0  0  0  0
 14 18  1  0  0  0  0
 14 13  1  0  0  0  0
 15 13  1  0  0  0  0
 17 18  1  1  0  0  0
 17 16  1  0  0  0  0
 17  4  1  0  0  0  0
 20 19  1  0  0  0  0
 21 20  1  6  0  0  0
 21 24  1  0  0  0  0
 23 21  1  0  0  0  0
 23 22  1  0  0  0  0
 24 30  1  0  0  0  0
 25 31  2  0  0  0  0
 25 27  1  0  0  0  0
 26 31  1  0  0  0  0
 28 25  1  0  0  0  0
 29 26  2  0  0  0  0
 30 29  1  0  0  0  0
 30 28  2  0  0  0  0
M  END
>  <MODEL>
7

>  <REMARK>
 VINA RESULT:      -6.9      2.397      6.343
  Name = 
  7 active torsions:
  status: ('A' for Active; 'I' for Inactive)
    1  A    between atoms: N_3  and  C_9
    2  A    between atoms: N_3  and  C_22
    3  A    between atoms: C_9  and  C_15
    4  A    between atoms: C_9  and  C_23
    5  A    between atoms: C_12  and  C_20
    6  A    between atoms: C_12  and  C_27
    7  A    between atoms: C_15  and  C_20
                            x       y       z     vdW  Elec       q    Type
                         _______ _______ _______ _____ _____    ______ ____

>  <TORSDO>
F 7

$$$$
=
 OpenBabel11052417433D

 31 35  0  0  1  0  0  0  0  0999 V2000
  188.6400  176.6980  144.0410 N   0  0  0  0  0  0  0  0  0  0  0  0
  189.4340  176.2690  145.1060 C   0  0  0  0  0  0  0  0  0  0  0  0
  189.6110  174.9170  147.2220 C   0  0  0  0  0  3  0  0  0  0  0  0
  187.8830  177.1440  142.9690 C   0  0  2  0  0  0  0  0  0  0  0  0
  188.9410  175.4660  146.0410 C   0  0  0  0  0  3  0  0  0  0  0  0
  191.1860  177.7170  143.8940 C   0  0  0  0  0  3  0  0  0  0  0  0
  190.8620  175.0980  147.6340 C   0  0  0  0  0  3  0  0  0  0  0  0
  189.1790  177.6030  142.9800 C   0  0  0  0  0  0  0  0  0  0  0  0
  191.9340  175.8980  147.0310 C   0  0  0  0  0  3  0  0  0  0  0  0
  190.3080  178.1440  142.7830 N   0  0  0  0  0  0  0  0  0  0  0  0
  190.8390  176.8720  144.9680 C   0  0  0  0  0  0  0  0  0  0  0  0
  191.9250  176.6340  145.9240 C   0  0  0  0  0  3  0  0  0  0  0  0
  184.6320  177.9900  144.4970 N   0  0  0  0  0  0  0  0  0  0  0  0
  184.4300  178.4840  143.1420 C   0  0  0  0  0  2  0  0  0  0  0  0
  184.1940  179.0400  145.4000 C   0  0  0  0  0  1  0  0  0  0  0  0
  186.0720  177.8430  144.6820 C   0  0  0  0  0  2  0  0  0  0  0  0
  186.7600  178.1280  143.3530 C   0  0  2  0  0  3  0  0  0  0  0  0
  185.6510  178.1210  142.3370 C   0  0  0  0  0  2  0  0  0  0  0  0
  187.5960  176.0460  141.9560 C   0  0  0  0  0  2  0  0  0  0  0  0
  188.0260  174.6920  142.5080 C   0  0  0  0  0  2  0  0  0  0  0  0
  189.2140  174.1050  141.7450 C   0  0  1  0  0  3  0  0  0  0  0  0
  189.7020  171.8180  142.6060 C   0  0  0  0  0  1  0  0  0  0  0  0
  190.0930  173.2820  142.6730 C   0  0  0  0  0  2  0  0  0  0  0  0
  188.7660  173.2920  140.6170 N   0  0  0  0  0  2  0  0  0  0  0  0
  187.8260  174.9240  137.4500 C   0  0  0  0  0  0  0  0  0  0  0  0
  189.8980  173.7450  137.1060 C   0  0  0  0  0  3  0  0  0  0  0  0
  186.7170  175.7660  136.9310 C   0  0  0  0  0  1  0  0  0  0  0  0
  187.8180  174.5160  138.7480 N   0  0  0  0  0  0  0  0  0  0  0  0
  189.8710  173.3360  138.4410 C   0  0  0  0  0  3  0  0  0  0  0  0
  188.8110  173.7340  139.2590 C   0  0  0  0  0  0  0  0  0  0  0  0
  188.8690  174.5430  136.6040 C   0  0  0  0  0  3  0  0  0  0  0  0
  1  2  1  0  0  0  0
  2  5  2  0  0  0  0
  3  7  2  0  0  0  0
  4 19  1  6  0  0  0
  4  8  1  0  0  0  0
  4 17  1  0  0  0  0
  4  1  1  0  0  0  0
  5  3  1  0  0  0  0
  6 11  2  0  0  0  0
  8  1  1  0  0  0  0
  9  7  1  0  0  0  0
 10  8  2  0  0  0  0
 10  6  1  0  0  0  0
 11  2  1  0  0  0  0
 11 12  1  0  0  0  0
 12  9  2  0  0  0  0
 13 16  1  0  0  0  0
 13 15  1  0  0  0  0
 14 13  1  0  0  0  0
 17 18  1  6  0  0  0
 17 16  1  0  0  0  0
 18 14  1  0  0  0  0
 19 20  1  0  0  0  0
 21 20  1  1  0  0  0
 21 23  1  0  0  0  0
 22 23  1  0  0  0  0
 24 21  1  0  0  0  0
 25 28  1  0  0  0  0
 26 29  2  0  0  0  0
 27 25  1  0  0  0  0
 28 30  2  0  0  0  0
 29 30  1  0  0  0  0
 30 24  1  0  0  0  0
 31 26  1  0  0  0  0
 31 25  2  0  0  0  0
M  END
>  <MODEL>
8

>  <REMARK>
 VINA RESULT:      -6.9      2.352      6.645
  Name = 
  7 active torsions:
  status: ('A' for Active; 'I' for Inactive)
    1  A    between atoms: N_3  and  C_9
    2  A    between atoms: N_3  and  C_22
    3  A    between atoms: C_9  and  C_15
    4  A    between atoms: C_9  and  C_23
    5  A    between atoms: C_12  and  C_20
    6  A    between atoms: C_12  and  C_27
    7  A    between atoms: C_15  and  C_20
                            x       y       z     vdW  Elec       q    Type
                         _______ _______ _______ _____ _____    ______ ____

>  <TORSDO>
F 7

$$$$
=
 OpenBabel11052417433D

 31 35  0  0  1  0  0  0  0  0999 V2000
  189.2040  175.8420  144.1800 N   0  0  0  0  0  0  0  0  0  0  0  0
  189.1990  174.8160  143.2330 C   0  0  0  0  0  0  0  0  0  0  0  0
  188.9300  174.1430  140.8230 C   0  0  0  0  0  3  0  0  0  0  0  0
  189.2170  176.8330  145.1500 C   0  0  2  0  0  0  0  0  0  0  0  0
  188.9750  175.0760  141.9510 C   0  0  0  0  0  3  0  0  0  0  0  0
  189.6910  173.3920  145.3230 C   0  0  0  0  0  3  0  0  0  0  0  0
  189.0970  172.8250  140.8210 C   0  0  0  0  0  3  0  0  0  0  0  0
  189.4540  175.5660  145.6290 C   0  0  0  0  0  0  0  0  0  0  0  0
  189.3730  171.9190  141.9410 C   0  0  0  0  0  3  0  0  0  0  0  0
  189.6890  174.5110  146.2900 N   0  0  0  0  0  0  0  0  0  0  0  0
  189.4750  173.4770  143.9320 C   0  0  0  0  0  0  0  0  0  0  0  0
  189.5310  172.1890  143.2330 C   0  0  0  0  0  3  0  0  0  0  0  0
  186.0650  177.1610  147.0420 N   0  0  0  0  0  0  0  0  0  0  0  0
  185.5510  176.9280  145.6980 C   0  0  0  0  0  2  0  0  0  0  0  0
  185.3360  178.2950  147.5840 C   0  0  0  0  0  1  0  0  0  0  0  0
  187.4550  177.5780  146.8950 C   0  0  0  0  0  2  0  0  0  0  0  0
  187.8390  177.4670  145.4250 C   0  0  2  0  0  3  0  0  0  0  0  0
  186.7300  176.6670  144.7980 C   0  0  0  0  0  2  0  0  0  0  0  0
  190.4430  177.7270  145.0570 C   0  0  0  0  0  2  0  0  0  0  0  0
  191.4500  177.1460  144.0720 C   0  0  0  0  0  2  0  0  0  0  0  0
  192.8630  177.0850  144.6540 C   0  0  1  0  0  3  0  0  0  0  0  0
  194.2700  176.2050  146.5130 C   0  0  0  0  0  1  0  0  0  0  0  0
  192.8510  176.4170  146.0200 C   0  0  0  0  0  2  0  0  0  0  0  0
  193.7730  176.3810  143.7530 N   0  0  0  0  0  2  0  0  0  0  0  0
  193.1330  172.8350  142.9800 C   0  0  0  0  0  0  0  0  0  0  0  0
  192.7410  174.1260  140.9850 C   0  0  0  0  0  3  0  0  0  0  0  0
  193.1880  171.5270  143.6820 C   0  0  0  0  0  1  0  0  0  0  0  0
  193.4420  173.9790  143.6490 N   0  0  0  0  0  0  0  0  0  0  0  0
  193.0600  175.2880  141.6890 C   0  0  0  0  0  3  0  0  0  0  0  0
  193.4150  175.1960  143.0380 C   0  0  0  0  0  0  0  0  0  0  0  0
  192.7780  172.8900  141.6310 C   0  0  0  0  0  3  0  0  0  0  0  0
  1  4  1  0  0  0  0
  1  8  1  0  0  0  0
  2 11  1  0  0  0  0
  2  1  1  0  0  0  0
  3  5  1  0  0  0  0
  4 19  1  6  0  0  0
  4 17  1  0  0  0  0
  4  8  1  0  0  0  0
  5  2  2  0  0  0  0
  6 10  1  0  0  0  0
  7  3  2  0  0  0  0
  7  9  1  0  0  0  0
  8 10  2  0  0  0  0
  9 12  2  0  0  0  0
 11  6  2  0  0  0  0
 12 11  1  0  0  0  0
 13 15  1  0  0  0  0
 14 13  1  0  0  0  0
 16 13  1  0  0  0  0
 17 18  1  6  0  0  0
 17 16  1  0  0  0  0
 18 14  1  0  0  0  0
 20 19  1  0  0  0  0
 21 20  1  6  0  0  0
 21 23  1  0  0  0  0
 23 22  1  0  0  0  0
 24 21  1  0  0  0  0
 25 28  1  0  0  0  0
 25 27  1  0  0  0  0
 26 31  1  0  0  0  0
 26 29  2  0  0  0  0
 29 30  1  0  0  0  0
 30 28  2  0  0  0  0
 30 24  1  0  0  0  0
 31 25  2  0  0  0  0
M  END
>  <MODEL>
9

>  <REMARK>
 VINA RESULT:      -6.8      2.089      5.456
  Name = 
  7 active torsions:
  status: ('A' for Active; 'I' for Inactive)
    1  A    between atoms: N_3  and  C_9
    2  A    between atoms: N_3  and  C_22
    3  A    between atoms: C_9  and  C_15
    4  A    between atoms: C_9  and  C_23
    5  A    between atoms: C_12  and  C_20
    6  A    between atoms: C_12  and  C_27
    7  A    between atoms: C_15  and  C_20
                            x       y       z     vdW  Elec       q    Type
                         _______ _______ _______ _____ _____    ______ ____

>  <TORSDO>
F 7

$$$$
