=
 OpenBabel11052417563D

 31 34  0  0  1  0  0  0  0  0999 V2000
  184.5800  178.4860  146.1170 C   0  0  0  0  0  0  0  0  0  0  0  0
  187.4620  177.3850  143.8880 C   0  0  2  0  0  3  0  0  0  0  0  0
  187.2880  178.0530  142.5220 C   0  0  1  0  0  3  0  0  0  0  0  0
  186.6270  177.7260  145.0740 C   0  0  0  0  0  0  0  0  0  0  0  0
  185.0790  178.1130  147.3700 C   0  0  0  0  0  3  0  0  0  0  0  0
  189.2620  176.5280  145.2130 N   0  0  0  0  0  0  0  0  0  0  0  0
  183.3450  179.0320  146.0160 F   0  0  0  0  0  0  0  0  0  0  0  0
  189.5230  177.5350  142.9120 C   0  0  0  0  0  0  0  0  0  0  0  0
  188.5420  176.7790  146.4850 C   0  0  0  0  0  2  0  0  0  0  0  0
  188.9110  177.5860  144.2620 C   0  0  1  0  0  3  0  0  0  0  0  0
  185.3490  178.2840  144.9680 C   0  0  0  0  0  3  0  0  0  0  0  0
  187.1270  177.3310  146.3340 C   0  0  0  0  0  0  0  0  0  0  0  0
  186.3510  177.5420  147.4770 C   0  0  0  0  0  3  0  0  0  0  0  0
  190.7420  177.3290  142.6770 O   0  0  0  0  0  0  0  0  0  0  0  0
  188.5910  177.8740  141.8950 N   0  0  0  0  0  2  0  0  0  0  0  0
  186.2400  177.3250  141.6900 C   0  0  0  0  0  2  0  0  0  0  0  0
  185.4370  178.2830  140.8240 C   0  0  0  0  0  2  0  0  0  0  0  0
  183.9760  178.1420  141.0850 C   0  0  0  0  0  0  0  0  0  0  0  0
  183.1070  177.8760  140.0350 O   0  0  0  0  0  0  0  0  0  0  0  0
  183.5340  178.2330  142.2590 O   0  0  0  0  0  1  0  0  0  0  0  0
  190.6770  176.6470  145.5380 C   0  0  0  0  0  2  0  0  0  0  0  0
  190.6980  174.3110  145.2440 O   0  0  0  0  0  0  0  0  0  0  0  0
  191.2840  175.2900  145.6800 C   0  0  0  0  0  0  0  0  0  0  0  0
  194.2810  176.0070  144.2180 C   0  0  2  0  0  3  0  0  0  0  0  0
  193.2280  176.5130  146.7070 C   0  0  0  0  0  2  0  0  0  0  0  0
  193.5400  172.8810  146.0510 F   0  0  0  0  0  0  0  0  0  0  0  0
  195.3380  176.2210  143.1550 C   0  0  0  0  0  1  0  0  0  0  0  0
  194.6380  177.0620  145.6570 S   0  0  0  0  0  0  0  0  0  0  0  0
  193.5170  174.1820  145.6650 C   0  0  0  0  0  0  0  0  0  0  0  0
  192.6040  175.1460  146.3770 C   0  0  2  0  0  3  0  0  0  0  0  0
  194.2870  174.5790  144.6490 C   0  0  0  0  0  3  0  0  0  0  0  0
  1  5  1  0  0  0  0
  2 10  1  0  0  0  0
  2  4  1  1  0  0  0
  3 16  1  6  0  0  0
  3  2  1  0  0  0  0
  4 12  2  0  0  0  0
  5 13  2  0  0  0  0
  6 21  1  0  0  0  0
  6  9  1  0  0  0  0
  7  1  1  0  0  0  0
 10  8  1  6  0  0  0
 10  6  1  0  0  0  0
 11  4  1  0  0  0  0
 11  1  2  0  0  0  0
 12  9  1  0  0  0  0
 12 13  1  0  0  0  0
 14  8  2  0  0  0  0
 15  3  1  0  0  0  0
 15  8  1  0  0  0  0
 17 18  1  0  0  0  0
 17 16  1  0  0  0  0
 18 20  1  0  0  0  0
 19 18  2  0  0  0  0
 21 23  1  0  0  0  0
 22 23  2  0  0  0  0
 24 27  1  6  0  0  0
 24 31  1  0  0  0  0
 24 28  1  0  0  0  0
 28 25  1  0  0  0  0
 29 26  1  0  0  0  0
 29 30  1  0  0  0  0
 30 23  1  6  0  0  0
 30 25  1  0  0  0  0
 31 29  2  0  0  0  0
M  END
>  <MODEL>
1

>  <REMARK>
 VINA RESULT:      -8.5      0.000      0.000
  Name = 
  6 active torsions:
  status: ('A' for Active; 'I' for Inactive)
    1  A    between atoms: C_5  and  C_14
    2  A    between atoms: C_9  and  C_22
    3  A    between atoms: C_9  and  C_23
    4  A    between atoms: C_10  and  C_14
    5  A    between atoms: C_10  and  C_18
    6  A    between atoms: N_15  and  C_23
                            x       y       z     vdW  Elec       q    Type
                         _______ _______ _______ _____ _____    ______ ____

>  <TORSDO>
F 6

$$$$
=
 OpenBabel11052417563D

 31 34  0  0  1  0  0  0  0  0999 V2000
  184.8310  178.6390  145.9900 C   0  0  0  0  0  0  0  0  0  0  0  0
  187.9380  177.5350  144.0880 C   0  0  2  0  0  3  0  0  0  0  0  0
  187.9430  178.2460  142.7330 C   0  0  1  0  0  3  0  0  0  0  0  0
  186.9730  177.8610  145.1760 C   0  0  0  0  0  0  0  0  0  0  0  0
  185.1680  178.2190  147.2810 C   0  0  0  0  0  3  0  0  0  0  0  0
  189.5480  176.5980  145.5920 N   0  0  0  0  0  0  0  0  0  0  0  0
  183.6290  179.2170  145.7590 F   0  0  0  0  0  0  0  0  0  0  0  0
  190.1030  177.6640  143.3720 C   0  0  0  0  0  0  0  0  0  0  0  0
  188.6850  176.8290  146.7760 C   0  0  0  0  0  2  0  0  0  0  0  0
  189.3340  177.6910  144.6390 C   0  0  1  0  0  3  0  0  0  0  0  0
  185.7290  178.4520  144.9360 C   0  0  0  0  0  3  0  0  0  0  0  0
  187.3090  177.4190  146.4730 C   0  0  0  0  0  0  0  0  0  0  0  0
  186.4060  177.6140  147.5220 C   0  0  0  0  0  3  0  0  0  0  0  0
  191.3380  177.4370  143.2780 O   0  0  0  0  0  0  0  0  0  0  0  0
  189.3080  178.0550  142.2620 N   0  0  0  0  0  2  0  0  0  0  0  0
  186.9880  177.5680  141.7590 C   0  0  0  0  0  2  0  0  0  0  0  0
  186.7480  176.1110  142.1200 C   0  0  0  0  0  2  0  0  0  0  0  0
  187.8180  175.2380  141.5590 C   0  0  0  0  0  0  0  0  0  0  0  0
  188.5010  174.3580  142.3880 O   0  0  0  0  0  1  0  0  0  0  0  0
  188.0830  175.2770  140.3290 O   0  0  0  0  0  0  0  0  0  0  0  0
  190.9160  176.6740  146.0880 C   0  0  0  0  0  2  0  0  0  0  0  0
  190.9450  174.3830  145.5470 O   0  0  0  0  0  0  0  0  0  0  0  0
  191.5680  175.3350  145.9900 C   0  0  0  0  0  0  0  0  0  0  0  0
  194.2900  175.8810  144.0080 C   0  0  2  0  0  3  0  0  0  0  0  0
  193.6930  176.5300  146.6130 C   0  0  0  0  0  2  0  0  0  0  0  0
  193.7860  172.8640  146.0880 F   0  0  0  0  0  0  0  0  0  0  0  0
  195.1550  176.0120  142.7730 C   0  0  0  0  0  1  0  0  0  0  0  0
  194.9180  176.9830  145.3140 S   0  0  0  0  0  0  0  0  0  0  0  0
  193.7340  174.1480  145.6500 C   0  0  0  0  0  0  0  0  0  0  0  0
  192.9840  175.1730  146.4590 C   0  0  2  0  0  3  0  0  0  0  0  0
  194.3300  174.4730  144.5010 C   0  0  0  0  0  3  0  0  0  0  0  0
  1  5  1  0  0  0  0
  2 10  1  0  0  0  0
  2  4  1  1  0  0  0
  3 16  1  6  0  0  0
  3  2  1  0  0  0  0
  4 12  2  0  0  0  0
  5 13  2  0  0  0  0
  6 21  1  0  0  0  0
  6  9  1  0  0  0  0
  7  1  1  0  0  0  0
 10  8  1  6  0  0  0
 10  6  1  0  0  0  0
 11  4  1  0  0  0  0
 11  1  2  0  0  0  0
 12  9  1  0  0  0  0
 12 13  1  0  0  0  0
 14  8  2  0  0  0  0
 15  3  1  0  0  0  0
 15  8  1  0  0  0  0
 16 17  1  0  0  0  0
 18 17  1  0  0  0  0
 18 19  1  0  0  0  0
 20 18  2  0  0  0  0
 22 23  2  0  0  0  0
 23 21  1  0  0  0  0
 24 27  1  6  0  0  0
 24 31  1  0  0  0  0
 24 28  1  0  0  0  0
 28 25  1  0  0  0  0
 29 26  1  0  0  0  0
 29 30  1  0  0  0  0
 30 23  1  6  0  0  0
 30 25  1  0  0  0  0
 31 29  2  0  0  0  0
M  END
>  <MODEL>
2

>  <REMARK>
 VINA RESULT:      -8.2      1.655      1.952
  Name = 
  6 active torsions:
  status: ('A' for Active; 'I' for Inactive)
    1  A    between atoms: C_5  and  C_14
    2  A    between atoms: C_9  and  C_22
    3  A    between atoms: C_9  and  C_23
    4  A    between atoms: C_10  and  C_14
    5  A    between atoms: C_10  and  C_18
    6  A    between atoms: N_15  and  C_23
                            x       y       z     vdW  Elec       q    Type
                         _______ _______ _______ _____ _____    ______ ____

>  <TORSDO>
F 6

$$$$
=
 OpenBabel11052417563D

 31 34  0  0  1  0  0  0  0  0999 V2000
  184.9630  178.0470  146.6240 C   0  0  0  0  0  0  0  0  0  0  0  0
  185.3180  177.4980  142.8750 C   0  0  2  0  0  3  0  0  0  0  0  0
  184.4480  178.5330  142.1590 C   0  0  1  0  0  3  0  0  0  0  0  0
  185.5750  177.5250  144.3420 C   0  0  0  0  0  0  0  0  0  0  0  0
  186.0600  177.3130  147.0870 C   0  0  0  0  0  3  0  0  0  0  0  0
  187.2870  176.2210  142.4010 N   0  0  0  0  0  0  0  0  0  0  0  0
  184.1340  178.6540  147.5060 F   0  0  0  0  0  0  0  0  0  0  0  0
  186.1910  177.8270  140.7890 C   0  0  0  0  0  0  0  0  0  0  0  0
  187.6620  176.1330  143.8330 C   0  0  0  0  0  2  0  0  0  0  0  0
  186.6500  177.5200  142.1660 C   0  0  1  0  0  3  0  0  0  0  0  0
  184.7150  178.1460  145.2530 C   0  0  0  0  0  3  0  0  0  0  0  0
  186.6720  176.7670  144.8060 C   0  0  0  0  0  0  0  0  0  0  0  0
  186.9140  176.6790  146.1800 C   0  0  0  0  0  3  0  0  0  0  0  0
  186.8660  177.6430  139.7420 O   0  0  0  0  0  0  0  0  0  0  0  0
  184.9310  178.4820  140.7850 N   0  0  0  0  0  2  0  0  0  0  0  0
  182.9820  178.1190  142.1780 C   0  0  0  0  0  2  0  0  0  0  0  0
  182.3430  178.2260  140.8030 C   0  0  0  0  0  2  0  0  0  0  0  0
  180.9220  178.6660  140.9070 C   0  0  0  0  0  0  0  0  0  0  0  0
  179.9880  177.8510  141.5300 O   0  0  0  0  0  1  0  0  0  0  0  0
  180.5760  179.7890  140.4570 O   0  0  0  0  0  0  0  0  0  0  0  0
  188.5440  176.1800  141.6660 C   0  0  0  0  0  2  0  0  0  0  0  0
  187.8560  174.2090  140.5790 O   0  0  0  0  0  0  0  0  0  0  0  0
  188.7710  174.8090  141.1200 C   0  0  0  0  0  0  0  0  0  0  0  0
  189.6170  172.7030  143.6650 C   0  0  2  0  0  3  0  0  0  0  0  0
  190.0860  172.6710  140.9560 C   0  0  0  0  0  2  0  0  0  0  0  0
  191.6380  175.6090  142.5940 F   0  0  0  0  0  0  0  0  0  0  0  0
  189.6220  172.0300  145.0220 C   0  0  0  0  0  1  0  0  0  0  0  0
  190.1780  171.5250  142.3960 S   0  0  0  0  0  0  0  0  0  0  0  0
  190.7880  174.5510  142.5610 C   0  0  0  0  0  0  0  0  0  0  0  0
  190.1240  174.1780  141.2620 C   0  0  2  0  0  3  0  0  0  0  0  0
  190.5410  173.8730  143.6850 C   0  0  0  0  0  3  0  0  0  0  0  0
  1  5  1  0  0  0  0
  1  7  1  0  0  0  0
  2  4  1  1  0  0  0
  3 16  1  6  0  0  0
  3  2  1  0  0  0  0
  4 12  2  0  0  0  0
  4 11  1  0  0  0  0
  6  9  1  0  0  0  0
  9 12  1  0  0  0  0
 10  8  1  6  0  0  0
 10  6  1  0  0  0  0
 10  2  1  0  0  0  0
 11  1  2  0  0  0  0
 12 13  1  0  0  0  0
 13  5  2  0  0  0  0
 14  8  2  0  0  0  0
 15  8  1  0  0  0  0
 15  3  1  0  0  0  0
 17 18  1  0  0  0  0
 17 16  1  0  0  0  0
 18 19  1  0  0  0  0
 20 18  2  0  0  0  0
 21  6  1  0  0  0  0
 22 23  2  0  0  0  0
 23 21  1  0  0  0  0
 24 31  1  0  0  0  0
 24 27  1  1  0  0  0
 25 30  1  0  0  0  0
 25 28  1  0  0  0  0
 28 24  1  0  0  0  0
 29 26  1  0  0  0  0
 29 31  2  0  0  0  0
 30 23  1  1  0  0  0
 30 29  1  0  0  0  0
M  END
>  <MODEL>
3

>  <REMARK>
 VINA RESULT:      -8.0      3.225      4.173
  Name = 
  6 active torsions:
  status: ('A' for Active; 'I' for Inactive)
    1  A    between atoms: C_5  and  C_14
    2  A    between atoms: C_9  and  C_22
    3  A    between atoms: C_9  and  C_23
    4  A    between atoms: C_10  and  C_14
    5  A    between atoms: C_10  and  C_18
    6  A    between atoms: N_15  and  C_23
                            x       y       z     vdW  Elec       q    Type
                         _______ _______ _______ _____ _____    ______ ____

>  <TORSDO>
F 6

$$$$
=
 OpenBabel11052417563D

 31 34  0  0  1  0  0  0  0  0999 V2000
  184.8810  178.0320  146.6250 C   0  0  0  0  0  0  0  0  0  0  0  0
  185.3670  177.4600  142.8930 C   0  0  2  0  0  3  0  0  0  0  0  0
  184.5040  178.4760  142.1420 C   0  0  1  0  0  3  0  0  0  0  0  0
  185.5750  177.5020  144.3670 C   0  0  0  0  0  0  0  0  0  0  0  0
  185.9740  177.3180  147.1290 C   0  0  0  0  0  3  0  0  0  0  0  0
  187.3690  176.2110  142.4940 N   0  0  0  0  0  0  0  0  0  0  0  0
  184.0150  178.6320  147.4750 F   0  0  0  0  0  0  0  0  0  0  0  0
  186.3020  177.7870  140.8350 C   0  0  0  0  0  0  0  0  0  0  0  0
  187.7000  176.1400  143.9370 C   0  0  0  0  0  2  0  0  0  0  0  0
  186.7210  177.4980  142.2280 C   0  0  1  0  0  3  0  0  0  0  0  0
  184.6760  178.1160  145.2450 C   0  0  0  0  0  3  0  0  0  0  0  0
  186.6690  176.7650  144.8730 C   0  0  0  0  0  0  0  0  0  0  0  0
  186.8670  176.6910  146.2550 C   0  0  0  0  0  3  0  0  0  0  0  0
  187.0130  177.6070  139.8120 O   0  0  0  0  0  0  0  0  0  0  0  0
  185.0330  178.4220  140.7840 N   0  0  0  0  0  2  0  0  0  0  0  0
  183.0450  178.0380  142.1160 C   0  0  0  0  0  2  0  0  0  0  0  0
  182.4340  178.1760  140.7310 C   0  0  0  0  0  2  0  0  0  0  0  0
  181.0040  178.5850  140.8160 C   0  0  0  0  0  0  0  0  0  0  0  0
  180.6010  179.5020  141.7770 O   0  0  0  0  0  1  0  0  0  0  0  0
  180.1660  178.1240  139.9980 O   0  0  0  0  0  0  0  0  0  0  0  0
  188.6510  176.1850  141.8000 C   0  0  0  0  0  2  0  0  0  0  0  0
  188.7700  173.8710  142.2180 O   0  0  0  0  0  0  0  0  0  0  0  0
  189.3820  174.9250  142.1270 C   0  0  0  0  0  0  0  0  0  0  0  0
  190.8100  174.9110  145.2240 C   0  0  2  0  0  3  0  0  0  0  0  0
  191.4070  173.6280  142.8660 C   0  0  0  0  0  2  0  0  0  0  0  0
  191.6570  177.3090  142.5380 F   0  0  0  0  0  0  0  0  0  0  0  0
  190.9920  175.0990  146.7150 C   0  0  0  0  0  1  0  0  0  0  0  0
  191.8400  173.5220  144.6540 S   0  0  0  0  0  0  0  0  0  0  0  0
  191.2670  176.1750  143.1740 C   0  0  0  0  0  0  0  0  0  0  0  0
  190.8620  174.9750  142.3590 C   0  0  2  0  0  3  0  0  0  0  0  0
  191.2290  176.1510  144.5090 C   0  0  0  0  0  3  0  0  0  0  0  0
  1  5  1  0  0  0  0
  1  7  1  0  0  0  0
  2  4  1  1  0  0  0
  3 16  1  6  0  0  0
  3  2  1  0  0  0  0
  4 12  2  0  0  0  0
  4 11  1  0  0  0  0
  6  9  1  0  0  0  0
  9 12  1  0  0  0  0
 10  8  1  6  0  0  0
 10  6  1  0  0  0  0
 10  2  1  0  0  0  0
 11  1  2  0  0  0  0
 12 13  1  0  0  0  0
 13  5  2  0  0  0  0
 14  8  2  0  0  0  0
 15  8  1  0  0  0  0
 15  3  1  0  0  0  0
 17 18  1  0  0  0  0
 17 16  1  0  0  0  0
 18 19  1  0  0  0  0
 20 18  2  0  0  0  0
 21 23  1  0  0  0  0
 21  6  1  0  0  0  0
 23 22  2  0  0  0  0
 24 27  1  1  0  0  0
 25 28  1  0  0  0  0
 26 29  1  0  0  0  0
 28 24  1  0  0  0  0
 29 31  2  0  0  0  0
 30 23  1  1  0  0  0
 30 25  1  0  0  0  0
 30 29  1  0  0  0  0
 31 24  1  0  0  0  0
M  END
>  <MODEL>
4

>  <REMARK>
 VINA RESULT:      -7.8      2.544      3.530
  Name = 
  6 active torsions:
  status: ('A' for Active; 'I' for Inactive)
    1  A    between atoms: C_5  and  C_14
    2  A    between atoms: C_9  and  C_22
    3  A    between atoms: C_9  and  C_23
    4  A    between atoms: C_10  and  C_14
    5  A    between atoms: C_10  and  C_18
    6  A    between atoms: N_15  and  C_23
                            x       y       z     vdW  Elec       q    Type
                         _______ _______ _______ _____ _____    ______ ____

>  <TORSDO>
F 6

$$$$
=
 OpenBabel11052417563D

 31 34  0  0  1  0  0  0  0  0999 V2000
  184.9630  177.7840  146.2310 C   0  0  0  0  0  0  0  0  0  0  0  0
  187.9370  177.2800  143.9090 C   0  0  2  0  0  3  0  0  0  0  0  0
  187.6570  178.0360  142.6090 C   0  0  1  0  0  3  0  0  0  0  0  0
  187.0800  177.4000  145.1220 C   0  0  0  0  0  0  0  0  0  0  0  0
  185.5250  177.3730  147.4450 C   0  0  0  0  0  3  0  0  0  0  0  0
  189.8530  176.5590  145.1510 N   0  0  0  0  0  0  0  0  0  0  0  0
  183.6660  178.1660  146.1810 F   0  0  0  0  0  0  0  0  0  0  0  0
  189.9460  177.7900  142.9480 C   0  0  0  0  0  0  0  0  0  0  0  0
  189.1230  176.5980  146.4410 C   0  0  0  0  0  2  0  0  0  0  0  0
  189.3500  177.6400  144.2980 C   0  0  1  0  0  3  0  0  0  0  0  0
  185.7380  177.7890  145.0680 C   0  0  0  0  0  3  0  0  0  0  0  0
  187.6440  176.9670  146.3410 C   0  0  0  0  0  0  0  0  0  0  0  0
  186.8620  176.9700  147.5000 C   0  0  0  0  0  3  0  0  0  0  0  0
  191.1790  177.7720  142.6940 O   0  0  0  0  0  0  0  0  0  0  0  0
  188.9640  178.0900  141.9670 N   0  0  0  0  0  2  0  0  0  0  0  0
  186.7040  177.2500  141.7170 C   0  0  0  0  0  2  0  0  0  0  0  0
  185.9290  178.1580  140.7750 C   0  0  0  0  0  2  0  0  0  0  0  0
  184.4810  178.1830  141.1310 C   0  0  0  0  0  0  0  0  0  0  0  0
  184.0810  177.9060  142.4310 O   0  0  0  0  0  1  0  0  0  0  0  0
  183.6240  178.4860  140.2610 O   0  0  0  0  0  0  0  0  0  0  0  0
  191.2440  176.8380  145.4830 C   0  0  0  0  0  2  0  0  0  0  0  0
  192.1560  175.1590  146.8590 O   0  0  0  0  0  0  0  0  0  0  0  0
  191.9780  175.5590  145.7190 C   0  0  0  0  0  0  0  0  0  0  0  0
  195.0500  174.0800  145.6550 C   0  0  2  0  0  3  0  0  0  0  0  0
  192.5540  173.2780  144.8280 C   0  0  0  0  0  2  0  0  0  0  0  0
  193.7250  176.2700  142.9850 F   0  0  0  0  0  0  0  0  0  0  0  0
  196.5030  173.7880  145.9680 C   0  0  0  0  0  1  0  0  0  0  0  0
  194.2110  172.5440  145.1590 S   0  0  0  0  0  0  0  0  0  0  0  0
  193.7820  175.3810  144.0090 C   0  0  0  0  0  0  0  0  0  0  0  0
  192.5050  174.7900  144.5450 C   0  0  2  0  0  3  0  0  0  0  0  0
  194.9680  175.0620  144.5350 C   0  0  0  0  0  3  0  0  0  0  0  0
  1  5  1  0  0  0  0
  2 10  1  0  0  0  0
  2  4  1  1  0  0  0
  3 16  1  6  0  0  0
  3  2  1  0  0  0  0
  4 12  2  0  0  0  0
  5 13  2  0  0  0  0
  6 21  1  0  0  0  0
  6  9  1  0  0  0  0
  7  1  1  0  0  0  0
 10  8  1  6  0  0  0
 10  6  1  0  0  0  0
 11  4  1  0  0  0  0
 11  1  2  0  0  0  0
 12  9  1  0  0  0  0
 12 13  1  0  0  0  0
 14  8  2  0  0  0  0
 15  3  1  0  0  0  0
 15  8  1  0  0  0  0
 17 18  1  0  0  0  0
 17 16  1  0  0  0  0
 18 19  1  0  0  0  0
 20 18  2  0  0  0  0
 21 23  1  0  0  0  0
 23 22  2  0  0  0  0
 24 27  1  6  0  0  0
 25 28  1  0  0  0  0
 26 29  1  0  0  0  0
 28 24  1  0  0  0  0
 29 31  2  0  0  0  0
 29 30  1  0  0  0  0
 30 25  1  0  0  0  0
 30 23  1  1  0  0  0
 31 24  1  0  0  0  0
M  END
>  <MODEL>
5

>  <REMARK>
 VINA RESULT:      -7.8      1.521      1.886
  Name = 
  6 active torsions:
  status: ('A' for Active; 'I' for Inactive)
    1  A    between atoms: C_5  and  C_14
    2  A    between atoms: C_9  and  C_22
    3  A    between atoms: C_9  and  C_23
    4  A    between atoms: C_10  and  C_14
    5  A    between atoms: C_10  and  C_18
    6  A    between atoms: N_15  and  C_23
                            x       y       z     vdW  Elec       q    Type
                         _______ _______ _______ _____ _____    ______ ____

>  <TORSDO>
F 6

$$$$
=
 OpenBabel11052417563D

 31 34  0  0  1  0  0  0  0  0999 V2000
  185.0260  178.1150  146.3770 C   0  0  0  0  0  0  0  0  0  0  0  0
  185.2650  177.3960  142.6470 C   0  0  2  0  0  3  0  0  0  0  0  0
  184.4130  178.4310  141.9090 C   0  0  1  0  0  3  0  0  0  0  0  0
  185.5610  177.4760  144.1050 C   0  0  0  0  0  0  0  0  0  0  0  0
  186.1090  177.3610  146.8440 C   0  0  0  0  0  3  0  0  0  0  0  0
  187.1740  176.0300  142.1800 N   0  0  0  0  0  0  0  0  0  0  0  0
  184.2430  178.7890  147.2520 F   0  0  0  0  0  0  0  0  0  0  0  0
  186.0950  177.6050  140.5290 C   0  0  0  0  0  0  0  0  0  0  0  0
  187.5840  175.9880  143.6050 C   0  0  0  0  0  2  0  0  0  0  0  0
  186.5780  177.3400  141.9050 C   0  0  1  0  0  3  0  0  0  0  0  0
  184.7470  178.1650  145.0090 C   0  0  0  0  0  3  0  0  0  0  0  0
  186.6420  176.6990  144.5740 C   0  0  0  0  0  0  0  0  0  0  0  0
  186.9160  176.6590  145.9440 C   0  0  0  0  0  3  0  0  0  0  0  0
  186.7350  177.3530  139.4740 O   0  0  0  0  0  0  0  0  0  0  0  0
  184.8590  178.3050  140.5270 N   0  0  0  0  0  2  0  0  0  0  0  0
  182.9350  178.0720  141.9810 C   0  0  0  0  0  2  0  0  0  0  0  0
  182.2690  178.1270  140.6160 C   0  0  0  0  0  2  0  0  0  0  0  0
  180.8420  178.5420  140.7340 C   0  0  0  0  0  0  0  0  0  0  0  0
  180.4560  179.4190  141.7380 O   0  0  0  0  0  1  0  0  0  0  0  0
  179.9920  178.1210  139.9060 O   0  0  0  0  0  0  0  0  0  0  0  0
  188.4100  175.9130  141.4180 C   0  0  0  0  0  2  0  0  0  0  0  0
  190.2470  174.8160  142.4010 O   0  0  0  0  0  0  0  0  0  0  0  0
  189.1630  174.6980  141.8510 C   0  0  0  0  0  0  0  0  0  0  0  0
  190.9870  172.0490  140.7160 C   0  0  2  0  0  3  0  0  0  0  0  0
  189.0330  172.3110  142.6330 C   0  0  0  0  0  2  0  0  0  0  0  0
  187.7770  173.1600  139.2530 F   0  0  0  0  0  0  0  0  0  0  0  0
  192.0810  171.2530  140.0350 C   0  0  0  0  0  1  0  0  0  0  0  0
  190.3100  171.0910  142.1080 S   0  0  0  0  0  0  0  0  0  0  0  0
  188.7660  172.9190  140.1510 C   0  0  0  0  0  0  0  0  0  0  0  0
  188.5810  173.3420  141.5840 C   0  0  2  0  0  3  0  0  0  0  0  0
  189.8930  172.3300  139.7420 C   0  0  0  0  0  3  0  0  0  0  0  0
  1  5  1  0  0  0  0
  1  7  1  0  0  0  0
  2  4  1  1  0  0  0
  3 16  1  6  0  0  0
  3  2  1  0  0  0  0
  4 12  2  0  0  0  0
  4 11  1  0  0  0  0
  6  9  1  0  0  0  0
  9 12  1  0  0  0  0
 10  8  1  6  0  0  0
 10  6  1  0  0  0  0
 10  2  1  0  0  0  0
 11  1  2  0  0  0  0
 12 13  1  0  0  0  0
 13  5  2  0  0  0  0
 14  8  2  0  0  0  0
 15  8  1  0  0  0  0
 15  3  1  0  0  0  0
 17 18  1  0  0  0  0
 17 16  1  0  0  0  0
 18 19  1  0  0  0  0
 20 18  2  0  0  0  0
 21 23  1  0  0  0  0
 21  6  1  0  0  0  0
 23 22  2  0  0  0  0
 24 27  1  6  0  0  0
 24 28  1  0  0  0  0
 26 29  1  0  0  0  0
 28 25  1  0  0  0  0
 29 30  1  0  0  0  0
 30 23  1  6  0  0  0
 30 25  1  0  0  0  0
 31 29  2  0  0  0  0
 31 24  1  0  0  0  0
M  END
>  <MODEL>
6

>  <REMARK>
 VINA RESULT:      -7.6      3.910      4.630
  Name = 
  6 active torsions:
  status: ('A' for Active; 'I' for Inactive)
    1  A    between atoms: C_5  and  C_14
    2  A    between atoms: C_9  and  C_22
    3  A    between atoms: C_9  and  C_23
    4  A    between atoms: C_10  and  C_14
    5  A    between atoms: C_10  and  C_18
    6  A    between atoms: N_15  and  C_23
                            x       y       z     vdW  Elec       q    Type
                         _______ _______ _______ _____ _____    ______ ____

>  <TORSDO>
F 6

$$$$
=
 OpenBabel11052417563D

 31 34  0  0  1  0  0  0  0  0999 V2000
  186.1510  178.1370  142.7070 C   0  0  0  0  0  0  0  0  0  0  0  0
  188.7110  176.8450  145.2110 C   0  0  2  0  0  3  0  0  0  0  0  0
  187.9530  176.2450  146.3970 C   0  0  1  0  0  3  0  0  0  0  0  0
  188.0410  177.2810  143.9530 C   0  0  0  0  0  0  0  0  0  0  0  0
  186.9650  178.2910  141.5790 C   0  0  0  0  0  3  0  0  0  0  0  0
  190.8420  176.5640  144.1570 N   0  0  0  0  0  0  0  0  0  0  0  0
  184.8430  178.4790  142.6500 F   0  0  0  0  0  0  0  0  0  0  0  0
  190.0680  175.2960  146.1980 C   0  0  0  0  0  0  0  0  0  0  0  0
  190.3300  177.0090  142.8380 C   0  0  0  0  0  2  0  0  0  0  0  0
  189.7740  175.8370  144.8490 C   0  0  1  0  0  3  0  0  0  0  0  0
  186.6910  177.6410  143.8960 C   0  0  0  0  0  3  0  0  0  0  0  0
  188.8690  177.4530  142.8220 C   0  0  0  0  0  0  0  0  0  0  0  0
  188.3180  177.9460  141.6360 C   0  0  0  0  0  3  0  0  0  0  0  0
  191.1050  174.6530  146.5110 O   0  0  0  0  0  0  0  0  0  0  0  0
  188.9770  175.4720  147.0890 N   0  0  0  0  0  2  0  0  0  0  0  0
  187.4490  177.3380  147.3300 C   0  0  0  0  0  2  0  0  0  0  0  0
  185.9400  177.2830  147.5080 C   0  0  0  0  0  2  0  0  0  0  0  0
  185.3190  178.6050  147.2130 C   0  0  0  0  0  0  0  0  0  0  0  0
  185.9400  179.7730  147.6360 O   0  0  0  0  0  1  0  0  0  0  0  0
  184.2480  178.6660  146.5550 O   0  0  0  0  0  0  0  0  0  0  0  0
  191.9210  175.6320  143.8590 C   0  0  0  0  0  2  0  0  0  0  0  0
  193.3470  177.1090  145.0120 O   0  0  0  0  0  0  0  0  0  0  0  0
  193.2410  176.2800  144.1220 C   0  0  0  0  0  0  0  0  0  0  0  0
  195.4580  173.8150  144.9220 C   0  0  2  0  0  3  0  0  0  0  0  0
  194.2240  174.5540  142.5780 C   0  0  0  0  0  2  0  0  0  0  0  0
  196.4130  177.2370  143.8930 F   0  0  0  0  0  0  0  0  0  0  0  0
  196.2770  172.8400  145.7410 C   0  0  0  0  0  1  0  0  0  0  0  0
  195.1670  173.1270  143.2630 S   0  0  0  0  0  0  0  0  0  0  0  0
  195.7220  176.0740  144.0080 C   0  0  0  0  0  0  0  0  0  0  0  0
  194.4190  175.9140  143.2700 C   0  0  2  0  0  3  0  0  0  0  0  0
  196.2000  175.1030  144.7900 C   0  0  0  0  0  3  0  0  0  0  0  0
  1 11  1  0  0  0  0
  2  4  1  6  0  0  0
  2  3  1  0  0  0  0
  3 15  1  0  0  0  0
  3 16  1  1  0  0  0
  5 13  1  0  0  0  0
  5  1  2  0  0  0  0
  6 10  1  0  0  0  0
  7  1  1  0  0  0  0
  8 14  2  0  0  0  0
  8 15  1  0  0  0  0
  9  6  1  0  0  0  0
 10  2  1  0  0  0  0
 10  8  1  1  0  0  0
 11  4  2  0  0  0  0
 12  9  1  0  0  0  0
 12  4  1  0  0  0  0
 13 12  2  0  0  0  0
 16 17  1  0  0  0  0
 18 17  1  0  0  0  0
 18 19  1  0  0  0  0
 20 18  2  0  0  0  0
 21 23  1  0  0  0  0
 21  6  1  0  0  0  0
 23 22  2  0  0  0  0
 24 27  1  1  0  0  0
 25 28  1  0  0  0  0
 25 30  1  0  0  0  0
 26 29  1  0  0  0  0
 28 24  1  0  0  0  0
 29 31  2  0  0  0  0
 30 29  1  0  0  0  0
 30 23  1  1  0  0  0
 31 24  1  0  0  0  0
M  END
>  <MODEL>
7

>  <REMARK>
 VINA RESULT:      -7.6      2.597      4.428
  Name = 
  6 active torsions:
  status: ('A' for Active; 'I' for Inactive)
    1  A    between atoms: C_5  and  C_14
    2  A    between atoms: C_9  and  C_22
    3  A    between atoms: C_9  and  C_23
    4  A    between atoms: C_10  and  C_14
    5  A    between atoms: C_10  and  C_18
    6  A    between atoms: N_15  and  C_23
                            x       y       z     vdW  Elec       q    Type
                         _______ _______ _______ _____ _____    ______ ____

>  <TORSDO>
F 6

$$$$
=
 OpenBabel11052417563D

 31 34  0  0  1  0  0  0  0  0999 V2000
  185.9810  177.1660  142.0450 C   0  0  0  0  0  0  0  0  0  0  0  0
  188.2250  176.4680  145.0390 C   0  0  2  0  0  3  0  0  0  0  0  0
  187.3450  176.4150  146.2890 C   0  0  1  0  0  3  0  0  0  0  0  0
  187.6730  176.5370  143.6570 C   0  0  0  0  0  0  0  0  0  0  0  0
  186.8440  176.8160  141.0010 C   0  0  0  0  0  3  0  0  0  0  0  0
  190.3190  175.5600  144.3180 N   0  0  0  0  0  0  0  0  0  0  0  0
  184.7440  177.6420  141.7690 F   0  0  0  0  0  0  0  0  0  0  0  0
  189.2920  175.1780  146.5930 C   0  0  0  0  0  0  0  0  0  0  0  0
  189.9260  175.5960  142.8890 C   0  0  0  0  0  2  0  0  0  0  0  0
  189.1300  175.2630  145.1210 C   0  0  1  0  0  3  0  0  0  0  0  0
  186.3980  177.0360  143.3720 C   0  0  0  0  0  3  0  0  0  0  0  0
  188.5540  176.2010  142.6060 C   0  0  0  0  0  0  0  0  0  0  0  0
  188.1250  176.3310  141.2820 C   0  0  0  0  0  3  0  0  0  0  0  0
  190.2050  174.5460  147.1860 O   0  0  0  0  0  0  0  0  0  0  0  0
  188.2120  175.7930  147.2810 N   0  0  0  0  0  2  0  0  0  0  0  0
  186.9860  177.8180  146.7630 C   0  0  0  0  0  2  0  0  0  0  0  0
  185.4870  177.9880  146.9520 C   0  0  0  0  0  2  0  0  0  0  0  0
  184.9320  178.9610  145.9670 C   0  0  0  0  0  0  0  0  0  0  0  0
  185.7880  179.7880  145.2520 O   0  0  0  0  0  0  0  0  0  0  0  0
  183.6920  179.0110  145.7610 O   0  0  0  0  0  1  0  0  0  0  0  0
  191.2500  174.4460  144.4380 C   0  0  0  0  0  2  0  0  0  0  0  0
  192.8700  174.0750  142.7700 O   0  0  0  0  0  0  0  0  0  0  0  0
  192.5190  174.7620  143.7170 C   0  0  0  0  0  0  0  0  0  0  0  0
  195.5690  174.4020  145.2000 C   0  0  2  0  0  3  0  0  0  0  0  0
  194.5930  176.1190  143.2870 C   0  0  0  0  0  2  0  0  0  0  0  0
  192.8330  176.5110  146.5230 F   0  0  0  0  0  0  0  0  0  0  0  0
  196.7180  173.7930  145.9760 C   0  0  0  0  0  1  0  0  0  0  0  0
  196.2160  175.5750  143.9680 S   0  0  0  0  0  0  0  0  0  0  0  0
  193.6430  175.8470  145.6580 C   0  0  0  0  0  0  0  0  0  0  0  0
  193.3580  175.9140  144.1810 C   0  0  2  0  0  3  0  0  0  0  0  0
  194.6640  175.1300  146.1360 C   0  0  0  0  0  3  0  0  0  0  0  0
  1 11  1  0  0  0  0
  2  4  1  6  0  0  0
  2 10  1  0  0  0  0
  2  3  1  0  0  0  0
  3 16  1  1  0  0  0
  3 15  1  0  0  0  0
  5 13  1  0  0  0  0
  5  1  2  0  0  0  0
  6 21  1  0  0  0  0
  6 10  1  0  0  0  0
  7  1  1  0  0  0  0
  8 14  2  0  0  0  0
  8 15  1  0  0  0  0
  9  6  1  0  0  0  0
 10  8  1  1  0  0  0
 11  4  2  0  0  0  0
 12  9  1  0  0  0  0
 12  4  1  0  0  0  0
 13 12  2  0  0  0  0
 16 17  1  0  0  0  0
 18 17  1  0  0  0  0
 19 18  2  0  0  0  0
 20 18  1  0  0  0  0
 22 23  2  0  0  0  0
 23 21  1  0  0  0  0
 24 27  1  1  0  0  0
 24 31  1  0  0  0  0
 25 28  1  0  0  0  0
 25 30  1  0  0  0  0
 28 24  1  0  0  0  0
 29 31  2  0  0  0  0
 29 26  1  0  0  0  0
 30 23  1  6  0  0  0
 30 29  1  0  0  0  0
M  END
>  <MODEL>
8

>  <REMARK>
 VINA RESULT:      -7.5      2.337      4.074
  Name = 
  6 active torsions:
  status: ('A' for Active; 'I' for Inactive)
    1  A    between atoms: C_5  and  C_14
    2  A    between atoms: C_9  and  C_22
    3  A    between atoms: C_9  and  C_23
    4  A    between atoms: C_10  and  C_14
    5  A    between atoms: C_10  and  C_18
    6  A    between atoms: N_15  and  C_23
                            x       y       z     vdW  Elec       q    Type
                         _______ _______ _______ _____ _____    ______ ____

>  <TORSDO>
F 6

$$$$
=
 OpenBabel11052417563D

 31 34  0  0  1  0  0  0  0  0999 V2000
  185.5680  177.4180  142.4220 C   0  0  0  0  0  0  0  0  0  0  0  0
  188.2330  176.5850  145.0090 C   0  0  2  0  0  3  0  0  0  0  0  0
  187.5300  176.0530  146.2600 C   0  0  1  0  0  3  0  0  0  0  0  0
  187.5250  176.8380  143.7230 C   0  0  0  0  0  0  0  0  0  0  0  0
  186.3610  177.5170  141.2730 C   0  0  0  0  0  3  0  0  0  0  0  0
  190.3730  176.3590  143.9600 N   0  0  0  0  0  0  0  0  0  0  0  0
  184.2370  177.6530  142.3470 F   0  0  0  0  0  0  0  0  0  0  0  0
  189.7100  175.2500  146.1300 C   0  0  0  0  0  0  0  0  0  0  0  0
  189.8210  176.6270  142.6100 C   0  0  0  0  0  2  0  0  0  0  0  0
  189.3680  175.6280  144.7370 C   0  0  1  0  0  3  0  0  0  0  0  0
  186.1510  177.0880  143.6480 C   0  0  0  0  0  3  0  0  0  0  0  0
  188.3310  176.9560  142.5700 C   0  0  0  0  0  0  0  0  0  0  0  0
  187.7370  177.2820  141.3470 C   0  0  0  0  0  3  0  0  0  0  0  0
  190.7940  174.7230  146.4920 O   0  0  0  0  0  0  0  0  0  0  0  0
  188.6130  175.4340  147.0130 N   0  0  0  0  0  2  0  0  0  0  0  0
  186.9490  177.1940  147.0850 C   0  0  0  0  0  2  0  0  0  0  0  0
  185.4310  177.2360  147.0090 C   0  0  0  0  0  2  0  0  0  0  0  0
  184.9500  178.6060  146.6720 C   0  0  0  0  0  0  0  0  0  0  0  0
  183.7590  178.7720  145.9800 O   0  0  0  0  0  0  0  0  0  0  0  0
  185.6080  179.6130  147.0420 O   0  0  0  0  0  1  0  0  0  0  0  0
  191.5190  175.4850  143.7450 C   0  0  0  0  0  2  0  0  0  0  0  0
  192.7690  177.3430  144.4690 O   0  0  0  0  0  0  0  0  0  0  0  0
  192.7630  176.1430  144.2440 C   0  0  0  0  0  0  0  0  0  0  0  0
  195.3660  176.0710  142.0430 C   0  0  2  0  0  3  0  0  0  0  0  0
  195.2190  176.1910  144.7860 C   0  0  0  0  0  2  0  0  0  0  0  0
  193.7370  173.0670  143.4570 F   0  0  0  0  0  0  0  0  0  0  0  0
  196.1480  176.1700  140.7490 C   0  0  0  0  0  1  0  0  0  0  0  0
  196.4600  176.4480  143.4480 S   0  0  0  0  0  0  0  0  0  0  0  0
  194.2090  174.3330  143.3260 C   0  0  0  0  0  0  0  0  0  0  0  0
  193.9980  175.3180  144.4460 C   0  0  2  0  0  3  0  0  0  0  0  0
  194.8330  174.6870  142.2000 C   0  0  0  0  0  3  0  0  0  0  0  0
  1 11  1  0  0  0  0
  2  4  1  6  0  0  0
  2  3  1  0  0  0  0
  3 15  1  0  0  0  0
  3 16  1  1  0  0  0
  5 13  1  0  0  0  0
  5  1  2  0  0  0  0
  6 10  1  0  0  0  0
  7  1  1  0  0  0  0
  8 14  2  0  0  0  0
  8 15  1  0  0  0  0
  9  6  1  0  0  0  0
 10  2  1  0  0  0  0
 10  8  1  1  0  0  0
 11  4  2  0  0  0  0
 12  9  1  0  0  0  0
 12  4  1  0  0  0  0
 13 12  2  0  0  0  0
 17 16  1  0  0  0  0
 18 17  1  0  0  0  0
 18 20  1  0  0  0  0
 19 18  2  0  0  0  0
 21  6  1  0  0  0  0
 21 23  1  0  0  0  0
 23 22  2  0  0  0  0
 24 27  1  6  0  0  0
 24 31  1  0  0  0  0
 24 28  1  0  0  0  0
 28 25  1  0  0  0  0
 29 26  1  0  0  0  0
 29 30  1  0  0  0  0
 30 23  1  6  0  0  0
 30 25  1  0  0  0  0
 31 29  2  0  0  0  0
M  END
>  <MODEL>
9

>  <REMARK>
 VINA RESULT:      -7.3      2.196      3.983
  Name = 
  6 active torsions:
  status: ('A' for Active; 'I' for Inactive)
    1  A    between atoms: C_5  and  C_14
    2  A    between atoms: C_9  and  C_22
    3  A    between atoms: C_9  and  C_23
    4  A    between atoms: C_10  and  C_14
    5  A    between atoms: C_10  and  C_18
    6  A    between atoms: N_15  and  C_23
                            x       y       z     vdW  Elec       q    Type
                         _______ _______ _______ _____ _____    ______ ____

>  <TORSDO>
F 6

$$$$
