=
 OpenBabel11052421273D

 32 37  0  0  1  0  0  0  0  0999 V2000
  192.9800  175.9900  146.6240 N   0  0  0  0  0  2  0  0  0  0  0  0
  188.4090  176.4440  144.1860 C   0  0  0  0  0  0  0  0  0  0  0  0
  185.7080  178.7000  147.7000 C   0  0  0  0  0  3  0  0  0  0  0  0
  184.5770  178.6140  146.8900 C   0  0  0  0  0  3  0  0  0  0  0  0
  187.3040  177.0950  142.0110 C   0  0  0  0  0  0  0  0  0  0  0  0
  186.0040  177.5940  141.6510 C   0  0  0  0  0  0  0  0  0  0  0  0
  190.6100  175.6320  144.6750 N   0  0  0  0  0  0  0  0  0  0  0  0
  189.3910  176.9550  146.3600 C   0  0  0  0  0  3  0  0  0  0  0  0
  183.3400  178.3230  141.4670 C   0  0  0  0  0  0  0  0  0  0  0  0
  191.5640  175.8750  146.9470 C   0  0  0  0  0  2  0  0  0  0  0  0
  186.9200  178.1620  147.2660 C   0  0  0  0  0  3  0  0  0  0  0  0
  188.3150  176.9730  145.5600 C   0  0  0  0  0  0  0  0  0  0  0  0
  187.0190  177.5350  146.0110 C   0  0  0  0  0  0  0  0  0  0  0  0
  185.9000  176.7100  143.8610 C   0  0  2  0  0  3  0  0  0  0  0  0
  184.2090  178.5400  140.3790 C   0  0  0  0  0  3  0  0  0  0  0  0
  192.9530  174.9760  144.3970 C   0  0  0  0  0  3  0  0  0  0  0  0
  190.7340  176.5150  145.8460 C   0  0  1  0  0  3  0  0  0  0  0  0
  185.5600  178.1690  140.4620 C   0  0  0  0  0  3  0  0  0  0  0  0
  191.5270  174.5190  144.4500 C   0  0  0  0  0  2  0  0  0  0  0  0
  193.6010  175.6010  145.3860 C   0  0  0  0  0  0  0  0  0  0  0  0
  184.6580  177.9930  145.6420 C   0  0  0  0  0  3  0  0  0  0  0  0
  185.8750  177.4720  145.1740 C   0  0  0  0  0  0  0  0  0  0  0  0
  183.8170  177.7370  142.6520 C   0  0  0  0  0  3  0  0  0  0  0  0
  189.4960  175.7790  143.7870 C   0  0  0  0  0  3  0  0  0  0  0  0
  188.3370  177.1520  141.2920 O   0  0  0  0  0  0  0  0  0  0  0  0
  181.6550  178.7790  141.3400 Cl  0  0  0  0  0  0  0  0  0  0  0  0
  187.2680  176.5690  143.3350 N   0  0  0  0  0  0  0  0  0  0  0  0
  185.1690  177.3970  142.7300 C   0  0  0  0  0  0  0  0  0  0  0  0
  196.0690  174.7780  145.6200 O   0  0  0  0  0  0  0  0  0  0  0  0
  195.3080  176.0030  145.1320 S   0  0  1  0  0  0  0  0  0  0  0  0
  195.5470  175.9770  143.0320 S   0  0  0  0  0  0  0  0  0  0  0  0
  197.1710  176.7770  143.1430 C   0  0  0  0  0  1  0  0  0  0  0  0
  1 10  1  0  0  0  0
  2 12  1  0  0  0  0
  4  3  2  0  0  0  0
  5 27  1  0  0  0  0
  6  5  1  0  0  0  0
  6 28  1  0  0  0  0
  7 17  1  0  0  0  0
  9 23  1  0  0  0  0
 11  3  1  0  0  0  0
 12 13  1  0  0  0  0
 12  8  2  0  0  0  0
 13 11  2  0  0  0  0
 14 28  1  6  0  0  0
 14 22  1  0  0  0  0
 15 18  1  0  0  0  0
 15  9  2  0  0  0  0
 16 19  1  0  0  0  0
 16 20  2  0  0  0  0
 17  8  1  1  0  0  0
 17 10  1  0  0  0  0
 18  6  2  0  0  0  0
 19  7  1  0  0  0  0
 20  1  1  0  0  0  0
 21  4  1  0  0  0  0
 22 21  2  0  0  0  0
 22 13  1  0  0  0  0
 23 28  2  0  0  0  0
 24  2  2  0  0  0  0
 24  7  1  0  0  0  0
 25  5  2  0  0  0  0
 26  9  1  0  0  0  0
 27 14  1  0  0  0  0
 27  2  1  0  0  0  0
 30 20  1  0  0  0  0
 30 29  2  1  0  0  0
 31 32  1  0  0  0  0
 31 30  1  0  0  0  0
M  END
>  <MODEL>
1

>  <REMARK>
 VINA RESULT:      -9.7      0.000      0.000
  Name = 
  2 active torsions:
  status: ('A' for Active; 'I' for Inactive)
    1  A    between atoms: S_1  and  S_20
    2  A    between atoms: S_20  and  C_24
                            x       y       z     vdW  Elec       q    Type
                         _______ _______ _______ _____ _____    ______ ____

>  <TORSDO>
F 2

$$$$
=
 OpenBabel11052421273D

 32 37  0  0  1  0  0  0  0  0999 V2000
  195.3930  173.8620  143.3910 N   0  0  0  0  0  0  0  0  0  0  0  0
  191.0560  176.4980  144.5290 C   0  0  0  0  0  0  0  0  0  0  0  0
  188.1420  175.1680  140.7240 C   0  0  0  0  0  3  0  0  0  0  0  0
  187.1490  176.0350  141.1780 C   0  0  0  0  0  3  0  0  0  0  0  0
  189.4540  177.1000  146.3850 C   0  0  0  0  0  0  0  0  0  0  0  0
  188.0630  177.4630  146.4370 C   0  0  0  0  0  0  0  0  0  0  0  0
  193.3740  175.8870  144.5600 N   0  0  0  0  0  0  0  0  0  0  0  0
  191.9010  175.0140  142.7870 C   0  0  0  0  0  3  0  0  0  0  0  0
  185.4660  178.3040  145.9780 C   0  0  0  0  0  0  0  0  0  0  0  0
  194.3630  174.6110  142.6820 C   0  0  0  0  0  2  0  0  0  0  0  0
  189.3590  175.0860  141.4010 C   0  0  0  0  0  3  0  0  0  0  0  0
  190.8950  175.7640  143.2590 C   0  0  0  0  0  0  0  0  0  0  0  0
  189.5990  175.8670  142.5460 C   0  0  0  0  0  0  0  0  0  0  0  0
  188.8250  177.6720  144.1900 C   0  0  2  0  0  3  0  0  0  0  0  0
  185.8760  177.9540  147.2800 C   0  0  0  0  0  3  0  0  0  0  0  0
  195.5970  175.2730  145.3800 C   0  0  0  0  0  2  0  0  0  0  0  0
  193.1560  174.8040  143.5870 C   0  0  1  0  0  3  0  0  0  0  0  0
  187.1920  177.5310  147.5230 C   0  0  0  0  0  3  0  0  0  0  0  0
  194.7110  176.3730  144.8840 C   0  0  0  0  0  2  0  0  0  0  0  0
  195.9220  174.1730  144.6920 C   0  0  0  0  0  0  0  0  0  0  0  0
  187.3720  176.8170  142.3130 C   0  0  0  0  0  3  0  0  0  0  0  0
  188.5780  176.7280  143.0260 C   0  0  0  0  0  0  0  0  0  0  0  0
  186.3690  178.2300  144.9050 C   0  0  0  0  0  3  0  0  0  0  0  0
  192.2510  176.5750  145.1220 C   0  0  0  0  0  3  0  0  0  0  0  0
  190.1450  176.6990  147.3590 O   0  0  0  0  0  0  0  0  0  0  0  0
  183.8250  178.8430  145.6980 Cl  0  0  0  0  0  0  0  0  0  0  0  0
  189.9300  177.2080  145.0450 N   0  0  0  0  0  0  0  0  0  0  0  0
  187.6680  177.7820  145.1550 C   0  0  0  0  0  0  0  0  0  0  0  0
  197.1780  173.5110  146.8840 O   0  0  0  0  0  0  0  0  0  0  0  0
  197.0360  173.0210  145.4500 S   0  0  1  0  0  0  0  0  0  0  0  0
  195.9200  171.2340  145.6040 S   0  0  0  0  0  0  0  0  0  0  0  0
  197.4010  170.2130  145.3720 C   0  0  0  0  0  1  0  0  0  0  0  0
  1 20  2  0  0  0  0
  2 27  1  0  0  0  0
  2 24  2  0  0  0  0
  3  4  2  0  0  0  0
  3 11  1  0  0  0  0
  4 21  1  0  0  0  0
  5  6  1  0  0  0  0
  5 25  2  0  0  0  0
  6 18  1  0  0  0  0
  7 19  1  0  0  0  0
  7 24  1  0  0  0  0
  8 12  2  0  0  0  0
  8 17  1  0  0  0  0
  9 15  1  0  0  0  0
 10  1  1  0  0  0  0
 11 13  2  0  0  0  0
 12  2  1  0  0  0  0
 13 22  1  0  0  0  0
 13 12  1  0  0  0  0
 14 22  1  6  0  0  0
 14 27  1  0  0  0  0
 14 28  1  0  0  0  0
 15 18  2  0  0  0  0
 17 10  1  6  0  0  0
 17  7  1  0  0  0  0
 19 16  1  0  0  0  0
 20 16  1  0  0  0  0
 20 30  1  0  0  0  0
 21 22  2  0  0  0  0
 23 28  1  0  0  0  0
 23  9  2  0  0  0  0
 26  9  1  0  0  0  0
 27  5  1  0  0  0  0
 28  6  2  0  0  0  0
 30 31  1  0  0  0  0
 30 29  2  1  0  0  0
 32 31  1  0  0  0  0
M  END
>  <MODEL>
2

>  <REMARK>
 VINA RESULT:      -8.5      2.679      4.844
  Name = 
  2 active torsions:
  status: ('A' for Active; 'I' for Inactive)
    1  A    between atoms: S_1  and  S_20
    2  A    between atoms: S_20  and  C_24
                            x       y       z     vdW  Elec       q    Type
                         _______ _______ _______ _____ _____    ______ ____

>  <TORSDO>
F 2

$$$$
=
 OpenBabel11052421273D

 32 37  0  0  1  0  0  0  0  0999 V2000
  182.9220  178.5600  142.7180 N   0  0  0  0  0  2  0  0  0  0  0  0
  187.5950  176.3310  142.2220 C   0  0  0  0  0  0  0  0  0  0  0  0
  188.8050  175.6530  146.9990 C   0  0  0  0  0  3  0  0  0  0  0  0
  190.0580  175.1750  146.6160 C   0  0  0  0  0  3  0  0  0  0  0  0
  188.9000  174.5680  140.9730 C   0  0  0  0  0  0  0  0  0  0  0  0
  190.0600  173.7720  141.2720 C   0  0  0  0  0  0  0  0  0  0  0  0
  185.6460  177.5930  141.6270 N   0  0  0  0  0  0  0  0  0  0  0  0
  186.0890  177.0690  143.9940 C   0  0  0  0  0  3  0  0  0  0  0  0
  192.4050  172.6600  142.2360 C   0  0  0  0  0  0  0  0  0  0  0  0
  184.2200  178.6060  143.3800 C   0  0  0  0  0  2  0  0  0  0  0  0
  187.9010  176.0910  146.0310 C   0  0  0  0  0  3  0  0  0  0  0  0
  187.2590  176.5140  143.6470 C   0  0  0  0  0  0  0  0  0  0  0  0
  188.2340  176.0510  144.6660 C   0  0  0  0  0  0  0  0  0  0  0  0
  189.9480  175.5760  142.8240 C   0  0  2  0  0  3  0  0  0  0  0  0
  191.7510  172.0820  141.1300 C   0  0  0  0  0  3  0  0  0  0  0  0
  183.6780  178.3740  140.3980 C   0  0  0  0  0  3  0  0  0  0  0  0
  185.0510  177.4030  142.9610 C   0  0  1  0  0  3  0  0  0  0  0  0
  190.5640  172.6420  140.6320 C   0  0  0  0  0  3  0  0  0  0  0  0
  185.1320  178.5850  140.6890 C   0  0  0  0  0  2  0  0  0  0  0  0
  182.6960  178.3990  141.3070 C   0  0  0  0  0  0  0  0  0  0  0  0
  190.4040  175.1300  145.2650 C   0  0  0  0  0  3  0  0  0  0  0  0
  189.4970  175.5370  144.2740 C   0  0  0  0  0  0  0  0  0  0  0  0
  191.8750  173.8030  142.8570 C   0  0  0  0  0  3  0  0  0  0  0  0
  186.8340  176.8780  141.2700 C   0  0  0  0  0  3  0  0  0  0  0  0
  188.0590  174.3280  140.0660 O   0  0  0  0  0  0  0  0  0  0  0  0
  193.8920  171.9570  142.8340 Cl  0  0  0  0  0  0  0  0  0  0  0  0
  188.8070  175.6500  141.8970 N   0  0  0  0  0  0  0  0  0  0  0  0
  190.6790  174.3340  142.3680 C   0  0  0  0  0  0  0  0  0  0  0  0
  180.2840  177.6170  141.9330 O   0  0  0  0  0  0  0  0  0  0  0  0
  181.0330  178.1810  140.7340 S   0  0  1  0  0  0  0  0  0  0  0  0
  180.2900  180.1470  140.5170 S   0  0  0  0  0  0  0  0  0  0  0  0
  178.6050  179.6260  140.9440 C   0  0  0  0  0  1  0  0  0  0  0  0
  1 10  1  0  0  0  0
  2 12  1  0  0  0  0
  4  3  1  0  0  0  0
  5  6  1  0  0  0  0
  5 27  1  0  0  0  0
  6 28  1  0  0  0  0
  7 17  1  0  0  0  0
  9 26  1  0  0  0  0
  9 23  1  0  0  0  0
 11  3  2  0  0  0  0
 12  8  2  0  0  0  0
 12 13  1  0  0  0  0
 13 11  1  0  0  0  0
 14 28  1  6  0  0  0
 14 22  1  0  0  0  0
 15  9  2  0  0  0  0
 16 19  1  0  0  0  0
 16 20  2  0  0  0  0
 17 10  1  1  0  0  0
 17  8  1  0  0  0  0
 18 15  1  0  0  0  0
 18  6  2  0  0  0  0
 19  7  1  0  0  0  0
 20  1  1  0  0  0  0
 21  4  2  0  0  0  0
 22 13  2  0  0  0  0
 22 21  1  0  0  0  0
 24  7  1  0  0  0  0
 24  2  2  0  0  0  0
 25  5  2  0  0  0  0
 27  2  1  0  0  0  0
 27 14  1  0  0  0  0
 28 23  2  0  0  0  0
 30 20  1  0  0  0  0
 30 29  2  1  0  0  0
 31 30  1  0  0  0  0
 31 32  1  0  0  0  0
M  END
>  <MODEL>
3

>  <REMARK>
 VINA RESULT:      -8.3      5.364      8.934
  Name = 
  2 active torsions:
  status: ('A' for Active; 'I' for Inactive)
    1  A    between atoms: S_1  and  S_20
    2  A    between atoms: S_20  and  C_24
                            x       y       z     vdW  Elec       q    Type
                         _______ _______ _______ _____ _____    ______ ____

>  <TORSDO>
F 2

$$$$
=
 OpenBabel11052421273D

 32 37  0  0  1  0  0  0  0  0999 V2000
  193.9240  170.8870  143.5200 N   0  0  0  0  0  0  0  0  0  0  0  0
  190.5850  174.7200  144.6230 C   0  0  0  0  0  0  0  0  0  0  0  0
  188.1540  175.0970  140.3010 C   0  0  0  0  0  3  0  0  0  0  0  0
  187.4410  176.1900  140.7940 C   0  0  0  0  0  3  0  0  0  0  0  0
  188.9610  175.5850  146.3520 C   0  0  0  0  0  0  0  0  0  0  0  0
  187.7860  176.4140  146.3050 C   0  0  0  0  0  0  0  0  0  0  0  0
  192.5180  173.3140  144.8150 N   0  0  0  0  0  0  0  0  0  0  0  0
  191.1940  173.2980  142.7360 C   0  0  0  0  0  3  0  0  0  0  0  0
  185.7520  178.1950  145.7090 C   0  0  0  0  0  0  0  0  0  0  0  0
  193.3540  172.0520  142.8560 C   0  0  0  0  0  2  0  0  0  0  0  0
  189.1250  174.4840  141.0920 C   0  0  0  0  0  3  0  0  0  0  0  0
  190.4270  174.2850  143.2220 C   0  0  0  0  0  0  0  0  0  0  0  0
  189.3950  174.9510  142.3910 C   0  0  0  0  0  0  0  0  0  0  0  0
  188.9780  176.6560  144.2550 C   0  0  2  0  0  3  0  0  0  0  0  0
  185.7720  177.5360  146.9540 C   0  0  0  0  0  3  0  0  0  0  0  0
  194.2150  171.8250  145.7620 C   0  0  0  0  0  2  0  0  0  0  0  0
  192.1350  172.5350  143.6250 C   0  0  1  0  0  3  0  0  0  0  0  0
  186.8030  176.6350  147.2660 C   0  0  0  0  0  3  0  0  0  0  0  0
  193.8550  173.2310  145.3910 C   0  0  0  0  0  2  0  0  0  0  0  0
  194.2760  170.7940  144.9120 C   0  0  0  0  0  0  0  0  0  0  0  0
  187.6970  176.6660  142.0820 C   0  0  0  0  0  3  0  0  0  0  0  0
  188.6500  176.0440  142.9040 C   0  0  0  0  0  0  0  0  0  0  0  0
  186.7610  177.9550  144.7610 C   0  0  0  0  0  3  0  0  0  0  0  0
  191.6050  174.2730  145.3620 C   0  0  0  0  0  3  0  0  0  0  0  0
  189.2850  174.8250  147.3020 O   0  0  0  0  0  0  0  0  0  0  0  0
  184.4670  179.3250  145.3440 Cl  0  0  0  0  0  0  0  0  0  0  0  0
  189.6850  175.7060  145.1300 N   0  0  0  0  0  0  0  0  0  0  0  0
  187.7660  177.0370  145.0740 C   0  0  0  0  0  0  0  0  0  0  0  0
  194.8700  168.3170  144.3330 O   0  0  0  0  0  0  0  0  0  0  0  0
  194.7800  169.2210  145.5540 S   0  0  1  0  0  0  0  0  0  0  0  0
  196.7860  169.5150  146.1490 S   0  0  0  0  0  0  0  0  0  0  0  0
  196.5490  168.5380  147.6590 C   0  0  0  0  0  1  0  0  0  0  0  0
  1 20  2  0  0  0  0
  2 27  1  0  0  0  0
  2 24  2  0  0  0  0
  3  4  2  0  0  0  0
  3 11  1  0  0  0  0
  4 21  1  0  0  0  0
  5 25  2  0  0  0  0
  6  5  1  0  0  0  0
  6 18  1  0  0  0  0
  7 24  1  0  0  0  0
  7 19  1  0  0  0  0
  8 12  2  0  0  0  0
  9 15  1  0  0  0  0
 10  1  1  0  0  0  0
 10 17  1  0  0  0  0
 11 13  2  0  0  0  0
 12  2  1  0  0  0  0
 13 22  1  0  0  0  0
 13 12  1  0  0  0  0
 14 22  1  6  0  0  0
 14 28  1  0  0  0  0
 14 27  1  0  0  0  0
 15 18  2  0  0  0  0
 17  8  1  6  0  0  0
 17  7  1  0  0  0  0
 19 16  1  0  0  0  0
 20 30  1  0  0  0  0
 20 16  1  0  0  0  0
 21 22  2  0  0  0  0
 23 28  1  0  0  0  0
 23  9  2  0  0  0  0
 26  9  1  0  0  0  0
 27  5  1  0  0  0  0
 28  6  2  0  0  0  0
 30 29  2  6  0  0  0
 30 31  1  0  0  0  0
 31 32  1  0  0  0  0
M  END
>  <MODEL>
4

>  <REMARK>
 VINA RESULT:      -8.2      3.574      5.514
  Name = 
  2 active torsions:
  status: ('A' for Active; 'I' for Inactive)
    1  A    between atoms: S_1  and  S_20
    2  A    between atoms: S_20  and  C_24
                            x       y       z     vdW  Elec       q    Type
                         _______ _______ _______ _____ _____    ______ ____

>  <TORSDO>
F 2

$$$$
=
 OpenBabel11052421273D

 32 37  0  0  1  0  0  0  0  0999 V2000
  191.5520  172.6300  138.1770 N   0  0  0  0  0  2  0  0  0  0  0  0
  188.4990  175.0430  141.6280 C   0  0  0  0  0  0  0  0  0  0  0  0
  191.2840  174.6840  145.7330 C   0  0  0  0  0  3  0  0  0  0  0  0
  190.2620  175.2690  146.4800 C   0  0  0  0  0  3  0  0  0  0  0  0
  187.0500  177.0760  142.0100 C   0  0  0  0  0  0  0  0  0  0  0  0
  186.6430  177.8180  143.1730 C   0  0  0  0  0  0  0  0  0  0  0  0
  189.1310  173.8900  139.6230 N   0  0  0  0  0  0  0  0  0  0  0  0
  190.6480  173.8910  141.5650 C   0  0  0  0  0  3  0  0  0  0  0  0
  185.9890  178.7540  145.6940 C   0  0  0  0  0  0  0  0  0  0  0  0
  191.1620  172.4760  139.5720 C   0  0  0  0  0  2  0  0  0  0  0  0
  191.1020  174.4460  144.3710 C   0  0  0  0  0  3  0  0  0  0  0  0
  189.7220  174.5420  142.2830 C   0  0  0  0  0  0  0  0  0  0  0  0
  189.8980  174.7950  143.7340 C   0  0  0  0  0  0  0  0  0  0  0  0
  187.5120  175.7130  143.8730 C   0  0  2  0  0  3  0  0  0  0  0  0
  185.7280  179.5450  144.5570 C   0  0  0  0  0  3  0  0  0  0  0  0
  189.4020  173.3450  137.2520 C   0  0  0  0  0  3  0  0  0  0  0  0
  190.5270  173.7640  140.0720 C   0  0  1  0  0  3  0  0  0  0  0  0
  186.0510  179.0750  143.2750 C   0  0  0  0  0  3  0  0  0  0  0  0
  188.6100  173.1160  138.5020 C   0  0  0  0  0  2  0  0  0  0  0  0
  190.7080  173.0920  137.1080 C   0  0  0  0  0  0  0  0  0  0  0  0
  189.0610  175.6220  145.8630 C   0  0  0  0  0  3  0  0  0  0  0  0
  188.8700  175.4180  144.4870 C   0  0  0  0  0  0  0  0  0  0  0  0
  186.5820  177.4880  145.5590 C   0  0  0  0  0  3  0  0  0  0  0  0
  188.2140  174.6990  140.3690 C   0  0  0  0  0  3  0  0  0  0  0  0
  186.9950  177.4860  140.8210 O   0  0  0  0  0  0  0  0  0  0  0  0
  185.5650  179.3500  147.2840 Cl  0  0  0  0  0  0  0  0  0  0  0  0
  187.5840  175.8140  142.4070 N   0  0  0  0  0  0  0  0  0  0  0  0
  186.9240  177.0450  144.2800 C   0  0  0  0  0  0  0  0  0  0  0  0
  190.3940  172.9000  134.5220 O   0  0  0  0  0  0  0  0  0  0  0  0
  191.4370  173.3850  135.5190 S   0  0  1  0  0  0  0  0  0  0  0  0
  191.4320  175.4880  135.3170 S   0  0  0  0  0  0  0  0  0  0  0  0
  192.8130  175.6670  136.4810 C   0  0  0  0  0  1  0  0  0  0  0  0
  1 10  1  0  0  0  0
  2 12  1  0  0  0  0
  2 27  1  0  0  0  0
  3  4  1  0  0  0  0
  5 27  1  0  0  0  0
  5  6  1  0  0  0  0
  6 18  2  0  0  0  0
  6 28  1  0  0  0  0
  7 17  1  0  0  0  0
  7 24  1  0  0  0  0
  8 12  2  0  0  0  0
  9 26  1  0  0  0  0
 11  3  2  0  0  0  0
 12 13  1  0  0  0  0
 13 11  1  0  0  0  0
 13 22  2  0  0  0  0
 14 28  1  1  0  0  0
 14 22  1  0  0  0  0
 15  9  2  0  0  0  0
 16 19  1  0  0  0  0
 17 10  1  1  0  0  0
 17  8  1  0  0  0  0
 18 15  1  0  0  0  0
 19  7  1  0  0  0  0
 20 16  2  0  0  0  0
 20  1  1  0  0  0  0
 21  4  2  0  0  0  0
 22 21  1  0  0  0  0
 23  9  1  0  0  0  0
 24  2  2  0  0  0  0
 25  5  2  0  0  0  0
 27 14  1  0  0  0  0
 28 23  2  0  0  0  0
 30 29  2  6  0  0  0
 30 20  1  0  0  0  0
 31 30  1  0  0  0  0
 31 32  1  0  0  0  0
M  END
>  <MODEL>
5

>  <REMARK>
 VINA RESULT:      -8.1      4.477      6.224
  Name = 
  2 active torsions:
  status: ('A' for Active; 'I' for Inactive)
    1  A    between atoms: S_1  and  S_20
    2  A    between atoms: S_20  and  C_24
                            x       y       z     vdW  Elec       q    Type
                         _______ _______ _______ _____ _____    ______ ____

>  <TORSDO>
F 2

$$$$
=
 OpenBabel11052421273D

 32 37  0  0  1  0  0  0  0  0999 V2000
  193.6430  174.3770  144.0600 N   0  0  0  0  0  2  0  0  0  0  0  0
  188.6940  175.6750  143.1250 C   0  0  0  0  0  0  0  0  0  0  0  0
  187.5130  177.9410  147.3920 C   0  0  0  0  0  3  0  0  0  0  0  0
  186.1970  178.0860  146.9550 C   0  0  0  0  0  3  0  0  0  0  0  0
  187.1270  176.6720  141.4150 C   0  0  0  0  0  0  0  0  0  0  0  0
  185.8750  177.3750  141.4840 C   0  0  0  0  0  0  0  0  0  0  0  0
  190.7870  174.5290  142.8940 N   0  0  0  0  0  0  0  0  0  0  0  0
  190.3290  175.8420  144.9280 C   0  0  0  0  0  3  0  0  0  0  0  0
  183.4200  178.4740  142.1420 C   0  0  0  0  0  0  0  0  0  0  0  0
  192.3800  174.4260  144.7860 C   0  0  0  0  0  2  0  0  0  0  0  0
  188.4470  177.2860  146.5900 C   0  0  0  0  0  3  0  0  0  0  0  0
  189.0850  176.0820  144.4890 C   0  0  0  0  0  0  0  0  0  0  0  0
  188.0800  176.7710  145.3340 C   0  0  0  0  0  0  0  0  0  0  0  0
  186.2740  176.3100  143.5780 C   0  0  2  0  0  3  0  0  0  0  0  0
  183.9620  178.6710  140.8560 C   0  0  0  0  0  3  0  0  0  0  0  0
  192.8150  173.5880  141.8970 C   0  0  0  0  0  3  0  0  0  0  0  0
  191.3800  175.2740  144.0170 C   0  0  1  0  0  3  0  0  0  0  0  0
  185.2030  178.1130  140.5120 C   0  0  0  0  0  3  0  0  0  0  0  0
  191.4120  173.3280  142.3520 C   0  0  0  0  0  2  0  0  0  0  0  0
  193.8110  174.0240  142.6760 C   0  0  0  0  0  0  0  0  0  0  0  0
  185.8160  177.5790  145.7100 C   0  0  0  0  0  3  0  0  0  0  0  0
  186.7480  176.9430  144.8750 C   0  0  0  0  0  0  0  0  0  0  0  0
  184.1200  177.7200  143.0990 C   0  0  0  0  0  3  0  0  0  0  0  0
  189.5020  174.9080  142.3880 C   0  0  0  0  0  3  0  0  0  0  0  0
  187.9050  176.6540  140.4240 O   0  0  0  0  0  0  0  0  0  0  0  0
  181.8650  179.1650  142.5460 Cl  0  0  0  0  0  0  0  0  0  0  0  0
  187.3920  176.0340  142.6620 N   0  0  0  0  0  0  0  0  0  0  0  0
  185.3660  177.1930  142.7530 C   0  0  0  0  0  0  0  0  0  0  0  0
  195.3460  173.3990  140.6570 O   0  0  0  0  0  0  0  0  0  0  0  0
  195.4140  174.2110  141.9430 S   0  0  1  0  0  0  0  0  0  0  0  0
  195.4670  176.2240  141.3020 S   0  0  0  0  0  0  0  0  0  0  0  0
  196.7650  176.6380  142.4990 C   0  0  0  0  0  1  0  0  0  0  0  0
  1 10  1  0  0  0  0
  2 12  1  0  0  0  0
  4  3  1  0  0  0  0
  5  6  1  0  0  0  0
  5 27  1  0  0  0  0
  6 28  1  0  0  0  0
  7 17  1  0  0  0  0
  9 26  1  0  0  0  0
  9 23  1  0  0  0  0
 11  3  2  0  0  0  0
 12  8  2  0  0  0  0
 12 13  1  0  0  0  0
 13 11  1  0  0  0  0
 14 28  1  6  0  0  0
 14 22  1  0  0  0  0
 15  9  2  0  0  0  0
 16 19  1  0  0  0  0
 16 20  2  0  0  0  0
 17 10  1  1  0  0  0
 17  8  1  0  0  0  0
 18 15  1  0  0  0  0
 18  6  2  0  0  0  0
 19  7  1  0  0  0  0
 20  1  1  0  0  0  0
 21  4  2  0  0  0  0
 22 13  2  0  0  0  0
 22 21  1  0  0  0  0
 24  7  1  0  0  0  0
 24  2  2  0  0  0  0
 25  5  2  0  0  0  0
 27  2  1  0  0  0  0
 27 14  1  0  0  0  0
 28 23  2  0  0  0  0
 30 29  2  6  0  0  0
 30 20  1  0  0  0  0
 31 30  1  0  0  0  0
 31 32  1  0  0  0  0
M  END
>  <MODEL>
6

>  <REMARK>
 VINA RESULT:      -7.6      1.643      1.993
  Name = 
  2 active torsions:
  status: ('A' for Active; 'I' for Inactive)
    1  A    between atoms: S_1  and  S_20
    2  A    between atoms: S_20  and  C_24
                            x       y       z     vdW  Elec       q    Type
                         _______ _______ _______ _____ _____    ______ ____

>  <TORSDO>
F 2

$$$$
=
 OpenBabel11052421273D

 32 37  0  0  1  0  0  0  0  0999 V2000
  188.7500  172.1950  138.2640 N   0  0  0  0  0  0  0  0  0  0  0  0
  190.1840  174.8940  142.4720 C   0  0  0  0  0  0  0  0  0  0  0  0
  185.8760  177.0610  143.6900 C   0  0  0  0  0  3  0  0  0  0  0  0
  186.5150  177.7630  144.7110 C   0  0  0  0  0  3  0  0  0  0  0  0
  191.4780  174.7770  144.6370 C   0  0  0  0  0  0  0  0  0  0  0  0
  191.3980  175.4650  145.8970 C   0  0  0  0  0  0  0  0  0  0  0  0
  190.3960  173.6740  140.4200 N   0  0  0  0  0  0  0  0  0  0  0  0
  188.1910  174.5310  141.1120 C   0  0  0  0  0  3  0  0  0  0  0  0
  190.9650  177.1970  148.0130 C   0  0  0  0  0  0  0  0  0  0  0  0
  188.4830  173.4990  138.8570 C   0  0  0  0  0  2  0  0  0  0  0  0
  186.6110  176.2130  142.8610 C   0  0  0  0  0  3  0  0  0  0  0  0
  188.7630  175.1390  142.1620 C   0  0  0  0  0  0  0  0  0  0  0  0
  187.9950  176.0500  143.0460 C   0  0  0  0  0  0  0  0  0  0  0  0
  190.1490  176.6860  144.2770 C   0  0  2  0  0  3  0  0  0  0  0  0
  191.7550  176.0440  148.1940 C   0  0  0  0  0  3  0  0  0  0  0  0
  191.1370  172.0200  138.7730 C   0  0  0  0  0  2  0  0  0  0  0  0
  188.9380  173.5040  140.3080 C   0  0  1  0  0  3  0  0  0  0  0  0
  191.9830  175.1630  147.1250 C   0  0  0  0  0  3  0  0  0  0  0  0
  191.2890  173.4160  139.2950 C   0  0  0  0  0  2  0  0  0  0  0  0
  190.0080  171.4970  138.2830 C   0  0  0  0  0  0  0  0  0  0  0  0
  187.8890  177.6120  144.9080 C   0  0  0  0  0  3  0  0  0  0  0  0
  188.6410  176.7410  144.1040 C   0  0  0  0  0  0  0  0  0  0  0  0
  190.3920  177.4770  146.7610 C   0  0  0  0  0  3  0  0  0  0  0  0
  190.9590  174.2210  141.6170 C   0  0  0  0  0  3  0  0  0  0  0  0
  192.0750  173.6870  144.4320 O   0  0  0  0  0  0  0  0  0  0  0  0
  190.7030  178.2910  149.3530 Cl  0  0  0  0  0  0  0  0  0  0  0  0
  190.7280  175.4850  143.6530 N   0  0  0  0  0  0  0  0  0  0  0  0
  190.6050  176.5780  145.7140 C   0  0  0  0  0  0  0  0  0  0  0  0
  190.4470  169.9860  136.1980 O   0  0  0  0  0  0  0  0  0  0  0  0
  190.0660  169.8380  137.6650 S   0  0  1  0  0  0  0  0  0  0  0  0
  191.7740  168.9950  138.5780 S   0  0  0  0  0  0  0  0  0  0  0  0
  190.8160  168.4550  140.0210 C   0  0  0  0  0  1  0  0  0  0  0  0
  1 20  2  0  0  0  0
  1 10  1  0  0  0  0
  2 27  1  0  0  0  0
  3  4  1  0  0  0  0
  4 21  2  0  0  0  0
  5  6  1  0  0  0  0
  6 18  1  0  0  0  0
  7 24  1  0  0  0  0
  8 12  2  0  0  0  0
  9 15  1  0  0  0  0
  9 26  1  0  0  0  0
 11 13  1  0  0  0  0
 11  3  2  0  0  0  0
 12  2  1  0  0  0  0
 12 13  1  0  0  0  0
 13 22  2  0  0  0  0
 14 22  1  1  0  0  0
 14 28  1  0  0  0  0
 16 19  1  0  0  0  0
 17 10  1  6  0  0  0
 17  7  1  0  0  0  0
 17  8  1  0  0  0  0
 18 15  2  0  0  0  0
 19  7  1  0  0  0  0
 20 16  1  0  0  0  0
 22 21  1  0  0  0  0
 23  9  2  0  0  0  0
 24  2  2  0  0  0  0
 25  5  2  0  0  0  0
 27 14  1  0  0  0  0
 27  5  1  0  0  0  0
 28  6  2  0  0  0  0
 28 23  1  0  0  0  0
 30 29  2  6  0  0  0
 30 20  1  0  0  0  0
 30 31  1  0  0  0  0
 31 32  1  0  0  0  0
M  END
>  <MODEL>
7

>  <REMARK>
 VINA RESULT:      -7.5      4.837      7.359
  Name = 
  2 active torsions:
  status: ('A' for Active; 'I' for Inactive)
    1  A    between atoms: S_1  and  S_20
    2  A    between atoms: S_20  and  C_24
                            x       y       z     vdW  Elec       q    Type
                         _______ _______ _______ _____ _____    ______ ____

>  <TORSDO>
F 2

$$$$
=
 OpenBabel11052421273D

 32 37  0  0  1  0  0  0  0  0999 V2000
  193.5850  173.0950  139.8460 N   0  0  0  0  0  2  0  0  0  0  0  0
  189.8280  175.1180  142.8200 C   0  0  0  0  0  0  0  0  0  0  0  0
  192.3980  176.2150  146.9340 C   0  0  0  0  0  3  0  0  0  0  0  0
  191.2210  176.6150  147.5660 C   0  0  0  0  0  3  0  0  0  0  0  0
  187.8690  176.7110  142.8430 C   0  0  0  0  0  0  0  0  0  0  0  0
  187.2200  177.4960  143.8590 C   0  0  0  0  0  0  0  0  0  0  0  0
  190.8450  173.8670  141.0460 N   0  0  0  0  0  0  0  0  0  0  0  0
  192.2080  174.6020  142.9640 C   0  0  0  0  0  3  0  0  0  0  0  0
  186.2130  178.6210  146.1790 C   0  0  0  0  0  0  0  0  0  0  0  0
  193.1810  173.0730  141.2470 C   0  0  0  0  0  2  0  0  0  0  0  0
  192.3550  175.7150  145.6330 C   0  0  0  0  0  3  0  0  0  0  0  0
  191.1060  175.0850  143.5560 C   0  0  0  0  0  0  0  0  0  0  0  0
  191.1350  175.6130  144.9420 C   0  0  0  0  0  0  0  0  0  0  0  0
  188.5860  175.8530  144.9140 C   0  0  2  0  0  3  0  0  0  0  0  0
  185.8060  179.1100  144.9220 C   0  0  0  0  0  3  0  0  0  0  0  0
  191.3710  173.0330  138.8050 C   0  0  0  0  0  3  0  0  0  0  0  0
  192.2000  174.2030  141.5150 C   0  0  1  0  0  3  0  0  0  0  0  0
  186.3080  178.5420  143.7400 C   0  0  0  0  0  3  0  0  0  0  0  0
  190.6080  172.8060  140.0740 C   0  0  0  0  0  2  0  0  0  0  0  0
  192.7020  173.1260  138.7110 C   0  0  0  0  0  0  0  0  0  0  0  0
  190.0010  176.5180  146.8940 C   0  0  0  0  0  3  0  0  0  0  0  0
  189.9410  176.0460  145.5740 C   0  0  0  0  0  0  0  0  0  0  0  0
  187.1310  177.5600  146.2660 C   0  0  0  0  0  3  0  0  0  0  0  0
  189.7080  174.5060  141.6390 C   0  0  0  0  0  3  0  0  0  0  0  0
  187.7650  176.8890  141.6000 O   0  0  0  0  0  0  0  0  0  0  0  0
  185.5660  179.3320  147.6410 Cl  0  0  0  0  0  0  0  0  0  0  0  0
  188.7010  175.7270  143.4520 N   0  0  0  0  0  0  0  0  0  0  0  0
  187.6420  177.0220  145.0830 C   0  0  0  0  0  0  0  0  0  0  0  0
  194.7830  172.7020  137.1900 O   0  0  0  0  0  0  0  0  0  0  0  0
  193.4040  173.3410  137.0980 S   0  0  1  0  0  0  0  0  0  0  0  0
  192.2930  172.0350  135.8630 S   0  0  0  0  0  0  0  0  0  0  0  0
  193.2220  170.5900  136.4440 C   0  0  0  0  0  1  0  0  0  0  0  0
  1 10  1  0  0  0  0
  2 27  1  0  0  0  0
  2 12  1  0  0  0  0
  3  4  1  0  0  0  0
  5 27  1  0  0  0  0
  5  6  1  0  0  0  0
  6 28  1  0  0  0  0
  7 17  1  0  0  0  0
  7 24  1  0  0  0  0
  8 12  2  0  0  0  0
  9 23  1  0  0  0  0
  9 26  1  0  0  0  0
 11  3  2  0  0  0  0
 12 13  1  0  0  0  0
 13 22  2  0  0  0  0
 13 11  1  0  0  0  0
 14 28  1  6  0  0  0
 14 22  1  0  0  0  0
 15  9  2  0  0  0  0
 16 19  1  0  0  0  0
 17 10  1  1  0  0  0
 17  8  1  0  0  0  0
 18  6  2  0  0  0  0
 18 15  1  0  0  0  0
 19  7  1  0  0  0  0
 20 16  2  0  0  0  0
 20  1  1  0  0  0  0
 21  4  2  0  0  0  0
 22 21  1  0  0  0  0
 24  2  2  0  0  0  0
 25  5  2  0  0  0  0
 27 14  1  0  0  0  0
 28 23  2  0  0  0  0
 30 29  2  1  0  0  0
 30 20  1  0  0  0  0
 31 32  1  0  0  0  0
 31 30  1  0  0  0  0
M  END
>  <MODEL>
8

>  <REMARK>
 VINA RESULT:      -7.5      4.125      5.648
  Name = 
  2 active torsions:
  status: ('A' for Active; 'I' for Inactive)
    1  A    between atoms: S_1  and  S_20
    2  A    between atoms: S_20  and  C_24
                            x       y       z     vdW  Elec       q    Type
                         _______ _______ _______ _____ _____    ______ ____

>  <TORSDO>
F 2

$$$$
=
 OpenBabel11052421273D

 32 37  0  0  1  0  0  0  0  0999 V2000
  181.1420  179.0410  142.2620 N   0  0  0  0  0  2  0  0  0  0  0  0
  186.0150  177.4880  143.2060 C   0  0  0  0  0  0  0  0  0  0  0  0
  186.4530  178.6930  148.0110 C   0  0  0  0  0  3  0  0  0  0  0  0
  187.7910  178.3000  147.9900 C   0  0  0  0  0  3  0  0  0  0  0  0
  187.6690  175.6110  142.8610 C   0  0  0  0  0  0  0  0  0  0  0  0
  188.8290  175.1470  143.5730 C   0  0  0  0  0  0  0  0  0  0  0  0
  184.0880  178.1650  141.9510 N   0  0  0  0  0  0  0  0  0  0  0  0
  184.1690  178.5660  144.3820 C   0  0  0  0  0  3  0  0  0  0  0  0
  191.0680  174.7940  145.1630 C   0  0  0  0  0  0  0  0  0  0  0  0
  182.2990  179.5030  143.0190 C   0  0  0  0  0  2  0  0  0  0  0  0
  185.6900  178.6300  146.8460 C   0  0  0  0  0  3  0  0  0  0  0  0
  185.4270  178.1010  144.4120 C   0  0  0  0  0  0  0  0  0  0  0  0
  186.2520  178.1690  145.6420 C   0  0  0  0  0  0  0  0  0  0  0  0
  188.2910  177.3410  144.3320 C   0  0  2  0  0  3  0  0  0  0  0  0
  190.6660  173.7790  144.2720 C   0  0  0  0  0  3  0  0  0  0  0  0
  182.2940  178.1750  140.2850 C   0  0  0  0  0  3  0  0  0  0  0  0
  183.2950  178.3650  143.1760 C   0  0  1  0  0  3  0  0  0  0  0  0
  189.5350  173.9510  143.4590 C   0  0  0  0  0  3  0  0  0  0  0  0
  183.6530  178.6840  140.6590 C   0  0  0  0  0  2  0  0  0  0  0  0
  181.1750  178.3700  140.9910 C   0  0  0  0  0  0  0  0  0  0  0  0
  188.3650  177.8400  146.8040 C   0  0  0  0  0  3  0  0  0  0  0  0
  187.6060  177.7410  145.6270 C   0  0  0  0  0  0  0  0  0  0  0  0
  190.3370  175.9910  145.2520 C   0  0  0  0  0  3  0  0  0  0  0  0
  185.3800  177.5530  142.0320 C   0  0  0  0  0  3  0  0  0  0  0  0
  187.0190  174.9510  142.0070 O   0  0  0  0  0  0  0  0  0  0  0  0
  192.4890  174.5670  146.1580 Cl  0  0  0  0  0  0  0  0  0  0  0  0
  187.3220  176.9200  143.3070 N   0  0  0  0  0  0  0  0  0  0  0  0
  189.1990  176.1390  144.4570 C   0  0  0  0  0  0  0  0  0  0  0  0
  178.9140  177.1840  141.5450 O   0  0  0  0  0  0  0  0  0  0  0  0
  179.6600  177.7260  140.3330 S   0  0  1  0  0  0  0  0  0  0  0  0
  178.5670  179.4400  139.7560 S   0  0  0  0  0  0  0  0  0  0  0  0
  177.6960  178.5250  138.4540 C   0  0  0  0  0  1  0  0  0  0  0  0
  1 10  1  0  0  0  0
  2 27  1  0  0  0  0
  2 12  1  0  0  0  0
  4  3  1  0  0  0  0
  5 27  1  0  0  0  0
  5  6  1  0  0  0  0
  6 28  1  0  0  0  0
  7 24  1  0  0  0  0
  7 17  1  0  0  0  0
  8 12  2  0  0  0  0
  9 23  1  0  0  0  0
  9 26  1  0  0  0  0
 11  3  2  0  0  0  0
 12 13  1  0  0  0  0
 13 11  1  0  0  0  0
 14 28  1  1  0  0  0
 14 22  1  0  0  0  0
 15  9  2  0  0  0  0
 16 19  1  0  0  0  0
 16 20  2  0  0  0  0
 17 10  1  6  0  0  0
 17  8  1  0  0  0  0
 18  6  2  0  0  0  0
 18 15  1  0  0  0  0
 19  7  1  0  0  0  0
 20  1  1  0  0  0  0
 21  4  2  0  0  0  0
 22 13  2  0  0  0  0
 22 21  1  0  0  0  0
 24  2  2  0  0  0  0
 25  5  2  0  0  0  0
 27 14  1  0  0  0  0
 28 23  2  0  0  0  0
 30 20  1  0  0  0  0
 30 29  2  1  0  0  0
 31 30  1  0  0  0  0
 32 31  1  0  0  0  0
M  END
>  <MODEL>
9

>  <REMARK>
 VINA RESULT:      -7.4      5.491      9.197
  Name = 
  2 active torsions:
  status: ('A' for Active; 'I' for Inactive)
    1  A    between atoms: S_1  and  S_20
    2  A    between atoms: S_20  and  C_24
                            x       y       z     vdW  Elec       q    Type
                         _______ _______ _______ _____ _____    ______ ____

>  <TORSDO>
F 2

$$$$
