=
 OpenBabel11052418453D

 34 38  0  0  1  0  0  0  0  0999 V2000
  191.5150  173.2930  140.0180 C   0  0  0  0  0  0  0  0  0  0  0  0
  188.9960  172.9210  139.9340 C   0  0  2  0  0  3  0  0  0  0  0  0
  190.1070  174.5540  141.5450 C   0  0  0  0  0  0  0  0  0  0  0  0
  189.6530  177.7650  142.4450 C   0  0  0  0  0  2  0  0  0  0  0  0
  190.4720  172.0800  138.0970 C   0  0  0  0  0  2  0  0  0  0  0  0
  189.3120  171.7410  139.0150 C   0  0  0  0  0  2  0  0  0  0  0  0
  187.9510  175.7470  141.1250 C   0  0  0  0  0  2  0  0  0  0  0  0
  190.2310  173.5750  140.5330 C   0  0  0  0  0  0  0  0  0  0  0  0
  188.1510  178.0340  142.4170 C   0  0  0  0  0  2  0  0  0  0  0  0
  191.7240  172.2690  138.9400 C   0  0  0  0  0  2  0  0  0  0  0  0
  191.2680  175.1730  142.0700 C   0  0  0  0  0  0  0  0  0  0  0  0
  192.6060  173.9050  140.5440 N   0  0  0  0  0  0  0  0  0  0  0  0
  188.1450  172.4810  140.9330 F   0  0  0  0  0  0  0  0  0  0  0  0
  189.9720  176.8010  143.4880 N   0  0  0  0  0  2  0  0  0  0  0  0
  191.2780  176.2180  143.1760 C   0  0  1  0  0  3  0  0  0  0  0  0
  187.2710  176.8810  141.9000 C   0  0  2  0  0  3  0  0  0  0  0  0
  188.8130  174.9580  141.9940 N   0  0  0  0  0  2  0  0  0  0  0  0
  192.5100  174.8180  141.5400 C   0  0  0  0  0  3  0  0  0  0  0  0
  191.7580  175.0070  146.7140 C   0  0  2  0  0  3  0  0  0  0  0  0
  193.1680  175.1690  146.6570 O   0  0  0  0  0  0  0  0  0  0  0  0
  191.9560  175.7150  144.3780 N   0  0  2  0  0  0  0  0  0  0  0  0
  193.4710  176.4670  146.1970 C   0  0  0  0  0  2  0  0  0  0  0  0
  191.0200  175.5940  145.4990 C   0  0  0  0  0  2  0  0  0  0  0  0
  193.0490  176.6310  144.7300 C   0  0  0  0  0  2  0  0  0  0  0  0
  191.1950  175.5440  148.0160 C   0  0  0  0  0  1  0  0  0  0  0  0
  186.2100  176.4190  142.8970 C   0  0  0  0  0  2  0  0  0  0  0  0
  186.6880  176.4600  144.2380 O   0  0  0  0  0  0  0  0  0  0  0  0
  187.7250  176.2100  146.8850 C   0  0  0  0  0  1  0  0  0  0  0  0
  186.0360  177.1420  145.2720 C   0  0  0  0  0  0  0  0  0  0  0  0
  186.5290  177.0460  146.5830 C   0  0  0  0  0  0  0  0  0  0  0  0
  184.7660  178.5110  147.3670 C   0  0  0  0  0  3  0  0  0  0  0  0
  184.2640  178.6060  146.0680 C   0  0  0  0  0  3  0  0  0  0  0  0
  184.8940  177.9220  145.0250 C   0  0  0  0  0  3  0  0  0  0  0  0
  185.8950  177.7300  147.6240 C   0  0  0  0  0  3  0  0  0  0  0  0
  1  8  2  0  0  0  0
  1 12  1  0  0  0  0
  2  8  1  0  0  0  0
  2 13  1  1  0  0  0
  3 17  1  0  0  0  0
  3 11  2  0  0  0  0
  4 14  1  0  0  0  0
  5 10  1  0  0  0  0
  5  6  1  0  0  0  0
  6  2  1  0  0  0  0
  7 16  1  0  0  0  0
  7 17  1  0  0  0  0
  8  3  1  0  0  0  0
  9  4  1  0  0  0  0
 10  1  1  0  0  0  0
 12 18  2  0  0  0  0
 15 11  1  6  0  0  0
 15 14  1  0  0  0  0
 15 21  1  0  0  0  0
 16  9  1  0  0  0  0
 16 26  1  1  0  0  0
 18 11  1  0  0  0  0
 19 25  1  1  0  0  0
 20 19  1  0  0  0  0
 21 24  1  1  0  0  0
 21 23  1  0  0  0  0
 22 20  1  0  0  0  0
 23 19  1  0  0  0  0
 24 22  1  0  0  0  0
 26 27  1  0  0  0  0
 27 29  1  0  0  0  0
 29 30  1  0  0  0  0
 30 28  1  0  0  0  0
 30 34  2  0  0  0  0
 31 34  1  0  0  0  0
 32 31  2  0  0  0  0
 33 29  2  0  0  0  0
 33 32  1  0  0  0  0
M  END
>  <MODEL>
1

>  <REMARK>
 VINA RESULT:      -8.7      0.000      0.000
  Name = 
  4 active torsions:
  status: ('A' for Active; 'I' for Inactive)
    1  A    between atoms: O_3  and  C_13
    2  A    between atoms: O_3  and  C_17
    3  A    between atoms: N_12  and  C_28
    4  A    between atoms: C_17  and  C_29
                            x       y       z     vdW  Elec       q    Type
                         _______ _______ _______ _____ _____    ______ ____

>  <TORSDO>
F 4

$$$$
=
 OpenBabel11052418453D

 34 38  0  0  1  0  0  0  0  0999 V2000
  185.1780  177.8350  143.5750 C   0  0  0  0  0  0  0  0  0  0  0  0
  186.0180  177.5930  145.9690 C   0  0  2  0  0  3  0  0  0  0  0  0
  187.3610  176.8330  143.9410 C   0  0  0  0  0  0  0  0  0  0  0  0
  190.5100  177.2360  142.8250 C   0  0  0  0  0  2  0  0  0  0  0  0
  184.0500  179.0500  145.4460 C   0  0  0  0  0  2  0  0  0  0  0  0
  184.6030  177.9950  146.3870 C   0  0  0  0  0  2  0  0  0  0  0  0
  189.2170  177.5380  145.4600 C   0  0  0  0  0  2  0  0  0  0  0  0
  186.1730  177.3850  144.4710 C   0  0  0  0  0  0  0  0  0  0  0  0
  191.4230  177.2640  144.0470 C   0  0  0  0  0  2  0  0  0  0  0  0
  183.8920  178.4360  144.0630 C   0  0  0  0  0  2  0  0  0  0  0  0
  187.4990  176.6730  142.5400 C   0  0  0  0  0  0  0  0  0  0  0  0
  185.3430  177.6670  142.2380 N   0  0  0  0  0  0  0  0  0  0  0  0
  186.3680  176.4460  146.6590 F   0  0  0  0  0  0  0  0  0  0  0  0
  189.8990  175.9230  142.6840 N   0  0  0  0  0  2  0  0  0  0  0  0
  188.7100  176.0700  141.8420 C   0  0  1  0  0  3  0  0  0  0  0  0
  190.7170  177.2260  145.4150 C   0  0  2  0  0  3  0  0  0  0  0  0
  188.4400  176.4910  144.8120 N   0  0  0  0  0  2  0  0  0  0  0  0
  186.4580  177.1060  141.7150 C   0  0  0  0  0  3  0  0  0  0  0  0
  188.9680  172.4940  140.6760 C   0  0  2  0  0  3  0  0  0  0  0  0
  187.9810  172.6730  139.6700 O   0  0  0  0  0  0  0  0  0  0  0  0
  188.3610  174.8170  141.1610 N   0  0  2  0  0  0  0  0  0  0  0  0
  188.3050  173.8040  138.8930 C   0  0  0  0  0  2  0  0  0  0  0  0
  189.4030  173.8050  141.3520 C   0  0  0  0  0  2  0  0  0  0  0  0
  188.1780  175.0860  139.7280 C   0  0  0  0  0  2  0  0  0  0  0  0
  190.1620  171.7230  140.1450 C   0  0  0  0  0  1  0  0  0  0  0  0
  191.1460  176.0570  146.2990 C   0  0  0  0  0  2  0  0  0  0  0  0
  191.9960  175.1490  145.6050 O   0  0  0  0  0  0  0  0  0  0  0  0
  193.8060  173.6730  143.9650 C   0  0  0  0  0  1  0  0  0  0  0  0
  191.5510  173.9460  145.0450 C   0  0  0  0  0  0  0  0  0  0  0  0
  192.4220  173.1930  144.2420 C   0  0  0  0  0  0  0  0  0  0  0  0
  190.7010  171.5190  143.9210 C   0  0  0  0  0  3  0  0  0  0  0  0
  189.8250  172.2650  144.7120 C   0  0  0  0  0  3  0  0  0  0  0  0
  190.2470  173.4750  145.2690 C   0  0  0  0  0  3  0  0  0  0  0  0
  191.9960  171.9840  143.6840 C   0  0  0  0  0  3  0  0  0  0  0  0
  1 10  1  0  0  0  0
  1  8  1  0  0  0  0
  2  6  1  0  0  0  0
  2 13  1  1  0  0  0
  3  8  2  0  0  0  0
  3 17  1  0  0  0  0
  4  9  1  0  0  0  0
  5  6  1  0  0  0  0
  8  2  1  0  0  0  0
  9 16  1  0  0  0  0
 10  5  1  0  0  0  0
 11  3  1  0  0  0  0
 12  1  2  0  0  0  0
 14  4  1  0  0  0  0
 15 11  1  1  0  0  0
 15 14  1  0  0  0  0
 16  7  1  0  0  0  0
 16 26  1  6  0  0  0
 17  7  1  0  0  0  0
 18 12  1  0  0  0  0
 18 11  2  0  0  0  0
 19 25  1  6  0  0  0
 19 23  1  0  0  0  0
 20 19  1  0  0  0  0
 21 24  1  6  0  0  0
 21 23  1  0  0  0  0
 21 15  1  0  0  0  0
 22 20  1  0  0  0  0
 22 24  1  0  0  0  0
 27 26  1  0  0  0  0
 28 30  1  0  0  0  0
 29 33  1  0  0  0  0
 29 27  1  0  0  0  0
 30 29  2  0  0  0  0
 31 32  1  0  0  0  0
 32 33  2  0  0  0  0
 34 31  2  0  0  0  0
 34 30  1  0  0  0  0
M  END
>  <MODEL>
2

>  <REMARK>
 VINA RESULT:      -8.4      2.533      7.211
  Name = 
  4 active torsions:
  status: ('A' for Active; 'I' for Inactive)
    1  A    between atoms: O_3  and  C_13
    2  A    between atoms: O_3  and  C_17
    3  A    between atoms: N_12  and  C_28
    4  A    between atoms: C_17  and  C_29
                            x       y       z     vdW  Elec       q    Type
                         _______ _______ _______ _____ _____    ______ ____

>  <TORSDO>
F 4

$$$$
=
 OpenBabel11052418453D

 34 38  0  0  1  0  0  0  0  0999 V2000
  185.7060  177.4300  144.7630 C   0  0  0  0  0  0  0  0  0  0  0  0
  187.0750  177.1140  146.8890 C   0  0  2  0  0  3  0  0  0  0  0  0
  187.9750  176.5820  144.5650 C   0  0  0  0  0  0  0  0  0  0  0  0
  190.7610  177.2950  142.8170 C   0  0  0  0  0  2  0  0  0  0  0  0
  184.9530  178.4410  146.9220 C   0  0  0  0  0  2  0  0  0  0  0  0
  185.7690  177.3790  147.6370 C   0  0  0  0  0  2  0  0  0  0  0  0
  190.0760  177.3390  145.6880 C   0  0  0  0  0  2  0  0  0  0  0  0
  186.9030  177.0070  145.3820 C   0  0  0  0  0  0  0  0  0  0  0  0
  191.9210  177.3220  143.8080 C   0  0  0  0  0  2  0  0  0  0  0  0
  184.5270  177.8990  145.5660 C   0  0  0  0  0  2  0  0  0  0  0  0
  187.8040  176.5160  143.1600 C   0  0  0  0  0  0  0  0  0  0  0  0
  185.5770  177.3550  143.4140 N   0  0  0  0  0  0  0  0  0  0  0  0
  187.6440  175.9590  147.3970 F   0  0  0  0  0  0  0  0  0  0  0  0
  190.2170  175.9490  142.7170 N   0  0  0  0  0  2  0  0  0  0  0  0
  188.8630  176.0520  142.1700 C   0  0  1  0  0  3  0  0  0  0  0  0
  191.5440  177.1490  145.2910 C   0  0  2  0  0  3  0  0  0  0  0  0
  189.2410  176.2740  145.1490 N   0  0  0  0  0  2  0  0  0  0  0  0
  186.5800  176.9140  142.6180 C   0  0  0  0  0  3  0  0  0  0  0  0
  188.9570  172.4780  140.9730 C   0  0  2  0  0  3  0  0  0  0  0  0
  187.9510  172.7000  139.9960 O   0  0  0  0  0  0  0  0  0  0  0  0
  188.4500  174.8170  141.4900 N   0  0  2  0  0  0  0  0  0  0  0  0
  188.2950  173.8240  139.2180 C   0  0  0  0  0  2  0  0  0  0  0  0
  189.4590  173.7660  141.6460 C   0  0  0  0  0  2  0  0  0  0  0  0
  188.2380  175.1040  140.0650 C   0  0  0  0  0  2  0  0  0  0  0  0
  190.1070  171.6670  140.4040 C   0  0  0  0  0  1  0  0  0  0  0  0
  192.2340  175.9660  145.9690 C   0  0  0  0  0  2  0  0  0  0  0  0
  192.8390  175.0900  145.0240 O   0  0  0  0  0  0  0  0  0  0  0  0
  192.6940  172.2640  144.6510 C   0  0  0  0  0  1  0  0  0  0  0  0
  193.9810  174.3270  145.2950 C   0  0  0  0  0  0  0  0  0  0  0  0
  193.9420  172.9360  145.1120 C   0  0  0  0  0  0  0  0  0  0  0  0
  196.2560  172.7670  145.8110 C   0  0  0  0  0  3  0  0  0  0  0  0
  196.3000  174.1490  146.0040 C   0  0  0  0  0  3  0  0  0  0  0  0
  195.1670  174.9260  145.7500 C   0  0  0  0  0  3  0  0  0  0  0  0
  195.0780  172.1620  145.3690 C   0  0  0  0  0  3  0  0  0  0  0  0
  1  8  1  0  0  0  0
  1 10  1  0  0  0  0
  2 13  1  1  0  0  0
  2  6  1  0  0  0  0
  3 17  1  0  0  0  0
  3  8  2  0  0  0  0
  4  9  1  0  0  0  0
  5  6  1  0  0  0  0
  8  2  1  0  0  0  0
  9 16  1  0  0  0  0
 10  5  1  0  0  0  0
 11  3  1  0  0  0  0
 12  1  2  0  0  0  0
 14  4  1  0  0  0  0
 15 14  1  1  0  0  0
 15 11  1  0  0  0  0
 16  7  1  0  0  0  0
 16 26  1  6  0  0  0
 17  7  1  0  0  0  0
 18 11  2  0  0  0  0
 18 12  1  0  0  0  0
 19 25  1  6  0  0  0
 19 23  1  0  0  0  0
 20 19  1  0  0  0  0
 21 24  1  6  0  0  0
 21 23  1  0  0  0  0
 21 15  1  0  0  0  0
 22 20  1  0  0  0  0
 22 24  1  0  0  0  0
 27 29  1  0  0  0  0
 27 26  1  0  0  0  0
 28 30  1  0  0  0  0
 29 33  1  0  0  0  0
 30 29  2  0  0  0  0
 30 34  1  0  0  0  0
 31 32  1  0  0  0  0
 33 32  2  0  0  0  0
 34 31  2  0  0  0  0
M  END
>  <MODEL>
3

>  <REMARK>
 VINA RESULT:      -8.4      2.642      7.845
  Name = 
  4 active torsions:
  status: ('A' for Active; 'I' for Inactive)
    1  A    between atoms: O_3  and  C_13
    2  A    between atoms: O_3  and  C_17
    3  A    between atoms: N_12  and  C_28
    4  A    between atoms: C_17  and  C_29
                            x       y       z     vdW  Elec       q    Type
                         _______ _______ _______ _____ _____    ______ ____

>  <TORSDO>
F 4

$$$$
=
 OpenBabel11052418453D

 34 38  0  0  1  0  0  0  0  0999 V2000
  186.7910  176.6740  144.1800 C   0  0  0  0  0  0  0  0  0  0  0  0
  187.8610  176.5930  146.4920 C   0  0  2  0  0  3  0  0  0  0  0  0
  189.0700  175.8550  144.3730 C   0  0  0  0  0  0  0  0  0  0  0  0
  192.0640  176.4490  142.9540 C   0  0  0  0  0  2  0  0  0  0  0  0
  185.7460  177.8760  146.1070 C   0  0  0  0  0  2  0  0  0  0  0  0
  186.4630  176.9040  147.0270 C   0  0  0  0  0  2  0  0  0  0  0  0
  190.9950  176.7590  145.6880 C   0  0  0  0  0  2  0  0  0  0  0  0
  187.8950  176.3370  144.9930 C   0  0  0  0  0  0  0  0  0  0  0  0
  193.0790  176.5950  144.0840 C   0  0  0  0  0  2  0  0  0  0  0  0
  185.5110  177.1960  144.7670 C   0  0  0  0  0  2  0  0  0  0  0  0
  189.0920  175.6490  142.9720 C   0  0  0  0  0  0  0  0  0  0  0  0
  186.8460  176.4650  142.8400 N   0  0  0  0  0  0  0  0  0  0  0  0
  188.3620  175.5050  147.1840 F   0  0  0  0  0  0  0  0  0  0  0  0
  191.5470  175.0890  142.9160 N   0  0  0  0  0  2  0  0  0  0  0  0
  190.2780  175.1110  142.1840 C   0  0  1  0  0  3  0  0  0  0  0  0
  192.5040  176.5600  145.5130 C   0  0  2  0  0  3  0  0  0  0  0  0
  190.2480  175.6310  145.1500 N   0  0  0  0  0  2  0  0  0  0  0  0
  187.9500  175.9690  142.2340 C   0  0  0  0  0  3  0  0  0  0  0  0
  190.0660  171.3690  141.7760 C   0  0  2  0  0  3  0  0  0  0  0  0
  189.7760  171.4620  140.3890 O   0  0  0  0  0  0  0  0  0  0  0  0
  189.9690  173.8090  141.5810 N   0  0  2  0  0  0  0  0  0  0  0  0
  190.7310  172.2920  139.7660 C   0  0  0  0  0  2  0  0  0  0  0  0
  190.4660  172.7100  142.4140 C   0  0  0  0  0  2  0  0  0  0  0  0
  190.5780  173.7430  140.2460 C   0  0  0  0  0  2  0  0  0  0  0  0
  191.1030  170.2960  142.0510 C   0  0  0  0  0  1  0  0  0  0  0  0
  193.1030  175.4630  146.3910 C   0  0  0  0  0  2  0  0  0  0  0  0
  193.3800  174.2790  145.6500 O   0  0  0  0  0  0  0  0  0  0  0  0
  193.4940  171.5240  144.9150 C   0  0  0  0  0  1  0  0  0  0  0  0
  194.6300  173.6490  145.6340 C   0  0  0  0  0  0  0  0  0  0  0  0
  194.7180  172.2970  145.2670 C   0  0  0  0  0  0  0  0  0  0  0  0
  197.1210  172.3580  145.5720 C   0  0  0  0  0  3  0  0  0  0  0  0
  197.0410  173.7010  145.9460 C   0  0  0  0  0  3  0  0  0  0  0  0
  195.8010  174.3430  145.9800 C   0  0  0  0  0  3  0  0  0  0  0  0
  195.9610  171.6570  145.2360 C   0  0  0  0  0  3  0  0  0  0  0  0
  1 10  1  0  0  0  0
  1  8  1  0  0  0  0
  2  6  1  0  0  0  0
  2 13  1  1  0  0  0
  3  8  2  0  0  0  0
  3 17  1  0  0  0  0
  4  9  1  0  0  0  0
  5  6  1  0  0  0  0
  8  2  1  0  0  0  0
  9 16  1  0  0  0  0
 10  5  1  0  0  0  0
 11  3  1  0  0  0  0
 12  1  2  0  0  0  0
 14  4  1  0  0  0  0
 15 14  1  1  0  0  0
 15 11  1  0  0  0  0
 16  7  1  0  0  0  0
 16 26  1  6  0  0  0
 17  7  1  0  0  0  0
 18 12  1  0  0  0  0
 18 11  2  0  0  0  0
 19 25  1  6  0  0  0
 19 23  1  0  0  0  0
 20 19  1  0  0  0  0
 21 24  1  6  0  0  0
 21 15  1  0  0  0  0
 21 23  1  0  0  0  0
 22 24  1  0  0  0  0
 22 20  1  0  0  0  0
 27 26  1  0  0  0  0
 28 30  1  0  0  0  0
 29 27  1  0  0  0  0
 29 33  1  0  0  0  0
 30 29  2  0  0  0  0
 31 32  1  0  0  0  0
 32 33  2  0  0  0  0
 34 30  1  0  0  0  0
 34 31  2  0  0  0  0
M  END
>  <MODEL>
4

>  <REMARK>
 VINA RESULT:      -8.2      2.984      7.725
  Name = 
  4 active torsions:
  status: ('A' for Active; 'I' for Inactive)
    1  A    between atoms: O_3  and  C_13
    2  A    between atoms: O_3  and  C_17
    3  A    between atoms: N_12  and  C_28
    4  A    between atoms: C_17  and  C_29
                            x       y       z     vdW  Elec       q    Type
                         _______ _______ _______ _____ _____    ______ ____

>  <TORSDO>
F 4

$$$$
=
 OpenBabel11052418453D

 34 38  0  0  1  0  0  0  0  0999 V2000
  186.8700  176.6510  144.2110 C   0  0  0  0  0  0  0  0  0  0  0  0
  187.8800  176.5390  146.5480 C   0  0  2  0  0  3  0  0  0  0  0  0
  189.1430  175.8260  144.4530 C   0  0  0  0  0  0  0  0  0  0  0  0
  192.1730  176.4340  143.1200 C   0  0  0  0  0  2  0  0  0  0  0  0
  185.7770  177.8300  146.1260 C   0  0  0  0  0  2  0  0  0  0  0  0
  186.4690  176.8460  147.0510 C   0  0  0  0  0  2  0  0  0  0  0  0
  191.0340  176.7110  145.8280 C   0  0  0  0  0  2  0  0  0  0  0  0
  187.9530  176.3030  145.0480 C   0  0  0  0  0  0  0  0  0  0  0  0
  193.1580  176.5640  144.2770 C   0  0  0  0  0  2  0  0  0  0  0  0
  185.5760  177.1680  144.7710 C   0  0  0  0  0  2  0  0  0  0  0  0
  189.2010  175.6390  143.0500 C   0  0  0  0  0  0  0  0  0  0  0  0
  186.9600  176.4590  142.8700 N   0  0  0  0  0  0  0  0  0  0  0  0
  188.3620  175.4420  147.2390 F   0  0  0  0  0  0  0  0  0  0  0  0
  191.6550  175.0750  143.0500 N   0  0  0  0  0  2  0  0  0  0  0  0
  190.4060  175.1090  142.2870 C   0  0  1  0  0  3  0  0  0  0  0  0
  192.5470  176.5110  145.6900 C   0  0  2  0  0  3  0  0  0  0  0  0
  190.2990  175.5910  145.2570 N   0  0  0  0  0  2  0  0  0  0  0  0
  188.0790  175.9690  142.2870 C   0  0  0  0  0  3  0  0  0  0  0  0
  190.1330  171.3740  141.8550 C   0  0  2  0  0  3  0  0  0  0  0  0
  189.9510  171.4740  140.4510 O   0  0  0  0  0  0  0  0  0  0  0  0
  190.1110  173.8150  141.6590 N   0  0  2  0  0  0  0  0  0  0  0  0
  190.9710  172.2800  139.9030 C   0  0  0  0  0  2  0  0  0  0  0  0
  190.5170  172.7040  142.5240 C   0  0  0  0  0  2  0  0  0  0  0  0
  190.8180  173.7340  140.3730 C   0  0  0  0  0  2  0  0  0  0  0  0
  191.1190  170.2740  142.2050 C   0  0  0  0  0  1  0  0  0  0  0  0
  193.1210  175.4020  146.5700 C   0  0  0  0  0  2  0  0  0  0  0  0
  194.3160  174.8550  146.0220 O   0  0  0  0  0  0  0  0  0  0  0  0
  196.9030  173.6500  146.0930 C   0  0  0  0  0  1  0  0  0  0  0  0
  194.4390  173.5240  145.6060 C   0  0  0  0  0  0  0  0  0  0  0  0
  195.6970  172.9020  145.6390 C   0  0  0  0  0  0  0  0  0  0  0  0
  194.7190  170.8510  144.7970 C   0  0  0  0  0  3  0  0  0  0  0  0
  193.4650  171.4640  144.7540 C   0  0  0  0  0  3  0  0  0  0  0  0
  193.3260  172.7960  145.1530 C   0  0  0  0  0  3  0  0  0  0  0  0
  195.8330  171.5700  145.2360 C   0  0  0  0  0  3  0  0  0  0  0  0
  1 10  1  0  0  0  0
  1  8  1  0  0  0  0
  2  6  1  0  0  0  0
  2 13  1  1  0  0  0
  3  8  2  0  0  0  0
  3 17  1  0  0  0  0
  4  9  1  0  0  0  0
  5  6  1  0  0  0  0
  8  2  1  0  0  0  0
  9 16  1  0  0  0  0
 10  5  1  0  0  0  0
 11  3  1  0  0  0  0
 12  1  2  0  0  0  0
 14  4  1  0  0  0  0
 15 11  1  1  0  0  0
 15 14  1  0  0  0  0
 16  7  1  0  0  0  0
 16 26  1  6  0  0  0
 17  7  1  0  0  0  0
 18 12  1  0  0  0  0
 18 11  2  0  0  0  0
 19 25  1  6  0  0  0
 19 23  1  0  0  0  0
 20 19  1  0  0  0  0
 21 24  1  6  0  0  0
 21 15  1  0  0  0  0
 21 23  1  0  0  0  0
 22 24  1  0  0  0  0
 22 20  1  0  0  0  0
 27 26  1  0  0  0  0
 29 30  1  0  0  0  0
 29 27  1  0  0  0  0
 30 28  1  0  0  0  0
 31 34  1  0  0  0  0
 32 31  2  0  0  0  0
 32 33  1  0  0  0  0
 33 29  2  0  0  0  0
 34 30  2  0  0  0  0
M  END
>  <MODEL>
5

>  <REMARK>
 VINA RESULT:      -8.2      2.987      7.589
  Name = 
  4 active torsions:
  status: ('A' for Active; 'I' for Inactive)
    1  A    between atoms: O_3  and  C_13
    2  A    between atoms: O_3  and  C_17
    3  A    between atoms: N_12  and  C_28
    4  A    between atoms: C_17  and  C_29
                            x       y       z     vdW  Elec       q    Type
                         _______ _______ _______ _____ _____    ______ ____

>  <TORSDO>
F 4

$$$$
=
 OpenBabel11052418453D

 34 38  0  0  1  0  0  0  0  0999 V2000
  194.6650  172.3180  144.8530 C   0  0  0  0  0  0  0  0  0  0  0  0
  195.0460  174.5330  146.0540 C   0  0  2  0  0  3  0  0  0  0  0  0
  192.7730  173.8130  145.1550 C   0  0  0  0  0  0  0  0  0  0  0  0
  189.6300  173.6490  146.3490 C   0  0  0  0  0  2  0  0  0  0  0  0
  196.7710  172.7220  146.1390 C   0  0  0  0  0  2  0  0  0  0  0  0
  196.5360  174.2090  145.9450 C   0  0  0  0  0  2  0  0  0  0  0  0
  192.0590  175.1120  147.1680 C   0  0  0  0  0  2  0  0  0  0  0  0
  194.1530  173.5520  145.3110 C   0  0  0  0  0  0  0  0  0  0  0  0
  189.4420  174.8350  147.2900 C   0  0  0  0  0  2  0  0  0  0  0  0
  196.1190  171.9700  144.9880 C   0  0  0  0  0  2  0  0  0  0  0  0
  191.9520  172.8730  144.4840 C   0  0  0  0  0  0  0  0  0  0  0  0
  193.8500  171.4410  144.2150 N   0  0  0  0  0  0  0  0  0  0  0  0
  194.8440  175.8220  145.5930 F   0  0  0  0  0  0  0  0  0  0  0  0
  189.8190  174.1160  144.9830 N   0  0  0  0  0  2  0  0  0  0  0  0
  190.4610  173.0400  144.2260 C   0  0  1  0  0  3  0  0  0  0  0  0
  190.6930  175.6960  147.5460 C   0  0  2  0  0  3  0  0  0  0  0  0
  192.1990  174.9900  145.7230 N   0  0  0  0  0  2  0  0  0  0  0  0
  192.5330  171.6890  144.0240 C   0  0  0  0  0  3  0  0  0  0  0  0
  189.2900  174.4840  140.9460 C   0  0  2  0  0  3  0  0  0  0  0  0
  189.3140  173.2220  140.2960 O   0  0  0  0  0  0  0  0  0  0  0  0
  190.1780  173.1370  142.7880 N   0  0  2  0  0  0  0  0  0  0  0  0
  188.5990  172.2840  141.0700 C   0  0  0  0  0  2  0  0  0  0  0  0
  189.5100  174.4000  142.4650 C   0  0  0  0  0  2  0  0  0  0  0  0
  189.3320  172.0040  142.3890 C   0  0  0  0  0  2  0  0  0  0  0  0
  188.0240  175.2510  140.6120 C   0  0  0  0  0  1  0  0  0  0  0  0
  190.5130  177.1690  147.1840 C   0  0  0  0  0  2  0  0  0  0  0  0
  189.3020  177.3970  146.4700 O   0  0  0  0  0  0  0  0  0  0  0  0
  186.7410  177.4650  145.2130 C   0  0  0  0  0  1  0  0  0  0  0  0
  189.2480  177.6230  145.0900 C   0  0  0  0  0  0  0  0  0  0  0  0
  188.0020  177.6710  144.4460 C   0  0  0  0  0  0  0  0  0  0  0  0
  189.0990  178.0930  142.3270 C   0  0  0  0  0  3  0  0  0  0  0  0
  190.3430  178.0380  142.9580 C   0  0  0  0  0  3  0  0  0  0  0  0
  190.4180  177.8010  144.3330 C   0  0  0  0  0  3  0  0  0  0  0  0
  187.9310  177.9070  143.0690 C   0  0  0  0  0  3  0  0  0  0  0  0
  1 10  1  0  0  0  0
  1  8  1  0  0  0  0
  2 13  1  6  0  0  0
  3  8  2  0  0  0  0
  3 17  1  0  0  0  0
  4  9  1  0  0  0  0
  6  2  1  0  0  0  0
  6  5  1  0  0  0  0
  7 16  1  0  0  0  0
  8  2  1  0  0  0  0
  9 16  1  0  0  0  0
 10  5  1  0  0  0  0
 11  3  1  0  0  0  0
 12  1  2  0  0  0  0
 14  4  1  0  0  0  0
 15 11  1  6  0  0  0
 15 14  1  0  0  0  0
 16 26  1  6  0  0  0
 17  7  1  0  0  0  0
 18 12  1  0  0  0  0
 18 11  2  0  0  0  0
 19 25  1  1  0  0  0
 19 23  1  0  0  0  0
 20 19  1  0  0  0  0
 20 22  1  0  0  0  0
 21 24  1  1  0  0  0
 21 15  1  0  0  0  0
 22 24  1  0  0  0  0
 23 21  1  0  0  0  0
 27 26  1  0  0  0  0
 29 27  1  0  0  0  0
 30 29  1  0  0  0  0
 30 28  1  0  0  0  0
 31 32  2  0  0  0  0
 31 34  1  0  0  0  0
 32 33  1  0  0  0  0
 33 29  2  0  0  0  0
 34 30  2  0  0  0  0
M  END
>  <MODEL>
6

>  <REMARK>
 VINA RESULT:      -8.2      3.192      6.170
  Name = 
  4 active torsions:
  status: ('A' for Active; 'I' for Inactive)
    1  A    between atoms: O_3  and  C_13
    2  A    between atoms: O_3  and  C_17
    3  A    between atoms: N_12  and  C_28
    4  A    between atoms: C_17  and  C_29
                            x       y       z     vdW  Elec       q    Type
                         _______ _______ _______ _____ _____    ______ ____

>  <TORSDO>
F 4

$$$$
=
 OpenBabel11052418453D

 34 38  0  0  1  0  0  0  0  0999 V2000
  186.9630  177.9320  145.9000 C   0  0  0  0  0  0  0  0  0  0  0  0
  186.2140  177.9730  143.4650 C   0  0  2  0  0  3  0  0  0  0  0  0
  188.2220  176.6310  144.2790 C   0  0  0  0  0  0  0  0  0  0  0  0
  189.3310  173.4720  143.9380 C   0  0  0  0  0  2  0  0  0  0  0  0
  184.7200  178.8430  145.2750 C   0  0  0  0  0  2  0  0  0  0  0  0
  185.2780  179.1040  143.8870 C   0  0  0  0  0  2  0  0  0  0  0  0
  187.4140  175.1430  142.4400 C   0  0  0  0  0  2  0  0  0  0  0  0
  187.1700  177.5320  144.5620 C   0  0  0  0  0  0  0  0  0  0  0  0
  188.9610  173.0120  142.5310 C   0  0  0  0  0  2  0  0  0  0  0  0
  185.8640  178.8840  146.2770 C   0  0  0  0  0  2  0  0  0  0  0  0
  189.0850  176.2090  145.3210 C   0  0  0  0  0  0  0  0  0  0  0  0
  187.8090  177.5090  146.8730 N   0  0  0  0  0  0  0  0  0  0  0  0
  186.9140  178.3810  142.3430 F   0  0  0  0  0  0  0  0  0  0  0  0
  190.3070  174.5500  143.8740 N   0  0  0  0  0  2  0  0  0  0  0  0
  190.2670  175.2670  145.1500 C   0  0  1  0  0  3  0  0  0  0  0  0
  188.1150  173.9980  141.7020 C   0  0  2  0  0  3  0  0  0  0  0  0
  188.3760  176.1030  142.9610 N   0  0  0  0  0  2  0  0  0  0  0  0
  188.8440  176.6750  146.6150 C   0  0  0  0  0  3  0  0  0  0  0  0
  193.6870  176.7490  144.5820 C   0  0  2  0  0  3  0  0  0  0  0  0
  193.9670  176.8260  145.9710 O   0  0  0  0  0  0  0  0  0  0  0  0
  191.5360  175.9480  145.4370 N   0  0  2  0  0  0  0  0  0  0  0  0
  193.7160  175.5730  146.5690 C   0  0  0  0  0  2  0  0  0  0  0  0
  192.4000  175.9740  144.2530 C   0  0  0  0  0  2  0  0  0  0  0  0
  192.2140  175.2530  146.5390 C   0  0  0  0  0  2  0  0  0  0  0  0
  194.8740  176.2020  143.8110 C   0  0  0  0  0  1  0  0  0  0  0  0
  188.7600  174.4010  140.3770 C   0  0  0  0  0  2  0  0  0  0  0  0
  189.8180  173.5220  140.0110 O   0  0  0  0  0  0  0  0  0  0  0  0
  190.6540  170.8050  140.2660 C   0  0  0  0  0  1  0  0  0  0  0  0
  189.7920  172.7110  138.8700 C   0  0  0  0  0  0  0  0  0  0  0  0
  190.1890  171.3680  138.9670 C   0  0  0  0  0  0  0  0  0  0  0  0
  189.7350  171.0510  136.6090 C   0  0  0  0  0  3  0  0  0  0  0  0
  189.3470  172.3880  136.5010 C   0  0  0  0  0  3  0  0  0  0  0  0
  189.3780  173.2160  137.6260 C   0  0  0  0  0  3  0  0  0  0  0  0
  190.1580  170.5430  137.8390 C   0  0  0  0  0  3  0  0  0  0  0  0
  1 10  1  0  0  0  0
  1 12  1  0  0  0  0
  2 13  1  6  0  0  0
  2  6  1  0  0  0  0
  2  8  1  0  0  0  0
  3  8  1  0  0  0  0
  3 11  2  0  0  0  0
  5 10  1  0  0  0  0
  6  5  1  0  0  0  0
  7 17  1  0  0  0  0
  8  1  2  0  0  0  0
  9  4  1  0  0  0  0
 11 18  1  0  0  0  0
 14  4  1  0  0  0  0
 15 14  1  6  0  0  0
 15 11  1  0  0  0  0
 15 21  1  0  0  0  0
 16 26  1  6  0  0  0
 16  7  1  0  0  0  0
 16  9  1  0  0  0  0
 17  3  1  0  0  0  0
 18 12  2  0  0  0  0
 19 25  1  6  0  0  0
 19 20  1  0  0  0  0
 20 22  1  0  0  0  0
 21 23  1  6  0  0  0
 21 24  1  0  0  0  0
 23 19  1  0  0  0  0
 24 22  1  0  0  0  0
 27 26  1  0  0  0  0
 29 30  1  0  0  0  0
 29 27  1  0  0  0  0
 30 28  1  0  0  0  0
 31 34  1  0  0  0  0
 32 31  2  0  0  0  0
 32 33  1  0  0  0  0
 33 29  2  0  0  0  0
 34 30  2  0  0  0  0
M  END
>  <MODEL>
7

>  <REMARK>
 VINA RESULT:      -7.8      2.278      7.210
  Name = 
  4 active torsions:
  status: ('A' for Active; 'I' for Inactive)
    1  A    between atoms: O_3  and  C_13
    2  A    between atoms: O_3  and  C_17
    3  A    between atoms: N_12  and  C_28
    4  A    between atoms: C_17  and  C_29
                            x       y       z     vdW  Elec       q    Type
                         _______ _______ _______ _____ _____    ______ ____

>  <TORSDO>
F 4

$$$$
=
 OpenBabel11052418453D

 34 38  0  0  1  0  0  0  0  0999 V2000
  190.9590  173.4340  139.6090 C   0  0  0  0  0  0  0  0  0  0  0  0
  188.7660  173.6220  140.8940 C   0  0  2  0  0  3  0  0  0  0  0  0
  190.9780  174.5270  141.7790 C   0  0  0  0  0  0  0  0  0  0  0  0
  192.0590  177.4270  143.1020 C   0  0  0  0  0  2  0  0  0  0  0  0
  188.7760  172.9900  138.4720 C   0  0  0  0  0  2  0  0  0  0  0  0
  188.1950  172.6750  139.8380 C   0  0  0  0  0  2  0  0  0  0  0  0
  189.3960  176.2050  142.7450 C   0  0  0  0  0  2  0  0  0  0  0  0
  190.2670  173.8330  140.7730 C   0  0  0  0  0  0  0  0  0  0  0  0
  190.9170  177.9970  143.9360 C   0  0  0  0  0  2  0  0  0  0  0  0
  190.2690  172.6970  138.4970 C   0  0  0  0  0  2  0  0  0  0  0  0
  192.3710  174.7400  141.6350 C   0  0  0  0  0  0  0  0  0  0  0  0
  192.2940  173.6540  139.5030 N   0  0  0  0  0  0  0  0  0  0  0  0
  188.4430  173.1270  142.1450 F   0  0  0  0  0  0  0  0  0  0  0  0
  192.5410  176.1850  143.6900 N   0  0  0  0  0  2  0  0  0  0  0  0
  193.2590  175.4450  142.6500 C   0  0  1  0  0  3  0  0  0  0  0  0
  189.5880  177.2200  143.8770 C   0  0  2  0  0  3  0  0  0  0  0  0
  190.2830  175.0610  142.9060 N   0  0  0  0  0  2  0  0  0  0  0  0
  192.9980  174.2840  140.4730 C   0  0  0  0  0  3  0  0  0  0  0  0
  194.6760  172.4550  144.4580 C   0  0  2  0  0  3  0  0  0  0  0  0
  195.9650  173.0400  144.5700 O   0  0  0  0  0  0  0  0  0  0  0  0
  194.2520  174.5240  143.2180 N   0  0  2  0  0  0  0  0  0  0  0  0
  195.8450  174.3350  145.1150 C   0  0  0  0  0  2  0  0  0  0  0  0
  193.6020  173.4240  143.9350 C   0  0  0  0  0  2  0  0  0  0  0  0
  195.1290  175.2700  144.1300 C   0  0  0  0  0  2  0  0  0  0  0  0
  194.2490  171.8100  145.7630 C   0  0  0  0  0  1  0  0  0  0  0  0
  189.0880  176.7470  145.2410 C   0  0  0  0  0  2  0  0  0  0  0  0
  187.7030  176.4170  145.2150 O   0  0  0  0  0  0  0  0  0  0  0  0
  185.9970  178.0710  143.6340 C   0  0  0  0  0  1  0  0  0  0  0  0
  186.7160  177.1650  145.8670 C   0  0  0  0  0  0  0  0  0  0  0  0
  185.8560  177.9800  145.1140 C   0  0  0  0  0  0  0  0  0  0  0  0
  184.7130  178.6650  147.1380 C   0  0  0  0  0  3  0  0  0  0  0  0
  185.5690  177.8630  147.8950 C   0  0  0  0  0  3  0  0  0  0  0  0
  186.5690  177.1190  147.2630 C   0  0  0  0  0  3  0  0  0  0  0  0
  184.8580  178.7250  145.7510 C   0  0  0  0  0  3  0  0  0  0  0  0
  1  8  1  0  0  0  0
  2 13  1  1  0  0  0
  3 17  1  0  0  0  0
  4 14  1  0  0  0  0
  4  9  1  0  0  0  0
  5 10  1  0  0  0  0
  5  6  1  0  0  0  0
  6  2  1  0  0  0  0
  7 17  1  0  0  0  0
  7 16  1  0  0  0  0
  8  2  1  0  0  0  0
  8  3  2  0  0  0  0
 10  1  1  0  0  0  0
 11  3  1  0  0  0  0
 12  1  2  0  0  0  0
 12 18  1  0  0  0  0
 15 11  1  1  0  0  0
 15 21  1  0  0  0  0
 15 14  1  0  0  0  0
 16  9  1  0  0  0  0
 16 26  1  1  0  0  0
 18 11  2  0  0  0  0
 19 20  1  0  0  0  0
 19 25  1  1  0  0  0
 20 22  1  0  0  0  0
 21 23  1  1  0  0  0
 21 24  1  0  0  0  0
 23 19  1  0  0  0  0
 24 22  1  0  0  0  0
 27 26  1  0  0  0  0
 27 29  1  0  0  0  0
 28 30  1  0  0  0  0
 29 33  1  0  0  0  0
 30 34  1  0  0  0  0
 30 29  2  0  0  0  0
 31 32  1  0  0  0  0
 33 32  2  0  0  0  0
 34 31  2  0  0  0  0
M  END
>  <MODEL>
8

>  <REMARK>
 VINA RESULT:      -7.4      1.943      2.577
  Name = 
  4 active torsions:
  status: ('A' for Active; 'I' for Inactive)
    1  A    between atoms: O_3  and  C_13
    2  A    between atoms: O_3  and  C_17
    3  A    between atoms: N_12  and  C_28
    4  A    between atoms: C_17  and  C_29
                            x       y       z     vdW  Elec       q    Type
                         _______ _______ _______ _____ _____    ______ ____

>  <TORSDO>
F 4

$$$$
=
 OpenBabel11052418453D

 34 38  0  0  1  0  0  0  0  0999 V2000
  194.4900  174.0860  143.5850 C   0  0  0  0  0  0  0  0  0  0  0  0
  194.2700  176.3330  144.7680 C   0  0  2  0  0  3  0  0  0  0  0  0
  192.2880  174.7910  144.3340 C   0  0  0  0  0  0  0  0  0  0  0  0
  189.7490  173.5310  146.1480 C   0  0  0  0  0  2  0  0  0  0  0  0
  196.5180  175.2880  144.4190 C   0  0  0  0  0  2  0  0  0  0  0  0
  195.7170  176.5750  144.3390 C   0  0  0  0  0  2  0  0  0  0  0  0
  191.5820  175.8160  146.5020 C   0  0  0  0  0  2  0  0  0  0  0  0
  193.6670  175.0630  144.1880 C   0  0  0  0  0  0  0  0  0  0  0  0
  189.3380  174.6000  147.1550 C   0  0  0  0  0  2  0  0  0  0  0  0
  195.9640  174.3040  143.3990 C   0  0  0  0  0  2  0  0  0  0  0  0
  191.7490  173.5890  143.8110 C   0  0  0  0  0  0  0  0  0  0  0  0
  193.9410  172.9460  143.0950 N   0  0  0  0  0  0  0  0  0  0  0  0
  193.5170  177.4370  144.4110 F   0  0  0  0  0  0  0  0  0  0  0  0
  189.4640  173.9800  144.7930 N   0  0  0  0  0  2  0  0  0  0  0  0
  190.2840  173.1860  143.8760 C   0  0  1  0  0  3  0  0  0  0  0  0
  190.2090  175.8710  147.1790 C   0  0  2  0  0  3  0  0  0  0  0  0
  191.4530  175.6970  145.0560 N   0  0  0  0  0  2  0  0  0  0  0  0
  192.6160  172.6850  143.1930 C   0  0  0  0  0  3  0  0  0  0  0  0
  188.8530  174.3310  140.5800 C   0  0  2  0  0  3  0  0  0  0  0  0
  188.3000  173.0560  140.2930 O   0  0  0  0  0  0  0  0  0  0  0  0
  189.6920  173.1140  142.5330 N   0  0  2  0  0  0  0  0  0  0  0  0
  187.5400  172.6150  141.3960 C   0  0  0  0  0  2  0  0  0  0  0  0
  189.4120  174.4530  142.0080 C   0  0  0  0  0  2  0  0  0  0  0  0
  188.4520  172.3290  142.5980 C   0  0  0  0  0  2  0  0  0  0  0  0
  187.8650  175.4410  140.2770 C   0  0  0  0  0  1  0  0  0  0  0  0
  189.4280  177.1590  146.9230 C   0  0  0  0  0  2  0  0  0  0  0  0
  188.0260  176.9230  146.8410 O   0  0  0  0  0  0  0  0  0  0  0  0
  188.3210  177.1900  144.0150 C   0  0  0  0  0  1  0  0  0  0  0  0
  187.1380  177.7640  146.1590 C   0  0  0  0  0  0  0  0  0  0  0  0
  187.2530  177.9070  144.7670 C   0  0  0  0  0  0  0  0  0  0  0  0
  185.3640  179.4240  144.7550 C   0  0  0  0  0  3  0  0  0  0  0  0
  185.2480  179.2940  146.1400 C   0  0  0  0  0  3  0  0  0  0  0  0
  186.1330  178.4700  146.8400 C   0  0  0  0  0  3  0  0  0  0  0  0
  186.3660  178.7340  144.0710 C   0  0  0  0  0  3  0  0  0  0  0  0
  1  8  1  0  0  0  0
  2 13  1  6  0  0  0
  3 17  1  0  0  0  0
  4  9  1  0  0  0  0
  6  5  1  0  0  0  0
  6  2  1  0  0  0  0
  7 16  1  0  0  0  0
  8  3  2  0  0  0  0
  8  2  1  0  0  0  0
  9 16  1  0  0  0  0
 10  1  1  0  0  0  0
 10  5  1  0  0  0  0
 11  3  1  0  0  0  0
 12 18  1  0  0  0  0
 12  1  2  0  0  0  0
 14  4  1  0  0  0  0
 15 11  1  6  0  0  0
 15 14  1  0  0  0  0
 16 26  1  6  0  0  0
 17  7  1  0  0  0  0
 18 11  2  0  0  0  0
 19 25  1  1  0  0  0
 19 23  1  0  0  0  0
 20 19  1  0  0  0  0
 20 22  1  0  0  0  0
 21 23  1  1  0  0  0
 21 24  1  0  0  0  0
 21 15  1  0  0  0  0
 22 24  1  0  0  0  0
 27 26  1  0  0  0  0
 28 30  1  0  0  0  0
 29 33  1  0  0  0  0
 29 27  1  0  0  0  0
 30 29  2  0  0  0  0
 31 32  1  0  0  0  0
 32 33  2  0  0  0  0
 34 31  2  0  0  0  0
 34 30  1  0  0  0  0
M  END
>  <MODEL>
9

>  <REMARK>
 VINA RESULT:      -7.3      2.718      5.516
  Name = 
  4 active torsions:
  status: ('A' for Active; 'I' for Inactive)
    1  A    between atoms: O_3  and  C_13
    2  A    between atoms: O_3  and  C_17
    3  A    between atoms: N_12  and  C_28
    4  A    between atoms: C_17  and  C_29
                            x       y       z     vdW  Elec       q    Type
                         _______ _______ _______ _____ _____    ______ ____

>  <TORSDO>
F 4

$$$$
