=
 OpenBabel11052417273D

 25 27  0  0  0  0  0  0  0  0999 V2000
  187.4220  177.6240  144.6380 C   0  0  0  0  0  0  0  0  0  0  0  0
  187.2310  177.2840  143.2830 C   0  0  0  0  0  0  0  0  0  0  0  0
  185.7410  179.3510  144.3950 C   0  0  0  0  0  3  0  0  0  0  0  0
  188.5870  174.8810  140.8520 N   0  0  0  0  0  2  0  0  0  0  0  0
  185.5740  179.0100  143.0900 N   0  0  0  0  0  0  0  0  0  0  0  0
  186.1060  177.6700  141.1710 C   0  0  0  0  0  0  0  0  0  0  0  0
  185.1630  178.3720  140.3660 N   0  0  0  0  0  1  0  0  0  0  0  0
  188.5610  174.3810  139.5060 C   0  0  0  0  0  0  0  0  0  0  0  0
  187.9520  176.2860  142.6980 N   0  0  0  0  0  0  0  0  0  0  0  0
  186.6620  178.6640  145.1870 C   0  0  0  0  0  3  0  0  0  0  0  0
  186.8590  176.6390  140.6080 C   0  0  0  0  0  3  0  0  0  0  0  0
  187.7920  175.9450  141.3910 C   0  0  0  0  0  0  0  0  0  0  0  0
  186.2890  178.0040  142.5180 C   0  0  0  0  0  0  0  0  0  0  0  0
  187.7810  174.8790  138.6500 O   0  0  0  0  0  0  0  0  0  0  0  0
  188.3720  176.8860  145.4990 C   0  0  0  0  0  0  0  0  0  0  0  0
  190.1040  175.4700  147.2000 C   0  0  0  0  0  3  0  0  0  0  0  0
  189.7650  177.1260  145.4600 C   0  0  0  0  0  0  0  0  0  0  0  0
  190.6180  176.4140  146.3100 C   0  0  0  0  0  3  0  0  0  0  0  0
  188.7320  175.2260  147.2420 C   0  0  0  0  0  3  0  0  0  0  0  0
  190.4910  178.2590  144.3290 Cl  0  0  0  0  0  0  0  0  0  0  0  0
  187.8720  175.9300  146.3970 C   0  0  0  0  0  3  0  0  0  0  0  0
  189.4690  173.2510  139.1100 C   0  0  0  0  0  0  0  0  0  0  0  0
  190.1550  173.5770  137.7970 C   0  0  0  0  0  1  0  0  0  0  0  0
  190.5240  173.0400  140.1810 C   0  0  0  0  0  1  0  0  0  0  0  0
  188.7410  172.0700  138.9560 O   0  0  0  0  0  1  0  0  0  0  0  0
  1 10  1  0  0  0  0
  1 15  1  0  0  0  0
  2  1  2  0  0  0  0
  3 10  2  0  0  0  0
  4 12  1  0  0  0  0
  5  3  1  0  0  0  0
  6 13  1  0  0  0  0
  7  6  1  0  0  0  0
  8  4  1  0  0  0  0
  9  2  1  0  0  0  0
 11  6  2  0  0  0  0
 11 12  1  0  0  0  0
 12  9  2  0  0  0  0
 13  5  2  0  0  0  0
 13  2  1  0  0  0  0
 14  8  2  0  0  0  0
 15 21  1  0  0  0  0
 16 19  1  0  0  0  0
 17 15  2  0  0  0  0
 17 18  1  0  0  0  0
 18 16  2  0  0  0  0
 20 17  1  0  0  0  0
 21 19  2  0  0  0  0
 22  8  1  0  0  0  0
 22 24  1  0  0  0  0
 23 22  1  0  0  0  0
 25 22  1  0  0  0  0
M  END
>  <MODEL>
1

>  <REMARK>
 VINA RESULT:      -7.6      0.000      0.000
  Name = 
  2 active torsions:
  status: ('A' for Active; 'I' for Inactive)
    1  A    between atoms: C_1  and  C_5
    2  A    between atoms: C_2  and  C_15
                            x       y       z     vdW  Elec       q    Type
                         _______ _______ _______ _____ _____    ______ ____

>  <TORSDO>
F 2

$$$$
=
 OpenBabel11052417273D

 25 27  0  0  0  0  0  0  0  0999 V2000
  190.8030  174.6550  143.9310 C   0  0  0  0  0  0  0  0  0  0  0  0
  189.6840  175.0990  143.1970 C   0  0  0  0  0  0  0  0  0  0  0  0
  191.5110  173.3840  141.9950 C   0  0  0  0  0  3  0  0  0  0  0  0
  186.7430  177.2410  143.7290 N   0  0  0  0  0  2  0  0  0  0  0  0
  190.4250  173.8200  141.3050 N   0  0  0  0  0  0  0  0  0  0  0  0
  188.3980  175.0950  141.1420 C   0  0  0  0  0  0  0  0  0  0  0  0
  188.1920  174.6760  139.7970 N   0  0  0  0  0  1  0  0  0  0  0  0
  185.5420  177.8010  143.1760 C   0  0  0  0  0  0  0  0  0  0  0  0
  188.7590  175.9300  143.7550 N   0  0  0  0  0  0  0  0  0  0  0  0
  191.7180  173.7950  143.3130 C   0  0  0  0  0  3  0  0  0  0  0  0
  187.4750  175.9500  141.7460 C   0  0  0  0  0  3  0  0  0  0  0  0
  187.6670  176.3650  143.0700 C   0  0  0  0  0  0  0  0  0  0  0  0
  189.5140  174.6590  141.8670 C   0  0  0  0  0  0  0  0  0  0  0  0
  185.1980  177.5430  141.9900 O   0  0  0  0  0  0  0  0  0  0  0  0
  191.0530  175.1060  145.3180 C   0  0  0  0  0  0  0  0  0  0  0  0
  191.4330  175.9430  147.9740 C   0  0  0  0  0  3  0  0  0  0  0  0
  192.0970  176.0020  145.6420 C   0  0  0  0  0  0  0  0  0  0  0  0
  192.2790  176.4110  146.9670 C   0  0  0  0  0  3  0  0  0  0  0  0
  190.4020  175.0570  147.6630 C   0  0  0  0  0  3  0  0  0  0  0  0
  193.2350  176.5900  144.4370 Cl  0  0  0  0  0  0  0  0  0  0  0  0
  190.2140  174.6410  146.3430 C   0  0  0  0  0  3  0  0  0  0  0  0
  184.6830  178.7070  144.0140 C   0  0  0  0  0  0  0  0  0  0  0  0
  184.4980  178.1070  145.3950 C   0  0  0  0  0  1  0  0  0  0  0  0
  185.3460  180.0650  144.1480 C   0  0  0  0  0  1  0  0  0  0  0  0
  183.4290  178.8740  143.4240 O   0  0  0  0  0  1  0  0  0  0  0  0
  1 15  1  0  0  0  0
  2  9  1  0  0  0  0
  2  1  2  0  0  0  0
  3 10  2  0  0  0  0
  5 13  2  0  0  0  0
  5  3  1  0  0  0  0
  6 11  2  0  0  0  0
  6 13  1  0  0  0  0
  7  6  1  0  0  0  0
  8  4  1  0  0  0  0
  8 22  1  0  0  0  0
 10  1  1  0  0  0  0
 11 12  1  0  0  0  0
 12  4  1  0  0  0  0
 12  9  2  0  0  0  0
 13  2  1  0  0  0  0
 14  8  2  0  0  0  0
 15 17  2  0  0  0  0
 15 21  1  0  0  0  0
 17 18  1  0  0  0  0
 18 16  2  0  0  0  0
 19 16  1  0  0  0  0
 20 17  1  0  0  0  0
 21 19  2  0  0  0  0
 22 24  1  0  0  0  0
 22 23  1  0  0  0  0
 25 22  1  0  0  0  0
M  END
>  <MODEL>
2

>  <REMARK>
 VINA RESULT:      -7.0      2.737      5.550
  Name = 
  2 active torsions:
  status: ('A' for Active; 'I' for Inactive)
    1  A    between atoms: C_1  and  C_5
    2  A    between atoms: C_2  and  C_15
                            x       y       z     vdW  Elec       q    Type
                         _______ _______ _______ _____ _____    ______ ____

>  <TORSDO>
F 2

$$$$
=
 OpenBabel11052417273D

 25 27  0  0  0  0  0  0  0  0999 V2000
  191.3240  174.3690  144.5210 C   0  0  0  0  0  0  0  0  0  0  0  0
  190.6170  175.3220  145.2820 C   0  0  0  0  0  0  0  0  0  0  0  0
  193.1160  174.4650  146.1490 C   0  0  0  0  0  3  0  0  0  0  0  0
  187.4180  177.1260  145.1110 N   0  0  0  0  0  2  0  0  0  0  0  0
  192.4200  175.3850  146.8670 N   0  0  0  0  0  0  0  0  0  0  0  0
  190.4950  176.7760  147.2180 C   0  0  0  0  0  0  0  0  0  0  0  0
  191.0440  177.3050  148.4210 N   0  0  0  0  0  1  0  0  0  0  0  0
  186.5390  178.0860  145.7190 C   0  0  0  0  0  0  0  0  0  0  0  0
  189.3960  175.7770  144.8840 N   0  0  0  0  0  0  0  0  0  0  0  0
  192.5800  173.9420  144.9710 C   0  0  0  0  0  3  0  0  0  0  0  0
  189.2450  177.2140  146.7810 C   0  0  0  0  0  3  0  0  0  0  0  0
  188.6980  176.7020  145.5970 C   0  0  0  0  0  0  0  0  0  0  0  0
  191.1960  175.8240  146.4670 C   0  0  0  0  0  0  0  0  0  0  0  0
  186.8580  178.6580  146.7960 O   0  0  0  0  0  0  0  0  0  0  0  0
  190.7580  173.7830  143.2870 C   0  0  0  0  0  0  0  0  0  0  0  0
  189.6930  172.7560  140.8970 C   0  0  0  0  0  3  0  0  0  0  0  0
  189.8770  172.6770  143.3140 C   0  0  0  0  0  0  0  0  0  0  0  0
  189.3550  172.1720  142.1190 C   0  0  0  0  0  3  0  0  0  0  0  0
  190.5630  173.8450  140.8620 C   0  0  0  0  0  3  0  0  0  0  0  0
  189.4490  171.8560  144.8090 Cl  0  0  0  0  0  0  0  0  0  0  0  0
  191.0910  174.3550  142.0500 C   0  0  0  0  0  3  0  0  0  0  0  0
  185.2240  178.4140  145.0680 C   0  0  0  0  0  0  0  0  0  0  0  0
  184.1300  178.4710  146.1170 C   0  0  0  0  0  1  0  0  0  0  0  0
  185.3150  179.7600  144.3740 C   0  0  0  0  0  1  0  0  0  0  0  0
  184.8920  177.4410  144.1230 O   0  0  0  0  0  1  0  0  0  0  0  0
  1 10  2  0  0  0  0
  1  2  1  0  0  0  0
  2 13  2  0  0  0  0
  3  5  2  0  0  0  0
  4 12  1  0  0  0  0
  4  8  1  0  0  0  0
  6  7  1  0  0  0  0
  8 14  2  0  0  0  0
  9  2  1  0  0  0  0
  9 12  2  0  0  0  0
 10  3  1  0  0  0  0
 11  6  2  0  0  0  0
 12 11  1  0  0  0  0
 13  5  1  0  0  0  0
 13  6  1  0  0  0  0
 15 17  1  0  0  0  0
 15  1  1  0  0  0  0
 16 18  1  0  0  0  0
 17 20  1  0  0  0  0
 18 17  2  0  0  0  0
 19 16  2  0  0  0  0
 19 21  1  0  0  0  0
 21 15  2  0  0  0  0
 22  8  1  0  0  0  0
 22 23  1  0  0  0  0
 24 22  1  0  0  0  0
 25 22  1  0  0  0  0
M  END
>  <MODEL>
3

>  <REMARK>
 VINA RESULT:      -6.9      3.706      7.243
  Name = 
  2 active torsions:
  status: ('A' for Active; 'I' for Inactive)
    1  A    between atoms: C_1  and  C_5
    2  A    between atoms: C_2  and  C_15
                            x       y       z     vdW  Elec       q    Type
                         _______ _______ _______ _____ _____    ______ ____

>  <TORSDO>
F 2

$$$$
=
 OpenBabel11052417273D

 25 27  0  0  0  0  0  0  0  0999 V2000
  191.4470  174.1640  144.5900 C   0  0  0  0  0  0  0  0  0  0  0  0
  190.7690  175.1300  145.3600 C   0  0  0  0  0  0  0  0  0  0  0  0
  193.2970  174.2860  146.1490 C   0  0  0  0  0  3  0  0  0  0  0  0
  187.5670  176.9350  145.2760 N   0  0  0  0  0  2  0  0  0  0  0  0
  192.6290  175.2190  146.8760 N   0  0  0  0  0  0  0  0  0  0  0  0
  190.7190  176.6180  147.2740 C   0  0  0  0  0  0  0  0  0  0  0  0
  191.3120  177.1660  148.4470 N   0  0  0  0  0  1  0  0  0  0  0  0
  186.7110  177.9060  145.8990 C   0  0  0  0  0  0  0  0  0  0  0  0
  189.5340  175.5800  144.9990 N   0  0  0  0  0  0  0  0  0  0  0  0
  192.7180  173.7440  145.0000 C   0  0  0  0  0  3  0  0  0  0  0  0
  189.4540  177.0500  146.8760 C   0  0  0  0  0  3  0  0  0  0  0  0
  188.8630  176.5180  145.7220 C   0  0  0  0  0  0  0  0  0  0  0  0
  191.3910  175.6520  146.5140 C   0  0  0  0  0  0  0  0  0  0  0  0
  187.0690  178.4960  146.9550 O   0  0  0  0  0  0  0  0  0  0  0  0
  190.8350  173.5570  143.3870 C   0  0  0  0  0  0  0  0  0  0  0  0
  189.6560  172.3230  141.1550 C   0  0  0  0  0  3  0  0  0  0  0  0
  191.1810  173.9670  142.0790 C   0  0  0  0  0  0  0  0  0  0  0  0
  190.5870  173.3480  140.9750 C   0  0  0  0  0  3  0  0  0  0  0  0
  189.3070  171.9160  142.4420 C   0  0  0  0  0  3  0  0  0  0  0  0
  192.3040  175.2850  141.7750 Cl  0  0  0  0  0  0  0  0  0  0  0  0
  189.8940  172.5290  143.5510 C   0  0  0  0  0  3  0  0  0  0  0  0
  185.3730  178.2240  145.2920 C   0  0  0  0  0  0  0  0  0  0  0  0
  184.3160  178.2860  146.3780 C   0  0  0  0  0  1  0  0  0  0  0  0
  185.4360  179.5650  144.5840 C   0  0  0  0  0  1  0  0  0  0  0  0
  185.0120  177.2430  144.3670 O   0  0  0  0  0  1  0  0  0  0  0  0
  1 10  2  0  0  0  0
  1  2  1  0  0  0  0
  2 13  2  0  0  0  0
  3  5  2  0  0  0  0
  4 12  1  0  0  0  0
  4  8  1  0  0  0  0
  6  7  1  0  0  0  0
  8 14  2  0  0  0  0
  9  2  1  0  0  0  0
  9 12  2  0  0  0  0
 10  3  1  0  0  0  0
 11  6  2  0  0  0  0
 12 11  1  0  0  0  0
 13  5  1  0  0  0  0
 13  6  1  0  0  0  0
 15 21  1  0  0  0  0
 15  1  1  0  0  0  0
 16 19  1  0  0  0  0
 17 15  2  0  0  0  0
 18 16  2  0  0  0  0
 18 17  1  0  0  0  0
 19 21  2  0  0  0  0
 20 17  1  0  0  0  0
 22  8  1  0  0  0  0
 22 23  1  0  0  0  0
 24 22  1  0  0  0  0
 25 22  1  0  0  0  0
M  END
>  <MODEL>
4

>  <REMARK>
 VINA RESULT:      -6.6      3.676      7.209
  Name = 
  2 active torsions:
  status: ('A' for Active; 'I' for Inactive)
    1  A    between atoms: C_1  and  C_5
    2  A    between atoms: C_2  and  C_15
                            x       y       z     vdW  Elec       q    Type
                         _______ _______ _______ _____ _____    ______ ____

>  <TORSDO>
F 2

$$$$
=
 OpenBabel11052417273D

 25 27  0  0  0  0  0  0  0  0999 V2000
  188.1560  177.3260  145.5150 C   0  0  0  0  0  0  0  0  0  0  0  0
  188.9320  176.4580  144.7210 C   0  0  0  0  0  0  0  0  0  0  0  0
  189.8540  177.1910  147.2380 C   0  0  0  0  0  3  0  0  0  0  0  0
  188.7200  174.8580  141.4160 N   0  0  0  0  0  2  0  0  0  0  0  0
  190.5850  176.3530  146.4580 N   0  0  0  0  0  0  0  0  0  0  0  0
  190.9250  175.1080  144.4340 C   0  0  0  0  0  0  0  0  0  0  0  0
  192.1710  174.6030  144.9040 N   0  0  0  0  0  1  0  0  0  0  0  0
  189.3370  173.9880  140.4550 C   0  0  0  0  0  0  0  0  0  0  0  0
  188.5080  176.0650  143.4870 N   0  0  0  0  0  0  0  0  0  0  0  0
  188.6330  177.6910  146.7800 C   0  0  0  0  0  3  0  0  0  0  0  0
  190.4610  174.7320  143.1730 C   0  0  0  0  0  3  0  0  0  0  0  0
  189.2350  175.2210  142.7040 C   0  0  0  0  0  0  0  0  0  0  0  0
  190.1590  175.9760  145.2220 C   0  0  0  0  0  0  0  0  0  0  0  0
  190.4500  173.4480  140.6960 O   0  0  0  0  0  0  0  0  0  0  0  0
  186.8750  177.8880  145.0330 C   0  0  0  0  0  0  0  0  0  0  0  0
  184.4940  179.0250  144.0660 C   0  0  0  0  0  3  0  0  0  0  0  0
  185.6680  177.7330  145.7510 C   0  0  0  0  0  0  0  0  0  0  0  0
  184.4870  178.3010  145.2600 C   0  0  0  0  0  3  0  0  0  0  0  0
  185.6810  179.1800  143.3510 C   0  0  0  0  0  3  0  0  0  0  0  0
  185.5710  176.7910  147.2320 Cl  0  0  0  0  0  0  0  0  0  0  0  0
  186.8640  178.6150  143.8320 C   0  0  0  0  0  3  0  0  0  0  0  0
  188.6510  173.7150  139.1450 C   0  0  0  0  0  0  0  0  0  0  0  0
  187.8160  174.9160  138.7410 C   0  0  0  0  0  1  0  0  0  0  0  0
  189.6870  173.4470  138.0690 C   0  0  0  0  0  1  0  0  0  0  0  0
  187.8160  172.6020  139.2530 O   0  0  0  0  0  1  0  0  0  0  0  0
  1 10  1  0  0  0  0
  2 13  1  0  0  0  0
  2  1  2  0  0  0  0
  4 12  1  0  0  0  0
  5  3  1  0  0  0  0
  6  7  1  0  0  0  0
  6 13  1  0  0  0  0
  8 14  2  0  0  0  0
  8  4  1  0  0  0  0
  9  2  1  0  0  0  0
 10  3  2  0  0  0  0
 11  6  2  0  0  0  0
 12 11  1  0  0  0  0
 12  9  2  0  0  0  0
 13  5  2  0  0  0  0
 15  1  1  0  0  0  0
 15 17  1  0  0  0  0
 16 18  1  0  0  0  0
 17 20  1  0  0  0  0
 18 17  2  0  0  0  0
 19 21  1  0  0  0  0
 19 16  2  0  0  0  0
 21 15  2  0  0  0  0
 22 25  1  0  0  0  0
 22  8  1  0  0  0  0
 23 22  1  0  0  0  0
 24 22  1  0  0  0  0
M  END
>  <MODEL>
5

>  <REMARK>
 VINA RESULT:      -6.6      2.324      4.492
  Name = 
  2 active torsions:
  status: ('A' for Active; 'I' for Inactive)
    1  A    between atoms: C_1  and  C_5
    2  A    between atoms: C_2  and  C_15
                            x       y       z     vdW  Elec       q    Type
                         _______ _______ _______ _____ _____    ______ ____

>  <TORSDO>
F 2

$$$$
=
 OpenBabel11052417273D

 25 27  0  0  0  0  0  0  0  0999 V2000
  192.3270  174.7060  142.9070 C   0  0  0  0  0  0  0  0  0  0  0  0
  190.9440  174.9150  142.7290 C   0  0  0  0  0  0  0  0  0  0  0  0
  192.3980  173.6320  140.7360 C   0  0  0  0  0  3  0  0  0  0  0  0
  188.1420  176.3900  144.5970 N   0  0  0  0  0  2  0  0  0  0  0  0
  191.0640  173.8400  140.5850 N   0  0  0  0  0  0  0  0  0  0  0  0
  188.9510  174.6660  141.3710 C   0  0  0  0  0  0  0  0  0  0  0  0
  188.2910  174.2290  140.1870 N   0  0  0  0  0  1  0  0  0  0  0  0
  186.7380  176.6940  144.6270 C   0  0  0  0  0  0  0  0  0  0  0  0
  190.1950  175.5280  143.6870 N   0  0  0  0  0  0  0  0  0  0  0  0
  193.0490  174.0620  141.8940 C   0  0  0  0  0  3  0  0  0  0  0  0
  188.2180  175.3030  142.3730 C   0  0  0  0  0  3  0  0  0  0  0  0
  188.8580  175.7340  143.5420 C   0  0  0  0  0  0  0  0  0  0  0  0
  190.3260  174.4640  141.5430 C   0  0  0  0  0  0  0  0  0  0  0  0
  185.9920  176.3840  143.6600 O   0  0  0  0  0  0  0  0  0  0  0  0
  193.0370  175.1820  144.1140 C   0  0  0  0  0  0  0  0  0  0  0  0
  194.4220  176.1630  146.3540 C   0  0  0  0  0  3  0  0  0  0  0  0
  193.4270  174.3060  145.1520 C   0  0  0  0  0  0  0  0  0  0  0  0
  194.1140  174.8050  146.2640 C   0  0  0  0  0  3  0  0  0  0  0  0
  194.0380  177.0340  145.3350 C   0  0  0  0  0  3  0  0  0  0  0  0
  193.0270  172.5930  145.1350 Cl  0  0  0  0  0  0  0  0  0  0  0  0
  193.3510  176.5450  144.2220 C   0  0  0  0  0  3  0  0  0  0  0  0
  186.1500  177.3910  145.8220 C   0  0  0  0  0  0  0  0  0  0  0  0
  187.1580  177.4090  146.9560 C   0  0  0  0  0  1  0  0  0  0  0  0
  185.7880  178.8190  145.4580 C   0  0  0  0  0  1  0  0  0  0  0  0
  184.9980  176.7310  146.2540 O   0  0  0  0  0  1  0  0  0  0  0  0
  1 15  1  0  0  0  0
  2  1  1  0  0  0  0
  2  9  1  0  0  0  0
  3 10  1  0  0  0  0
  4  8  1  0  0  0  0
  5  3  2  0  0  0  0
  5 13  1  0  0  0  0
  6 13  1  0  0  0  0
  6 11  2  0  0  0  0
  7  6  1  0  0  0  0
  8 22  1  0  0  0  0
 10  1  2  0  0  0  0
 11 12  1  0  0  0  0
 12  9  2  0  0  0  0
 12  4  1  0  0  0  0
 13  2  2  0  0  0  0
 14  8  2  0  0  0  0
 15 21  2  0  0  0  0
 15 17  1  0  0  0  0
 17 18  2  0  0  0  0
 18 16  1  0  0  0  0
 19 16  2  0  0  0  0
 20 17  1  0  0  0  0
 21 19  1  0  0  0  0
 22 25  1  0  0  0  0
 22 23  1  0  0  0  0
 24 22  1  0  0  0  0
M  END
>  <MODEL>
6

>  <REMARK>
 VINA RESULT:      -6.5      3.444      6.331
  Name = 
  2 active torsions:
  status: ('A' for Active; 'I' for Inactive)
    1  A    between atoms: C_1  and  C_5
    2  A    between atoms: C_2  and  C_15
                            x       y       z     vdW  Elec       q    Type
                         _______ _______ _______ _____ _____    ______ ____

>  <TORSDO>
F 2

$$$$
=
 OpenBabel11052417273D

 25 27  0  0  0  0  0  0  0  0999 V2000
  188.9890  176.8150  145.4450 C   0  0  0  0  0  0  0  0  0  0  0  0
  188.4710  176.4730  144.1800 C   0  0  0  0  0  0  0  0  0  0  0  0
  186.9660  178.0730  145.8820 C   0  0  0  0  0  3  0  0  0  0  0  0
  189.5200  174.5460  141.2280 N   0  0  0  0  0  2  0  0  0  0  0  0
  186.4860  177.7350  144.6570 N   0  0  0  0  0  0  0  0  0  0  0  0
  186.6900  176.6190  142.5420 C   0  0  0  0  0  0  0  0  0  0  0  0
  185.4090  177.0830  142.1250 N   0  0  0  0  0  1  0  0  0  0  0  0
  189.1940  174.0890  139.9060 C   0  0  0  0  0  0  0  0  0  0  0  0
  189.1840  175.7010  143.3110 N   0  0  0  0  0  0  0  0  0  0  0  0
  188.2190  177.6180  146.2950 C   0  0  0  0  0  3  0  0  0  0  0  0
  187.4470  175.8230  141.6820 C   0  0  0  0  0  3  0  0  0  0  0  0
  188.7090  175.3640  142.0810 C   0  0  0  0  0  0  0  0  0  0  0  0
  187.2000  176.9540  143.8020 C   0  0  0  0  0  0  0  0  0  0  0  0
  188.0950  174.3990  139.3720 O   0  0  0  0  0  0  0  0  0  0  0  0
  190.3020  176.3160  145.9100 C   0  0  0  0  0  0  0  0  0  0  0  0
  192.8370  175.4020  146.7090 C   0  0  0  0  0  3  0  0  0  0  0  0
  190.4190  175.2530  146.8340 C   0  0  0  0  0  0  0  0  0  0  0  0
  191.6850  174.8070  147.2270 C   0  0  0  0  0  3  0  0  0  0  0  0
  192.7300  176.4540  145.7990 C   0  0  0  0  0  3  0  0  0  0  0  0
  189.0160  174.4900  147.5690 Cl  0  0  0  0  0  0  0  0  0  0  0  0
  191.4700  176.9070  145.4030 C   0  0  0  0  0  3  0  0  0  0  0  0
  190.1700  173.2320  139.1490 C   0  0  0  0  0  0  0  0  0  0  0  0
  189.6930  171.7920  139.1430 C   0  0  0  0  0  1  0  0  0  0  0  0
  190.2820  173.7230  137.7180 C   0  0  0  0  0  1  0  0  0  0  0  0
  191.4320  173.2870  139.7440 O   0  0  0  0  0  1  0  0  0  0  0  0
  1 15  1  0  0  0  0
  1 10  1  0  0  0  0
  2  1  2  0  0  0  0
  3 10  2  0  0  0  0
  4 12  1  0  0  0  0
  5  3  1  0  0  0  0
  6 13  1  0  0  0  0
  7  6  1  0  0  0  0
  8  4  1  0  0  0  0
  9  2  1  0  0  0  0
 11 12  1  0  0  0  0
 11  6  2  0  0  0  0
 12  9  2  0  0  0  0
 13  2  1  0  0  0  0
 13  5  2  0  0  0  0
 14  8  2  0  0  0  0
 15 17  1  0  0  0  0
 16 18  1  0  0  0  0
 17 18  2  0  0  0  0
 17 20  1  0  0  0  0
 19 16  2  0  0  0  0
 21 19  1  0  0  0  0
 21 15  2  0  0  0  0
 22 25  1  0  0  0  0
 22  8  1  0  0  0  0
 23 22  1  0  0  0  0
 24 22  1  0  0  0  0
M  END
>  <MODEL>
7

>  <REMARK>
 VINA RESULT:      -6.5      1.760      2.429
  Name = 
  2 active torsions:
  status: ('A' for Active; 'I' for Inactive)
    1  A    between atoms: C_1  and  C_5
    2  A    between atoms: C_2  and  C_15
                            x       y       z     vdW  Elec       q    Type
                         _______ _______ _______ _____ _____    ______ ____

>  <TORSDO>
F 2

$$$$
=
 OpenBabel11052417273D

 25 27  0  0  0  0  0  0  0  0999 V2000
  190.7020  176.1870  145.4710 C   0  0  0  0  0  0  0  0  0  0  0  0
  191.1980  175.4440  144.3810 C   0  0  0  0  0  0  0  0  0  0  0  0
  192.9500  176.2770  146.3720 C   0  0  0  0  0  3  0  0  0  0  0  0
  189.8850  173.8600  141.3330 N   0  0  0  0  0  2  0  0  0  0  0  0
  193.4070  175.5570  145.3150 N   0  0  0  0  0  0  0  0  0  0  0  0
  193.0630  174.3900  143.2450 C   0  0  0  0  0  0  0  0  0  0  0  0
  194.4450  174.0600  143.1520 N   0  0  0  0  0  1  0  0  0  0  0  0
  190.1700  173.0930  140.1520 C   0  0  0  0  0  0  0  0  0  0  0  0
  190.3690  175.0060  143.3910 N   0  0  0  0  0  0  0  0  0  0  0  0
  191.5960  176.6050  146.4650 C   0  0  0  0  0  3  0  0  0  0  0  0
  192.1840  173.9630  142.2490 C   0  0  0  0  0  3  0  0  0  0  0  0
  190.8220  174.2800  142.3330 C   0  0  0  0  0  0  0  0  0  0  0  0
  192.5740  175.1350  144.3250 C   0  0  0  0  0  0  0  0  0  0  0  0
  191.3460  172.7130  139.9000 O   0  0  0  0  0  0  0  0  0  0  0  0
  189.2760  176.5690  145.5700 C   0  0  0  0  0  0  0  0  0  0  0  0
  186.5900  177.3810  145.7170 C   0  0  0  0  0  3  0  0  0  0  0  0
  188.4100  176.0000  146.5310 C   0  0  0  0  0  0  0  0  0  0  0  0
  187.0740  176.4090  146.5940 C   0  0  0  0  0  3  0  0  0  0  0  0
  187.4380  177.9450  144.7640 C   0  0  0  0  0  3  0  0  0  0  0  0
  188.9340  174.7330  147.6320 Cl  0  0  0  0  0  0  0  0  0  0  0  0
  188.7720  177.5410  144.6920 C   0  0  0  0  0  3  0  0  0  0  0  0
  189.0590  172.7390  139.2040 C   0  0  0  0  0  0  0  0  0  0  0  0
  188.9480  173.7960  138.1220 C   0  0  0  0  0  1  0  0  0  0  0  0
  189.3430  171.3960  138.5580 C   0  0  0  0  0  1  0  0  0  0  0  0
  187.8420  172.6620  139.8850 O   0  0  0  0  0  1  0  0  0  0  0  0
  1 15  1  0  0  0  0
  1 10  1  0  0  0  0
  2  1  2  0  0  0  0
  3 10  2  0  0  0  0
  4 12  1  0  0  0  0
  5  3  1  0  0  0  0
  6 13  1  0  0  0  0
  7  6  1  0  0  0  0
  8  4  1  0  0  0  0
  9  2  1  0  0  0  0
 11 12  1  0  0  0  0
 11  6  2  0  0  0  0
 12  9  2  0  0  0  0
 13  2  1  0  0  0  0
 13  5  2  0  0  0  0
 14  8  2  0  0  0  0
 15 17  1  0  0  0  0
 16 18  1  0  0  0  0
 17 18  2  0  0  0  0
 17 20  1  0  0  0  0
 19 16  2  0  0  0  0
 21 19  1  0  0  0  0
 21 15  2  0  0  0  0
 22 25  1  0  0  0  0
 22  8  1  0  0  0  0
 23 22  1  0  0  0  0
 24 22  1  0  0  0  0
M  END
>  <MODEL>
8

>  <REMARK>
 VINA RESULT:      -6.4      2.839      4.957
  Name = 
  2 active torsions:
  status: ('A' for Active; 'I' for Inactive)
    1  A    between atoms: C_1  and  C_5
    2  A    between atoms: C_2  and  C_15
                            x       y       z     vdW  Elec       q    Type
                         _______ _______ _______ _____ _____    ______ ____

>  <TORSDO>
F 2

$$$$
=
 OpenBabel11052417273D

 25 27  0  0  0  0  0  0  0  0999 V2000
  192.1260  175.8810  145.6020 C   0  0  0  0  0  0  0  0  0  0  0  0
  192.5000  175.3850  144.3370 C   0  0  0  0  0  0  0  0  0  0  0  0
  194.4660  176.2870  146.0830 C   0  0  0  0  0  3  0  0  0  0  0  0
  190.8620  173.9640  141.3680 N   0  0  0  0  0  2  0  0  0  0  0  0
  194.8060  175.8010  144.8610 N   0  0  0  0  0  0  0  0  0  0  0  0
  194.2360  174.8520  142.7310 C   0  0  0  0  0  0  0  0  0  0  0  0
  195.6040  174.8050  142.3380 N   0  0  0  0  0  1  0  0  0  0  0  0
  191.0170  173.4150  140.0490 C   0  0  0  0  0  0  0  0  0  0  0  0
  191.5670  174.9210  143.4580 N   0  0  0  0  0  0  0  0  0  0  0  0
  193.1260  176.3360  146.4710 C   0  0  0  0  0  3  0  0  0  0  0  0
  193.2520  174.3900  141.8560 C   0  0  0  0  0  3  0  0  0  0  0  0
  191.9040  174.4290  142.2350 C   0  0  0  0  0  0  0  0  0  0  0  0
  193.8660  175.3520  143.9860 C   0  0  0  0  0  0  0  0  0  0  0  0
  192.1610  173.3000  139.5320 O   0  0  0  0  0  0  0  0  0  0  0  0
  190.7090  175.9690  146.0170 C   0  0  0  0  0  0  0  0  0  0  0  0
  188.0170  176.0380  146.8210 C   0  0  0  0  0  3  0  0  0  0  0  0
  189.8510  176.9920  145.5530 C   0  0  0  0  0  0  0  0  0  0  0  0
  188.5140  177.0190  145.9610 C   0  0  0  0  0  3  0  0  0  0  0  0
  188.8570  175.0270  147.2850 C   0  0  0  0  0  3  0  0  0  0  0  0
  190.4180  178.2910  144.5120 Cl  0  0  0  0  0  0  0  0  0  0  0  0
  190.1950  174.9930  146.8850 C   0  0  0  0  0  3  0  0  0  0  0  0
  189.8070  172.9740  139.2750 C   0  0  0  0  0  0  0  0  0  0  0  0
  189.9880  171.5420  138.8080 C   0  0  0  0  0  1  0  0  0  0  0  0
  188.5740  173.0560  140.1560 C   0  0  0  0  0  1  0  0  0  0  0  0
  189.6170  173.7910  138.1590 O   0  0  0  0  0  1  0  0  0  0  0  0
  1 15  1  0  0  0  0
  1 10  1  0  0  0  0
  2  1  2  0  0  0  0
  3 10  2  0  0  0  0
  4 12  1  0  0  0  0
  5  3  1  0  0  0  0
  6 13  1  0  0  0  0
  7  6  1  0  0  0  0
  8  4  1  0  0  0  0
  9  2  1  0  0  0  0
 11 12  1  0  0  0  0
 11  6  2  0  0  0  0
 12  9  2  0  0  0  0
 13  2  1  0  0  0  0
 13  5  2  0  0  0  0
 14  8  2  0  0  0  0
 15 21  1  0  0  0  0
 16 19  1  0  0  0  0
 17 18  1  0  0  0  0
 17 15  2  0  0  0  0
 18 16  2  0  0  0  0
 20 17  1  0  0  0  0
 21 19  2  0  0  0  0
 22  8  1  0  0  0  0
 22 24  1  0  0  0  0
 23 22  1  0  0  0  0
 25 22  1  0  0  0  0
M  END
>  <MODEL>
9

>  <REMARK>
 VINA RESULT:      -6.4      3.165      5.361
  Name = 
  2 active torsions:
  status: ('A' for Active; 'I' for Inactive)
    1  A    between atoms: C_1  and  C_5
    2  A    between atoms: C_2  and  C_15
                            x       y       z     vdW  Elec       q    Type
                         _______ _______ _______ _____ _____    ______ ____

>  <TORSDO>
F 2

$$$$
