=
 OpenBabel11052419183D

 32 36  0  0  1  0  0  0  0  0999 V2000
  189.5330  174.9610  143.4750 O   0  0  0  0  0  0  0  0  0  0  0  0
  187.8100  176.5170  143.9920 C   0  0  0  0  0  0  0  0  0  0  0  0
  190.6440  174.1610  143.8820 C   0  0  2  0  0  3  0  0  0  0  0  0
  188.7390  175.6460  144.4030 C   0  0  0  0  0  0  0  0  0  0  0  0
  187.0390  177.3450  144.9950 C   0  0  1  0  0  3  0  0  0  0  0  0
  184.9120  178.0260  140.3950 C   0  0  0  0  0  3  0  0  0  0  0  0
  187.5250  176.7260  142.5630 C   0  0  0  0  0  2  0  0  0  0  0  0
  184.2290  178.3290  142.6990 C   0  0  0  0  0  3  0  0  0  0  0  0
  185.4480  177.8040  143.1410 C   0  0  0  0  0  0  0  0  0  0  0  0
  188.8810  175.3610  145.8070 N   0  0  0  0  0  0  0  0  0  0  0  0
  185.6900  177.7500  144.4580 C   0  0  0  0  0  2  0  0  0  0  0  0
  187.9350  175.8730  146.7550 C   0  0  0  0  0  3  0  0  0  0  0  0
  189.9750  174.5230  146.2860 C   0  0  0  0  0  2  0  0  0  0  0  0
  186.4000  177.3500  142.1870 C   0  0  0  0  0  0  0  0  0  0  0  0
  186.9960  176.7470  146.3820 C   0  0  0  0  0  0  0  0  0  0  0  0
  190.3760  173.4890  145.2330 C   0  0  0  0  0  2  0  0  0  0  0  0
  183.9620  178.4420  141.3320 C   0  0  0  0  0  3  0  0  0  0  0  0
  186.1240  177.4770  140.8220 C   0  0  0  0  0  3  0  0  0  0  0  0
  193.1430  174.3580  144.2580 N   0  0  0  0  0  2  0  0  0  0  0  0
  191.9000  174.9750  143.9130 C   0  0  0  0  0  0  0  0  0  0  0  0
  191.8550  176.1950  143.6040 O   0  0  0  0  0  0  0  0  0  0  0  0
  195.2630  174.9080  143.0290 C   0  0  2  0  0  0  0  0  0  0  0  0
  197.6380  174.1800  145.4990 O   0  0  0  0  0  0  0  0  0  0  0  0
  194.8140  173.7370  142.1620 C   0  0  0  0  0  1  0  0  0  0  0  0
  195.2620  174.6030  145.4830 C   0  0  0  0  0  2  0  0  0  0  0  0
  196.5750  174.6500  143.4960 O   0  0  0  0  0  0  0  0  0  0  0  0
  194.4050  175.0870  144.3120 C   0  0  2  0  0  3  0  0  0  0  0  0
  196.5910  174.4580  144.8600 C   0  0  0  0  0  0  0  0  0  0  0  0
  195.2420  176.1780  142.1890 C   0  0  0  0  0  2  0  0  0  0  0  0
  196.4580  176.8590  142.2860 O   0  0  0  0  0  1  0  0  0  0  0  0
  186.0850  177.3040  147.4240 C   0  0  0  0  0  2  0  0  0  0  0  0
  186.6170  178.5590  147.9250 N   0  0  0  0  0  1  0  0  0  0  0  0
  1  3  1  0  0  0  0
  1  4  1  0  0  0  0
  2  4  2  0  0  0  0
  2  5  1  0  0  0  0
  3 20  1  1  0  0  0
  3 16  1  0  0  0  0
  4 10  1  0  0  0  0
  5 11  1  6  0  0  0
  5 15  1  0  0  0  0
  6 18  2  0  0  0  0
  6 17  1  0  0  0  0
  7  2  1  0  0  0  0
  8  9  1  0  0  0  0
  9 11  1  0  0  0  0
 10 13  1  0  0  0  0
 10 12  1  0  0  0  0
 14  7  1  0  0  0  0
 14  9  2  0  0  0  0
 15 12  2  0  0  0  0
 15 31  1  0  0  0  0
 16 13  1  0  0  0  0
 17  8  2  0  0  0  0
 18 14  1  0  0  0  0
 20 19  1  0  0  0  0
 21 20  2  0  0  0  0
 22 24  1  6  0  0  0
 22 26  1  0  0  0  0
 22 27  1  0  0  0  0
 26 28  1  0  0  0  0
 27 19  1  6  0  0  0
 27 25  1  0  0  0  0
 28 25  1  0  0  0  0
 28 23  2  0  0  0  0
 29 30  1  0  0  0  0
 29 22  1  0  0  0  0
 31 32  1  0  0  0  0
M  END
>  <MODEL>
1

>  <REMARK>
 VINA RESULT:      -8.3      0.000      0.000
  Name = 
  4 active torsions:
  status: ('A' for Active; 'I' for Inactive)
    1  A    between atoms: C_3  and  C_22
    2  A    between atoms: C_4  and  C_24
    3  A    between atoms: C_13  and  C_29
    4  A    between atoms: N_16  and  C_20
                            x       y       z     vdW  Elec       q    Type
                         _______ _______ _______ _____ _____    ______ ____

>  <TORSDO>
F 4

$$$$
=
 OpenBabel11052419183D

 32 36  0  0  1  0  0  0  0  0999 V2000
  191.0690  176.7460  145.6660 O   0  0  0  0  0  0  0  0  0  0  0  0
  188.8270  176.5850  144.8890 C   0  0  0  0  0  0  0  0  0  0  0  0
  192.4650  176.5080  145.4820 C   0  0  2  0  0  3  0  0  0  0  0  0
  190.1400  176.5130  144.6450 C   0  0  0  0  0  0  0  0  0  0  0  0
  187.8270  176.2140  143.8180 C   0  0  1  0  0  3  0  0  0  0  0  0
  185.2740  178.2940  147.7300 C   0  0  0  0  0  3  0  0  0  0  0  0
  188.3070  176.9930  146.2050 C   0  0  0  0  0  2  0  0  0  0  0  0
  184.8520  177.9030  145.3780 C   0  0  0  0  0  3  0  0  0  0  0  0
  186.1430  177.3880  145.2210 C   0  0  0  0  0  0  0  0  0  0  0  0
  190.6060  176.2580  143.3060 N   0  0  0  0  0  0  0  0  0  0  0  0
  186.5120  176.9240  144.0180 C   0  0  0  0  0  2  0  0  0  0  0  0
  189.6880  176.2420  142.2050 C   0  0  0  0  0  3  0  0  0  0  0  0
  192.0240  176.0390  143.0450 C   0  0  0  0  0  2  0  0  0  0  0  0
  187.0250  177.3600  146.3360 C   0  0  0  0  0  0  0  0  0  0  0  0
  188.3700  176.3080  142.4110 C   0  0  0  0  0  0  0  0  0  0  0  0
  192.8920  176.8080  144.0410 C   0  0  0  0  0  2  0  0  0  0  0  0
  184.4180  178.3520  146.6280 C   0  0  0  0  0  3  0  0  0  0  0  0
  186.5750  177.8040  147.5830 C   0  0  0  0  0  3  0  0  0  0  0  0
  193.8030  174.3830  145.1370 N   0  0  0  0  0  2  0  0  0  0  0  0
  192.8210  175.1090  145.8800 C   0  0  0  0  0  0  0  0  0  0  0  0
  192.2720  174.5940  146.8890 O   0  0  0  0  0  0  0  0  0  0  0  0
  195.5900  172.6360  144.8860 C   0  0  2  0  0  0  0  0  0  0  0  0
  193.6730  169.9150  143.7970 O   0  0  0  0  0  0  0  0  0  0  0  0
  196.0760  173.5930  143.8030 C   0  0  0  0  0  1  0  0  0  0  0  0
  193.1980  172.0110  144.8950 C   0  0  0  0  0  2  0  0  0  0  0  0
  195.4120  171.3530  144.3120 O   0  0  0  0  0  0  0  0  0  0  0  0
  194.1990  173.0180  145.4630 C   0  0  2  0  0  3  0  0  0  0  0  0
  194.0820  170.9970  144.2910 C   0  0  0  0  0  0  0  0  0  0  0  0
  196.6330  172.5780  145.9940 C   0  0  0  0  0  2  0  0  0  0  0  0
  197.2110  173.8340  146.1990 O   0  0  0  0  0  1  0  0  0  0  0  0
  187.4580  176.2120  141.2340 C   0  0  0  0  0  2  0  0  0  0  0  0
  187.3110  177.5180  140.6150 N   0  0  0  0  0  1  0  0  0  0  0  0
  2  7  1  0  0  0  0
  3  1  1  0  0  0  0
  3 20  1  6  0  0  0
  4  2  2  0  0  0  0
  4  1  1  0  0  0  0
  5 11  1  6  0  0  0
  5  2  1  0  0  0  0
  7 14  1  0  0  0  0
  8 17  1  0  0  0  0
  9  8  2  0  0  0  0
  9 14  1  0  0  0  0
 10  4  1  0  0  0  0
 11  9  1  0  0  0  0
 12 15  2  0  0  0  0
 12 10  1  0  0  0  0
 13 10  1  0  0  0  0
 13 16  1  0  0  0  0
 14 18  2  0  0  0  0
 15  5  1  0  0  0  0
 16  3  1  0  0  0  0
 17  6  2  0  0  0  0
 18  6  1  0  0  0  0
 19 20  1  0  0  0  0
 20 21  2  0  0  0  0
 22 24  1  6  0  0  0
 22 27  1  0  0  0  0
 22 29  1  0  0  0  0
 23 28  2  0  0  0  0
 25 27  1  0  0  0  0
 26 22  1  0  0  0  0
 27 19  1  6  0  0  0
 28 26  1  0  0  0  0
 28 25  1  0  0  0  0
 29 30  1  0  0  0  0
 31 15  1  0  0  0  0
 32 31  1  0  0  0  0
M  END
>  <MODEL>
2

>  <REMARK>
 VINA RESULT:      -7.8      2.531      4.183
  Name = 
  4 active torsions:
  status: ('A' for Active; 'I' for Inactive)
    1  A    between atoms: C_3  and  C_22
    2  A    between atoms: C_4  and  C_24
    3  A    between atoms: C_13  and  C_29
    4  A    between atoms: N_16  and  C_20
                            x       y       z     vdW  Elec       q    Type
                         _______ _______ _______ _____ _____    ______ ____

>  <TORSDO>
F 4

$$$$
=
 OpenBabel11052419183D

 32 36  0  0  1  0  0  0  0  0999 V2000
  187.7740  173.8990  141.9320 O   0  0  0  0  0  0  0  0  0  0  0  0
  187.9400  175.9260  143.1660 C   0  0  0  0  0  0  0  0  0  0  0  0
  188.3710  172.7070  141.4210 C   0  0  2  0  0  3  0  0  0  0  0  0
  188.4500  174.7360  142.8290 C   0  0  0  0  0  0  0  0  0  0  0  0
  188.7270  176.8780  144.0370 C   0  0  1  0  0  3  0  0  0  0  0  0
  184.0010  178.7530  143.4940 C   0  0  0  0  0  3  0  0  0  0  0  0
  186.6200  176.3660  142.6830 C   0  0  0  0  0  2  0  0  0  0  0  0
  185.8350  179.0590  145.0450 C   0  0  0  0  0  3  0  0  0  0  0  0
  186.5760  178.0770  144.3800 C   0  0  0  0  0  0  0  0  0  0  0  0
  189.6700  174.2810  143.4420 N   0  0  0  0  0  0  0  0  0  0  0  0
  187.8200  177.8070  144.8020 C   0  0  0  0  0  2  0  0  0  0  0  0
  190.2590  175.0120  144.5260 C   0  0  0  0  0  3  0  0  0  0  0  0
  190.3140  173.0540  142.9890 C   0  0  0  0  0  2  0  0  0  0  0  0
  186.0000  177.3980  143.2710 C   0  0  0  0  0  0  0  0  0  0  0  0
  189.7790  176.2060  144.8880 C   0  0  0  0  0  0  0  0  0  0  0  0
  189.2830  172.0540  142.4640 C   0  0  0  0  0  2  0  0  0  0  0  0
  184.5540  179.3980  144.6030 C   0  0  0  0  0  3  0  0  0  0  0  0
  184.7200  177.7520  142.8340 C   0  0  0  0  0  3  0  0  0  0  0  0
  189.9550  171.9880  139.5770 N   0  0  0  0  0  2  0  0  0  0  0  0
  189.1070  172.9870  140.1470 C   0  0  0  0  0  0  0  0  0  0  0  0
  188.9470  174.0950  139.5700 O   0  0  0  0  0  0  0  0  0  0  0  0
  190.4120  171.1010  137.2720 C   0  0  2  0  0  0  0  0  0  0  0  0
  193.9140  171.0660  137.2850 O   0  0  0  0  0  0  0  0  0  0  0  0
  189.7250  169.8650  137.8410 C   0  0  0  0  0  1  0  0  0  0  0  0
  192.2100  172.1490  138.6070 C   0  0  0  0  0  2  0  0  0  0  0  0
  191.6830  170.7250  136.7720 O   0  0  0  0  0  0  0  0  0  0  0  0
  190.7050  172.1890  138.3420 C   0  0  2  0  0  3  0  0  0  0  0  0
  192.6980  171.2840  137.5170 C   0  0  0  0  0  0  0  0  0  0  0  0
  189.5510  171.6700  136.1510 C   0  0  0  0  0  2  0  0  0  0  0  0
  189.3490  173.0410  136.3260 O   0  0  0  0  0  1  0  0  0  0  0  0
  190.4760  176.9560  145.9720 C   0  0  0  0  0  2  0  0  0  0  0  0
  190.3360  176.2480  147.2330 N   0  0  0  0  0  1  0  0  0  0  0  0
  1  4  1  0  0  0  0
  2  5  1  0  0  0  0
  3 20  1  6  0  0  0
  3  1  1  0  0  0  0
  3 16  1  0  0  0  0
  4  2  2  0  0  0  0
  4 10  1  0  0  0  0
  5 11  1  1  0  0  0
  5 15  1  0  0  0  0
  6 17  1  0  0  0  0
  7  2  1  0  0  0  0
  7 14  1  0  0  0  0
  9 11  1  0  0  0  0
  9  8  1  0  0  0  0
 10 12  1  0  0  0  0
 12 15  2  0  0  0  0
 13 10  1  0  0  0  0
 14  9  2  0  0  0  0
 15 31  1  0  0  0  0
 16 13  1  0  0  0  0
 17  8  2  0  0  0  0
 18 14  1  0  0  0  0
 18  6  2  0  0  0  0
 19 20  1  0  0  0  0
 21 20  2  0  0  0  0
 22 24  1  1  0  0  0
 22 27  1  0  0  0  0
 23 28  2  0  0  0  0
 26 22  1  0  0  0  0
 26 28  1  0  0  0  0
 27 25  1  0  0  0  0
 27 19  1  1  0  0  0
 28 25  1  0  0  0  0
 29 30  1  0  0  0  0
 29 22  1  0  0  0  0
 31 32  1  0  0  0  0
M  END
>  <MODEL>
3

>  <REMARK>
 VINA RESULT:      -7.6      4.264      5.472
  Name = 
  4 active torsions:
  status: ('A' for Active; 'I' for Inactive)
    1  A    between atoms: C_3  and  C_22
    2  A    between atoms: C_4  and  C_24
    3  A    between atoms: C_13  and  C_29
    4  A    between atoms: N_16  and  C_20
                            x       y       z     vdW  Elec       q    Type
                         _______ _______ _______ _____ _____    ______ ____

>  <TORSDO>
F 4

$$$$
=
 OpenBabel11052419183D

 32 36  0  0  1  0  0  0  0  0999 V2000
  189.8230  174.3070  145.0760 O   0  0  0  0  0  0  0  0  0  0  0  0
  189.1310  175.2720  143.0160 C   0  0  0  0  0  0  0  0  0  0  0  0
  190.1000  174.4300  146.4720 C   0  0  2  0  0  3  0  0  0  0  0  0
  189.2300  175.3450  144.3480 C   0  0  0  0  0  0  0  0  0  0  0  0
  188.6020  176.4450  142.2210 C   0  0  1  0  0  3  0  0  0  0  0  0
  189.0490  172.4510  139.0600 C   0  0  0  0  0  3  0  0  0  0  0  0
  189.5550  174.0740  142.2740 C   0  0  0  0  0  2  0  0  0  0  0  0
  187.8260  174.5420  139.0740 C   0  0  0  0  0  3  0  0  0  0  0  0
  188.3180  174.8330  140.3500 C   0  0  0  0  0  0  0  0  0  0  0  0
  188.6650  176.4700  145.0470 N   0  0  0  0  0  0  0  0  0  0  0  0
  187.9840  175.9990  140.9210 C   0  0  0  0  0  2  0  0  0  0  0  0
  187.8570  177.4300  144.3530 C   0  0  0  0  0  3  0  0  0  0  0  0
  188.8830  176.6370  146.4790 C   0  0  0  0  0  2  0  0  0  0  0  0
  189.1630  173.8960  141.0050 C   0  0  0  0  0  0  0  0  0  0  0  0
  187.7380  177.3900  143.0230 C   0  0  0  0  0  0  0  0  0  0  0  0
  189.0390  175.2840  147.1730 C   0  0  0  0  0  2  0  0  0  0  0  0
  188.1920  173.3560  138.4290 C   0  0  0  0  0  3  0  0  0  0  0  0
  189.5280  172.7180  140.3460 C   0  0  0  0  0  3  0  0  0  0  0  0
  192.5260  174.6610  145.7740 N   0  0  0  0  0  2  0  0  0  0  0  0
  191.4770  174.9750  146.6920 C   0  0  0  0  0  0  0  0  0  0  0  0
  191.6920  175.7360  147.6730 O   0  0  0  0  0  0  0  0  0  0  0  0
  194.2660  176.2320  144.8720 C   0  0  2  0  0  0  0  0  0  0  0  0
  196.9910  174.0540  144.5610 O   0  0  0  0  0  0  0  0  0  0  0  0
  193.3050  176.2800  143.6890 C   0  0  0  0  0  1  0  0  0  0  0  0
  194.9000  174.0150  145.7640 C   0  0  0  0  0  2  0  0  0  0  0  0
  195.5480  175.8570  144.4010 O   0  0  0  0  0  0  0  0  0  0  0  0
  193.8910  175.1530  145.9250 C   0  0  2  0  0  3  0  0  0  0  0  0
  195.9090  174.6150  144.8720 C   0  0  0  0  0  0  0  0  0  0  0  0
  194.3230  177.6120  145.5150 C   0  0  0  0  0  2  0  0  0  0  0  0
  194.5660  177.5110  146.8870 O   0  0  0  0  0  1  0  0  0  0  0  0
  186.9450  178.4580  142.3450 C   0  0  0  0  0  2  0  0  0  0  0  0
  185.8380  178.8650  143.1930 N   0  0  0  0  0  1  0  0  0  0  0  0
  1  3  1  0  0  0  0
  2  4  2  0  0  0  0
  3 20  1  6  0  0  0
  3 16  1  0  0  0  0
  4 10  1  0  0  0  0
  4  1  1  0  0  0  0
  5 11  1  6  0  0  0
  5  2  1  0  0  0  0
  5 15  1  0  0  0  0
  6 18  1  0  0  0  0
  7  2  1  0  0  0  0
  8  9  2  0  0  0  0
  9 11  1  0  0  0  0
  9 14  1  0  0  0  0
 10 13  1  0  0  0  0
 12 10  1  0  0  0  0
 13 16  1  0  0  0  0
 14  7  1  0  0  0  0
 15 12  2  0  0  0  0
 17  6  2  0  0  0  0
 17  8  1  0  0  0  0
 18 14  2  0  0  0  0
 19 20  1  0  0  0  0
 20 21  2  0  0  0  0
 22 24  1  6  0  0  0
 22 29  1  0  0  0  0
 22 27  1  0  0  0  0
 23 28  2  0  0  0  0
 25 27  1  0  0  0  0
 26 22  1  0  0  0  0
 26 28  1  0  0  0  0
 27 19  1  6  0  0  0
 28 25  1  0  0  0  0
 29 30  1  0  0  0  0
 31 15  1  0  0  0  0
 31 32  1  0  0  0  0
M  END
>  <MODEL>
4

>  <REMARK>
 VINA RESULT:      -7.3      2.587      3.794
  Name = 
  4 active torsions:
  status: ('A' for Active; 'I' for Inactive)
    1  A    between atoms: C_3  and  C_22
    2  A    between atoms: C_4  and  C_24
    3  A    between atoms: C_13  and  C_29
    4  A    between atoms: N_16  and  C_20
                            x       y       z     vdW  Elec       q    Type
                         _______ _______ _______ _____ _____    ______ ____

>  <TORSDO>
F 4

$$$$
=
 OpenBabel11052419183D

 32 36  0  0  1  0  0  0  0  0999 V2000
  189.2520  174.9740  144.6270 O   0  0  0  0  0  0  0  0  0  0  0  0
  187.7570  176.7810  144.2290 C   0  0  0  0  0  0  0  0  0  0  0  0
  190.0580  174.2060  145.5210 C   0  0  2  0  0  3  0  0  0  0  0  0
  188.3770  175.9640  145.0890 C   0  0  0  0  0  0  0  0  0  0  0  0
  186.9090  177.9260  144.7350 C   0  0  1  0  0  3  0  0  0  0  0  0
  186.2180  177.5410  139.6830 C   0  0  0  0  0  3  0  0  0  0  0  0
  187.8980  176.6200  142.7720 C   0  0  0  0  0  2  0  0  0  0  0  0
  185.0190  178.5290  141.5410 C   0  0  0  0  0  3  0  0  0  0  0  0
  185.9670  178.0220  142.4360 C   0  0  0  0  0  0  0  0  0  0  0  0
  188.0930  176.0600  146.4970 N   0  0  0  0  0  0  0  0  0  0  0  0
  185.8420  178.3050  143.7410 C   0  0  0  0  0  2  0  0  0  0  0  0
  187.0370  176.9050  146.9730 C   0  0  0  0  0  3  0  0  0  0  0  0
  188.8570  175.2770  147.4610 C   0  0  0  0  0  2  0  0  0  0  0  0
  187.0400  177.2300  141.9430 C   0  0  0  0  0  0  0  0  0  0  0  0
  186.3990  177.7360  146.1440 C   0  0  0  0  0  0  0  0  0  0  0  0
  189.3310  173.9590  146.8470 C   0  0  0  0  0  2  0  0  0  0  0  0
  185.1450  178.2920  140.1700 C   0  0  0  0  0  3  0  0  0  0  0  0
  187.1590  177.0070  140.5680 C   0  0  0  0  0  3  0  0  0  0  0  0
  192.5820  174.2220  145.2910 N   0  0  0  0  0  2  0  0  0  0  0  0
  191.3850  174.8640  145.7370 C   0  0  0  0  0  0  0  0  0  0  0  0
  191.4330  175.9970  146.2830 O   0  0  0  0  0  0  0  0  0  0  0  0
  194.2620  175.8520  144.3820 C   0  0  2  0  0  0  0  0  0  0  0  0
  197.1190  173.8290  144.2700 O   0  0  0  0  0  0  0  0  0  0  0  0
  193.3470  175.7910  143.1640 C   0  0  0  0  0  1  0  0  0  0  0  0
  194.9880  173.7170  145.3970 C   0  0  0  0  0  2  0  0  0  0  0  0
  195.5810  175.5340  143.9750 O   0  0  0  0  0  0  0  0  0  0  0  0
  193.9090  174.8000  145.4690 C   0  0  2  0  0  3  0  0  0  0  0  0
  195.9950  174.3370  144.5160 C   0  0  0  0  0  0  0  0  0  0  0  0
  194.2140  177.2600  144.9630 C   0  0  0  0  0  2  0  0  0  0  0  0
  195.4800  177.6620  145.3960 O   0  0  0  0  0  1  0  0  0  0  0  0
  185.3600  178.6470  146.7070 C   0  0  0  0  0  2  0  0  0  0  0  0
  184.0660  177.9860  146.7000 N   0  0  0  0  0  1  0  0  0  0  0  0
  1  4  1  0  0  0  0
  1  3  1  0  0  0  0
  2  5  1  0  0  0  0
  2  4  2  0  0  0  0
  3 20  1  1  0  0  0
  3 16  1  0  0  0  0
  4 10  1  0  0  0  0
  5 11  1  6  0  0  0
  5 15  1  0  0  0  0
  6 17  2  0  0  0  0
  6 18  1  0  0  0  0
  7  2  1  0  0  0  0
  8  9  2  0  0  0  0
  9 11  1  0  0  0  0
 10 12  1  0  0  0  0
 10 13  1  0  0  0  0
 14  9  1  0  0  0  0
 14  7  1  0  0  0  0
 15 31  1  0  0  0  0
 15 12  2  0  0  0  0
 16 13  1  0  0  0  0
 17  8  1  0  0  0  0
 18 14  2  0  0  0  0
 19 20  1  0  0  0  0
 20 21  2  0  0  0  0
 22 24  1  6  0  0  0
 22 29  1  0  0  0  0
 22 27  1  0  0  0  0
 23 28  2  0  0  0  0
 25 27  1  0  0  0  0
 26 22  1  0  0  0  0
 26 28  1  0  0  0  0
 27 19  1  6  0  0  0
 28 25  1  0  0  0  0
 29 30  1  0  0  0  0
 32 31  1  0  0  0  0
M  END
>  <MODEL>
5

>  <REMARK>
 VINA RESULT:      -7.3      1.428      1.690
  Name = 
  4 active torsions:
  status: ('A' for Active; 'I' for Inactive)
    1  A    between atoms: C_3  and  C_22
    2  A    between atoms: C_4  and  C_24
    3  A    between atoms: C_13  and  C_29
    4  A    between atoms: N_16  and  C_20
                            x       y       z     vdW  Elec       q    Type
                         _______ _______ _______ _____ _____    ______ ____

>  <TORSDO>
F 4

$$$$
=
 OpenBabel11052419183D

 32 36  0  0  1  0  0  0  0  0999 V2000
  191.8550  176.2140  145.6380 O   0  0  0  0  0  0  0  0  0  0  0  0
  193.0390  174.8580  144.0830 C   0  0  0  0  0  0  0  0  0  0  0  0
  190.6550  176.5300  146.3450 C   0  0  2  0  0  3  0  0  0  0  0  0
  191.9710  175.0520  144.8650 C   0  0  0  0  0  0  0  0  0  0  0  0
  193.1050  173.6640  143.1590 C   0  0  1  0  0  3  0  0  0  0  0  0
  197.6780  175.9520  143.1370 C   0  0  0  0  0  3  0  0  0  0  0  0
  194.1670  175.8040  144.0680 C   0  0  0  0  0  2  0  0  0  0  0  0
  196.8160  173.7620  142.5650 C   0  0  0  0  0  3  0  0  0  0  0  0
  195.5390  174.1410  142.9910 C   0  0  0  0  0  0  0  0  0  0  0  0
  190.9620  174.0300  144.9640 N   0  0  0  0  0  0  0  0  0  0  0  0
  194.5300  173.2670  142.8680 C   0  0  0  0  0  2  0  0  0  0  0  0
  191.1650  172.7430  144.3660 C   0  0  0  0  0  3  0  0  0  0  0  0
  189.7270  174.2770  145.7000 C   0  0  0  0  0  2  0  0  0  0  0  0
  195.3400  175.4410  143.5330 C   0  0  0  0  0  0  0  0  0  0  0  0
  192.2190  172.5140  143.5760 C   0  0  0  0  0  0  0  0  0  0  0  0
  189.9580  175.2610  146.8460 C   0  0  0  0  0  2  0  0  0  0  0  0
  197.8820  174.6640  142.6350 C   0  0  0  0  0  3  0  0  0  0  0  0
  196.4130  176.3370  143.5890 C   0  0  0  0  0  3  0  0  0  0  0  0
  188.3250  177.1920  145.5950 N   0  0  0  0  0  2  0  0  0  0  0  0
  189.7420  177.3580  145.4940 C   0  0  0  0  0  0  0  0  0  0  0  0
  190.2310  178.2200  144.7170 O   0  0  0  0  0  0  0  0  0  0  0  0
  185.9080  177.7990  145.2840 C   0  0  2  0  0  0  0  0  0  0  0  0
  185.5270  177.1630  141.8610 O   0  0  0  0  0  0  0  0  0  0  0  0
  185.7090  176.6090  146.2150 C   0  0  0  0  0  1  0  0  0  0  0  0
  187.4040  177.5110  143.3360 C   0  0  0  0  0  2  0  0  0  0  0  0
  185.1510  177.5850  144.1050 O   0  0  0  0  0  0  0  0  0  0  0  0
  187.3750  177.9600  144.7980 C   0  0  2  0  0  3  0  0  0  0  0  0
  185.9700  177.4030  143.0130 C   0  0  0  0  0  0  0  0  0  0  0  0
  185.4370  179.0620  145.9920 C   0  0  0  0  0  2  0  0  0  0  0  0
  184.0510  179.0430  146.1720 O   0  0  0  0  0  1  0  0  0  0  0  0
  192.3420  171.1800  142.9190 C   0  0  0  0  0  2  0  0  0  0  0  0
  191.1450  170.8980  142.1450 N   0  0  0  0  0  1  0  0  0  0  0  0
  1  3  1  0  0  0  0
  2  4  2  0  0  0  0
  3 20  1  6  0  0  0
  3 16  1  0  0  0  0
  4 10  1  0  0  0  0
  4  1  1  0  0  0  0
  5 11  1  1  0  0  0
  5 15  1  0  0  0  0
  5  2  1  0  0  0  0
  6 18  1  0  0  0  0
  7  2  1  0  0  0  0
  8 17  1  0  0  0  0
  8  9  2  0  0  0  0
  9 14  1  0  0  0  0
 10 13  1  0  0  0  0
 11  9  1  0  0  0  0
 12 10  1  0  0  0  0
 13 16  1  0  0  0  0
 14 18  2  0  0  0  0
 14  7  1  0  0  0  0
 15 12  2  0  0  0  0
 17  6  2  0  0  0  0
 20 19  1  0  0  0  0
 21 20  2  0  0  0  0
 22 29  1  0  0  0  0
 22 24  1  1  0  0  0
 23 28  2  0  0  0  0
 25 27  1  0  0  0  0
 26 22  1  0  0  0  0
 27 22  1  0  0  0  0
 27 19  1  1  0  0  0
 28 25  1  0  0  0  0
 28 26  1  0  0  0  0
 29 30  1  0  0  0  0
 31 15  1  0  0  0  0
 32 31  1  0  0  0  0
M  END
>  <MODEL>
6

>  <REMARK>
 VINA RESULT:      -7.2      2.587      8.959
  Name = 
  4 active torsions:
  status: ('A' for Active; 'I' for Inactive)
    1  A    between atoms: C_3  and  C_22
    2  A    between atoms: C_4  and  C_24
    3  A    between atoms: C_13  and  C_29
    4  A    between atoms: N_16  and  C_20
                            x       y       z     vdW  Elec       q    Type
                         _______ _______ _______ _____ _____    ______ ____

>  <TORSDO>
F 4

$$$$
=
 OpenBabel11052419183D

 32 36  0  0  1  0  0  0  0  0999 V2000
  189.8560  175.3530  144.6780 O   0  0  0  0  0  0  0  0  0  0  0  0
  187.6910  176.2190  144.2110 C   0  0  0  0  0  0  0  0  0  0  0  0
  191.0480  174.6960  144.2460 C   0  0  2  0  0  3  0  0  0  0  0  0
  188.8670  175.7560  143.7730 C   0  0  0  0  0  0  0  0  0  0  0  0
  186.5810  176.5390  143.2350 C   0  0  1  0  0  3  0  0  0  0  0  0
  185.1730  178.2200  147.8530 C   0  0  0  0  0  3  0  0  0  0  0  0
  187.4190  176.4040  145.6460 C   0  0  0  0  0  2  0  0  0  0  0  0
  184.5380  178.6720  145.5600 C   0  0  0  0  0  3  0  0  0  0  0  0
  185.5290  177.7970  145.1030 C   0  0  0  0  0  0  0  0  0  0  0  0
  189.1460  175.7340  142.3600 N   0  0  0  0  0  0  0  0  0  0  0  0
  185.6450  177.5840  143.7840 C   0  0  0  0  0  2  0  0  0  0  0  0
  188.2460  176.3500  141.4290 C   0  0  0  0  0  3  0  0  0  0  0  0
  190.3620  175.1070  141.8550 C   0  0  0  0  0  2  0  0  0  0  0  0
  186.3790  177.1510  146.0410 C   0  0  0  0  0  0  0  0  0  0  0  0
  187.0610  176.8190  141.8290 C   0  0  0  0  0  0  0  0  0  0  0  0
  191.4970  175.2110  142.8750 C   0  0  0  0  0  2  0  0  0  0  0  0
  184.3580  178.8810  146.9300 C   0  0  0  0  0  3  0  0  0  0  0  0
  186.1830  177.3620  147.4100 C   0  0  0  0  0  3  0  0  0  0  0  0
  191.7270  172.3840  143.4580 N   0  0  0  0  0  2  0  0  0  0  0  0
  190.8620  173.2100  144.2400 C   0  0  0  0  0  0  0  0  0  0  0  0
  189.9600  172.6960  144.9540 O   0  0  0  0  0  0  0  0  0  0  0  0
  192.9690  170.2170  143.1980 C   0  0  2  0  0  0  0  0  0  0  0  0
  191.0620  168.6850  140.6920 O   0  0  0  0  0  0  0  0  0  0  0  0
  194.0760  171.1520  142.7240 C   0  0  0  0  0  1  0  0  0  0  0  0
  190.7110  170.5070  142.2350 C   0  0  0  0  0  2  0  0  0  0  0  0
  192.7320  169.2470  142.1930 O   0  0  0  0  0  0  0  0  0  0  0  0
  191.6050  170.9320  143.4000 C   0  0  2  0  0  3  0  0  0  0  0  0
  191.4850  169.4070  141.6310 C   0  0  0  0  0  0  0  0  0  0  0  0
  193.4170  169.5410  144.4880 C   0  0  0  0  0  2  0  0  0  0  0  0
  194.2740  170.3720  145.2130 O   0  0  0  0  0  1  0  0  0  0  0  0
  186.1340  177.3820  140.8050 C   0  0  0  0  0  2  0  0  0  0  0  0
  186.7080  177.2280  139.4800 N   0  0  0  0  0  1  0  0  0  0  0  0
  2  7  1  0  0  0  0
  3 20  1  6  0  0  0
  3  1  1  0  0  0  0
  4  2  2  0  0  0  0
  4  1  1  0  0  0  0
  5 11  1  1  0  0  0
  5  2  1  0  0  0  0
  7 14  1  0  0  0  0
  8 17  1  0  0  0  0
  9  8  2  0  0  0  0
  9 14  1  0  0  0  0
 10  4  1  0  0  0  0
 11  9  1  0  0  0  0
 12 15  2  0  0  0  0
 12 10  1  0  0  0  0
 13 10  1  0  0  0  0
 13 16  1  0  0  0  0
 14 18  2  0  0  0  0
 15  5  1  0  0  0  0
 16  3  1  0  0  0  0
 17  6  2  0  0  0  0
 18  6  1  0  0  0  0
 19 20  1  0  0  0  0
 20 21  2  0  0  0  0
 22 24  1  6  0  0  0
 22 27  1  0  0  0  0
 22 29  1  0  0  0  0
 23 28  2  0  0  0  0
 25 27  1  0  0  0  0
 26 22  1  0  0  0  0
 27 19  1  6  0  0  0
 28 26  1  0  0  0  0
 28 25  1  0  0  0  0
 29 30  1  0  0  0  0
 31 15  1  0  0  0  0
 32 31  1  0  0  0  0
M  END
>  <MODEL>
7

>  <REMARK>
 VINA RESULT:      -7.2      3.198      5.102
  Name = 
  4 active torsions:
  status: ('A' for Active; 'I' for Inactive)
    1  A    between atoms: C_3  and  C_22
    2  A    between atoms: C_4  and  C_24
    3  A    between atoms: C_13  and  C_29
    4  A    between atoms: N_16  and  C_20
                            x       y       z     vdW  Elec       q    Type
                         _______ _______ _______ _____ _____    ______ ____

>  <TORSDO>
F 4

$$$$
=
 OpenBabel11052419183D

 32 36  0  0  1  0  0  0  0  0999 V2000
  189.4430  173.7410  143.1320 O   0  0  0  0  0  0  0  0  0  0  0  0
  188.3870  175.8500  143.4400 C   0  0  0  0  0  0  0  0  0  0  0  0
  190.2610  172.6800  143.6260 C   0  0  2  0  0  3  0  0  0  0  0  0
  189.0110  174.7850  143.9580 C   0  0  0  0  0  0  0  0  0  0  0  0
  188.0310  177.0300  144.3150 C   0  0  1  0  0  3  0  0  0  0  0  0
  185.8220  177.7050  139.7540 C   0  0  0  0  0  3  0  0  0  0  0  0
  188.0530  175.9290  142.0090 C   0  0  0  0  0  2  0  0  0  0  0  0
  185.4990  178.5610  141.9960 C   0  0  0  0  0  3  0  0  0  0  0  0
  186.5120  177.7230  142.4730 C   0  0  0  0  0  0  0  0  0  0  0  0
  189.1830  174.6810  145.3840 N   0  0  0  0  0  0  0  0  0  0  0  0
  186.8470  177.7860  143.7700 C   0  0  0  0  0  2  0  0  0  0  0  0
  188.5530  175.6190  146.2660 C   0  0  0  0  0  3  0  0  0  0  0  0
  189.9790  173.6010  145.9560 C   0  0  0  0  0  2  0  0  0  0  0  0
  187.1660  176.8350  141.5750 C   0  0  0  0  0  0  0  0  0  0  0  0
  187.9250  176.6950  145.7850 C   0  0  0  0  0  0  0  0  0  0  0  0
  189.9150  172.3480  145.0820 C   0  0  0  0  0  2  0  0  0  0  0  0
  185.1560  178.5540  140.6410 C   0  0  0  0  0  3  0  0  0  0  0  0
  186.8200  176.8450  140.2210 C   0  0  0  0  0  3  0  0  0  0  0  0
  192.1210  173.9980  142.5170 N   0  0  0  0  0  2  0  0  0  0  0  0
  191.7120  173.0120  143.4680 C   0  0  0  0  0  0  0  0  0  0  0  0
  192.5620  172.4390  144.2010 O   0  0  0  0  0  0  0  0  0  0  0  0
  193.8060  175.8540  142.6660 C   0  0  2  0  0  0  0  0  0  0  0  0
  195.2370  175.6720  139.4740 O   0  0  0  0  0  0  0  0  0  0  0  0
  192.5450  176.7030  142.7900 C   0  0  0  0  0  1  0  0  0  0  0  0
  193.9100  174.1900  140.8400 C   0  0  0  0  0  2  0  0  0  0  0  0
  194.5820  176.3490  141.5890 O   0  0  0  0  0  0  0  0  0  0  0  0
  193.5150  174.3710  142.3060 C   0  0  2  0  0  3  0  0  0  0  0  0
  194.6340  175.4420  140.5540 C   0  0  0  0  0  0  0  0  0  0  0  0
  194.5900  175.9460  143.9680 C   0  0  0  0  0  2  0  0  0  0  0  0
  195.2130  174.7310  144.2600 O   0  0  0  0  0  1  0  0  0  0  0  0
  187.3520  177.6780  146.7510 C   0  0  0  0  0  2  0  0  0  0  0  0
  186.2660  177.0640  147.4950 N   0  0  0  0  0  1  0  0  0  0  0  0
  1  3  1  0  0  0  0
  1  4  1  0  0  0  0
  2  4  2  0  0  0  0
  2  5  1  0  0  0  0
  3 20  1  1  0  0  0
  3 16  1  0  0  0  0
  4 10  1  0  0  0  0
  5 11  1  6  0  0  0
  5 15  1  0  0  0  0
  6 18  2  0  0  0  0
  6 17  1  0  0  0  0
  7  2  1  0  0  0  0
  8  9  1  0  0  0  0
  9 11  1  0  0  0  0
 10 13  1  0  0  0  0
 10 12  1  0  0  0  0
 14  7  1  0  0  0  0
 14  9  2  0  0  0  0
 15 12  2  0  0  0  0
 15 31  1  0  0  0  0
 16 13  1  0  0  0  0
 17  8  2  0  0  0  0
 18 14  1  0  0  0  0
 19 20  1  0  0  0  0
 20 21  2  0  0  0  0
 22 24  1  1  0  0  0
 22 29  1  0  0  0  0
 23 28  2  0  0  0  0
 25 27  1  0  0  0  0
 26 22  1  0  0  0  0
 27 19  1  6  0  0  0
 27 22  1  0  0  0  0
 28 25  1  0  0  0  0
 28 26  1  0  0  0  0
 29 30  1  0  0  0  0
 31 32  1  0  0  0  0
M  END
>  <MODEL>
8

>  <REMARK>
 VINA RESULT:      -7.0      1.581      2.446
  Name = 
  4 active torsions:
  status: ('A' for Active; 'I' for Inactive)
    1  A    between atoms: C_3  and  C_22
    2  A    between atoms: C_4  and  C_24
    3  A    between atoms: C_13  and  C_29
    4  A    between atoms: N_16  and  C_20
                            x       y       z     vdW  Elec       q    Type
                         _______ _______ _______ _____ _____    ______ ____

>  <TORSDO>
F 4

$$$$
=
 OpenBabel11052419183D

 32 36  0  0  1  0  0  0  0  0999 V2000
  190.1510  176.2790  142.4960 O   0  0  0  0  0  0  0  0  0  0  0  0
  191.4060  174.2660  142.6670 C   0  0  0  0  0  0  0  0  0  0  0  0
  189.5030  177.3920  143.1140 C   0  0  2  0  0  3  0  0  0  0  0  0
  190.9460  175.3900  143.2290 C   0  0  0  0  0  0  0  0  0  0  0  0
  192.1610  173.2490  143.4920 C   0  0  1  0  0  3  0  0  0  0  0  0
  192.5040  171.8810  138.5780 C   0  0  0  0  0  3  0  0  0  0  0  0
  191.1730  173.9620  141.2450 C   0  0  0  0  0  2  0  0  0  0  0  0
  193.7260  171.4060  140.6140 C   0  0  0  0  0  3  0  0  0  0  0  0
  192.9090  172.2920  141.3230 C   0  0  0  0  0  0  0  0  0  0  0  0
  191.3240  175.7210  144.5780 N   0  0  0  0  0  0  0  0  0  0  0  0
  193.1020  172.4350  142.6430 C   0  0  0  0  0  2  0  0  0  0  0  0
  192.3150  174.9490  145.2690 C   0  0  0  0  0  3  0  0  0  0  0  0
  190.7250  176.8660  145.2550 C   0  0  0  0  0  2  0  0  0  0  0  0
  191.8940  173.0120  140.6350 C   0  0  0  0  0  0  0  0  0  0  0  0
  192.7940  173.8190  144.7400 C   0  0  0  0  0  0  0  0  0  0  0  0
  190.3520  177.9610  144.2560 C   0  0  0  0  0  2  0  0  0  0  0  0
  193.5230  171.1980  139.2470 C   0  0  0  0  0  3  0  0  0  0  0  0
  191.6960  172.7890  139.2690 C   0  0  0  0  0  3  0  0  0  0  0  0
  187.3000  177.9900  144.2150 N   0  0  0  0  0  2  0  0  0  0  0  0
  188.1330  177.0150  143.5830 C   0  0  0  0  0  0  0  0  0  0  0  0
  187.7120  175.8440  143.3880 O   0  0  0  0  0  0  0  0  0  0  0  0
  184.9450  178.8400  144.4130 C   0  0  2  0  0  0  0  0  0  0  0  0
  184.3580  178.3000  147.8240 O   0  0  0  0  0  0  0  0  0  0  0  0
  185.6150  180.1590  144.0470 C   0  0  0  0  0  1  0  0  0  0  0  0
  185.9600  177.4830  146.2140 C   0  0  0  0  0  2  0  0  0  0  0  0
  184.2320  179.0140  145.6250 O   0  0  0  0  0  0  0  0  0  0  0  0
  185.9560  177.6960  144.7000 C   0  0  2  0  0  3  0  0  0  0  0  0
  184.7960  178.2800  146.6450 C   0  0  0  0  0  0  0  0  0  0  0  0
  183.9920  178.4450  143.2930 C   0  0  0  0  0  2  0  0  0  0  0  0
  184.5910  177.5230  142.4320 O   0  0  0  0  0  1  0  0  0  0  0  0
  193.7680  173.0160  145.5360 C   0  0  0  0  0  2  0  0  0  0  0  0
  195.0680  173.6640  145.5260 N   0  0  0  0  0  1  0  0  0  0  0  0
  1  3  1  0  0  0  0
  1  4  1  0  0  0  0
  2  4  2  0  0  0  0
  2  5  1  0  0  0  0
  3 20  1  1  0  0  0
  3 16  1  0  0  0  0
  4 10  1  0  0  0  0
  5 11  1  6  0  0  0
  5 15  1  0  0  0  0
  6 17  2  0  0  0  0
  6 18  1  0  0  0  0
  7  2  1  0  0  0  0
  8  9  2  0  0  0  0
  9 11  1  0  0  0  0
 10 13  1  0  0  0  0
 10 12  1  0  0  0  0
 14  7  1  0  0  0  0
 14  9  1  0  0  0  0
 15 12  2  0  0  0  0
 15 31  1  0  0  0  0
 16 13  1  0  0  0  0
 17  8  1  0  0  0  0
 18 14  2  0  0  0  0
 20 19  1  0  0  0  0
 21 20  2  0  0  0  0
 22 24  1  6  0  0  0
 22 27  1  0  0  0  0
 22 26  1  0  0  0  0
 25 28  1  0  0  0  0
 26 28  1  0  0  0  0
 27 19  1  1  0  0  0
 27 25  1  0  0  0  0
 28 23  2  0  0  0  0
 29 22  1  0  0  0  0
 30 29  1  0  0  0  0
 32 31  1  0  0  0  0
M  END
>  <MODEL>
9

>  <REMARK>
 VINA RESULT:      -6.9      3.127      8.628
  Name = 
  4 active torsions:
  status: ('A' for Active; 'I' for Inactive)
    1  A    between atoms: C_3  and  C_22
    2  A    between atoms: C_4  and  C_24
    3  A    between atoms: C_13  and  C_29
    4  A    between atoms: N_16  and  C_20
                            x       y       z     vdW  Elec       q    Type
                         _______ _______ _______ _____ _____    ______ ____

>  <TORSDO>
F 4

$$$$
