=
 OpenBabel11052420563D

 43 50  0  0  1  0  0  0  0  0999 V2000
  188.5600  176.6960  147.0340 N   0  0  0  0  0  2  0  0  0  0  0  0
  195.5040  175.8110  144.3220 C   0  0  0  0  0  0  0  0  0  0  0  0
  190.7240  176.6360  145.7440 C   0  0  0  0  0  0  0  0  0  0  0  0
  189.2940  177.4330  143.4340 C   0  0  2  0  0  3  0  0  0  0  0  0
  193.4900  176.1940  145.6120 C   0  0  0  0  0  0  0  0  0  0  0  0
  194.7630  175.8710  143.1390 C   0  0  0  0  0  3  0  0  0  0  0  0
  196.8740  175.5910  144.2710 O   0  0  0  0  0  1  0  0  0  0  0  0
  192.7330  176.2580  144.4180 C   0  0  0  0  0  0  0  0  0  0  0  0
  194.8690  175.9700  145.5560 C   0  0  0  0  0  3  0  0  0  0  0  0
  193.3840  176.0930  143.1860 C   0  0  0  0  0  3  0  0  0  0  0  0
  190.4840  176.4860  143.2500 C   0  0  0  0  0  2  0  0  0  0  0  0
  191.3450  176.4870  144.4880 C   0  0  0  0  0  0  0  0  0  0  0  0
  191.4850  176.5640  146.9160 C   0  0  0  0  0  3  0  0  0  0  0  0
  189.2650  176.8650  145.7980 C   0  0  0  0  0  0  0  0  0  0  0  0
  188.6180  177.1720  144.7100 N   0  0  0  0  0  0  0  0  0  0  0  0
  192.8620  176.3460  146.8500 C   0  0  0  0  0  3  0  0  0  0  0  0
  185.4180  178.4900  146.6680 C   0  0  2  0  0  3  0  0  0  0  0  0
  185.6990  178.7340  145.1960 C   0  0  1  0  0  3  0  0  0  0  0  0
  186.4740  176.4580  145.8170 C   0  0  0  0  0  2  0  0  0  0  0  0
  186.7190  178.2460  147.4110 C   0  0  0  0  0  2  0  0  0  0  0  0
  187.1130  176.8100  147.1390 C   0  0  2  0  0  3  0  0  0  0  0  0
  185.2620  177.3600  145.6650 C   0  0  1  0  0  3  0  0  0  0  0  0
  184.1310  178.7850  143.4140 O   0  0  0  0  0  1  0  0  0  0  0  0
  184.5170  179.4500  144.5770 C   0  0  0  0  0  2  0  0  0  0  0  0
  188.3130  177.3080  142.2700 C   0  0  1  0  0  3  0  0  0  0  0  0
  188.3480  178.5580  141.4060 C   0  0  0  0  0  1  0  0  0  0  0  0
  188.6610  176.1530  141.4530 N   0  0  0  0  0  2  0  0  0  0  0  0
  188.0040  174.8920  141.5840 C   0  0  0  0  0  0  0  0  0  0  0  0
  187.1130  174.7180  142.4590 O   0  0  0  0  0  0  0  0  0  0  0  0
  188.4120  173.7590  140.7110 C   0  0  0  0  0  2  0  0  0  0  0  0
  189.8590  173.7460  140.5620 N   0  0  0  0  0  0  0  0  0  0  0  0
  191.5530  173.0790  142.1350 C   0  0  2  0  0  3  0  0  0  0  0  0
  190.3550  172.6460  141.3760 C   0  0  2  0  0  3  0  0  0  0  0  0
  191.6600  172.3070  140.9650 O   0  0  0  0  0  0  0  0  0  0  0  0
  191.7830  172.2050  143.3670 C   0  0  1  0  0  0  0  0  0  0  0  0
  191.3550  172.7810  144.6970 C   0  0  0  0  0  2  0  0  0  0  0  0
  193.2850  170.4070  143.9850 C   0  0  0  0  0  2  0  0  0  0  0  0
  193.5330  171.5830  144.9090 C   0  0  0  0  0  2  0  0  0  0  0  0
  191.9720  170.6960  143.2930 C   0  0  0  0  0  2  0  0  0  0  0  0
  192.8260  172.7800  144.3000 C   0  0  1  0  0  3  0  0  0  0  0  0
  190.1430  173.4080  139.1740 C   0  0  0  0  0  2  0  0  0  0  0  0
  189.8630  171.1400  137.6470 S   0  0  0  0  0  1  0  0  0  0  0  0
  189.0880  172.4550  138.6330 C   0  0  0  0  0  2  0  0  0  0  0  0
  2  9  1  0  0  0  0
  3 14  1  0  0  0  0
  3 13  1  0  0  0  0
  4 25  1  6  0  0  0
  4 15  1  0  0  0  0
  5 16  1  0  0  0  0
  6 10  1  0  0  0  0
  6  2  2  0  0  0  0
  7  2  1  0  0  0  0
  8 12  1  0  0  0  0
  8  5  1  0  0  0  0
  9  5  2  0  0  0  0
 10  8  2  0  0  0  0
 11  4  1  0  0  0  0
 11 12  1  0  0  0  0
 12  3  2  0  0  0  0
 14  1  1  0  0  0  0
 15 14  2  0  0  0  0
 16 13  2  0  0  0  0
 17 20  1  1  0  0  0
 18 24  1  6  0  0  0
 18 22  1  0  0  0  0
 18 17  1  0  0  0  0
 19 21  1  0  0  0  0
 21  1  1  6  0  0  0
 21 20  1  0  0  0  0
 22 19  1  1  0  0  0
 22 17  1  0  0  0  0
 23 24  1  0  0  0  0
 25 26  1  6  0  0  0
 27 28  1  0  0  0  0
 27 25  1  0  0  0  0
 28 29  2  0  0  0  0
 30 28  1  0  0  0  0
 31 30  1  0  0  0  0
 32 34  1  6  0  0  0
 32 35  1  0  0  0  0
 33 31  1  6  0  0  0
 33 32  1  0  0  0  0
 34 33  1  0  0  0  0
 35 39  1  6  0  0  0
 35 40  1  0  0  0  0
 35 36  1  0  0  0  0
 37 38  1  0  0  0  0
 39 37  1  0  0  0  0
 40 36  1  1  0  0  0
 40 38  1  0  0  0  0
 41 31  1  0  0  0  0
 42 43  1  0  0  0  0
 43 41  1  0  0  0  0
M  END
>  <MODEL>
1

>  <REMARK>
 VINA RESULT:      -7.7      0.000      0.000
  Name = 
  10 active torsions:
  status: ('A' for Active; 'I' for Inactive)
    1  A    between atoms: N_1  and  C_35
    2  A    between atoms: C_2  and  N_6
    3  A    between atoms: C_2  and  C_13
    4  A    between atoms: C_3  and  N_4
    5  A    between atoms: C_3  and  C_12
    6  A    between atoms: N_4  and  C_15
    7  A    between atoms: N_4  and  C_22
    8  A    between atoms: C_11  and  C_14
    9  A    between atoms: C_15  and  C_42
   10  A    between atoms: C_19  and  C_37
                            x       y       z     vdW  Elec       q    Type
                         _______ _______ _______ _____ _____    ______ ____

>  <TORSDO>
F 10

$$$$
=
 OpenBabel11052420563D

 43 50  0  0  1  0  0  0  0  0999 V2000
  187.9220  175.5620  140.5530 N   0  0  0  0  0  2  0  0  0  0  0  0
  190.9850  169.8800  136.7200 C   0  0  0  0  0  0  0  0  0  0  0  0
  188.9120  173.4160  139.6780 C   0  0  0  0  0  0  0  0  0  0  0  0
  189.1730  172.5230  142.3530 C   0  0  2  0  0  3  0  0  0  0  0  0
  189.7390  171.7830  137.5550 C   0  0  0  0  0  0  0  0  0  0  0  0
  191.4170  169.5880  138.0170 C   0  0  0  0  0  3  0  0  0  0  0  0
  191.3890  169.0800  135.6600 O   0  0  0  0  0  1  0  0  0  0  0  0
  190.1710  171.4920  138.8710 C   0  0  0  0  0  0  0  0  0  0  0  0
  190.1500  170.9760  136.4890 C   0  0  0  0  0  3  0  0  0  0  0  0
  191.0120  170.3900  139.0870 C   0  0  0  0  0  3  0  0  0  0  0  0
  190.2410  172.0890  141.3430 C   0  0  0  0  0  2  0  0  0  0  0  0
  189.7480  172.3110  139.9360 C   0  0  0  0  0  0  0  0  0  0  0  0
  188.4990  173.6940  138.3710 C   0  0  0  0  0  3  0  0  0  0  0  0
  188.4870  174.2700  140.8070 C   0  0  0  0  0  0  0  0  0  0  0  0
  188.6720  173.8640  142.0300 N   0  0  0  0  0  0  0  0  0  0  0  0
  188.9090  172.8790  137.3140 C   0  0  0  0  0  3  0  0  0  0  0  0
  186.0410  178.3590  141.9170 C   0  0  2  0  0  3  0  0  0  0  0  0
  184.7280  177.6730  141.5830 C   0  0  1  0  0  3  0  0  0  0  0  0
  186.3670  175.9810  142.3690 C   0  0  0  0  0  2  0  0  0  0  0  0
  187.1480  177.8220  141.0280 C   0  0  0  0  0  2  0  0  0  0  0  0
  187.5720  176.4930  141.6150 C   0  0  2  0  0  3  0  0  0  0  0  0
  185.5510  177.1980  142.7650 C   0  0  1  0  0  3  0  0  0  0  0  0
  182.4080  178.1490  141.4320 O   0  0  0  0  0  1  0  0  0  0  0  0
  183.5810  178.5250  142.0830 C   0  0  0  0  0  2  0  0  0  0  0  0
  189.7210  172.4800  143.7770 C   0  0  1  0  0  3  0  0  0  0  0  0
  190.8880  171.5110  143.8710 C   0  0  0  0  0  1  0  0  0  0  0  0
  190.1700  173.8080  144.1740 N   0  0  0  0  0  2  0  0  0  0  0  0
  190.0470  174.2930  145.5110 C   0  0  0  0  0  0  0  0  0  0  0  0
  189.4940  173.5920  146.4030 O   0  0  0  0  0  0  0  0  0  0  0  0
  190.5310  175.6600  145.8430 C   0  0  0  0  0  2  0  0  0  0  0  0
  190.0980  176.5990  144.8190 N   0  0  0  0  0  0  0  0  0  0  0  0
  187.7690  177.1490  145.0710 C   0  0  2  0  0  3  0  0  0  0  0  0
  189.1560  177.5080  145.4550 C   0  0  2  0  0  3  0  0  0  0  0  0
  188.4480  178.2210  144.4650 O   0  0  0  0  0  0  0  0  0  0  0  0
  186.7530  177.6730  146.0840 C   0  0  1  0  0  0  0  0  0  0  0  0
  186.6510  176.9220  147.3920 C   0  0  0  0  0  2  0  0  0  0  0  0
  184.6980  178.9550  146.0040 C   0  0  0  0  0  2  0  0  0  0  0  0
  184.3900  177.5830  146.5700 C   0  0  0  0  0  2  0  0  0  0  0  0
  186.2040  179.0920  146.0540 C   0  0  0  0  0  2  0  0  0  0  0  0
  185.6050  176.7120  146.3050 C   0  0  1  0  0  3  0  0  0  0  0  0
  191.2630  177.3890  144.4440 C   0  0  0  0  0  2  0  0  0  0  0  0
  193.4550  176.0870  143.4160 S   0  0  0  0  0  1  0  0  0  0  0  0
  191.8470  176.8850  143.1330 C   0  0  0  0  0  2  0  0  0  0  0  0
  1 14  1  0  0  0  0
  2  6  1  0  0  0  0
  3 12  1  0  0  0  0
  3 14  1  0  0  0  0
  4 25  1  1  0  0  0
  5  8  1  0  0  0  0
  6 10  2  0  0  0  0
  7  2  1  0  0  0  0
  8 10  1  0  0  0  0
  8 12  2  0  0  0  0
  9  2  2  0  0  0  0
  9  5  1  0  0  0  0
 11  4  1  0  0  0  0
 12 11  1  0  0  0  0
 13  3  2  0  0  0  0
 14 15  2  0  0  0  0
 15  4  1  0  0  0  0
 16  5  2  0  0  0  0
 16 13  1  0  0  0  0
 17 20  1  6  0  0  0
 17 22  1  0  0  0  0
 18 17  1  0  0  0  0
 18 24  1  1  0  0  0
 18 22  1  0  0  0  0
 20 21  1  0  0  0  0
 21  1  1  6  0  0  0
 21 19  1  0  0  0  0
 22 19  1  6  0  0  0
 23 24  1  0  0  0  0
 25 26  1  6  0  0  0
 25 27  1  0  0  0  0
 27 28  1  0  0  0  0
 28 30  1  0  0  0  0
 28 29  2  0  0  0  0
 31 30  1  0  0  0  0
 32 34  1  6  0  0  0
 32 33  1  0  0  0  0
 32 35  1  0  0  0  0
 33 31  1  6  0  0  0
 34 33  1  0  0  0  0
 35 39  1  1  0  0  0
 35 40  1  0  0  0  0
 35 36  1  0  0  0  0
 37 39  1  0  0  0  0
 37 38  1  0  0  0  0
 40 38  1  1  0  0  0
 40 36  1  0  0  0  0
 41 31  1  0  0  0  0
 43 42  1  0  0  0  0
 43 41  1  0  0  0  0
M  END
>  <MODEL>
2

>  <REMARK>
 VINA RESULT:      -7.7      2.776      7.382
  Name = 
  10 active torsions:
  status: ('A' for Active; 'I' for Inactive)
    1  A    between atoms: N_1  and  C_35
    2  A    between atoms: C_2  and  N_6
    3  A    between atoms: C_2  and  C_13
    4  A    between atoms: C_3  and  N_4
    5  A    between atoms: C_3  and  C_12
    6  A    between atoms: N_4  and  C_15
    7  A    between atoms: N_4  and  C_22
    8  A    between atoms: C_11  and  C_14
    9  A    between atoms: C_15  and  C_42
   10  A    between atoms: C_19  and  C_37
                            x       y       z     vdW  Elec       q    Type
                         _______ _______ _______ _____ _____    ______ ____

>  <TORSDO>
F 10

$$$$
=
 OpenBabel11052420563D

 43 50  0  0  1  0  0  0  0  0999 V2000
  190.0040  174.4570  142.1330 N   0  0  0  0  0  2  0  0  0  0  0  0
  185.1200  178.0190  146.5850 C   0  0  0  0  0  0  0  0  0  0  0  0
  188.7510  175.8740  143.7990 C   0  0  0  0  0  0  0  0  0  0  0  0
  191.2230  176.4860  145.0380 C   0  0  2  0  0  3  0  0  0  0  0  0
  186.3620  176.9390  144.8070 C   0  0  0  0  0  0  0  0  0  0  0  0
  186.2700  178.0450  147.3780 C   0  0  0  0  0  3  0  0  0  0  0  0
  183.9300  178.5420  147.0730 O   0  0  0  0  0  1  0  0  0  0  0  0
  187.5320  176.9640  145.6040 C   0  0  0  0  0  0  0  0  0  0  0  0
  185.1650  177.4660  145.3020 C   0  0  0  0  0  3  0  0  0  0  0  0
  187.4700  177.5200  146.8910 C   0  0  0  0  0  3  0  0  0  0  0  0
  189.9820  176.3670  145.9300 C   0  0  0  0  0  2  0  0  0  0  0  0
  188.7310  176.4340  145.0920 C   0  0  0  0  0  0  0  0  0  0  0  0
  187.5860  175.8510  143.0250 C   0  0  0  0  0  3  0  0  0  0  0  0
  190.0170  175.3120  143.2830 C   0  0  0  0  0  0  0  0  0  0  0  0
  191.1340  175.5580  143.9040 N   0  0  0  0  0  0  0  0  0  0  0  0
  186.3970  176.3840  143.5270 C   0  0  0  0  0  3  0  0  0  0  0  0
  192.0720  171.5250  141.5400 C   0  0  2  0  0  3  0  0  0  0  0  0
  190.9330  170.8380  140.8090 C   0  0  1  0  0  3  0  0  0  0  0  0
  190.9360  173.2550  140.2410 C   0  0  0  0  0  2  0  0  0  0  0  0
  191.5220  172.5840  142.4790 C   0  0  0  0  0  2  0  0  0  0  0  0
  191.1970  173.7930  141.6290 C   0  0  2  0  0  3  0  0  0  0  0  0
  191.7050  171.9510  140.1280 C   0  0  1  0  0  3  0  0  0  0  0  0
  190.5340  169.0450  139.3040 O   0  0  0  0  0  1  0  0  0  0  0  0
  191.4150  169.5020  140.2830 C   0  0  0  0  0  2  0  0  0  0  0  0
  192.4970  176.2350  145.8410 C   0  0  1  0  0  3  0  0  0  0  0  0
  192.2880  175.1040  146.8340 C   0  0  0  0  0  1  0  0  0  0  0  0
  193.5880  175.8850  144.9410 N   0  0  0  0  0  2  0  0  0  0  0  0
  194.8050  176.6300  144.8810 C   0  0  0  0  0  0  0  0  0  0  0  0
  194.9630  177.6630  145.5870 O   0  0  0  0  0  0  0  0  0  0  0  0
  195.8760  176.2090  143.9390 C   0  0  0  0  0  2  0  0  0  0  0  0
  195.9780  174.7580  143.9240 N   0  0  0  0  0  0  0  0  0  0  0  0
  195.1170  173.9520  141.8270 C   0  0  2  0  0  3  0  0  0  0  0  0
  196.3310  174.3760  142.5650 C   0  0  2  0  0  3  0  0  0  0  0  0
  196.0200  173.0160  142.3610 O   0  0  0  0  0  0  0  0  0  0  0  0
  195.3090  174.0670  140.3150 C   0  0  1  0  0  0  0  0  0  0  0  0
  195.5770  175.4520  139.7700 C   0  0  0  0  0  2  0  0  0  0  0  0
  194.6270  172.8100  138.3600 C   0  0  0  0  0  2  0  0  0  0  0  0
  194.0200  174.1960  138.2780 C   0  0  0  0  0  2  0  0  0  0  0  0
  195.6910  172.8880  139.4330 C   0  0  0  0  0  2  0  0  0  0  0  0
  194.1900  174.8340  139.6450 C   0  0  1  0  0  3  0  0  0  0  0  0
  197.1070  174.4000  144.7720 C   0  0  0  0  0  2  0  0  0  0  0  0
  196.8250  171.8350  145.7180 S   0  0  0  0  0  1  0  0  0  0  0  0
  196.6320  173.6210  145.9890 C   0  0  0  0  0  2  0  0  0  0  0  0
  1 14  1  0  0  0  0
  2  7  1  0  0  0  0
  2  6  1  0  0  0  0
  3 12  1  0  0  0  0
  4 25  1  1  0  0  0
  4 11  1  0  0  0  0
  5  9  1  0  0  0  0
  5  8  1  0  0  0  0
  8 10  1  0  0  0  0
  9  2  2  0  0  0  0
 10  6  2  0  0  0  0
 12  8  2  0  0  0  0
 12 11  1  0  0  0  0
 13 16  1  0  0  0  0
 13  3  2  0  0  0  0
 14  3  1  0  0  0  0
 14 15  2  0  0  0  0
 15  4  1  0  0  0  0
 16  5  2  0  0  0  0
 17 20  1  1  0  0  0
 18 24  1  6  0  0  0
 18 17  1  0  0  0  0
 19 21  1  0  0  0  0
 21  1  1  1  0  0  0
 21 20  1  0  0  0  0
 22 19  1  1  0  0  0
 22 18  1  0  0  0  0
 22 17  1  0  0  0  0
 23 24  1  0  0  0  0
 25 26  1  1  0  0  0
 27 25  1  0  0  0  0
 28 27  1  0  0  0  0
 28 29  2  0  0  0  0
 30 28  1  0  0  0  0
 31 30  1  0  0  0  0
 31 41  1  0  0  0  0
 32 34  1  6  0  0  0
 32 33  1  0  0  0  0
 33 31  1  1  0  0  0
 34 33  1  0  0  0  0
 35 39  1  6  0  0  0
 35 32  1  0  0  0  0
 36 35  1  0  0  0  0
 37 39  1  0  0  0  0
 38 37  1  0  0  0  0
 40 38  1  6  0  0  0
 40 36  1  0  0  0  0
 40 35  1  0  0  0  0
 41 43  1  0  0  0  0
 42 43  1  0  0  0  0
M  END
>  <MODEL>
3

>  <REMARK>
 VINA RESULT:      -7.4      3.133      7.818
  Name = 
  10 active torsions:
  status: ('A' for Active; 'I' for Inactive)
    1  A    between atoms: N_1  and  C_35
    2  A    between atoms: C_2  and  N_6
    3  A    between atoms: C_2  and  C_13
    4  A    between atoms: C_3  and  N_4
    5  A    between atoms: C_3  and  C_12
    6  A    between atoms: N_4  and  C_15
    7  A    between atoms: N_4  and  C_22
    8  A    between atoms: C_11  and  C_14
    9  A    between atoms: C_15  and  C_42
   10  A    between atoms: C_19  and  C_37
                            x       y       z     vdW  Elec       q    Type
                         _______ _______ _______ _____ _____    ______ ____

>  <TORSDO>
F 10

$$$$
=
 OpenBabel11052420563D

 43 50  0  0  1  0  0  0  0  0999 V2000
  190.0450  174.4390  142.4320 N   0  0  0  0  0  2  0  0  0  0  0  0
  184.5520  178.4300  145.6350 C   0  0  0  0  0  0  0  0  0  0  0  0
  188.5560  175.9870  143.7510 C   0  0  0  0  0  0  0  0  0  0  0  0
  190.7430  176.5220  145.4680 C   0  0  2  0  0  3  0  0  0  0  0  0
  186.0750  177.2150  144.1950 C   0  0  0  0  0  0  0  0  0  0  0  0
  185.5090  178.4300  146.6540 C   0  0  0  0  0  3  0  0  0  0  0  0
  183.3200  179.0340  145.8430 O   0  0  0  0  0  1  0  0  0  0  0  0
  187.0500  177.2130  145.2220 C   0  0  0  0  0  0  0  0  0  0  0  0
  184.8340  177.8230  144.4090 C   0  0  0  0  0  3  0  0  0  0  0  0
  186.7510  177.8250  146.4490 C   0  0  0  0  0  3  0  0  0  0  0  0
  189.3370  176.5040  146.0790 C   0  0  0  0  0  2  0  0  0  0  0  0
  188.2970  176.6010  144.9930 C   0  0  0  0  0  0  0  0  0  0  0  0
  187.5800  175.9920  142.7480 C   0  0  0  0  0  3  0  0  0  0  0  0
  189.8660  175.3390  143.5330 C   0  0  0  0  0  0  0  0  0  0  0  0
  190.8400  175.5530  144.3700 N   0  0  0  0  0  0  0  0  0  0  0  0
  186.3460  176.6050  142.9690 C   0  0  0  0  0  3  0  0  0  0  0  0
  191.9100  171.3850  141.7880 C   0  0  2  0  0  3  0  0  0  0  0  0
  191.0930  171.1190  140.5360 C   0  0  1  0  0  3  0  0  0  0  0  0
  191.5330  173.5550  140.7310 C   0  0  0  0  0  2  0  0  0  0  0  0
  191.1330  172.2810  142.7350 C   0  0  0  0  0  2  0  0  0  0  0  0
  191.2760  173.6940  142.2130 C   0  0  2  0  0  3  0  0  0  0  0  0
  192.1660  172.1900  140.5250 C   0  0  1  0  0  3  0  0  0  0  0  0
  192.2440  170.2330  138.6580 O   0  0  0  0  0  1  0  0  0  0  0  0
  191.6220  169.8750  139.8530 C   0  0  0  0  0  2  0  0  0  0  0  0
  191.8020  176.2400  146.5310 C   0  0  1  0  0  3  0  0  0  0  0  0
  191.2120  175.4220  147.6680 C   0  0  0  0  0  1  0  0  0  0  0  0
  192.9120  175.5050  145.9400 N   0  0  0  0  0  2  0  0  0  0  0  0
  194.2750  175.8860  146.1290 C   0  0  0  0  0  0  0  0  0  0  0  0
  194.5690  176.9190  146.7900 O   0  0  0  0  0  0  0  0  0  0  0  0
  195.3560  175.0830  145.4960 C   0  0  0  0  0  2  0  0  0  0  0  0
  194.7750  173.9880  144.7340 N   0  0  0  0  0  0  0  0  0  0  0  0
  194.6700  174.2220  142.3420 C   0  0  2  0  0  3  0  0  0  0  0  0
  195.5370  173.8870  143.4980 C   0  0  2  0  0  3  0  0  0  0  0  0
  194.9710  172.8900  142.6770 O   0  0  0  0  0  0  0  0  0  0  0  0
  195.4940  174.6610  141.1320 C   0  0  1  0  0  0  0  0  0  0  0  0
  195.7210  176.1460  140.9700 C   0  0  0  0  0  2  0  0  0  0  0  0
  195.9990  173.7670  138.9380 C   0  0  0  0  0  2  0  0  0  0  0  0
  195.2530  175.0750  138.7660 C   0  0  0  0  0  2  0  0  0  0  0  0
  196.4370  173.7280  140.3850 C   0  0  0  0  0  2  0  0  0  0  0  0
  194.6740  175.4350  140.1220 C   0  0  1  0  0  3  0  0  0  0  0  0
  195.0240  172.7660  145.4870 C   0  0  0  0  0  2  0  0  0  0  0  0
  196.9990  170.8610  145.6570 S   0  0  0  0  0  1  0  0  0  0  0  0
  196.5100  172.6080  145.7680 C   0  0  0  0  0  2  0  0  0  0  0  0
  1 14  1  0  0  0  0
  2  7  1  0  0  0  0
  2  6  1  0  0  0  0
  3 12  1  0  0  0  0
  4 11  1  0  0  0  0
  4 25  1  1  0  0  0
  5  9  1  0  0  0  0
  5  8  1  0  0  0  0
  8 10  1  0  0  0  0
  9  2  2  0  0  0  0
 10  6  2  0  0  0  0
 12  8  2  0  0  0  0
 12 11  1  0  0  0  0
 13 16  1  0  0  0  0
 13  3  2  0  0  0  0
 14  3  1  0  0  0  0
 14 15  2  0  0  0  0
 15  4  1  0  0  0  0
 16  5  2  0  0  0  0
 17 20  1  1  0  0  0
 18 24  1  6  0  0  0
 18 17  1  0  0  0  0
 19 21  1  0  0  0  0
 21  1  1  6  0  0  0
 21 20  1  0  0  0  0
 22 18  1  0  0  0  0
 22 19  1  1  0  0  0
 22 17  1  0  0  0  0
 23 24  1  0  0  0  0
 25 26  1  1  0  0  0
 27 28  1  0  0  0  0
 27 25  1  0  0  0  0
 28 29  2  0  0  0  0
 30 28  1  0  0  0  0
 31 41  1  0  0  0  0
 31 30  1  0  0  0  0
 32 34  1  6  0  0  0
 32 33  1  0  0  0  0
 33 31  1  1  0  0  0
 34 33  1  0  0  0  0
 35 39  1  6  0  0  0
 35 32  1  0  0  0  0
 36 35  1  0  0  0  0
 37 39  1  0  0  0  0
 38 37  1  0  0  0  0
 40 38  1  6  0  0  0
 40 36  1  0  0  0  0
 40 35  1  0  0  0  0
 41 43  1  0  0  0  0
 42 43  1  0  0  0  0
M  END
>  <MODEL>
4

>  <REMARK>
 VINA RESULT:      -7.4      3.001      7.855
  Name = 
  10 active torsions:
  status: ('A' for Active; 'I' for Inactive)
    1  A    between atoms: N_1  and  C_35
    2  A    between atoms: C_2  and  N_6
    3  A    between atoms: C_2  and  C_13
    4  A    between atoms: C_3  and  N_4
    5  A    between atoms: C_3  and  C_12
    6  A    between atoms: N_4  and  C_15
    7  A    between atoms: N_4  and  C_22
    8  A    between atoms: C_11  and  C_14
    9  A    between atoms: C_15  and  C_42
   10  A    between atoms: C_19  and  C_37
                            x       y       z     vdW  Elec       q    Type
                         _______ _______ _______ _____ _____    ______ ____

>  <TORSDO>
F 10

$$$$
=
 OpenBabel11052420563D

 43 50  0  0  1  0  0  0  0  0999 V2000
  188.2050  175.1570  141.3520 N   0  0  0  0  0  2  0  0  0  0  0  0
  190.7000  170.7830  135.7850 C   0  0  0  0  0  0  0  0  0  0  0  0
  189.1410  173.3780  139.8320 C   0  0  0  0  0  0  0  0  0  0  0  0
  190.2010  172.0790  142.1140 C   0  0  2  0  0  3  0  0  0  0  0  0
  189.5330  172.2930  137.2770 C   0  0  0  0  0  0  0  0  0  0  0  0
  191.4920  170.3380  136.8470 C   0  0  0  0  0  3  0  0  0  0  0  0
  190.8860  170.2550  134.5140 O   0  0  0  0  0  1  0  0  0  0  0  0
  190.3300  171.8450  138.3590 C   0  0  0  0  0  0  0  0  0  0  0  0
  189.7240  171.7600  135.9990 C   0  0  0  0  0  3  0  0  0  0  0  0
  191.3080  170.8660  138.1280 C   0  0  0  0  0  3  0  0  0  0  0  0
  190.9980  172.0010  140.8080 C   0  0  0  0  0  2  0  0  0  0  0  0
  190.1250  172.3870  139.6420 C   0  0  0  0  0  0  0  0  0  0  0  0
  188.3660  173.8150  138.7530 C   0  0  0  0  0  3  0  0  0  0  0  0
  188.9480  173.9440  141.1840 C   0  0  0  0  0  0  0  0  0  0  0  0
  189.4960  173.3620  142.2130 N   0  0  0  0  0  0  0  0  0  0  0  0
  188.5600  173.2730  137.4810 C   0  0  0  0  0  3  0  0  0  0  0  0
  187.3420  178.0000  143.4490 C   0  0  2  0  0  3  0  0  0  0  0  0
  185.9500  178.0560  142.8470 C   0  0  1  0  0  3  0  0  0  0  0  0
  186.6330  175.6850  143.1250 C   0  0  0  0  0  2  0  0  0  0  0  0
  188.2960  177.3080  142.4920 C   0  0  0  0  0  2  0  0  0  0  0  0
  188.0570  175.8210  142.6390 C   0  0  2  0  0  3  0  0  0  0  0  0
  186.2960  176.9750  143.8520 C   0  0  1  0  0  3  0  0  0  0  0  0
  185.9440  179.7480  144.5110 O   0  0  0  0  0  1  0  0  0  0  0  0
  185.1530  179.1420  143.5370 C   0  0  0  0  0  2  0  0  0  0  0  0
  191.1120  171.8710  143.3220 C   0  0  1  0  0  3  0  0  0  0  0  0
  192.0000  170.6540  143.1170 C   0  0  0  0  0  1  0  0  0  0  0  0
  191.9500  173.0460  143.5170 N   0  0  0  0  0  2  0  0  0  0  0  0
  192.9700  173.1070  144.5140 C   0  0  0  0  0  0  0  0  0  0  0  0
  193.1540  172.1430  145.3060 O   0  0  0  0  0  0  0  0  0  0  0  0
  193.7890  174.3410  144.6520 C   0  0  0  0  0  2  0  0  0  0  0  0
  193.0810  175.4700  144.0680 N   0  0  0  0  0  0  0  0  0  0  0  0
  190.8950  176.0450  144.8900 C   0  0  2  0  0  3  0  0  0  0  0  0
  192.3530  176.1140  145.1510 C   0  0  2  0  0  3  0  0  0  0  0  0
  191.6330  177.2160  144.6440 O   0  0  0  0  0  0  0  0  0  0  0  0
  190.0870  176.1920  146.1790 C   0  0  1  0  0  0  0  0  0  0  0  0
  190.0780  175.0020  147.1110 C   0  0  0  0  0  2  0  0  0  0  0  0
  188.1950  177.5100  146.9220 C   0  0  0  0  0  2  0  0  0  0  0  0
  187.8140  176.0440  146.9790 C   0  0  0  0  0  2  0  0  0  0  0  0
  189.7000  177.5400  146.7690 C   0  0  0  0  0  2  0  0  0  0  0  0
  188.8790  175.2810  146.2130 C   0  0  1  0  0  3  0  0  0  0  0  0
  194.0910  176.4170  143.6130 C   0  0  0  0  0  2  0  0  0  0  0  0
  196.0370  175.8050  141.7710 S   0  0  0  0  0  1  0  0  0  0  0  0
  195.4430  175.7330  143.4870 C   0  0  0  0  0  2  0  0  0  0  0  0
  2  9  2  0  0  0  0
  2  6  1  0  0  0  0
  3 14  1  0  0  0  0
  4 15  1  0  0  0  0
  4 25  1  1  0  0  0
  5 16  2  0  0  0  0
  5  8  1  0  0  0  0
  6 10  2  0  0  0  0
  7  2  1  0  0  0  0
  8 12  2  0  0  0  0
  9  5  1  0  0  0  0
 10  8  1  0  0  0  0
 11  4  1  0  0  0  0
 12  3  1  0  0  0  0
 12 11  1  0  0  0  0
 13  3  2  0  0  0  0
 14  1  1  0  0  0  0
 14 15  2  0  0  0  0
 16 13  1  0  0  0  0
 17 20  1  6  0  0  0
 17 22  1  0  0  0  0
 18 17  1  0  0  0  0
 18 24  1  1  0  0  0
 18 22  1  0  0  0  0
 20 21  1  0  0  0  0
 21  1  1  6  0  0  0
 21 19  1  0  0  0  0
 22 19  1  6  0  0  0
 24 23  1  0  0  0  0
 25 26  1  6  0  0  0
 25 27  1  0  0  0  0
 27 28  1  0  0  0  0
 28 30  1  0  0  0  0
 28 29  2  0  0  0  0
 31 30  1  0  0  0  0
 32 34  1  6  0  0  0
 32 33  1  0  0  0  0
 32 35  1  0  0  0  0
 33 31  1  6  0  0  0
 34 33  1  0  0  0  0
 35 40  1  0  0  0  0
 35 39  1  1  0  0  0
 35 36  1  0  0  0  0
 37 38  1  0  0  0  0
 39 37  1  0  0  0  0
 40 38  1  1  0  0  0
 40 36  1  0  0  0  0
 41 31  1  0  0  0  0
 42 43  1  0  0  0  0
 43 41  1  0  0  0  0
M  END
>  <MODEL>
5

>  <REMARK>
 VINA RESULT:      -7.3      2.722      6.973
  Name = 
  10 active torsions:
  status: ('A' for Active; 'I' for Inactive)
    1  A    between atoms: N_1  and  C_35
    2  A    between atoms: C_2  and  N_6
    3  A    between atoms: C_2  and  C_13
    4  A    between atoms: C_3  and  N_4
    5  A    between atoms: C_3  and  C_12
    6  A    between atoms: N_4  and  C_15
    7  A    between atoms: N_4  and  C_22
    8  A    between atoms: C_11  and  C_14
    9  A    between atoms: C_15  and  C_42
   10  A    between atoms: C_19  and  C_37
                            x       y       z     vdW  Elec       q    Type
                         _______ _______ _______ _____ _____    ______ ____

>  <TORSDO>
F 10

$$$$
=
 OpenBabel11052420563D

 43 50  0  0  1  0  0  0  0  0999 V2000
  189.5260  174.5300  141.7490 N   0  0  0  0  0  2  0  0  0  0  0  0
  185.0760  178.1090  146.6210 C   0  0  0  0  0  0  0  0  0  0  0  0
  188.4330  175.9550  143.5170 C   0  0  0  0  0  0  0  0  0  0  0  0
  191.0090  176.5810  144.5130 C   0  0  2  0  0  3  0  0  0  0  0  0
  186.1470  177.0210  144.7400 C   0  0  0  0  0  0  0  0  0  0  0  0
  186.2960  178.1430  147.3020 C   0  0  0  0  0  3  0  0  0  0  0  0
  183.9360  178.6320  147.2160 O   0  0  0  0  0  1  0  0  0  0  0  0
  187.3870  177.0540  145.4230 C   0  0  0  0  0  0  0  0  0  0  0  0
  185.0010  177.5480  145.3430 C   0  0  0  0  0  3  0  0  0  0  0  0
  187.4450  177.6180  146.7060 C   0  0  0  0  0  3  0  0  0  0  0  0
  189.8590  176.4640  145.5190 C   0  0  0  0  0  2  0  0  0  0  0  0
  188.5340  176.5240  144.8030 C   0  0  0  0  0  0  0  0  0  0  0  0
  187.2000  175.9240  142.8570 C   0  0  0  0  0  3  0  0  0  0  0  0
  189.6460  175.3930  142.8870 C   0  0  0  0  0  0  0  0  0  0  0  0
  190.8170  175.6450  143.3980 N   0  0  0  0  0  0  0  0  0  0  0  0
  186.0620  176.4570  143.4660 C   0  0  0  0  0  3  0  0  0  0  0  0
  191.9090  171.7990  141.4580 C   0  0  2  0  0  3  0  0  0  0  0  0
  190.7800  170.7940  141.3130 C   0  0  1  0  0  3  0  0  0  0  0  0
  190.1910  172.8790  140.0990 C   0  0  0  0  0  2  0  0  0  0  0  0
  191.4090  173.0430  142.1700 C   0  0  0  0  0  2  0  0  0  0  0  0
  190.6680  173.8660  141.1380 C   0  0  2  0  0  3  0  0  0  0  0  0
  191.1430  171.6970  140.1500 C   0  0  1  0  0  3  0  0  0  0  0  0
  190.4670  168.4510  141.5230 O   0  0  0  0  0  1  0  0  0  0  0  0
  191.3660  169.4180  141.0780 C   0  0  0  0  0  2  0  0  0  0  0  0
  192.3550  176.3390  145.1930 C   0  0  1  0  0  3  0  0  0  0  0  0
  192.2450  175.2090  146.2040 C   0  0  0  0  0  1  0  0  0  0  0  0
  193.3580  175.9910  144.1950 N   0  0  0  0  0  2  0  0  0  0  0  0
  194.7300  176.3660  144.3210 C   0  0  0  0  0  0  0  0  0  0  0  0
  195.1200  177.0630  145.2970 O   0  0  0  0  0  0  0  0  0  0  0  0
  195.6980  175.9720  143.2620 C   0  0  0  0  0  2  0  0  0  0  0  0
  196.8100  175.2460  143.8570 N   0  0  0  0  0  0  0  0  0  0  0  0
  196.7900  173.2670  145.2260 C   0  0  2  0  0  3  0  0  0  0  0  0
  196.4150  173.8460  143.9130 C   0  0  2  0  0  3  0  0  0  0  0  0
  197.5610  173.0400  144.0720 O   0  0  0  0  0  0  0  0  0  0  0  0
  195.9540  172.0310  145.5540 C   0  0  1  0  0  0  0  0  0  0  0  0
  196.6910  170.8550  146.1530 C   0  0  0  0  0  2  0  0  0  0  0  0
  193.8770  171.0620  144.7720 C   0  0  0  0  0  2  0  0  0  0  0  0
  195.0020  170.0880  144.4830 C   0  0  0  0  0  2  0  0  0  0  0  0
  194.4450  172.0740  145.7410 C   0  0  0  0  0  2  0  0  0  0  0  0
  196.3030  170.8470  144.6800 C   0  0  1  0  0  3  0  0  0  0  0  0
  197.9250  175.3360  142.9240 C   0  0  0  0  0  2  0  0  0  0  0  0
  197.9120  174.3920  140.3430 S   0  0  0  0  0  1  0  0  0  0  0  0
  197.4250  175.6790  141.5300 C   0  0  0  0  0  2  0  0  0  0  0  0
  1 14  1  0  0  0  0
  2  7  1  0  0  0  0
  2  6  1  0  0  0  0
  3 12  1  0  0  0  0
  4 25  1  1  0  0  0
  4 11  1  0  0  0  0
  5  9  1  0  0  0  0
  5  8  1  0  0  0  0
  8 10  1  0  0  0  0
  9  2  2  0  0  0  0
 10  6  2  0  0  0  0
 12  8  2  0  0  0  0
 12 11  1  0  0  0  0
 13 16  1  0  0  0  0
 13  3  2  0  0  0  0
 14 15  2  0  0  0  0
 14  3  1  0  0  0  0
 15  4  1  0  0  0  0
 16  5  2  0  0  0  0
 17 20  1  1  0  0  0
 18 24  1  6  0  0  0
 18 17  1  0  0  0  0
 19 21  1  0  0  0  0
 21  1  1  1  0  0  0
 21 20  1  0  0  0  0
 22 19  1  1  0  0  0
 22 18  1  0  0  0  0
 22 17  1  0  0  0  0
 24 23  1  0  0  0  0
 25 26  1  1  0  0  0
 27 28  1  0  0  0  0
 27 25  1  0  0  0  0
 28 29  2  0  0  0  0
 30 31  1  0  0  0  0
 30 28  1  0  0  0  0
 32 34  1  6  0  0  0
 32 35  1  0  0  0  0
 33 31  1  1  0  0  0
 33 34  1  0  0  0  0
 33 32  1  0  0  0  0
 35 39  1  1  0  0  0
 35 36  1  0  0  0  0
 37 39  1  0  0  0  0
 38 37  1  0  0  0  0
 40 38  1  1  0  0  0
 40 35  1  0  0  0  0
 40 36  1  0  0  0  0
 41 31  1  0  0  0  0
 42 43  1  0  0  0  0
 43 41  1  0  0  0  0
M  END
>  <MODEL>
6

>  <REMARK>
 VINA RESULT:      -7.2      2.776      7.563
  Name = 
  10 active torsions:
  status: ('A' for Active; 'I' for Inactive)
    1  A    between atoms: N_1  and  C_35
    2  A    between atoms: C_2  and  N_6
    3  A    between atoms: C_2  and  C_13
    4  A    between atoms: C_3  and  N_4
    5  A    between atoms: C_3  and  C_12
    6  A    between atoms: N_4  and  C_15
    7  A    between atoms: N_4  and  C_22
    8  A    between atoms: C_11  and  C_14
    9  A    between atoms: C_15  and  C_42
   10  A    between atoms: C_19  and  C_37
                            x       y       z     vdW  Elec       q    Type
                         _______ _______ _______ _____ _____    ______ ____

>  <TORSDO>
F 10

$$$$
=
 OpenBabel11052420563D

 43 50  0  0  1  0  0  0  0  0999 V2000
  188.1920  176.1480  143.8010 N   0  0  0  0  0  2  0  0  0  0  0  0
  191.7050  170.6050  140.1560 C   0  0  0  0  0  0  0  0  0  0  0  0
  189.6100  174.2310  142.9870 C   0  0  0  0  0  0  0  0  0  0  0  0
  191.2780  174.5910  145.2470 C   0  0  2  0  0  3  0  0  0  0  0  0
  190.1750  172.2180  141.1190 C   0  0  0  0  0  0  0  0  0  0  0  0
  192.6930  170.9930  141.0650 C   0  0  0  0  0  3  0  0  0  0  0  0
  191.9720  169.6100  139.2250 O   0  0  0  0  0  1  0  0  0  0  0  0
  191.1700  172.6150  142.0440 C   0  0  0  0  0  0  0  0  0  0  0  0
  190.4490  171.2170  140.1820 C   0  0  0  0  0  3  0  0  0  0  0  0
  192.4280  171.9920  142.0040 C   0  0  0  0  0  3  0  0  0  0  0  0
  191.9300  174.1320  143.9380 C   0  0  0  0  0  2  0  0  0  0  0  0
  190.8810  173.6210  142.9850 C   0  0  0  0  0  0  0  0  0  0  0  0
  188.6390  173.8330  142.0620 C   0  0  0  0  0  3  0  0  0  0  0  0
  189.3290  175.2940  143.9740 C   0  0  0  0  0  0  0  0  0  0  0  0
  190.1420  175.4800  144.9740 N   0  0  0  0  0  0  0  0  0  0  0  0
  188.9200  172.8290  141.1340 C   0  0  0  0  0  3  0  0  0  0  0  0
  186.0980  178.8650  145.0100 C   0  0  2  0  0  3  0  0  0  0  0  0
  184.9520  177.9030  145.2650 C   0  0  1  0  0  3  0  0  0  0  0  0
  187.0970  176.8060  145.8650 C   0  0  0  0  0  2  0  0  0  0  0  0
  187.0390  178.2880  143.9680 C   0  0  0  0  0  2  0  0  0  0  0  0
  187.9080  177.2730  144.6790 C   0  0  2  0  0  3  0  0  0  0  0  0
  186.1380  177.9320  146.2090 C   0  0  1  0  0  3  0  0  0  0  0  0
  184.0710  178.8890  147.2370 O   0  0  0  0  0  1  0  0  0  0  0  0
  183.7980  178.6590  145.8900 C   0  0  0  0  0  2  0  0  0  0  0  0
  192.2960  175.2800  146.1520 C   0  0  1  0  0  3  0  0  0  0  0  0
  191.7980  175.3120  147.5880 C   0  0  0  0  0  1  0  0  0  0  0  0
  193.5650  174.5660  146.1020 N   0  0  0  0  0  2  0  0  0  0  0  0
  194.8230  175.2370  146.0310 C   0  0  0  0  0  0  0  0  0  0  0  0
  194.8790  176.4950  145.9630 O   0  0  0  0  0  0  0  0  0  0  0  0
  196.0780  174.4400  145.9870 C   0  0  0  0  0  2  0  0  0  0  0  0
  196.0080  173.4690  144.9050 N   0  0  0  0  0  0  0  0  0  0  0  0
  195.3830  173.8900  142.6200 C   0  0  2  0  0  3  0  0  0  0  0  0
  196.3750  174.1740  143.6860 C   0  0  2  0  0  3  0  0  0  0  0  0
  196.6300  173.2400  142.6600 O   0  0  0  0  0  0  0  0  0  0  0  0
  195.3890  174.9760  141.5440 C   0  0  1  0  0  0  0  0  0  0  0  0
  194.1900  175.8940  141.5030 C   0  0  0  0  0  2  0  0  0  0  0  0
  196.4180  175.2870  139.3730 C   0  0  0  0  0  2  0  0  0  0  0  0
  194.9120  175.2740  139.1960 C   0  0  0  0  0  2  0  0  0  0  0  0
  196.6580  175.4590  140.8570 C   0  0  0  0  0  2  0  0  0  0  0  0
  194.3200  174.7590  140.4960 C   0  0  1  0  0  3  0  0  0  0  0  0
  197.0480  172.4790  145.1520 C   0  0  0  0  0  2  0  0  0  0  0  0
  194.7800  170.9320  145.2940 S   0  0  0  0  0  1  0  0  0  0  0  0
  196.4700  171.2700  145.8710 C   0  0  0  0  0  2  0  0  0  0  0  0
  1 14  1  0  0  0  0
  2  9  2  0  0  0  0
  2  6  1  0  0  0  0
  3 14  1  0  0  0  0
  4 25  1  1  0  0  0
  5 16  2  0  0  0  0
  5  8  1  0  0  0  0
  6 10  2  0  0  0  0
  7  2  1  0  0  0  0
  8 12  2  0  0  0  0
  9  5  1  0  0  0  0
 10  8  1  0  0  0  0
 11  4  1  0  0  0  0
 12  3  1  0  0  0  0
 12 11  1  0  0  0  0
 13  3  2  0  0  0  0
 14 15  2  0  0  0  0
 15  4  1  0  0  0  0
 16 13  1  0  0  0  0
 17 20  1  6  0  0  0
 17 18  1  0  0  0  0
 17 22  1  0  0  0  0
 18 24  1  1  0  0  0
 18 22  1  0  0  0  0
 20 21  1  0  0  0  0
 21  1  1  6  0  0  0
 21 19  1  0  0  0  0
 22 19  1  6  0  0  0
 24 23  1  0  0  0  0
 25 26  1  1  0  0  0
 27 25  1  0  0  0  0
 28 27  1  0  0  0  0
 29 28  2  0  0  0  0
 30 28  1  0  0  0  0
 31 41  1  0  0  0  0
 31 30  1  0  0  0  0
 32 34  1  6  0  0  0
 32 33  1  0  0  0  0
 33 31  1  1  0  0  0
 34 33  1  0  0  0  0
 35 39  1  6  0  0  0
 35 32  1  0  0  0  0
 36 35  1  0  0  0  0
 37 39  1  0  0  0  0
 38 37  1  0  0  0  0
 40 38  1  6  0  0  0
 40 36  1  0  0  0  0
 40 35  1  0  0  0  0
 41 43  1  0  0  0  0
 42 43  1  0  0  0  0
M  END
>  <MODEL>
7

>  <REMARK>
 VINA RESULT:      -7.2      2.916      6.038
  Name = 
  10 active torsions:
  status: ('A' for Active; 'I' for Inactive)
    1  A    between atoms: N_1  and  C_35
    2  A    between atoms: C_2  and  N_6
    3  A    between atoms: C_2  and  C_13
    4  A    between atoms: C_3  and  N_4
    5  A    between atoms: C_3  and  C_12
    6  A    between atoms: N_4  and  C_15
    7  A    between atoms: N_4  and  C_22
    8  A    between atoms: C_11  and  C_14
    9  A    between atoms: C_15  and  C_42
   10  A    between atoms: C_19  and  C_37
                            x       y       z     vdW  Elec       q    Type
                         _______ _______ _______ _____ _____    ______ ____

>  <TORSDO>
F 10

$$$$
=
 OpenBabel11052420563D

 43 50  0  0  1  0  0  0  0  0999 V2000
  192.3610  175.9910  144.9390 N   0  0  0  0  0  2  0  0  0  0  0  0
  185.3660  178.0130  146.7640 C   0  0  0  0  0  0  0  0  0  0  0  0
  189.8860  176.2780  145.3110 C   0  0  0  0  0  0  0  0  0  0  0  0
  189.4250  174.3320  143.3050 C   0  0  2  0  0  3  0  0  0  0  0  0
  187.7280  177.4880  146.6290 C   0  0  0  0  0  0  0  0  0  0  0  0
  185.1400  177.3230  145.5700 C   0  0  0  0  0  3  0  0  0  0  0  0
  184.3060  178.6180  147.4260 O   0  0  0  0  0  1  0  0  0  0  0  0
  187.5050  176.7850  145.4210 C   0  0  0  0  0  0  0  0  0  0  0  0
  186.6580  178.0970  147.2920 C   0  0  0  0  0  3  0  0  0  0  0  0
  186.2030  176.7120  144.9020 C   0  0  0  0  0  3  0  0  0  0  0  0
  188.4190  175.4800  143.4380 C   0  0  0  0  0  2  0  0  0  0  0  0
  188.5900  176.1730  144.7650 C   0  0  0  0  0  0  0  0  0  0  0  0
  190.0900  176.9810  146.5030 C   0  0  0  0  0  3  0  0  0  0  0  0
  191.0140  175.6380  144.6030 C   0  0  0  0  0  0  0  0  0  0  0  0
  190.7780  174.7910  143.6430 N   0  0  0  0  0  0  0  0  0  0  0  0
  189.0150  177.5810  147.1600 C   0  0  0  0  0  3  0  0  0  0  0  0
  195.8880  175.1510  144.6510 C   0  0  2  0  0  3  0  0  0  0  0  0
  195.8080  174.2790  145.8910 C   0  0  1  0  0  3  0  0  0  0  0  0
  193.7250  174.0180  144.5640 C   0  0  0  0  0  2  0  0  0  0  0  0
  194.7750  176.1830  144.6700 C   0  0  0  0  0  2  0  0  0  0  0  0
  193.5160  175.4740  144.2190 C   0  0  2  0  0  3  0  0  0  0  0  0
  195.2260  173.7860  144.5810 C   0  0  1  0  0  3  0  0  0  0  0  0
  196.9790  172.2370  146.2010 O   0  0  0  0  0  1  0  0  0  0  0  0
  197.1510  173.6180  146.1200 C   0  0  0  0  0  2  0  0  0  0  0  0
  189.3930  173.7380  141.8990 C   0  0  1  0  0  3  0  0  0  0  0  0
  188.7090  174.6910  140.9330 C   0  0  0  0  0  1  0  0  0  0  0  0
  190.7510  173.4830  141.4380 N   0  0  0  0  0  2  0  0  0  0  0  0
  191.2350  172.1700  141.1590 C   0  0  0  0  0  0  0  0  0  0  0  0
  190.5030  171.1600  141.3480 O   0  0  0  0  0  0  0  0  0  0  0  0
  192.6350  171.9880  140.6880 C   0  0  0  0  0  2  0  0  0  0  0  0
  192.8390  172.7300  139.4520 N   0  0  0  0  0  0  0  0  0  0  0  0
  194.2770  174.4930  140.2330 C   0  0  2  0  0  3  0  0  0  0  0  0
  194.2090  173.2180  139.4790 C   0  0  2  0  0  3  0  0  0  0  0  0
  194.2760  174.4670  138.8270 O   0  0  0  0  0  0  0  0  0  0  0  0
  195.6870  174.7620  140.7550 C   0  0  1  0  0  0  0  0  0  0  0  0
  196.0050  176.1880  141.1430 C   0  0  0  0  0  2  0  0  0  0  0  0
  197.8700  173.7390  140.5180 C   0  0  0  0  0  2  0  0  0  0  0  0
  197.9310  175.1430  139.9500 C   0  0  0  0  0  2  0  0  0  0  0  0
  196.5880  173.6730  141.3180 C   0  0  0  0  0  2  0  0  0  0  0  0
  196.4980  175.6270  139.8160 C   0  0  1  0  0  3  0  0  0  0  0  0
  192.7510  171.7700  138.3600 C   0  0  0  0  0  2  0  0  0  0  0  0
  190.8700  173.6660  137.7110 S   0  0  0  0  0  1  0  0  0  0  0  0
  192.0410  172.3880  137.1650 C   0  0  0  0  0  2  0  0  0  0  0  0
  2  9  1  0  0  0  0
  2  7  1  0  0  0  0
  3 13  1  0  0  0  0
  4 25  1  6  0  0  0
  4 11  1  0  0  0  0
  4 15  1  0  0  0  0
  5 16  1  0  0  0  0
  5  9  2  0  0  0  0
  6  2  2  0  0  0  0
  8  5  1  0  0  0  0
 10  8  2  0  0  0  0
 10  6  1  0  0  0  0
 11 12  1  0  0  0  0
 12  3  2  0  0  0  0
 12  8  1  0  0  0  0
 13 16  2  0  0  0  0
 14  1  1  0  0  0  0
 14  3  1  0  0  0  0
 15 14  2  0  0  0  0
 17 20  1  1  0  0  0
 17 18  1  0  0  0  0
 18 24  1  6  0  0  0
 21 19  1  0  0  0  0
 21 20  1  0  0  0  0
 21  1  1  1  0  0  0
 22 19  1  1  0  0  0
 22 17  1  0  0  0  0
 22 18  1  0  0  0  0
 24 23  1  0  0  0  0
 25 26  1  6  0  0  0
 27 25  1  0  0  0  0
 28 29  2  0  0  0  0
 28 27  1  0  0  0  0
 30 28  1  0  0  0  0
 31 30  1  0  0  0  0
 32 34  1  6  0  0  0
 32 35  1  0  0  0  0
 33 31  1  6  0  0  0
 33 32  1  0  0  0  0
 34 33  1  0  0  0  0
 35 36  1  1  0  0  0
 35 39  1  0  0  0  0
 37 39  1  0  0  0  0
 38 37  1  0  0  0  0
 40 38  1  1  0  0  0
 40 35  1  0  0  0  0
 40 36  1  0  0  0  0
 41 31  1  0  0  0  0
 43 42  1  0  0  0  0
 43 41  1  0  0  0  0
M  END
>  <MODEL>
8

>  <REMARK>
 VINA RESULT:      -7.1      2.526      6.937
  Name = 
  10 active torsions:
  status: ('A' for Active; 'I' for Inactive)
    1  A    between atoms: N_1  and  C_35
    2  A    between atoms: C_2  and  N_6
    3  A    between atoms: C_2  and  C_13
    4  A    between atoms: C_3  and  N_4
    5  A    between atoms: C_3  and  C_12
    6  A    between atoms: N_4  and  C_15
    7  A    between atoms: N_4  and  C_22
    8  A    between atoms: C_11  and  C_14
    9  A    between atoms: C_15  and  C_42
   10  A    between atoms: C_19  and  C_37
                            x       y       z     vdW  Elec       q    Type
                         _______ _______ _______ _____ _____    ______ ____

>  <TORSDO>
F 10

$$$$
=
 OpenBabel11052420563D

 43 50  0  0  1  0  0  0  0  0999 V2000
  189.1510  176.8440  143.3010 N   0  0  0  0  0  2  0  0  0  0  0  0
  195.6410  174.0140  145.7940 C   0  0  0  0  0  0  0  0  0  0  0  0
  191.2750  175.5780  143.7840 C   0  0  0  0  0  0  0  0  0  0  0  0
  190.3480  173.5070  142.0900 C   0  0  2  0  0  3  0  0  0  0  0  0
  193.7600  175.3540  145.0630 C   0  0  0  0  0  0  0  0  0  0  0  0
  195.0480  172.8740  145.2440 C   0  0  0  0  0  3  0  0  0  0  0  0
  196.8710  173.9160  146.4310 O   0  0  0  0  0  1  0  0  0  0  0  0
  193.1550  174.2040  144.5010 C   0  0  0  0  0  0  0  0  0  0  0  0
  194.9980  175.2510  145.7050 C   0  0  0  0  0  3  0  0  0  0  0  0
  193.8120  172.9680  144.6010 C   0  0  0  0  0  3  0  0  0  0  0  0
  191.1890  173.1150  143.3110 C   0  0  0  0  0  2  0  0  0  0  0  0
  191.9100  174.3220  143.8550 C   0  0  0  0  0  0  0  0  0  0  0  0
  191.8830  176.7040  144.3490 C   0  0  0  0  0  3  0  0  0  0  0  0
  189.9640  175.6800  143.1110 C   0  0  0  0  0  0  0  0  0  0  0  0
  189.5310  174.6900  142.3850 N   0  0  0  0  0  0  0  0  0  0  0  0
  193.1220  176.5930  144.9830 C   0  0  0  0  0  3  0  0  0  0  0  0
  185.5460  177.2230  143.6010 C   0  0  2  0  0  3  0  0  0  0  0  0
  185.7210  178.4840  144.4290 C   0  0  1  0  0  3  0  0  0  0  0  0
  187.4380  178.4310  142.6360 C   0  0  0  0  0  2  0  0  0  0  0  0
  186.7940  176.3640  143.6920 C   0  0  0  0  0  2  0  0  0  0  0  0
  187.8100  176.9710  142.7480 C   0  0  2  0  0  3  0  0  0  0  0  0
  185.9520  178.5250  142.9310 C   0  0  1  0  0  3  0  0  0  0  0  0
  184.0500  178.8300  146.0800 O   0  0  0  0  0  1  0  0  0  0  0  0
  184.3590  179.0660  144.7410 C   0  0  0  0  0  2  0  0  0  0  0  0
  189.4690  172.3430  141.6380 C   0  0  1  0  0  3  0  0  0  0  0  0
  187.9990  172.6950  141.7910 C   0  0  0  0  0  1  0  0  0  0  0  0
  189.7430  172.0310  140.2410 N   0  0  0  0  0  2  0  0  0  0  0  0
  190.6800  171.0290  139.8460 C   0  0  0  0  0  0  0  0  0  0  0  0
  191.3490  170.3980  140.7090 O   0  0  0  0  0  0  0  0  0  0  0  0
  190.9030  170.7630  138.4000 C   0  0  0  0  0  2  0  0  0  0  0  0
  191.2220  172.0060  137.7140 N   0  0  0  0  0  0  0  0  0  0  0  0
  192.7280  173.6220  138.6670 C   0  0  2  0  0  3  0  0  0  0  0  0
  192.6170  172.2990  138.0050 C   0  0  2  0  0  3  0  0  0  0  0  0
  193.0120  173.4550  137.3000 O   0  0  0  0  0  0  0  0  0  0  0  0
  194.0250  173.7430  139.4650 C   0  0  1  0  0  0  0  0  0  0  0  0
  194.0800  173.0080  140.7850 C   0  0  0  0  0  2  0  0  0  0  0  0
  195.8410  175.3390  139.6280 C   0  0  0  0  0  2  0  0  0  0  0  0
  195.1500  175.2550  140.9750 C   0  0  0  0  0  2  0  0  0  0  0  0
  195.3530  174.1450  138.8380 C   0  0  0  0  0  2  0  0  0  0  0  0
  193.8440  174.5130  140.7550 C   0  0  1  0  0  3  0  0  0  0  0  0
  191.1340  171.7390  136.2840 C   0  0  0  0  0  2  0  0  0  0  0  0
  189.2650  173.7150  136.6830 S   0  0  0  0  0  1  0  0  0  0  0  0
  189.8270  172.2780  135.7230 C   0  0  0  0  0  2  0  0  0  0  0  0
  2  7  1  0  0  0  0
  3 12  2  0  0  0  0
  3 13  1  0  0  0  0
  4 25  1  1  0  0  0
  4 15  1  0  0  0  0
  4 11  1  0  0  0  0
  5  9  2  0  0  0  0
  6  2  2  0  0  0  0
  8 10  2  0  0  0  0
  8  5  1  0  0  0  0
  9  2  1  0  0  0  0
 10  6  1  0  0  0  0
 11 12  1  0  0  0  0
 12  8  1  0  0  0  0
 13 16  2  0  0  0  0
 14  1  1  0  0  0  0
 14  3  1  0  0  0  0
 15 14  2  0  0  0  0
 16  5  1  0  0  0  0
 17 20  1  1  0  0  0
 17 18  1  0  0  0  0
 18 24  1  6  0  0  0
 19 21  1  0  0  0  0
 21  1  1  1  0  0  0
 21 20  1  0  0  0  0
 22 19  1  1  0  0  0
 22 17  1  0  0  0  0
 22 18  1  0  0  0  0
 24 23  1  0  0  0  0
 25 26  1  6  0  0  0
 27 25  1  0  0  0  0
 28 27  1  0  0  0  0
 28 29  2  0  0  0  0
 30 28  1  0  0  0  0
 31 30  1  0  0  0  0
 32 34  1  6  0  0  0
 32 35  1  0  0  0  0
 33 31  1  6  0  0  0
 33 32  1  0  0  0  0
 34 33  1  0  0  0  0
 35 39  1  6  0  0  0
 35 40  1  0  0  0  0
 35 36  1  0  0  0  0
 37 38  1  0  0  0  0
 39 37  1  0  0  0  0
 40 36  1  1  0  0  0
 40 38  1  0  0  0  0
 41 31  1  0  0  0  0
 43 41  1  0  0  0  0
 43 42  1  0  0  0  0
M  END
>  <MODEL>
9

>  <REMARK>
 VINA RESULT:      -7.0      2.293      3.898
  Name = 
  10 active torsions:
  status: ('A' for Active; 'I' for Inactive)
    1  A    between atoms: N_1  and  C_35
    2  A    between atoms: C_2  and  N_6
    3  A    between atoms: C_2  and  C_13
    4  A    between atoms: C_3  and  N_4
    5  A    between atoms: C_3  and  C_12
    6  A    between atoms: N_4  and  C_15
    7  A    between atoms: N_4  and  C_22
    8  A    between atoms: C_11  and  C_14
    9  A    between atoms: C_15  and  C_42
   10  A    between atoms: C_19  and  C_37
                            x       y       z     vdW  Elec       q    Type
                         _______ _______ _______ _____ _____    ______ ____

>  <TORSDO>
F 10

$$$$
