=
 OpenBabel11052417353D

 25 28  0  0  0  0  0  0  0  0999 V2000
  186.3500  177.0500  143.3670 N   0  0  0  0  0  0  0  0  0  0  0  0
  187.3950  176.2290  143.0550 C   0  0  0  0  0  0  0  0  0  0  0  0
  185.9180  177.5700  141.0940 C   0  0  0  0  0  3  0  0  0  0  0  0
  185.7990  177.4120  144.5380 C   0  0  0  0  0  0  0  0  0  0  0  0
  189.3810  175.1480  144.1110 C   0  0  0  0  0  0  0  0  0  0  0  0
  184.3190  178.4750  146.6220 C   0  0  0  0  0  3  0  0  0  0  0  0
  186.9410  176.7420  140.7480 N   0  0  0  0  0  0  0  0  0  0  0  0
  184.7690  178.2800  144.2780 C   0  0  0  0  0  0  0  0  0  0  0  0
  184.0010  178.8350  145.2980 C   0  0  0  0  0  3  0  0  0  0  0  0
  188.7240  175.1280  141.1540 C   0  0  0  0  0  0  0  0  0  0  0  0
  188.4870  174.4790  139.9090 N   0  0  0  0  0  1  0  0  0  0  0  0
  188.0960  175.4950  144.1340 C   0  0  0  0  0  3  0  0  0  0  0  0
  185.3820  177.5830  146.8890 C   0  0  0  0  0  3  0  0  0  0  0  0
  185.6280  177.7170  142.4400 C   0  0  0  0  0  0  0  0  0  0  0  0
  184.6370  178.4910  142.9510 N   0  0  0  0  0  0  0  0  0  0  0  0
  189.8550  174.9090  141.7580 N   0  0  0  0  0  0  0  0  0  0  0  0
  186.1410  177.0370  145.8380 C   0  0  0  0  0  3  0  0  0  0  0  0
  190.2720  175.5590  142.9900 C   0  0  0  0  0  2  0  0  0  0  0  0
  187.6980  176.0690  141.6710 C   0  0  0  0  0  0  0  0  0  0  0  0
  189.9470  174.3570  145.2430 C   0  0  0  0  0  2  0  0  0  0  0  0
  189.0360  174.5480  147.4930 C   0  0  0  0  0  2  0  0  0  0  0  0
  189.7850  175.0880  146.5390 C   0  0  0  0  0  0  0  0  0  0  0  0
  190.4940  176.3560  146.7800 C   0  0  0  0  0  0  0  0  0  0  0  0
  189.7840  177.5210  147.0450 O   0  0  0  0  0  1  0  0  0  0  0  0
  191.7520  176.3960  146.7430 O   0  0  0  0  0  0  0  0  0  0  0  0
  1  4  1  0  0  0  0
  2  1  1  0  0  0  0
  2 12  1  0  0  0  0
  3 14  1  0  0  0  0
  4 17  1  0  0  0  0
  5 12  2  0  0  0  0
  5 20  1  0  0  0  0
  6 13  1  0  0  0  0
  7  3  2  0  0  0  0
  7 19  1  0  0  0  0
  8  4  2  0  0  0  0
  8  9  1  0  0  0  0
  9  6  2  0  0  0  0
 10 19  1  0  0  0  0
 10 16  2  0  0  0  0
 11 10  1  0  0  0  0
 14 15  2  0  0  0  0
 14  1  1  0  0  0  0
 15  8  1  0  0  0  0
 16 18  1  0  0  0  0
 17 13  2  0  0  0  0
 18  5  1  0  0  0  0
 19  2  2  0  0  0  0
 20 22  1  0  0  0  0
 22 23  1  0  0  0  0
 22 21  2  0  0  0  0
 23 24  1  0  0  0  0
 25 23  2  0  0  0  0
M  END
>  <MODEL>
1

>  <REMARK>
 VINA RESULT:      -7.9      0.000      0.000
  Name = 
  3 active torsions:
  status: ('A' for Active; 'I' for Inactive)
    1  A    between atoms: C_2  and  C_25
    2  A    between atoms: C_6  and  C_15
    3  A    between atoms: C_15  and  C_25
                            x       y       z     vdW  Elec       q    Type
                         _______ _______ _______ _____ _____    ______ ____

>  <TORSDO>
F 3

$$$$
=
 OpenBabel11052417353D

 25 28  0  0  0  0  0  0  0  0999 V2000
  189.0500  176.1110  143.7450 N   0  0  0  0  0  0  0  0  0  0  0  0
  188.0010  176.8160  143.2320 C   0  0  0  0  0  0  0  0  0  0  0  0
  189.3030  174.8140  141.7760 C   0  0  0  0  0  3  0  0  0  0  0  0
  189.6810  176.1560  144.9320 C   0  0  0  0  0  0  0  0  0  0  0  0
  186.1190  178.2830  143.9650 C   0  0  0  0  0  0  0  0  0  0  0  0
  191.2910  175.8220  147.1580 C   0  0  0  0  0  3  0  0  0  0  0  0
  188.2730  175.5130  141.2270 N   0  0  0  0  0  0  0  0  0  0  0  0
  190.6720  175.2080  144.9280 C   0  0  0  0  0  0  0  0  0  0  0  0
  191.5030  175.0100  146.0270 C   0  0  0  0  0  3  0  0  0  0  0  0
  186.5550  177.2440  141.1530 C   0  0  0  0  0  0  0  0  0  0  0  0
  186.7110  177.4070  139.7470 N   0  0  0  0  0  1  0  0  0  0  0  0
  187.3960  177.9100  144.0270 C   0  0  0  0  0  3  0  0  0  0  0  0
  190.2670  176.7970  147.1620 C   0  0  0  0  0  3  0  0  0  0  0  0
  189.6890  175.1330  143.0680 C   0  0  0  0  0  0  0  0  0  0  0  0
  190.7000  174.5430  143.7530 N   0  0  0  0  0  0  0  0  0  0  0  0
  185.4770  177.7070  141.7120 N   0  0  0  0  0  0  0  0  0  0  0  0
  189.4430  176.9750  146.0360 C   0  0  0  0  0  3  0  0  0  0  0  0
  185.1400  177.5470  143.1180 C   0  0  0  0  0  2  0  0  0  0  0  0
  187.5980  176.4970  141.9010 C   0  0  0  0  0  0  0  0  0  0  0  0
  185.6540  179.4430  144.7810 C   0  0  0  0  0  2  0  0  0  0  0  0
  183.7830  178.6550  146.1250 C   0  0  0  0  0  2  0  0  0  0  0  0
  185.0690  178.9820  146.0790 C   0  0  0  0  0  0  0  0  0  0  0  0
  185.9150  178.8340  147.2750 C   0  0  0  0  0  0  0  0  0  0  0  0
  186.3410  177.5760  147.6840 O   0  0  0  0  0  0  0  0  0  0  0  0
  186.2580  179.8480  147.9390 O   0  0  0  0  0  1  0  0  0  0  0  0
  1  4  1  0  0  0  0
  2  1  1  0  0  0  0
  2 12  1  0  0  0  0
  3 14  1  0  0  0  0
  4 17  1  0  0  0  0
  5 12  2  0  0  0  0
  5 20  1  0  0  0  0
  6 13  1  0  0  0  0
  7  3  2  0  0  0  0
  7 19  1  0  0  0  0
  8  4  2  0  0  0  0
  8  9  1  0  0  0  0
  9  6  2  0  0  0  0
 10 16  2  0  0  0  0
 10 19  1  0  0  0  0
 11 10  1  0  0  0  0
 14  1  1  0  0  0  0
 14 15  2  0  0  0  0
 15  8  1  0  0  0  0
 16 18  1  0  0  0  0
 17 13  2  0  0  0  0
 18  5  1  0  0  0  0
 19  2  2  0  0  0  0
 20 22  1  0  0  0  0
 22 21  2  0  0  0  0
 22 23  1  0  0  0  0
 23 24  2  0  0  0  0
 23 25  1  0  0  0  0
M  END
>  <MODEL>
2

>  <REMARK>
 VINA RESULT:      -7.7      1.881      5.099
  Name = 
  3 active torsions:
  status: ('A' for Active; 'I' for Inactive)
    1  A    between atoms: C_2  and  C_25
    2  A    between atoms: C_6  and  C_15
    3  A    between atoms: C_15  and  C_25
                            x       y       z     vdW  Elec       q    Type
                         _______ _______ _______ _____ _____    ______ ____

>  <TORSDO>
F 3

$$$$
=
 OpenBabel11052417353D

 25 28  0  0  0  0  0  0  0  0999 V2000
  186.9730  176.7870  144.1380 N   0  0  0  0  0  0  0  0  0  0  0  0
  188.1180  176.0850  143.8940 C   0  0  0  0  0  0  0  0  0  0  0  0
  186.4570  176.9890  141.8330 C   0  0  0  0  0  3  0  0  0  0  0  0
  186.3860  177.1990  145.2750 C   0  0  0  0  0  0  0  0  0  0  0  0
  190.2400  175.4040  145.0160 C   0  0  0  0  0  0  0  0  0  0  0  0
  184.7920  178.2770  147.2640 C   0  0  0  0  0  3  0  0  0  0  0  0
  187.5810  176.2730  141.5550 N   0  0  0  0  0  0  0  0  0  0  0  0
  185.2460  177.8860  144.9460 C   0  0  0  0  0  0  0  0  0  0  0  0
  184.4180  178.4420  145.9170 C   0  0  0  0  0  3  0  0  0  0  0  0
  189.5710  174.9680  142.0940 C   0  0  0  0  0  0  0  0  0  0  0  0
  189.4140  174.1600  140.9320 N   0  0  0  0  0  1  0  0  0  0  0  0
  188.9200  175.5750  145.0300 C   0  0  0  0  0  3  0  0  0  0  0  0
  185.9680  177.5710  147.6030 C   0  0  0  0  0  3  0  0  0  0  0  0
  186.1600  177.2440  143.1620 C   0  0  0  0  0  0  0  0  0  0  0  0
  185.0770  177.9290  143.6070 N   0  0  0  0  0  0  0  0  0  0  0  0
  190.7240  174.9720  142.6930 N   0  0  0  0  0  0  0  0  0  0  0  0
  186.7860  177.0190  146.6000 C   0  0  0  0  0  3  0  0  0  0  0  0
  191.0580  175.8040  143.8380 C   0  0  0  0  0  2  0  0  0  0  0  0
  188.4300  175.8150  142.5290 C   0  0  0  0  0  0  0  0  0  0  0  0
  190.9170  174.8260  146.2150 C   0  0  0  0  0  2  0  0  0  0  0  0
  191.2330  176.6700  147.7720 C   0  0  0  0  0  2  0  0  0  0  0  0
  191.7800  175.8470  146.8860 C   0  0  0  0  0  0  0  0  0  0  0  0
  193.2270  175.9010  146.6170 C   0  0  0  0  0  0  0  0  0  0  0  0
  193.8700  174.8310  146.0050 O   0  0  0  0  0  0  0  0  0  0  0  0
  193.8950  176.9170  146.9440 O   0  0  0  0  0  1  0  0  0  0  0  0
  1  4  1  0  0  0  0
  2  1  1  0  0  0  0
  2 12  1  0  0  0  0
  3 14  1  0  0  0  0
  4 17  1  0  0  0  0
  5 12  2  0  0  0  0
  5 20  1  0  0  0  0
  6 13  1  0  0  0  0
  7  3  2  0  0  0  0
  7 19  1  0  0  0  0
  8  4  2  0  0  0  0
  8  9  1  0  0  0  0
  9  6  2  0  0  0  0
 10 19  1  0  0  0  0
 10 16  2  0  0  0  0
 11 10  1  0  0  0  0
 14 15  2  0  0  0  0
 14  1  1  0  0  0  0
 15  8  1  0  0  0  0
 16 18  1  0  0  0  0
 17 13  2  0  0  0  0
 18  5  1  0  0  0  0
 19  2  2  0  0  0  0
 20 22  1  0  0  0  0
 22 21  2  0  0  0  0
 23 22  1  0  0  0  0
 23 25  1  0  0  0  0
 24 23  2  0  0  0  0
M  END
>  <MODEL>
3

>  <REMARK>
 VINA RESULT:      -7.5      1.441      1.751
  Name = 
  3 active torsions:
  status: ('A' for Active; 'I' for Inactive)
    1  A    between atoms: C_2  and  C_25
    2  A    between atoms: C_6  and  C_15
    3  A    between atoms: C_15  and  C_25
                            x       y       z     vdW  Elec       q    Type
                         _______ _______ _______ _____ _____    ______ ____

>  <TORSDO>
F 3

$$$$
=
 OpenBabel11052417353D

 25 28  0  0  0  0  0  0  0  0999 V2000
  187.5140  176.3580  142.7470 N   0  0  0  0  0  0  0  0  0  0  0  0
  187.8210  176.0820  144.0480 C   0  0  0  0  0  0  0  0  0  0  0  0
  189.4350  175.2350  141.9260 C   0  0  0  0  0  3  0  0  0  0  0  0
  186.4960  177.0240  142.1760 C   0  0  0  0  0  0  0  0  0  0  0  0
  187.2540  176.8230  146.3630 C   0  0  0  0  0  0  0  0  0  0  0  0
  184.6720  178.2760  140.5140 C   0  0  0  0  0  3  0  0  0  0  0  0
  189.7590  174.9250  143.2110 N   0  0  0  0  0  0  0  0  0  0  0  0
  186.6840  177.0150  140.8180 C   0  0  0  0  0  0  0  0  0  0  0  0
  185.7890  177.6330  139.9490 C   0  0  0  0  0  3  0  0  0  0  0  0
  189.4210  174.8390  145.6260 C   0  0  0  0  0  0  0  0  0  0  0  0
  190.0770  173.5790  145.7200 N   0  0  0  0  0  1  0  0  0  0  0  0
  186.8920  176.4990  145.1230 C   0  0  0  0  0  3  0  0  0  0  0  0
  184.4800  178.2870  141.9140 C   0  0  0  0  0  3  0  0  0  0  0  0
  188.2810  175.9700  141.7050 C   0  0  0  0  0  0  0  0  0  0  0  0
  187.8130  176.3500  140.4900 N   0  0  0  0  0  0  0  0  0  0  0  0
  189.2650  175.5370  146.7110 N   0  0  0  0  0  0  0  0  0  0  0  0
  185.4010  177.6550  142.7680 C   0  0  0  0  0  3  0  0  0  0  0  0
  188.6890  176.8710  146.7600 C   0  0  0  0  0  2  0  0  0  0  0  0
  189.0050  175.3230  144.2840 C   0  0  0  0  0  0  0  0  0  0  0  0
  186.2050  177.1710  147.3660 C   0  0  0  0  0  2  0  0  0  0  0  0
  186.3030  179.4940  148.0890 C   0  0  0  0  0  2  0  0  0  0  0  0
  185.8000  178.6060  147.2400 C   0  0  0  0  0  0  0  0  0  0  0  0
  184.9050  179.0410  146.1530 C   0  0  0  0  0  0  0  0  0  0  0  0
  185.3760  179.8730  145.1440 O   0  0  0  0  0  0  0  0  0  0  0  0
  183.7040  178.6650  146.1320 O   0  0  0  0  0  1  0  0  0  0  0  0
  1  2  1  0  0  0  0
  2 19  2  0  0  0  0
  2 12  1  0  0  0  0
  3  7  2  0  0  0  0
  4  1  1  0  0  0  0
  4 17  1  0  0  0  0
  5 18  1  0  0  0  0
  5 20  1  0  0  0  0
  6 13  1  0  0  0  0
  7 19  1  0  0  0  0
  8  4  2  0  0  0  0
  9  6  2  0  0  0  0
  9  8  1  0  0  0  0
 10 11  1  0  0  0  0
 10 16  2  0  0  0  0
 12  5  2  0  0  0  0
 13 17  2  0  0  0  0
 14  3  1  0  0  0  0
 14  1  1  0  0  0  0
 15  8  1  0  0  0  0
 15 14  2  0  0  0  0
 16 18  1  0  0  0  0
 19 10  1  0  0  0  0
 22 20  1  0  0  0  0
 22 21  2  0  0  0  0
 23 22  1  0  0  0  0
 24 23  2  0  0  0  0
 25 23  1  0  0  0  0
M  END
>  <MODEL>
4

>  <REMARK>
 VINA RESULT:      -7.2      2.358      4.702
  Name = 
  3 active torsions:
  status: ('A' for Active; 'I' for Inactive)
    1  A    between atoms: C_2  and  C_25
    2  A    between atoms: C_6  and  C_15
    3  A    between atoms: C_15  and  C_25
                            x       y       z     vdW  Elec       q    Type
                         _______ _______ _______ _____ _____    ______ ____

>  <TORSDO>
F 3

$$$$
=
 OpenBabel11052417353D

 25 28  0  0  0  0  0  0  0  0999 V2000
  186.4680  177.0470  143.8590 N   0  0  0  0  0  0  0  0  0  0  0  0
  187.5490  176.3130  143.4650 C   0  0  0  0  0  0  0  0  0  0  0  0
  185.7850  177.4720  141.6290 C   0  0  0  0  0  3  0  0  0  0  0  0
  185.9960  177.3880  145.0710 C   0  0  0  0  0  0  0  0  0  0  0  0
  189.7120  175.4350  144.3490 C   0  0  0  0  0  0  0  0  0  0  0  0
  184.6240  178.3670  147.2660 C   0  0  0  0  0  3  0  0  0  0  0  0
  186.8420  176.7280  141.2020 N   0  0  0  0  0  0  0  0  0  0  0  0
  184.8730  178.1550  144.8940 C   0  0  0  0  0  0  0  0  0  0  0  0
  184.1560  178.6660  145.9720 C   0  0  0  0  0  3  0  0  0  0  0  0
  188.7920  175.2860  141.4660 C   0  0  0  0  0  0  0  0  0  0  0  0
  188.5000  174.5900  140.2590 N   0  0  0  0  0  1  0  0  0  0  0  0
  188.4080  175.6690  144.4850 C   0  0  0  0  0  3  0  0  0  0  0  0
  185.7820  177.5780  147.4470 C   0  0  0  0  0  3  0  0  0  0  0  0
  185.6080  177.6250  142.9940 C   0  0  0  0  0  0  0  0  0  0  0  0
  184.6030  178.3220  143.5820 N   0  0  0  0  0  0  0  0  0  0  0  0
  189.9880  175.1820  141.9650 N   0  0  0  0  0  0  0  0  0  0  0  0
  186.4870  177.0750  146.3390 C   0  0  0  0  0  3  0  0  0  0  0  0
  190.4560  175.8940  143.1440 C   0  0  0  0  0  2  0  0  0  0  0  0
  187.7380  176.1470  142.0610 C   0  0  0  0  0  0  0  0  0  0  0  0
  190.4460  174.7240  145.4360 C   0  0  0  0  0  2  0  0  0  0  0  0
  192.4150  173.3540  145.0130 C   0  0  0  0  0  2  0  0  0  0  0  0
  191.0970  173.4800  144.9160 C   0  0  0  0  0  0  0  0  0  0  0  0
  190.2850  172.3840  144.3620 C   0  0  0  0  0  0  0  0  0  0  0  0
  190.5750  171.8560  143.1090 O   0  0  0  0  0  0  0  0  0  0  0  0
  189.3160  171.9170  145.0180 O   0  0  0  0  0  1  0  0  0  0  0  0
  1  4  1  0  0  0  0
  2  1  1  0  0  0  0
  2 12  1  0  0  0  0
  3 14  1  0  0  0  0
  4 17  1  0  0  0  0
  5 12  2  0  0  0  0
  5 20  1  0  0  0  0
  6 13  1  0  0  0  0
  7  3  2  0  0  0  0
  7 19  1  0  0  0  0
  8  4  2  0  0  0  0
  8  9  1  0  0  0  0
  9  6  2  0  0  0  0
 10 16  2  0  0  0  0
 10 19  1  0  0  0  0
 11 10  1  0  0  0  0
 14 15  2  0  0  0  0
 14  1  1  0  0  0  0
 15  8  1  0  0  0  0
 16 18  1  0  0  0  0
 17 13  2  0  0  0  0
 18  5  1  0  0  0  0
 19  2  2  0  0  0  0
 22 21  2  0  0  0  0
 22 20  1  0  0  0  0
 23 22  1  0  0  0  0
 23 25  1  0  0  0  0
 24 23  2  0  0  0  0
M  END
>  <MODEL>
5

>  <REMARK>
 VINA RESULT:      -7.1      1.836      2.287
  Name = 
  3 active torsions:
  status: ('A' for Active; 'I' for Inactive)
    1  A    between atoms: C_2  and  C_25
    2  A    between atoms: C_6  and  C_15
    3  A    between atoms: C_15  and  C_25
                            x       y       z     vdW  Elec       q    Type
                         _______ _______ _______ _____ _____    ______ ____

>  <TORSDO>
F 3

$$$$
=
 OpenBabel11052417353D

 25 28  0  0  0  0  0  0  0  0999 V2000
  187.7220  176.4890  144.1060 N   0  0  0  0  0  0  0  0  0  0  0  0
  189.0220  176.1050  143.9400 C   0  0  0  0  0  0  0  0  0  0  0  0
  187.1930  176.1260  141.8230 C   0  0  0  0  0  3  0  0  0  0  0  0
  187.0310  176.9130  145.1780 C   0  0  0  0  0  0  0  0  0  0  0  0
  191.2390  176.2580  145.0750 C   0  0  0  0  0  0  0  0  0  0  0  0
  185.1770  177.8340  147.0150 C   0  0  0  0  0  3  0  0  0  0  0  0
  188.4760  175.7170  141.6280 N   0  0  0  0  0  0  0  0  0  0  0  0
  185.7470  177.1820  144.7820 C   0  0  0  0  0  0  0  0  0  0  0  0
  184.7850  177.6460  145.6760 C   0  0  0  0  0  3  0  0  0  0  0  0
  190.7490  175.1410  142.3020 C   0  0  0  0  0  0  0  0  0  0  0  0
  190.8400  174.1300  141.3040 N   0  0  0  0  0  1  0  0  0  0  0  0
  189.9240  176.0500  145.1130 C   0  0  0  0  0  3  0  0  0  0  0  0
  186.5020  177.5580  147.4220 C   0  0  0  0  0  3  0  0  0  0  0  0
  186.8230  176.5180  143.0990 C   0  0  0  0  0  0  0  0  0  0  0  0
  185.5850  176.9390  143.4640 N   0  0  0  0  0  0  0  0  0  0  0  0
  191.8480  175.5750  142.8430 N   0  0  0  0  0  0  0  0  0  0  0  0
  187.4530  177.0910  146.4970 C   0  0  0  0  0  3  0  0  0  0  0  0
  191.9210  176.6560  143.8130 C   0  0  0  0  0  2  0  0  0  0  0  0
  189.4110  175.6960  142.6300 C   0  0  0  0  0  0  0  0  0  0  0  0
  192.0400  176.1150  146.3270 C   0  0  0  0  0  2  0  0  0  0  0  0
  193.0340  173.9390  145.8740 C   0  0  0  0  0  2  0  0  0  0  0  0
  193.2270  175.2320  146.1030 C   0  0  0  0  0  0  0  0  0  0  0  0
  194.5870  175.7960  146.0760 C   0  0  0  0  0  0  0  0  0  0  0  0
  194.7800  177.1640  145.9240 O   0  0  0  0  0  0  0  0  0  0  0  0
  195.5890  175.0410  146.1850 O   0  0  0  0  0  1  0  0  0  0  0  0
  1  4  1  0  0  0  0
  2  1  1  0  0  0  0
  2 12  1  0  0  0  0
  3 14  1  0  0  0  0
  4 17  1  0  0  0  0
  5 12  2  0  0  0  0
  5 20  1  0  0  0  0
  6 13  1  0  0  0  0
  7  3  2  0  0  0  0
  7 19  1  0  0  0  0
  8  4  2  0  0  0  0
  8  9  1  0  0  0  0
  9  6  2  0  0  0  0
 10 19  1  0  0  0  0
 10 16  2  0  0  0  0
 11 10  1  0  0  0  0
 14 15  2  0  0  0  0
 14  1  1  0  0  0  0
 15  8  1  0  0  0  0
 16 18  1  0  0  0  0
 17 13  2  0  0  0  0
 18  5  1  0  0  0  0
 19  2  2  0  0  0  0
 21 22  2  0  0  0  0
 22 20  1  0  0  0  0
 23 22  1  0  0  0  0
 23 25  1  0  0  0  0
 24 23  2  0  0  0  0
M  END
>  <MODEL>
6

>  <REMARK>
 VINA RESULT:      -7.0      2.008      2.616
  Name = 
  3 active torsions:
  status: ('A' for Active; 'I' for Inactive)
    1  A    between atoms: C_2  and  C_25
    2  A    between atoms: C_6  and  C_15
    3  A    between atoms: C_15  and  C_25
                            x       y       z     vdW  Elec       q    Type
                         _______ _______ _______ _____ _____    ______ ____

>  <TORSDO>
F 3

$$$$
=
 OpenBabel11052417353D

 25 28  0  0  0  0  0  0  0  0999 V2000
  185.7060  178.1770  143.8370 N   0  0  0  0  0  0  0  0  0  0  0  0
  186.5930  178.0180  144.8620 C   0  0  0  0  0  0  0  0  0  0  0  0
  183.9470  178.8180  145.2930 C   0  0  0  0  0  3  0  0  0  0  0  0
  185.8180  178.0170  142.5070 C   0  0  0  0  0  0  0  0  0  0  0  0
  188.7900  176.9450  145.3640 C   0  0  0  0  0  0  0  0  0  0  0  0
  185.4970  177.8350  139.7650 C   0  0  0  0  0  3  0  0  0  0  0  0
  184.8120  178.6890  146.3360 N   0  0  0  0  0  0  0  0  0  0  0  0
  184.6030  178.3000  141.9370 C   0  0  0  0  0  0  0  0  0  0  0  0
  184.4020  178.2210  140.5620 C   0  0  0  0  0  3  0  0  0  0  0  0
  186.9750  178.2820  147.3880 C   0  0  0  0  0  0  0  0  0  0  0  0
  186.6990  179.2150  148.4270 N   0  0  0  0  0  1  0  0  0  0  0  0
  187.9980  177.6570  144.5650 C   0  0  0  0  0  3  0  0  0  0  0  0
  186.7470  177.5410  140.3540 C   0  0  0  0  0  3  0  0  0  0  0  0
  184.4210  178.5520  144.0190 C   0  0  0  0  0  0  0  0  0  0  0  0
  183.6960  178.6440  142.8760 N   0  0  0  0  0  0  0  0  0  0  0  0
  187.9340  177.4230  147.5690 N   0  0  0  0  0  0  0  0  0  0  0  0
  186.9220  177.6300  141.7460 C   0  0  0  0  0  3  0  0  0  0  0  0
  188.2790  176.3620  146.6360 C   0  0  0  0  0  2  0  0  0  0  0  0
  186.1140  178.2930  146.1770 C   0  0  0  0  0  0  0  0  0  0  0  0
  190.2070  176.7030  144.9660 C   0  0  0  0  0  2  0  0  0  0  0  0
  191.1220  176.1820  142.7700 C   0  0  0  0  0  2  0  0  0  0  0  0
  190.2800  175.8470  143.7400 C   0  0  0  0  0  0  0  0  0  0  0  0
  189.4760  174.6180  143.6340 C   0  0  0  0  0  0  0  0  0  0  0  0
  189.7100  173.5470  144.4890 O   0  0  0  0  0  1  0  0  0  0  0  0
  188.5700  174.5250  142.7640 O   0  0  0  0  0  0  0  0  0  0  0  0
  1 14  1  0  0  0  0
  1  2  1  0  0  0  0
  2 19  2  0  0  0  0
  3  7  2  0  0  0  0
  4  1  1  0  0  0  0
  5 18  1  0  0  0  0
  6 13  2  0  0  0  0
  6  9  1  0  0  0  0
  8  4  1  0  0  0  0
  8 15  1  0  0  0  0
  9  8  2  0  0  0  0
 10 16  2  0  0  0  0
 10 11  1  0  0  0  0
 12  2  1  0  0  0  0
 12  5  2  0  0  0  0
 13 17  1  0  0  0  0
 14  3  1  0  0  0  0
 15 14  2  0  0  0  0
 17  4  2  0  0  0  0
 18 16  1  0  0  0  0
 19  7  1  0  0  0  0
 19 10  1  0  0  0  0
 20  5  1  0  0  0  0
 21 22  2  0  0  0  0
 22 20  1  0  0  0  0
 23 22  1  0  0  0  0
 23 24  1  0  0  0  0
 25 23  2  0  0  0  0
M  END
>  <MODEL>
7

>  <REMARK>
 VINA RESULT:      -7.0      2.574      4.817
  Name = 
  3 active torsions:
  status: ('A' for Active; 'I' for Inactive)
    1  A    between atoms: C_2  and  C_25
    2  A    between atoms: C_6  and  C_15
    3  A    between atoms: C_15  and  C_25
                            x       y       z     vdW  Elec       q    Type
                         _______ _______ _______ _____ _____    ______ ____

>  <TORSDO>
F 3

$$$$
=
 OpenBabel11052417353D

 25 28  0  0  0  0  0  0  0  0999 V2000
  187.9250  176.4960  145.4040 N   0  0  0  0  0  0  0  0  0  0  0  0
  188.4640  176.2880  144.1670 C   0  0  0  0  0  0  0  0  0  0  0  0
  189.1650  174.7260  146.3800 C   0  0  0  0  0  3  0  0  0  0  0  0
  187.0250  177.3820  145.8640 C   0  0  0  0  0  0  0  0  0  0  0  0
  188.0570  176.8380  141.7670 C   0  0  0  0  0  0  0  0  0  0  0  0
  185.2460  178.9340  147.3080 C   0  0  0  0  0  3  0  0  0  0  0  0
  189.7370  174.5050  145.1650 N   0  0  0  0  0  0  0  0  0  0  0  0
  186.8280  177.1400  147.2000 C   0  0  0  0  0  0  0  0  0  0  0  0
  185.9430  177.8990  147.9600 C   0  0  0  0  0  3  0  0  0  0  0  0
  190.1870  174.9520  142.8090 C   0  0  0  0  0  0  0  0  0  0  0  0
  191.5290  174.4910  142.9280 N   0  0  0  0  0  1  0  0  0  0  0  0
  188.1040  177.1910  143.0500 C   0  0  0  0  0  3  0  0  0  0  0  0
  185.4470  179.1800  145.9310 C   0  0  0  0  0  3  0  0  0  0  0  0
  188.2390  175.7500  146.4850 C   0  0  0  0  0  0  0  0  0  0  0  0
  187.5890  176.1080  147.6210 N   0  0  0  0  0  0  0  0  0  0  0  0
  189.6710  175.0510  141.6200 N   0  0  0  0  0  0  0  0  0  0  0  0
  186.3490  178.3980  145.1880 C   0  0  0  0  0  3  0  0  0  0  0  0
  188.2940  175.4300  141.3460 C   0  0  0  0  0  2  0  0  0  0  0  0
  189.4220  175.2370  144.0500 C   0  0  0  0  0  0  0  0  0  0  0  0
  187.7330  177.8660  140.7360 C   0  0  0  0  0  2  0  0  0  0  0  0
  186.3430  176.8750  139.0000 C   0  0  0  0  0  2  0  0  0  0  0  0
  186.4000  177.5970  140.1120 C   0  0  0  0  0  0  0  0  0  0  0  0
  185.1620  178.0710  140.7530 C   0  0  0  0  0  0  0  0  0  0  0  0
  183.9370  177.9260  140.1130 O   0  0  0  0  0  0  0  0  0  0  0  0
  185.2040  178.6180  141.8870 O   0  0  0  0  0  1  0  0  0  0  0  0
  1  4  1  0  0  0  0
  1 14  1  0  0  0  0
  2  1  1  0  0  0  0
  3 14  1  0  0  0  0
  4  8  1  0  0  0  0
  5 12  2  0  0  0  0
  6  9  1  0  0  0  0
  7  3  2  0  0  0  0
  8 15  1  0  0  0  0
  8  9  2  0  0  0  0
 10 11  1  0  0  0  0
 10 19  1  0  0  0  0
 12  2  1  0  0  0  0
 13  6  2  0  0  0  0
 14 15  2  0  0  0  0
 16 10  2  0  0  0  0
 17  4  2  0  0  0  0
 17 13  1  0  0  0  0
 18 16  1  0  0  0  0
 18  5  1  0  0  0  0
 19  2  2  0  0  0  0
 19  7  1  0  0  0  0
 20  5  1  0  0  0  0
 21 22  2  0  0  0  0
 22 20  1  0  0  0  0
 22 23  1  0  0  0  0
 23 25  1  0  0  0  0
 24 23  2  0  0  0  0
M  END
>  <MODEL>
8

>  <REMARK>
 VINA RESULT:      -6.6      2.849      5.076
  Name = 
  3 active torsions:
  status: ('A' for Active; 'I' for Inactive)
    1  A    between atoms: C_2  and  C_25
    2  A    between atoms: C_6  and  C_15
    3  A    between atoms: C_15  and  C_25
                            x       y       z     vdW  Elec       q    Type
                         _______ _______ _______ _____ _____    ______ ____

>  <TORSDO>
F 3

$$$$
=
 OpenBabel11052417353D

 25 28  0  0  0  0  0  0  0  0999 V2000
  187.3750  176.4320  142.1480 N   0  0  0  0  0  0  0  0  0  0  0  0
  186.9990  177.0720  143.2940 C   0  0  0  0  0  0  0  0  0  0  0  0
  186.1280  177.9040  140.7690 C   0  0  0  0  0  3  0  0  0  0  0  0
  188.1590  175.3640  141.9200 C   0  0  0  0  0  0  0  0  0  0  0  0
  186.9140  176.7170  145.7620 C   0  0  0  0  0  0  0  0  0  0  0  0
  189.6380  173.2570  140.9040 C   0  0  0  0  0  3  0  0  0  0  0  0
  185.7510  178.5770  141.8900 N   0  0  0  0  0  0  0  0  0  0  0  0
  188.1900  175.1340  140.5690 C   0  0  0  0  0  0  0  0  0  0  0  0
  188.9220  174.0850  140.0190 C   0  0  0  0  0  3  0  0  0  0  0  0
  185.7360  179.0800  144.2770 C   0  0  0  0  0  0  0  0  0  0  0  0
  185.5690  180.4720  144.0310 N   0  0  0  0  0  1  0  0  0  0  0  0
  187.5470  176.6250  144.5950 C   0  0  0  0  0  3  0  0  0  0  0  0
  189.6040  173.4940  142.2970 C   0  0  0  0  0  3  0  0  0  0  0  0
  186.9610  176.8070  140.9180 C   0  0  0  0  0  0  0  0  0  0  0  0
  187.4370  176.0380  139.9070 N   0  0  0  0  0  0  0  0  0  0  0  0
  185.4690  178.6260  145.4650 N   0  0  0  0  0  0  0  0  0  0  0  0
  188.8560  174.5610  142.8250 C   0  0  0  0  0  3  0  0  0  0  0  0
  185.5150  177.2230  145.8440 C   0  0  0  0  0  2  0  0  0  0  0  0
  186.1440  178.2040  143.1490 C   0  0  0  0  0  0  0  0  0  0  0  0
  187.6070  176.2800  147.0090 C   0  0  0  0  0  2  0  0  0  0  0  0
  189.6910  177.5340  147.1330 C   0  0  0  0  0  2  0  0  0  0  0  0
  189.0930  176.3810  146.8580 C   0  0  0  0  0  0  0  0  0  0  0  0
  189.8900  175.2050  146.4700 C   0  0  0  0  0  0  0  0  0  0  0  0
  189.3280  173.9340  146.4940 O   0  0  0  0  0  1  0  0  0  0  0  0
  191.0910  175.3420  146.1170 O   0  0  0  0  0  0  0  0  0  0  0  0
  1  2  1  0  0  0  0
  2 12  1  0  0  0  0
  3 14  1  0  0  0  0
  3  7  2  0  0  0  0
  4  1  1  0  0  0  0
  4 17  1  0  0  0  0
  5 18  1  0  0  0  0
  5 20  1  0  0  0  0
  6 13  1  0  0  0  0
  7 19  1  0  0  0  0
  8  4  2  0  0  0  0
  9  8  1  0  0  0  0
  9  6  2  0  0  0  0
 10 16  2  0  0  0  0
 11 10  1  0  0  0  0
 12  5  2  0  0  0  0
 13 17  2  0  0  0  0
 14  1  1  0  0  0  0
 15  8  1  0  0  0  0
 15 14  2  0  0  0  0
 16 18  1  0  0  0  0
 19  2  2  0  0  0  0
 19 10  1  0  0  0  0
 22 20  1  0  0  0  0
 22 21  2  0  0  0  0
 23 24  1  0  0  0  0
 23 22  1  0  0  0  0
 25 23  2  0  0  0  0
M  END
>  <MODEL>
9

>  <REMARK>
 VINA RESULT:      -6.6      1.610      4.778
  Name = 
  3 active torsions:
  status: ('A' for Active; 'I' for Inactive)
    1  A    between atoms: C_2  and  C_25
    2  A    between atoms: C_6  and  C_15
    3  A    between atoms: C_15  and  C_25
                            x       y       z     vdW  Elec       q    Type
                         _______ _______ _______ _____ _____    ______ ____

>  <TORSDO>
F 3

$$$$
