=
 OpenBabel11052418243D

 27 31  0  0  1  0  0  0  0  0999 V2000
  186.6630  176.5810  142.8180 C   0  0  0  0  0  3  0  0  0  0  0  0
  188.7970  175.8580  143.8390 C   0  0  0  0  0  0  0  0  0  0  0  0
  187.3330  176.4020  145.7900 C   0  0  0  0  0  3  0  0  0  0  0  0
  192.0270  175.9270  146.1460 N   0  0  0  0  0  0  0  0  0  0  0  0
  191.9960  177.1970  148.1610 N   0  0  0  0  0  1  0  0  0  0  0  0
  190.1520  175.8250  143.2130 C   0  0  0  0  0  3  0  0  0  0  0  0
  189.9960  176.1850  147.3230 N   0  0  0  0  0  0  0  0  0  0  0  0
  184.8470  178.3280  146.6720 C   0  0  0  0  0  2  0  0  0  0  0  0
  189.4420  174.8420  147.4780 C   0  0  0  0  0  1  0  0  0  0  0  0
  184.8730  179.3840  145.5640 C   0  0  0  0  0  2  0  0  0  0  0  0
  189.8700  176.6710  145.9350 C   0  0  1  0  0  3  0  0  0  0  0  0
  187.5890  175.4320  143.0400 C   0  0  2  0  0  3  0  0  0  0  0  0
  191.4530  176.0320  147.4830 C   0  0  1  0  0  3  0  0  0  0  0  0
  191.1370  176.2910  145.2990 C   0  0  0  0  0  0  0  0  0  0  0  0
  186.0040  177.1840  143.8080 C   0  0  0  0  0  0  0  0  0  0  0  0
  188.6530  176.2420  145.1330 C   0  0  0  0  0  0  0  0  0  0  0  0
  185.0020  176.8950  146.1590 C   0  0  0  0  0  2  0  0  0  0  0  0
  191.2350  176.0160  143.9060 N   0  0  0  0  0  0  0  0  0  0  0  0
  184.2010  178.8770  144.2940 C   0  0  0  0  0  2  0  0  0  0  0  0
  185.1440  178.2330  143.4370 O   0  0  0  0  0  0  0  0  0  0  0  0
  186.1650  176.7630  145.2340 C   0  0  0  0  0  0  0  0  0  0  0  0
  188.5290  173.3010  139.4200 C   0  0  0  0  0  3  0  0  0  0  0  0
  187.8990  174.7020  141.7630 C   0  0  0  0  0  0  0  0  0  0  0  0
  187.9230  175.3660  140.5270 C   0  0  0  0  0  3  0  0  0  0  0  0
  188.2360  174.6670  139.3580 C   0  0  0  0  0  3  0  0  0  0  0  0
  188.5130  172.6370  140.6490 C   0  0  0  0  0  3  0  0  0  0  0  0
  188.2010  173.3370  141.8180 C   0  0  0  0  0  3  0  0  0  0  0  0
  1 12  1  0  0  0  0
  1 15  2  0  0  0  0
  2 16  2  0  0  0  0
  4 13  1  0  0  0  0
  6  2  1  0  0  0  0
  6 18  2  0  0  0  0
  7  9  1  0  0  0  0
  7 13  1  0  0  0  0
 10  8  1  0  0  0  0
 11 16  1  6  0  0  0
 11  7  1  0  0  0  0
 12 23  1  6  0  0  0
 12  2  1  0  0  0  0
 13  5  1  6  0  0  0
 14 11  1  0  0  0  0
 14  4  2  0  0  0  0
 15 21  1  0  0  0  0
 16  3  1  0  0  0  0
 17  8  1  0  0  0  0
 18 14  1  0  0  0  0
 19 10  1  0  0  0  0
 20 15  1  0  0  0  0
 20 19  1  0  0  0  0
 21  3  2  0  0  0  0
 21 17  1  0  0  0  0
 22 26  1  0  0  0  0
 23 27  1  0  0  0  0
 24 23  2  0  0  0  0
 25 22  2  0  0  0  0
 25 24  1  0  0  0  0
 26 27  2  0  0  0  0
M  END
>  <MODEL>
1

>  <REMARK>
 VINA RESULT:      -8.4      0.000      0.000
  Name = 
  1 active torsions:
  status: ('A' for Active; 'I' for Inactive)
    1  A    between atoms: C_9  and  C_15
                            x       y       z     vdW  Elec       q    Type
                         _______ _______ _______ _____ _____    ______ ____

>  <TORSDO>
F 1

$$$$
=
 OpenBabel11052418243D

 27 31  0  0  1  0  0  0  0  0999 V2000
  189.0600  177.0880  145.6880 C   0  0  0  0  0  3  0  0  0  0  0  0
  188.0570  176.2770  143.5780 C   0  0  0  0  0  0  0  0  0  0  0  0
  189.7930  174.5670  144.1320 C   0  0  0  0  0  3  0  0  0  0  0  0
  187.8160  174.9340  139.8490 N   0  0  0  0  0  0  0  0  0  0  0  0
  189.6730  173.7820  138.9010 N   0  0  0  0  0  1  0  0  0  0  0  0
  187.2990  177.0600  142.5580 C   0  0  0  0  0  3  0  0  0  0  0  0
  189.2220  173.6510  141.2470 N   0  0  0  0  0  0  0  0  0  0  0  0
  192.6700  174.2300  145.6400 C   0  0  0  0  0  2  0  0  0  0  0  0
  188.3390  172.7840  142.0260 C   0  0  0  0  0  1  0  0  0  0  0  0
  193.1390  175.6840  145.7300 C   0  0  0  0  0  2  0  0  0  0  0  0
  189.1540  175.0520  141.7060 C   0  0  1  0  0  3  0  0  0  0  0  0
  187.8310  176.5370  145.0470 C   0  0  2  0  0  3  0  0  0  0  0  0
  188.6220  173.7190  139.9030 C   0  0  1  0  0  3  0  0  0  0  0  0
  188.1280  175.6650  140.8540 C   0  0  0  0  0  0  0  0  0  0  0  0
  190.1890  176.3900  145.8140 C   0  0  0  0  0  0  0  0  0  0  0  0
  188.9280  175.3120  143.1860 C   0  0  0  0  0  0  0  0  0  0  0  0
  191.2000  174.0330  146.0160 C   0  0  0  0  0  2  0  0  0  0  0  0
  187.3300  176.7590  141.2950 N   0  0  0  0  0  0  0  0  0  0  0  0
  192.4700  176.4160  146.8870 C   0  0  0  0  0  2  0  0  0  0  0  0
  191.2540  177.0340  146.4680 O   0  0  0  0  0  0  0  0  0  0  0  0
  190.3130  174.9920  145.2940 C   0  0  0  0  0  0  0  0  0  0  0  0
  184.2990  178.8270  145.9500 C   0  0  0  0  0  3  0  0  0  0  0  0
  186.6130  177.3580  145.3640 C   0  0  0  0  0  0  0  0  0  0  0  0
  186.4620  178.6660  144.8760 C   0  0  0  0  0  3  0  0  0  0  0  0
  185.3090  179.3990  145.1690 C   0  0  0  0  0  3  0  0  0  0  0  0
  184.4420  177.5240  146.4340 C   0  0  0  0  0  3  0  0  0  0  0  0
  185.5950  176.7910  146.1400 C   0  0  0  0  0  3  0  0  0  0  0  0
  1 15  2  0  0  0  0
  2 12  1  0  0  0  0
  3 21  2  0  0  0  0
  4 13  1  0  0  0  0
  4 14  2  0  0  0  0
  6  2  1  0  0  0  0
  7 11  1  0  0  0  0
  7  9  1  0  0  0  0
  8 10  1  0  0  0  0
  8 17  1  0  0  0  0
 10 19  1  0  0  0  0
 11 14  1  6  0  0  0
 11 16  1  0  0  0  0
 12 23  1  6  0  0  0
 12  1  1  0  0  0  0
 13  5  1  6  0  0  0
 13  7  1  0  0  0  0
 14 18  1  0  0  0  0
 15 20  1  0  0  0  0
 16  2  2  0  0  0  0
 16  3  1  0  0  0  0
 18  6  2  0  0  0  0
 20 19  1  0  0  0  0
 21 15  1  0  0  0  0
 21 17  1  0  0  0  0
 22 26  1  0  0  0  0
 23 27  1  0  0  0  0
 24 25  1  0  0  0  0
 24 23  2  0  0  0  0
 25 22  2  0  0  0  0
 27 26  2  0  0  0  0
M  END
>  <MODEL>
2

>  <REMARK>
 VINA RESULT:      -8.2      2.988      6.473
  Name = 
  1 active torsions:
  status: ('A' for Active; 'I' for Inactive)
    1  A    between atoms: C_9  and  C_15
                            x       y       z     vdW  Elec       q    Type
                         _______ _______ _______ _____ _____    ______ ____

>  <TORSDO>
F 1

$$$$
=
 OpenBabel11052418243D

 27 31  0  0  1  0  0  0  0  0999 V2000
  186.5290  177.6800  143.4660 C   0  0  0  0  0  3  0  0  0  0  0  0
  188.8860  176.9330  143.5290 C   0  0  0  0  0  0  0  0  0  0  0  0
  188.0770  176.6190  145.8720 C   0  0  0  0  0  3  0  0  0  0  0  0
  192.6640  176.6390  144.7130 N   0  0  0  0  0  0  0  0  0  0  0  0
  193.2250  177.1620  146.9680 N   0  0  0  0  0  1  0  0  0  0  0  0
  189.9860  177.2750  142.5800 C   0  0  0  0  0  3  0  0  0  0  0  0
  191.0840  176.2420  146.4230 N   0  0  0  0  0  0  0  0  0  0  0  0
  185.9420  177.8250  148.0310 C   0  0  0  0  0  2  0  0  0  0  0  0
  190.6290  174.8650  146.2450 C   0  0  0  0  0  1  0  0  0  0  0  0
  185.6080  179.1810  147.4040 C   0  0  0  0  0  2  0  0  0  0  0  0
  190.5310  177.1380  145.3880 C   0  0  1  0  0  3  0  0  0  0  0  0
  187.5000  176.6470  143.0020 C   0  0  2  0  0  3  0  0  0  0  0  0
  192.5230  176.2270  146.1050 C   0  0  1  0  0  3  0  0  0  0  0  0
  191.5510  177.1480  144.3320 C   0  0  0  0  0  0  0  0  0  0  0  0
  186.1920  177.8390  144.7460 C   0  0  0  0  0  0  0  0  0  0  0  0
  189.1360  176.8490  144.8610 C   0  0  0  0  0  0  0  0  0  0  0  0
  185.9600  176.6700  147.0270 C   0  0  0  0  0  2  0  0  0  0  0  0
  191.2240  177.3610  142.9630 N   0  0  0  0  0  0  0  0  0  0  0  0
  184.5920  179.0400  146.2790 C   0  0  0  0  0  2  0  0  0  0  0  0
  185.2400  178.8350  145.0230 O   0  0  0  0  0  0  0  0  0  0  0  0
  186.7880  176.9950  145.8280 C   0  0  0  0  0  0  0  0  0  0  0  0
  187.2030  176.0330  138.7520 C   0  0  0  0  0  3  0  0  0  0  0  0
  187.4200  176.4220  141.5190 C   0  0  0  0  0  0  0  0  0  0  0  0
  187.9300  175.2560  140.9260 C   0  0  0  0  0  3  0  0  0  0  0  0
  187.8230  175.0630  139.5450 C   0  0  0  0  0  3  0  0  0  0  0  0
  186.6880  177.1930  139.3390 C   0  0  0  0  0  3  0  0  0  0  0  0
  186.7950  177.3850  140.7190 C   0  0  0  0  0  3  0  0  0  0  0  0
  1 15  2  0  0  0  0
  2 16  2  0  0  0  0
  4 13  1  0  0  0  0
  6 18  2  0  0  0  0
  6  2  1  0  0  0  0
  9  7  1  0  0  0  0
 10  8  1  0  0  0  0
 11 14  1  6  0  0  0
 11  7  1  0  0  0  0
 12 23  1  6  0  0  0
 12  1  1  0  0  0  0
 12  2  1  0  0  0  0
 13  7  1  0  0  0  0
 13  5  1  1  0  0  0
 14  4  2  0  0  0  0
 15 20  1  0  0  0  0
 15 21  1  0  0  0  0
 16 11  1  0  0  0  0
 16  3  1  0  0  0  0
 17  8  1  0  0  0  0
 18 14  1  0  0  0  0
 19 10  1  0  0  0  0
 20 19  1  0  0  0  0
 21  3  2  0  0  0  0
 21 17  1  0  0  0  0
 22 26  2  0  0  0  0
 22 25  1  0  0  0  0
 24 23  1  0  0  0  0
 25 24  2  0  0  0  0
 26 27  1  0  0  0  0
 27 23  2  0  0  0  0
M  END
>  <MODEL>
3

>  <REMARK>
 VINA RESULT:      -7.7      1.418      1.968
  Name = 
  1 active torsions:
  status: ('A' for Active; 'I' for Inactive)
    1  A    between atoms: C_9  and  C_15
                            x       y       z     vdW  Elec       q    Type
                         _______ _______ _______ _____ _____    ______ ____

>  <TORSDO>
F 1

$$$$
=
 OpenBabel11052418243D

 27 31  0  0  1  0  0  0  0  0999 V2000
  188.5340  175.4410  141.6950 C   0  0  0  0  0  3  0  0  0  0  0  0
  189.9890  174.8700  143.6130 C   0  0  0  0  0  0  0  0  0  0  0  0
  188.0160  175.9990  144.6510 C   0  0  0  0  0  3  0  0  0  0  0  0
  192.0980  175.3250  146.9450 N   0  0  0  0  0  0  0  0  0  0  0  0
  191.5300  177.0760  148.4570 N   0  0  0  0  0  1  0  0  0  0  0  0
  191.4550  174.5870  143.6040 C   0  0  0  0  0  3  0  0  0  0  0  0
  189.8470  176.0140  147.1280 N   0  0  0  0  0  0  0  0  0  0  0  0
  185.7290  178.2480  144.0320 C   0  0  0  0  0  2  0  0  0  0  0  0
  189.0640  174.7970  147.3320 C   0  0  0  0  0  1  0  0  0  0  0  0
  186.3350  178.9750  142.8290 C   0  0  0  0  0  2  0  0  0  0  0  0
  190.3250  176.1300  145.7360 C   0  0  1  0  0  3  0  0  0  0  0  0
  189.1120  174.3320  142.5090 C   0  0  2  0  0  3  0  0  0  0  0  0
  191.0950  175.8130  147.8850 C   0  0  1  0  0  3  0  0  0  0  0  0
  191.6580  175.5140  145.7570 C   0  0  0  0  0  0  0  0  0  0  0  0
  187.6630  176.3240  142.1860 C   0  0  0  0  0  0  0  0  0  0  0  0
  189.4400  175.5870  144.6270 C   0  0  0  0  0  0  0  0  0  0  0  0
  185.8270  176.7230  143.9430 C   0  0  0  0  0  2  0  0  0  0  0  0
  192.2190  174.8800  144.6130 N   0  0  0  0  0  0  0  0  0  0  0  0
  186.1100  178.2000  141.5370 C   0  0  0  0  0  2  0  0  0  0  0  0
  187.1850  177.2940  141.2880 O   0  0  0  0  0  0  0  0  0  0  0  0
  187.2130  176.2790  143.6110 C   0  0  0  0  0  0  0  0  0  0  0  0
  190.9090  171.3380  139.9910 C   0  0  0  0  0  3  0  0  0  0  0  0
  189.7510  173.2760  141.6510 C   0  0  0  0  0  0  0  0  0  0  0  0
  189.8670  171.9470  142.0890 C   0  0  0  0  0  3  0  0  0  0  0  0
  190.4460  170.9810  141.2610 C   0  0  0  0  0  3  0  0  0  0  0  0
  190.7900  172.6580  139.5480 C   0  0  0  0  0  3  0  0  0  0  0  0
  190.2110  173.6240  140.3760 C   0  0  0  0  0  3  0  0  0  0  0  0
  1 15  2  0  0  0  0
  1 12  1  0  0  0  0
  2 16  2  0  0  0  0
  4 13  1  0  0  0  0
  6  2  1  0  0  0  0
  6 18  2  0  0  0  0
  7  9  1  0  0  0  0
  7 13  1  0  0  0  0
 10  8  1  0  0  0  0
 11 16  1  6  0  0  0
 11 14  1  0  0  0  0
 11  7  1  0  0  0  0
 12 23  1  6  0  0  0
 12  2  1  0  0  0  0
 13  5  1  6  0  0  0
 14  4  2  0  0  0  0
 15 21  1  0  0  0  0
 16  3  1  0  0  0  0
 17  8  1  0  0  0  0
 18 14  1  0  0  0  0
 19 10  1  0  0  0  0
 20 19  1  0  0  0  0
 20 15  1  0  0  0  0
 21 17  1  0  0  0  0
 21  3  2  0  0  0  0
 22 25  1  0  0  0  0
 23 24  1  0  0  0  0
 25 24  2  0  0  0  0
 26 22  2  0  0  0  0
 26 27  1  0  0  0  0
 27 23  2  0  0  0  0
M  END
>  <MODEL>
4

>  <REMARK>
 VINA RESULT:      -7.7      1.600      2.340
  Name = 
  1 active torsions:
  status: ('A' for Active; 'I' for Inactive)
    1  A    between atoms: C_9  and  C_15
                            x       y       z     vdW  Elec       q    Type
                         _______ _______ _______ _____ _____    ______ ____

>  <TORSDO>
F 1

$$$$
=
 OpenBabel11052418243D

 27 31  0  0  1  0  0  0  0  0999 V2000
  187.4870  176.3370  143.3550 C   0  0  0  0  0  3  0  0  0  0  0  0
  189.8860  175.8360  143.6890 C   0  0  0  0  0  0  0  0  0  0  0  0
  189.0200  176.2710  145.9930 C   0  0  0  0  0  3  0  0  0  0  0  0
  193.6320  176.2470  144.9380 N   0  0  0  0  0  0  0  0  0  0  0  0
  194.0780  177.5410  146.8870 N   0  0  0  0  0  1  0  0  0  0  0  0
  190.9920  175.9210  142.6910 C   0  0  0  0  0  3  0  0  0  0  0  0
  192.0250  176.3310  146.6670 N   0  0  0  0  0  0  0  0  0  0  0  0
  186.7350  177.9680  147.5950 C   0  0  0  0  0  2  0  0  0  0  0  0
  191.6710  174.9440  146.9620 C   0  0  0  0  0  1  0  0  0  0  0  0
  186.3310  179.0030  146.5430 C   0  0  0  0  0  2  0  0  0  0  0  0
  191.4480  176.7810  145.3850 C   0  0  1  0  0  3  0  0  0  0  0  0
  188.5420  175.2850  143.2780 C   0  0  2  0  0  3  0  0  0  0  0  0
  193.4720  176.3190  146.3860 C   0  0  1  0  0  3  0  0  0  0  0  0
  192.5010  176.5110  144.3970 C   0  0  0  0  0  0  0  0  0  0  0  0
  187.0960  176.8920  144.5030 C   0  0  0  0  0  0  0  0  0  0  0  0
  190.0950  176.2260  144.9730 C   0  0  0  0  0  0  0  0  0  0  0  0
  186.8660  176.5470  147.0420 C   0  0  0  0  0  2  0  0  0  0  0  0
  192.2080  176.2240  143.0340 N   0  0  0  0  0  0  0  0  0  0  0  0
  185.3650  178.4150  145.5220 C   0  0  0  0  0  2  0  0  0  0  0  0
  186.0690  177.8480  144.4170 O   0  0  0  0  0  0  0  0  0  0  0  0
  187.7110  176.5110  145.8120 C   0  0  0  0  0  0  0  0  0  0  0  0
  188.5650  173.1910  139.5170 C   0  0  0  0  0  3  0  0  0  0  0  0
  188.5290  174.5670  141.9580 C   0  0  0  0  0  0  0  0  0  0  0  0
  188.1840  175.2280  140.7680 C   0  0  0  0  0  3  0  0  0  0  0  0
  188.2010  174.5400  139.5510 C   0  0  0  0  0  3  0  0  0  0  0  0
  188.9160  172.5310  140.6980 C   0  0  0  0  0  3  0  0  0  0  0  0
  188.8990  173.2180  141.9150 C   0  0  0  0  0  3  0  0  0  0  0  0
  1 15  2  0  0  0  0
  2 16  2  0  0  0  0
  4 13  1  0  0  0  0
  6 18  2  0  0  0  0
  6  2  1  0  0  0  0
  7  9  1  0  0  0  0
 10  8  1  0  0  0  0
 11 14  1  6  0  0  0
 11  7  1  0  0  0  0
 12 23  1  6  0  0  0
 12  1  1  0  0  0  0
 12  2  1  0  0  0  0
 13  7  1  0  0  0  0
 13  5  1  6  0  0  0
 14  4  2  0  0  0  0
 15 21  1  0  0  0  0
 16 11  1  0  0  0  0
 16  3  1  0  0  0  0
 17  8  1  0  0  0  0
 18 14  1  0  0  0  0
 19 10  1  0  0  0  0
 20 15  1  0  0  0  0
 20 19  1  0  0  0  0
 21  3  2  0  0  0  0
 21 17  1  0  0  0  0
 22 25  2  0  0  0  0
 22 26  1  0  0  0  0
 24 23  2  0  0  0  0
 25 24  1  0  0  0  0
 26 27  2  0  0  0  0
 27 23  1  0  0  0  0
M  END
>  <MODEL>
5

>  <REMARK>
 VINA RESULT:      -7.5      1.253      1.551
  Name = 
  1 active torsions:
  status: ('A' for Active; 'I' for Inactive)
    1  A    between atoms: C_9  and  C_15
                            x       y       z     vdW  Elec       q    Type
                         _______ _______ _______ _____ _____    ______ ____

>  <TORSDO>
F 1

$$$$
=
 OpenBabel11052418243D

 27 31  0  0  1  0  0  0  0  0999 V2000
  188.1740  177.5480  145.5200 C   0  0  0  0  0  3  0  0  0  0  0  0
  188.0540  176.1460  143.4860 C   0  0  0  0  0  0  0  0  0  0  0  0
  189.3460  174.7590  145.1140 C   0  0  0  0  0  3  0  0  0  0  0  0
  189.2490  173.8560  140.4710 N   0  0  0  0  0  0  0  0  0  0  0  0
  191.2740  172.6180  140.6760 N   0  0  0  0  0  1  0  0  0  0  0  0
  187.7990  176.5820  142.0810 C   0  0  0  0  0  3  0  0  0  0  0  0
  189.9240  173.0800  142.5970 N   0  0  0  0  0  0  0  0  0  0  0  0
  191.3710  175.0200  147.6630 C   0  0  0  0  0  2  0  0  0  0  0  0
  188.7660  172.3930  143.1660 C   0  0  0  0  0  1  0  0  0  0  0  0
  191.8320  176.4740  147.5390 C   0  0  0  0  0  2  0  0  0  0  0  0
  189.7450  174.5450  142.6000 C   0  0  1  0  0  3  0  0  0  0  0  0
  187.2760  176.7680  144.6190 C   0  0  2  0  0  3  0  0  0  0  0  0
  189.9100  172.7530  141.1600 C   0  0  1  0  0  3  0  0  0  0  0  0
  189.1710  174.8440  141.2820 C   0  0  0  0  0  0  0  0  0  0  0  0
  189.1270  176.9820  146.2620 C   0  0  0  0  0  0  0  0  0  0  0  0
  188.9630  175.1700  143.7420 C   0  0  0  0  0  0  0  0  0  0  0  0
  189.8650  174.8330  147.4680 C   0  0  0  0  0  2  0  0  0  0  0  0
  188.3150  175.9610  141.0630 N   0  0  0  0  0  0  0  0  0  0  0  0
  190.7940  177.4390  148.0970 C   0  0  0  0  0  2  0  0  0  0  0  0
  189.8740  177.8450  147.0840 O   0  0  0  0  0  0  0  0  0  0  0  0
  189.3830  175.5090  146.2280 C   0  0  0  0  0  0  0  0  0  0  0  0
  183.8090  179.0560  143.4890 C   0  0  0  0  0  3  0  0  0  0  0  0
  186.0710  177.5620  144.2000 C   0  0  0  0  0  0  0  0  0  0  0  0
  185.2750  177.1670  143.1130 C   0  0  0  0  0  3  0  0  0  0  0  0
  184.1480  177.9130  142.7580 C   0  0  0  0  0  3  0  0  0  0  0  0
  184.5940  179.4500  144.5760 C   0  0  0  0  0  3  0  0  0  0  0  0
  185.7220  178.7030  144.9310 C   0  0  0  0  0  3  0  0  0  0  0  0
  1 15  2  0  0  0  0
  2 16  2  0  0  0  0
  2 12  1  0  0  0  0
  3 21  2  0  0  0  0
  4 13  1  0  0  0  0
  4 14  2  0  0  0  0
  6  2  1  0  0  0  0
  7 11  1  0  0  0  0
  7  9  1  0  0  0  0
 10  8  1  0  0  0  0
 10 19  1  0  0  0  0
 11 14  1  6  0  0  0
 11 16  1  0  0  0  0
 12 23  1  6  0  0  0
 12  1  1  0  0  0  0
 13  5  1  6  0  0  0
 13  7  1  0  0  0  0
 15 20  1  0  0  0  0
 16  3  1  0  0  0  0
 17  8  1  0  0  0  0
 18 14  1  0  0  0  0
 18  6  2  0  0  0  0
 20 19  1  0  0  0  0
 21 15  1  0  0  0  0
 21 17  1  0  0  0  0
 22 26  1  0  0  0  0
 23 27  1  0  0  0  0
 24 23  2  0  0  0  0
 25 24  1  0  0  0  0
 25 22  2  0  0  0  0
 26 27  2  0  0  0  0
M  END
>  <MODEL>
6

>  <REMARK>
 VINA RESULT:      -7.5      2.749      5.631
  Name = 
  1 active torsions:
  status: ('A' for Active; 'I' for Inactive)
    1  A    between atoms: C_9  and  C_15
                            x       y       z     vdW  Elec       q    Type
                         _______ _______ _______ _____ _____    ______ ____

>  <TORSDO>
F 1

$$$$
=
 OpenBabel11052418243D

 27 31  0  0  1  0  0  0  0  0999 V2000
  188.0370  175.7610  142.7630 C   0  0  0  0  0  3  0  0  0  0  0  0
  190.4300  175.3900  143.2660 C   0  0  0  0  0  0  0  0  0  0  0  0
  189.4320  176.0430  145.4620 C   0  0  0  0  0  3  0  0  0  0  0  0
  194.0910  176.0760  144.6410 N   0  0  0  0  0  0  0  0  0  0  0  0
  194.3930  177.5930  146.4520 N   0  0  0  0  0  1  0  0  0  0  0  0
  191.5840  175.4060  142.3190 C   0  0  0  0  0  3  0  0  0  0  0  0
  192.3940  176.2900  146.2690 N   0  0  0  0  0  0  0  0  0  0  0  0
  187.0130  177.8190  146.7520 C   0  0  0  0  0  2  0  0  0  0  0  0
  192.0700  174.9320  146.7000 C   0  0  0  0  0  1  0  0  0  0  0  0
  186.6320  178.7170  145.5730 C   0  0  0  0  0  2  0  0  0  0  0  0
  191.8710  176.5740  144.9190 C   0  0  1  0  0  3  0  0  0  0  0  0
  189.1280  174.7470  142.8550 C   0  0  2  0  0  3  0  0  0  0  0  0
  193.8530  176.3010  146.0620 C   0  0  1  0  0  3  0  0  0  0  0  0
  192.9820  176.2370  144.0200 C   0  0  0  0  0  0  0  0  0  0  0  0
  187.5700  176.4240  143.8210 C   0  0  0  0  0  0  0  0  0  0  0  0
  190.5600  175.9270  144.5070 C   0  0  0  0  0  0  0  0  0  0  0  0
  187.2180  176.3530  146.3690 C   0  0  0  0  0  2  0  0  0  0  0  0
  192.7700  175.7910  142.6850 N   0  0  0  0  0  0  0  0  0  0  0  0
  185.7400  177.9840  144.5790 C   0  0  0  0  0  2  0  0  0  0  0  0
  186.5190  177.3260  143.5790 O   0  0  0  0  0  0  0  0  0  0  0  0
  188.1270  176.2130  145.1930 C   0  0  0  0  0  0  0  0  0  0  0  0
  189.2820  172.3060  139.3140 C   0  0  0  0  0  3  0  0  0  0  0  0
  189.2060  173.8890  141.6240 C   0  0  0  0  0  0  0  0  0  0  0  0
  189.8920  172.6640  141.6280 C   0  0  0  0  0  3  0  0  0  0  0  0
  189.9310  171.8750  140.4740 C   0  0  0  0  0  3  0  0  0  0  0  0
  188.5930  173.5220  139.3070 C   0  0  0  0  0  3  0  0  0  0  0  0
  188.5540  174.3100  140.4600 C   0  0  0  0  0  3  0  0  0  0  0  0
  1 12  1  0  0  0  0
  1 15  2  0  0  0  0
  2 16  2  0  0  0  0
  4 13  1  0  0  0  0
  6 18  2  0  0  0  0
  6  2  1  0  0  0  0
  7  9  1  0  0  0  0
 10  8  1  0  0  0  0
 11 14  1  6  0  0  0
 11  7  1  0  0  0  0
 12 23  1  6  0  0  0
 12  2  1  0  0  0  0
 13  7  1  0  0  0  0
 13  5  1  6  0  0  0
 14  4  2  0  0  0  0
 15 21  1  0  0  0  0
 16 11  1  0  0  0  0
 16  3  1  0  0  0  0
 17  8  1  0  0  0  0
 18 14  1  0  0  0  0
 19 10  1  0  0  0  0
 20 15  1  0  0  0  0
 20 19  1  0  0  0  0
 21  3  2  0  0  0  0
 21 17  1  0  0  0  0
 22 25  1  0  0  0  0
 23 24  1  0  0  0  0
 25 24  2  0  0  0  0
 26 22  2  0  0  0  0
 26 27  1  0  0  0  0
 27 23  2  0  0  0  0
M  END
>  <MODEL>
7

>  <REMARK>
 VINA RESULT:      -7.2      1.559      2.217
  Name = 
  1 active torsions:
  status: ('A' for Active; 'I' for Inactive)
    1  A    between atoms: C_9  and  C_15
                            x       y       z     vdW  Elec       q    Type
                         _______ _______ _______ _____ _____    ______ ____

>  <TORSDO>
F 1

$$$$
=
 OpenBabel11052418243D

 27 31  0  0  1  0  0  0  0  0999 V2000
  189.4650  176.8430  146.3210 C   0  0  0  0  0  3  0  0  0  0  0  0
  190.0130  175.4640  144.3420 C   0  0  0  0  0  0  0  0  0  0  0  0
  187.8340  176.5390  143.7590 C   0  0  0  0  0  3  0  0  0  0  0  0
  189.5750  172.8150  141.4180 N   0  0  0  0  0  0  0  0  0  0  0  0
  187.3880  172.2950  140.6310 N   0  0  0  0  0  1  0  0  0  0  0  0
  190.9340  174.2920  144.2630 C   0  0  0  0  0  3  0  0  0  0  0  0
  187.8980  174.4760  141.4720 N   0  0  0  0  0  0  0  0  0  0  0  0
  185.1020  177.6990  145.1220 C   0  0  0  0  0  2  0  0  0  0  0  0
  188.4760  175.6580  140.8360 C   0  0  0  0  0  1  0  0  0  0  0  0
  185.1610  177.0620  146.5120 C   0  0  0  0  0  2  0  0  0  0  0  0
  188.4620  174.2490  142.8170 C   0  0  1  0  0  3  0  0  0  0  0  0
  190.3960  176.6670  145.1690 C   0  0  2  0  0  3  0  0  0  0  0  0
  188.4090  173.3260  140.7060 C   0  0  1  0  0  3  0  0  0  0  0  0
  189.5860  173.3320  142.5900 C   0  0  0  0  0  0  0  0  0  0  0  0
  188.1750  177.1450  146.1720 C   0  0  0  0  0  0  0  0  0  0  0  0
  188.8460  175.4610  143.6480 C   0  0  0  0  0  0  0  0  0  0  0  0
  186.4360  178.2870  144.6580 C   0  0  0  0  0  2  0  0  0  0  0  0
  190.7320  173.3110  143.4350 N   0  0  0  0  0  0  0  0  0  0  0  0
  186.1020  177.8240  147.4370 C   0  0  0  0  0  2  0  0  0  0  0  0
  187.4310  177.3080  147.3540 O   0  0  0  0  0  0  0  0  0  0  0  0
  187.5540  177.3120  144.8210 C   0  0  0  0  0  0  0  0  0  0  0  0
  194.5410  176.7610  146.3250 C   0  0  0  0  0  3  0  0  0  0  0  0
  191.8370  176.7100  145.5960 C   0  0  0  0  0  0  0  0  0  0  0  0
  192.2220  176.3880  146.9070 C   0  0  0  0  0  3  0  0  0  0  0  0
  193.5710  176.4150  147.2710 C   0  0  0  0  0  3  0  0  0  0  0  0
  194.1630  177.0770  145.0170 C   0  0  0  0  0  3  0  0  0  0  0  0
  192.8140  177.0490  144.6540 C   0  0  0  0  0  3  0  0  0  0  0  0
  2 12  1  0  0  0  0
  3 21  2  0  0  0  0
  4 14  2  0  0  0  0
  6  2  1  0  0  0  0
  7 11  1  0  0  0  0
  8 10  1  0  0  0  0
  9  7  1  0  0  0  0
 10 19  1  0  0  0  0
 11 14  1  6  0  0  0
 11 16  1  0  0  0  0
 12 23  1  1  0  0  0
 12  1  1  0  0  0  0
 13  5  1  1  0  0  0
 13  4  1  0  0  0  0
 13  7  1  0  0  0  0
 14 18  1  0  0  0  0
 15  1  2  0  0  0  0
 15 20  1  0  0  0  0
 16  3  1  0  0  0  0
 16  2  2  0  0  0  0
 17 21  1  0  0  0  0
 17  8  1  0  0  0  0
 18  6  2  0  0  0  0
 20 19  1  0  0  0  0
 21 15  1  0  0  0  0
 22 25  1  0  0  0  0
 23 24  1  0  0  0  0
 24 25  2  0  0  0  0
 26 22  2  0  0  0  0
 27 26  1  0  0  0  0
 27 23  2  0  0  0  0
M  END
>  <MODEL>
8

>  <REMARK>
 VINA RESULT:      -7.1      2.447      5.589
  Name = 
  1 active torsions:
  status: ('A' for Active; 'I' for Inactive)
    1  A    between atoms: C_9  and  C_15
                            x       y       z     vdW  Elec       q    Type
                         _______ _______ _______ _____ _____    ______ ____

>  <TORSDO>
F 1

$$$$
=
 OpenBabel11052418243D

 27 31  0  0  1  0  0  0  0  0999 V2000
  187.3360  175.2910  143.3790 C   0  0  0  0  0  3  0  0  0  0  0  0
  189.0150  176.3180  144.8780 C   0  0  0  0  0  0  0  0  0  0  0  0
  190.3450  175.5100  142.9220 C   0  0  0  0  0  3  0  0  0  0  0  0
  192.3110  176.7070  147.0560 N   0  0  0  0  0  0  0  0  0  0  0  0
  194.2300  175.4060  146.5130 N   0  0  0  0  0  1  0  0  0  0  0  0
  188.9050  176.5750  146.3440 C   0  0  0  0  0  3  0  0  0  0  0  0
  192.7080  176.1100  144.8060 N   0  0  0  0  0  0  0  0  0  0  0  0
  190.3660  173.2010  140.6130 C   0  0  0  0  0  2  0  0  0  0  0  0
  192.6090  177.3460  144.0330 C   0  0  0  0  0  1  0  0  0  0  0  0
  189.3770  172.1850  141.1890 C   0  0  0  0  0  2  0  0  0  0  0  0
  191.3820  175.6390  145.2540 C   0  0  1  0  0  3  0  0  0  0  0  0
  187.8280  176.5660  143.9790 C   0  0  2  0  0  3  0  0  0  0  0  0
  193.3630  176.4860  146.0710 C   0  0  1  0  0  3  0  0  0  0  0  0
  191.2190  176.2260  146.5890 C   0  0  0  0  0  0  0  0  0  0  0  0
  188.0520  174.5710  142.5150 C   0  0  0  0  0  0  0  0  0  0  0  0
  190.1890  175.8880  144.3470 C   0  0  0  0  0  0  0  0  0  0  0  0
  189.8890  174.6510  140.7160 C   0  0  0  0  0  2  0  0  0  0  0  0
  189.9400  176.5420  147.1280 N   0  0  0  0  0  0  0  0  0  0  0  0
  187.9350  172.6070  140.9400 C   0  0  0  0  0  2  0  0  0  0  0  0
  187.4410  173.4090  142.0130 O   0  0  0  0  0  0  0  0  0  0  0  0
  189.4280  174.9830  142.0960 C   0  0  0  0  0  0  0  0  0  0  0  0
  184.6890  178.9050  145.7700 C   0  0  0  0  0  3  0  0  0  0  0  0
  186.7160  177.3610  144.6030 C   0  0  0  0  0  0  0  0  0  0  0  0
  185.8460  176.7910  145.5460 C   0  0  0  0  0  3  0  0  0  0  0  0
  184.8340  177.5610  146.1260 C   0  0  0  0  0  3  0  0  0  0  0  0
  185.5570  179.4790  144.8370 C   0  0  0  0  0  3  0  0  0  0  0  0
  186.5690  178.7090  144.2560 C   0  0  0  0  0  3  0  0  0  0  0  0
  1 12  1  0  0  0  0
  2  6  1  0  0  0  0
  3 16  1  0  0  0  0
  6 18  2  0  0  0  0
  7 11  1  0  0  0  0
  7 13  1  0  0  0  0
  8 17  1  0  0  0  0
  8 10  1  0  0  0  0
  9  7  1  0  0  0  0
 11 16  1  6  0  0  0
 11 14  1  0  0  0  0
 12 23  1  1  0  0  0
 12  2  1  0  0  0  0
 13  5  1  1  0  0  0
 13  4  1  0  0  0  0
 14  4  2  0  0  0  0
 14 18  1  0  0  0  0
 15  1  2  0  0  0  0
 16  2  2  0  0  0  0
 17 21  1  0  0  0  0
 19 10  1  0  0  0  0
 19 20  1  0  0  0  0
 20 15  1  0  0  0  0
 21 15  1  0  0  0  0
 21  3  2  0  0  0  0
 22 25  1  0  0  0  0
 23 24  1  0  0  0  0
 24 25  2  0  0  0  0
 26 22  2  0  0  0  0
 27 23  2  0  0  0  0
 27 26  1  0  0  0  0
M  END
>  <MODEL>
9

>  <REMARK>
 VINA RESULT:      -7.0      1.666      5.452
  Name = 
  1 active torsions:
  status: ('A' for Active; 'I' for Inactive)
    1  A    between atoms: C_9  and  C_15
                            x       y       z     vdW  Elec       q    Type
                         _______ _______ _______ _____ _____    ______ ____

>  <TORSDO>
F 1

$$$$
