=
 OpenBabel11052419153D

 32 37  0  0  1  0  0  0  0  0999 V2000
  188.9650  175.2300  144.5230 C   0  0  0  0  0  0  0  0  0  0  0  0
  187.4100  177.0710  144.1180 C   0  0  0  0  0  0  0  0  0  0  0  0
  189.7910  174.3550  145.4420 C   0  0  0  0  0  2  0  0  0  0  0  0
  188.1030  176.2450  145.0460 C   0  0  0  0  0  0  0  0  0  0  0  0
  186.3800  177.9280  144.2920 C   0  0  1  0  0  3  0  0  0  0  0  0
  185.4090  177.9760  140.2350 C   0  0  0  0  0  3  0  0  0  0  0  0
  187.7000  176.9880  142.7660 C   0  0  0  0  0  0  0  0  0  0  0  0
  184.6400  178.4990  142.5190 C   0  0  0  0  0  3  0  0  0  0  0  0
  186.0760  178.5980  142.9810 C   0  0  2  0  0  3  0  0  0  0  0  0
  185.7930  178.4950  146.6660 C   0  0  0  0  0  0  0  0  0  0  0  0
  188.1790  176.5990  146.5240 C   0  0  1  0  0  3  0  0  0  0  0  0
  185.3500  177.8890  145.3840 C   0  0  0  0  0  2  0  0  0  0  0  0
  186.9010  176.3680  147.3010 C   0  0  0  0  0  2  0  0  0  0  0  0
  189.3500  175.9570  147.2610 C   0  0  0  0  0  2  0  0  0  0  0  0
  188.5280  176.0020  142.2480 C   0  0  0  0  0  3  0  0  0  0  0  0
  185.6190  179.7230  146.8820 O   0  0  0  0  0  0  0  0  0  0  0  0
  189.1520  175.1060  143.1170 C   0  0  0  0  0  0  0  0  0  0  0  0
  186.9590  177.8280  142.0650 C   0  0  2  0  0  3  0  0  0  0  0  0
  186.3740  177.6680  147.6680 N   0  0  0  0  0  2  0  0  0  0  0  0
  189.4190  174.4860  146.9080 C   0  0  0  0  0  2  0  0  0  0  0  0
  184.3450  178.2690  141.2290 C   0  0  0  0  0  3  0  0  0  0  0  0
  186.6660  177.7370  140.6280 C   0  0  0  0  0  3  0  0  0  0  0  0
  189.9280  172.5430  140.4010 C   0  0  0  0  0  0  0  0  0  0  0  0
  189.2100  171.7640  139.5550 F   0  0  0  0  0  0  0  0  0  0  0  0
  190.0460  174.0700  142.4890 C   0  0  2  0  0  3  0  0  0  0  0  0
  191.1940  172.8410  140.1000 C   0  0  0  0  0  3  0  0  0  0  0  0
  191.2200  174.7250  141.7520 C   0  0  0  0  0  2  0  0  0  0  0  0
  189.2950  173.0900  141.6160 C   0  0  0  0  0  0  0  0  0  0  0  0
  188.1430  172.7000  141.9460 O   0  0  0  0  0  0  0  0  0  0  0  0
  192.0480  173.6660  141.0250 C   0  0  2  0  0  3  0  0  0  0  0  0
  193.7670  175.3490  141.0080 O   0  0  0  0  0  1  0  0  0  0  0  0
  193.2130  174.2960  140.2750 C   0  0  0  0  0  2  0  0  0  0  0  0
  1  4  1  0  0  0  0
  1  3  1  0  0  0  0
  2  5  1  0  0  0  0
  2  4  2  0  0  0  0
  3 20  1  0  0  0  0
  4 11  1  0  0  0  0
  5 12  1  6  0  0  0
  6 22  2  0  0  0  0
  6 21  1  0  0  0  0
  7  2  1  0  0  0  0
  9  8  1  6  0  0  0
  9  5  1  0  0  0  0
 10 16  2  0  0  0  0
 10 19  1  0  0  0  0
 11 14  1  1  0  0  0
 11 13  1  0  0  0  0
 12 10  1  0  0  0  0
 13 19  1  0  0  0  0
 15  7  2  0  0  0  0
 15 17  1  0  0  0  0
 17  1  2  0  0  0  0
 18 22  1  6  0  0  0
 18  7  1  0  0  0  0
 18  9  1  0  0  0  0
 20 14  1  0  0  0  0
 21  8  2  0  0  0  0
 23 28  1  0  0  0  0
 24 23  1  0  0  0  0
 25 17  1  6  0  0  0
 26 23  2  0  0  0  0
 26 30  1  0  0  0  0
 27 25  1  0  0  0  0
 28 29  2  0  0  0  0
 28 25  1  0  0  0  0
 30 32  1  6  0  0  0
 30 27  1  0  0  0  0
 32 31  1  0  0  0  0
M  END
>  <MODEL>
1

>  <REMARK>
 VINA RESULT:      -9.2      0.000      0.000
  Name = 
  2 active torsions:
  status: ('A' for Active; 'I' for Inactive)
    1  A    between atoms: C_15  and  C_26
    2  A    between atoms: C_16  and  C_27
                            x       y       z     vdW  Elec       q    Type
                         _______ _______ _______ _____ _____    ______ ____

>  <TORSDO>
F 2

$$$$
=
 OpenBabel11052419153D

 32 37  0  0  1  0  0  0  0  0999 V2000
  188.9610  175.4540  144.2680 C   0  0  0  0  0  0  0  0  0  0  0  0
  187.2270  177.1650  144.0840 C   0  0  0  0  0  0  0  0  0  0  0  0
  189.9260  174.6090  145.0740 C   0  0  0  0  0  2  0  0  0  0  0  0
  188.0560  176.3570  144.9100 C   0  0  0  0  0  0  0  0  0  0  0  0
  186.1420  177.9150  144.3790 C   0  0  1  0  0  3  0  0  0  0  0  0
  184.8770  178.0970  140.4080 C   0  0  0  0  0  3  0  0  0  0  0  0
  187.4230  177.1840  142.7120 C   0  0  0  0  0  0  0  0  0  0  0  0
  184.2340  178.4220  142.7670 C   0  0  0  0  0  3  0  0  0  0  0  0
  185.6860  178.6250  143.1360 C   0  0  2  0  0  3  0  0  0  0  0  0
  185.6850  178.2960  146.8180 C   0  0  0  0  0  0  0  0  0  0  0  0
  188.2090  176.6350  146.3990 C   0  0  1  0  0  3  0  0  0  0  0  0
  185.2030  177.7230  145.5340 C   0  0  0  0  0  2  0  0  0  0  0  0
  187.0160  176.2460  147.2450 C   0  0  0  0  0  2  0  0  0  0  0  0
  189.4820  176.0620  147.0130 C   0  0  0  0  0  2  0  0  0  0  0  0
  188.2940  176.3070  142.0800 C   0  0  0  0  0  3  0  0  0  0  0  0
  185.4210  179.4880  147.1200 O   0  0  0  0  0  0  0  0  0  0  0  0
  189.0550  175.4250  142.8490 C   0  0  0  0  0  0  0  0  0  0  0  0
  186.5630  177.9900  142.1170 C   0  0  2  0  0  3  0  0  0  0  0  0
  186.4070  177.4710  147.7260 N   0  0  0  0  0  2  0  0  0  0  0  0
  189.6520  174.6250  146.5670 C   0  0  0  0  0  2  0  0  0  0  0  0
  183.8670  178.2370  141.4890 C   0  0  0  0  0  3  0  0  0  0  0  0
  186.1750  177.9520  140.7000 C   0  0  0  0  0  3  0  0  0  0  0  0
  192.4570  173.7740  142.3500 C   0  0  0  0  0  0  0  0  0  0  0  0
  193.7430  174.0650  142.6650 F   0  0  0  0  0  0  0  0  0  0  0  0
  189.9870  174.5100  142.0990 C   0  0  2  0  0  3  0  0  0  0  0  0
  192.1120  172.5050  142.1180 C   0  0  0  0  0  3  0  0  0  0  0  0
  189.6810  173.0380  142.3990 C   0  0  0  0  0  2  0  0  0  0  0  0
  191.4460  174.8470  142.3120 C   0  0  0  0  0  0  0  0  0  0  0  0
  191.8110  176.0490  142.4110 O   0  0  0  0  0  0  0  0  0  0  0  0
  190.7090  172.1320  141.7230 C   0  0  2  0  0  3  0  0  0  0  0  0
  190.8000  169.8600  140.9390 O   0  0  0  0  0  1  0  0  0  0  0  0
  190.4300  170.6650  142.0190 C   0  0  0  0  0  2  0  0  0  0  0  0
  1  4  1  0  0  0  0
  1  3  1  0  0  0  0
  2  5  1  0  0  0  0
  2  4  2  0  0  0  0
  3 20  1  0  0  0  0
  4 11  1  0  0  0  0
  5 12  1  6  0  0  0
  6 22  2  0  0  0  0
  6 21  1  0  0  0  0
  7  2  1  0  0  0  0
  9  8  1  6  0  0  0
  9  5  1  0  0  0  0
 10 16  2  0  0  0  0
 10 19  1  0  0  0  0
 11 14  1  1  0  0  0
 11 13  1  0  0  0  0
 12 10  1  0  0  0  0
 13 19  1  0  0  0  0
 15  7  2  0  0  0  0
 15 17  1  0  0  0  0
 17  1  2  0  0  0  0
 18 22  1  6  0  0  0
 18  7  1  0  0  0  0
 18  9  1  0  0  0  0
 20 14  1  0  0  0  0
 21  8  2  0  0  0  0
 23 24  1  0  0  0  0
 25 28  1  0  0  0  0
 25 27  1  0  0  0  0
 25 17  1  1  0  0  0
 26 23  2  0  0  0  0
 28 23  1  0  0  0  0
 28 29  2  0  0  0  0
 30 32  1  1  0  0  0
 30 26  1  0  0  0  0
 30 27  1  0  0  0  0
 31 32  1  0  0  0  0
M  END
>  <MODEL>
2

>  <REMARK>
 VINA RESULT:      -8.7      1.541      2.250
  Name = 
  2 active torsions:
  status: ('A' for Active; 'I' for Inactive)
    1  A    between atoms: C_15  and  C_26
    2  A    between atoms: C_16  and  C_27
                            x       y       z     vdW  Elec       q    Type
                         _______ _______ _______ _____ _____    ______ ____

>  <TORSDO>
F 2

$$$$
=
 OpenBabel11052419153D

 32 37  0  0  1  0  0  0  0  0999 V2000
  189.0890  175.3390  143.5450 C   0  0  0  0  0  0  0  0  0  0  0  0
  187.0710  176.5910  144.1240 C   0  0  0  0  0  0  0  0  0  0  0  0
  190.0110  174.6780  142.5420 C   0  0  0  0  0  2  0  0  0  0  0  0
  187.9250  176.0540  143.1200 C   0  0  0  0  0  0  0  0  0  0  0  0
  186.0630  177.4860  144.0430 C   0  0  1  0  0  3  0  0  0  0  0  0
  186.1470  178.3220  148.1290 C   0  0  0  0  0  3  0  0  0  0  0  0
  187.2870  176.2780  145.4560 C   0  0  0  0  0  0  0  0  0  0  0  0
  185.3640  179.0700  145.9140 C   0  0  0  0  0  3  0  0  0  0  0  0
  185.4450  177.6490  145.4040 C   0  0  2  0  0  3  0  0  0  0  0  0
  185.2560  178.0490  141.7330 C   0  0  0  0  0  0  0  0  0  0  0  0
  187.4870  175.9690  141.6650 C   0  0  1  0  0  3  0  0  0  0  0  0
  185.8760  178.5400  142.9910 C   0  0  0  0  0  2  0  0  0  0  0  0
  187.4750  177.2890  140.9250 C   0  0  0  0  0  2  0  0  0  0  0  0
  188.2420  174.9280  140.8450 C   0  0  0  0  0  2  0  0  0  0  0  0
  188.4170  175.5900  145.8780 C   0  0  0  0  0  3  0  0  0  0  0  0
  184.0050  178.0450  141.6010 O   0  0  0  0  0  0  0  0  0  0  0  0
  189.3330  175.1320  144.9320 C   0  0  0  0  0  0  0  0  0  0  0  0
  186.3970  176.8650  146.2350 C   0  0  2  0  0  3  0  0  0  0  0  0
  186.0900  177.6260  140.6600 N   0  0  0  0  0  2  0  0  0  0  0  0
  189.7280  175.0690  141.1020 C   0  0  0  0  0  2  0  0  0  0  0  0
  185.6350  179.3590  147.1970 C   0  0  0  0  0  3  0  0  0  0  0  0
  186.5410  177.1270  147.6740 C   0  0  0  0  0  3  0  0  0  0  0  0
  191.9310  172.3510  144.6830 C   0  0  0  0  0  0  0  0  0  0  0  0
  192.0040  171.1270  144.1030 F   0  0  0  0  0  0  0  0  0  0  0  0
  190.5300  174.3850  145.4590 C   0  0  2  0  0  3  0  0  0  0  0  0
  193.0580  173.0040  144.9730 C   0  0  0  0  0  3  0  0  0  0  0  0
  191.8240  175.1700  145.2200 C   0  0  0  0  0  2  0  0  0  0  0  0
  190.6160  172.9660  144.9420 C   0  0  0  0  0  0  0  0  0  0  0  0
  189.5680  172.2860  144.7770 O   0  0  0  0  0  0  0  0  0  0  0  0
  193.0350  174.3450  145.6550 C   0  0  2  0  0  3  0  0  0  0  0  0
  194.6120  175.9640  146.4790 O   0  0  0  0  0  1  0  0  0  0  0  0
  194.3330  175.1030  145.4150 C   0  0  0  0  0  2  0  0  0  0  0  0
  1 17  1  0  0  0  0
  2  7  2  0  0  0  0
  3  1  1  0  0  0  0
  4  1  2  0  0  0  0
  4  2  1  0  0  0  0
  5 12  1  1  0  0  0
  5  2  1  0  0  0  0
  5  9  1  0  0  0  0
  7 15  1  0  0  0  0
  7 18  1  0  0  0  0
  8 21  2  0  0  0  0
  9  8  1  1  0  0  0
  9 18  1  0  0  0  0
 10 12  1  0  0  0  0
 11 14  1  6  0  0  0
 11  4  1  0  0  0  0
 13 11  1  0  0  0  0
 14 20  1  0  0  0  0
 16 10  2  0  0  0  0
 17 15  2  0  0  0  0
 18 22  1  1  0  0  0
 19 13  1  0  0  0  0
 19 10  1  0  0  0  0
 20  3  1  0  0  0  0
 21  6  1  0  0  0  0
 22  6  2  0  0  0  0
 23 28  1  0  0  0  0
 23 26  2  0  0  0  0
 24 23  1  0  0  0  0
 25 17  1  6  0  0  0
 26 30  1  0  0  0  0
 27 25  1  0  0  0  0
 27 30  1  0  0  0  0
 28 25  1  0  0  0  0
 29 28  2  0  0  0  0
 30 32  1  6  0  0  0
 32 31  1  0  0  0  0
M  END
>  <MODEL>
3

>  <REMARK>
 VINA RESULT:      -8.7      2.714      4.648
  Name = 
  2 active torsions:
  status: ('A' for Active; 'I' for Inactive)
    1  A    between atoms: C_15  and  C_26
    2  A    between atoms: C_16  and  C_27
                            x       y       z     vdW  Elec       q    Type
                         _______ _______ _______ _____ _____    ______ ____

>  <TORSDO>
F 2

$$$$
=
 OpenBabel11052419153D

 32 37  0  0  1  0  0  0  0  0999 V2000
  190.1760  176.0010  145.0090 C   0  0  0  0  0  0  0  0  0  0  0  0
  190.5120  173.8770  143.8500 C   0  0  0  0  0  0  0  0  0  0  0  0
  190.5250  177.0070  146.0860 C   0  0  0  0  0  2  0  0  0  0  0  0
  190.9410  174.8050  144.8390 C   0  0  0  0  0  0  0  0  0  0  0  0
  191.1370  172.8080  143.3070 C   0  0  1  0  0  3  0  0  0  0  0  0
  188.5810  172.6760  140.0130 C   0  0  0  0  0  3  0  0  0  0  0  0
  189.3010  174.0640  143.2030 C   0  0  0  0  0  0  0  0  0  0  0  0
  190.7340  171.9240  140.9510 C   0  0  0  0  0  3  0  0  0  0  0  0
  190.1980  172.1300  142.3490 C   0  0  2  0  0  3  0  0  0  0  0  0
  193.2410  172.0520  144.4480 C   0  0  0  0  0  0  0  0  0  0  0  0
  191.9820  174.4300  145.8850 C   0  0  1  0  0  3  0  0  0  0  0  0
  192.6180  172.5850  143.2090 C   0  0  0  0  0  2  0  0  0  0  0  0
  193.4030  174.3500  145.3690 C   0  0  0  0  0  2  0  0  0  0  0  0
  191.9410  175.2910  147.1430 C   0  0  0  0  0  2  0  0  0  0  0  0
  188.5550  175.2240  143.3570 C   0  0  0  0  0  3  0  0  0  0  0  0
  193.3150  170.8100  144.6380 O   0  0  0  0  0  0  0  0  0  0  0  0
  188.9930  176.2070  144.2440 C   0  0  0  0  0  0  0  0  0  0  0  0
  189.0750  173.1040  142.3250 C   0  0  2  0  0  3  0  0  0  0  0  0
  193.7970  172.9540  145.3980 N   0  0  0  0  0  2  0  0  0  0  0  0
  191.8660  176.7520  146.7500 C   0  0  0  0  0  2  0  0  0  0  0  0
  189.9540  172.1250  139.8760 C   0  0  0  0  0  3  0  0  0  0  0  0
  188.1560  173.1730  141.1810 C   0  0  0  0  0  3  0  0  0  0  0  0
  186.3880  178.6340  142.8760 C   0  0  0  0  0  0  0  0  0  0  0  0
  185.9690  179.0320  141.6500 F   0  0  0  0  0  0  0  0  0  0  0  0
  188.1290  177.4350  144.3700 C   0  0  2  0  0  3  0  0  0  0  0  0
  185.5740  178.7780  143.9240 C   0  0  0  0  0  3  0  0  0  0  0  0
  186.9310  177.1760  145.2910 C   0  0  0  0  0  2  0  0  0  0  0  0
  187.7130  178.0060  143.0330 C   0  0  0  0  0  0  0  0  0  0  0  0
  188.5140  177.9900  142.0600 O   0  0  0  0  0  0  0  0  0  0  0  0
  186.0060  178.3930  145.3120 C   0  0  2  0  0  3  0  0  0  0  0  0
  183.6910  178.8730  145.7630 O   0  0  0  0  0  1  0  0  0  0  0  0
  184.8010  178.1530  146.2120 C   0  0  0  0  0  2  0  0  0  0  0  0
  1  3  1  0  0  0  0
  2  4  2  0  0  0  0
  3 20  1  0  0  0  0
  4  1  1  0  0  0  0
  4 11  1  0  0  0  0
  5 12  1  6  0  0  0
  5  2  1  0  0  0  0
  6 22  2  0  0  0  0
  7 15  2  0  0  0  0
  7  2  1  0  0  0  0
  9  8  1  6  0  0  0
  9  5  1  0  0  0  0
 10 16  2  0  0  0  0
 10 19  1  0  0  0  0
 11 13  1  6  0  0  0
 11 14  1  0  0  0  0
 12 10  1  0  0  0  0
 13 19  1  0  0  0  0
 15 17  1  0  0  0  0
 17  1  2  0  0  0  0
 18 22  1  6  0  0  0
 18  9  1  0  0  0  0
 18  7  1  0  0  0  0
 20 14  1  0  0  0  0
 21  6  1  0  0  0  0
 21  8  2  0  0  0  0
 23 28  1  0  0  0  0
 23 26  2  0  0  0  0
 24 23  1  0  0  0  0
 25 17  1  6  0  0  0
 25 27  1  0  0  0  0
 26 30  1  0  0  0  0
 27 30  1  0  0  0  0
 28 25  1  0  0  0  0
 29 28  2  0  0  0  0
 30 32  1  1  0  0  0
 31 32  1  0  0  0  0
M  END
>  <MODEL>
4

>  <REMARK>
 VINA RESULT:      -8.6      3.077      6.984
  Name = 
  2 active torsions:
  status: ('A' for Active; 'I' for Inactive)
    1  A    between atoms: C_15  and  C_26
    2  A    between atoms: C_16  and  C_27
                            x       y       z     vdW  Elec       q    Type
                         _______ _______ _______ _____ _____    ______ ____

>  <TORSDO>
F 2

$$$$
=
 OpenBabel11052419153D

 32 37  0  0  1  0  0  0  0  0999 V2000
  189.3360  175.2100  143.0800 C   0  0  0  0  0  0  0  0  0  0  0  0
  191.7070  174.6940  143.3650 C   0  0  0  0  0  0  0  0  0  0  0  0
  187.9570  174.9050  142.5330 C   0  0  0  0  0  2  0  0  0  0  0  0
  190.4270  174.3080  142.8790 C   0  0  0  0  0  0  0  0  0  0  0  0
  192.8430  173.9830  143.5350 C   0  0  1  0  0  3  0  0  0  0  0  0
  194.5060  176.7850  146.1390 C   0  0  0  0  0  3  0  0  0  0  0  0
  191.9020  175.9730  143.8610 C   0  0  0  0  0  0  0  0  0  0  0  0
  194.6260  174.4730  145.2890 C   0  0  0  0  0  3  0  0  0  0  0  0
  193.9280  174.9030  144.0180 C   0  0  2  0  0  3  0  0  0  0  0  0
  192.8910  171.7000  142.4900 C   0  0  0  0  0  0  0  0  0  0  0  0
  190.2590  173.1350  141.9240 C   0  0  1  0  0  3  0  0  0  0  0  0
  192.9540  172.5000  143.7410 C   0  0  0  0  0  2  0  0  0  0  0  0
  190.4120  171.7700  142.5570 C   0  0  0  0  0  2  0  0  0  0  0  0
  188.9760  173.1790  141.1010 C   0  0  0  0  0  2  0  0  0  0  0  0
  190.8480  176.8530  144.0660 C   0  0  0  0  0  3  0  0  0  0  0  0
  193.9420  171.4410  141.8480 O   0  0  0  0  0  0  0  0  0  0  0  0
  189.5580  176.4740  143.6960 C   0  0  0  0  0  0  0  0  0  0  0  0
  193.1490  176.1460  144.2620 C   0  0  2  0  0  3  0  0  0  0  0  0
  191.6390  171.1890  142.0480 N   0  0  0  0  0  2  0  0  0  0  0  0
  187.8060  173.4860  142.0130 C   0  0  0  0  0  2  0  0  0  0  0  0
  194.9410  175.3680  146.2390 C   0  0  0  0  0  3  0  0  0  0  0  0
  193.6240  177.1660  145.2070 C   0  0  0  0  0  3  0  0  0  0  0  0
  186.4130  178.3380  142.6090 C   0  0  0  0  0  0  0  0  0  0  0  0
  185.8370  178.6850  141.4310 F   0  0  0  0  0  0  0  0  0  0  0  0
  188.4650  177.4820  143.9350 C   0  0  2  0  0  3  0  0  0  0  0  0
  185.6590  178.2640  143.7080 C   0  0  0  0  0  3  0  0  0  0  0  0
  187.4120  176.9380  144.9080 C   0  0  0  0  0  2  0  0  0  0  0  0
  187.8480  178.0030  142.6560 C   0  0  0  0  0  0  0  0  0  0  0  0
  188.5670  178.1970  141.6390 O   0  0  0  0  0  0  0  0  0  0  0  0
  186.2550  177.9260  145.0470 C   0  0  2  0  0  3  0  0  0  0  0  0
  184.1340  178.3050  146.1180 O   0  0  0  0  0  1  0  0  0  0  0  0
  185.1910  177.3990  146.0010 C   0  0  0  0  0  2  0  0  0  0  0  0
  1 17  1  0  0  0  0
  2  5  1  0  0  0  0
  2  7  2  0  0  0  0
  3  1  1  0  0  0  0
  4  1  2  0  0  0  0
  4  2  1  0  0  0  0
  5 12  1  1  0  0  0
  5  9  1  0  0  0  0
  6 21  1  0  0  0  0
  7 15  1  0  0  0  0
  7 18  1  0  0  0  0
  8 21  2  0  0  0  0
  9 18  1  0  0  0  0
  9  8  1  1  0  0  0
 10 12  1  0  0  0  0
 11 14  1  1  0  0  0
 11 13  1  0  0  0  0
 11  4  1  0  0  0  0
 14 20  1  0  0  0  0
 16 10  2  0  0  0  0
 17 15  2  0  0  0  0
 18 22  1  1  0  0  0
 19 10  1  0  0  0  0
 19 13  1  0  0  0  0
 20  3  1  0  0  0  0
 22  6  2  0  0  0  0
 23 28  1  0  0  0  0
 23 26  2  0  0  0  0
 24 23  1  0  0  0  0
 25 17  1  6  0  0  0
 25 27  1  0  0  0  0
 26 30  1  0  0  0  0
 27 30  1  0  0  0  0
 28 25  1  0  0  0  0
 29 28  2  0  0  0  0
 30 32  1  1  0  0  0
 32 31  1  0  0  0  0
M  END
>  <MODEL>
5

>  <REMARK>
 VINA RESULT:      -7.9      3.529      7.807
  Name = 
  2 active torsions:
  status: ('A' for Active; 'I' for Inactive)
    1  A    between atoms: C_15  and  C_26
    2  A    between atoms: C_16  and  C_27
                            x       y       z     vdW  Elec       q    Type
                         _______ _______ _______ _____ _____    ______ ____

>  <TORSDO>
F 2

$$$$
=
 OpenBabel11052419153D

 32 37  0  0  1  0  0  0  0  0999 V2000
  189.4760  174.6940  142.7210 C   0  0  0  0  0  0  0  0  0  0  0  0
  191.9030  174.7970  142.9850 C   0  0  0  0  0  0  0  0  0  0  0  0
  188.2270  174.2210  142.0080 C   0  0  0  0  0  2  0  0  0  0  0  0
  190.7740  174.2570  142.3080 C   0  0  0  0  0  0  0  0  0  0  0  0
  193.2000  174.4180  142.9860 C   0  0  1  0  0  3  0  0  0  0  0  0
  194.0660  176.5130  146.4880 C   0  0  0  0  0  3  0  0  0  0  0  0
  191.7380  175.8310  143.8920 C   0  0  0  0  0  0  0  0  0  0  0  0
  194.8190  174.7600  144.9250 C   0  0  0  0  0  3  0  0  0  0  0  0
  193.9890  175.3830  143.8250 C   0  0  2  0  0  3  0  0  0  0  0  0
  193.8690  172.7370  141.2460 C   0  0  0  0  0  0  0  0  0  0  0  0
  190.9210  173.4820  141.0060 C   0  0  1  0  0  3  0  0  0  0  0  0
  193.7370  173.0470  142.6930 C   0  0  0  0  0  2  0  0  0  0  0  0
  191.4780  172.0840  141.1570 C   0  0  0  0  0  2  0  0  0  0  0  0
  189.6550  173.4420  140.1570 C   0  0  0  0  0  2  0  0  0  0  0  0
  190.4820  176.2570  144.3040 C   0  0  0  0  0  3  0  0  0  0  0  0
  194.9310  173.0170  140.6310 O   0  0  0  0  0  0  0  0  0  0  0  0
  189.3440  175.6820  143.7370 C   0  0  0  0  0  0  0  0  0  0  0  0
  192.8940  176.1980  144.4140 C   0  0  2  0  0  3  0  0  0  0  0  0
  192.8040  172.0780  140.5710 N   0  0  0  0  0  2  0  0  0  0  0  0
  188.4740  173.0820  141.0340 C   0  0  0  0  0  2  0  0  0  0  0  0
  194.8920  175.3280  146.1400 C   0  0  0  0  0  3  0  0  0  0  0  0
  193.0850  176.9260  145.6770 C   0  0  0  0  0  3  0  0  0  0  0  0
  187.1720  177.4530  146.3250 C   0  0  0  0  0  0  0  0  0  0  0  0
  187.2190  177.6640  147.6630 F   0  0  0  0  0  0  0  0  0  0  0  0
  188.0160  176.2000  144.2220 C   0  0  2  0  0  3  0  0  0  0  0  0
  186.4510  178.2740  145.5580 C   0  0  0  0  0  3  0  0  0  0  0  0
  187.6220  177.4870  143.4880 C   0  0  0  0  0  2  0  0  0  0  0  0
  187.9530  176.3550  145.7250 C   0  0  0  0  0  0  0  0  0  0  0  0
  188.5270  175.5180  146.4730 O   0  0  0  0  0  0  0  0  0  0  0  0
  186.3310  178.0590  144.0740 C   0  0  2  0  0  3  0  0  0  0  0  0
  185.1890  180.1720  144.2180 O   0  0  0  0  0  1  0  0  0  0  0  0
  185.9280  179.3460  143.3670 C   0  0  0  0  0  2  0  0  0  0  0  0
  1 17  1  0  0  0  0
  2  5  1  0  0  0  0
  2  7  2  0  0  0  0
  3  1  1  0  0  0  0
  4  1  2  0  0  0  0
  4  2  1  0  0  0  0
  5 12  1  1  0  0  0
  5  9  1  0  0  0  0
  7 15  1  0  0  0  0
  7 18  1  0  0  0  0
  8 21  2  0  0  0  0
  9 18  1  0  0  0  0
  9  8  1  1  0  0  0
 10 12  1  0  0  0  0
 11 14  1  1  0  0  0
 11 13  1  0  0  0  0
 11  4  1  0  0  0  0
 14 20  1  0  0  0  0
 16 10  2  0  0  0  0
 17 15  2  0  0  0  0
 18 22  1  1  0  0  0
 19 13  1  0  0  0  0
 19 10  1  0  0  0  0
 20  3  1  0  0  0  0
 21  6  1  0  0  0  0
 22  6  2  0  0  0  0
 23 24  1  0  0  0  0
 25 17  1  1  0  0  0
 25 28  1  0  0  0  0
 26 23  2  0  0  0  0
 27 30  1  0  0  0  0
 27 25  1  0  0  0  0
 28 23  1  0  0  0  0
 28 29  2  0  0  0  0
 30 32  1  6  0  0  0
 30 26  1  0  0  0  0
 32 31  1  0  0  0  0
M  END
>  <MODEL>
6

>  <REMARK>
 VINA RESULT:      -7.8      3.647      8.031
  Name = 
  2 active torsions:
  status: ('A' for Active; 'I' for Inactive)
    1  A    between atoms: C_15  and  C_26
    2  A    between atoms: C_16  and  C_27
                            x       y       z     vdW  Elec       q    Type
                         _______ _______ _______ _____ _____    ______ ____

>  <TORSDO>
F 2

$$$$
=
 OpenBabel11052419153D

 32 37  0  0  1  0  0  0  0  0999 V2000
  188.2240  175.1510  143.0700 C   0  0  0  0  0  0  0  0  0  0  0  0
  190.2790  175.5440  144.3320 C   0  0  0  0  0  0  0  0  0  0  0  0
  187.4530  174.5050  141.9380 C   0  0  0  0  0  2  0  0  0  0  0  0
  189.6050  174.8480  143.2910 C   0  0  0  0  0  0  0  0  0  0  0  0
  191.4740  175.3170  144.9200 C   0  0  1  0  0  3  0  0  0  0  0  0
  190.5580  177.6540  148.2520 C   0  0  0  0  0  3  0  0  0  0  0  0
  189.6510  176.5920  144.9850 C   0  0  0  0  0  0  0  0  0  0  0  0
  192.0580  175.9310  147.3240 C   0  0  0  0  0  3  0  0  0  0  0  0
  191.7380  176.4040  145.9250 C   0  0  2  0  0  3  0  0  0  0  0  0
  192.9710  173.6480  143.7910 C   0  0  0  0  0  0  0  0  0  0  0  0
  190.3660  174.0370  142.2510 C   0  0  1  0  0  3  0  0  0  0  0  0
  192.2000  174.0060  145.0090 C   0  0  0  0  0  2  0  0  0  0  0  0
  190.9190  172.7200  142.7510 C   0  0  0  0  0  2  0  0  0  0  0  0
  189.6010  173.8140  140.9510 C   0  0  0  0  0  2  0  0  0  0  0  0
  188.3100  176.8890  144.7820 C   0  0  0  0  0  3  0  0  0  0  0  0
  194.1670  174.0200  143.6640 O   0  0  0  0  0  0  0  0  0  0  0  0
  187.5830  176.1620  143.8390 C   0  0  0  0  0  0  0  0  0  0  0  0
  190.4310  177.1130  145.9140 C   0  0  2  0  0  3  0  0  0  0  0  0
  192.3630  172.8410  142.7890 N   0  0  0  0  0  2  0  0  0  0  0  0
  188.1920  173.3600  141.2700 C   0  0  0  0  0  2  0  0  0  0  0  0
  191.5500  176.5580  148.3980 C   0  0  0  0  0  3  0  0  0  0  0  0
  189.9940  177.9140  147.0660 C   0  0  0  0  0  3  0  0  0  0  0  0
  184.5420  178.2910  144.7160 C   0  0  0  0  0  0  0  0  0  0  0  0
  184.1130  178.9870  145.7980 F   0  0  0  0  0  0  0  0  0  0  0  0
  186.1370  176.5450  143.6620 C   0  0  2  0  0  3  0  0  0  0  0  0
  184.0730  178.6070  143.5070 C   0  0  0  0  0  3  0  0  0  0  0  0
  185.9330  177.3620  142.3810 C   0  0  0  0  0  2  0  0  0  0  0  0
  185.5530  177.2290  144.8780 C   0  0  0  0  0  0  0  0  0  0  0  0
  185.8900  176.8620  146.0350 O   0  0  0  0  0  0  0  0  0  0  0  0
  184.4850  177.8390  142.2810 C   0  0  2  0  0  3  0  0  0  0  0  0
  183.2820  178.0830  140.2110 O   0  0  0  0  0  1  0  0  0  0  0  0
  184.2620  178.6630  141.0200 C   0  0  0  0  0  2  0  0  0  0  0  0
  1  4  2  0  0  0  0
  1 17  1  0  0  0  0
  2  5  1  0  0  0  0
  2  7  2  0  0  0  0
  3  1  1  0  0  0  0
  4  2  1  0  0  0  0
  5 12  1  1  0  0  0
  5  9  1  0  0  0  0
  6 21  1  0  0  0  0
  7 18  1  0  0  0  0
  8 21  2  0  0  0  0
  9  8  1  1  0  0  0
 10 12  1  0  0  0  0
 11 14  1  6  0  0  0
 11 13  1  0  0  0  0
 11  4  1  0  0  0  0
 13 19  1  0  0  0  0
 14 20  1  0  0  0  0
 15  7  1  0  0  0  0
 16 10  2  0  0  0  0
 17 15  2  0  0  0  0
 18  9  1  0  0  0  0
 18 22  1  1  0  0  0
 19 10  1  0  0  0  0
 20  3  1  0  0  0  0
 22  6  2  0  0  0  0
 23 28  1  0  0  0  0
 23 24  1  0  0  0  0
 25 17  1  1  0  0  0
 25 28  1  0  0  0  0
 26 23  2  0  0  0  0
 27 25  1  0  0  0  0
 28 29  2  0  0  0  0
 30 32  1  6  0  0  0
 30 27  1  0  0  0  0
 30 26  1  0  0  0  0
 31 32  1  0  0  0  0
M  END
>  <MODEL>
7

>  <REMARK>
 VINA RESULT:      -7.8      3.297      7.350
  Name = 
  2 active torsions:
  status: ('A' for Active; 'I' for Inactive)
    1  A    between atoms: C_15  and  C_26
    2  A    between atoms: C_16  and  C_27
                            x       y       z     vdW  Elec       q    Type
                         _______ _______ _______ _____ _____    ______ ____

>  <TORSDO>
F 2

$$$$
=
 OpenBabel11052419153D

 32 37  0  0  1  0  0  0  0  0999 V2000
  190.5090  173.6840  142.6720 C   0  0  0  0  0  0  0  0  0  0  0  0
  189.3740  175.0240  144.3720 C   0  0  0  0  0  0  0  0  0  0  0  0
  190.5810  173.0450  141.3010 C   0  0  0  0  0  2  0  0  0  0  0  0
  189.4050  174.5140  143.0440 C   0  0  0  0  0  0  0  0  0  0  0  0
  188.6170  175.9930  144.9310 C   0  0  1  0  0  3  0  0  0  0  0  0
  191.1910  176.4740  148.1780 C   0  0  0  0  0  3  0  0  0  0  0  0
  190.3000  174.5850  145.3040 C   0  0  0  0  0  0  0  0  0  0  0  0
  189.3360  177.4600  146.8880 C   0  0  0  0  0  3  0  0  0  0  0  0
  188.9460  176.0850  146.3950 C   0  0  2  0  0  3  0  0  0  0  0  0
  186.6670  176.8050  143.5740 C   0  0  0  0  0  0  0  0  0  0  0  0
  188.1840  174.5830  142.1360 C   0  0  1  0  0  3  0  0  0  0  0  0
  187.9590  177.1430  144.2250 C   0  0  0  0  0  2  0  0  0  0  0  0
  187.8800  175.9580  141.5820 C   0  0  0  0  0  2  0  0  0  0  0  0
  188.1910  173.5630  141.0030 C   0  0  0  0  0  2  0  0  0  0  0  0
  191.3790  173.7860  144.9510 C   0  0  0  0  0  3  0  0  0  0  0  0
  185.5880  176.9020  144.2150 O   0  0  0  0  0  0  0  0  0  0  0  0
  191.5020  173.3440  143.6330 C   0  0  0  0  0  0  0  0  0  0  0  0
  190.1130  175.1670  146.4740 C   0  0  2  0  0  3  0  0  0  0  0  0
  186.6530  176.4150  142.2060 N   0  0  0  0  0  2  0  0  0  0  0  0
  189.5460  173.5750  140.3250 C   0  0  0  0  0  2  0  0  0  0  0  0
  190.3430  177.6200  147.7620 C   0  0  0  0  0  3  0  0  0  0  0  0
  191.1070  175.2960  147.5490 C   0  0  0  0  0  3  0  0  0  0  0  0
  195.2400  172.5930  143.7520 C   0  0  0  0  0  0  0  0  0  0  0  0
  196.3820  173.3180  143.8390 F   0  0  0  0  0  0  0  0  0  0  0  0
  192.6890  172.4710  143.3240 C   0  0  2  0  0  3  0  0  0  0  0  0
  195.2480  171.3120  144.1270 C   0  0  0  0  0  3  0  0  0  0  0  0
  192.7470  171.2610  144.2640 C   0  0  0  0  0  2  0  0  0  0  0  0
  193.9940  173.2350  143.2910 C   0  0  0  0  0  0  0  0  0  0  0  0
  194.0320  174.4050  142.8260 O   0  0  0  0  0  0  0  0  0  0  0  0
  194.0190  170.4520  144.0110 C   0  0  2  0  0  3  0  0  0  0  0  0
  194.5750  169.6290  146.2030 O   0  0  0  0  0  1  0  0  0  0  0  0
  194.1030  169.2510  144.9430 C   0  0  0  0  0  2  0  0  0  0  0  0
  1  4  2  0  0  0  0
  1 17  1  0  0  0  0
  2  5  1  0  0  0  0
  2  7  2  0  0  0  0
  3  1  1  0  0  0  0
  4  2  1  0  0  0  0
  5 12  1  6  0  0  0
  5  9  1  0  0  0  0
  7 18  1  0  0  0  0
  8 21  2  0  0  0  0
  9 18  1  0  0  0  0
  9  8  1  6  0  0  0
 10 16  2  0  0  0  0
 10 12  1  0  0  0  0
 11 14  1  6  0  0  0
 11  4  1  0  0  0  0
 13 11  1  0  0  0  0
 13 19  1  0  0  0  0
 15  7  1  0  0  0  0
 17 15  2  0  0  0  0
 18 22  1  6  0  0  0
 19 10  1  0  0  0  0
 20 14  1  0  0  0  0
 20  3  1  0  0  0  0
 21  6  1  0  0  0  0
 22  6  2  0  0  0  0
 23 24  1  0  0  0  0
 23 26  2  0  0  0  0
 25 17  1  1  0  0  0
 25 27  1  0  0  0  0
 28 25  1  0  0  0  0
 28 23  1  0  0  0  0
 29 28  2  0  0  0  0
 30 26  1  0  0  0  0
 30 27  1  0  0  0  0
 30 32  1  1  0  0  0
 32 31  1  0  0  0  0
M  END
>  <MODEL>
8

>  <REMARK>
 VINA RESULT:      -7.7      3.338      5.719
  Name = 
  2 active torsions:
  status: ('A' for Active; 'I' for Inactive)
    1  A    between atoms: C_15  and  C_26
    2  A    between atoms: C_16  and  C_27
                            x       y       z     vdW  Elec       q    Type
                         _______ _______ _______ _____ _____    ______ ____

>  <TORSDO>
F 2

$$$$
=
 OpenBabel11052419153D

 32 37  0  0  1  0  0  0  0  0999 V2000
  191.0000  174.2040  143.2420 C   0  0  0  0  0  0  0  0  0  0  0  0
  189.6490  175.3980  144.8910 C   0  0  0  0  0  0  0  0  0  0  0  0
  191.1800  173.5240  141.9000 C   0  0  0  0  0  2  0  0  0  0  0  0
  189.7660  174.8390  143.5890 C   0  0  0  0  0  0  0  0  0  0  0  0
  188.7320  176.2410  145.4150 C   0  0  1  0  0  3  0  0  0  0  0  0
  191.1910  177.3300  148.6040 C   0  0  0  0  0  3  0  0  0  0  0  0
  190.6430  175.1770  145.8310 C   0  0  0  0  0  0  0  0  0  0  0  0
  189.1830  177.9040  147.2930 C   0  0  0  0  0  3  0  0  0  0  0  0
  189.0450  176.4600  146.8690 C   0  0  2  0  0  3  0  0  0  0  0  0
  186.6630  176.6240  144.0470 C   0  0  0  0  0  0  0  0  0  0  0  0
  188.5490  174.6450  142.6940 C   0  0  1  0  0  3  0  0  0  0  0  0
  187.8760  177.2190  144.6650 C   0  0  0  0  0  2  0  0  0  0  0  0
  188.0000  175.9150  142.0810 C   0  0  0  0  0  2  0  0  0  0  0  0
  188.7350  173.5900  141.6080 C   0  0  0  0  0  2  0  0  0  0  0  0
  191.8460  174.5680  145.5020 C   0  0  0  0  0  3  0  0  0  0  0  0
  185.5870  176.5560  144.6960 O   0  0  0  0  0  0  0  0  0  0  0  0
  192.0420  174.0940  144.2050 C   0  0  0  0  0  0  0  0  0  0  0  0
  190.3590  175.7710  146.9760 C   0  0  2  0  0  3  0  0  0  0  0  0
  186.7130  176.1730  142.6980 N   0  0  0  0  0  2  0  0  0  0  0  0
  190.0620  173.8120  140.9140 C   0  0  0  0  0  2  0  0  0  0  0  0
  190.1490  178.2840  148.1460 C   0  0  0  0  0  3  0  0  0  0  0  0
  191.3180  176.1270  148.0310 C   0  0  0  0  0  3  0  0  0  0  0  0
  195.8560  174.0900  144.1850 C   0  0  0  0  0  0  0  0  0  0  0  0
  196.8360  175.0250  144.1280 F   0  0  0  0  0  0  0  0  0  0  0  0
  193.3650  173.4340  143.9210 C   0  0  2  0  0  3  0  0  0  0  0  0
  196.1290  172.8860  144.6920 C   0  0  0  0  0  3  0  0  0  0  0  0
  193.6940  172.3730  144.9780 C   0  0  0  0  0  2  0  0  0  0  0  0
  194.4930  174.4240  143.7320 C   0  0  0  0  0  0  0  0  0  0  0  0
  194.2830  175.5190  143.1440 O   0  0  0  0  0  0  0  0  0  0  0  0
  195.0900  171.8000  144.7390 C   0  0  2  0  0  3  0  0  0  0  0  0
  196.8060  170.7850  146.0860 O   0  0  0  0  0  1  0  0  0  0  0  0
  195.4420  170.7520  145.7860 C   0  0  0  0  0  2  0  0  0  0  0  0
  1  4  2  0  0  0  0
  1 17  1  0  0  0  0
  2  5  1  0  0  0  0
  2  7  2  0  0  0  0
  3  1  1  0  0  0  0
  4  2  1  0  0  0  0
  5 12  1  6  0  0  0
  5  9  1  0  0  0  0
  7 18  1  0  0  0  0
  8 21  2  0  0  0  0
  9 18  1  0  0  0  0
  9  8  1  6  0  0  0
 10 12  1  0  0  0  0
 10 16  2  0  0  0  0
 11 14  1  6  0  0  0
 11  4  1  0  0  0  0
 13 11  1  0  0  0  0
 13 19  1  0  0  0  0
 15  7  1  0  0  0  0
 17 15  2  0  0  0  0
 18 22  1  6  0  0  0
 19 10  1  0  0  0  0
 20 14  1  0  0  0  0
 20  3  1  0  0  0  0
 21  6  1  0  0  0  0
 22  6  2  0  0  0  0
 23 26  2  0  0  0  0
 24 23  1  0  0  0  0
 25 17  1  1  0  0  0
 25 27  1  0  0  0  0
 26 30  1  0  0  0  0
 28 25  1  0  0  0  0
 28 23  1  0  0  0  0
 29 28  2  0  0  0  0
 30 27  1  0  0  0  0
 30 32  1  1  0  0  0
 32 31  1  0  0  0  0
M  END
>  <MODEL>
9

>  <REMARK>
 VINA RESULT:      -7.6      3.545      5.849
  Name = 
  2 active torsions:
  status: ('A' for Active; 'I' for Inactive)
    1  A    between atoms: C_15  and  C_26
    2  A    between atoms: C_16  and  C_27
                            x       y       z     vdW  Elec       q    Type
                         _______ _______ _______ _____ _____    ______ ____

>  <TORSDO>
F 2

$$$$
