=
 OpenBabel11052417363D

 25 29  0  0  1  0  0  0  0  0999 V2000
  188.4250  176.9390  144.3330 C   0  0  1  0  0  0  0  0  0  0  0  0
  187.0270  177.5040  144.3640 C   0  0  0  0  0  0  0  0  0  0  0  0
  188.5690  177.1200  146.8460 C   0  0  0  0  0  2  0  0  0  0  0  0
  189.2940  177.3390  143.1450 C   0  0  0  0  0  2  0  0  0  0  0  0
  191.8910  177.1650  142.9850 C   0  0  0  0  0  2  0  0  0  0  0  0
  187.1650  177.5470  146.8390 N   0  0  0  0  0  2  0  0  0  0  0  0
  190.6840  177.3760  143.7640 C   0  0  1  0  0  0  0  0  0  0  0  0
  191.4490  178.5370  143.3000 N   0  0  0  0  0  2  0  0  0  0  0  0
  185.0760  178.1640  145.6700 C   0  0  0  0  0  0  0  0  0  0  0  0
  184.3990  178.4260  146.9720 C   0  0  0  0  0  1  0  0  0  0  0  0
  186.2920  177.6950  143.1860 C   0  0  0  0  0  3  0  0  0  0  0  0
  189.1880  177.5250  145.5190 C   0  0  1  0  0  3  0  0  0  0  0  0
  190.6610  177.2860  145.2760 C   0  0  0  0  0  2  0  0  0  0  0  0
  184.3650  178.3680  144.4850 C   0  0  0  0  0  3  0  0  0  0  0  0
  184.9680  178.1360  143.2380 C   0  0  0  0  0  0  0  0  0  0  0  0
  186.4080  177.7240  145.6210 C   0  0  0  0  0  0  0  0  0  0  0  0
  184.2540  178.3290  142.0110 N   0  0  0  0  0  0  0  0  0  0  0  0
  182.9810  178.1280  141.8950 C   0  0  0  0  0  3  0  0  0  0  0  0
  180.8190  178.1880  140.6070 C   0  0  2  0  0  3  0  0  0  0  0  0
  182.3060  178.3460  140.5800 C   0  0  1  0  0  3  0  0  0  0  0  0
  181.4410  179.4510  140.6780 O   0  0  0  0  0  0  0  0  0  0  0  0
  178.9600  177.6440  141.6700 C   0  0  0  0  0  1  0  0  0  0  0  0
  180.3260  177.8420  141.8690 O   0  0  0  0  0  0  0  0  0  0  0  0
  188.3600  175.4050  144.4140 C   0  0  0  0  0  2  0  0  0  0  0  0
  188.4740  174.8370  143.1570 F   0  0  0  0  0  0  0  0  0  0  0  0
  1  2  1  0  0  0  0
  1 24  1  1  0  0  0
  1 12  1  0  0  0  0
  2 16  1  0  0  0  0
  4  7  1  0  0  0  0
  4  1  1  0  0  0  0
  5  8  1  0  0  0  0
  6  3  1  0  0  0  0
  7  5  1  6  0  0  0
  7 13  1  0  0  0  0
  8  7  1  0  0  0  0
  9 10  1  0  0  0  0
 11 15  1  0  0  0  0
 11  2  2  0  0  0  0
 12 13  1  1  0  0  0
 12  3  1  0  0  0  0
 14  9  1  0  0  0  0
 15 14  2  0  0  0  0
 16  9  2  0  0  0  0
 16  6  1  0  0  0  0
 17 15  1  0  0  0  0
 18 17  2  0  0  0  0
 19 21  1  0  0  0  0
 19 23  1  1  0  0  0
 20 19  1  0  0  0  0
 20 21  1  0  0  0  0
 20 18  1  1  0  0  0
 22 23  1  0  0  0  0
 25 24  1  0  0  0  0
M  END
>  <MODEL>
1

>  <REMARK>
 VINA RESULT:      -7.1      0.000      0.000
  Name = 
  4 active torsions:
  status: ('A' for Active; 'I' for Inactive)
    1  A    between atoms: C_1  and  C_17
    2  A    between atoms: C_2  and  O_12
    3  A    between atoms: N_6  and  C_23
    4  A    between atoms: C_15  and  C_21
                            x       y       z     vdW  Elec       q    Type
                         _______ _______ _______ _____ _____    ______ ____

>  <TORSDO>
F 4

$$$$
=
 OpenBabel11052417363D

 25 29  0  0  1  0  0  0  0  0999 V2000
  188.1970  176.7220  145.0310 C   0  0  1  0  0  0  0  0  0  0  0  0
  188.5530  175.5870  144.1020 C   0  0  0  0  0  0  0  0  0  0  0  0
  189.1120  175.4210  146.9910 C   0  0  0  0  0  2  0  0  0  0  0  0
  186.9150  177.4850  144.7120 C   0  0  0  0  0  2  0  0  0  0  0  0
  185.5810  179.0330  146.3320 C   0  0  0  0  0  2  0  0  0  0  0  0
  189.5520  174.3990  146.0350 N   0  0  0  0  0  2  0  0  0  0  0  0
  186.4230  177.8730  146.0990 C   0  0  1  0  0  0  0  0  0  0  0  0
  184.9730  177.6930  146.2250 N   0  0  0  0  0  2  0  0  0  0  0  0
  189.7030  173.4660  143.7510 C   0  0  0  0  0  0  0  0  0  0  0  0
  190.4580  172.2850  144.2590 C   0  0  0  0  0  1  0  0  0  0  0  0
  188.2820  175.6580  142.7280 C   0  0  0  0  0  3  0  0  0  0  0  0
  187.8980  176.1210  146.4030 C   0  0  1  0  0  3  0  0  0  0  0  0
  187.1740  177.1720  147.2120 C   0  0  0  0  0  2  0  0  0  0  0  0
  189.4080  173.5440  142.3880 C   0  0  0  0  0  3  0  0  0  0  0  0
  188.6960  174.6380  141.8700 C   0  0  0  0  0  0  0  0  0  0  0  0
  189.2860  174.4880  144.6180 C   0  0  0  0  0  0  0  0  0  0  0  0
  188.3910  174.7430  140.4740 N   0  0  0  0  0  0  0  0  0  0  0  0
  188.6950  173.8260  139.6130 C   0  0  0  0  0  3  0  0  0  0  0  0
  189.5180  174.0020  137.2410 C   0  0  2  0  0  3  0  0  0  0  0  0
  188.3480  174.0080  138.1710 C   0  0  1  0  0  3  0  0  0  0  0  0
  188.7230  172.8580  137.4530 O   0  0  0  0  0  0  0  0  0  0  0  0
  191.6980  174.2380  136.9630 C   0  0  0  0  0  1  0  0  0  0  0  0
  190.7430  173.8430  137.8990 O   0  0  0  0  0  0  0  0  0  0  0  0
  189.3690  177.7140  145.1000 C   0  0  0  0  0  2  0  0  0  0  0  0
  189.6950  178.1850  143.8400 F   0  0  0  0  0  0  0  0  0  0  0  0
  1 24  1  1  0  0  0
  1 12  1  0  0  0  0
  2 16  1  0  0  0  0
  2  1  1  0  0  0  0
  4  1  1  0  0  0  0
  6  3  1  0  0  0  0
  7  4  1  6  0  0  0
  7  8  1  0  0  0  0
  7  5  1  0  0  0  0
  7 13  1  0  0  0  0
  8  5  1  0  0  0  0
  9 10  1  0  0  0  0
  9 16  2  0  0  0  0
 11  2  2  0  0  0  0
 12  3  1  1  0  0  0
 12 13  1  0  0  0  0
 14  9  1  0  0  0  0
 15 14  2  0  0  0  0
 15 11  1  0  0  0  0
 16  6  1  0  0  0  0
 17 15  1  0  0  0  0
 18 17  2  0  0  0  0
 19 21  1  0  0  0  0
 19 23  1  1  0  0  0
 19 20  1  0  0  0  0
 20 18  1  1  0  0  0
 21 20  1  0  0  0  0
 22 23  1  0  0  0  0
 25 24  1  0  0  0  0
M  END
>  <MODEL>
2

>  <REMARK>
 VINA RESULT:      -6.6      4.533      6.752
  Name = 
  4 active torsions:
  status: ('A' for Active; 'I' for Inactive)
    1  A    between atoms: C_1  and  C_17
    2  A    between atoms: C_2  and  O_12
    3  A    between atoms: N_6  and  C_23
    4  A    between atoms: C_15  and  C_21
                            x       y       z     vdW  Elec       q    Type
                         _______ _______ _______ _____ _____    ______ ____

>  <TORSDO>
F 4

$$$$
=
 OpenBabel11052417363D

 25 29  0  0  1  0  0  0  0  0999 V2000
  190.7350  176.3310  144.5850 C   0  0  1  0  0  0  0  0  0  0  0  0
  189.6360  175.9170  143.6390 C   0  0  0  0  0  0  0  0  0  0  0  0
  192.3510  174.7950  143.4010 C   0  0  0  0  0  2  0  0  0  0  0  0
  190.3240  176.6020  146.0290 C   0  0  0  0  0  2  0  0  0  0  0  0
  191.8990  176.6950  148.1060 C   0  0  0  0  0  2  0  0  0  0  0  0
  191.2870  174.5170  142.4300 N   0  0  0  0  0  2  0  0  0  0  0  0
  191.5580  176.1580  146.8000 C   0  0  1  0  0  0  0  0  0  0  0  0
  191.1980  175.4010  148.0040 N   0  0  0  0  0  2  0  0  0  0  0  0
  188.9700  174.7540  141.6020 C   0  0  0  0  0  0  0  0  0  0  0  0
  189.2670  173.8580  140.4480 C   0  0  0  0  0  1  0  0  0  0  0  0
  188.3410  176.4420  143.7520 C   0  0  0  0  0  3  0  0  0  0  0  0
  191.6950  175.1510  144.7250 C   0  0  1  0  0  3  0  0  0  0  0  0
  192.5540  175.4050  145.9420 C   0  0  0  0  0  2  0  0  0  0  0  0
  187.6800  175.2710  141.7410 C   0  0  0  0  0  3  0  0  0  0  0  0
  187.3580  176.1150  142.8160 C   0  0  0  0  0  0  0  0  0  0  0  0
  189.9600  175.0780  142.5430 C   0  0  0  0  0  0  0  0  0  0  0  0
  186.0440  176.6650  142.9730 N   0  0  0  0  0  0  0  0  0  0  0  0
  185.8120  177.7740  143.5990 C   0  0  0  0  0  3  0  0  0  0  0  0
  184.0750  178.8570  145.0640 C   0  0  2  0  0  3  0  0  0  0  0  0
  184.4130  178.2840  143.7250 C   0  0  1  0  0  3  0  0  0  0  0  0
  184.4420  179.6680  143.9720 O   0  0  0  0  0  0  0  0  0  0  0  0
  184.5430  178.4320  147.1820 C   0  0  0  0  0  1  0  0  0  0  0  0
  185.1360  178.7940  145.9730 O   0  0  0  0  0  0  0  0  0  0  0  0
  191.4530  177.5710  144.0260 C   0  0  0  0  0  2  0  0  0  0  0  0
  190.7170  178.7190  144.2640 F   0  0  0  0  0  0  0  0  0  0  0  0
  1 24  1  6  0  0  0
  1 12  1  0  0  0  0
  1  4  1  0  0  0  0
  2 11  1  0  0  0  0
  2  1  1  0  0  0  0
  4  7  1  0  0  0  0
  6 16  1  0  0  0  0
  6  3  1  0  0  0  0
  7 13  1  6  0  0  0
  7  8  1  0  0  0  0
  7  5  1  0  0  0  0
  8  5  1  0  0  0  0
  9 14  2  0  0  0  0
  9 16  1  0  0  0  0
 10  9  1  0  0  0  0
 12  3  1  6  0  0  0
 12 13  1  0  0  0  0
 14 15  1  0  0  0  0
 15 17  1  0  0  0  0
 15 11  2  0  0  0  0
 16  2  2  0  0  0  0
 17 18  2  0  0  0  0
 19 23  1  1  0  0  0
 20 18  1  1  0  0  0
 20 21  1  0  0  0  0
 20 19  1  0  0  0  0
 21 19  1  0  0  0  0
 23 22  1  0  0  0  0
 24 25  1  0  0  0  0
M  END
>  <MODEL>
3

>  <REMARK>
 VINA RESULT:      -6.6      2.931      4.973
  Name = 
  4 active torsions:
  status: ('A' for Active; 'I' for Inactive)
    1  A    between atoms: C_1  and  C_17
    2  A    between atoms: C_2  and  O_12
    3  A    between atoms: N_6  and  C_23
    4  A    between atoms: C_15  and  C_21
                            x       y       z     vdW  Elec       q    Type
                         _______ _______ _______ _____ _____    ______ ____

>  <TORSDO>
F 4

$$$$
=
 OpenBabel11052417363D

 25 29  0  0  1  0  0  0  0  0999 V2000
  188.3510  176.6570  144.7340 C   0  0  1  0  0  0  0  0  0  0  0  0
  188.7550  175.4330  143.9490 C   0  0  0  0  0  0  0  0  0  0  0  0
  189.0370  175.5220  146.8810 C   0  0  0  0  0  2  0  0  0  0  0  0
  187.1290  177.4170  144.2270 C   0  0  0  0  0  2  0  0  0  0  0  0
  185.7000  179.1390  145.5670 C   0  0  0  0  0  2  0  0  0  0  0  0
  189.5320  174.4060  146.0670 N   0  0  0  0  0  2  0  0  0  0  0  0
  186.5220  177.9430  145.5200 C   0  0  1  0  0  0  0  0  0  0  0  0
  185.0620  177.8090  145.5230 N   0  0  0  0  0  2  0  0  0  0  0  0
  189.8650  173.2630  143.9010 C   0  0  0  0  0  0  0  0  0  0  0  0
  190.5310  172.1170  144.5830 C   0  0  0  0  0  1  0  0  0  0  0  0
  188.6150  175.3830  142.5550 C   0  0  0  0  0  3  0  0  0  0  0  0
  187.9060  176.1920  146.1190 C   0  0  1  0  0  3  0  0  0  0  0  0
  187.1440  177.3300  146.7580 C   0  0  0  0  0  2  0  0  0  0  0  0
  189.7010  173.2210  142.5140 C   0  0  0  0  0  3  0  0  0  0  0  0
  189.0740  174.2790  141.8350 C   0  0  0  0  0  0  0  0  0  0  0  0
  189.4020  174.3700  144.6290 C   0  0  0  0  0  0  0  0  0  0  0  0
  188.9050  174.2630  140.4120 N   0  0  0  0  0  0  0  0  0  0  0  0
  189.7290  173.6700  139.6080 C   0  0  0  0  0  3  0  0  0  0  0  0
  189.4120  172.3540  137.4870 C   0  0  2  0  0  3  0  0  0  0  0  0
  189.4880  173.6990  138.1340 C   0  0  1  0  0  3  0  0  0  0  0  0
  188.2590  173.0770  137.8510 O   0  0  0  0  0  0  0  0  0  0  0  0
  189.7960  170.1790  137.5790 C   0  0  0  0  0  1  0  0  0  0  0  0
  189.6020  171.2990  138.3870 O   0  0  0  0  0  0  0  0  0  0  0  0
  189.5420  177.6240  144.8260 C   0  0  0  0  0  2  0  0  0  0  0  0
  189.6930  178.3370  143.6490 F   0  0  0  0  0  0  0  0  0  0  0  0
  1 24  1  1  0  0  0
  1 12  1  0  0  0  0
  2 16  1  0  0  0  0
  2  1  1  0  0  0  0
  4  1  1  0  0  0  0
  6  3  1  0  0  0  0
  7  4  1  6  0  0  0
  7  8  1  0  0  0  0
  7  5  1  0  0  0  0
  7 13  1  0  0  0  0
  8  5  1  0  0  0  0
  9 10  1  0  0  0  0
  9 16  2  0  0  0  0
 11  2  2  0  0  0  0
 12 13  1  1  0  0  0
 12  3  1  0  0  0  0
 14  9  1  0  0  0  0
 15 14  2  0  0  0  0
 15 11  1  0  0  0  0
 16  6  1  0  0  0  0
 17 15  1  0  0  0  0
 18 17  2  0  0  0  0
 19 21  1  0  0  0  0
 19 20  1  0  0  0  0
 19 23  1  1  0  0  0
 20 18  1  1  0  0  0
 21 20  1  0  0  0  0
 22 23  1  0  0  0  0
 25 24  1  0  0  0  0
M  END
>  <MODEL>
4

>  <REMARK>
 VINA RESULT:      -6.4      4.718      6.868
  Name = 
  4 active torsions:
  status: ('A' for Active; 'I' for Inactive)
    1  A    between atoms: C_1  and  C_17
    2  A    between atoms: C_2  and  O_12
    3  A    between atoms: N_6  and  C_23
    4  A    between atoms: C_15  and  C_21
                            x       y       z     vdW  Elec       q    Type
                         _______ _______ _______ _____ _____    ______ ____

>  <TORSDO>
F 4

$$$$
=
 OpenBabel11052417363D

 25 29  0  0  1  0  0  0  0  0999 V2000
  189.8690  173.8810  143.7360 C   0  0  1  0  0  0  0  0  0  0  0  0
  190.0540  174.9510  144.7830 C   0  0  0  0  0  0  0  0  0  0  0  0
  192.3690  173.5560  143.6090 C   0  0  0  0  0  2  0  0  0  0  0  0
  188.7300  174.0890  142.7430 C   0  0  0  0  0  2  0  0  0  0  0  0
  188.4360  172.9040  140.4380 C   0  0  0  0  0  2  0  0  0  0  0  0
  192.4930  174.5120  144.7150 N   0  0  0  0  0  2  0  0  0  0  0  0
  189.2880  173.4510  141.4790 C   0  0  1  0  0  0  0  0  0  0  0  0
  188.9950  174.2620  140.2920 N   0  0  0  0  0  2  0  0  0  0  0  0
  191.5320  176.1150  146.3340 C   0  0  0  0  0  0  0  0  0  0  0  0
  192.8870  176.4030  146.8850 C   0  0  0  0  0  1  0  0  0  0  0  0
  188.9560  175.6240  145.3390 C   0  0  0  0  0  3  0  0  0  0  0  0
  191.1040  173.8940  142.8370 C   0  0  1  0  0  3  0  0  0  0  0  0
  190.7630  173.1220  141.5840 C   0  0  0  0  0  2  0  0  0  0  0  0
  190.4290  176.7890  146.8630 C   0  0  0  0  0  3  0  0  0  0  0  0
  189.1370  176.5490  146.3680 C   0  0  0  0  0  0  0  0  0  0  0  0
  191.3540  175.1860  145.2960 C   0  0  0  0  0  0  0  0  0  0  0  0
  187.9900  177.2210  146.9030 N   0  0  0  0  0  0  0  0  0  0  0  0
  186.7950  177.0660  146.4310 C   0  0  0  0  0  3  0  0  0  0  0  0
  184.8220  178.5850  146.0690 C   0  0  2  0  0  3  0  0  0  0  0  0
  185.6480  177.8040  147.0390 C   0  0  1  0  0  3  0  0  0  0  0  0
  184.4420  177.3040  146.5160 O   0  0  0  0  0  0  0  0  0  0  0  0
  185.1940  179.7970  144.2580 C   0  0  0  0  0  1  0  0  0  0  0  0
  185.2890  178.4960  144.7530 O   0  0  0  0  0  0  0  0  0  0  0  0
  189.6940  172.5170  144.4230 C   0  0  0  0  0  2  0  0  0  0  0  0
  189.3560  172.6730  145.7560 F   0  0  0  0  0  0  0  0  0  0  0  0
  1 24  1  1  0  0  0
  1  2  1  0  0  0  0
  2 16  2  0  0  0  0
  2 11  1  0  0  0  0
  3  6  1  0  0  0  0
  4  1  1  0  0  0  0
  6 16  1  0  0  0  0
  7  5  1  6  0  0  0
  7 13  1  0  0  0  0
  7  4  1  0  0  0  0
  8  5  1  0  0  0  0
  8  7  1  0  0  0  0
  9 14  2  0  0  0  0
  9 10  1  0  0  0  0
 11 15  2  0  0  0  0
 12 13  1  6  0  0  0
 12  3  1  0  0  0  0
 12  1  1  0  0  0  0
 15 14  1  0  0  0  0
 15 17  1  0  0  0  0
 16  9  1  0  0  0  0
 18 17  2  0  0  0  0
 19 23  1  6  0  0  0
 19 21  1  0  0  0  0
 19 20  1  0  0  0  0
 20 18  1  6  0  0  0
 21 20  1  0  0  0  0
 22 23  1  0  0  0  0
 24 25  1  0  0  0  0
M  END
>  <MODEL>
5

>  <REMARK>
 VINA RESULT:      -6.4      3.547      5.790
  Name = 
  4 active torsions:
  status: ('A' for Active; 'I' for Inactive)
    1  A    between atoms: C_1  and  C_17
    2  A    between atoms: C_2  and  O_12
    3  A    between atoms: N_6  and  C_23
    4  A    between atoms: C_15  and  C_21
                            x       y       z     vdW  Elec       q    Type
                         _______ _______ _______ _____ _____    ______ ____

>  <TORSDO>
F 4

$$$$
=
 OpenBabel11052417363D

 25 29  0  0  1  0  0  0  0  0999 V2000
  188.3280  176.8900  143.9750 C   0  0  1  0  0  0  0  0  0  0  0  0
  188.8010  175.5500  143.4670 C   0  0  0  0  0  0  0  0  0  0  0  0
  188.6050  176.1000  146.3560 C   0  0  0  0  0  2  0  0  0  0  0  0
  187.2390  177.5800  143.1590 C   0  0  0  0  0  2  0  0  0  0  0  0
  185.6860  179.5170  143.9570 C   0  0  0  0  0  2  0  0  0  0  0  0
  189.1770  174.8610  145.8190 N   0  0  0  0  0  2  0  0  0  0  0  0
  186.4530  178.3150  144.2340 C   0  0  1  0  0  0  0  0  0  0  0  0
  185.0070  178.2080  144.0120 N   0  0  0  0  0  2  0  0  0  0  0  0
  189.8100  173.3820  143.9410 C   0  0  0  0  0  0  0  0  0  0  0  0
  190.3060  172.3480  144.8940 C   0  0  0  0  0  1  0  0  0  0  0  0
  188.8890  175.2810  142.0940 C   0  0  0  0  0  3  0  0  0  0  0  0
  187.6430  176.6590  145.3210 C   0  0  1  0  0  3  0  0  0  0  0  0
  186.8370  177.8970  145.6390 C   0  0  0  0  0  2  0  0  0  0  0  0
  189.8720  173.1220  142.5700 C   0  0  0  0  0  3  0  0  0  0  0  0
  189.4120  174.0690  141.6400 C   0  0  0  0  0  0  0  0  0  0  0  0
  189.2820  174.5980  144.4020 C   0  0  0  0  0  0  0  0  0  0  0  0
  189.4760  173.8280  140.2290 N   0  0  0  0  0  0  0  0  0  0  0  0
  188.4270  173.6440  139.4950 C   0  0  0  0  0  3  0  0  0  0  0  0
  187.9580  174.4380  137.1530 C   0  0  2  0  0  3  0  0  0  0  0  0
  188.5730  173.3950  138.0290 C   0  0  1  0  0  3  0  0  0  0  0  0
  189.3340  174.4280  137.4540 O   0  0  0  0  0  0  0  0  0  0  0  0
  186.5720  176.1450  136.9250 C   0  0  0  0  0  1  0  0  0  0  0  0
  187.3330  175.4620  137.8730 O   0  0  0  0  0  0  0  0  0  0  0  0
  189.5290  177.8390  144.1150 C   0  0  0  0  0  2  0  0  0  0  0  0
  189.8420  178.4250  142.9000 F   0  0  0  0  0  0  0  0  0  0  0  0
  1 24  1  1  0  0  0
  1 12  1  0  0  0  0
  2  1  1  0  0  0  0
  2 16  1  0  0  0  0
  4  1  1  0  0  0  0
  5  8  1  0  0  0  0
  5  7  1  0  0  0  0
  6  3  1  0  0  0  0
  7  4  1  6  0  0  0
  7 13  1  0  0  0  0
  8  7  1  0  0  0  0
  9 16  2  0  0  0  0
  9 10  1  0  0  0  0
 11  2  2  0  0  0  0
 12 13  1  1  0  0  0
 12  3  1  0  0  0  0
 14  9  1  0  0  0  0
 15 11  1  0  0  0  0
 15 14  2  0  0  0  0
 16  6  1  0  0  0  0
 17 15  1  0  0  0  0
 18 17  2  0  0  0  0
 19 21  1  0  0  0  0
 19 23  1  1  0  0  0
 19 20  1  0  0  0  0
 20 18  1  1  0  0  0
 21 20  1  0  0  0  0
 22 23  1  0  0  0  0
 25 24  1  0  0  0  0
M  END
>  <MODEL>
6

>  <REMARK>
 VINA RESULT:      -6.3      4.169      6.116
  Name = 
  4 active torsions:
  status: ('A' for Active; 'I' for Inactive)
    1  A    between atoms: C_1  and  C_17
    2  A    between atoms: C_2  and  O_12
    3  A    between atoms: N_6  and  C_23
    4  A    between atoms: C_15  and  C_21
                            x       y       z     vdW  Elec       q    Type
                         _______ _______ _______ _____ _____    ______ ____

>  <TORSDO>
F 4

$$$$
=
 OpenBabel11052417363D

 25 29  0  0  1  0  0  0  0  0999 V2000
  189.8180  175.8250  145.5960 C   0  0  1  0  0  0  0  0  0  0  0  0
  188.7880  176.2230  144.5680 C   0  0  0  0  0  0  0  0  0  0  0  0
  188.7550  177.3750  147.2800 C   0  0  0  0  0  2  0  0  0  0  0  0
  191.2270  175.5540  145.0780 C   0  0  0  0  0  2  0  0  0  0  0  0
  193.4190  175.4860  146.4900 C   0  0  0  0  0  2  0  0  0  0  0  0
  187.7040  177.6370  146.2910 N   0  0  0  0  0  2  0  0  0  0  0  0
  192.0890  176.0150  146.2440 C   0  0  1  0  0  0  0  0  0  0  0  0
  193.2580  176.7720  145.7840 N   0  0  0  0  0  2  0  0  0  0  0  0
  186.7010  177.3710  144.0470 C   0  0  0  0  0  0  0  0  0  0  0  0
  185.5690  178.2660  144.4220 C   0  0  0  0  0  1  0  0  0  0  0  0
  188.8040  175.6830  143.2740 C   0  0  0  0  0  3  0  0  0  0  0  0
  190.0260  177.0160  146.5290 C   0  0  1  0  0  3  0  0  0  0  0  0
  191.3060  176.7760  147.2950 C   0  0  0  0  0  2  0  0  0  0  0  0
  186.7430  176.8390  142.7560 C   0  0  0  0  0  3  0  0  0  0  0  0
  187.7940  175.9950  142.3620 C   0  0  0  0  0  0  0  0  0  0  0  0
  187.7170  177.0620  144.9650 C   0  0  0  0  0  0  0  0  0  0  0  0
  187.8520  175.4300  141.0460 N   0  0  0  0  0  0  0  0  0  0  0  0
  188.5590  174.3860  140.7560 C   0  0  0  0  0  3  0  0  0  0  0  0
  189.2220  172.5180  139.2040 C   0  0  2  0  0  3  0  0  0  0  0  0
  188.5720  173.8560  139.3590 C   0  0  1  0  0  3  0  0  0  0  0  0
  187.8240  172.6660  139.3050 O   0  0  0  0  0  0  0  0  0  0  0  0
  190.7040  171.0960  140.0190 C   0  0  0  0  0  1  0  0  0  0  0  0
  189.7220  172.0070  140.4070 O   0  0  0  0  0  0  0  0  0  0  0  0
  189.3210  174.5920  146.3680 C   0  0  0  0  0  2  0  0  0  0  0  0
  189.6980  173.4220  145.7300 F   0  0  0  0  0  0  0  0  0  0  0  0
  1 24  1  1  0  0  0
  1 12  1  0  0  0  0
  2 16  1  0  0  0  0
  2  1  1  0  0  0  0
  4  1  1  0  0  0  0
  6  3  1  0  0  0  0
  7  4  1  6  0  0  0
  7  5  1  0  0  0  0
  7 13  1  0  0  0  0
  8  7  1  0  0  0  0
  8  5  1  0  0  0  0
  9 10  1  0  0  0  0
  9 16  2  0  0  0  0
 11  2  2  0  0  0  0
 12  3  1  1  0  0  0
 12 13  1  0  0  0  0
 14  9  1  0  0  0  0
 15 14  2  0  0  0  0
 15 11  1  0  0  0  0
 16  6  1  0  0  0  0
 17 15  1  0  0  0  0
 18 17  2  0  0  0  0
 19 21  1  0  0  0  0
 19 20  1  0  0  0  0
 19 23  1  1  0  0  0
 20 18  1  1  0  0  0
 21 20  1  0  0  0  0
 22 23  1  0  0  0  0
 25 24  1  0  0  0  0
M  END
>  <MODEL>
7

>  <REMARK>
 VINA RESULT:      -6.3      4.126      5.533
  Name = 
  4 active torsions:
  status: ('A' for Active; 'I' for Inactive)
    1  A    between atoms: C_1  and  C_17
    2  A    between atoms: C_2  and  O_12
    3  A    between atoms: N_6  and  C_23
    4  A    between atoms: C_15  and  C_21
                            x       y       z     vdW  Elec       q    Type
                         _______ _______ _______ _____ _____    ______ ____

>  <TORSDO>
F 4

$$$$
=
 OpenBabel11052417363D

 25 29  0  0  1  0  0  0  0  0999 V2000
  188.2680  176.6110  144.7310 C   0  0  1  0  0  0  0  0  0  0  0  0
  189.0430  175.4060  144.2580 C   0  0  0  0  0  0  0  0  0  0  0  0
  189.8660  176.8970  146.6630 C   0  0  0  0  0  2  0  0  0  0  0  0
  186.7540  176.5600  144.5470 C   0  0  0  0  0  2  0  0  0  0  0  0
  184.9870  178.0480  145.7590 C   0  0  0  0  0  2  0  0  0  0  0  0
  190.6590  175.8000  146.0960 N   0  0  0  0  0  2  0  0  0  0  0  0
  186.2600  177.3500  145.7520 C   0  0  1  0  0  0  0  0  0  0  0  0
  185.0950  176.7110  146.3730 N   0  0  0  0  0  2  0  0  0  0  0  0
  191.0380  174.0150  144.4280 C   0  0  0  0  0  0  0  0  0  0  0  0
  192.3110  173.6280  145.1000 C   0  0  0  0  0  1  0  0  0  0  0  0
  188.6510  174.6890  143.1190 C   0  0  0  0  0  3  0  0  0  0  0  0
  188.4190  176.6920  146.2490 C   0  0  1  0  0  3  0  0  0  0  0  0
  187.3520  177.6310  146.7630 C   0  0  0  0  0  2  0  0  0  0  0  0
  190.6230  173.3000  143.3030 C   0  0  0  0  0  3  0  0  0  0  0  0
  189.4270  173.6310  142.6430 C   0  0  0  0  0  0  0  0  0  0  0  0
  190.2580  175.0780  144.9100 C   0  0  0  0  0  0  0  0  0  0  0  0
  188.9870  172.9170  141.4820 N   0  0  0  0  0  0  0  0  0  0  0  0
  188.6450  173.5030  140.3800 C   0  0  0  0  0  3  0  0  0  0  0  0
  188.9830  172.9030  137.9590 C   0  0  2  0  0  3  0  0  0  0  0  0
  188.1920  172.6920  139.2100 C   0  0  1  0  0  3  0  0  0  0  0  0
  189.2220  171.8160  138.8230 O   0  0  0  0  0  0  0  0  0  0  0  0
  190.4220  174.1200  136.8050 C   0  0  0  0  0  1  0  0  0  0  0  0
  190.0050  173.8470  138.1070 O   0  0  0  0  0  0  0  0  0  0  0  0
  188.8150  177.8740  144.0480 C   0  0  0  0  0  2  0  0  0  0  0  0
  188.1240  178.1450  142.8790 F   0  0  0  0  0  0  0  0  0  0  0  0
  1 24  1  6  0  0  0
  1 12  1  0  0  0  0
  2  1  1  0  0  0  0
  2 16  1  0  0  0  0
  4  1  1  0  0  0  0
  5  8  1  0  0  0  0
  6  3  1  0  0  0  0
  7  4  1  6  0  0  0
  7  5  1  0  0  0  0
  7  8  1  0  0  0  0
  7 13  1  0  0  0  0
  9 16  2  0  0  0  0
  9 10  1  0  0  0  0
 11  2  2  0  0  0  0
 12  3  1  6  0  0  0
 12 13  1  0  0  0  0
 14  9  1  0  0  0  0
 15 11  1  0  0  0  0
 15 14  2  0  0  0  0
 16  6  1  0  0  0  0
 17 15  1  0  0  0  0
 18 17  2  0  0  0  0
 19 23  1  1  0  0  0
 19 21  1  0  0  0  0
 19 20  1  0  0  0  0
 20 18  1  1  0  0  0
 21 20  1  0  0  0  0
 22 23  1  0  0  0  0
 25 24  1  0  0  0  0
M  END
>  <MODEL>
8

>  <REMARK>
 VINA RESULT:      -6.3      4.536      6.868
  Name = 
  4 active torsions:
  status: ('A' for Active; 'I' for Inactive)
    1  A    between atoms: C_1  and  C_17
    2  A    between atoms: C_2  and  O_12
    3  A    between atoms: N_6  and  C_23
    4  A    between atoms: C_15  and  C_21
                            x       y       z     vdW  Elec       q    Type
                         _______ _______ _______ _____ _____    ______ ____

>  <TORSDO>
F 4

$$$$
=
 OpenBabel11052417363D

 25 29  0  0  1  0  0  0  0  0999 V2000
  190.9280  175.6780  145.1760 C   0  0  1  0  0  0  0  0  0  0  0  0
  189.6160  176.3990  144.9870 C   0  0  0  0  0  0  0  0  0  0  0  0
  190.8300  176.1180  147.6590 C   0  0  0  0  0  2  0  0  0  0  0  0
  191.9600  175.8420  144.0640 C   0  0  0  0  0  2  0  0  0  0  0  0
  194.5170  175.3570  144.2280 C   0  0  0  0  0  2  0  0  0  0  0  0
  189.5000  176.7000  147.4460 N   0  0  0  0  0  2  0  0  0  0  0  0
  193.2710  175.7890  144.8350 C   0  0  1  0  0  0  0  0  0  0  0  0
  194.2200  176.7970  144.3540 N   0  0  0  0  0  2  0  0  0  0  0  0
  187.6390  177.4180  145.9850 C   0  0  0  0  0  0  0  0  0  0  0  0
  186.8670  177.8980  147.1670 C   0  0  0  0  0  1  0  0  0  0  0  0
  189.0390  176.5420  143.7180 C   0  0  0  0  0  3  0  0  0  0  0  0
  191.6300  176.3010  146.3800 C   0  0  1  0  0  3  0  0  0  0  0  0
  193.0780  175.8700  146.3360 C   0  0  0  0  0  2  0  0  0  0  0  0
  187.0870  177.5690  144.7110 C   0  0  0  0  0  3  0  0  0  0  0  0
  187.7830  177.1340  143.5720 C   0  0  0  0  0  0  0  0  0  0  0  0
  188.9020  176.8260  146.1360 C   0  0  0  0  0  0  0  0  0  0  0  0
  187.2320  177.2690  142.2560 N   0  0  0  0  0  0  0  0  0  0  0  0
  185.9960  177.5840  142.0370 C   0  0  0  0  0  3  0  0  0  0  0  0
  184.0590  178.1180  140.5200 C   0  0  2  0  0  3  0  0  0  0  0  0
  185.4910  177.7030  140.6360 C   0  0  1  0  0  3  0  0  0  0  0  0
  185.1190  179.0370  140.3860 O   0  0  0  0  0  0  0  0  0  0  0  0
  182.0730  178.2560  141.4800 C   0  0  0  0  0  1  0  0  0  0  0  0
  183.4390  178.3030  141.7600 O   0  0  0  0  0  0  0  0  0  0  0  0
  190.6630  174.1800  145.3970 C   0  0  0  0  0  2  0  0  0  0  0  0
  189.3070  173.9300  145.5200 F   0  0  0  0  0  0  0  0  0  0  0  0
  1 24  1  1  0  0  0
  1 12  1  0  0  0  0
  2  1  1  0  0  0  0
  2 16  1  0  0  0  0
  4  1  1  0  0  0  0
  5  8  1  0  0  0  0
  5  7  1  0  0  0  0
  6  3  1  0  0  0  0
  7  4  1  6  0  0  0
  7 13  1  0  0  0  0
  8  7  1  0  0  0  0
  9 16  2  0  0  0  0
  9 10  1  0  0  0  0
 11  2  2  0  0  0  0
 12 13  1  1  0  0  0
 12  3  1  0  0  0  0
 14  9  1  0  0  0  0
 15 11  1  0  0  0  0
 15 14  2  0  0  0  0
 16  6  1  0  0  0  0
 17 15  1  0  0  0  0
 18 17  2  0  0  0  0
 19 20  1  0  0  0  0
 19 23  1  1  0  0  0
 20 18  1  1  0  0  0
 21 19  1  0  0  0  0
 21 20  1  0  0  0  0
 22 23  1  0  0  0  0
 24 25  1  0  0  0  0
M  END
>  <MODEL>
9

>  <REMARK>
 VINA RESULT:      -6.1      2.265      3.019
  Name = 
  4 active torsions:
  status: ('A' for Active; 'I' for Inactive)
    1  A    between atoms: C_1  and  C_17
    2  A    between atoms: C_2  and  O_12
    3  A    between atoms: N_6  and  C_23
    4  A    between atoms: C_15  and  C_21
                            x       y       z     vdW  Elec       q    Type
                         _______ _______ _______ _____ _____    ______ ____

>  <TORSDO>
F 4

$$$$
