=
 OpenBabel11052420323D

 34 37  0  0  0  0  0  0  0  0999 V2000
  190.1220  175.2110  143.5310 C   0  0  0  0  0  0  0  0  0  0  0  0
  189.5630  176.2320  142.8610 C   0  0  0  0  0  3  0  0  0  0  0  0
  191.7290  172.5790  141.2860 C   0  0  0  0  0  3  0  0  0  0  0  0
  192.3670  174.8550  141.6820 O   0  0  0  0  0  1  0  0  0  0  0  0
  190.8730  171.4910  141.4770 C   0  0  0  0  0  0  0  0  0  0  0  0
  189.7700  171.6370  142.3280 C   0  0  0  0  0  3  0  0  0  0  0  0
  191.5020  173.7970  141.9340 C   0  0  0  0  0  0  0  0  0  0  0  0
  189.5350  172.8460  142.9820 C   0  0  0  0  0  3  0  0  0  0  0  0
  190.3980  173.9420  142.8050 C   0  0  0  0  0  0  0  0  0  0  0  0
  190.8140  169.8830  139.5200 C   0  0  0  0  0  0  0  0  0  0  0  0
  191.2080  168.6740  139.0550 F   0  0  0  0  0  0  0  0  0  0  0  0
  189.9920  170.7450  138.6210 C   0  0  0  0  0  1  0  0  0  0  0  0
  191.1780  170.2370  140.7570 C   0  0  0  0  0  3  0  0  0  0  0  0
  192.6270  176.1740  144.6370 O   0  0  0  0  0  1  0  0  0  0  0  0
  191.6040  175.7840  145.4950 C   0  0  0  0  0  0  0  0  0  0  0  0
  190.8070  175.4410  147.7580 C   0  0  0  0  0  3  0  0  0  0  0  0
  191.8090  175.8530  146.8760 C   0  0  0  0  0  3  0  0  0  0  0  0
  189.3840  174.8850  145.8810 C   0  0  0  0  0  3  0  0  0  0  0  0
  190.3780  175.3080  144.9880 C   0  0  0  0  0  0  0  0  0  0  0  0
  189.5960  174.9540  147.2610 C   0  0  0  0  0  3  0  0  0  0  0  0
  189.1600  177.5280  143.4900 C   0  0  0  0  0  2  0  0  0  0  0  0
  185.5140  178.1020  144.3390 C   0  0  0  0  0  3  0  0  0  0  0  0
  187.1250  177.8000  142.0620 C   0  0  0  0  0  3  0  0  0  0  0  0
  182.9890  178.4410  141.6480 C   0  0  0  0  0  0  0  0  0  0  0  0
  183.5660  178.3770  142.9240 C   0  0  0  0  0  3  0  0  0  0  0  0
  184.9400  178.1630  143.0660 C   0  0  0  0  0  0  0  0  0  0  0  0
  185.1770  178.0780  140.6480 C   0  0  0  0  0  3  0  0  0  0  0  0
  185.7510  178.0130  141.9200 C   0  0  0  0  0  0  0  0  0  0  0  0
  183.8020  178.2910  140.5140 C   0  0  0  0  0  3  0  0  0  0  0  0
  187.6930  177.7340  143.3390 C   0  0  0  0  0  0  0  0  0  0  0  0
  186.8890  177.8890  144.4750 C   0  0  0  0  0  3  0  0  0  0  0  0
  180.9300  178.2530  140.4830 O   0  0  0  0  0  0  0  0  0  0  0  0
  181.5420  178.6660  141.5040 C   0  0  0  0  0  0  0  0  0  0  0  0
  180.8350  179.3360  142.4960 O   0  0  0  0  0  1  0  0  0  0  0  0
  1 19  1  0  0  0  0
  2 21  1  0  0  0  0
  2  1  2  0  0  0  0
  3  5  2  0  0  0  0
  3  7  1  0  0  0  0
  4  7  1  0  0  0  0
  5  6  1  0  0  0  0
  6  8  2  0  0  0  0
  7  9  2  0  0  0  0
  9  8  1  0  0  0  0
  9  1  1  0  0  0  0
 10 13  2  0  0  0  0
 11 10  1  0  0  0  0
 12 10  1  0  0  0  0
 13  5  1  0  0  0  0
 14 15  1  0  0  0  0
 15 17  1  0  0  0  0
 17 16  2  0  0  0  0
 18 20  2  0  0  0  0
 19 15  2  0  0  0  0
 19 18  1  0  0  0  0
 20 16  1  0  0  0  0
 22 31  1  0  0  0  0
 23 30  1  0  0  0  0
 24 25  2  0  0  0  0
 25 26  1  0  0  0  0
 26 22  2  0  0  0  0
 27 28  1  0  0  0  0
 28 23  2  0  0  0  0
 28 26  1  0  0  0  0
 29 27  2  0  0  0  0
 29 24  1  0  0  0  0
 30 21  1  0  0  0  0
 30 31  2  0  0  0  0
 32 33  2  0  0  0  0
 33 24  1  0  0  0  0
 33 34  1  0  0  0  0
M  END
>  <MODEL>
1

>  <REMARK>
 VINA RESULT:      -8.1      0.000      0.000
  Name = 
  6 active torsions:
  status: ('A' for Active; 'I' for Inactive)
    1  A    between atoms: C_1  and  C_20
    2  A    between atoms: C_1  and  C_34
    3  A    between atoms: C_7  and  C_15
    4  A    between atoms: C_9  and  C_18
    5  A    between atoms: C_18  and  C_30
    6  A    between atoms: C_23  and  C_25
                            x       y       z     vdW  Elec       q    Type
                         _______ _______ _______ _____ _____    ______ ____

>  <TORSDO>
F 6

$$$$
=
 OpenBabel11052420323D

 34 37  0  0  0  0  0  0  0  0999 V2000
  195.2520  174.9510  144.1050 C   0  0  0  0  0  0  0  0  0  0  0  0
  194.7340  176.0130  144.7400 C   0  0  0  0  0  3  0  0  0  0  0  0
  196.9150  175.8410  140.7890 C   0  0  0  0  0  3  0  0  0  0  0  0
  197.5200  176.4590  143.0250 O   0  0  0  0  0  1  0  0  0  0  0  0
  196.0710  175.2040  139.8760 C   0  0  0  0  0  0  0  0  0  0  0  0
  194.9570  174.5030  140.3540 C   0  0  0  0  0  3  0  0  0  0  0  0
  196.6660  175.7800  142.1630 C   0  0  0  0  0  0  0  0  0  0  0  0
  194.7010  174.4330  141.7240 C   0  0  0  0  0  3  0  0  0  0  0  0
  195.5510  175.0600  142.6510 C   0  0  0  0  0  0  0  0  0  0  0  0
  197.1400  174.4860  137.6930 C   0  0  0  0  0  0  0  0  0  0  0  0
  197.3150  174.7820  136.3840 F   0  0  0  0  0  0  0  0  0  0  0  0
  197.7880  173.2510  138.2240 C   0  0  0  0  0  1  0  0  0  0  0  0
  196.4000  175.3140  138.4390 C   0  0  0  0  0  3  0  0  0  0  0  0
  197.7870  174.1240  145.2500 O   0  0  0  0  0  1  0  0  0  0  0  0
  196.6810  173.2890  145.3590 C   0  0  0  0  0  0  0  0  0  0  0  0
  195.7280  171.1900  146.1090 C   0  0  0  0  0  3  0  0  0  0  0  0
  196.8180  172.0590  146.0100 C   0  0  0  0  0  3  0  0  0  0  0  0
  194.3550  172.7750  144.9030 C   0  0  0  0  0  3  0  0  0  0  0  0
  195.4380  173.6590  144.8100 C   0  0  0  0  0  0  0  0  0  0  0  0
  194.4980  171.5460  145.5530 C   0  0  0  0  0  3  0  0  0  0  0  0
  194.3120  176.0090  146.1760 C   0  0  0  0  0  2  0  0  0  0  0  0
  190.7950  175.2780  147.3740 C   0  0  0  0  0  3  0  0  0  0  0  0
  192.0710  176.7860  145.3820 C   0  0  0  0  0  3  0  0  0  0  0  0
  187.8770  176.8320  145.6990 C   0  0  0  0  0  0  0  0  0  0  0  0
  188.6410  176.0630  146.5870 C   0  0  0  0  0  3  0  0  0  0  0  0
  190.0350  176.0440  146.4860 C   0  0  0  0  0  0  0  0  0  0  0  0
  189.9170  177.5720  144.5980 C   0  0  0  0  0  3  0  0  0  0  0  0
  190.6780  176.8040  145.4830 C   0  0  0  0  0  0  0  0  0  0  0  0
  188.5240  177.5850  144.7050 C   0  0  0  0  0  3  0  0  0  0  0  0
  192.8270  176.0130  146.2710 C   0  0  0  0  0  0  0  0  0  0  0  0
  192.1890  175.2640  147.2670 C   0  0  0  0  0  3  0  0  0  0  0  0
  185.6910  176.8550  144.7760 O   0  0  0  0  0  0  0  0  0  0  0  0
  186.4110  176.8480  145.8100 C   0  0  0  0  0  0  0  0  0  0  0  0
  185.8030  176.8550  147.0610 O   0  0  0  0  0  1  0  0  0  0  0  0
  1  2  2  0  0  0  0
  1 19  1  0  0  0  0
  2 21  1  0  0  0  0
  3  7  1  0  0  0  0
  5  6  1  0  0  0  0
  5  3  2  0  0  0  0
  6  8  2  0  0  0  0
  7  9  2  0  0  0  0
  7  4  1  0  0  0  0
  8  9  1  0  0  0  0
  9  1  1  0  0  0  0
 10 12  1  0  0  0  0
 10 13  2  0  0  0  0
 11 10  1  0  0  0  0
 13  5  1  0  0  0  0
 14 15  1  0  0  0  0
 15 17  1  0  0  0  0
 17 16  2  0  0  0  0
 18 20  2  0  0  0  0
 19 18  1  0  0  0  0
 19 15  2  0  0  0  0
 20 16  1  0  0  0  0
 21 30  1  0  0  0  0
 23 28  2  0  0  0  0
 23 30  1  0  0  0  0
 24 33  1  0  0  0  0
 24 25  2  0  0  0  0
 26 25  1  0  0  0  0
 26 22  2  0  0  0  0
 27 29  2  0  0  0  0
 27 28  1  0  0  0  0
 28 26  1  0  0  0  0
 29 24  1  0  0  0  0
 30 31  2  0  0  0  0
 31 22  1  0  0  0  0
 32 33  2  0  0  0  0
 33 34  1  0  0  0  0
M  END
>  <MODEL>
2

>  <REMARK>
 VINA RESULT:      -8.0      4.598      6.417
  Name = 
  6 active torsions:
  status: ('A' for Active; 'I' for Inactive)
    1  A    between atoms: C_1  and  C_20
    2  A    between atoms: C_1  and  C_34
    3  A    between atoms: C_7  and  C_15
    4  A    between atoms: C_9  and  C_18
    5  A    between atoms: C_18  and  C_30
    6  A    between atoms: C_23  and  C_25
                            x       y       z     vdW  Elec       q    Type
                         _______ _______ _______ _____ _____    ______ ____

>  <TORSDO>
F 6

$$$$
=
 OpenBabel11052420323D

 34 37  0  0  0  0  0  0  0  0999 V2000
  190.7600  175.4740  143.6080 C   0  0  0  0  0  0  0  0  0  0  0  0
  190.2760  176.5360  142.9440 C   0  0  0  0  0  3  0  0  0  0  0  0
  190.7230  172.2090  141.6360 C   0  0  0  0  0  3  0  0  0  0  0  0
  188.9160  173.4040  142.6620 O   0  0  0  0  0  1  0  0  0  0  0  0
  192.0800  172.0450  141.3450 C   0  0  0  0  0  0  0  0  0  0  0  0
  192.9940  172.9970  141.8110 C   0  0  0  0  0  3  0  0  0  0  0  0
  190.2720  173.3070  142.3740 C   0  0  0  0  0  0  0  0  0  0  0  0
  192.5550  174.0990  142.5460 C   0  0  0  0  0  3  0  0  0  0  0  0
  191.1910  174.2790  142.8330 C   0  0  0  0  0  0  0  0  0  0  0  0
  192.5780  169.5890  140.9710 C   0  0  0  0  0  0  0  0  0  0  0  0
  192.9660  168.6510  140.0750 F   0  0  0  0  0  0  0  0  0  0  0  0
  192.2890  169.1460  142.3660 C   0  0  0  0  0  1  0  0  0  0  0  0
  192.4780  170.8580  140.5600 C   0  0  0  0  0  3  0  0  0  0  0  0
  192.9930  176.4690  145.1730 O   0  0  0  0  0  1  0  0  0  0  0  0
  191.8800  175.9450  145.8220 C   0  0  0  0  0  0  0  0  0  0  0  0
  190.7720  175.3500  147.8940 C   0  0  0  0  0  3  0  0  0  0  0  0
  191.8670  175.8970  147.2190 C   0  0  0  0  0  3  0  0  0  0  0  0
  189.6960  174.8920  145.7760 C   0  0  0  0  0  3  0  0  0  0  0  0
  190.7830  175.4500  145.0900 C   0  0  0  0  0  0  0  0  0  0  0  0
  189.6890  174.8440  147.1730 C   0  0  0  0  0  3  0  0  0  0  0  0
  189.7340  177.7630  143.6060 C   0  0  0  0  0  2  0  0  0  0  0  0
  186.0150  178.0220  144.2730 C   0  0  0  0  0  3  0  0  0  0  0  0
  187.7590  177.9160  142.0780 C   0  0  0  0  0  3  0  0  0  0  0  0
  183.6120  178.2390  141.4610 C   0  0  0  0  0  0  0  0  0  0  0  0
  184.1260  178.1840  142.7630 C   0  0  0  0  0  3  0  0  0  0  0  0
  185.5030  178.0750  142.9730 C   0  0  0  0  0  0  0  0  0  0  0  0
  185.8700  178.0800  140.5700 C   0  0  0  0  0  3  0  0  0  0  0  0
  186.3820  178.0230  141.8680 C   0  0  0  0  0  0  0  0  0  0  0  0
  184.4920  178.1870  140.3680 C   0  0  0  0  0  3  0  0  0  0  0  0
  188.2650  177.8570  143.3820 C   0  0  0  0  0  0  0  0  0  0  0  0
  187.3940  177.9150  144.4760 C   0  0  0  0  0  3  0  0  0  0  0  0
  181.4290  178.9160  142.1030 O   0  0  0  0  0  1  0  0  0  0  0  0
  182.1610  178.3530  141.2450 C   0  0  0  0  0  0  0  0  0  0  0  0
  181.5820  177.8390  140.0910 O   0  0  0  0  0  0  0  0  0  0  0  0
  1 19  1  0  0  0  0
  2 21  1  0  0  0  0
  2  1  2  0  0  0  0
  3  7  1  0  0  0  0
  5  3  2  0  0  0  0
  5  6  1  0  0  0  0
  6  8  2  0  0  0  0
  7  4  1  0  0  0  0
  7  9  2  0  0  0  0
  8  9  1  0  0  0  0
  9  1  1  0  0  0  0
 10 12  1  0  0  0  0
 11 10  1  0  0  0  0
 13 10  2  0  0  0  0
 13  5  1  0  0  0  0
 14 15  1  0  0  0  0
 15 17  1  0  0  0  0
 17 16  2  0  0  0  0
 18 20  2  0  0  0  0
 19 18  1  0  0  0  0
 19 15  2  0  0  0  0
 20 16  1  0  0  0  0
 22 31  1  0  0  0  0
 23 30  1  0  0  0  0
 24 25  2  0  0  0  0
 25 26  1  0  0  0  0
 26 22  2  0  0  0  0
 27 28  1  0  0  0  0
 28 23  2  0  0  0  0
 28 26  1  0  0  0  0
 29 27  2  0  0  0  0
 29 24  1  0  0  0  0
 30 21  1  0  0  0  0
 30 31  2  0  0  0  0
 33 24  1  0  0  0  0
 33 32  1  0  0  0  0
 34 33  2  0  0  0  0
M  END
>  <MODEL>
3

>  <REMARK>
 VINA RESULT:      -7.8      1.213      1.685
  Name = 
  6 active torsions:
  status: ('A' for Active; 'I' for Inactive)
    1  A    between atoms: C_1  and  C_20
    2  A    between atoms: C_1  and  C_34
    3  A    between atoms: C_7  and  C_15
    4  A    between atoms: C_9  and  C_18
    5  A    between atoms: C_18  and  C_30
    6  A    between atoms: C_23  and  C_25
                            x       y       z     vdW  Elec       q    Type
                         _______ _______ _______ _____ _____    ______ ____

>  <TORSDO>
F 6

$$$$
=
 OpenBabel11052420323D

 34 37  0  0  0  0  0  0  0  0999 V2000
  192.6050  174.5840  143.3740 C   0  0  0  0  0  0  0  0  0  0  0  0
  192.7000  175.9170  143.5000 C   0  0  0  0  0  3  0  0  0  0  0  0
  195.9160  172.8530  144.1380 C   0  0  0  0  0  3  0  0  0  0  0  0
  195.3480  174.3670  142.3690 O   0  0  0  0  0  1  0  0  0  0  0  0
  195.5810  172.0950  145.2630 C   0  0  0  0  0  0  0  0  0  0  0  0
  194.2690  172.1480  145.7500 C   0  0  0  0  0  3  0  0  0  0  0  0
  194.9680  173.6600  143.5040 C   0  0  0  0  0  0  0  0  0  0  0  0
  193.3150  172.9530  145.1280 C   0  0  0  0  0  3  0  0  0  0  0  0
  193.6470  173.7280  144.0020 C   0  0  0  0  0  0  0  0  0  0  0  0
  196.7300  169.9320  145.9100 C   0  0  0  0  0  0  0  0  0  0  0  0
  197.7960  169.3750  146.5340 F   0  0  0  0  0  0  0  0  0  0  0  0
  195.7210  169.0180  145.2990 C   0  0  0  0  0  1  0  0  0  0  0  0
  196.6390  171.2660  145.8780 C   0  0  0  0  0  3  0  0  0  0  0  0
  192.7590  174.3850  140.4830 O   0  0  0  0  0  1  0  0  0  0  0  0
  191.6420  173.8860  141.1450 C   0  0  0  0  0  0  0  0  0  0  0  0
  189.4650  172.8270  141.0410 C   0  0  0  0  0  3  0  0  0  0  0  0
  190.6090  173.3100  140.4010 C   0  0  0  0  0  3  0  0  0  0  0  0
  190.3780  173.4970  143.1790 C   0  0  0  0  0  3  0  0  0  0  0  0
  191.5360  173.9730  142.5480 C   0  0  0  0  0  0  0  0  0  0  0  0
  189.3480  172.9240  142.4290 C   0  0  0  0  0  3  0  0  0  0  0  0
  191.7680  176.8900  142.8490 C   0  0  0  0  0  2  0  0  0  0  0  0
  189.5790  177.2050  145.9240 C   0  0  0  0  0  3  0  0  0  0  0  0
  189.3580  177.4890  143.1410 C   0  0  0  0  0  3  0  0  0  0  0  0
  186.0170  178.1760  145.6030 C   0  0  0  0  0  0  0  0  0  0  0  0
  187.2440  177.8040  146.1700 C   0  0  0  0  0  3  0  0  0  0  0  0
  188.3560  177.5740  145.3560 C   0  0  0  0  0  0  0  0  0  0  0  0
  187.0240  178.0890  143.3890 C   0  0  0  0  0  3  0  0  0  0  0  0
  188.2450  177.7180  143.9550 C   0  0  0  0  0  0  0  0  0  0  0  0
  185.9150  178.3160  144.2090 C   0  0  0  0  0  3  0  0  0  0  0  0
  190.5780  177.1140  143.7150 C   0  0  0  0  0  0  0  0  0  0  0  0
  190.6890  176.9780  145.1030 C   0  0  0  0  0  3  0  0  0  0  0  0
  184.9380  178.2800  147.7140 O   0  0  0  0  0  1  0  0  0  0  0  0
  184.8500  178.4160  146.4640 C   0  0  0  0  0  0  0  0  0  0  0  0
  183.6350  178.7970  145.9070 O   0  0  0  0  0  0  0  0  0  0  0  0
  1  2  2  0  0  0  0
  1  9  1  0  0  0  0
  3  5  1  0  0  0  0
  4  7  1  0  0  0  0
  5  6  2  0  0  0  0
  5 13  1  0  0  0  0
  7  9  1  0  0  0  0
  7  3  2  0  0  0  0
  8  6  1  0  0  0  0
  9  8  2  0  0  0  0
 10 11  1  0  0  0  0
 12 10  1  0  0  0  0
 13 10  2  0  0  0  0
 14 15  1  0  0  0  0
 15 19  1  0  0  0  0
 16 20  2  0  0  0  0
 17 16  1  0  0  0  0
 17 15  2  0  0  0  0
 19 18  2  0  0  0  0
 19  1  1  0  0  0  0
 20 18  1  0  0  0  0
 21  2  1  0  0  0  0
 21 30  1  0  0  0  0
 23 30  2  0  0  0  0
 23 28  1  0  0  0  0
 24 25  1  0  0  0  0
 24 33  1  0  0  0  0
 26 22  1  0  0  0  0
 26 25  2  0  0  0  0
 27 28  2  0  0  0  0
 27 29  1  0  0  0  0
 28 26  1  0  0  0  0
 29 24  2  0  0  0  0
 30 31  1  0  0  0  0
 31 22  2  0  0  0  0
 33 32  1  0  0  0  0
 34 33  2  0  0  0  0
M  END
>  <MODEL>
4

>  <REMARK>
 VINA RESULT:      -7.7      3.732      5.317
  Name = 
  6 active torsions:
  status: ('A' for Active; 'I' for Inactive)
    1  A    between atoms: C_1  and  C_20
    2  A    between atoms: C_1  and  C_34
    3  A    between atoms: C_7  and  C_15
    4  A    between atoms: C_9  and  C_18
    5  A    between atoms: C_18  and  C_30
    6  A    between atoms: C_23  and  C_25
                            x       y       z     vdW  Elec       q    Type
                         _______ _______ _______ _____ _____    ______ ____

>  <TORSDO>
F 6

$$$$
=
 OpenBabel11052420323D

 34 37  0  0  0  0  0  0  0  0999 V2000
  190.3970  175.0790  145.2020 C   0  0  0  0  0  0  0  0  0  0  0  0
  190.2240  173.8820  144.6210 C   0  0  0  0  0  3  0  0  0  0  0  0
  187.3660  176.4170  147.0900 C   0  0  0  0  0  3  0  0  0  0  0  0
  188.8380  174.6070  147.6370 O   0  0  0  0  0  1  0  0  0  0  0  0
  186.9390  177.4420  146.2410 C   0  0  0  0  0  0  0  0  0  0  0  0
  187.6400  177.6730  145.0510 C   0  0  0  0  0  3  0  0  0  0  0  0
  188.4780  175.6330  146.7710 C   0  0  0  0  0  0  0  0  0  0  0  0
  188.7540  176.8990  144.7240 C   0  0  0  0  0  3  0  0  0  0  0  0
  189.1980  175.8740  145.5780 C   0  0  0  0  0  0  0  0  0  0  0  0
  184.6900  178.5600  145.9090 C   0  0  0  0  0  0  0  0  0  0  0  0
  183.7090  179.2930  146.4880 F   0  0  0  0  0  0  0  0  0  0  0  0
  184.5200  178.1710  144.4780 C   0  0  0  0  0  1  0  0  0  0  0  0
  185.7550  178.2270  146.6470 C   0  0  0  0  0  3  0  0  0  0  0  0
  191.8690  176.3780  143.0630 O   0  0  0  0  0  1  0  0  0  0  0  0
  192.4420  176.2760  144.3260 C   0  0  0  0  0  0  0  0  0  0  0  0
  194.3330  176.6770  145.7880 C   0  0  0  0  0  3  0  0  0  0  0  0
  193.7250  176.7910  144.5360 C   0  0  0  0  0  3  0  0  0  0  0  0
  192.3800  175.5260  146.6320 C   0  0  0  0  0  3  0  0  0  0  0  0
  191.7550  175.6470  145.3830 C   0  0  0  0  0  0  0  0  0  0  0  0
  193.6630  176.0410  146.8350 C   0  0  0  0  0  3  0  0  0  0  0  0
  191.3410  173.0220  144.1200 C   0  0  0  0  0  2  0  0  0  0  0  0
  192.2310  172.2310  140.5250 C   0  0  0  0  0  3  0  0  0  0  0  0
  190.0040  173.0750  142.0070 C   0  0  0  0  0  3  0  0  0  0  0  0
  189.6790  172.5120  137.8520 C   0  0  0  0  0  0  0  0  0  0  0  0
  190.9000  172.2790  138.5000 C   0  0  0  0  0  3  0  0  0  0  0  0
  191.0130  172.4650  139.8800 C   0  0  0  0  0  0  0  0  0  0  0  0
  188.6740  173.1210  139.9820 C   0  0  0  0  0  3  0  0  0  0  0  0
  189.8910  172.8900  140.6270 C   0  0  0  0  0  0  0  0  0  0  0  0
  188.5690  172.9330  138.6020 C   0  0  0  0  0  3  0  0  0  0  0  0
  191.2270  172.8440  142.6470 C   0  0  0  0  0  0  0  0  0  0  0  0
  192.3370  172.4180  141.9070 C   0  0  0  0  0  3  0  0  0  0  0  0
  189.3510  171.1670  135.9240 O   0  0  0  0  0  1  0  0  0  0  0  0
  189.5670  172.3140  136.3990 C   0  0  0  0  0  0  0  0  0  0  0  0
  189.6960  173.3940  135.5330 O   0  0  0  0  0  0  0  0  0  0  0  0
  1 19  1  0  0  0  0
  1  9  1  0  0  0  0
  2  1  2  0  0  0  0
  5 13  1  0  0  0  0
  5  3  2  0  0  0  0
  6  5  1  0  0  0  0
  7  3  1  0  0  0  0
  7  4  1  0  0  0  0
  8  6  2  0  0  0  0
  8  9  1  0  0  0  0
  9  7  2  0  0  0  0
 10 11  1  0  0  0  0
 10 13  2  0  0  0  0
 12 10  1  0  0  0  0
 14 15  1  0  0  0  0
 15 17  2  0  0  0  0
 15 19  1  0  0  0  0
 16 20  2  0  0  0  0
 17 16  1  0  0  0  0
 18 20  1  0  0  0  0
 19 18  2  0  0  0  0
 21  2  1  0  0  0  0
 22 31  1  0  0  0  0
 23 30  1  0  0  0  0
 24 25  2  0  0  0  0
 24 29  1  0  0  0  0
 25 26  1  0  0  0  0
 26 22  2  0  0  0  0
 26 28  1  0  0  0  0
 27 28  1  0  0  0  0
 28 23  2  0  0  0  0
 29 27  2  0  0  0  0
 30 21  1  0  0  0  0
 31 30  2  0  0  0  0
 32 33  1  0  0  0  0
 33 24  1  0  0  0  0
 34 33  2  0  0  0  0
M  END
>  <MODEL>
5

>  <REMARK>
 VINA RESULT:      -7.5      4.199      7.890
  Name = 
  6 active torsions:
  status: ('A' for Active; 'I' for Inactive)
    1  A    between atoms: C_1  and  C_20
    2  A    between atoms: C_1  and  C_34
    3  A    between atoms: C_7  and  C_15
    4  A    between atoms: C_9  and  C_18
    5  A    between atoms: C_18  and  C_30
    6  A    between atoms: C_23  and  C_25
                            x       y       z     vdW  Elec       q    Type
                         _______ _______ _______ _____ _____    ______ ____

>  <TORSDO>
F 6

$$$$
=
 OpenBabel11052420323D

 34 37  0  0  0  0  0  0  0  0999 V2000
  194.2650  174.7100  143.9540 C   0  0  0  0  0  0  0  0  0  0  0  0
  193.4520  175.4690  144.7050 C   0  0  0  0  0  3  0  0  0  0  0  0
  195.0890  171.1580  145.0730 C   0  0  0  0  0  3  0  0  0  0  0  0
  193.2200  171.9770  143.8160 O   0  0  0  0  0  1  0  0  0  0  0  0
  196.2770  171.3580  145.7800 C   0  0  0  0  0  0  0  0  0  0  0  0
  196.7880  172.6570  145.8960 C   0  0  0  0  0  3  0  0  0  0  0  0
  194.4150  172.2290  144.4800 C   0  0  0  0  0  0  0  0  0  0  0  0
  196.1250  173.7330  145.3050 C   0  0  0  0  0  3  0  0  0  0  0  0
  194.9350  173.5390  144.5810 C   0  0  0  0  0  0  0  0  0  0  0  0
  196.3620  169.1540  147.0260 C   0  0  0  0  0  0  0  0  0  0  0  0
  197.1590  168.1660  147.4990 F   0  0  0  0  0  0  0  0  0  0  0  0
  194.8920  169.0390  147.2620 C   0  0  0  0  0  1  0  0  0  0  0  0
  196.9320  170.1760  146.3790 C   0  0  0  0  0  3  0  0  0  0  0  0
  196.4220  176.5070  143.2190 O   0  0  0  0  0  1  0  0  0  0  0  0
  195.6250  175.9510  142.2250 C   0  0  0  0  0  0  0  0  0  0  0  0
  195.0690  175.7560  139.8740 C   0  0  0  0  0  3  0  0  0  0  0  0
  195.8730  176.2800  140.8890 C   0  0  0  0  0  3  0  0  0  0  0  0
  193.7590  174.5690  141.5250 C   0  0  0  0  0  3  0  0  0  0  0  0
  194.5670  175.0790  142.5500 C   0  0  0  0  0  0  0  0  0  0  0  0
  194.0100  174.9030  140.1920 C   0  0  0  0  0  3  0  0  0  0  0  0
  192.7840  176.7170  144.2210 C   0  0  0  0  0  2  0  0  0  0  0  0
  190.1010  176.7960  146.8920 C   0  0  0  0  0  3  0  0  0  0  0  0
  190.3570  177.3160  144.1470 C   0  0  0  0  0  3  0  0  0  0  0  0
  186.6430  177.8290  146.0530 C   0  0  0  0  0  0  0  0  0  0  0  0
  187.7560  177.3970  146.7870 C   0  0  0  0  0  3  0  0  0  0  0  0
  188.9920  177.2250  146.1580 C   0  0  0  0  0  0  0  0  0  0  0  0
  188.0130  177.9190  144.0440 C   0  0  0  0  0  3  0  0  0  0  0  0
  189.1210  177.4880  144.7760 C   0  0  0  0  0  0  0  0  0  0  0  0
  186.7800  178.0880  144.6800 C   0  0  0  0  0  3  0  0  0  0  0  0
  191.4630  176.8810  144.8860 C   0  0  0  0  0  0  0  0  0  0  0  0
  191.3350  176.6260  146.2570 C   0  0  0  0  0  3  0  0  0  0  0  0
  184.4010  177.1990  146.5130 O   0  0  0  0  0  0  0  0  0  0  0  0
  185.3450  178.0090  146.7200 C   0  0  0  0  0  0  0  0  0  0  0  0
  185.1440  179.0760  147.5890 O   0  0  0  0  0  1  0  0  0  0  0  0
  1  9  1  0  0  0  0
  1  2  2  0  0  0  0
  3  5  1  0  0  0  0
  4  7  1  0  0  0  0
  5  6  2  0  0  0  0
  5 13  1  0  0  0  0
  7  9  1  0  0  0  0
  7  3  2  0  0  0  0
  8  6  1  0  0  0  0
  9  8  2  0  0  0  0
 10 12  1  0  0  0  0
 10 11  1  0  0  0  0
 13 10  2  0  0  0  0
 15 19  1  0  0  0  0
 15 14  1  0  0  0  0
 16 20  2  0  0  0  0
 16 17  1  0  0  0  0
 17 15  2  0  0  0  0
 18 19  2  0  0  0  0
 19  1  1  0  0  0  0
 20 18  1  0  0  0  0
 21  2  1  0  0  0  0
 21 30  1  0  0  0  0
 23 28  2  0  0  0  0
 23 30  1  0  0  0  0
 24 33  1  0  0  0  0
 24 25  2  0  0  0  0
 26 25  1  0  0  0  0
 26 22  2  0  0  0  0
 27 29  2  0  0  0  0
 27 28  1  0  0  0  0
 28 26  1  0  0  0  0
 29 24  1  0  0  0  0
 30 31  2  0  0  0  0
 31 22  1  0  0  0  0
 32 33  2  0  0  0  0
 33 34  1  0  0  0  0
M  END
>  <MODEL>
6

>  <REMARK>
 VINA RESULT:      -7.5      4.554      6.287
  Name = 
  6 active torsions:
  status: ('A' for Active; 'I' for Inactive)
    1  A    between atoms: C_1  and  C_20
    2  A    between atoms: C_1  and  C_34
    3  A    between atoms: C_7  and  C_15
    4  A    between atoms: C_9  and  C_18
    5  A    between atoms: C_18  and  C_30
    6  A    between atoms: C_23  and  C_25
                            x       y       z     vdW  Elec       q    Type
                         _______ _______ _______ _____ _____    ______ ____

>  <TORSDO>
F 6

$$$$
=
 OpenBabel11052420323D

 34 37  0  0  0  0  0  0  0  0999 V2000
  189.3130  175.9100  143.1940 C   0  0  0  0  0  0  0  0  0  0  0  0
  189.1440  176.6860  142.1130 C   0  0  0  0  0  3  0  0  0  0  0  0
  189.2520  172.2110  142.2640 C   0  0  0  0  0  3  0  0  0  0  0  0
  187.5340  173.8710  142.0720 O   0  0  0  0  0  1  0  0  0  0  0  0
  190.5340  171.8080  142.6450 C   0  0  0  0  0  0  0  0  0  0  0  0
  191.4000  172.7480  143.2170 C   0  0  0  0  0  3  0  0  0  0  0  0
  188.8310  173.5320  142.4390 C   0  0  0  0  0  0  0  0  0  0  0  0
  190.9910  174.0700  143.3940 C   0  0  0  0  0  3  0  0  0  0  0  0
  189.7070  174.4880  143.0020 C   0  0  0  0  0  0  0  0  0  0  0  0
  191.4760  169.8440  141.3500 C   0  0  0  0  0  0  0  0  0  0  0  0
  191.7320  168.5140  141.3650 F   0  0  0  0  0  0  0  0  0  0  0  0
  191.8470  170.6140  140.1260 C   0  0  0  0  0  1  0  0  0  0  0  0
  190.9060  170.3940  142.4280 C   0  0  0  0  0  3  0  0  0  0  0  0
  191.3060  177.2280  144.8420 O   0  0  0  0  0  1  0  0  0  0  0  0
  190.0130  177.0660  145.3280 C   0  0  0  0  0  0  0  0  0  0  0  0
  188.4190  177.3570  147.1310 C   0  0  0  0  0  3  0  0  0  0  0  0
  189.7030  177.5330  146.6090 C   0  0  0  0  0  3  0  0  0  0  0  0
  187.7430  176.2440  145.0920 C   0  0  0  0  0  3  0  0  0  0  0  0
  189.0250  176.4260  144.5540 C   0  0  0  0  0  0  0  0  0  0  0  0
  187.4410  176.7110  146.3740 C   0  0  0  0  0  3  0  0  0  0  0  0
  188.6700  178.1040  142.1640 C   0  0  0  0  0  2  0  0  0  0  0  0
  185.4440  177.9480  140.1870 C   0  0  0  0  0  3  0  0  0  0  0  0
  186.2820  178.4730  142.8120 C   0  0  0  0  0  3  0  0  0  0  0  0
  182.1920  178.6010  141.8410 C   0  0  0  0  0  0  0  0  0  0  0  0
  183.1400  178.2970  140.8540 C   0  0  0  0  0  3  0  0  0  0  0  0
  184.5000  178.2540  141.1720 C   0  0  0  0  0  0  0  0  0  0  0  0
  183.9790  178.8190  143.4780 C   0  0  0  0  0  3  0  0  0  0  0  0
  184.9230  178.5170  142.4940 C   0  0  0  0  0  0  0  0  0  0  0  0
  182.6200  178.8620  143.1530 C   0  0  0  0  0  3  0  0  0  0  0  0
  187.2230  178.1710  141.8210 C   0  0  0  0  0  0  0  0  0  0  0  0
  186.8030  177.9060  140.5120 C   0  0  0  0  0  3  0  0  0  0  0  0
  180.3690  178.3260  140.3470 O   0  0  0  0  0  0  0  0  0  0  0  0
  180.7620  178.6460  141.5000 C   0  0  0  0  0  0  0  0  0  0  0  0
  179.8280  179.0420  142.4500 O   0  0  0  0  0  1  0  0  0  0  0  0
  1 19  1  0  0  0  0
  2 21  1  0  0  0  0
  2  1  2  0  0  0  0
  3  7  2  0  0  0  0
  3  5  1  0  0  0  0
  4  7  1  0  0  0  0
  5  6  2  0  0  0  0
  6  8  1  0  0  0  0
  7  9  1  0  0  0  0
  9  1  1  0  0  0  0
  9  8  2  0  0  0  0
 10 11  1  0  0  0  0
 10 13  2  0  0  0  0
 12 10  1  0  0  0  0
 13  5  1  0  0  0  0
 14 15  1  0  0  0  0
 15 17  1  0  0  0  0
 17 16  2  0  0  0  0
 18 20  2  0  0  0  0
 19 18  1  0  0  0  0
 19 15  2  0  0  0  0
 20 16  1  0  0  0  0
 22 31  2  0  0  0  0
 22 26  1  0  0  0  0
 24 29  1  0  0  0  0
 25 26  1  0  0  0  0
 25 24  2  0  0  0  0
 26 28  2  0  0  0  0
 28 23  1  0  0  0  0
 28 27  1  0  0  0  0
 29 27  2  0  0  0  0
 30 21  1  0  0  0  0
 30 23  2  0  0  0  0
 31 30  1  0  0  0  0
 32 33  2  0  0  0  0
 33 24  1  0  0  0  0
 33 34  1  0  0  0  0
M  END
>  <MODEL>
7

>  <REMARK>
 VINA RESULT:      -7.5      1.674      2.314
  Name = 
  6 active torsions:
  status: ('A' for Active; 'I' for Inactive)
    1  A    between atoms: C_1  and  C_20
    2  A    between atoms: C_1  and  C_34
    3  A    between atoms: C_7  and  C_15
    4  A    between atoms: C_9  and  C_18
    5  A    between atoms: C_18  and  C_30
    6  A    between atoms: C_23  and  C_25
                            x       y       z     vdW  Elec       q    Type
                         _______ _______ _______ _____ _____    ______ ____

>  <TORSDO>
F 6

$$$$
=
 OpenBabel11052420323D

 34 37  0  0  0  0  0  0  0  0999 V2000
  190.0440  174.8910  145.2490 C   0  0  0  0  0  0  0  0  0  0  0  0
  189.9910  173.5920  144.9150 C   0  0  0  0  0  3  0  0  0  0  0  0
  186.7610  176.7110  144.5720 C   0  0  0  0  0  3  0  0  0  0  0  0
  188.3350  175.7630  143.0340 O   0  0  0  0  0  1  0  0  0  0  0  0
  186.3480  177.0300  145.8690 C   0  0  0  0  0  0  0  0  0  0  0  0
  187.1570  176.6590  146.9500 C   0  0  0  0  0  3  0  0  0  0  0  0
  187.9580  176.0260  144.3460 C   0  0  0  0  0  0  0  0  0  0  0  0
  188.3520  175.9720  146.7350 C   0  0  0  0  0  3  0  0  0  0  0  0
  188.7690  175.6360  145.4360 C   0  0  0  0  0  0  0  0  0  0  0  0
  184.7010  178.9130  145.4680 C   0  0  0  0  0  0  0  0  0  0  0  0
  183.4710  179.4030  145.7550 F   0  0  0  0  0  0  0  0  0  0  0  0
  185.5690  179.7010  144.5450 C   0  0  0  0  0  1  0  0  0  0  0  0
  185.0700  177.7560  146.0280 C   0  0  0  0  0  3  0  0  0  0  0  0
  191.3910  176.0300  142.9440 O   0  0  0  0  0  1  0  0  0  0  0  0
  191.9690  176.1470  144.2030 C   0  0  0  0  0  0  0  0  0  0  0  0
  193.8130  176.9080  145.5800 C   0  0  0  0  0  3  0  0  0  0  0  0
  193.1980  176.8020  144.3300 C   0  0  0  0  0  3  0  0  0  0  0  0
  191.9740  175.7010  146.5870 C   0  0  0  0  0  3  0  0  0  0  0  0
  191.3430  175.6000  145.3410 C   0  0  0  0  0  0  0  0  0  0  0  0
  193.2030  176.3550  146.7080 C   0  0  0  0  0  3  0  0  0  0  0  0
  191.1930  172.7520  144.6180 C   0  0  0  0  0  2  0  0  0  0  0  0
  192.0490  170.8910  141.4330 C   0  0  0  0  0  3  0  0  0  0  0  0
  190.1350  172.7250  142.3520 C   0  0  0  0  0  3  0  0  0  0  0  0
  189.9810  171.3250  138.3890 C   0  0  0  0  0  0  0  0  0  0  0  0
  190.9890  170.8770  139.2530 C   0  0  0  0  0  3  0  0  0  0  0  0
  191.0450  171.3400  140.5710 C   0  0  0  0  0  0  0  0  0  0  0  0
  189.0750  172.7080  140.1730 C   0  0  0  0  0  3  0  0  0  0  0  0
  190.0800  172.2620  141.0340 C   0  0  0  0  0  0  0  0  0  0  0  0
  189.0260  172.2420  138.8570 C   0  0  0  0  0  3  0  0  0  0  0  0
  191.1460  172.2760  143.2090 C   0  0  0  0  0  0  0  0  0  0  0  0
  192.0980  171.3570  142.7500 C   0  0  0  0  0  3  0  0  0  0  0  0
  190.4370  169.7230  136.6980 O   0  0  0  0  0  1  0  0  0  0  0  0
  189.9280  170.8350  137.0030 C   0  0  0  0  0  0  0  0  0  0  0  0
  189.3130  171.5940  136.0140 O   0  0  0  0  0  0  0  0  0  0  0  0
  1 19  1  0  0  0  0
  1  9  1  0  0  0  0
  2  1  2  0  0  0  0
  3  5  1  0  0  0  0
  4  7  1  0  0  0  0
  5 13  1  0  0  0  0
  5  6  2  0  0  0  0
  7  3  2  0  0  0  0
  7  9  1  0  0  0  0
  8  6  1  0  0  0  0
  9  8  2  0  0  0  0
 10 11  1  0  0  0  0
 10 13  2  0  0  0  0
 12 10  1  0  0  0  0
 14 15  1  0  0  0  0
 15 17  2  0  0  0  0
 15 19  1  0  0  0  0
 16 20  2  0  0  0  0
 17 16  1  0  0  0  0
 18 20  1  0  0  0  0
 19 18  2  0  0  0  0
 21  2  1  0  0  0  0
 22 31  1  0  0  0  0
 23 30  1  0  0  0  0
 24 29  1  0  0  0  0
 24 25  2  0  0  0  0
 25 26  1  0  0  0  0
 26 28  1  0  0  0  0
 26 22  2  0  0  0  0
 27 28  1  0  0  0  0
 28 23  2  0  0  0  0
 29 27  2  0  0  0  0
 30 21  1  0  0  0  0
 31 30  2  0  0  0  0
 32 33  1  0  0  0  0
 33 24  1  0  0  0  0
 34 33  2  0  0  0  0
M  END
>  <MODEL>
8

>  <REMARK>
 VINA RESULT:      -7.5      3.900      8.098
  Name = 
  6 active torsions:
  status: ('A' for Active; 'I' for Inactive)
    1  A    between atoms: C_1  and  C_20
    2  A    between atoms: C_1  and  C_34
    3  A    between atoms: C_7  and  C_15
    4  A    between atoms: C_9  and  C_18
    5  A    between atoms: C_18  and  C_30
    6  A    between atoms: C_23  and  C_25
                            x       y       z     vdW  Elec       q    Type
                         _______ _______ _______ _____ _____    ______ ____

>  <TORSDO>
F 6

$$$$
=
 OpenBabel11052420323D

 34 37  0  0  0  0  0  0  0  0999 V2000
  194.9510  175.2440  143.3970 C   0  0  0  0  0  0  0  0  0  0  0  0
  194.6010  176.4020  143.9760 C   0  0  0  0  0  3  0  0  0  0  0  0
  197.3430  175.4350  140.4310 C   0  0  0  0  0  3  0  0  0  0  0  0
  197.7910  175.6170  142.7790 O   0  0  0  0  0  1  0  0  0  0  0  0
  196.4630  175.2860  139.3550 C   0  0  0  0  0  0  0  0  0  0  0  0
  195.0950  175.1400  139.6120 C   0  0  0  0  0  3  0  0  0  0  0  0
  196.8760  175.4320  141.7490 C   0  0  0  0  0  0  0  0  0  0  0  0
  194.6180  175.1330  140.9240 C   0  0  0  0  0  3  0  0  0  0  0  0
  195.4960  175.2700  142.0130 C   0  0  0  0  0  0  0  0  0  0  0  0
  197.4480  174.2600  137.2580 C   0  0  0  0  0  0  0  0  0  0  0  0
  197.9410  174.5030  136.0210 F   0  0  0  0  0  0  0  0  0  0  0  0
  197.4030  172.8440  137.7280 C   0  0  0  0  0  1  0  0  0  0  0  0
  197.0330  175.2990  137.9920 C   0  0  0  0  0  3  0  0  0  0  0  0
  192.4270  173.8180  143.2620 O   0  0  0  0  0  1  0  0  0  0  0  0
  193.4800  173.2790  143.9930 C   0  0  0  0  0  0  0  0  0  0  0  0
  194.3290  171.5160  145.4230 C   0  0  0  0  0  3  0  0  0  0  0  0
  193.2950  172.0640  144.6590 C   0  0  0  0  0  3  0  0  0  0  0  0
  195.7420  173.3970  144.8600 C   0  0  0  0  0  3  0  0  0  0  0  0
  194.7160  173.9490  144.0820 C   0  0  0  0  0  0  0  0  0  0  0  0
  195.5510  172.1840  145.5260 C   0  0  0  0  0  3  0  0  0  0  0  0
  193.9660  176.5070  145.3270 C   0  0  0  0  0  2  0  0  0  0  0  0
  190.6670  177.7940  143.9830 C   0  0  0  0  0  3  0  0  0  0  0  0
  191.6040  176.1940  146.0890 C   0  0  0  0  0  3  0  0  0  0  0  0
  187.4800  176.8880  145.6440 C   0  0  0  0  0  0  0  0  0  0  0  0
  188.3900  177.4560  144.7410 C   0  0  0  0  0  3  0  0  0  0  0  0
  189.7610  177.2290  144.8850 C   0  0  0  0  0  0  0  0  0  0  0  0
  189.3270  175.8550  146.8440 C   0  0  0  0  0  3  0  0  0  0  0  0
  190.2330  176.4220  145.9450 C   0  0  0  0  0  0  0  0  0  0  0  0
  187.9580  176.0880  146.6950 C   0  0  0  0  0  3  0  0  0  0  0  0
  192.5070  176.7670  145.1860 C   0  0  0  0  0  0  0  0  0  0  0  0
  192.0380  177.5610  144.1330 C   0  0  0  0  0  3  0  0  0  0  0  0
  185.5870  177.6470  144.4290 O   0  0  0  0  0  0  0  0  0  0  0  0
  186.0380  177.1310  145.4880 C   0  0  0  0  0  0  0  0  0  0  0  0
  185.1560  176.7940  146.5080 O   0  0  0  0  0  1  0  0  0  0  0  0
  1  2  2  0  0  0  0
  1 19  1  0  0  0  0
  2 21  1  0  0  0  0
  3  7  1  0  0  0  0
  5  6  1  0  0  0  0
  5  3  2  0  0  0  0
  6  8  2  0  0  0  0
  7  9  2  0  0  0  0
  7  4  1  0  0  0  0
  8  9  1  0  0  0  0
  9  1  1  0  0  0  0
 10 12  1  0  0  0  0
 10 13  2  0  0  0  0
 11 10  1  0  0  0  0
 13  5  1  0  0  0  0
 14 15  1  0  0  0  0
 15 19  2  0  0  0  0
 15 17  1  0  0  0  0
 16 20  1  0  0  0  0
 17 16  2  0  0  0  0
 18 20  2  0  0  0  0
 19 18  1  0  0  0  0
 22 31  2  0  0  0  0
 22 26  1  0  0  0  0
 24 29  1  0  0  0  0
 25 26  1  0  0  0  0
 25 24  2  0  0  0  0
 26 28  2  0  0  0  0
 28 23  1  0  0  0  0
 28 27  1  0  0  0  0
 29 27  2  0  0  0  0
 30 21  1  0  0  0  0
 30 23  2  0  0  0  0
 31 30  1  0  0  0  0
 32 33  2  0  0  0  0
 33 24  1  0  0  0  0
 33 34  1  0  0  0  0
M  END
>  <MODEL>
9

>  <REMARK>
 VINA RESULT:      -7.5      4.424      6.190
  Name = 
  6 active torsions:
  status: ('A' for Active; 'I' for Inactive)
    1  A    between atoms: C_1  and  C_20
    2  A    between atoms: C_1  and  C_34
    3  A    between atoms: C_7  and  C_15
    4  A    between atoms: C_9  and  C_18
    5  A    between atoms: C_18  and  C_30
    6  A    between atoms: C_23  and  C_25
                            x       y       z     vdW  Elec       q    Type
                         _______ _______ _______ _____ _____    ______ ____

>  <TORSDO>
F 6

$$$$
