=
 OpenBabel11052419233D

 32 35  0  0  1  0  0  0  0  0999 V2000
  189.0660  175.1230  147.2330 C   0  0  0  0  0  0  0  0  0  0  0  0
  188.6040  174.1890  148.0980 F   0  0  0  0  0  0  0  0  0  0  0  0
  190.0210  177.0530  145.4510 C   0  0  0  0  0  3  0  0  0  0  0  0
  188.1680  175.8780  146.4730 C   0  0  0  0  0  3  0  0  0  0  0  0
  190.9220  176.2990  146.2120 C   0  0  0  0  0  0  0  0  0  0  0  0
  190.4430  175.3380  147.1070 C   0  0  0  0  0  3  0  0  0  0  0  0
  188.6450  176.8460  145.5810 C   0  0  0  0  0  0  0  0  0  0  0  0
  187.6880  177.6810  144.7900 C   0  0  0  0  0  2  0  0  0  0  0  0
  186.6030  176.8510  144.0980 C   0  0  2  0  0  3  0  0  0  0  0  0
  186.5980  177.0850  142.5930 C   0  0  0  0  0  2  0  0  0  0  0  0
  188.1850  177.7990  142.0660 S   0  0  0  0  0  0  0  0  0  0  0  0
  188.9710  176.1700  141.9170 C   0  0  0  0  0  2  0  0  0  0  0  0
  188.1610  175.2980  140.9800 C   0  0  0  0  0  2  0  0  0  0  0  0
  188.1620  173.0840  140.5760 O   0  0  0  0  0  1  0  0  0  0  0  0
  188.9690  174.1710  140.5520 N   0  0  0  0  0  2  0  0  0  0  0  0
  185.3450  177.1300  144.6410 O   0  0  0  0  0  0  0  0  0  0  0  0
  185.2680  178.4820  144.6540 N   0  0  0  0  0  2  0  0  0  0  0  0
  184.2530  178.8320  145.6330 C   0  0  0  0  0  2  0  0  0  0  0  0
  185.8270  179.1030  147.5430 C   0  0  0  0  0  1  0  0  0  0  0  0
  184.6500  178.3120  147.0030 C   0  0  0  0  0  2  0  0  0  0  0  0
  192.3860  176.5430  146.0940 C   0  0  0  0  0  2  0  0  0  0  0  0
  194.2350  176.1090  144.2030 O   0  0  0  0  0  0  0  0  0  0  0  0
  193.6960  174.2500  145.7080 O   0  0  0  0  0  0  0  0  0  0  0  0
  193.1250  175.4070  144.9330 S   0  0  0  0  0  0  0  0  0  0  0  0
  191.8960  174.9060  143.7810 N   0  0  0  0  0  0  0  0  0  0  0  0
  192.2170  173.7900  142.8170 C   0  0  2  0  0  0  0  0  0  0  0  0
  193.4530  173.1180  143.0330 O   0  0  0  0  0  0  0  0  0  0  0  0
  193.5270  174.2250  142.2170 C   0  0  0  0  0  2  0  0  0  0  0  0
  191.5720  173.5430  144.1250 C   0  0  2  0  0  3  0  0  0  0  0  0
  190.0880  173.3190  143.9280 C   0  0  0  0  0  3  0  0  0  0  0  0
  189.8620  171.8990  143.4530 C   0  0  0  0  0  2  0  0  0  0  0  0
  189.6130  172.2590  144.9010 C   0  0  0  0  0  2  0  0  0  0  0  0
  1  2  1  0  0  0  0
  3  7  2  0  0  0  0
  3  5  1  0  0  0  0
  4  1  2  0  0  0  0
  5  6  2  0  0  0  0
  6  1  1  0  0  0  0
  7  4  1  0  0  0  0
  8  7  1  0  0  0  0
  9 10  1  6  0  0  0
  9 16  1  0  0  0  0
  9  8  1  0  0  0  0
 11 10  1  0  0  0  0
 12 11  1  0  0  0  0
 13 12  1  0  0  0  0
 15 14  1  0  0  0  0
 15 13  1  0  0  0  0
 16 17  1  0  0  0  0
 17 18  1  0  0  0  0
 18 20  1  0  0  0  0
 20 19  1  0  0  0  0
 21  5  1  0  0  0  0
 22 24  2  0  0  0  0
 24 23  2  0  0  0  0
 24 21  1  0  0  0  0
 25 29  1  0  0  0  0
 25 24  1  0  0  0  0
 26 28  1  6  0  0  0
 26 27  1  0  0  0  0
 26 25  1  0  0  0  0
 26 29  1  0  0  0  0
 28 27  1  0  0  0  0
 29 30  1  6  0  0  0
 30 32  1  0  0  0  0
 31 30  1  0  0  0  0
 31 32  1  0  0  0  0
M  END
>  <MODEL>
1

>  <REMARK>
 VINA RESULT:      -5.9      0.000      0.000
  Name = 
  15 active torsions:
  status: ('A' for Active; 'I' for Inactive)
    1  A    between atoms: C_1  and  C_30
    2  A    between atoms: N_2  and  S_27
    3  A    between atoms: C_6  and  S_17
    4  A    between atoms: C_6  and  C_31
    5  A    between atoms: C_7  and  C_26
    6  A    between atoms: C_7  and  C_31
    7  A    between atoms: O_9  and  C_31
    8  A    between atoms: O_9  and  N_32
    9  A    between atoms: C_12  and  C_28
   10  A    between atoms: C_12  and  N_32
   11  A    between atoms: C_16  and  C_20
   12  A    between atoms: C_16  and  S_27
   13  A    between atoms: S_17  and  C_29
   14  A    between atoms: C_18  and  N_25
   15  A    between atoms: C_18  and  C_29
                            x       y       z     vdW  Elec       q    Type
                         _______ _______ _______ _____ _____    ______ ____

>  <TORSDO>
F 15

$$$$
=
 OpenBabel11052419233D

 32 35  0  0  1  0  0  0  0  0999 V2000
  189.3260  175.0830  147.2420 C   0  0  0  0  0  0  0  0  0  0  0  0
  188.6550  174.1610  147.9710 F   0  0  0  0  0  0  0  0  0  0  0  0
  190.7120  176.9900  145.7390 C   0  0  0  0  0  3  0  0  0  0  0  0
  188.6360  175.9000  146.3410 C   0  0  0  0  0  3  0  0  0  0  0  0
  191.4040  176.1740  146.6400 C   0  0  0  0  0  0  0  0  0  0  0  0
  190.7100  175.2240  147.3950 C   0  0  0  0  0  3  0  0  0  0  0  0
  189.3280  176.8560  145.5880 C   0  0  0  0  0  0  0  0  0  0  0  0
  188.5910  177.7560  144.6480 C   0  0  0  0  0  2  0  0  0  0  0  0
  187.2120  177.2150  144.2630 C   0  0  2  0  0  3  0  0  0  0  0  0
  187.2070  176.6630  142.8440 C   0  0  0  0  0  2  0  0  0  0  0  0
  188.1340  177.7690  141.7390 S   0  0  0  0  0  0  0  0  0  0  0  0
  186.8930  177.6390  140.4210 C   0  0  0  0  0  2  0  0  0  0  0  0
  185.5120  177.5150  141.0310 C   0  0  0  0  0  2  0  0  0  0  0  0
  183.4950  178.5060  141.1420 O   0  0  0  0  0  1  0  0  0  0  0  0
  184.6100  178.4440  140.3770 N   0  0  0  0  0  2  0  0  0  0  0  0
  186.2350  178.2060  144.4060 O   0  0  0  0  0  0  0  0  0  0  0  0
  185.1560  177.5550  144.9030 N   0  0  0  0  0  2  0  0  0  0  0  0
  184.5430  178.4470  145.8740 C   0  0  0  0  0  2  0  0  0  0  0  0
  185.9380  177.9140  147.8660 C   0  0  0  0  0  1  0  0  0  0  0  0
  185.5950  178.9720  146.8340 C   0  0  0  0  0  2  0  0  0  0  0  0
  192.8740  176.3390  146.8210 C   0  0  0  0  0  2  0  0  0  0  0  0
  195.2390  175.3680  146.0200 O   0  0  0  0  0  0  0  0  0  0  0  0
  193.3150  173.8500  145.9660 O   0  0  0  0  0  0  0  0  0  0  0  0
  193.7710  175.2630  145.7170 S   0  0  0  0  0  0  0  0  0  0  0  0
  193.4770  175.7850  144.0650 N   0  0  0  0  0  0  0  0  0  0  0  0
  194.0450  174.9640  142.9330 C   0  0  2  0  0  0  0  0  0  0  0  0
  194.6430  173.7260  143.3020 O   0  0  0  0  0  0  0  0  0  0  0  0
  195.4920  174.8100  143.3150 C   0  0  0  0  0  2  0  0  0  0  0  0
  192.6810  174.7440  143.4630 C   0  0  2  0  0  3  0  0  0  0  0  0
  191.6650  175.3700  142.5320 C   0  0  0  0  0  3  0  0  0  0  0  0
  191.2030  174.3300  141.5330 C   0  0  0  0  0  2  0  0  0  0  0  0
  190.3290  174.6780  142.7180 C   0  0  0  0  0  2  0  0  0  0  0  0
  1  6  1  0  0  0  0
  1  2  1  0  0  0  0
  3  5  1  0  0  0  0
  4  1  2  0  0  0  0
  5 21  1  0  0  0  0
  5  6  2  0  0  0  0
  7  3  2  0  0  0  0
  7  4  1  0  0  0  0
  8  7  1  0  0  0  0
  9 10  1  6  0  0  0
  9 16  1  0  0  0  0
  9  8  1  0  0  0  0
 11 10  1  0  0  0  0
 12 13  1  0  0  0  0
 12 11  1  0  0  0  0
 15 13  1  0  0  0  0
 15 14  1  0  0  0  0
 16 17  1  0  0  0  0
 17 18  1  0  0  0  0
 18 20  1  0  0  0  0
 20 19  1  0  0  0  0
 24 23  2  0  0  0  0
 24 22  2  0  0  0  0
 24 21  1  0  0  0  0
 25 24  1  0  0  0  0
 26 27  1  0  0  0  0
 26 28  1  6  0  0  0
 26 29  1  0  0  0  0
 26 25  1  0  0  0  0
 27 28  1  0  0  0  0
 29 30  1  6  0  0  0
 29 25  1  0  0  0  0
 30 32  1  0  0  0  0
 31 30  1  0  0  0  0
 31 32  1  0  0  0  0
M  END
>  <MODEL>
2

>  <REMARK>
 VINA RESULT:      -5.7      2.096      2.347
  Name = 
  15 active torsions:
  status: ('A' for Active; 'I' for Inactive)
    1  A    between atoms: C_1  and  C_30
    2  A    between atoms: N_2  and  S_27
    3  A    between atoms: C_6  and  S_17
    4  A    between atoms: C_6  and  C_31
    5  A    between atoms: C_7  and  C_26
    6  A    between atoms: C_7  and  C_31
    7  A    between atoms: O_9  and  C_31
    8  A    between atoms: O_9  and  N_32
    9  A    between atoms: C_12  and  C_28
   10  A    between atoms: C_12  and  N_32
   11  A    between atoms: C_16  and  C_20
   12  A    between atoms: C_16  and  S_27
   13  A    between atoms: S_17  and  C_29
   14  A    between atoms: C_18  and  N_25
   15  A    between atoms: C_18  and  C_29
                            x       y       z     vdW  Elec       q    Type
                         _______ _______ _______ _____ _____    ______ ____

>  <TORSDO>
F 15

$$$$
=
 OpenBabel11052419233D

 32 35  0  0  1  0  0  0  0  0999 V2000
  189.1870  177.1410  146.3160 C   0  0  0  0  0  0  0  0  0  0  0  0
  189.0610  177.9160  147.4190 F   0  0  0  0  0  0  0  0  0  0  0  0
  189.4450  175.5380  144.0400 C   0  0  0  0  0  3  0  0  0  0  0  0
  189.4460  175.7730  146.4490 C   0  0  0  0  0  3  0  0  0  0  0  0
  189.1850  176.9070  143.9050 C   0  0  0  0  0  0  0  0  0  0  0  0
  189.0510  177.7060  145.0440 C   0  0  0  0  0  3  0  0  0  0  0  0
  189.5740  174.9690  145.3100 C   0  0  0  0  0  0  0  0  0  0  0  0
  189.8170  173.4990  145.4470 C   0  0  0  0  0  2  0  0  0  0  0  0
  190.5680  172.9050  144.2530 C   0  0  2  0  0  3  0  0  0  0  0  0
  189.7350  171.8480  143.5410 C   0  0  0  0  0  2  0  0  0  0  0  0
  190.0440  171.9110  141.7500 S   0  0  0  0  0  0  0  0  0  0  0  0
  188.6170  172.9900  141.4510 C   0  0  0  0  0  2  0  0  0  0  0  0
  189.0210  174.1280  140.5360 C   0  0  0  0  0  2  0  0  0  0  0  0
  188.0100  172.8460  138.9880 O   0  0  0  0  0  1  0  0  0  0  0  0
  189.0860  173.6480  139.1680 N   0  0  0  0  0  2  0  0  0  0  0  0
  191.7960  172.3700  144.6580 O   0  0  0  0  0  0  0  0  0  0  0  0
  192.7010  173.3380  144.3810 N   0  0  0  0  0  2  0  0  0  0  0  0
  193.5580  173.4540  145.5490 C   0  0  0  0  0  2  0  0  0  0  0  0
  193.0890  175.6900  146.5390 C   0  0  0  0  0  1  0  0  0  0  0  0
  194.0520  174.8820  145.6900 C   0  0  0  0  0  2  0  0  0  0  0  0
  189.0170  177.5050  142.5510 C   0  0  0  0  0  2  0  0  0  0  0  0
  187.2710  177.4800  140.5190 O   0  0  0  0  0  0  0  0  0  0  0  0
  186.7720  176.0650  142.4580 O   0  0  0  0  0  0  0  0  0  0  0  0
  187.3180  177.3970  142.0180 S   0  0  0  0  0  0  0  0  0  0  0  0
  186.4290  178.7490  142.7050 N   0  0  0  0  0  0  0  0  0  0  0  0
  184.9220  178.7430  142.6240 C   0  0  2  0  0  0  0  0  0  0  0  0
  184.3310  177.5440  142.1340 O   0  0  0  0  0  0  0  0  0  0  0  0
  184.6600  178.4680  141.1680 C   0  0  0  0  0  2  0  0  0  0  0  0
  185.6540  178.1970  143.7880 C   0  0  2  0  0  3  0  0  0  0  0  0
  185.6130  179.1900  144.9290 C   0  0  0  0  0  3  0  0  0  0  0  0
  184.3430  178.9770  145.7250 C   0  0  0  0  0  2  0  0  0  0  0  0
  185.6580  178.4390  146.2440 C   0  0  0  0  0  2  0  0  0  0  0  0
  1  4  1  0  0  0  0
  1  2  1  0  0  0  0
  3  7  1  0  0  0  0
  5  3  2  0  0  0  0
  5  6  1  0  0  0  0
  6  1  2  0  0  0  0
  7  8  1  0  0  0  0
  7  4  2  0  0  0  0
  9 10  1  1  0  0  0
  9 16  1  0  0  0  0
  9  8  1  0  0  0  0
 11 10  1  0  0  0  0
 12 11  1  0  0  0  0
 13 12  1  0  0  0  0
 14 15  1  0  0  0  0
 15 13  1  0  0  0  0
 17 16  1  0  0  0  0
 17 18  1  0  0  0  0
 18 20  1  0  0  0  0
 20 19  1  0  0  0  0
 21  5  1  0  0  0  0
 22 24  2  0  0  0  0
 24 23  2  0  0  0  0
 24 21  1  0  0  0  0
 24 25  1  0  0  0  0
 25 29  1  0  0  0  0
 26 28  1  1  0  0  0
 26 25  1  0  0  0  0
 26 29  1  0  0  0  0
 27 26  1  0  0  0  0
 28 27  1  0  0  0  0
 29 30  1  1  0  0  0
 30 31  1  0  0  0  0
 30 32  1  0  0  0  0
 31 32  1  0  0  0  0
M  END
>  <MODEL>
3

>  <REMARK>
 VINA RESULT:      -5.7      2.258      6.621
  Name = 
  15 active torsions:
  status: ('A' for Active; 'I' for Inactive)
    1  A    between atoms: C_1  and  C_30
    2  A    between atoms: N_2  and  S_27
    3  A    between atoms: C_6  and  S_17
    4  A    between atoms: C_6  and  C_31
    5  A    between atoms: C_7  and  C_26
    6  A    between atoms: C_7  and  C_31
    7  A    between atoms: O_9  and  C_31
    8  A    between atoms: O_9  and  N_32
    9  A    between atoms: C_12  and  C_28
   10  A    between atoms: C_12  and  N_32
   11  A    between atoms: C_16  and  C_20
   12  A    between atoms: C_16  and  S_27
   13  A    between atoms: S_17  and  C_29
   14  A    between atoms: C_18  and  N_25
   15  A    between atoms: C_18  and  C_29
                            x       y       z     vdW  Elec       q    Type
                         _______ _______ _______ _____ _____    ______ ____

>  <TORSDO>
F 15

$$$$
=
 OpenBabel11052419233D

 32 35  0  0  1  0  0  0  0  0999 V2000
  189.0610  174.8920  146.7480 C   0  0  0  0  0  0  0  0  0  0  0  0
  189.1810  174.5070  148.0400 F   0  0  0  0  0  0  0  0  0  0  0  0
  188.8150  175.6890  144.0790 C   0  0  0  0  0  3  0  0  0  0  0  0
  188.3740  176.0680  146.4300 C   0  0  0  0  0  3  0  0  0  0  0  0
  189.5040  174.5130  144.3960 C   0  0  0  0  0  0  0  0  0  0  0  0
  189.6310  174.1180  145.7320 C   0  0  0  0  0  3  0  0  0  0  0  0
  188.2510  176.4690  145.0940 C   0  0  0  0  0  0  0  0  0  0  0  0
  187.5470  177.7430  144.7490 C   0  0  0  0  0  2  0  0  0  0  0  0
  186.4710  177.5590  143.6770 C   0  0  2  0  0  3  0  0  0  0  0  0
  186.5920  178.6090  142.5800 C   0  0  0  0  0  2  0  0  0  0  0  0
  186.1590  177.8840  140.9700 S   0  0  0  0  0  0  0  0  0  0  0  0
  187.7100  176.9460  140.8750 C   0  0  0  0  0  2  0  0  0  0  0  0
  187.4060  175.4770  140.6660 C   0  0  0  0  0  2  0  0  0  0  0  0
  188.3300  173.4450  140.3810 O   0  0  0  0  0  1  0  0  0  0  0  0
  188.6380  174.7640  140.3880 N   0  0  0  0  0  2  0  0  0  0  0  0
  185.1940  177.5920  144.2470 O   0  0  0  0  0  0  0  0  0  0  0  0
  185.1970  178.6930  145.0340 N   0  0  0  0  0  2  0  0  0  0  0  0
  184.1910  178.4750  146.0600 C   0  0  0  0  0  2  0  0  0  0  0  0
  185.9510  179.3210  147.6040 C   0  0  0  0  0  1  0  0  0  0  0  0
  184.8580  178.2870  147.4110 C   0  0  0  0  0  2  0  0  0  0  0  0
  190.1300  173.7000  143.3170 C   0  0  0  0  0  2  0  0  0  0  0  0
  192.1100  173.7600  141.5120 O   0  0  0  0  0  0  0  0  0  0  0  0
  191.3940  175.8960  142.4790 O   0  0  0  0  0  0  0  0  0  0  0  0
  191.6580  174.4430  142.7720 S   0  0  0  0  0  0  0  0  0  0  0  0
  192.8690  174.2160  144.0250 N   0  0  0  0  0  0  0  0  0  0  0  0
  194.1800  174.9540  143.9080 C   0  0  2  0  0  0  0  0  0  0  0  0
  194.2630  175.9120  142.8580 O   0  0  0  0  0  0  0  0  0  0  0  0
  194.6290  174.6310  142.5090 C   0  0  0  0  0  2  0  0  0  0  0  0
  193.0270  175.5060  144.6520 C   0  0  2  0  0  3  0  0  0  0  0  0
  193.2390  175.3140  146.1380 C   0  0  0  0  0  3  0  0  0  0  0  0
  193.9150  176.5450  146.7040 C   0  0  0  0  0  2  0  0  0  0  0  0
  192.4270  176.3480  146.8930 C   0  0  0  0  0  2  0  0  0  0  0  0
  1  2  1  0  0  0  0
  3  5  2  0  0  0  0
  3  7  1  0  0  0  0
  4  1  1  0  0  0  0
  5  6  1  0  0  0  0
  6  1  2  0  0  0  0
  7  4  2  0  0  0  0
  8  7  1  0  0  0  0
  9 10  1  6  0  0  0
  9 16  1  0  0  0  0
  9  8  1  0  0  0  0
 11 10  1  0  0  0  0
 12 11  1  0  0  0  0
 13 12  1  0  0  0  0
 14 15  1  0  0  0  0
 15 13  1  0  0  0  0
 16 17  1  0  0  0  0
 17 18  1  0  0  0  0
 18 20  1  0  0  0  0
 20 19  1  0  0  0  0
 21  5  1  0  0  0  0
 22 24  2  0  0  0  0
 23 24  2  0  0  0  0
 24 21  1  0  0  0  0
 24 25  1  0  0  0  0
 25 29  1  0  0  0  0
 26 28  1  1  0  0  0
 26 25  1  0  0  0  0
 26 29  1  0  0  0  0
 27 26  1  0  0  0  0
 28 27  1  0  0  0  0
 29 30  1  1  0  0  0
 30 31  1  0  0  0  0
 30 32  1  0  0  0  0
 31 32  1  0  0  0  0
M  END
>  <MODEL>
4

>  <REMARK>
 VINA RESULT:      -5.5      1.453      2.608
  Name = 
  15 active torsions:
  status: ('A' for Active; 'I' for Inactive)
    1  A    between atoms: C_1  and  C_30
    2  A    between atoms: N_2  and  S_27
    3  A    between atoms: C_6  and  S_17
    4  A    between atoms: C_6  and  C_31
    5  A    between atoms: C_7  and  C_26
    6  A    between atoms: C_7  and  C_31
    7  A    between atoms: O_9  and  C_31
    8  A    between atoms: O_9  and  N_32
    9  A    between atoms: C_12  and  C_28
   10  A    between atoms: C_12  and  N_32
   11  A    between atoms: C_16  and  C_20
   12  A    between atoms: C_16  and  S_27
   13  A    between atoms: S_17  and  C_29
   14  A    between atoms: C_18  and  N_25
   15  A    between atoms: C_18  and  C_29
                            x       y       z     vdW  Elec       q    Type
                         _______ _______ _______ _____ _____    ______ ____

>  <TORSDO>
F 15

$$$$
=
 OpenBabel11052419233D

 32 35  0  0  1  0  0  0  0  0999 V2000
  189.2190  175.0520  147.3570 C   0  0  0  0  0  0  0  0  0  0  0  0
  188.5830  174.1140  148.0990 F   0  0  0  0  0  0  0  0  0  0  0  0
  190.5310  176.9900  145.8280 C   0  0  0  0  0  3  0  0  0  0  0  0
  188.5090  175.7920  146.4070 C   0  0  0  0  0  3  0  0  0  0  0  0
  191.2440  176.2510  146.7790 C   0  0  0  0  0  0  0  0  0  0  0  0
  190.5850  175.2850  147.5460 C   0  0  0  0  0  3  0  0  0  0  0  0
  189.1640  176.7640  145.6410 C   0  0  0  0  0  0  0  0  0  0  0  0
  188.4020  177.5830  144.6480 C   0  0  0  0  0  2  0  0  0  0  0  0
  188.8730  177.3640  143.2080 C   0  0  2  0  0  3  0  0  0  0  0  0
  187.9590  178.0640  142.2100 C   0  0  0  0  0  2  0  0  0  0  0  0
  186.5530  176.9910  141.7920 S   0  0  0  0  0  0  0  0  0  0  0  0
  185.3790  178.3750  141.8000 C   0  0  0  0  0  2  0  0  0  0  0  0
  184.3010  178.1230  142.8340 C   0  0  0  0  0  2  0  0  0  0  0  0
  185.3550  179.6970  144.0480 O   0  0  0  0  0  1  0  0  0  0  0  0
  184.8060  178.4640  144.1510 N   0  0  0  0  0  2  0  0  0  0  0  0
  188.9600  175.9980  142.9180 O   0  0  0  0  0  0  0  0  0  0  0  0
  190.1990  175.8350  142.3970 N   0  0  0  0  0  2  0  0  0  0  0  0
  190.6740  174.5390  142.8500 C   0  0  0  0  0  2  0  0  0  0  0  0
  190.0700  172.8840  144.6100 C   0  0  0  0  0  1  0  0  0  0  0  0
  189.5380  173.7650  143.4950 C   0  0  0  0  0  2  0  0  0  0  0  0
  192.6930  176.5140  146.9970 C   0  0  0  0  0  2  0  0  0  0  0  0
  192.6570  177.2930  144.4330 O   0  0  0  0  0  0  0  0  0  0  0  0
  194.7790  177.4850  145.6450 O   0  0  0  0  0  0  0  0  0  0  0  0
  193.5560  176.6320  145.4400 S   0  0  0  0  0  0  0  0  0  0  0  0
  193.9490  175.0090  144.8930 N   0  0  0  0  0  0  0  0  0  0  0  0
  194.8530  174.8460  143.6960 C   0  0  2  0  0  0  0  0  0  0  0  0
  195.4510  176.0390  143.2010 O   0  0  0  0  0  0  0  0  0  0  0  0
  194.2180  175.7390  142.6650 C   0  0  0  0  0  2  0  0  0  0  0  0
  195.3730  174.8690  145.0810 C   0  0  2  0  0  3  0  0  0  0  0  0
  195.6790  173.4580  145.5350 C   0  0  0  0  0  3  0  0  0  0  0  0
  196.9780  173.0060  144.9030 C   0  0  0  0  0  2  0  0  0  0  0  0
  196.9600  173.4640  146.3440 C   0  0  0  0  0  2  0  0  0  0  0  0
  1  6  1  0  0  0  0
  1  2  1  0  0  0  0
  3  5  1  0  0  0  0
  4  1  2  0  0  0  0
  5 21  1  0  0  0  0
  5  6  2  0  0  0  0
  7  3  2  0  0  0  0
  7  4  1  0  0  0  0
  8  7  1  0  0  0  0
  9 10  1  6  0  0  0
  9  8  1  0  0  0  0
 11 12  1  0  0  0  0
 11 10  1  0  0  0  0
 12 13  1  0  0  0  0
 13 15  1  0  0  0  0
 14 15  1  0  0  0  0
 16  9  1  0  0  0  0
 17 18  1  0  0  0  0
 17 16  1  0  0  0  0
 18 20  1  0  0  0  0
 20 19  1  0  0  0  0
 22 24  2  0  0  0  0
 24 23  2  0  0  0  0
 24 21  1  0  0  0  0
 25 29  1  0  0  0  0
 25 24  1  0  0  0  0
 26 28  1  6  0  0  0
 26 25  1  0  0  0  0
 26 29  1  0  0  0  0
 27 26  1  0  0  0  0
 28 27  1  0  0  0  0
 29 30  1  1  0  0  0
 30 32  1  0  0  0  0
 31 30  1  0  0  0  0
 31 32  1  0  0  0  0
M  END
>  <MODEL>
5

>  <REMARK>
 VINA RESULT:      -5.5      2.224      4.420
  Name = 
  15 active torsions:
  status: ('A' for Active; 'I' for Inactive)
    1  A    between atoms: C_1  and  C_30
    2  A    between atoms: N_2  and  S_27
    3  A    between atoms: C_6  and  S_17
    4  A    between atoms: C_6  and  C_31
    5  A    between atoms: C_7  and  C_26
    6  A    between atoms: C_7  and  C_31
    7  A    between atoms: O_9  and  C_31
    8  A    between atoms: O_9  and  N_32
    9  A    between atoms: C_12  and  C_28
   10  A    between atoms: C_12  and  N_32
   11  A    between atoms: C_16  and  C_20
   12  A    between atoms: C_16  and  S_27
   13  A    between atoms: S_17  and  C_29
   14  A    between atoms: C_18  and  N_25
   15  A    between atoms: C_18  and  C_29
                            x       y       z     vdW  Elec       q    Type
                         _______ _______ _______ _____ _____    ______ ____

>  <TORSDO>
F 15

$$$$
=
 OpenBabel11052419233D

 32 35  0  0  1  0  0  0  0  0999 V2000
  188.9990  174.9720  146.6680 C   0  0  0  0  0  0  0  0  0  0  0  0
  188.4020  174.6770  147.8480 F   0  0  0  0  0  0  0  0  0  0  0  0
  190.2290  175.5770  144.2320 C   0  0  0  0  0  3  0  0  0  0  0  0
  189.8650  174.0490  146.0740 C   0  0  0  0  0  3  0  0  0  0  0  0
  189.3620  176.5010  144.8250 C   0  0  0  0  0  0  0  0  0  0  0  0
  188.7430  176.1950  146.0410 C   0  0  0  0  0  3  0  0  0  0  0  0
  190.4810  174.3500  144.8530 C   0  0  0  0  0  0  0  0  0  0  0  0
  191.3810  173.3520  144.1950 C   0  0  0  0  0  2  0  0  0  0  0  0
  192.7050  173.9610  143.7280 C   0  0  2  0  0  3  0  0  0  0  0  0
  192.8870  173.8120  142.2230 C   0  0  0  0  0  2  0  0  0  0  0  0
  194.6530  173.8810  141.7970 S   0  0  0  0  0  0  0  0  0  0  0  0
  194.6440  175.6920  141.6720 C   0  0  0  0  0  2  0  0  0  0  0  0
  196.0550  176.1950  141.4520 C   0  0  0  0  0  2  0  0  0  0  0  0
  197.2180  175.8540  143.3480 O   0  0  0  0  0  1  0  0  0  0  0  0
  196.5430  176.8130  142.6710 N   0  0  0  0  0  2  0  0  0  0  0  0
  193.7820  173.3860  144.4100 O   0  0  0  0  0  0  0  0  0  0  0  0
  193.8380  174.0520  145.5880 N   0  0  0  0  0  2  0  0  0  0  0  0
  194.2760  175.4030  145.2820 C   0  0  0  0  0  2  0  0  0  0  0  0
  192.7080  176.3520  146.9670 C   0  0  0  0  0  1  0  0  0  0  0  0
  194.1550  176.2810  146.5140 C   0  0  0  0  0  2  0  0  0  0  0  0
  189.0710  177.7950  144.1470 C   0  0  0  0  0  2  0  0  0  0  0  0
  188.0520  177.9130  141.6710 O   0  0  0  0  0  0  0  0  0  0  0  0
  187.1190  176.2400  143.2020 O   0  0  0  0  0  0  0  0  0  0  0  0
  187.6400  177.6490  143.0920 S   0  0  0  0  0  0  0  0  0  0  0  0
  186.4540  178.8470  143.5880 N   0  0  0  0  0  0  0  0  0  0  0  0
  185.0150  178.6560  143.1780 C   0  0  2  0  0  0  0  0  0  0  0  0
  184.7060  177.4160  142.5500 O   0  0  0  0  0  0  0  0  0  0  0  0
  185.1120  178.4160  141.6950 C   0  0  0  0  0  2  0  0  0  0  0  0
  185.5430  178.1540  144.4650 C   0  0  2  0  0  3  0  0  0  0  0  0
  185.1260  179.0830  145.5850 C   0  0  0  0  0  3  0  0  0  0  0  0
  184.1800  178.3470  146.5110 C   0  0  0  0  0  2  0  0  0  0  0  0
  185.6300  178.5290  146.9030 C   0  0  0  0  0  2  0  0  0  0  0  0
  1  2  1  0  0  0  0
  3  5  2  0  0  0  0
  3  7  1  0  0  0  0
  4  1  1  0  0  0  0
  5  6  1  0  0  0  0
  6  1  2  0  0  0  0
  7  4  2  0  0  0  0
  8  7  1  0  0  0  0
  9 10  1  6  0  0  0
  9  8  1  0  0  0  0
  9 16  1  0  0  0  0
 11 10  1  0  0  0  0
 12 11  1  0  0  0  0
 13 12  1  0  0  0  0
 13 15  1  0  0  0  0
 15 14  1  0  0  0  0
 16 17  1  0  0  0  0
 18 17  1  0  0  0  0
 18 20  1  0  0  0  0
 20 19  1  0  0  0  0
 21  5  1  0  0  0  0
 22 24  2  0  0  0  0
 24 23  2  0  0  0  0
 24 25  1  0  0  0  0
 24 21  1  0  0  0  0
 25 29  1  0  0  0  0
 26 28  1  6  0  0  0
 26 25  1  0  0  0  0
 26 29  1  0  0  0  0
 27 26  1  0  0  0  0
 28 27  1  0  0  0  0
 29 30  1  1  0  0  0
 30 31  1  0  0  0  0
 30 32  1  0  0  0  0
 31 32  1  0  0  0  0
M  END
>  <MODEL>
6

>  <REMARK>
 VINA RESULT:      -5.4      2.208      7.162
  Name = 
  15 active torsions:
  status: ('A' for Active; 'I' for Inactive)
    1  A    between atoms: C_1  and  C_30
    2  A    between atoms: N_2  and  S_27
    3  A    between atoms: C_6  and  S_17
    4  A    between atoms: C_6  and  C_31
    5  A    between atoms: C_7  and  C_26
    6  A    between atoms: C_7  and  C_31
    7  A    between atoms: O_9  and  C_31
    8  A    between atoms: O_9  and  N_32
    9  A    between atoms: C_12  and  C_28
   10  A    between atoms: C_12  and  N_32
   11  A    between atoms: C_16  and  C_20
   12  A    between atoms: C_16  and  S_27
   13  A    between atoms: S_17  and  C_29
   14  A    between atoms: C_18  and  N_25
   15  A    between atoms: C_18  and  C_29
                            x       y       z     vdW  Elec       q    Type
                         _______ _______ _______ _____ _____    ______ ____

>  <TORSDO>
F 15

$$$$
=
 OpenBabel11052419233D

 32 35  0  0  1  0  0  0  0  0999 V2000
  191.3030  175.6020  147.6320 C   0  0  0  0  0  0  0  0  0  0  0  0
  191.5530  174.8680  148.7420 F   0  0  0  0  0  0  0  0  0  0  0  0
  190.7880  177.1210  145.3420 C   0  0  0  0  0  3  0  0  0  0  0  0
  190.0210  176.1100  147.4040 C   0  0  0  0  0  3  0  0  0  0  0  0
  192.0720  176.6130  145.5690 C   0  0  0  0  0  0  0  0  0  0  0  0
  192.3300  175.8580  146.7170 C   0  0  0  0  0  3  0  0  0  0  0  0
  189.7610  176.8720  146.2580 C   0  0  0  0  0  0  0  0  0  0  0  0
  188.4000  177.4480  146.0260 C   0  0  0  0  0  2  0  0  0  0  0  0
  187.5590  176.6180  145.0530 C   0  0  2  0  0  3  0  0  0  0  0  0
  187.6780  177.1410  143.6280 C   0  0  0  0  0  2  0  0  0  0  0  0
  186.3640  176.4330  142.5900 S   0  0  0  0  0  0  0  0  0  0  0  0
  185.9870  178.0330  141.8200 C   0  0  0  0  0  2  0  0  0  0  0  0
  185.6390  177.8270  140.3610 C   0  0  0  0  0  2  0  0  0  0  0  0
  186.4220  176.7260  138.5610 O   0  0  0  0  0  1  0  0  0  0  0  0
  186.8340  177.4500  139.6280 N   0  0  0  0  0  2  0  0  0  0  0  0
  186.2200  176.5920  145.4550 O   0  0  0  0  0  0  0  0  0  0  0  0
  186.1950  177.2930  146.6130 N   0  0  0  0  0  2  0  0  0  0  0  0
  184.8770  177.8990  146.7040 C   0  0  0  0  0  2  0  0  0  0  0  0
  185.1240  179.6780  144.9800 C   0  0  0  0  0  1  0  0  0  0  0  0
  184.4280  178.3780  145.3350 C   0  0  0  0  0  2  0  0  0  0  0  0
  193.1710  176.9050  144.6070 C   0  0  0  0  0  2  0  0  0  0  0  0
  194.1390  176.0970  142.2420 O   0  0  0  0  0  0  0  0  0  0  0  0
  194.0150  174.4370  144.0420 O   0  0  0  0  0  0  0  0  0  0  0  0
  193.3140  175.6020  143.3960 S   0  0  0  0  0  0  0  0  0  0  0  0
  191.7040  175.1890  142.8260 N   0  0  0  0  0  0  0  0  0  0  0  0
  191.5400  173.9940  141.9190 C   0  0  2  0  0  0  0  0  0  0  0  0
  192.7020  173.1940  141.7280 O   0  0  0  0  0  0  0  0  0  0  0  0
  192.5630  174.2400  140.8430 C   0  0  0  0  0  2  0  0  0  0  0  0
  191.4120  173.8930  143.3890 C   0  0  2  0  0  3  0  0  0  0  0  0
  189.9490  173.8340  143.7710 C   0  0  0  0  0  3  0  0  0  0  0  0
  189.5280  172.3840  143.8930 C   0  0  0  0  0  2  0  0  0  0  0  0
  189.8180  173.1930  145.1380 C   0  0  0  0  0  2  0  0  0  0  0  0
  1  2  1  0  0  0  0
  3  5  2  0  0  0  0
  3  7  1  0  0  0  0
  4  1  1  0  0  0  0
  5  6  1  0  0  0  0
  6  1  2  0  0  0  0
  7  4  2  0  0  0  0
  8  7  1  0  0  0  0
  9 10  1  6  0  0  0
  9 16  1  0  0  0  0
  9  8  1  0  0  0  0
 11 10  1  0  0  0  0
 12 11  1  0  0  0  0
 13 12  1  0  0  0  0
 14 15  1  0  0  0  0
 15 13  1  0  0  0  0
 16 17  1  0  0  0  0
 17 18  1  0  0  0  0
 19 20  1  0  0  0  0
 20 18  1  0  0  0  0
 21  5  1  0  0  0  0
 22 24  2  0  0  0  0
 24 23  2  0  0  0  0
 24 21  1  0  0  0  0
 25 29  1  0  0  0  0
 25 24  1  0  0  0  0
 26 28  1  6  0  0  0
 26 25  1  0  0  0  0
 26 29  1  0  0  0  0
 27 26  1  0  0  0  0
 28 27  1  0  0  0  0
 29 30  1  6  0  0  0
 30 31  1  0  0  0  0
 30 32  1  0  0  0  0
 31 32  1  0  0  0  0
M  END
>  <MODEL>
7

>  <REMARK>
 VINA RESULT:      -5.3      1.835      2.119
  Name = 
  15 active torsions:
  status: ('A' for Active; 'I' for Inactive)
    1  A    between atoms: C_1  and  C_30
    2  A    between atoms: N_2  and  S_27
    3  A    between atoms: C_6  and  S_17
    4  A    between atoms: C_6  and  C_31
    5  A    between atoms: C_7  and  C_26
    6  A    between atoms: C_7  and  C_31
    7  A    between atoms: O_9  and  C_31
    8  A    between atoms: O_9  and  N_32
    9  A    between atoms: C_12  and  C_28
   10  A    between atoms: C_12  and  N_32
   11  A    between atoms: C_16  and  C_20
   12  A    between atoms: C_16  and  S_27
   13  A    between atoms: S_17  and  C_29
   14  A    between atoms: C_18  and  N_25
   15  A    between atoms: C_18  and  C_29
                            x       y       z     vdW  Elec       q    Type
                         _______ _______ _______ _____ _____    ______ ____

>  <TORSDO>
F 15

$$$$
=
 OpenBabel11052419233D

 32 35  0  0  1  0  0  0  0  0999 V2000
  189.2570  175.1270  147.1190 C   0  0  0  0  0  0  0  0  0  0  0  0
  188.7450  174.1850  147.9460 F   0  0  0  0  0  0  0  0  0  0  0  0
  190.3120  177.0750  145.4140 C   0  0  0  0  0  3  0  0  0  0  0  0
  188.4000  175.9790  146.4150 C   0  0  0  0  0  3  0  0  0  0  0  0
  191.1710  176.2230  146.1180 C   0  0  0  0  0  0  0  0  0  0  0  0
  190.6420  175.2530  146.9740 C   0  0  0  0  0  3  0  0  0  0  0  0
  188.9270  176.9560  145.5620 C   0  0  0  0  0  0  0  0  0  0  0  0
  188.0170  177.8940  144.8340 C   0  0  0  0  0  2  0  0  0  0  0  0
  187.1260  177.1850  143.8100 C   0  0  2  0  0  3  0  0  0  0  0  0
  187.3410  177.7390  142.4080 C   0  0  0  0  0  2  0  0  0  0  0  0
  187.6490  176.3800  141.2400 S   0  0  0  0  0  0  0  0  0  0  0  0
  189.1960  175.9060  142.0600 C   0  0  0  0  0  2  0  0  0  0  0  0
  189.2070  174.4120  142.3040 C   0  0  0  0  0  2  0  0  0  0  0  0
  187.9800  172.5300  142.1680 O   0  0  0  0  0  1  0  0  0  0  0  0
  187.8750  173.8780  142.0870 N   0  0  0  0  0  2  0  0  0  0  0  0
  185.7800  177.2830  144.1750 O   0  0  0  0  0  0  0  0  0  0  0  0
  185.6290  178.5610  144.5960 N   0  0  0  0  0  2  0  0  0  0  0  0
  184.3240  178.6400  145.2290 C   0  0  0  0  0  2  0  0  0  0  0  0
  185.5770  178.8850  147.3670 C   0  0  0  0  0  1  0  0  0  0  0  0
  184.4190  178.1900  146.6760 C   0  0  0  0  0  2  0  0  0  0  0  0
  192.6470  176.3720  145.9820 C   0  0  0  0  0  2  0  0  0  0  0  0
  193.2320  173.7570  145.9760 O   0  0  0  0  0  0  0  0  0  0  0  0
  192.5490  174.7690  143.8500 O   0  0  0  0  0  0  0  0  0  0  0  0
  193.3450  174.9800  145.1110 S   0  0  0  0  0  0  0  0  0  0  0  0
  195.0400  175.3130  144.7900 N   0  0  0  0  0  0  0  0  0  0  0  0
  195.8580  174.2750  144.0620 C   0  0  2  0  0  0  0  0  0  0  0  0
  195.1350  173.1630  143.5460 O   0  0  0  0  0  0  0  0  0  0  0  0
  195.5830  173.0170  144.8400 C   0  0  0  0  0  2  0  0  0  0  0  0
  195.1610  175.3700  143.3540 C   0  0  2  0  0  3  0  0  0  0  0  0
  196.1540  176.4500  142.9800 C   0  0  0  0  0  3  0  0  0  0  0  0
  197.1370  175.8910  141.9730 C   0  0  0  0  0  2  0  0  0  0  0  0
  196.0020  176.7760  141.5080 C   0  0  0  0  0  2  0  0  0  0  0  0
  1  2  1  0  0  0  0
  3  7  2  0  0  0  0
  3  5  1  0  0  0  0
  4  1  2  0  0  0  0
  5  6  2  0  0  0  0
  6  1  1  0  0  0  0
  7  4  1  0  0  0  0
  8  7  1  0  0  0  0
  9 10  1  6  0  0  0
  9 16  1  0  0  0  0
  9  8  1  0  0  0  0
 11 12  1  0  0  0  0
 11 10  1  0  0  0  0
 12 13  1  0  0  0  0
 15 14  1  0  0  0  0
 15 13  1  0  0  0  0
 16 17  1  0  0  0  0
 17 18  1  0  0  0  0
 18 20  1  0  0  0  0
 20 19  1  0  0  0  0
 21  5  1  0  0  0  0
 23 24  2  0  0  0  0
 24 22  2  0  0  0  0
 24 21  1  0  0  0  0
 25 24  1  0  0  0  0
 26 25  1  0  0  0  0
 26 28  1  1  0  0  0
 27 26  1  0  0  0  0
 27 28  1  0  0  0  0
 29 30  1  1  0  0  0
 29 26  1  0  0  0  0
 29 25  1  0  0  0  0
 31 30  1  0  0  0  0
 32 31  1  0  0  0  0
 32 30  1  0  0  0  0
M  END
>  <MODEL>
8

>  <REMARK>
 VINA RESULT:      -5.3      1.799      2.966
  Name = 
  15 active torsions:
  status: ('A' for Active; 'I' for Inactive)
    1  A    between atoms: C_1  and  C_30
    2  A    between atoms: N_2  and  S_27
    3  A    between atoms: C_6  and  S_17
    4  A    between atoms: C_6  and  C_31
    5  A    between atoms: C_7  and  C_26
    6  A    between atoms: C_7  and  C_31
    7  A    between atoms: O_9  and  C_31
    8  A    between atoms: O_9  and  N_32
    9  A    between atoms: C_12  and  C_28
   10  A    between atoms: C_12  and  N_32
   11  A    between atoms: C_16  and  C_20
   12  A    between atoms: C_16  and  S_27
   13  A    between atoms: S_17  and  C_29
   14  A    between atoms: C_18  and  N_25
   15  A    between atoms: C_18  and  C_29
                            x       y       z     vdW  Elec       q    Type
                         _______ _______ _______ _____ _____    ______ ____

>  <TORSDO>
F 15

$$$$
=
 OpenBabel11052419233D

 32 35  0  0  1  0  0  0  0  0999 V2000
  189.4530  175.5920  146.7820 C   0  0  0  0  0  0  0  0  0  0  0  0
  189.5780  174.8430  147.9030 F   0  0  0  0  0  0  0  0  0  0  0  0
  189.1940  177.1420  144.4690 C   0  0  0  0  0  3  0  0  0  0  0  0
  188.1820  175.9090  146.2910 C   0  0  0  0  0  3  0  0  0  0  0  0
  190.4660  176.8260  144.9600 C   0  0  0  0  0  0  0  0  0  0  0  0
  190.5940  176.0550  146.1190 C   0  0  0  0  0  3  0  0  0  0  0  0
  188.0510  176.6860  145.1330 C   0  0  0  0  0  0  0  0  0  0  0  0
  186.6950  177.0570  144.6230 C   0  0  0  0  0  2  0  0  0  0  0  0
  186.5440  178.5590  144.3700 C   0  0  2  0  0  3  0  0  0  0  0  0
  185.2720  179.1060  145.0070 C   0  0  0  0  0  2  0  0  0  0  0  0
  184.4750  177.8190  146.0140 S   0  0  0  0  0  0  0  0  0  0  0  0
  184.8970  178.6500  147.5710 C   0  0  0  0  0  2  0  0  0  0  0  0
  186.3090  178.2840  147.9770 C   0  0  0  0  0  2  0  0  0  0  0  0
  186.4860  180.5230  148.1180 O   0  0  0  0  0  1  0  0  0  0  0  0
  186.8970  179.3830  148.7210 N   0  0  0  0  0  2  0  0  0  0  0  0
  186.5620  178.8350  142.9990 O   0  0  0  0  0  0  0  0  0  0  0  0
  185.6620  177.9770  142.4640 N   0  0  0  0  0  2  0  0  0  0  0  0
  185.9780  177.8700  141.0500 C   0  0  0  0  0  2  0  0  0  0  0  0
  187.6530  176.0510  141.3390 C   0  0  0  0  0  1  0  0  0  0  0  0
  187.4330  177.4770  140.8700 C   0  0  0  0  0  2  0  0  0  0  0  0
  191.6820  177.3380  144.2680 C   0  0  0  0  0  2  0  0  0  0  0  0
  193.2820  176.6810  142.2210 O   0  0  0  0  0  0  0  0  0  0  0  0
  193.3390  175.2460  144.2090 O   0  0  0  0  0  0  0  0  0  0  0  0
  192.4470  176.0500  143.3000 S   0  0  0  0  0  0  0  0  0  0  0  0
  191.1830  175.0760  142.5630 N   0  0  0  0  0  0  0  0  0  0  0  0
  191.5670  173.7930  141.8690 C   0  0  2  0  0  0  0  0  0  0  0  0
  192.9260  173.3910  142.0120 O   0  0  0  0  0  0  0  0  0  0  0  0
  192.6730  174.2230  140.9440 C   0  0  0  0  0  2  0  0  0  0  0  0
  191.1730  173.8330  143.2940 C   0  0  2  0  0  3  0  0  0  0  0  0
  189.7450  173.3540  143.4420 C   0  0  0  0  0  3  0  0  0  0  0  0
  189.6960  171.8600  143.1950 C   0  0  0  0  0  2  0  0  0  0  0  0
  189.6630  172.3920  144.6110 C   0  0  0  0  0  2  0  0  0  0  0  0
  1  2  1  0  0  0  0
  3  5  2  0  0  0  0
  3  7  1  0  0  0  0
  4  1  1  0  0  0  0
  5  6  1  0  0  0  0
  6  1  2  0  0  0  0
  7  4  2  0  0  0  0
  8  7  1  0  0  0  0
  9  8  1  6  0  0  0
  9 10  1  0  0  0  0
 10 11  1  0  0  0  0
 11 12  1  0  0  0  0
 12 13  1  0  0  0  0
 13 15  1  0  0  0  0
 14 15  1  0  0  0  0
 16  9  1  0  0  0  0
 17 16  1  0  0  0  0
 18 17  1  0  0  0  0
 20 18  1  0  0  0  0
 20 19  1  0  0  0  0
 21  5  1  0  0  0  0
 22 24  2  0  0  0  0
 24 23  2  0  0  0  0
 24 21  1  0  0  0  0
 25 29  1  0  0  0  0
 25 24  1  0  0  0  0
 26 28  1  6  0  0  0
 26 27  1  0  0  0  0
 26 25  1  0  0  0  0
 26 29  1  0  0  0  0
 28 27  1  0  0  0  0
 29 30  1  6  0  0  0
 30 32  1  0  0  0  0
 31 30  1  0  0  0  0
 31 32  1  0  0  0  0
M  END
>  <MODEL>
9

>  <REMARK>
 VINA RESULT:      -5.3      2.003      4.115
  Name = 
  15 active torsions:
  status: ('A' for Active; 'I' for Inactive)
    1  A    between atoms: C_1  and  C_30
    2  A    between atoms: N_2  and  S_27
    3  A    between atoms: C_6  and  S_17
    4  A    between atoms: C_6  and  C_31
    5  A    between atoms: C_7  and  C_26
    6  A    between atoms: C_7  and  C_31
    7  A    between atoms: O_9  and  C_31
    8  A    between atoms: O_9  and  N_32
    9  A    between atoms: C_12  and  C_28
   10  A    between atoms: C_12  and  N_32
   11  A    between atoms: C_16  and  C_20
   12  A    between atoms: C_16  and  S_27
   13  A    between atoms: S_17  and  C_29
   14  A    between atoms: C_18  and  N_25
   15  A    between atoms: C_18  and  C_29
                            x       y       z     vdW  Elec       q    Type
                         _______ _______ _______ _____ _____    ______ ____

>  <TORSDO>
F 15

$$$$
