=
 OpenBabel11052419163D

 32 36  0  0  1  0  0  0  0  0999 V2000
  190.5820  176.1040  145.5060 C   0  0  2  0  0  3  0  0  0  0  0  0
  190.2760  174.9380  142.9690 C   0  0  0  0  0  0  0  0  0  0  0  0
  190.7500  176.7170  146.7550 C   0  0  0  0  0  3  0  0  0  0  0  0
  191.7580  175.4380  144.8610 C   0  0  0  0  0  0  0  0  0  0  0  0
  192.5890  174.2210  142.8770 C   0  0  0  0  0  3  0  0  0  0  0  0
  188.5050  173.5200  139.8860 C   0  0  0  0  0  2  0  0  0  0  0  0
  191.5540  174.8630  143.5780 C   0  0  0  0  0  0  0  0  0  0  0  0
  190.9400  173.0690  139.6850 C   0  0  0  0  0  2  0  0  0  0  0  0
  191.1290  173.7530  141.0110 C   0  0  0  0  0  0  0  0  0  0  0  0
  192.9970  175.4350  145.5690 C   0  0  0  0  0  0  0  0  0  0  0  0
  192.3790  173.6700  141.6170 C   0  0  0  0  0  3  0  0  0  0  0  0
  193.0740  176.0650  146.8230 C   0  0  0  0  0  3  0  0  0  0  0  0
  189.2260  175.5720  143.6370 C   0  0  0  0  0  3  0  0  0  0  0  0
  189.3710  176.1280  144.8670 N   0  0  0  0  0  0  0  0  0  0  0  0
  190.0580  174.3740  141.6910 C   0  0  0  0  0  0  0  0  0  0  0  0
  194.0530  174.8610  145.0700 N   0  0  0  0  0  2  0  0  0  0  0  0
  191.9770  176.6940  147.4020 C   0  0  0  0  0  3  0  0  0  0  0  0
  189.7000  173.5610  138.9480 C   0  0  0  0  0  2  0  0  0  0  0  0
  188.7140  174.5270  141.0120 C   0  0  0  0  0  2  0  0  0  0  0  0
  186.5060  176.8370  147.1820 C   0  0  0  0  0  0  0  0  0  0  0  0
  185.9580  176.3510  148.3230 F   0  0  0  0  0  0  0  0  0  0  0  0
  188.2090  176.7420  145.4510 C   0  0  0  0  0  0  0  0  0  0  0  0
  185.9270  177.9400  146.5520 C   0  0  0  0  0  3  0  0  0  0  0  0
  187.6130  177.8450  144.8210 C   0  0  0  0  0  3  0  0  0  0  0  0
  187.6430  176.2330  146.6330 C   0  0  0  0  0  0  0  0  0  0  0  0
  188.1820  175.1440  147.2380 F   0  0  0  0  0  0  0  0  0  0  0  0
  186.4770  178.4500  145.3650 C   0  0  0  0  0  0  0  0  0  0  0  0
  184.5740  179.5640  144.2450 C   0  0  0  0  0  1  0  0  0  0  0  0
  185.9170  179.5490  144.7100 O   0  0  0  0  0  0  0  0  0  0  0  0
  195.3560  174.8100  145.7210 C   0  0  0  0  0  2  0  0  0  0  0  0
  196.4440  174.7940  144.6690 C   0  0  0  0  0  2  0  0  0  0  0  0
  196.3840  175.9700  143.9220 O   0  0  0  0  0  1  0  0  0  0  0  0
  1  3  1  6  0  0  0
  2  7  1  0  0  0  0
  2 13  2  0  0  0  0
  3 17  2  0  0  0  0
  4  1  1  0  0  0  0
  4 10  1  0  0  0  0
  5  7  1  0  0  0  0
  6 19  1  0  0  0  0
  7  4  2  0  0  0  0
  8  9  1  0  0  0  0
  9 11  1  0  0  0  0
  9 15  2  0  0  0  0
 10 12  2  0  0  0  0
 11  5  2  0  0  0  0
 12 17  1  0  0  0  0
 13 14  1  0  0  0  0
 14 22  1  0  0  0  0
 14  1  1  0  0  0  0
 15  2  1  0  0  0  0
 16 10  1  0  0  0  0
 16 30  1  0  0  0  0
 18  8  1  0  0  0  0
 18  6  1  0  0  0  0
 19 15  1  0  0  0  0
 20 21  1  0  0  0  0
 22 25  2  0  0  0  0
 23 20  2  0  0  0  0
 24 27  2  0  0  0  0
 24 22  1  0  0  0  0
 25 20  1  0  0  0  0
 25 26  1  0  0  0  0
 27 23  1  0  0  0  0
 28 29  1  0  0  0  0
 29 27  1  0  0  0  0
 31 30  1  0  0  0  0
 32 31  1  0  0  0  0
M  END
>  <MODEL>
1

>  <REMARK>
 VINA RESULT:      -8.0      0.000      0.000
  Name = 
  4 active torsions:
  status: ('A' for Active; 'I' for Inactive)
    1  A    between atoms: C_13  and  C_18
    2  A    between atoms: O_15  and  C_26
    3  A    between atoms: C_16  and  N_27
    4  A    between atoms: C_18  and  N_29
                            x       y       z     vdW  Elec       q    Type
                         _______ _______ _______ _____ _____    ______ ____

>  <TORSDO>
F 4

$$$$
=
 OpenBabel11052419163D

 32 36  0  0  0  0  0  0  0  0999 V2000
  190.1330  175.2730  143.0050 C   0  0  0  0  0  0  0  0  0  0  0  0
  187.9090  176.9180  143.4990 C   0  0  0  0  0  0  0  0  0  0  0  0
  191.2560  174.4810  142.7370 C   0  0  0  0  0  3  0  0  0  0  0  0
  189.0280  175.3310  141.9960 C   0  0  0  0  0  0  0  0  0  0  0  0
  186.8370  176.3150  141.4120 C   0  0  0  0  0  3  0  0  0  0  0  0
  185.4630  179.1140  145.4600 C   0  0  0  0  0  2  0  0  0  0  0  0
  187.9240  176.1770  142.2900 C   0  0  0  0  0  0  0  0  0  0  0  0
  184.5360  178.7180  143.1900 C   0  0  0  0  0  2  0  0  0  0  0  0
  185.7540  177.8920  142.8860 C   0  0  0  0  0  0  0  0  0  0  0  0
  189.1610  174.5470  140.8120 C   0  0  0  0  0  0  0  0  0  0  0  0
  185.7660  177.1530  141.7060 C   0  0  0  0  0  3  0  0  0  0  0  0
  190.3180  173.7710  140.6280 C   0  0  0  0  0  3  0  0  0  0  0  0
  188.9760  176.8070  144.3940 C   0  0  0  0  0  3  0  0  0  0  0  0
  190.0470  176.0060  144.1600 N   0  0  0  0  0  0  0  0  0  0  0  0
  186.8200  177.7660  143.8050 C   0  0  0  0  0  0  0  0  0  0  0  0
  188.2290  174.5410  139.9020 N   0  0  0  0  0  0  0  0  0  0  0  0
  191.3440  173.7400  141.5660 C   0  0  0  0  0  3  0  0  0  0  0  0
  184.7980  179.7700  144.2620 C   0  0  0  0  0  2  0  0  0  0  0  0
  186.8470  178.6160  145.0580 C   0  0  0  0  0  2  0  0  0  0  0  0
  191.8450  175.3680  147.3890 C   0  0  0  0  0  0  0  0  0  0  0  0
  191.6210  174.7970  148.5980 F   0  0  0  0  0  0  0  0  0  0  0  0
  191.0750  175.9730  145.1650 C   0  0  0  0  0  0  0  0  0  0  0  0
  193.0860  175.9480  147.1170 C   0  0  0  0  0  3  0  0  0  0  0  0
  192.3210  176.5630  144.9060 C   0  0  0  0  0  3  0  0  0  0  0  0
  190.8360  175.3820  146.4190 C   0  0  0  0  0  0  0  0  0  0  0  0
  189.6250  174.8390  146.7030 F   0  0  0  0  0  0  0  0  0  0  0  0
  193.3300  176.5520  145.8730 C   0  0  0  0  0  0  0  0  0  0  0  0
  195.4460  176.6220  144.5950 C   0  0  0  0  0  1  0  0  0  0  0  0
  194.5590  177.1440  145.5750 O   0  0  0  0  0  0  0  0  0  0  0  0
  188.2820  173.7730  138.6650 C   0  0  0  0  0  2  0  0  0  0  0  0
  188.0100  174.6900  137.4920 C   0  0  0  0  0  2  0  0  0  0  0  0
  187.0310  175.6160  137.8450 O   0  0  0  0  0  1  0  0  0  0  0  0
  1 14  1  0  0  0  0
  2 15  1  0  0  0  0
  2 13  2  0  0  0  0
  3  1  2  0  0  0  0
  4  7  2  0  0  0  0
  4  1  1  0  0  0  0
  5 11  2  0  0  0  0
  5  7  1  0  0  0  0
  7  2  1  0  0  0  0
  8 18  1  0  0  0  0
  9  8  1  0  0  0  0
  9 15  2  0  0  0  0
 10  4  1  0  0  0  0
 11  9  1  0  0  0  0
 12 10  1  0  0  0  0
 12 17  2  0  0  0  0
 14 13  1  0  0  0  0
 14 22  1  0  0  0  0
 15 19  1  0  0  0  0
 16 10  2  0  0  0  0
 17  3  1  0  0  0  0
 18  6  1  0  0  0  0
 19  6  1  0  0  0  0
 20 21  1  0  0  0  0
 22 25  1  0  0  0  0
 23 20  1  0  0  0  0
 24 22  2  0  0  0  0
 24 27  1  0  0  0  0
 25 26  1  0  0  0  0
 25 20  2  0  0  0  0
 27 23  2  0  0  0  0
 28 29  1  0  0  0  0
 29 27  1  0  0  0  0
 30 16  1  0  0  0  0
 31 32  1  0  0  0  0
 31 30  1  0  0  0  0
M  END
>  <MODEL>
2

>  <REMARK>
 VINA RESULT:      -8.0      2.371      6.839
  Name = 
  4 active torsions:
  status: ('A' for Active; 'I' for Inactive)
    1  A    between atoms: C_13  and  C_18
    2  A    between atoms: O_15  and  C_26
    3  A    between atoms: C_16  and  N_27
    4  A    between atoms: C_18  and  N_29
                            x       y       z     vdW  Elec       q    Type
                         _______ _______ _______ _____ _____    ______ ____

>  <TORSDO>
F 4

$$$$
=
 OpenBabel11052419163D

 32 36  0  0  0  0  0  0  0  0999 V2000
  191.1440  174.7700  142.6920 C   0  0  0  0  0  0  0  0  0  0  0  0
  188.9990  175.9900  144.0350 C   0  0  0  0  0  0  0  0  0  0  0  0
  192.2160  174.1930  142.0010 C   0  0  0  0  0  3  0  0  0  0  0  0
  189.7840  174.7560  142.0630 C   0  0  0  0  0  0  0  0  0  0  0  0
  187.4190  175.4400  142.2830 C   0  0  0  0  0  3  0  0  0  0  0  0
  187.0280  177.5700  146.9110 C   0  0  0  0  0  2  0  0  0  0  0  0
  188.7310  175.3860  142.7810 C   0  0  0  0  0  0  0  0  0  0  0  0
  185.5050  177.2650  144.9720 C   0  0  0  0  0  2  0  0  0  0  0  0
  186.6610  176.6730  144.2160 C   0  0  0  0  0  0  0  0  0  0  0  0
  189.6410  174.1250  140.7930 C   0  0  0  0  0  0  0  0  0  0  0  0
  186.3990  176.0670  142.9900 C   0  0  0  0  0  3  0  0  0  0  0  0
  190.7700  173.5610  140.1740 C   0  0  0  0  0  3  0  0  0  0  0  0
  190.2940  175.9570  144.5590 C   0  0  0  0  0  3  0  0  0  0  0  0
  191.3290  175.3600  143.9140 N   0  0  0  0  0  0  0  0  0  0  0  0
  187.9640  176.6240  144.7600 C   0  0  0  0  0  0  0  0  0  0  0  0
  188.4830  174.0650  140.1990 N   0  0  0  0  0  0  0  0  0  0  0  0
  192.0300  173.5960  140.7620 C   0  0  0  0  0  3  0  0  0  0  0  0
  185.9550  178.2320  146.0620 C   0  0  0  0  0  2  0  0  0  0  0  0
  188.2710  177.3370  146.0600 C   0  0  0  0  0  2  0  0  0  0  0  0
  194.4960  176.6150  145.4850 C   0  0  0  0  0  0  0  0  0  0  0  0
  195.1080  177.7890  145.7740 F   0  0  0  0  0  0  0  0  0  0  0  0
  192.6110  175.3870  144.5650 C   0  0  0  0  0  0  0  0  0  0  0  0
  195.1240  175.4100  145.8060 C   0  0  0  0  0  3  0  0  0  0  0  0
  193.2560  174.1820  144.8820 C   0  0  0  0  0  3  0  0  0  0  0  0
  193.2430  176.6080  144.8610 C   0  0  0  0  0  0  0  0  0  0  0  0
  192.6540  177.7840  144.5280 F   0  0  0  0  0  0  0  0  0  0  0  0
  194.5070  174.1850  145.5050 C   0  0  0  0  0  0  0  0  0  0  0  0
  196.5240  172.8020  145.8740 C   0  0  0  0  0  1  0  0  0  0  0  0
  195.1130  172.9640  145.8100 O   0  0  0  0  0  0  0  0  0  0  0  0
  188.2460  173.4420  138.9030 C   0  0  0  0  0  2  0  0  0  0  0  0
  187.9730  174.5160  137.8720 C   0  0  0  0  0  2  0  0  0  0  0  0
  188.9090  174.4210  136.8430 O   0  0  0  0  0  1  0  0  0  0  0  0
  1 14  1  0  0  0  0
  2 13  2  0  0  0  0
  2 15  1  0  0  0  0
  3  1  2  0  0  0  0
  4  1  1  0  0  0  0
  4  7  2  0  0  0  0
  5  7  1  0  0  0  0
  5 11  2  0  0  0  0
  7  2  1  0  0  0  0
  8 18  1  0  0  0  0
  9 15  2  0  0  0  0
  9  8  1  0  0  0  0
 10  4  1  0  0  0  0
 11  9  1  0  0  0  0
 12 17  2  0  0  0  0
 12 10  1  0  0  0  0
 14 13  1  0  0  0  0
 14 22  1  0  0  0  0
 15 19  1  0  0  0  0
 16 10  2  0  0  0  0
 17  3  1  0  0  0  0
 18  6  1  0  0  0  0
 19  6  1  0  0  0  0
 20 21  1  0  0  0  0
 20 23  1  0  0  0  0
 22 25  1  0  0  0  0
 22 24  2  0  0  0  0
 24 27  1  0  0  0  0
 25 20  2  0  0  0  0
 26 25  1  0  0  0  0
 27 23  2  0  0  0  0
 27 29  1  0  0  0  0
 29 28  1  0  0  0  0
 30 16  1  0  0  0  0
 31 30  1  0  0  0  0
 32 31  1  0  0  0  0
M  END
>  <MODEL>
3

>  <REMARK>
 VINA RESULT:      -8.0      2.973      7.462
  Name = 
  4 active torsions:
  status: ('A' for Active; 'I' for Inactive)
    1  A    between atoms: C_13  and  C_18
    2  A    between atoms: O_15  and  C_26
    3  A    between atoms: C_16  and  N_27
    4  A    between atoms: C_18  and  N_29
                            x       y       z     vdW  Elec       q    Type
                         _______ _______ _______ _____ _____    ______ ____

>  <TORSDO>
F 4

$$$$
=
 OpenBabel11052419163D

 32 36  0  0  0  0  0  0  0  0999 V2000
  191.3050  174.3440  142.1110 C   0  0  0  0  0  0  0  0  0  0  0  0
  189.3210  175.6430  143.6170 C   0  0  0  0  0  0  0  0  0  0  0  0
  192.2990  173.7290  141.3400 C   0  0  0  0  0  3  0  0  0  0  0  0
  189.9170  174.4460  141.5580 C   0  0  0  0  0  0  0  0  0  0  0  0
  187.6180  175.2730  141.9330 C   0  0  0  0  0  3  0  0  0  0  0  0
  187.6130  177.2240  146.6570 C   0  0  0  0  0  2  0  0  0  0  0  0
  188.9480  175.1120  142.3570 C   0  0  0  0  0  0  0  0  0  0  0  0
  185.9740  177.1030  144.7940 C   0  0  0  0  0  2  0  0  0  0  0  0
  187.0460  176.4690  143.9520 C   0  0  0  0  0  0  0  0  0  0  0  0
  189.6650  173.8810  140.2730 C   0  0  0  0  0  0  0  0  0  0  0  0
  186.6810  175.9350  142.7200 C   0  0  0  0  0  3  0  0  0  0  0  0
  190.7190  173.2710  139.5710 C   0  0  0  0  0  3  0  0  0  0  0  0
  190.6360  175.5030  144.0670 C   0  0  0  0  0  3  0  0  0  0  0  0
  191.5930  174.8680  143.3440 N   0  0  0  0  0  0  0  0  0  0  0  0
  188.3700  176.3120  144.4220 C   0  0  0  0  0  0  0  0  0  0  0  0
  188.4770  173.9230  139.7420 N   0  0  0  0  0  0  0  0  0  0  0  0
  192.0080  173.1990  140.0900 C   0  0  0  0  0  3  0  0  0  0  0  0
  186.5450  177.9900  145.8940 C   0  0  0  0  0  2  0  0  0  0  0  0
  188.7920  176.9470  145.7300 C   0  0  0  0  0  2  0  0  0  0  0  0
  194.5600  173.6080  145.2610 C   0  0  0  0  0  0  0  0  0  0  0  0
  194.9270  172.5350  146.0040 F   0  0  0  0  0  0  0  0  0  0  0  0
  192.9060  174.7830  143.9230 C   0  0  0  0  0  0  0  0  0  0  0  0
  195.4620  174.6560  145.0670 C   0  0  0  0  0  3  0  0  0  0  0  0
  193.8160  175.8350  143.7440 C   0  0  0  0  0  3  0  0  0  0  0  0
  193.2810  173.6690  144.6950 C   0  0  0  0  0  0  0  0  0  0  0  0
  192.4030  172.6580  144.9130 F   0  0  0  0  0  0  0  0  0  0  0  0
  195.0940  175.7780  144.3070 C   0  0  0  0  0  0  0  0  0  0  0  0
  197.0590  176.7770  143.1870 C   0  0  0  0  0  1  0  0  0  0  0  0
  195.9730  176.8440  144.1000 O   0  0  0  0  0  0  0  0  0  0  0  0
  188.1310  173.3730  138.4370 C   0  0  0  0  0  2  0  0  0  0  0  0
  188.1910  174.4710  137.3980 C   0  0  0  0  0  2  0  0  0  0  0  0
  187.1360  175.3600  137.6000 O   0  0  0  0  0  1  0  0  0  0  0  0
  1 14  1  0  0  0  0
  2 13  2  0  0  0  0
  2 15  1  0  0  0  0
  3  1  2  0  0  0  0
  4  1  1  0  0  0  0
  4  7  2  0  0  0  0
  5  7  1  0  0  0  0
  5 11  2  0  0  0  0
  7  2  1  0  0  0  0
  8 18  1  0  0  0  0
  9 15  2  0  0  0  0
  9  8  1  0  0  0  0
 10  4  1  0  0  0  0
 11  9  1  0  0  0  0
 12 17  2  0  0  0  0
 12 10  1  0  0  0  0
 14 22  1  0  0  0  0
 14 13  1  0  0  0  0
 15 19  1  0  0  0  0
 16 10  2  0  0  0  0
 17  3  1  0  0  0  0
 18  6  1  0  0  0  0
 19  6  1  0  0  0  0
 20 21  1  0  0  0  0
 22 25  1  0  0  0  0
 23 20  1  0  0  0  0
 24 22  2  0  0  0  0
 24 27  1  0  0  0  0
 25 26  1  0  0  0  0
 25 20  2  0  0  0  0
 27 23  2  0  0  0  0
 28 29  1  0  0  0  0
 29 27  1  0  0  0  0
 30 16  1  0  0  0  0
 31 32  1  0  0  0  0
 31 30  1  0  0  0  0
M  END
>  <MODEL>
4

>  <REMARK>
 VINA RESULT:      -7.8      2.801      7.518
  Name = 
  4 active torsions:
  status: ('A' for Active; 'I' for Inactive)
    1  A    between atoms: C_13  and  C_18
    2  A    between atoms: O_15  and  C_26
    3  A    between atoms: C_16  and  N_27
    4  A    between atoms: C_18  and  N_29
                            x       y       z     vdW  Elec       q    Type
                         _______ _______ _______ _____ _____    ______ ____

>  <TORSDO>
F 4

$$$$
=
 OpenBabel11052419163D

 32 36  0  0  1  0  0  0  0  0999 V2000
  190.6150  174.7990  144.5390 C   0  0  2  0  0  3  0  0  0  0  0  0
  188.2650  176.3040  144.2180 C   0  0  0  0  0  0  0  0  0  0  0  0
  191.7680  174.0250  144.7240 C   0  0  0  0  0  3  0  0  0  0  0  0
  190.2580  175.8260  145.5690 C   0  0  0  0  0  0  0  0  0  0  0  0
  188.6240  177.5430  146.2690 C   0  0  0  0  0  3  0  0  0  0  0  0
  185.2030  177.8090  142.4820 C   0  0  0  0  0  2  0  0  0  0  0  0
  189.0600  176.5620  145.3630 C   0  0  0  0  0  0  0  0  0  0  0  0
  185.4340  178.8420  144.7300 C   0  0  0  0  0  2  0  0  0  0  0  0
  186.6550  177.9910  144.9450 C   0  0  0  0  0  0  0  0  0  0  0  0
  191.1330  175.9870  146.6840 C   0  0  0  0  0  0  0  0  0  0  0  0
  187.4450  178.2510  146.0610 C   0  0  0  0  0  3  0  0  0  0  0  0
  192.2760  175.1750  146.7850 C   0  0  0  0  0  3  0  0  0  0  0  0
  188.6680  175.3330  143.2980 C   0  0  0  0  0  3  0  0  0  0  0  0
  189.8080  174.6110  143.4490 N   0  0  0  0  0  0  0  0  0  0  0  0
  187.0690  177.0250  144.0000 C   0  0  0  0  0  0  0  0  0  0  0  0
  190.8880  176.8730  147.6070 N   0  0  0  0  0  2  0  0  0  0  0  0
  192.5860  174.2140  145.8290 C   0  0  0  0  0  3  0  0  0  0  0  0
  184.4560  178.2180  143.7410 C   0  0  0  0  0  2  0  0  0  0  0  0
  186.1830  176.6900  142.8190 C   0  0  0  0  0  2  0  0  0  0  0  0
  190.2450  171.3490  141.6490 C   0  0  0  0  0  0  0  0  0  0  0  0
  190.0660  170.0220  141.8630 F   0  0  0  0  0  0  0  0  0  0  0  0
  190.1150  173.6480  142.4260 C   0  0  0  0  0  0  0  0  0  0  0  0
  190.7500  171.7910  140.4250 C   0  0  0  0  0  3  0  0  0  0  0  0
  190.6340  174.0800  141.1960 C   0  0  0  0  0  3  0  0  0  0  0  0
  189.9300  172.2730  142.6530 C   0  0  0  0  0  0  0  0  0  0  0  0
  189.4650  171.8310  143.8490 F   0  0  0  0  0  0  0  0  0  0  0  0
  190.9500  173.1610  140.1920 C   0  0  0  0  0  0  0  0  0  0  0  0
  190.6540  173.7870  137.8180 C   0  0  0  0  0  1  0  0  0  0  0  0
  191.4580  173.6310  138.9790 O   0  0  0  0  0  0  0  0  0  0  0  0
  191.7250  177.1050  148.7780 C   0  0  0  0  0  2  0  0  0  0  0  0
  191.1860  178.2870  149.5540 C   0  0  0  0  0  2  0  0  0  0  0  0
  191.5590  178.1740  150.8920 O   0  0  0  0  0  1  0  0  0  0  0  0
  1  3  1  1  0  0  0
  1  4  1  0  0  0  0
  2  7  1  0  0  0  0
  3 17  2  0  0  0  0
  4 10  1  0  0  0  0
  6 19  1  0  0  0  0
  6 18  1  0  0  0  0
  7  4  2  0  0  0  0
  7  5  1  0  0  0  0
  8  9  1  0  0  0  0
  9 11  1  0  0  0  0
 10 12  2  0  0  0  0
 10 16  1  0  0  0  0
 11  5  2  0  0  0  0
 13 14  1  0  0  0  0
 13  2  2  0  0  0  0
 14  1  1  0  0  0  0
 15  2  1  0  0  0  0
 15  9  2  0  0  0  0
 16 30  1  0  0  0  0
 17 12  1  0  0  0  0
 18  8  1  0  0  0  0
 19 15  1  0  0  0  0
 20 21  1  0  0  0  0
 20 25  1  0  0  0  0
 22 25  2  0  0  0  0
 22 14  1  0  0  0  0
 23 20  2  0  0  0  0
 24 22  1  0  0  0  0
 25 26  1  0  0  0  0
 27 23  1  0  0  0  0
 27 24  2  0  0  0  0
 28 29  1  0  0  0  0
 29 27  1  0  0  0  0
 30 31  1  0  0  0  0
 31 32  1  0  0  0  0
M  END
>  <MODEL>
5

>  <REMARK>
 VINA RESULT:      -7.7      3.056      6.406
  Name = 
  4 active torsions:
  status: ('A' for Active; 'I' for Inactive)
    1  A    between atoms: C_13  and  C_18
    2  A    between atoms: O_15  and  C_26
    3  A    between atoms: C_16  and  N_27
    4  A    between atoms: C_18  and  N_29
                            x       y       z     vdW  Elec       q    Type
                         _______ _______ _______ _____ _____    ______ ____

>  <TORSDO>
F 4

$$$$
=
 OpenBabel11052419163D

 32 36  0  0  1  0  0  0  0  0999 V2000
  191.8140  174.8520  145.2230 C   0  0  2  0  0  3  0  0  0  0  0  0
  190.8390  174.2710  142.6530 C   0  0  0  0  0  0  0  0  0  0  0  0
  192.2840  175.1080  146.5170 C   0  0  0  0  0  3  0  0  0  0  0  0
  190.3780  175.1370  144.9040 C   0  0  0  0  0  0  0  0  0  0  0  0
  188.6050  175.0440  143.1850 C   0  0  0  0  0  3  0  0  0  0  0  0
  190.9060  173.4150  138.9230 C   0  0  0  0  0  2  0  0  0  0  0  0
  189.9320  174.8260  143.5910 C   0  0  0  0  0  0  0  0  0  0  0  0
  188.5660  173.9240  139.5830 C   0  0  0  0  0  2  0  0  0  0  0  0
  189.0620  174.1710  140.9800 C   0  0  0  0  0  0  0  0  0  0  0  0
  189.5600  175.6880  145.9340 C   0  0  0  0  0  0  0  0  0  0  0  0
  188.1780  174.7280  141.8990 C   0  0  0  0  0  3  0  0  0  0  0  0
  190.1180  175.9240  147.2020 C   0  0  0  0  0  3  0  0  0  0  0  0
  192.1650  174.0390  143.0250 C   0  0  0  0  0  3  0  0  0  0  0  0
  192.6390  174.3270  144.2640 N   0  0  0  0  0  0  0  0  0  0  0  0
  190.4100  173.9540  141.3440 C   0  0  0  0  0  0  0  0  0  0  0  0
  188.3080  175.9720  145.7170 N   0  0  0  0  0  2  0  0  0  0  0  0
  191.4490  175.6380  147.4900 C   0  0  0  0  0  3  0  0  0  0  0  0
  189.4600  172.9620  138.8080 C   0  0  0  0  0  2  0  0  0  0  0  0
  191.3610  173.2870  140.3730 C   0  0  0  0  0  2  0  0  0  0  0  0
  195.7690  172.6430  145.4650 C   0  0  0  0  0  0  0  0  0  0  0  0
  196.1460  171.5280  146.1380 F   0  0  0  0  0  0  0  0  0  0  0  0
  194.0270  174.0490  144.5180 C   0  0  0  0  0  0  0  0  0  0  0  0
  196.7380  173.5470  145.0240 C   0  0  0  0  0  3  0  0  0  0  0  0
  195.0080  174.9550  144.0890 C   0  0  0  0  0  3  0  0  0  0  0  0
  194.4130  172.8920  145.2180 C   0  0  0  0  0  0  0  0  0  0  0  0
  193.4780  172.0210  145.6740 F   0  0  0  0  0  0  0  0  0  0  0  0
  196.3620  174.7100  144.3350 C   0  0  0  0  0  0  0  0  0  0  0  0
  196.9590  176.7910  143.1370 C   0  0  0  0  0  1  0  0  0  0  0  0
  197.3090  175.6340  143.8860 O   0  0  0  0  0  0  0  0  0  0  0  0
  187.4010  176.5350  146.7100 C   0  0  0  0  0  2  0  0  0  0  0  0
  186.2650  177.2450  146.0060 C   0  0  0  0  0  2  0  0  0  0  0  0
  185.0490  176.7910  146.5130 O   0  0  0  0  0  1  0  0  0  0  0  0
  1  3  1  1  0  0  0
  2 13  2  0  0  0  0
  2  7  1  0  0  0  0
  3 17  2  0  0  0  0
  4  1  1  0  0  0  0
  4 10  1  0  0  0  0
  5  7  1  0  0  0  0
  6 19  1  0  0  0  0
  7  4  2  0  0  0  0
  8  9  1  0  0  0  0
  9 15  2  0  0  0  0
  9 11  1  0  0  0  0
 10 12  2  0  0  0  0
 11  5  2  0  0  0  0
 12 17  1  0  0  0  0
 13 14  1  0  0  0  0
 14 22  1  0  0  0  0
 14  1  1  0  0  0  0
 15  2  1  0  0  0  0
 16 10  1  0  0  0  0
 16 30  1  0  0  0  0
 18  6  1  0  0  0  0
 18  8  1  0  0  0  0
 19 15  1  0  0  0  0
 20 21  1  0  0  0  0
 22 25  2  0  0  0  0
 23 20  2  0  0  0  0
 24 27  2  0  0  0  0
 24 22  1  0  0  0  0
 25 20  1  0  0  0  0
 25 26  1  0  0  0  0
 27 23  1  0  0  0  0
 28 29  1  0  0  0  0
 29 27  1  0  0  0  0
 31 32  1  0  0  0  0
 31 30  1  0  0  0  0
M  END
>  <MODEL>
6

>  <REMARK>
 VINA RESULT:      -7.6      2.369      6.791
  Name = 
  4 active torsions:
  status: ('A' for Active; 'I' for Inactive)
    1  A    between atoms: C_13  and  C_18
    2  A    between atoms: O_15  and  C_26
    3  A    between atoms: C_16  and  N_27
    4  A    between atoms: C_18  and  N_29
                            x       y       z     vdW  Elec       q    Type
                         _______ _______ _______ _____ _____    ______ ____

>  <TORSDO>
F 4

$$$$
=
 OpenBabel11052419163D

 32 36  0  0  0  0  0  0  0  0999 V2000
  188.9750  175.4580  143.0890 C   0  0  0  0  0  0  0  0  0  0  0  0
  191.5540  175.4790  144.2040 C   0  0  0  0  0  0  0  0  0  0  0  0
  187.6850  175.4120  142.5460 C   0  0  0  0  0  3  0  0  0  0  0  0
  190.0970  174.7960  142.3490 C   0  0  0  0  0  0  0  0  0  0  0  0
  192.5050  174.2370  142.3530 C   0  0  0  0  0  3  0  0  0  0  0  0
  194.4340  176.4990  146.5100 C   0  0  0  0  0  2  0  0  0  0  0  0
  191.3830  174.8330  142.9530 C   0  0  0  0  0  0  0  0  0  0  0  0
  195.3150  174.9700  144.7610 C   0  0  0  0  0  2  0  0  0  0  0  0
  193.9250  174.8940  144.1930 C   0  0  0  0  0  0  0  0  0  0  0  0
  189.8000  174.1700  141.1030 C   0  0  0  0  0  0  0  0  0  0  0  0
  193.7560  174.2720  142.9580 C   0  0  0  0  0  3  0  0  0  0  0  0
  188.4780  174.1800  140.6260 C   0  0  0  0  0  3  0  0  0  0  0  0
  190.4580  176.0790  144.8300 C   0  0  0  0  0  3  0  0  0  0  0  0
  189.2140  176.0760  144.2880 N   0  0  0  0  0  0  0  0  0  0  0  0
  192.8260  175.5210  144.8200 C   0  0  0  0  0  0  0  0  0  0  0  0
  190.7320  173.5900  140.4030 N   0  0  0  0  0  0  0  0  0  0  0  0
  187.4420  174.7840  141.3320 C   0  0  0  0  0  3  0  0  0  0  0  0
  195.3180  175.2900  146.2510 C   0  0  0  0  0  2  0  0  0  0  0  0
  192.9860  176.1410  146.1920 C   0  0  0  0  0  2  0  0  0  0  0  0
  186.7270  176.8900  146.9750 C   0  0  0  0  0  0  0  0  0  0  0  0
  186.3150  176.4160  148.1760 F   0  0  0  0  0  0  0  0  0  0  0  0
  188.1730  176.7370  145.0280 C   0  0  0  0  0  0  0  0  0  0  0  0
  186.1230  178.0280  146.4360 C   0  0  0  0  0  3  0  0  0  0  0  0
  187.5530  177.8750  144.4920 C   0  0  0  0  0  3  0  0  0  0  0  0
  187.7480  176.2400  146.2730 C   0  0  0  0  0  0  0  0  0  0  0  0
  188.3100  175.1190  146.7920 F   0  0  0  0  0  0  0  0  0  0  0  0
  186.5320  178.5260  145.1890 C   0  0  0  0  0  0  0  0  0  0  0  0
  184.5740  179.7060  144.2440 C   0  0  0  0  0  1  0  0  0  0  0  0
  185.9430  179.6600  144.6240 O   0  0  0  0  0  0  0  0  0  0  0  0
  190.5190  172.9270  139.1230 C   0  0  0  0  0  2  0  0  0  0  0  0
  191.0510  171.5120  139.1950 C   0  0  0  0  0  2  0  0  0  0  0  0
  190.4410  170.8400  140.2530 O   0  0  0  0  0  1  0  0  0  0  0  0
  1 14  1  0  0  0  0
  2 15  1  0  0  0  0
  2 13  2  0  0  0  0
  3  1  2  0  0  0  0
  4  7  2  0  0  0  0
  4  1  1  0  0  0  0
  5  7  1  0  0  0  0
  5 11  2  0  0  0  0
  7  2  1  0  0  0  0
  8 18  1  0  0  0  0
  9  8  1  0  0  0  0
  9 15  2  0  0  0  0
 10  4  1  0  0  0  0
 11  9  1  0  0  0  0
 12 10  1  0  0  0  0
 12 17  2  0  0  0  0
 14 13  1  0  0  0  0
 14 22  1  0  0  0  0
 15 19  1  0  0  0  0
 16 10  2  0  0  0  0
 17  3  1  0  0  0  0
 18  6  1  0  0  0  0
 19  6  1  0  0  0  0
 20 21  1  0  0  0  0
 22 25  1  0  0  0  0
 23 20  1  0  0  0  0
 24 22  2  0  0  0  0
 24 27  1  0  0  0  0
 25 26  1  0  0  0  0
 25 20  2  0  0  0  0
 27 23  2  0  0  0  0
 28 29  1  0  0  0  0
 29 27  1  0  0  0  0
 30 31  1  0  0  0  0
 30 16  1  0  0  0  0
 31 32  1  0  0  0  0
M  END
>  <MODEL>
7

>  <REMARK>
 VINA RESULT:      -7.6      1.981      4.923
  Name = 
  4 active torsions:
  status: ('A' for Active; 'I' for Inactive)
    1  A    between atoms: C_13  and  C_18
    2  A    between atoms: O_15  and  C_26
    3  A    between atoms: C_16  and  N_27
    4  A    between atoms: C_18  and  N_29
                            x       y       z     vdW  Elec       q    Type
                         _______ _______ _______ _____ _____    ______ ____

>  <TORSDO>
F 4

$$$$
=
 OpenBabel11052419163D

 32 36  0  0  1  0  0  0  0  0999 V2000
  191.6660  174.9630  145.4990 C   0  0  2  0  0  3  0  0  0  0  0  0
  190.6720  174.3610  142.9410 C   0  0  0  0  0  0  0  0  0  0  0  0
  192.1400  175.2350  146.7890 C   0  0  0  0  0  3  0  0  0  0  0  0
  190.3170  175.4780  145.0990 C   0  0  0  0  0  0  0  0  0  0  0  0
  188.6060  175.5690  143.3180 C   0  0  0  0  0  3  0  0  0  0  0  0
  190.6820  173.2040  139.2920 C   0  0  0  0  0  2  0  0  0  0  0  0
  189.8580  175.1470  143.7950 C   0  0  0  0  0  0  0  0  0  0  0  0
  188.4590  174.1830  139.8130 C   0  0  0  0  0  2  0  0  0  0  0  0
  188.9540  174.4490  141.2070 C   0  0  0  0  0  0  0  0  0  0  0  0
  189.5870  176.2510  146.0490 C   0  0  0  0  0  0  0  0  0  0  0  0
  188.1630  175.2320  142.0440 C   0  0  0  0  0  3  0  0  0  0  0  0
  190.1430  176.4850  147.3180 C   0  0  0  0  0  3  0  0  0  0  0  0
  191.9210  173.9220  143.3850 C   0  0  0  0  0  3  0  0  0  0  0  0
  192.4060  174.2190  144.6180 N   0  0  0  0  0  0  0  0  0  0  0  0
  190.2280  174.0210  141.6430 C   0  0  0  0  0  0  0  0  0  0  0  0
  188.4160  176.7410  145.7580 N   0  0  0  0  0  2  0  0  0  0  0  0
  191.3900  175.9860  147.6820 C   0  0  0  0  0  3  0  0  0  0  0  0
  189.1810  173.0150  139.1520 C   0  0  0  0  0  2  0  0  0  0  0  0
  191.0650  173.1150  140.7660 C   0  0  0  0  0  2  0  0  0  0  0  0
  196.1150  174.0150  145.1340 C   0  0  0  0  0  0  0  0  0  0  0  0
  197.2180  174.7950  145.0090 F   0  0  0  0  0  0  0  0  0  0  0  0
  193.7110  173.7150  144.9500 C   0  0  0  0  0  0  0  0  0  0  0  0
  196.2460  172.6970  145.5760 C   0  0  0  0  0  3  0  0  0  0  0  0
  193.8550  172.3890  145.3850 C   0  0  0  0  0  3  0  0  0  0  0  0
  194.8520  174.5270  144.8160 C   0  0  0  0  0  0  0  0  0  0  0  0
  194.7390  175.8000  144.3610 F   0  0  0  0  0  0  0  0  0  0  0  0
  195.1150  171.8750  145.7020 C   0  0  0  0  0  0  0  0  0  0  0  0
  196.4540  169.9540  146.4980 C   0  0  0  0  0  1  0  0  0  0  0  0
  195.2160  170.5520  146.1370 O   0  0  0  0  0  0  0  0  0  0  0  0
  187.6020  177.5390  146.6660 C   0  0  0  0  0  2  0  0  0  0  0  0
  186.2810  176.8390  146.9040 C   0  0  0  0  0  2  0  0  0  0  0  0
  185.5600  176.7900  145.7130 O   0  0  0  0  0  1  0  0  0  0  0  0
  1  3  1  1  0  0  0
  2 13  2  0  0  0  0
  2  7  1  0  0  0  0
  3 17  2  0  0  0  0
  4  1  1  0  0  0  0
  4 10  1  0  0  0  0
  5  7  1  0  0  0  0
  6 19  1  0  0  0  0
  7  4  2  0  0  0  0
  8  9  1  0  0  0  0
  9 15  2  0  0  0  0
  9 11  1  0  0  0  0
 10 12  2  0  0  0  0
 11  5  2  0  0  0  0
 12 17  1  0  0  0  0
 13 14  1  0  0  0  0
 14 22  1  0  0  0  0
 14  1  1  0  0  0  0
 15  2  1  0  0  0  0
 16 10  1  0  0  0  0
 16 30  1  0  0  0  0
 18  6  1  0  0  0  0
 18  8  1  0  0  0  0
 19 15  1  0  0  0  0
 20 23  1  0  0  0  0
 21 20  1  0  0  0  0
 22 24  2  0  0  0  0
 23 27  2  0  0  0  0
 24 27  1  0  0  0  0
 25 22  1  0  0  0  0
 25 20  2  0  0  0  0
 26 25  1  0  0  0  0
 27 29  1  0  0  0  0
 29 28  1  0  0  0  0
 30 31  1  0  0  0  0
 32 31  1  0  0  0  0
M  END
>  <MODEL>
8

>  <REMARK>
 VINA RESULT:      -7.5      2.826      7.036
  Name = 
  4 active torsions:
  status: ('A' for Active; 'I' for Inactive)
    1  A    between atoms: C_13  and  C_18
    2  A    between atoms: O_15  and  C_26
    3  A    between atoms: C_16  and  N_27
    4  A    between atoms: C_18  and  N_29
                            x       y       z     vdW  Elec       q    Type
                         _______ _______ _______ _____ _____    ______ ____

>  <TORSDO>
F 4

$$$$
=
 OpenBabel11052419163D

 32 36  0  0  1  0  0  0  0  0999 V2000
  188.7560  176.4100  144.3900 C   0  0  2  0  0  3  0  0  0  0  0  0
  189.2170  174.6370  142.2610 C   0  0  0  0  0  0  0  0  0  0  0  0
  188.5500  177.3200  145.4350 C   0  0  0  0  0  3  0  0  0  0  0  0
  190.0130  175.5940  144.3770 C   0  0  0  0  0  0  0  0  0  0  0  0
  191.3450  173.9060  143.1590 C   0  0  0  0  0  3  0  0  0  0  0  0
  188.4670  172.4900  139.1810 C   0  0  0  0  0  2  0  0  0  0  0  0
  190.2010  174.7120  143.2790 C   0  0  0  0  0  0  0  0  0  0  0  0
  190.7720  171.9880  139.9620 C   0  0  0  0  0  2  0  0  0  0  0  0
  190.5650  172.9860  141.0670 C   0  0  0  0  0  0  0  0  0  0  0  0
  190.9320  175.7640  145.4530 C   0  0  0  0  0  0  0  0  0  0  0  0
  191.5230  173.0520  142.0750 C   0  0  0  0  0  3  0  0  0  0  0  0
  190.6410  176.6920  146.4670 C   0  0  0  0  0  3  0  0  0  0  0  0
  188.0680  175.4270  142.3470 C   0  0  0  0  0  3  0  0  0  0  0  0
  187.8410  176.2780  143.3800 N   0  0  0  0  0  0  0  0  0  0  0  0
  189.3910  173.7660  141.1600 C   0  0  0  0  0  0  0  0  0  0  0  0
  192.0360  175.0740  145.5090 N   0  0  0  0  0  2  0  0  0  0  0  0
  189.4780  177.4560  146.4580 C   0  0  0  0  0  3  0  0  0  0  0  0
  189.9060  172.2830  138.7420 C   0  0  0  0  0  2  0  0  0  0  0  0
  188.3770  173.7500  140.0360 C   0  0  0  0  0  2  0  0  0  0  0  0
  184.9250  178.2900  142.1470 C   0  0  0  0  0  0  0  0  0  0  0  0
  184.4400  178.7960  140.9870 F   0  0  0  0  0  0  0  0  0  0  0  0
  186.6150  177.0280  143.3550 C   0  0  0  0  0  0  0  0  0  0  0  0
  184.2370  178.5110  143.3410 C   0  0  0  0  0  3  0  0  0  0  0  0
  185.9200  177.2650  144.5500 C   0  0  0  0  0  3  0  0  0  0  0  0
  186.1160  177.5530  142.1500 C   0  0  0  0  0  0  0  0  0  0  0  0
  186.7920  177.3670  140.9880 F   0  0  0  0  0  0  0  0  0  0  0  0
  184.7320  178.0010  144.5510 C   0  0  0  0  0  0  0  0  0  0  0  0
  184.7520  178.3720  146.9970 C   0  0  0  0  0  1  0  0  0  0  0  0
  184.0670  178.2110  145.7620 O   0  0  0  0  0  0  0  0  0  0  0  0
  193.0310  175.1840  146.5690 C   0  0  0  0  0  2  0  0  0  0  0  0
  194.2630  175.8780  146.0310 C   0  0  0  0  0  2  0  0  0  0  0  0
  194.3850  177.1330  146.6240 O   0  0  0  0  0  1  0  0  0  0  0  0
  1  3  1  6  0  0  0
  2 13  2  0  0  0  0
  2  7  1  0  0  0  0
  3 17  2  0  0  0  0
  4  1  1  0  0  0  0
  4 10  1  0  0  0  0
  5  7  1  0  0  0  0
  6 19  1  0  0  0  0
  7  4  2  0  0  0  0
  8  9  1  0  0  0  0
  9 15  2  0  0  0  0
  9 11  1  0  0  0  0
 10 16  1  0  0  0  0
 10 12  2  0  0  0  0
 11  5  2  0  0  0  0
 13 14  1  0  0  0  0
 14  1  1  0  0  0  0
 15  2  1  0  0  0  0
 16 30  1  0  0  0  0
 17 12  1  0  0  0  0
 18  6  1  0  0  0  0
 18  8  1  0  0  0  0
 19 15  1  0  0  0  0
 20 25  2  0  0  0  0
 20 23  1  0  0  0  0
 21 20  1  0  0  0  0
 22 14  1  0  0  0  0
 22 24  2  0  0  0  0
 23 27  2  0  0  0  0
 24 27  1  0  0  0  0
 25 22  1  0  0  0  0
 26 25  1  0  0  0  0
 27 29  1  0  0  0  0
 29 28  1  0  0  0  0
 31 30  1  0  0  0  0
 31 32  1  0  0  0  0
M  END
>  <MODEL>
9

>  <REMARK>
 VINA RESULT:      -7.5      2.410      3.022
  Name = 
  4 active torsions:
  status: ('A' for Active; 'I' for Inactive)
    1  A    between atoms: C_13  and  C_18
    2  A    between atoms: O_15  and  C_26
    3  A    between atoms: C_16  and  N_27
    4  A    between atoms: C_18  and  N_29
                            x       y       z     vdW  Elec       q    Type
                         _______ _______ _______ _____ _____    ______ ____

>  <TORSDO>
F 4

$$$$
