=
 OpenBabel11052417333D

 25 28  0  0  0  0  0  0  0  0999 V2000
  186.6200  177.7730  143.9210 C   0  0  0  0  0  0  0  0  0  0  0  0
  185.9150  177.8580  142.7010 C   0  0  0  0  0  0  0  0  0  0  0  0
  188.6980  177.2800  142.7390 C   0  0  0  0  0  3  0  0  0  0  0  0
  186.1300  177.9420  145.2310 C   0  0  0  0  0  0  0  0  0  0  0  0
  185.5310  178.2050  147.9500 C   0  0  0  0  0  3  0  0  0  0  0  0
  188.0080  177.3620  141.5260 C   0  0  0  0  0  3  0  0  0  0  0  0
  187.1170  177.7860  146.2020 C   0  0  0  0  0  0  0  0  0  0  0  0
  186.8470  177.9120  147.5620 C   0  0  0  0  0  3  0  0  0  0  0  0
  185.9090  177.7310  140.2230 C   0  0  0  0  0  0  0  0  0  0  0  0
  186.5130  177.5510  139.1310 O   0  0  0  0  0  0  0  0  0  0  0  0
  184.4380  178.1660  142.6720 C   0  0  0  0  0  2  0  0  0  0  0  0
  184.5230  178.3660  146.9830 C   0  0  0  0  0  3  0  0  0  0  0  0
  187.9870  177.4890  143.9150 C   0  0  0  0  0  0  0  0  0  0  0  0
  188.6010  177.4410  145.4840 S   0  0  0  0  0  0  0  0  0  0  0  0
  184.5110  178.0180  140.2150 N   0  0  0  0  0  0  0  0  0  0  0  0
  184.8170  178.2350  145.6170 C   0  0  0  0  0  3  0  0  0  0  0  0
  183.8170  178.2190  141.2990 C   0  0  0  0  0  0  0  0  0  0  0  0
  186.6290  177.6480  141.5000 C   0  0  0  0  0  0  0  0  0  0  0  0
  182.3810  178.5090  141.2160 C   0  0  0  0  0  3  0  0  0  0  0  0
  181.5940  177.9530  140.3010 C   0  0  0  0  0  3  0  0  0  0  0  0
  179.8530  178.3490  140.2580 S   0  0  0  0  0  0  0  0  0  0  0  0
  179.8290  178.7750  142.0260 C   0  0  0  0  0  2  0  0  0  0  0  0
  178.4700  178.4690  142.6260 C   0  0  0  0  0  3  0  0  0  0  0  0
  178.2710  176.9700  142.6740 C   0  0  0  0  0  1  0  0  0  0  0  0
  178.3840  179.0270  144.0340 C   0  0  0  0  0  1  0  0  0  0  0  0
  1  4  1  0  0  0  0
  2  1  1  0  0  0  0
  3 13  1  0  0  0  0
  4 16  2  0  0  0  0
  4  7  1  0  0  0  0
  6  3  2  0  0  0  0
  7  8  2  0  0  0  0
  8  5  1  0  0  0  0
  9 18  1  0  0  0  0
 10  9  2  0  0  0  0
 11  2  1  0  0  0  0
 12  5  2  0  0  0  0
 13  1  2  0  0  0  0
 13 14  1  0  0  0  0
 14  7  1  0  0  0  0
 15  9  1  0  0  0  0
 15 17  2  0  0  0  0
 16 12  1  0  0  0  0
 17 11  1  0  0  0  0
 18  6  1  0  0  0  0
 18  2  2  0  0  0  0
 19 17  1  0  0  0  0
 20 19  2  0  0  0  0
 21 20  1  0  0  0  0
 21 22  1  0  0  0  0
 22 23  1  0  0  0  0
 23 24  1  0  0  0  0
 23 25  1  0  0  0  0
M  END
>  <MODEL>
1

>  <REMARK>
 VINA RESULT:      -7.9      0.000      0.000
  Name = 
  4 active torsions:
  status: ('A' for Active; 'I' for Inactive)
    1  A    between atoms: C_2  and  C_25
    2  A    between atoms: C_6  and  C_23
    3  A    between atoms: C_15  and  S_21
    4  A    between atoms: S_21  and  C_25
                            x       y       z     vdW  Elec       q    Type
                         _______ _______ _______ _____ _____    ______ ____

>  <TORSDO>
F 4

$$$$
=
 OpenBabel11052417333D

 25 28  0  0  0  0  0  0  0  0999 V2000
  185.7180  178.0820  143.7920 C   0  0  0  0  0  0  0  0  0  0  0  0
  186.6320  177.9290  144.8560 C   0  0  0  0  0  0  0  0  0  0  0  0
  183.9600  178.7710  145.3390 C   0  0  0  0  0  3  0  0  0  0  0  0
  185.9310  177.8690  142.4150 C   0  0  0  0  0  0  0  0  0  0  0  0
  185.9700  177.5530  139.6360 C   0  0  0  0  0  3  0  0  0  0  0  0
  184.8590  178.6220  146.4000 C   0  0  0  0  0  3  0  0  0  0  0  0
  184.7950  178.1210  141.6470 C   0  0  0  0  0  0  0  0  0  0  0  0
  184.7880  177.9730  140.2630 C   0  0  0  0  0  3  0  0  0  0  0  0
  187.1220  178.0470  147.2860 C   0  0  0  0  0  0  0  0  0  0  0  0
  186.7590  178.2850  148.4690 O   0  0  0  0  0  0  0  0  0  0  0  0
  188.0520  177.4820  144.6080 C   0  0  0  0  0  2  0  0  0  0  0  0
  187.1260  177.2950  140.3970 C   0  0  0  0  0  3  0  0  0  0  0  0
  184.4110  178.4990  144.0530 C   0  0  0  0  0  0  0  0  0  0  0  0
  183.5160  178.6080  142.6280 S   0  0  0  0  0  0  0  0  0  0  0  0
  188.4610  177.6190  147.0330 N   0  0  0  0  0  0  0  0  0  0  0  0
  187.1110  177.4510  141.7910 C   0  0  0  0  0  3  0  0  0  0  0  0
  188.9130  177.3560  145.8400 C   0  0  0  0  0  0  0  0  0  0  0  0
  186.1840  178.2040  146.1670 C   0  0  0  0  0  0  0  0  0  0  0  0
  190.3010  176.9200  145.6540 C   0  0  0  0  0  3  0  0  0  0  0  0
  190.8900  176.9080  144.4630 C   0  0  0  0  0  3  0  0  0  0  0  0
  192.5850  176.3670  144.3070 S   0  0  0  0  0  0  0  0  0  0  0  0
  192.7620  176.1560  146.1050 C   0  0  0  0  0  2  0  0  0  0  0  0
  194.2010  176.3850  146.5260 C   0  0  0  0  0  3  0  0  0  0  0  0
  195.0430  175.2070  146.0870 C   0  0  0  0  0  1  0  0  0  0  0  0
  194.7390  177.6480  145.8810 C   0  0  0  0  0  1  0  0  0  0  0  0
  1 13  1  0  0  0  0
  1  2  2  0  0  0  0
  2 18  1  0  0  0  0
  3  6  1  0  0  0  0
  4  1  1  0  0  0  0
  5  8  2  0  0  0  0
  5 12  1  0  0  0  0
  7  4  2  0  0  0  0
  7 14  1  0  0  0  0
  8  7  1  0  0  0  0
  9 10  2  0  0  0  0
 11  2  1  0  0  0  0
 11 17  1  0  0  0  0
 12 16  2  0  0  0  0
 13  3  2  0  0  0  0
 14 13  1  0  0  0  0
 15  9  1  0  0  0  0
 16  4  1  0  0  0  0
 17 15  2  0  0  0  0
 18  6  2  0  0  0  0
 18  9  1  0  0  0  0
 19 17  1  0  0  0  0
 20 19  2  0  0  0  0
 21 20  1  0  0  0  0
 21 22  1  0  0  0  0
 22 23  1  0  0  0  0
 24 23  1  0  0  0  0
 25 23  1  0  0  0  0
M  END
>  <MODEL>
2

>  <REMARK>
 VINA RESULT:      -7.8      3.979      9.039
  Name = 
  4 active torsions:
  status: ('A' for Active; 'I' for Inactive)
    1  A    between atoms: C_2  and  C_25
    2  A    between atoms: C_6  and  C_23
    3  A    between atoms: C_15  and  S_21
    4  A    between atoms: S_21  and  C_25
                            x       y       z     vdW  Elec       q    Type
                         _______ _______ _______ _____ _____    ______ ____

>  <TORSDO>
F 4

$$$$
=
 OpenBabel11052417333D

 25 28  0  0  0  0  0  0  0  0999 V2000
  185.7340  177.6040  143.7460 C   0  0  0  0  0  0  0  0  0  0  0  0
  186.5170  176.9940  142.7420 C   0  0  0  0  0  0  0  0  0  0  0  0
  184.3130  178.6560  142.0630 C   0  0  0  0  0  3  0  0  0  0  0  0
  185.8780  177.5160  145.1450 C   0  0  0  0  0  0  0  0  0  0  0  0
  185.8450  177.5840  147.9410 C   0  0  0  0  0  3  0  0  0  0  0  0
  185.0830  178.0560  141.0620 C   0  0  0  0  0  3  0  0  0  0  0  0
  184.9180  178.2550  145.8340 C   0  0  0  0  0  0  0  0  0  0  0  0
  184.8790  178.3050  147.2250 C   0  0  0  0  0  3  0  0  0  0  0  0
  186.9830  176.6060  140.3360 C   0  0  0  0  0  0  0  0  0  0  0  0
  186.7090  176.7940  139.1200 O   0  0  0  0  0  0  0  0  0  0  0  0
  187.6880  176.1100  143.0940 C   0  0  0  0  0  2  0  0  0  0  0  0
  186.8210  176.8330  147.2600 C   0  0  0  0  0  3  0  0  0  0  0  0
  184.6550  178.4150  143.3880 C   0  0  0  0  0  0  0  0  0  0  0  0
  183.8800  179.0240  144.7550 S   0  0  0  0  0  0  0  0  0  0  0  0
  188.0900  175.7760  140.6880 N   0  0  0  0  0  0  0  0  0  0  0  0
  186.8430  176.7960  145.8580 C   0  0  0  0  0  3  0  0  0  0  0  0
  188.4360  175.5320  141.9190 C   0  0  0  0  0  0  0  0  0  0  0  0
  186.1770  177.2320  141.3920 C   0  0  0  0  0  0  0  0  0  0  0  0
  189.5870  174.6690  142.2080 C   0  0  0  0  0  3  0  0  0  0  0  0
  190.6180  175.0780  142.9410 C   0  0  0  0  0  3  0  0  0  0  0  0
  191.9870  173.9750  143.2550 S   0  0  0  0  0  0  0  0  0  0  0  0
  191.3180  173.4860  144.8740 C   0  0  0  0  0  2  0  0  0  0  0  0
  190.8450  174.7050  145.6420 C   0  0  0  0  0  3  0  0  0  0  0  0
  189.5670  174.3670  146.3780 C   0  0  0  0  0  1  0  0  0  0  0  0
  191.8980  175.1320  146.6460 C   0  0  0  0  0  1  0  0  0  0  0  0
  1  4  1  0  0  0  0
  2 11  1  0  0  0  0
  2  1  1  0  0  0  0
  3 13  1  0  0  0  0
  4  7  2  0  0  0  0
  4 16  1  0  0  0  0
  6 18  1  0  0  0  0
  6  3  2  0  0  0  0
  7  8  1  0  0  0  0
  8  5  2  0  0  0  0
  9 15  1  0  0  0  0
  9 18  1  0  0  0  0
 10  9  2  0  0  0  0
 12  5  1  0  0  0  0
 13  1  2  0  0  0  0
 13 14  1  0  0  0  0
 14  7  1  0  0  0  0
 15 17  2  0  0  0  0
 16 12  2  0  0  0  0
 17 19  1  0  0  0  0
 17 11  1  0  0  0  0
 18  2  2  0  0  0  0
 19 20  2  0  0  0  0
 20 21  1  0  0  0  0
 21 22  1  0  0  0  0
 22 23  1  0  0  0  0
 23 24  1  0  0  0  0
 23 25  1  0  0  0  0
M  END
>  <MODEL>
3

>  <REMARK>
 VINA RESULT:      -7.5      3.143      6.919
  Name = 
  4 active torsions:
  status: ('A' for Active; 'I' for Inactive)
    1  A    between atoms: C_2  and  C_25
    2  A    between atoms: C_6  and  C_23
    3  A    between atoms: C_15  and  S_21
    4  A    between atoms: S_21  and  C_25
                            x       y       z     vdW  Elec       q    Type
                         _______ _______ _______ _____ _____    ______ ____

>  <TORSDO>
F 4

$$$$
=
 OpenBabel11052417333D

 25 28  0  0  0  0  0  0  0  0999 V2000
  185.7550  178.0490  143.8040 C   0  0  0  0  0  0  0  0  0  0  0  0
  186.5840  177.9130  144.9380 C   0  0  0  0  0  0  0  0  0  0  0  0
  183.8860  178.7700  145.1990 C   0  0  0  0  0  3  0  0  0  0  0  0
  186.0720  177.8100  142.4520 C   0  0  0  0  0  0  0  0  0  0  0  0
  186.3250  177.4430  139.6910 C   0  0  0  0  0  3  0  0  0  0  0  0
  184.7000  178.6380  146.3280 C   0  0  0  0  0  3  0  0  0  0  0  0
  185.0000  178.0510  141.5940 C   0  0  0  0  0  0  0  0  0  0  0  0
  185.0990  177.8760  140.2160 C   0  0  0  0  0  3  0  0  0  0  0  0
  186.8860  178.0750  147.3960 C   0  0  0  0  0  0  0  0  0  0  0  0
  186.4340  178.3350  148.5430 O   0  0  0  0  0  0  0  0  0  0  0  0
  188.0170  177.4590  144.8080 C   0  0  0  0  0  2  0  0  0  0  0  0
  187.4170  177.1960  140.5420 C   0  0  0  0  0  3  0  0  0  0  0  0
  184.4330  178.4730  143.9560 C   0  0  0  0  0  0  0  0  0  0  0  0
  183.6510  178.5580  142.4650 S   0  0  0  0  0  0  0  0  0  0  0  0
  188.2390  177.6400  147.2540 N   0  0  0  0  0  0  0  0  0  0  0  0
  187.2960  177.3780  141.9280 C   0  0  0  0  0  3  0  0  0  0  0  0
  188.7800  177.3540  146.1050 C   0  0  0  0  0  0  0  0  0  0  0  0
  186.0370  178.2140  146.2060 C   0  0  0  0  0  0  0  0  0  0  0  0
  190.1770  176.9110  146.0340 C   0  0  0  0  0  3  0  0  0  0  0  0
  190.6330  175.8770  146.7330 C   0  0  0  0  0  3  0  0  0  0  0  0
  192.3460  175.3900  146.5980 S   0  0  0  0  0  0  0  0  0  0  0  0
  192.0930  174.6840  144.9420 C   0  0  0  0  0  2  0  0  0  0  0  0
  192.9160  175.4360  143.9130 C   0  0  0  0  0  3  0  0  0  0  0  0
  191.9900  176.0710  142.8990 C   0  0  0  0  0  1  0  0  0  0  0  0
  193.7310  176.5220  144.5900 C   0  0  0  0  0  1  0  0  0  0  0  0
  1 13  1  0  0  0  0
  1  2  2  0  0  0  0
  2 18  1  0  0  0  0
  3  6  1  0  0  0  0
  4  1  1  0  0  0  0
  5  8  2  0  0  0  0
  5 12  1  0  0  0  0
  7  4  2  0  0  0  0
  7 14  1  0  0  0  0
  8  7  1  0  0  0  0
  9 10  2  0  0  0  0
 11  2  1  0  0  0  0
 11 17  1  0  0  0  0
 12 16  2  0  0  0  0
 13  3  2  0  0  0  0
 14 13  1  0  0  0  0
 15  9  1  0  0  0  0
 16  4  1  0  0  0  0
 17 15  2  0  0  0  0
 18  6  2  0  0  0  0
 18  9  1  0  0  0  0
 19 17  1  0  0  0  0
 19 20  2  0  0  0  0
 21 20  1  0  0  0  0
 22 21  1  0  0  0  0
 23 25  1  0  0  0  0
 23 22  1  0  0  0  0
 24 23  1  0  0  0  0
M  END
>  <MODEL>
4

>  <REMARK>
 VINA RESULT:      -7.4      3.791      8.703
  Name = 
  4 active torsions:
  status: ('A' for Active; 'I' for Inactive)
    1  A    between atoms: C_2  and  C_25
    2  A    between atoms: C_6  and  C_23
    3  A    between atoms: C_15  and  S_21
    4  A    between atoms: S_21  and  C_25
                            x       y       z     vdW  Elec       q    Type
                         _______ _______ _______ _____ _____    ______ ____

>  <TORSDO>
F 4

$$$$
=
 OpenBabel11052417333D

 25 28  0  0  0  0  0  0  0  0999 V2000
  186.9330  177.7960  144.2560 C   0  0  0  0  0  0  0  0  0  0  0  0
  188.2620  177.5280  144.6500 C   0  0  0  0  0  0  0  0  0  0  0  0
  186.2220  177.9380  146.5870 C   0  0  0  0  0  3  0  0  0  0  0  0
  186.4090  177.9030  142.9520 C   0  0  0  0  0  0  0  0  0  0  0  0
  185.0180  178.1840  140.5420 C   0  0  0  0  0  3  0  0  0  0  0  0
  187.5350  177.6730  146.9860 C   0  0  0  0  0  3  0  0  0  0  0  0
  185.0430  178.1780  142.9390 C   0  0  0  0  0  0  0  0  0  0  0  0
  184.3270  178.3230  141.7540 C   0  0  0  0  0  3  0  0  0  0  0  0
  189.9280  177.1900  146.4570 C   0  0  0  0  0  0  0  0  0  0  0  0
  190.2240  177.1300  147.6810 O   0  0  0  0  0  0  0  0  0  0  0  0
  189.3510  177.3110  143.6280 C   0  0  0  0  0  2  0  0  0  0  0  0
  186.3970  177.9060  140.5370 C   0  0  0  0  0  3  0  0  0  0  0  0
  185.9480  177.9950  145.2250 C   0  0  0  0  0  0  0  0  0  0  0  0
  184.4510  178.2970  144.5110 S   0  0  0  0  0  0  0  0  0  0  0  0
  190.9440  176.9820  145.4760 N   0  0  0  0  0  0  0  0  0  0  0  0
  187.1000  177.7640  141.7430 C   0  0  0  0  0  3  0  0  0  0  0  0
  190.7200  177.0290  144.1940 C   0  0  0  0  0  0  0  0  0  0  0  0
  188.5500  177.4690  146.0310 C   0  0  0  0  0  0  0  0  0  0  0  0
  191.8130  176.8040  143.2420 C   0  0  0  0  0  3  0  0  0  0  0  0
  192.7710  175.9090  143.4560 C   0  0  0  0  0  3  0  0  0  0  0  0
  194.0720  175.6850  142.2540 S   0  0  0  0  0  0  0  0  0  0  0  0
  195.3670  176.0760  143.4700 C   0  0  0  0  0  2  0  0  0  0  0  0
  194.8560  175.8440  144.8790 C   0  0  0  0  0  3  0  0  0  0  0  0
  195.7110  174.7930  145.5530 C   0  0  0  0  0  1  0  0  0  0  0  0
  194.9290  177.1310  145.6790 C   0  0  0  0  0  1  0  0  0  0  0  0
  1  2  2  0  0  0  0
  1 13  1  0  0  0  0
  2 18  1  0  0  0  0
  3  6  1  0  0  0  0
  4  1  1  0  0  0  0
  5  8  1  0  0  0  0
  7  4  1  0  0  0  0
  7 14  1  0  0  0  0
  8  7  2  0  0  0  0
  9 10  2  0  0  0  0
 11 17  1  0  0  0  0
 11  2  1  0  0  0  0
 12  5  2  0  0  0  0
 12 16  1  0  0  0  0
 13  3  2  0  0  0  0
 14 13  1  0  0  0  0
 15  9  1  0  0  0  0
 16  4  2  0  0  0  0
 17 15  2  0  0  0  0
 18  9  1  0  0  0  0
 18  6  2  0  0  0  0
 19 20  2  0  0  0  0
 19 17  1  0  0  0  0
 21 20  1  0  0  0  0
 21 22  1  0  0  0  0
 22 23  1  0  0  0  0
 23 24  1  0  0  0  0
 23 25  1  0  0  0  0
M  END
>  <MODEL>
5

>  <REMARK>
 VINA RESULT:      -7.1      4.355      9.305
  Name = 
  4 active torsions:
  status: ('A' for Active; 'I' for Inactive)
    1  A    between atoms: C_2  and  C_25
    2  A    between atoms: C_6  and  C_23
    3  A    between atoms: C_15  and  S_21
    4  A    between atoms: S_21  and  C_25
                            x       y       z     vdW  Elec       q    Type
                         _______ _______ _______ _____ _____    ______ ____

>  <TORSDO>
F 4

$$$$
=
 OpenBabel11052417333D

 25 28  0  0  0  0  0  0  0  0999 V2000
  185.9510  177.5040  143.8050 C   0  0  0  0  0  0  0  0  0  0  0  0
  186.8390  176.7810  142.9800 C   0  0  0  0  0  0  0  0  0  0  0  0
  184.7090  178.2920  141.8570 C   0  0  0  0  0  3  0  0  0  0  0  0
  185.9460  177.6070  145.2100 C   0  0  0  0  0  0  0  0  0  0  0  0
  185.6180  178.0490  147.9530 C   0  0  0  0  0  3  0  0  0  0  0  0
  185.5850  177.5790  141.0320 C   0  0  0  0  0  3  0  0  0  0  0  0
  184.9140  178.4120  145.6900 C   0  0  0  0  0  0  0  0  0  0  0  0
  184.7280  178.6480  147.0490 C   0  0  0  0  0  3  0  0  0  0  0  0
  187.5590  176.0830  140.7100 C   0  0  0  0  0  0  0  0  0  0  0  0
  187.4140  176.1010  139.4580 O   0  0  0  0  0  0  0  0  0  0  0  0
  187.9720  175.9760  143.5680 C   0  0  0  0  0  2  0  0  0  0  0  0
  186.6650  177.2330  147.4860 C   0  0  0  0  0  3  0  0  0  0  0  0
  184.9110  178.2380  143.2310 C   0  0  0  0  0  0  0  0  0  0  0  0
  183.9920  179.0090  144.4150 S   0  0  0  0  0  0  0  0  0  0  0  0
  188.6280  175.3310  141.2840 N   0  0  0  0  0  0  0  0  0  0  0  0
  186.8350  177.0090  146.1110 C   0  0  0  0  0  3  0  0  0  0  0  0
  188.8430  175.2600  142.5670 C   0  0  0  0  0  0  0  0  0  0  0  0
  186.6420  176.8290  141.5820 C   0  0  0  0  0  0  0  0  0  0  0  0
  189.9620  174.4680  143.0880 C   0  0  0  0  0  3  0  0  0  0  0  0
  191.1140  175.0180  143.4560 C   0  0  0  0  0  3  0  0  0  0  0  0
  192.4360  173.9940  144.0840 S   0  0  0  0  0  0  0  0  0  0  0  0
  193.5700  175.4090  144.2200 C   0  0  0  0  0  2  0  0  0  0  0  0
  194.0400  175.5760  145.6520 C   0  0  0  0  0  3  0  0  0  0  0  0
  194.4510  177.0150  145.8790 C   0  0  0  0  0  1  0  0  0  0  0  0
  192.9210  175.2230  146.6130 C   0  0  0  0  0  1  0  0  0  0  0  0
  1  4  1  0  0  0  0
  2 11  1  0  0  0  0
  2  1  1  0  0  0  0
  3 13  1  0  0  0  0
  4  7  2  0  0  0  0
  4 16  1  0  0  0  0
  6 18  1  0  0  0  0
  6  3  2  0  0  0  0
  7  8  1  0  0  0  0
  8  5  2  0  0  0  0
  9 15  1  0  0  0  0
  9 18  1  0  0  0  0
 10  9  2  0  0  0  0
 12  5  1  0  0  0  0
 13  1  2  0  0  0  0
 13 14  1  0  0  0  0
 14  7  1  0  0  0  0
 15 17  2  0  0  0  0
 16 12  2  0  0  0  0
 17 19  1  0  0  0  0
 17 11  1  0  0  0  0
 18  2  2  0  0  0  0
 19 20  2  0  0  0  0
 20 21  1  0  0  0  0
 21 22  1  0  0  0  0
 22 23  1  0  0  0  0
 23 24  1  0  0  0  0
 23 25  1  0  0  0  0
M  END
>  <MODEL>
6

>  <REMARK>
 VINA RESULT:      -7.0      3.296      7.800
  Name = 
  4 active torsions:
  status: ('A' for Active; 'I' for Inactive)
    1  A    between atoms: C_2  and  C_25
    2  A    between atoms: C_6  and  C_23
    3  A    between atoms: C_15  and  S_21
    4  A    between atoms: S_21  and  C_25
                            x       y       z     vdW  Elec       q    Type
                         _______ _______ _______ _____ _____    ______ ____

>  <TORSDO>
F 4

$$$$
=
 OpenBabel11052417333D

 25 28  0  0  0  0  0  0  0  0999 V2000
  191.0720  174.1910  144.7510 C   0  0  0  0  0  0  0  0  0  0  0  0
  190.5290  175.1910  145.5850 C   0  0  0  0  0  0  0  0  0  0  0  0
  193.1720  174.2280  145.9940 C   0  0  0  0  0  3  0  0  0  0  0  0
  190.4680  173.5370  143.6580 C   0  0  0  0  0  0  0  0  0  0  0  0
  189.6140  172.0390  141.4560 C   0  0  0  0  0  3  0  0  0  0  0  0
  192.6430  175.2190  146.8260 C   0  0  0  0  0  3  0  0  0  0  0  0
  191.3060  172.5960  143.0610 C   0  0  0  0  0  0  0  0  0  0  0  0
  190.9050  171.8370  141.9640 C   0  0  0  0  0  3  0  0  0  0  0  0
  190.7840  176.7440  147.5040 C   0  0  0  0  0  0  0  0  0  0  0  0
  191.4720  177.2220  148.4460 O   0  0  0  0  0  0  0  0  0  0  0  0
  189.1270  175.7070  145.3750 C   0  0  0  0  0  2  0  0  0  0  0  0
  188.7560  172.9840  142.0470 C   0  0  0  0  0  3  0  0  0  0  0  0
  192.3720  173.7320  144.9710 C   0  0  0  0  0  0  0  0  0  0  0  0
  192.7910  172.5430  143.8510 S   0  0  0  0  0  0  0  0  0  0  0  0
  189.4570  177.2230  147.2880 N   0  0  0  0  0  0  0  0  0  0  0  0
  189.1800  173.7390  143.1510 C   0  0  0  0  0  3  0  0  0  0  0  0
  188.6830  176.7790  146.3390 C   0  0  0  0  0  0  0  0  0  0  0  0
  191.3340  175.7010  146.6280 C   0  0  0  0  0  0  0  0  0  0  0  0
  187.3290  177.3190  146.1740 C   0  0  0  0  0  3  0  0  0  0  0  0
  186.5930  177.7240  147.2040 C   0  0  0  0  0  3  0  0  0  0  0  0
  184.9520  178.3730  146.9320 S   0  0  0  0  0  0  0  0  0  0  0  0
  184.9210  177.7820  145.2120 C   0  0  0  0  0  2  0  0  0  0  0  0
  184.3910  178.8630  144.2900 C   0  0  0  0  0  3  0  0  0  0  0  0
  185.4540  179.9240  144.1010 C   0  0  0  0  0  1  0  0  0  0  0  0
  184.0370  178.2690  142.9390 C   0  0  0  0  0  1  0  0  0  0  0  0
  1 13  1  0  0  0  0
  1  2  2  0  0  0  0
  2 18  1  0  0  0  0
  3  6  1  0  0  0  0
  4  1  1  0  0  0  0
  5  8  2  0  0  0  0
  5 12  1  0  0  0  0
  7  4  2  0  0  0  0
  7 14  1  0  0  0  0
  8  7  1  0  0  0  0
  9 10  2  0  0  0  0
 11  2  1  0  0  0  0
 11 17  1  0  0  0  0
 12 16  2  0  0  0  0
 13  3  2  0  0  0  0
 14 13  1  0  0  0  0
 15  9  1  0  0  0  0
 16  4  1  0  0  0  0
 17 15  2  0  0  0  0
 18  6  2  0  0  0  0
 18  9  1  0  0  0  0
 19 17  1  0  0  0  0
 19 20  2  0  0  0  0
 21 20  1  0  0  0  0
 22 21  1  0  0  0  0
 23 22  1  0  0  0  0
 24 23  1  0  0  0  0
 25 23  1  0  0  0  0
M  END
>  <MODEL>
7

>  <REMARK>
 VINA RESULT:      -7.0      4.850      7.494
  Name = 
  4 active torsions:
  status: ('A' for Active; 'I' for Inactive)
    1  A    between atoms: C_2  and  C_25
    2  A    between atoms: C_6  and  C_23
    3  A    between atoms: C_15  and  S_21
    4  A    between atoms: S_21  and  C_25
                            x       y       z     vdW  Elec       q    Type
                         _______ _______ _______ _____ _____    ______ ____

>  <TORSDO>
F 4

$$$$
=
 OpenBabel11052417333D

 25 28  0  0  0  0  0  0  0  0999 V2000
  186.5860  177.2310  143.9620 C   0  0  0  0  0  0  0  0  0  0  0  0
  187.6340  176.4050  143.5030 C   0  0  0  0  0  0  0  0  0  0  0  0
  185.6640  177.3920  141.7070 C   0  0  0  0  0  3  0  0  0  0  0  0
  186.3350  177.6830  145.2730 C   0  0  0  0  0  0  0  0  0  0  0  0
  185.5200  178.7680  147.7180 C   0  0  0  0  0  3  0  0  0  0  0  0
  186.7000  176.5750  141.2440 C   0  0  0  0  0  3  0  0  0  0  0  0
  185.2000  178.4880  145.3590 C   0  0  0  0  0  0  0  0  0  0  0  0
  184.7720  179.0400  146.5630 C   0  0  0  0  0  3  0  0  0  0  0  0
  188.7650  175.2260  141.6350 C   0  0  0  0  0  0  0  0  0  0  0  0
  188.8370  174.9170  140.4150 O   0  0  0  0  0  0  0  0  0  0  0  0
  188.6840  175.8760  144.4500 C   0  0  0  0  0  2  0  0  0  0  0  0
  186.6670  177.9570  147.6490 C   0  0  0  0  0  3  0  0  0  0  0  0
  185.6280  177.7030  143.0610 C   0  0  0  0  0  0  0  0  0  0  0  0
  184.4850  178.6630  143.8450 S   0  0  0  0  0  0  0  0  0  0  0  0
  189.7520  174.7390  142.5440 N   0  0  0  0  0  0  0  0  0  0  0  0
  187.0810  177.4100  146.4250 C   0  0  0  0  0  3  0  0  0  0  0  0
  189.7460  175.0120  143.8180 C   0  0  0  0  0  0  0  0  0  0  0  0
  187.6790  176.0830  142.1280 C   0  0  0  0  0  0  0  0  0  0  0  0
  190.7930  174.4770  144.6950 C   0  0  0  0  0  3  0  0  0  0  0  0
  191.9950  174.1360  144.2430 C   0  0  0  0  0  3  0  0  0  0  0  0
  193.2260  173.4930  145.3660 S   0  0  0  0  0  0  0  0  0  0  0  0
  193.0950  174.9420  146.4570 C   0  0  0  0  0  2  0  0  0  0  0  0
  194.3960  175.7220  146.4580 C   0  0  0  0  0  3  0  0  0  0  0  0
  195.4650  174.9120  145.7580 C   0  0  0  0  0  1  0  0  0  0  0  0
  194.2140  177.0400  145.7300 C   0  0  0  0  0  1  0  0  0  0  0  0
  1  4  1  0  0  0  0
  2  1  1  0  0  0  0
  2 11  1  0  0  0  0
  3 13  1  0  0  0  0
  4  7  2  0  0  0  0
  4 16  1  0  0  0  0
  6  3  2  0  0  0  0
  6 18  1  0  0  0  0
  7  8  1  0  0  0  0
  8  5  2  0  0  0  0
  9 18  1  0  0  0  0
  9 15  1  0  0  0  0
 10  9  2  0  0  0  0
 12  5  1  0  0  0  0
 13 14  1  0  0  0  0
 13  1  2  0  0  0  0
 14  7  1  0  0  0  0
 15 17  2  0  0  0  0
 16 12  2  0  0  0  0
 17 11  1  0  0  0  0
 17 19  1  0  0  0  0
 18  2  2  0  0  0  0
 20 19  2  0  0  0  0
 20 21  1  0  0  0  0
 21 22  1  0  0  0  0
 22 23  1  0  0  0  0
 24 23  1  0  0  0  0
 25 23  1  0  0  0  0
M  END
>  <MODEL>
8

>  <REMARK>
 VINA RESULT:      -6.9      3.827      8.354
  Name = 
  4 active torsions:
  status: ('A' for Active; 'I' for Inactive)
    1  A    between atoms: C_2  and  C_25
    2  A    between atoms: C_6  and  C_23
    3  A    between atoms: C_15  and  S_21
    4  A    between atoms: S_21  and  C_25
                            x       y       z     vdW  Elec       q    Type
                         _______ _______ _______ _____ _____    ______ ____

>  <TORSDO>
F 4

$$$$
=
 OpenBabel11052417333D

 25 28  0  0  0  0  0  0  0  0999 V2000
  187.1050  176.9190  144.1920 C   0  0  0  0  0  0  0  0  0  0  0  0
  188.3130  176.2990  144.5770 C   0  0  0  0  0  0  0  0  0  0  0  0
  186.3660  177.0270  146.5160 C   0  0  0  0  0  3  0  0  0  0  0  0
  186.6710  177.2660  142.8970 C   0  0  0  0  0  0  0  0  0  0  0  0
  185.4780  178.0920  140.5060 C   0  0  0  0  0  3  0  0  0  0  0  0
  187.5600  176.4130  146.9060 C   0  0  0  0  0  3  0  0  0  0  0  0
  185.4140  177.8700  142.8920 C   0  0  0  0  0  0  0  0  0  0  0  0
  184.7980  178.2910  141.7160 C   0  0  0  0  0  3  0  0  0  0  0  0
  189.7800  175.4030  146.3670 C   0  0  0  0  0  0  0  0  0  0  0  0
  190.0080  175.1650  147.5830 O   0  0  0  0  0  0  0  0  0  0  0  0
  189.3520  175.9110  143.5540 C   0  0  0  0  0  2  0  0  0  0  0  0
  186.7470  177.4840  140.4930 C   0  0  0  0  0  3  0  0  0  0  0  0
  186.1640  177.2690  145.1630 C   0  0  0  0  0  0  0  0  0  0  0  0
  184.8130  177.9930  144.4600 S   0  0  0  0  0  0  0  0  0  0  0  0
  190.7500  175.0380  145.3840 N   0  0  0  0  0  0  0  0  0  0  0  0
  187.3500  177.0680  141.6900 C   0  0  0  0  0  3  0  0  0  0  0  0
  190.5890  175.2510  144.1100 C   0  0  0  0  0  0  0  0  0  0  0  0
  188.5280  176.0500  145.9510 C   0  0  0  0  0  0  0  0  0  0  0  0
  191.6280  174.8490  143.1550 C   0  0  0  0  0  3  0  0  0  0  0  0
  192.7540  174.2550  143.5370 C   0  0  0  0  0  3  0  0  0  0  0  0
  193.9770  173.7890  142.3210 S   0  0  0  0  0  0  0  0  0  0  0  0
  195.3380  173.9560  143.5160 C   0  0  0  0  0  2  0  0  0  0  0  0
  195.1360  175.1850  144.3810 C   0  0  0  0  0  3  0  0  0  0  0  0
  195.6910  174.9200  145.7640 C   0  0  0  0  0  1  0  0  0  0  0  0
  195.8570  176.3740  143.7760 C   0  0  0  0  0  1  0  0  0  0  0  0
  1  2  2  0  0  0  0
  1 13  1  0  0  0  0
  2 18  1  0  0  0  0
  3  6  1  0  0  0  0
  4  1  1  0  0  0  0
  5  8  1  0  0  0  0
  7  4  1  0  0  0  0
  7 14  1  0  0  0  0
  8  7  2  0  0  0  0
  9 10  2  0  0  0  0
 11 17  1  0  0  0  0
 11  2  1  0  0  0  0
 12  5  2  0  0  0  0
 12 16  1  0  0  0  0
 13  3  2  0  0  0  0
 14 13  1  0  0  0  0
 15  9  1  0  0  0  0
 16  4  2  0  0  0  0
 17 15  2  0  0  0  0
 18  9  1  0  0  0  0
 18  6  2  0  0  0  0
 19 20  2  0  0  0  0
 19 17  1  0  0  0  0
 21 22  1  0  0  0  0
 21 20  1  0  0  0  0
 22 23  1  0  0  0  0
 23 24  1  0  0  0  0
 25 23  1  0  0  0  0
M  END
>  <MODEL>
9

>  <REMARK>
 VINA RESULT:      -6.8      4.628      9.533
  Name = 
  4 active torsions:
  status: ('A' for Active; 'I' for Inactive)
    1  A    between atoms: C_2  and  C_25
    2  A    between atoms: C_6  and  C_23
    3  A    between atoms: C_15  and  S_21
    4  A    between atoms: S_21  and  C_25
                            x       y       z     vdW  Elec       q    Type
                         _______ _______ _______ _____ _____    ______ ____

>  <TORSDO>
F 4

$$$$
