=
 OpenBabel11052419053D

 32 36  0  0  1  0  0  0  0  0999 V2000
  190.9330  176.1250  144.2530 C   0  0  2  0  0  3  0  0  0  0  0  0
  191.8900  174.0090  143.0810 C   0  0  1  0  0  3  0  0  0  0  0  0
  191.7490  174.8290  144.3740 C   0  0  1  0  0  3  0  0  0  0  0  0
  191.6430  172.5310  143.3870 C   0  0  2  0  0  3  0  0  0  0  0  0
  191.7320  172.3760  138.8060 C   0  0  0  0  0  2  0  0  0  0  0  0
  190.9560  174.4940  141.9530 C   0  0  2  0  0  3  0  0  0  0  0  0
  190.7560  170.9650  140.2650 C   0  0  0  0  0  2  0  0  0  0  0  0
  190.7380  171.9880  141.4150 C   0  0  1  0  0  3  0  0  0  0  0  0
  192.4570  172.0000  144.5770 C   0  0  0  0  0  2  0  0  0  0  0  0
  192.9680  174.7880  145.3250 C   0  0  1  0  0  3  0  0  0  0  0  0
  191.8630  171.7700  142.2320 O   0  0  0  0  0  0  0  0  0  0  0  0
  194.1450  173.9830  144.7510 C   0  0  0  0  0  2  0  0  0  0  0  0
  193.4070  176.0730  145.6480 O   0  0  0  0  0  1  0  0  0  0  0  0
  189.6920  175.0070  142.4800 N   0  0  0  0  0  0  0  0  0  0  0  0
  194.5620  171.8200  145.6900 O   0  0  0  0  0  1  0  0  0  0  0  0
  189.6490  175.7940  143.5180 C   0  0  0  0  0  0  0  0  0  0  0  0
  190.7200  173.4380  140.8650 C   0  0  2  0  0  3  0  0  0  0  0  0
  193.9210  172.4610  144.6310 C   0  0  1  0  0  3  0  0  0  0  0  0
  190.5900  171.5790  139.0080 O   0  0  0  0  0  0  0  0  0  0  0  0
  191.7000  173.6200  139.7040 C   0  0  0  0  0  2  0  0  0  0  0  0
  187.0410  178.3340  143.2040 C   0  0  0  0  0  2  0  0  0  0  0  0
  186.0340  178.5760  144.3260 C   0  0  0  0  0  2  0  0  0  0  0  0
  186.7900  176.7590  145.9170 C   0  0  0  0  0  2  0  0  0  0  0  0
  188.3470  176.3070  143.9980 C   0  0  0  0  0  0  0  0  0  0  0  0
  186.6200  178.2620  145.7020 C   0  0  2  0  0  3  0  0  0  0  0  0
  188.0680  176.2730  145.3100 C   0  0  0  0  0  3  0  0  0  0  0  0
  187.3720  176.8550  142.9860 C   0  0  1  0  0  3  0  0  0  0  0  0
  186.1720  176.0340  142.8970 N   0  0  0  0  0  1  0  0  0  0  0  0
  184.4790  178.3130  146.8090 C   0  0  0  0  0  1  0  0  0  0  0  0
  185.8280  178.8710  146.7740 N   0  0  0  0  0  2  0  0  0  0  0  0
  191.7150  177.2020  143.5050 C   0  0  0  0  0  2  0  0  0  0  0  0
  191.1090  178.5710  143.7490 C   0  0  0  0  0  1  0  0  0  0  0  0
  1 31  1  6  0  0  0
  1  3  1  0  0  0  0
  2  4  1  0  0  0  0
  2  3  1  0  0  0  0
  3 10  1  0  0  0  0
  4  9  1  0  0  0  0
  5 19  1  0  0  0  0
  5 20  1  0  0  0  0
  6 14  1  0  0  0  0
  6  2  1  0  0  0  0
  7  8  1  0  0  0  0
  8 11  1  0  0  0  0
  9 18  1  0  0  0  0
 10 13  1  0  0  0  0
 11  4  1  0  0  0  0
 12 10  1  0  0  0  0
 14 16  2  0  0  0  0
 16 24  1  0  0  0  0
 16  1  1  0  0  0  0
 17  8  1  0  0  0  0
 17  6  1  0  0  0  0
 18 12  1  0  0  0  0
 18 15  1  0  0  0  0
 19  7  1  0  0  0  0
 20 17  1  0  0  0  0
 21 22  1  0  0  0  0
 22 25  1  0  0  0  0
 24 26  2  0  0  0  0
 25 23  1  0  0  0  0
 25 30  1  0  0  0  0
 26 23  1  0  0  0  0
 27 21  1  0  0  0  0
 27 24  1  0  0  0  0
 28 27  1  0  0  0  0
 30 29  1  0  0  0  0
 31 32  1  0  0  0  0
M  END
>  <MODEL>
1

>  <REMARK>
 VINA RESULT:      -7.4      0.000      0.000
  Name = 
  3 active torsions:
  status: ('A' for Active; 'I' for Inactive)
    1  A    between atoms: C_1  and  C_4
    2  A    between atoms: C_16  and  C_27
    3  A    between atoms: C_19  and  N_26
                            x       y       z     vdW  Elec       q    Type
                         _______ _______ _______ _____ _____    ______ ____

>  <TORSDO>
F 3

$$$$
=
 OpenBabel11052419053D

 32 36  0  0  1  0  0  0  0  0999 V2000
  189.5460  174.7460  144.3730 C   0  0  2  0  0  3  0  0  0  0  0  0
  191.8190  174.0750  143.3020 C   0  0  1  0  0  3  0  0  0  0  0  0
  190.3850  173.6630  143.6780 C   0  0  1  0  0  3  0  0  0  0  0  0
  192.1240  173.6080  141.8780 C   0  0  2  0  0  3  0  0  0  0  0  0
  195.8050  176.2310  142.6460 C   0  0  0  0  0  2  0  0  0  0  0  0
  192.0700  175.5900  143.4440 C   0  0  2  0  0  3  0  0  0  0  0  0
  194.8580  175.6350  140.6920 C   0  0  0  0  0  2  0  0  0  0  0  0
  193.5010  175.2830  141.3270 C   0  0  1  0  0  3  0  0  0  0  0  0
  191.7920  172.1300  141.6230 C   0  0  0  0  0  2  0  0  0  0  0  0
  190.2030  172.1830  144.0870 C   0  0  1  0  0  3  0  0  0  0  0  0
  193.4580  173.8970  141.5640 O   0  0  0  0  0  0  0  0  0  0  0  0
  191.5280  171.4050  144.1170 C   0  0  0  0  0  2  0  0  0  0  0  0
  189.5780  172.0710  145.3300 O   0  0  0  0  0  1  0  0  0  0  0  0
  190.8730  176.3690  143.1320 N   0  0  0  0  0  0  0  0  0  0  0  0
  191.9360  169.8550  142.3370 O   0  0  0  0  0  1  0  0  0  0  0  0
  189.6960  176.0270  143.5780 C   0  0  0  0  0  0  0  0  0  0  0  0
  193.2810  176.0810  142.6390 C   0  0  2  0  0  3  0  0  0  0  0  0
  192.1940  171.1630  142.7470 C   0  0  1  0  0  3  0  0  0  0  0  0
  195.4930  176.7020  141.3570 O   0  0  0  0  0  0  0  0  0  0  0  0
  194.5410  176.1090  143.5080 C   0  0  0  0  0  2  0  0  0  0  0  0
  186.0540  176.3190  143.5300 C   0  0  0  0  0  2  0  0  0  0  0  0
  185.3560  177.3620  142.6610 C   0  0  0  0  0  2  0  0  0  0  0  0
  187.4060  178.5070  141.7160 C   0  0  0  0  0  2  0  0  0  0  0  0
  188.5180  176.8630  143.2560 C   0  0  0  0  0  0  0  0  0  0  0  0
  186.1560  177.6870  141.4000 C   0  0  2  0  0  3  0  0  0  0  0  0
  188.5310  177.6210  142.1490 C   0  0  0  0  0  3  0  0  0  0  0  0
  187.3360  176.8330  144.1920 C   0  0  1  0  0  3  0  0  0  0  0  0
  187.1360  178.1170  144.8470 N   0  0  0  0  0  1  0  0  0  0  0  0
  183.9100  178.2880  140.7600 C   0  0  0  0  0  1  0  0  0  0  0  0
  185.3220  178.3470  140.3910 N   0  0  0  0  0  2  0  0  0  0  0  0
  190.0000  174.9540  145.8160 C   0  0  0  0  0  2  0  0  0  0  0  0
  188.8060  175.1560  146.7290 C   0  0  0  0  0  1  0  0  0  0  0  0
  1 31  1  1  0  0  0
  2  6  1  0  0  0  0
  2  3  1  0  0  0  0
  3 10  1  0  0  0  0
  3  1  1  0  0  0  0
  4  2  1  0  0  0  0
  5 20  1  0  0  0  0
  7  8  1  0  0  0  0
  7 19  1  0  0  0  0
  8 11  1  0  0  0  0
  8 17  1  0  0  0  0
  9  4  1  0  0  0  0
  9 18  1  0  0  0  0
 10 12  1  0  0  0  0
 10 13  1  0  0  0  0
 11  4  1  0  0  0  0
 14  6  1  0  0  0  0
 14 16  2  0  0  0  0
 15 18  1  0  0  0  0
 16  1  1  0  0  0  0
 17  6  1  0  0  0  0
 17 20  1  0  0  0  0
 18 12  1  0  0  0  0
 19  5  1  0  0  0  0
 21 27  1  0  0  0  0
 22 21  1  0  0  0  0
 23 26  1  0  0  0  0
 24 16  1  0  0  0  0
 24 27  1  0  0  0  0
 25 23  1  0  0  0  0
 25 22  1  0  0  0  0
 26 24  2  0  0  0  0
 27 28  1  0  0  0  0
 30 29  1  0  0  0  0
 30 25  1  0  0  0  0
 31 32  1  0  0  0  0
M  END
>  <MODEL>
2

>  <REMARK>
 VINA RESULT:      -7.4      2.361      4.042
  Name = 
  3 active torsions:
  status: ('A' for Active; 'I' for Inactive)
    1  A    between atoms: C_1  and  C_4
    2  A    between atoms: C_16  and  C_27
    3  A    between atoms: C_19  and  N_26
                            x       y       z     vdW  Elec       q    Type
                         _______ _______ _______ _____ _____    ______ ____

>  <TORSDO>
F 3

$$$$
=
 OpenBabel11052419053D

 32 36  0  0  1  0  0  0  0  0999 V2000
  190.5490  175.9970  145.5530 C   0  0  2  0  0  3  0  0  0  0  0  0
  188.9270  175.7370  143.5360 C   0  0  1  0  0  3  0  0  0  0  0  0
  189.5050  176.6480  144.6340 C   0  0  1  0  0  3  0  0  0  0  0  0
  188.8920  176.4990  142.2110 C   0  0  2  0  0  3  0  0  0  0  0  0
  187.8550  172.2900  140.7190 C   0  0  0  0  0  2  0  0  0  0  0  0
  189.7010  174.4120  143.3820 C   0  0  2  0  0  3  0  0  0  0  0  0
  188.7620  174.0200  139.5980 C   0  0  0  0  0  2  0  0  0  0  0  0
  189.2380  174.7410  140.8720 C   0  0  1  0  0  3  0  0  0  0  0  0
  188.2360  177.8850  142.3080 C   0  0  0  0  0  2  0  0  0  0  0  0
  188.5230  177.6890  145.2190 C   0  0  1  0  0  3  0  0  0  0  0  0
  188.2810  175.7080  141.2300 O   0  0  0  0  0  0  0  0  0  0  0  0
  187.1050  177.5650  144.6390 C   0  0  0  0  0  2  0  0  0  0  0  0
  188.4570  177.6020  146.6110 O   0  0  0  0  0  1  0  0  0  0  0  0
  191.1270  174.5810  143.6570 N   0  0  0  0  0  0  0  0  0  0  0  0
  186.4110  179.2290  143.0610 O   0  0  0  0  0  1  0  0  0  0  0  0
  191.5520  175.2760  144.6750 C   0  0  0  0  0  0  0  0  0  0  0  0
  189.4710  173.7310  142.0260 C   0  0  2  0  0  3  0  0  0  0  0  0
  186.9540  177.9470  143.1520 C   0  0  1  0  0  3  0  0  0  0  0  0
  188.8060  172.6180  139.7360 O   0  0  0  0  0  0  0  0  0  0  0  0
  188.3440  172.6990  142.1160 C   0  0  0  0  0  2  0  0  0  0  0  0
  194.8440  176.1220  143.3320 C   0  0  0  0  0  2  0  0  0  0  0  0
  196.1230  175.6490  144.0180 C   0  0  0  0  0  2  0  0  0  0  0  0
  195.0800  174.4930  146.0140 C   0  0  0  0  0  2  0  0  0  0  0  0
  193.0050  175.3970  144.9250 C   0  0  0  0  0  0  0  0  0  0  0  0
  195.9250  174.3230  144.7520 C   0  0  2  0  0  3  0  0  0  0  0  0
  193.6210  174.4810  145.6870 C   0  0  0  0  0  3  0  0  0  0  0  0
  193.7480  176.5570  144.3100 C   0  0  1  0  0  3  0  0  0  0  0  0
  194.2530  177.4710  145.3240 N   0  0  0  0  0  1  0  0  0  0  0  0
  197.0110  172.4660  145.8400 C   0  0  0  0  0  1  0  0  0  0  0  0
  197.2060  173.6760  145.0460 N   0  0  0  0  0  2  0  0  0  0  0  0
  189.8950  175.0220  146.5290 C   0  0  0  0  0  2  0  0  0  0  0  0
  190.5670  175.0910  147.8870 C   0  0  0  0  0  1  0  0  0  0  0  0
  1 31  1  1  0  0  0
  2  3  1  0  0  0  0
  3 10  1  0  0  0  0
  3  1  1  0  0  0  0
  4  9  1  0  0  0  0
  4  2  1  0  0  0  0
  5 20  1  0  0  0  0
  6  2  1  0  0  0  0
  6 14  1  0  0  0  0
  7 19  1  0  0  0  0
  7  8  1  0  0  0  0
  8 11  1  0  0  0  0
  8 17  1  0  0  0  0
  9 18  1  0  0  0  0
 10 13  1  0  0  0  0
 11  4  1  0  0  0  0
 12 10  1  0  0  0  0
 14 16  2  0  0  0  0
 15 18  1  0  0  0  0
 16 24  1  0  0  0  0
 16  1  1  0  0  0  0
 17 20  1  0  0  0  0
 17  6  1  0  0  0  0
 18 12  1  0  0  0  0
 19  5  1  0  0  0  0
 21 22  1  0  0  0  0
 21 27  1  0  0  0  0
 22 25  1  0  0  0  0
 24 26  2  0  0  0  0
 25 30  1  0  0  0  0
 25 23  1  0  0  0  0
 26 23  1  0  0  0  0
 27 24  1  0  0  0  0
 27 28  1  0  0  0  0
 30 29  1  0  0  0  0
 31 32  1  0  0  0  0
M  END
>  <MODEL>
3

>  <REMARK>
 VINA RESULT:      -7.3      3.206      6.770
  Name = 
  3 active torsions:
  status: ('A' for Active; 'I' for Inactive)
    1  A    between atoms: C_1  and  C_4
    2  A    between atoms: C_16  and  C_27
    3  A    between atoms: C_19  and  N_26
                            x       y       z     vdW  Elec       q    Type
                         _______ _______ _______ _____ _____    ______ ____

>  <TORSDO>
F 3

$$$$
=
 OpenBabel11052419053D

 32 36  0  0  1  0  0  0  0  0999 V2000
  191.5820  176.7050  144.6710 C   0  0  2  0  0  3  0  0  0  0  0  0
  192.2970  174.3850  143.7360 C   0  0  1  0  0  3  0  0  0  0  0  0
  192.4970  175.4780  144.8000 C   0  0  1  0  0  3  0  0  0  0  0  0
  192.2770  173.0150  144.4130 C   0  0  2  0  0  3  0  0  0  0  0  0
  190.9590  171.8180  140.1890 C   0  0  0  0  0  2  0  0  0  0  0  0
  191.0250  174.5930  142.8890 C   0  0  2  0  0  3  0  0  0  0  0  0
  190.5980  170.7690  142.1490 C   0  0  0  0  0  2  0  0  0  0  0  0
  190.8540  172.0280  142.9970 C   0  0  1  0  0  3  0  0  0  0  0  0
  193.4570  172.7750  145.3670 C   0  0  0  0  0  2  0  0  0  0  0  0
  193.9490  175.6650  145.2980 C   0  0  1  0  0  3  0  0  0  0  0  0
  192.1890  172.0110  143.4410 O   0  0  0  0  0  0  0  0  0  0  0  0
  194.9520  174.7600  144.5650 C   0  0  0  0  0  2  0  0  0  0  0  0
  194.3620  176.9930  145.1810 O   0  0  0  0  0  1  0  0  0  0  0  0
  189.9480  175.2020  143.6680 N   0  0  0  0  0  0  0  0  0  0  0  0
  195.8110  172.8710  145.7620 O   0  0  0  0  0  1  0  0  0  0  0  0
  190.1650  176.2050  144.4720 C   0  0  0  0  0  0  0  0  0  0  0  0
  190.5500  173.3140  142.1860 C   0  0  2  0  0  3  0  0  0  0  0  0
  194.8250  173.2490  144.8510 C   0  0  1  0  0  3  0  0  0  0  0  0
  190.0030  171.0790  140.9100 O   0  0  0  0  0  0  0  0  0  0  0  0
  191.1060  173.2340  140.7620 C   0  0  0  0  0  2  0  0  0  0  0  0
  187.7610  175.8640  147.2030 C   0  0  0  0  0  2  0  0  0  0  0  0
  186.4930  176.7130  147.2510 C   0  0  0  0  0  2  0  0  0  0  0  0
  186.9040  178.1290  145.1940 C   0  0  0  0  0  2  0  0  0  0  0  0
  189.0370  176.8040  145.2210 C   0  0  0  0  0  0  0  0  0  0  0  0
  186.0000  177.0890  145.8540 C   0  0  2  0  0  3  0  0  0  0  0  0
  188.0900  177.4790  144.5540 C   0  0  0  0  0  3  0  0  0  0  0  0
  188.9940  176.6310  146.7180 C   0  0  1  0  0  3  0  0  0  0  0  0
  189.1540  177.9020  147.4100 N   0  0  0  0  0  1  0  0  0  0  0  0
  184.4590  178.8460  145.2620 C   0  0  0  0  0  1  0  0  0  0  0  0
  184.6030  177.5290  145.8780 N   0  0  0  0  0  2  0  0  0  0  0  0
  192.0060  177.5900  143.5010 C   0  0  0  0  0  2  0  0  0  0  0  0
  191.3090  178.9350  143.5660 C   0  0  0  0  0  1  0  0  0  0  0  0
  1 31  1  6  0  0  0
  1  3  1  0  0  0  0
  2  4  1  0  0  0  0
  2  3  1  0  0  0  0
  3 10  1  0  0  0  0
  4  9  1  0  0  0  0
  5 20  1  0  0  0  0
  5 19  1  0  0  0  0
  6 14  1  0  0  0  0
  6  2  1  0  0  0  0
  7  8  1  0  0  0  0
  8 11  1  0  0  0  0
 11  4  1  0  0  0  0
 12 18  1  0  0  0  0
 12 10  1  0  0  0  0
 13 10  1  0  0  0  0
 14 16  2  0  0  0  0
 16  1  1  0  0  0  0
 16 24  1  0  0  0  0
 17  6  1  0  0  0  0
 17  8  1  0  0  0  0
 18  9  1  0  0  0  0
 18 15  1  0  0  0  0
 19  7  1  0  0  0  0
 20 17  1  0  0  0  0
 21 22  1  0  0  0  0
 23 25  1  0  0  0  0
 24 27  1  0  0  0  0
 25 30  1  0  0  0  0
 25 22  1  0  0  0  0
 26 23  1  0  0  0  0
 26 24  2  0  0  0  0
 27 21  1  0  0  0  0
 27 28  1  0  0  0  0
 29 30  1  0  0  0  0
 31 32  1  0  0  0  0
M  END
>  <MODEL>
4

>  <REMARK>
 VINA RESULT:      -7.2      1.393      2.075
  Name = 
  3 active torsions:
  status: ('A' for Active; 'I' for Inactive)
    1  A    between atoms: C_1  and  C_4
    2  A    between atoms: C_16  and  C_27
    3  A    between atoms: C_19  and  N_26
                            x       y       z     vdW  Elec       q    Type
                         _______ _______ _______ _____ _____    ______ ____

>  <TORSDO>
F 3

$$$$
=
 OpenBabel11052419053D

 32 36  0  0  1  0  0  0  0  0999 V2000
  191.2750  174.2740  142.9770 C   0  0  2  0  0  3  0  0  0  0  0  0
  193.8410  173.8440  142.9720 C   0  0  1  0  0  3  0  0  0  0  0  0
  192.6180  174.4300  142.2470 C   0  0  1  0  0  3  0  0  0  0  0  0
  194.9950  174.8450  142.9120 C   0  0  2  0  0  3  0  0  0  0  0  0
  196.7470  171.8080  145.8680 C   0  0  0  0  0  2  0  0  0  0  0  0
  193.5430  173.4430  144.4320 C   0  0  2  0  0  3  0  0  0  0  0  0
  197.2440  173.9880  145.5950 C   0  0  0  0  0  2  0  0  0  0  0  0
  195.9220  174.3160  144.8780 C   0  0  1  0  0  3  0  0  0  0  0  0
  195.2810  175.3800  141.5010 C   0  0  0  0  0  2  0  0  0  0  0  0
  192.6550  174.3460  140.7030 C   0  0  1  0  0  3  0  0  0  0  0  0
  196.1390  174.2780  143.4880 O   0  0  0  0  0  0  0  0  0  0  0  0
  193.8960  173.6070  140.1760 C   0  0  0  0  0  2  0  0  0  0  0  0
  191.5080  173.7330  140.1980 O   0  0  0  0  0  1  0  0  0  0  0  0
  192.5580  174.3310  145.0480 N   0  0  0  0  0  0  0  0  0  0  0  0
  195.6260  174.9310  139.1810 O   0  0  0  0  0  1  0  0  0  0  0  0
  191.4800  174.7040  144.4160 C   0  0  0  0  0  0  0  0  0  0  0  0
  194.8050  173.3240  145.2970 C   0  0  2  0  0  3  0  0  0  0  0  0
  195.2430  174.3300  140.3800 C   0  0  1  0  0  3  0  0  0  0  0  0
  197.0830  172.9820  146.5680 O   0  0  0  0  0  0  0  0  0  0  0  0
  195.3090  171.8800  145.3340 C   0  0  0  0  0  2  0  0  0  0  0  0
  188.8960  175.0320  146.9800 C   0  0  0  0  0  2  0  0  0  0  0  0
  187.8930  176.1820  146.9480 C   0  0  0  0  0  2  0  0  0  0  0  0
  188.7910  177.4180  144.9310 C   0  0  0  0  0  2  0  0  0  0  0  0
  190.5000  175.5840  145.0910 C   0  0  0  0  0  0  0  0  0  0  0  0
  187.6070  176.6560  145.5240 C   0  0  2  0  0  3  0  0  0  0  0  0
  189.8070  176.4750  144.3670 C   0  0  0  0  0  3  0  0  0  0  0  0
  190.3160  175.4460  146.5820 C   0  0  1  0  0  3  0  0  0  0  0  0
  190.7560  176.6400  147.2900 N   0  0  0  0  0  1  0  0  0  0  0  0
  185.3380  176.8680  146.3110 C   0  0  0  0  0  1  0  0  0  0  0  0
  186.3740  177.4450  145.4580 N   0  0  0  0  0  2  0  0  0  0  0  0
  190.7780  172.8310  142.9150 C   0  0  0  0  0  2  0  0  0  0  0  0
  189.2680  172.7790  143.0340 C   0  0  0  0  0  1  0  0  0  0  0  0
  1 31  1  1  0  0  0
  1 16  1  0  0  0  0
  2  6  1  0  0  0  0
  3  2  1  0  0  0  0
  3  1  1  0  0  0  0
  4  2  1  0  0  0  0
  4 11  1  0  0  0  0
  5 19  1  0  0  0  0
  6 14  1  0  0  0  0
  6 17  1  0  0  0  0
  7 19  1  0  0  0  0
  8 17  1  0  0  0  0
  8  7  1  0  0  0  0
  9  4  1  0  0  0  0
 10  3  1  0  0  0  0
 11  8  1  0  0  0  0
 12 18  1  0  0  0  0
 12 10  1  0  0  0  0
 13 10  1  0  0  0  0
 15 18  1  0  0  0  0
 16 14  2  0  0  0  0
 16 24  1  0  0  0  0
 17 20  1  0  0  0  0
 18  9  1  0  0  0  0
 20  5  1  0  0  0  0
 22 21  1  0  0  0  0
 23 25  1  0  0  0  0
 24 27  1  0  0  0  0
 25 22  1  0  0  0  0
 26 23  1  0  0  0  0
 26 24  2  0  0  0  0
 27 21  1  0  0  0  0
 27 28  1  0  0  0  0
 30 25  1  0  0  0  0
 30 29  1  0  0  0  0
 31 32  1  0  0  0  0
M  END
>  <MODEL>
5

>  <REMARK>
 VINA RESULT:      -7.1      2.556      5.174
  Name = 
  3 active torsions:
  status: ('A' for Active; 'I' for Inactive)
    1  A    between atoms: C_1  and  C_4
    2  A    between atoms: C_16  and  C_27
    3  A    between atoms: C_19  and  N_26
                            x       y       z     vdW  Elec       q    Type
                         _______ _______ _______ _____ _____    ______ ____

>  <TORSDO>
F 3

$$$$
=
 OpenBabel11052419053D

 32 36  0  0  1  0  0  0  0  0999 V2000
  189.7600  174.3650  141.9410 C   0  0  2  0  0  3  0  0  0  0  0  0
  192.3120  174.4320  142.4410 C   0  0  1  0  0  3  0  0  0  0  0  0
  191.1940  174.2720  141.3970 C   0  0  1  0  0  3  0  0  0  0  0  0
  193.3870  175.3720  141.8940 C   0  0  2  0  0  3  0  0  0  0  0  0
  194.8130  174.9960  146.2350 C   0  0  0  0  0  2  0  0  0  0  0  0
  191.7970  174.9290  143.8070 C   0  0  2  0  0  3  0  0  0  0  0  0
  195.1960  176.6380  144.7420 C   0  0  0  0  0  2  0  0  0  0  0  0
  193.9970  176.2630  143.8530 C   0  0  1  0  0  3  0  0  0  0  0  0
  193.8720  175.0070  140.4830 C   0  0  0  0  0  2  0  0  0  0  0  0
  191.5020  173.2990  140.2340 C   0  0  1  0  0  3  0  0  0  0  0  0
  194.4510  175.4470  142.8000 O   0  0  0  0  0  0  0  0  0  0  0  0
  192.8630  172.6010  140.3850 C   0  0  0  0  0  2  0  0  0  0  0  0
  190.5040  172.3320  140.1010 O   0  0  0  0  0  1  0  0  0  0  0  0
  190.6610  175.8380  143.6590 N   0  0  0  0  0  0  0  0  0  0  0  0
  194.6410  173.3370  138.9590 O   0  0  0  0  0  1  0  0  0  0  0  0
  189.6840  175.5870  142.8330 C   0  0  0  0  0  0  0  0  0  0  0  0
  192.8970  175.5480  144.6800 C   0  0  2  0  0  3  0  0  0  0  0  0
  194.1010  173.5090  140.2330 C   0  0  1  0  0  3  0  0  0  0  0  0
  194.9410  176.3920  146.1050 O   0  0  0  0  0  0  0  0  0  0  0  0
  193.4870  174.5080  145.6350 C   0  0  0  0  0  2  0  0  0  0  0  0
  186.1450  176.2040  143.5040 C   0  0  0  0  0  2  0  0  0  0  0  0
  185.3830  177.3070  142.7740 C   0  0  0  0  0  2  0  0  0  0  0  0
  187.2970  178.2660  141.4230 C   0  0  0  0  0  2  0  0  0  0  0  0
  188.5440  176.5260  142.7380 C   0  0  0  0  0  0  0  0  0  0  0  0
  185.9420  177.5620  141.3740 C   0  0  2  0  0  3  0  0  0  0  0  0
  188.4030  177.2820  141.6390 C   0  0  0  0  0  3  0  0  0  0  0  0
  187.5740  176.5990  143.8900 C   0  0  1  0  0  3  0  0  0  0  0  0
  187.6220  177.8950  144.5520 N   0  0  0  0  0  1  0  0  0  0  0  0
  183.6550  178.2900  141.1430 C   0  0  0  0  0  1  0  0  0  0  0  0
  184.9860  178.2960  140.5410 N   0  0  0  0  0  2  0  0  0  0  0  0
  189.3840  173.1080  142.7220 C   0  0  0  0  0  2  0  0  0  0  0  0
  187.9690  172.6740  142.3900 C   0  0  0  0  0  1  0  0  0  0  0  0
  1 31  1  1  0  0  0
  1 16  1  0  0  0  0
  2  6  1  0  0  0  0
  3  1  1  0  0  0  0
  3  2  1  0  0  0  0
  4  2  1  0  0  0  0
  4 11  1  0  0  0  0
  6 17  1  0  0  0  0
  7 19  1  0  0  0  0
  8 17  1  0  0  0  0
  8  7  1  0  0  0  0
  9  4  1  0  0  0  0
 10 12  1  0  0  0  0
 10  3  1  0  0  0  0
 11  8  1  0  0  0  0
 13 10  1  0  0  0  0
 14  6  1  0  0  0  0
 15 18  1  0  0  0  0
 16 14  2  0  0  0  0
 17 20  1  0  0  0  0
 18 12  1  0  0  0  0
 18  9  1  0  0  0  0
 19  5  1  0  0  0  0
 20  5  1  0  0  0  0
 21 27  1  0  0  0  0
 22 21  1  0  0  0  0
 23 26  1  0  0  0  0
 24 16  1  0  0  0  0
 24 27  1  0  0  0  0
 25 23  1  0  0  0  0
 25 22  1  0  0  0  0
 26 24  2  0  0  0  0
 27 28  1  0  0  0  0
 30 29  1  0  0  0  0
 30 25  1  0  0  0  0
 32 31  1  0  0  0  0
M  END
>  <MODEL>
6

>  <REMARK>
 VINA RESULT:      -6.9      2.170      5.054
  Name = 
  3 active torsions:
  status: ('A' for Active; 'I' for Inactive)
    1  A    between atoms: C_1  and  C_4
    2  A    between atoms: C_16  and  C_27
    3  A    between atoms: C_19  and  N_26
                            x       y       z     vdW  Elec       q    Type
                         _______ _______ _______ _____ _____    ______ ____

>  <TORSDO>
F 3

$$$$
=
 OpenBabel11052419053D

 32 36  0  0  1  0  0  0  0  0999 V2000
  190.3760  173.7670  143.6500 C   0  0  2  0  0  3  0  0  0  0  0  0
  192.6920  173.9100  142.4750 C   0  0  1  0  0  3  0  0  0  0  0  0
  191.1910  173.5970  142.3590 C   0  0  1  0  0  3  0  0  0  0  0  0
  193.1270  174.7610  141.2810 C   0  0  2  0  0  3  0  0  0  0  0  0
  196.9130  175.0320  143.8530 C   0  0  0  0  0  2  0  0  0  0  0  0
  193.0640  174.6040  143.8020 C   0  0  2  0  0  3  0  0  0  0  0  0
  196.1640  176.4370  142.2600 C   0  0  0  0  0  2  0  0  0  0  0  0
  194.7120  175.9330  142.3390 C   0  0  1  0  0  3  0  0  0  0  0  0
  192.6920  174.1920  139.9220 C   0  0  0  0  0  2  0  0  0  0  0  0
  190.8210  172.4630  141.3740 C   0  0  1  0  0  3  0  0  0  0  0  0
  194.5110  174.9700  141.3320 O   0  0  0  0  0  0  0  0  0  0  0  0
  192.0540  171.7970  140.7420 C   0  0  0  0  0  2  0  0  0  0  0  0
  190.0390  171.4860  141.9910 O   0  0  0  0  0  1  0  0  0  0  0  0
  191.9920  175.4790  144.2750 N   0  0  0  0  0  0  0  0  0  0  0  0
  192.5340  172.3160  138.4530 O   0  0  0  0  0  1  0  0  0  0  0  0
  190.7430  175.1080  144.2540 C   0  0  0  0  0  0  0  0  0  0  0  0
  194.4060  175.3460  143.7420 C   0  0  2  0  0  3  0  0  0  0  0  0
  192.8600  172.6740  139.7610 C   0  0  1  0  0  3  0  0  0  0  0  0
  196.8080  176.3930  143.5120 O   0  0  0  0  0  0  0  0  0  0  0  0
  195.5450  174.4590  144.2500 C   0  0  0  0  0  2  0  0  0  0  0  0
  188.1920  175.7440  146.7920 C   0  0  0  0  0  2  0  0  0  0  0  0
  187.0820  176.7660  146.5580 C   0  0  0  0  0  2  0  0  0  0  0  0
  187.8170  177.6180  144.2910 C   0  0  0  0  0  2  0  0  0  0  0  0
  189.6970  176.0210  144.7670 C   0  0  0  0  0  0  0  0  0  0  0  0
  186.7240  176.8980  145.0780 C   0  0  2  0  0  3  0  0  0  0  0  0
  188.9070  176.6700  143.8990 C   0  0  0  0  0  3  0  0  0  0  0  0
  189.5570  176.1890  146.2590 C   0  0  1  0  0  3  0  0  0  0  0  0
  189.8940  177.5410  146.6810 N   0  0  0  0  0  1  0  0  0  0  0  0
  184.9070  178.0500  146.1670 C   0  0  0  0  0  1  0  0  0  0  0  0
  185.4200  177.5410  144.8970 N   0  0  0  0  0  2  0  0  0  0  0  0
  190.6650  172.6390  144.6380 C   0  0  0  0  0  2  0  0  0  0  0  0
  189.4060  172.2490  145.3890 C   0  0  0  0  0  1  0  0  0  0  0  0
  1 16  1  0  0  0  0
  1 31  1  1  0  0  0
  2  6  1  0  0  0  0
  3  2  1  0  0  0  0
  3  1  1  0  0  0  0
  4 11  1  0  0  0  0
  4  2  1  0  0  0  0
  5 20  1  0  0  0  0
  6 14  1  0  0  0  0
  7  8  1  0  0  0  0
  7 19  1  0  0  0  0
  8 17  1  0  0  0  0
  9  4  1  0  0  0  0
 10 13  1  0  0  0  0
 10  3  1  0  0  0  0
 11  8  1  0  0  0  0
 12 10  1  0  0  0  0
 15 18  1  0  0  0  0
 16 14  2  0  0  0  0
 16 24  1  0  0  0  0
 17  6  1  0  0  0  0
 17 20  1  0  0  0  0
 18  9  1  0  0  0  0
 18 12  1  0  0  0  0
 19  5  1  0  0  0  0
 22 21  1  0  0  0  0
 23 25  1  0  0  0  0
 24 27  1  0  0  0  0
 25 22  1  0  0  0  0
 26 23  1  0  0  0  0
 26 24  2  0  0  0  0
 27 28  1  0  0  0  0
 27 21  1  0  0  0  0
 30 25  1  0  0  0  0
 30 29  1  0  0  0  0
 31 32  1  0  0  0  0
M  END
>  <MODEL>
7

>  <REMARK>
 VINA RESULT:      -6.9      2.226      4.771
  Name = 
  3 active torsions:
  status: ('A' for Active; 'I' for Inactive)
    1  A    between atoms: C_1  and  C_4
    2  A    between atoms: C_16  and  C_27
    3  A    between atoms: C_19  and  N_26
                            x       y       z     vdW  Elec       q    Type
                         _______ _______ _______ _____ _____    ______ ____

>  <TORSDO>
F 3

$$$$
=
 OpenBabel11052419053D

 32 36  0  0  1  0  0  0  0  0999 V2000
  191.9040  175.1620  144.6980 C   0  0  2  0  0  3  0  0  0  0  0  0
  192.0170  173.2190  142.9720 C   0  0  1  0  0  3  0  0  0  0  0  0
  192.2050  173.6810  144.4270 C   0  0  1  0  0  3  0  0  0  0  0  0
  191.2650  171.8880  142.9540 C   0  0  2  0  0  3  0  0  0  0  0  0
  191.1960  172.8820  138.4790 C   0  0  0  0  0  2  0  0  0  0  0  0
  191.2950  174.2640  142.0960 C   0  0  2  0  0  3  0  0  0  0  0  0
  189.8110  171.5670  139.6720 C   0  0  0  0  0  2  0  0  0  0  0  0
  190.1840  172.2060  141.0210 C   0  0  1  0  0  3  0  0  0  0  0  0
  191.8590  170.8270  143.8930 C   0  0  0  0  0  2  0  0  0  0  0  0
  193.3490  172.9860  145.2030 C   0  0  1  0  0  3  0  0  0  0  0  0
  191.1730  171.4180  141.6390 O   0  0  0  0  0  0  0  0  0  0  0  0
  194.1480  172.0020  144.3330 C   0  0  0  0  0  2  0  0  0  0  0  0
  194.2250  173.9170  145.7630 O   0  0  0  0  0  1  0  0  0  0  0  0
  190.3090  175.0250  142.8620 N   0  0  0  0  0  0  0  0  0  0  0  0
  193.7830  169.6630  144.6970 O   0  0  0  0  0  1  0  0  0  0  0  0
  190.5720  175.4870  144.0520 C   0  0  0  0  0  0  0  0  0  0  0  0
  190.6740  173.6650  140.8270 C   0  0  2  0  0  3  0  0  0  0  0  0
  193.3920  170.7320  143.8910 C   0  0  1  0  0  3  0  0  0  0  0  0
  189.8490  172.4990  138.6170 O   0  0  0  0  0  0  0  0  0  0  0  0
  191.6300  173.7910  139.6380 C   0  0  0  0  0  2  0  0  0  0  0  0
  188.2630  175.6650  146.8780 C   0  0  0  0  0  2  0  0  0  0  0  0
  187.0980  176.6530  146.8870 C   0  0  0  0  0  2  0  0  0  0  0  0
  187.5730  177.8230  144.6940 C   0  0  0  0  0  2  0  0  0  0  0  0
  189.5490  176.2740  144.7770 C   0  0  0  0  0  0  0  0  0  0  0  0
  186.5910  176.9550  145.4780 C   0  0  2  0  0  3  0  0  0  0  0  0
  188.6530  176.9890  144.0800 C   0  0  0  0  0  3  0  0  0  0  0  0
  189.5510  176.2420  146.2840 C   0  0  1  0  0  3  0  0  0  0  0  0
  189.8780  177.5440  146.8490 N   0  0  0  0  0  1  0  0  0  0  0  0
  184.9790  178.1620  146.8040 C   0  0  0  0  0  1  0  0  0  0  0  0
  185.2520  177.5500  145.5060 N   0  0  0  0  0  2  0  0  0  0  0  0
  193.0040  176.0610  144.1370 C   0  0  0  0  0  2  0  0  0  0  0  0
  193.3450  177.1650  145.1190 C   0  0  0  0  0  1  0  0  0  0  0  0
  1 31  1  6  0  0  0
  2  3  1  0  0  0  0
  3  1  1  0  0  0  0
  3 10  1  0  0  0  0
  4  2  1  0  0  0  0
  4  9  1  0  0  0  0
  5 19  1  0  0  0  0
  5 20  1  0  0  0  0
  6 14  1  0  0  0  0
  6  2  1  0  0  0  0
  7  8  1  0  0  0  0
  8 11  1  0  0  0  0
 10 13  1  0  0  0  0
 11  4  1  0  0  0  0
 12 10  1  0  0  0  0
 14 16  2  0  0  0  0
 16  1  1  0  0  0  0
 16 24  1  0  0  0  0
 17  8  1  0  0  0  0
 17  6  1  0  0  0  0
 18  9  1  0  0  0  0
 18 12  1  0  0  0  0
 18 15  1  0  0  0  0
 19  7  1  0  0  0  0
 20 17  1  0  0  0  0
 21 22  1  0  0  0  0
 23 25  1  0  0  0  0
 24 27  1  0  0  0  0
 25 30  1  0  0  0  0
 25 22  1  0  0  0  0
 26 23  1  0  0  0  0
 26 24  2  0  0  0  0
 27 28  1  0  0  0  0
 27 21  1  0  0  0  0
 30 29  1  0  0  0  0
 31 32  1  0  0  0  0
M  END
>  <MODEL>
8

>  <REMARK>
 VINA RESULT:      -6.8      1.471      2.122
  Name = 
  3 active torsions:
  status: ('A' for Active; 'I' for Inactive)
    1  A    between atoms: C_1  and  C_4
    2  A    between atoms: C_16  and  C_27
    3  A    between atoms: C_19  and  N_26
                            x       y       z     vdW  Elec       q    Type
                         _______ _______ _______ _____ _____    ______ ____

>  <TORSDO>
F 3

$$$$
=
 OpenBabel11052419053D

 32 36  0  0  1  0  0  0  0  0999 V2000
  190.3810  173.6420  141.9910 C   0  0  2  0  0  3  0  0  0  0  0  0
  192.8510  173.9010  141.2150 C   0  0  1  0  0  3  0  0  0  0  0  0
  191.4210  173.4460  140.8770 C   0  0  1  0  0  3  0  0  0  0  0  0
  193.4230  174.6930  140.0390 C   0  0  2  0  0  3  0  0  0  0  0  0
  196.6680  175.4990  143.1760 C   0  0  0  0  0  2  0  0  0  0  0  0
  192.9310  174.7250  142.5170 C   0  0  2  0  0  3  0  0  0  0  0  0
  196.1080  176.7030  141.3580 C   0  0  0  0  0  2  0  0  0  0  0  0
  194.7060  176.0790  141.2370 C   0  0  1  0  0  3  0  0  0  0  0  0
  193.2780  173.9840  138.6840 C   0  0  0  0  0  2  0  0  0  0  0  0
  191.3150  172.2120  139.9510 C   0  0  1  0  0  3  0  0  0  0  0  0
  194.7570  175.0280  140.3030 O   0  0  0  0  0  0  0  0  0  0  0  0
  192.6860  171.6120  139.5990 C   0  0  0  0  0  2  0  0  0  0  0  0
  190.5120  171.2190  140.5140 O   0  0  0  0  0  1  0  0  0  0  0  0
  191.7310  175.5350  142.7200 N   0  0  0  0  0  0  0  0  0  0  0  0
  193.5200  171.9940  137.3860 O   0  0  0  0  0  1  0  0  0  0  0  0
  190.5350  175.0530  142.5230 C   0  0  0  0  0  0  0  0  0  0  0  0
  194.2030  175.5770  142.6160 C   0  0  2  0  0  3  0  0  0  0  0  0
  193.5840  172.4790  138.6920 C   0  0  1  0  0  3  0  0  0  0  0  0
  196.5230  176.8150  142.6990 O   0  0  0  0  0  0  0  0  0  0  0  0
  195.2990  174.8380  143.3880 C   0  0  0  0  0  2  0  0  0  0  0  0
  189.0580  177.7880  144.4440 C   0  0  0  0  0  2  0  0  0  0  0  0
  187.5450  177.9830  144.5080 C   0  0  0  0  0  2  0  0  0  0  0  0
  186.8540  176.1120  142.9490 C   0  0  0  0  0  2  0  0  0  0  0  0
  189.3510  175.9050  142.7670 C   0  0  0  0  0  0  0  0  0  0  0  0
  186.7900  176.6610  144.3740 C   0  0  2  0  0  3  0  0  0  0  0  0
  188.1260  175.3590  142.7220 C   0  0  0  0  0  3  0  0  0  0  0  0
  189.5640  177.3690  143.0600 C   0  0  1  0  0  3  0  0  0  0  0  0
  189.0270  178.2130  142.0030 N   0  0  0  0  0  1  0  0  0  0  0  0
  185.3490  176.8130  146.3000 C   0  0  0  0  0  1  0  0  0  0  0  0
  185.4070  176.7830  144.8410 N   0  0  0  0  0  2  0  0  0  0  0  0
  190.5760  172.6230  143.1130 C   0  0  0  0  0  2  0  0  0  0  0  0
  189.2430  172.0450  143.5470 C   0  0  0  0  0  1  0  0  0  0  0  0
  1 16  1  0  0  0  0
  1 31  1  1  0  0  0
  2  6  1  0  0  0  0
  3  2  1  0  0  0  0
  3  1  1  0  0  0  0
  4 11  1  0  0  0  0
  4  2  1  0  0  0  0
  5 20  1  0  0  0  0
  6 17  1  0  0  0  0
  6 14  1  0  0  0  0
  7 19  1  0  0  0  0
  8  7  1  0  0  0  0
  8 17  1  0  0  0  0
  9 18  1  0  0  0  0
  9  4  1  0  0  0  0
 10 13  1  0  0  0  0
 10  3  1  0  0  0  0
 11  8  1  0  0  0  0
 12 10  1  0  0  0  0
 15 18  1  0  0  0  0
 16 14  2  0  0  0  0
 16 24  1  0  0  0  0
 17 20  1  0  0  0  0
 18 12  1  0  0  0  0
 19  5  1  0  0  0  0
 21 22  1  0  0  0  0
 23 25  1  0  0  0  0
 24 27  1  0  0  0  0
 25 22  1  0  0  0  0
 25 30  1  0  0  0  0
 26 24  2  0  0  0  0
 26 23  1  0  0  0  0
 27 21  1  0  0  0  0
 28 27  1  0  0  0  0
 30 29  1  0  0  0  0
 31 32  1  0  0  0  0
M  END
>  <MODEL>
9

>  <REMARK>
 VINA RESULT:      -6.7      2.388      4.881
  Name = 
  3 active torsions:
  status: ('A' for Active; 'I' for Inactive)
    1  A    between atoms: C_1  and  C_4
    2  A    between atoms: C_16  and  C_27
    3  A    between atoms: C_19  and  N_26
                            x       y       z     vdW  Elec       q    Type
                         _______ _______ _______ _____ _____    ______ ____

>  <TORSDO>
F 3

$$$$
