=
 OpenBabel11052418363D

 34 39  0  0  1  0  0  0  0  0999 V2000
  189.4790  172.3560  142.0000 C   0  0  0  0  0  0  0  0  0  0  0  0
  191.1270  172.4140  143.7710 C   0  0  0  0  0  0  0  0  0  0  0  0
  189.3180  174.1740  143.6390 C   0  0  0  0  0  0  0  0  0  0  0  0
  188.8700  175.9020  145.2710 C   0  0  0  0  0  0  0  0  0  0  0  0
  191.0450  170.5840  142.2050 C   0  0  0  0  0  3  0  0  0  0  0  0
  191.6380  171.2070  143.2960 C   0  0  0  0  0  3  0  0  0  0  0  0
  190.0990  174.1460  146.0540 N   0  0  0  0  0  2  0  0  0  0  0  0
  189.9710  172.9860  143.1770 C   0  0  0  0  0  0  0  0  0  0  0  0
  189.1030  176.2460  146.6940 C   0  0  0  0  0  2  0  0  0  0  0  0
  190.0020  171.1760  141.5740 N   0  0  0  0  0  0  0  0  0  0  0  0
  188.3600  174.8180  142.7910 C   0  0  0  0  0  0  0  0  0  0  0  0
  188.4820  172.9540  141.2390 C   0  0  0  0  0  3  0  0  0  0  0  0
  191.8720  173.0650  144.6940 F   0  0  0  0  0  0  0  0  0  0  0  0
  188.0340  176.5490  144.4320 N   0  0  0  0  0  0  0  0  0  0  0  0
  187.7670  176.0550  143.1890 C   0  0  0  0  0  0  0  0  0  0  0  0
  189.9210  175.0400  147.1970 C   0  0  2  0  0  3  0  0  0  0  0  0
  189.4900  174.7390  144.9220 C   0  0  0  0  0  0  0  0  0  0  0  0
  187.9500  174.1780  141.6160 C   0  0  0  0  0  3  0  0  0  0  0  0
  184.6800  177.8700  141.9130 C   0  0  0  0  0  0  0  0  0  0  0  0
  185.1070  178.2040  140.6280 C   0  0  0  0  0  3  0  0  0  0  0  0
  186.8310  176.8290  142.3300 C   0  0  0  0  0  0  0  0  0  0  0  0
  186.3510  177.8510  140.2120 N   0  0  0  0  0  0  0  0  0  0  0  0
  185.5430  177.1760  142.7610 C   0  0  0  0  0  3  0  0  0  0  0  0
  187.2080  177.1740  141.0240 C   0  0  0  0  0  3  0  0  0  0  0  0
  183.4080  178.2220  142.3430 O   0  0  0  0  0  1  0  0  0  0  0  0
  191.2710  175.4730  147.7670 C   0  0  0  0  0  2  0  0  0  0  0  0
  191.8110  176.7290  147.0900 C   0  0  0  0  0  2  0  0  0  0  0  0
  191.7350  177.5640  144.2890 C   0  0  0  0  0  1  0  0  0  0  0  0
  192.9500  176.3880  146.1780 C   0  0  0  0  0  0  0  0  0  0  0  0
  193.0160  176.8910  144.7500 C   0  0  1  0  0  3  0  0  0  0  0  0
  194.4610  174.7900  144.3120 C   0  0  0  0  0  2  0  0  0  0  0  0
  195.0300  175.1890  145.6780 C   0  0  0  0  0  2  0  0  0  0  0  0
  193.9140  175.5630  146.6080 C   0  0  0  0  0  3  0  0  0  0  0  0
  193.3920  175.7640  143.7750 C   0  0  0  0  0  2  0  0  0  0  0  0
  1  8  1  0  0  0  0
  2 13  1  0  0  0  0
  3 17  1  0  0  0  0
  4  9  1  0  0  0  0
  5  6  2  0  0  0  0
  6  2  1  0  0  0  0
  7 16  1  0  0  0  0
  8  3  1  0  0  0  0
  8  2  2  0  0  0  0
  9 16  1  0  0  0  0
 10  1  2  0  0  0  0
 10  5  1  0  0  0  0
 11 15  1  0  0  0  0
 11  3  2  0  0  0  0
 12 18  2  0  0  0  0
 12  1  1  0  0  0  0
 14  4  1  0  0  0  0
 15 14  2  0  0  0  0
 16 26  1  6  0  0  0
 17  4  2  0  0  0  0
 17  7  1  0  0  0  0
 18 11  1  0  0  0  0
 19 25  1  0  0  0  0
 19 23  1  0  0  0  0
 20 19  2  0  0  0  0
 21 23  2  0  0  0  0
 21 15  1  0  0  0  0
 22 20  1  0  0  0  0
 22 24  2  0  0  0  0
 24 21  1  0  0  0  0
 27 26  1  0  0  0  0
 29 33  2  0  0  0  0
 29 27  1  0  0  0  0
 30 28  1  6  0  0  0
 30 29  1  0  0  0  0
 31 32  1  0  0  0  0
 32 33  1  0  0  0  0
 34 31  1  0  0  0  0
 34 30  1  0  0  0  0
M  END
>  <MODEL>
1

>  <REMARK>
 VINA RESULT:      -8.6      0.000      0.000
  Name = 
  4 active torsions:
  status: ('A' for Active; 'I' for Inactive)
    1  A    between atoms: C_3  and  C_13
    2  A    between atoms: C_3  and  C_17
    3  A    between atoms: C_12  and  C_28
    4  A    between atoms: C_17  and  C_29
                            x       y       z     vdW  Elec       q    Type
                         _______ _______ _______ _____ _____    ______ ____

>  <TORSDO>
F 4

$$$$
=
 OpenBabel11052418363D

 34 39  0  0  1  0  0  0  0  0999 V2000
  189.2370  174.5180  141.7370 C   0  0  0  0  0  0  0  0  0  0  0  0
  191.6040  174.6790  142.2100 C   0  0  0  0  0  0  0  0  0  0  0  0
  189.9020  175.6040  143.8340 C   0  0  0  0  0  0  0  0  0  0  0  0
  190.3540  176.5050  146.0330 C   0  0  0  0  0  0  0  0  0  0  0  0
  190.7970  173.4720  140.2870 C   0  0  0  0  0  3  0  0  0  0  0  0
  191.8560  173.9340  141.0590 C   0  0  0  0  0  3  0  0  0  0  0  0
  192.0100  175.1850  145.1850 N   0  0  0  0  0  2  0  0  0  0  0  0
  190.2690  174.9250  142.6270 C   0  0  0  0  0  0  0  0  0  0  0  0
  191.3750  176.4930  147.1070 C   0  0  0  0  0  2  0  0  0  0  0  0
  189.5240  173.7890  140.6270 N   0  0  0  0  0  0  0  0  0  0  0  0
  188.5540  176.0590  143.9950 C   0  0  0  0  0  0  0  0  0  0  0  0
  187.9180  174.8940  141.9620 C   0  0  0  0  0  3  0  0  0  0  0  0
  192.6720  175.2690  142.7940 F   0  0  0  0  0  0  0  0  0  0  0  0
  189.1040  177.0050  146.1400 N   0  0  0  0  0  0  0  0  0  0  0  0
  188.1880  176.8210  145.1460 C   0  0  0  0  0  0  0  0  0  0  0  0
  192.4700  175.5860  146.5130 C   0  0  2  0  0  3  0  0  0  0  0  0
  190.7620  175.8040  144.9360 C   0  0  0  0  0  0  0  0  0  0  0  0
  187.5870  175.6730  143.0610 C   0  0  0  0  0  3  0  0  0  0  0  0
  185.1500  179.0960  144.9160 C   0  0  0  0  0  0  0  0  0  0  0  0
  184.3120  178.4780  145.8440 C   0  0  0  0  0  3  0  0  0  0  0  0
  186.8330  177.4020  145.3470 C   0  0  0  0  0  0  0  0  0  0  0  0
  184.7310  177.3660  146.5040 N   0  0  0  0  0  0  0  0  0  0  0  0
  186.4150  178.5580  144.6740 C   0  0  0  0  0  3  0  0  0  0  0  0
  185.9600  176.8270  146.2810 C   0  0  0  0  0  3  0  0  0  0  0  0
  184.7320  180.2350  144.2420 O   0  0  0  0  0  1  0  0  0  0  0  0
  193.8150  176.3070  146.4300 C   0  0  0  0  0  2  0  0  0  0  0  0
  194.9910  175.3370  146.3890 C   0  0  0  0  0  2  0  0  0  0  0  0
  196.8930  173.2340  145.6720 C   0  0  0  0  0  1  0  0  0  0  0  0
  195.6270  175.3370  145.0330 C   0  0  0  0  0  0  0  0  0  0  0  0
  196.5310  174.2120  144.5670 C   0  0  1  0  0  3  0  0  0  0  0  0
  197.5940  176.0010  143.0300 C   0  0  0  0  0  2  0  0  0  0  0  0
  196.1220  176.4040  142.8810 C   0  0  0  0  0  2  0  0  0  0  0  0
  195.4490  176.3870  144.2210 C   0  0  0  0  0  3  0  0  0  0  0  0
  197.8110  174.7550  143.9130 C   0  0  0  0  0  2  0  0  0  0  0  0
  1 12  2  0  0  0  0
  1  8  1  0  0  0  0
  2  8  1  0  0  0  0
  2 13  1  0  0  0  0
  3 11  1  0  0  0  0
  3 17  1  0  0  0  0
  4 14  1  0  0  0  0
  4  9  1  0  0  0  0
  5 10  2  0  0  0  0
  5  6  1  0  0  0  0
  6  2  2  0  0  0  0
  7 16  1  0  0  0  0
  8  3  2  0  0  0  0
 10  1  1  0  0  0  0
 11 15  1  0  0  0  0
 12 18  1  0  0  0  0
 15 21  1  0  0  0  0
 15 14  2  0  0  0  0
 16 26  1  6  0  0  0
 16  9  1  0  0  0  0
 17  7  1  0  0  0  0
 17  4  2  0  0  0  0
 18 11  2  0  0  0  0
 19 20  1  0  0  0  0
 20 22  2  0  0  0  0
 21 24  2  0  0  0  0
 23 19  2  0  0  0  0
 23 21  1  0  0  0  0
 24 22  1  0  0  0  0
 25 19  1  0  0  0  0
 27 26  1  0  0  0  0
 29 27  1  0  0  0  0
 30 29  1  0  0  0  0
 30 28  1  1  0  0  0
 31 34  1  0  0  0  0
 32 31  1  0  0  0  0
 32 33  1  0  0  0  0
 33 29  2  0  0  0  0
 34 30  1  0  0  0  0
M  END
>  <MODEL>
2

>  <REMARK>
 VINA RESULT:      -8.6      2.327      3.396
  Name = 
  4 active torsions:
  status: ('A' for Active; 'I' for Inactive)
    1  A    between atoms: C_3  and  C_13
    2  A    between atoms: C_3  and  C_17
    3  A    between atoms: C_12  and  C_28
    4  A    between atoms: C_17  and  C_29
                            x       y       z     vdW  Elec       q    Type
                         _______ _______ _______ _____ _____    ______ ____

>  <TORSDO>
F 4

$$$$
=
 OpenBabel11052418363D

 34 39  0  0  1  0  0  0  0  0999 V2000
  190.8180  173.8630  141.5020 C   0  0  0  0  0  0  0  0  0  0  0  0
  188.8450  174.8890  142.4560 C   0  0  0  0  0  0  0  0  0  0  0  0
  190.9890  174.7440  143.7850 C   0  0  0  0  0  0  0  0  0  0  0  0
  191.4110  175.7410  145.9480 C   0  0  0  0  0  0  0  0  0  0  0  0
  188.8810  174.1530  140.1610 C   0  0  0  0  0  3  0  0  0  0  0  0
  188.1990  174.7190  141.2320 C   0  0  0  0  0  3  0  0  0  0  0  0
  189.6530  176.6440  144.8090 N   0  0  0  0  0  2  0  0  0  0  0  0
  190.2120  174.5330  142.6010 C   0  0  0  0  0  0  0  0  0  0  0  0
  190.9210  176.8090  146.8510 C   0  0  0  0  0  2  0  0  0  0  0  0
  190.1560  173.7230  140.3240 N   0  0  0  0  0  0  0  0  0  0  0  0
  192.2490  174.0770  143.9190 C   0  0  0  0  0  0  0  0  0  0  0  0
  192.0830  173.3010  141.6250 C   0  0  0  0  0  3  0  0  0  0  0  0
  188.0690  175.2470  143.5040 F   0  0  0  0  0  0  0  0  0  0  0  0
  192.5560  175.0420  146.1040 N   0  0  0  0  0  0  0  0  0  0  0  0
  192.9980  174.1950  145.1300 C   0  0  0  0  0  0  0  0  0  0  0  0
  189.7480  177.4070  146.0530 C   0  0  2  0  0  3  0  0  0  0  0  0
  190.6430  175.6320  144.8270 C   0  0  0  0  0  0  0  0  0  0  0  0
  192.7760  173.3850  142.8230 C   0  0  0  0  0  3  0  0  0  0  0  0
  196.6920  173.3810  145.5170 C   0  0  0  0  0  0  0  0  0  0  0  0
  196.6130  172.0130  145.7790 C   0  0  0  0  0  3  0  0  0  0  0  0
  194.2710  173.4670  145.3810 C   0  0  0  0  0  0  0  0  0  0  0  0
  195.4030  171.3990  145.8300 N   0  0  0  0  0  0  0  0  0  0  0  0
  195.5170  174.1050  145.3120 C   0  0  0  0  0  3  0  0  0  0  0  0
  194.2460  172.0870  145.6340 C   0  0  0  0  0  3  0  0  0  0  0  0
  197.9250  174.0140  145.4580 O   0  0  0  0  0  1  0  0  0  0  0  0
  188.4380  177.3360  146.8360 C   0  0  0  0  0  2  0  0  0  0  0  0
  187.2830  176.8110  145.9890 C   0  0  0  0  0  2  0  0  0  0  0  0
  185.2510  178.0530  147.6880 C   0  0  0  0  0  1  0  0  0  0  0  0
  186.4590  177.9460  145.4600 C   0  0  0  0  0  0  0  0  0  0  0  0
  185.4730  178.7000  146.3310 C   0  0  1  0  0  3  0  0  0  0  0  0
  184.2420  179.2060  144.1120 C   0  0  0  0  0  2  0  0  0  0  0  0
  185.6860  179.3810  143.6280 C   0  0  0  0  0  2  0  0  0  0  0  0
  186.5430  178.2730  144.1640 C   0  0  0  0  0  3  0  0  0  0  0  0
  184.1250  178.8890  145.6180 C   0  0  0  0  0  2  0  0  0  0  0  0
  1 12  2  0  0  0  0
  1  8  1  0  0  0  0
  2  8  1  0  0  0  0
  2 13  1  0  0  0  0
  3 11  1  0  0  0  0
  3 17  1  0  0  0  0
  4 14  1  0  0  0  0
  4  9  1  0  0  0  0
  5 10  2  0  0  0  0
  5  6  1  0  0  0  0
  6  2  2  0  0  0  0
  7 17  1  0  0  0  0
  7 16  1  0  0  0  0
  8  3  2  0  0  0  0
 10  1  1  0  0  0  0
 11 15  1  0  0  0  0
 12 18  1  0  0  0  0
 15 21  1  0  0  0  0
 15 14  2  0  0  0  0
 16 26  1  1  0  0  0
 16  9  1  0  0  0  0
 17  4  2  0  0  0  0
 18 11  2  0  0  0  0
 19 20  1  0  0  0  0
 20 22  2  0  0  0  0
 21 24  2  0  0  0  0
 23 21  1  0  0  0  0
 23 19  2  0  0  0  0
 24 22  1  0  0  0  0
 25 19  1  0  0  0  0
 27 26  1  0  0  0  0
 29 27  1  0  0  0  0
 29 30  1  0  0  0  0
 30 28  1  1  0  0  0
 31 34  1  0  0  0  0
 32 31  1  0  0  0  0
 32 33  1  0  0  0  0
 33 29  2  0  0  0  0
 34 30  1  0  0  0  0
M  END
>  <MODEL>
3

>  <REMARK>
 VINA RESULT:      -8.2      3.683      7.469
  Name = 
  4 active torsions:
  status: ('A' for Active; 'I' for Inactive)
    1  A    between atoms: C_3  and  C_13
    2  A    between atoms: C_3  and  C_17
    3  A    between atoms: C_12  and  C_28
    4  A    between atoms: C_17  and  C_29
                            x       y       z     vdW  Elec       q    Type
                         _______ _______ _______ _____ _____    ______ ____

>  <TORSDO>
F 4

$$$$
=
 OpenBabel11052418363D

 34 39  0  0  1  0  0  0  0  0999 V2000
  184.9340  178.0990  144.3880 C   0  0  0  0  0  0  0  0  0  0  0  0
  186.1740  177.5000  146.3770 C   0  0  0  0  0  0  0  0  0  0  0  0
  187.1410  177.0730  144.0810 C   0  0  0  0  0  0  0  0  0  0  0  0
  189.3710  176.2780  143.5850 C   0  0  0  0  0  0  0  0  0  0  0  0
  184.0820  178.6870  146.5230 C   0  0  0  0  0  3  0  0  0  0  0  0
  185.1680  178.0820  147.1460 C   0  0  0  0  0  3  0  0  0  0  0  0
  189.1170  177.1620  145.6730 N   0  0  0  0  0  2  0  0  0  0  0  0
  186.1220  177.5640  144.9600 C   0  0  0  0  0  0  0  0  0  0  0  0
  190.7250  176.1690  144.1780 C   0  0  0  0  0  2  0  0  0  0  0  0
  183.9790  178.6640  145.1720 N   0  0  0  0  0  0  0  0  0  0  0  0
  186.8450  176.9160  142.6890 C   0  0  0  0  0  0  0  0  0  0  0  0
  184.7080  178.0180  143.0190 C   0  0  0  0  0  3  0  0  0  0  0  0
  187.0870  176.7530  147.0410 F   0  0  0  0  0  0  0  0  0  0  0  0
  189.0580  176.0520  142.2910 N   0  0  0  0  0  0  0  0  0  0  0  0
  187.8130  176.3390  141.8110 C   0  0  0  0  0  0  0  0  0  0  0  0
  190.5260  176.7840  145.5760 C   0  0  2  0  0  3  0  0  0  0  0  0
  188.4700  176.7910  144.4700 C   0  0  0  0  0  0  0  0  0  0  0  0
  185.6380  177.4130  142.1870 C   0  0  0  0  0  3  0  0  0  0  0  0
  187.8160  174.7090  138.3760 C   0  0  0  0  0  0  0  0  0  0  0  0
  187.0960  175.6610  137.6540 C   0  0  0  0  0  3  0  0  0  0  0  0
  187.5540  176.0620  140.3730 C   0  0  0  0  0  0  0  0  0  0  0  0
  186.6320  176.7770  138.2750 N   0  0  0  0  0  0  0  0  0  0  0  0
  188.0490  174.9160  139.7360 C   0  0  0  0  0  3  0  0  0  0  0  0
  186.8480  176.9970  139.6010 C   0  0  0  0  0  3  0  0  0  0  0  0
  188.2990  173.5700  137.7480 O   0  0  0  0  0  1  0  0  0  0  0  0
  190.9030  175.8000  146.6840 C   0  0  0  0  0  2  0  0  0  0  0  0
  192.2910  176.0740  147.2540 C   0  0  0  0  0  2  0  0  0  0  0  0
  194.5640  177.5410  146.1420 C   0  0  0  0  0  1  0  0  0  0  0  0
  193.3370  175.3450  146.4670 C   0  0  0  0  0  0  0  0  0  0  0  0
  194.5920  176.0320  145.9650 C   0  0  1  0  0  3  0  0  0  0  0  0
  194.5800  174.2170  144.1210 C   0  0  0  0  0  2  0  0  0  0  0  0
  194.1680  173.3470  145.3140 C   0  0  0  0  0  2  0  0  0  0  0  0
  193.1400  174.0610  146.1380 C   0  0  0  0  0  3  0  0  0  0  0  0
  194.8710  175.6860  144.4940 C   0  0  0  0  0  2  0  0  0  0  0  0
  1  8  1  0  0  0  0
  1 10  2  0  0  0  0
  2 13  1  0  0  0  0
  2  6  1  0  0  0  0
  3 17  1  0  0  0  0
  3  8  1  0  0  0  0
  4  9  1  0  0  0  0
  4 17  2  0  0  0  0
  5  6  2  0  0  0  0
  8  2  2  0  0  0  0
  9 16  1  0  0  0  0
 10  5  1  0  0  0  0
 11  3  2  0  0  0  0
 12  1  1  0  0  0  0
 14  4  1  0  0  0  0
 15 14  2  0  0  0  0
 15 11  1  0  0  0  0
 16  7  1  0  0  0  0
 16 26  1  1  0  0  0
 17  7  1  0  0  0  0
 18 11  1  0  0  0  0
 18 12  2  0  0  0  0
 19 23  1  0  0  0  0
 20 22  1  0  0  0  0
 20 19  2  0  0  0  0
 21 15  1  0  0  0  0
 22 24  2  0  0  0  0
 23 21  2  0  0  0  0
 24 21  1  0  0  0  0
 25 19  1  0  0  0  0
 26 27  1  0  0  0  0
 29 27  1  0  0  0  0
 30 28  1  6  0  0  0
 30 29  1  0  0  0  0
 31 34  1  0  0  0  0
 31 32  1  0  0  0  0
 32 33  1  0  0  0  0
 33 29  2  0  0  0  0
 34 30  1  0  0  0  0
M  END
>  <MODEL>
4

>  <REMARK>
 VINA RESULT:      -8.0      2.896      4.975
  Name = 
  4 active torsions:
  status: ('A' for Active; 'I' for Inactive)
    1  A    between atoms: C_3  and  C_13
    2  A    between atoms: C_3  and  C_17
    3  A    between atoms: C_12  and  C_28
    4  A    between atoms: C_17  and  C_29
                            x       y       z     vdW  Elec       q    Type
                         _______ _______ _______ _____ _____    ______ ____

>  <TORSDO>
F 4

$$$$
=
 OpenBabel11052418363D

 34 39  0  0  1  0  0  0  0  0999 V2000
  190.9330  173.3940  140.6330 C   0  0  0  0  0  0  0  0  0  0  0  0
  188.9720  173.9490  141.9360 C   0  0  0  0  0  0  0  0  0  0  0  0
  191.1920  175.0550  142.4190 C   0  0  0  0  0  0  0  0  0  0  0  0
  191.5910  176.8580  143.9800 C   0  0  0  0  0  0  0  0  0  0  0  0
  188.8270  172.4810  140.0300 C   0  0  0  0  0  3  0  0  0  0  0  0
  188.2180  173.1280  141.0990 C   0  0  0  0  0  3  0  0  0  0  0  0
  189.4140  176.6100  143.3470 N   0  0  0  0  0  2  0  0  0  0  0  0
  190.3500  174.1680  141.6740 C   0  0  0  0  0  0  0  0  0  0  0  0
  190.8910  177.9440  144.7070 C   0  0  0  0  0  2  0  0  0  0  0  0
  190.1620  172.6090  139.8350 N   0  0  0  0  0  0  0  0  0  0  0  0
  192.6130  174.9640  142.2610 C   0  0  0  0  0  0  0  0  0  0  0  0
  192.3090  173.3910  140.4370 C   0  0  0  0  0  3  0  0  0  0  0  0
  188.3670  174.3770  143.0680 F   0  0  0  0  0  0  0  0  0  0  0  0
  192.9310  176.7080  143.8900 N   0  0  0  0  0  0  0  0  0  0  0  0
  193.4770  175.7710  143.0630 C   0  0  0  0  0  0  0  0  0  0  0  0
  189.4310  177.7590  144.2510 C   0  0  2  0  0  3  0  0  0  0  0  0
  190.7260  176.0860  143.2640 C   0  0  0  0  0  0  0  0  0  0  0  0
  193.1370  174.1450  141.2550 C   0  0  0  0  0  3  0  0  0  0  0  0
  197.0750  174.8710  143.8990 C   0  0  0  0  0  0  0  0  0  0  0  0
  197.7440  175.6160  142.9290 C   0  0  0  0  0  3  0  0  0  0  0  0
  194.9600  175.6750  143.0210 C   0  0  0  0  0  0  0  0  0  0  0  0
  197.0390  176.3700  142.0450 N   0  0  0  0  0  0  0  0  0  0  0  0
  195.6810  174.9070  143.9470 C   0  0  0  0  0  3  0  0  0  0  0  0
  195.6800  176.4180  142.0740 C   0  0  0  0  0  3  0  0  0  0  0  0
  197.7870  174.1030  144.8090 O   0  0  0  0  0  1  0  0  0  0  0  0
  188.4940  177.5350  145.4370 C   0  0  0  0  0  2  0  0  0  0  0  0
  187.4620  176.4440  145.1620 C   0  0  0  0  0  2  0  0  0  0  0  0
  185.9360  176.9620  142.7220 C   0  0  0  0  0  1  0  0  0  0  0  0
  186.0730  176.9980  145.2540 C   0  0  0  0  0  0  0  0  0  0  0  0
  185.1960  177.1800  144.0310 C   0  0  1  0  0  3  0  0  0  0  0  0
  184.0410  179.0400  145.4090 C   0  0  0  0  0  2  0  0  0  0  0  0
  184.2290  178.0010  146.5210 C   0  0  0  0  0  2  0  0  0  0  0  0
  185.6030  177.4070  146.4400 C   0  0  0  0  0  3  0  0  0  0  0  0
  184.5210  178.5600  144.0240 C   0  0  0  0  0  2  0  0  0  0  0  0
  1  8  1  0  0  0  0
  2 13  1  0  0  0  0
  3 17  1  0  0  0  0
  4  9  1  0  0  0  0
  5  6  1  0  0  0  0
  6  2  2  0  0  0  0
  7 16  1  0  0  0  0
  8  2  1  0  0  0  0
  8  3  2  0  0  0  0
 10  5  2  0  0  0  0
 10  1  1  0  0  0  0
 11  3  1  0  0  0  0
 11 15  1  0  0  0  0
 12  1  2  0  0  0  0
 12 18  1  0  0  0  0
 14  4  1  0  0  0  0
 15 14  2  0  0  0  0
 16  9  1  0  0  0  0
 16 26  1  1  0  0  0
 17  7  1  0  0  0  0
 17  4  2  0  0  0  0
 18 11  2  0  0  0  0
 19 23  1  0  0  0  0
 19 25  1  0  0  0  0
 20 19  2  0  0  0  0
 21 15  1  0  0  0  0
 21 23  2  0  0  0  0
 22 24  2  0  0  0  0
 22 20  1  0  0  0  0
 24 21  1  0  0  0  0
 27 29  1  0  0  0  0
 27 26  1  0  0  0  0
 29 33  2  0  0  0  0
 30 28  1  6  0  0  0
 30 29  1  0  0  0  0
 31 32  1  0  0  0  0
 33 32  1  0  0  0  0
 34 30  1  0  0  0  0
 34 31  1  0  0  0  0
M  END
>  <MODEL>
5

>  <REMARK>
 VINA RESULT:      -7.9      3.798      7.260
  Name = 
  4 active torsions:
  status: ('A' for Active; 'I' for Inactive)
    1  A    between atoms: C_3  and  C_13
    2  A    between atoms: C_3  and  C_17
    3  A    between atoms: C_12  and  C_28
    4  A    between atoms: C_17  and  C_29
                            x       y       z     vdW  Elec       q    Type
                         _______ _______ _______ _____ _____    ______ ____

>  <TORSDO>
F 4

$$$$
=
 OpenBabel11052418363D

 34 39  0  0  1  0  0  0  0  0999 V2000
  191.2590  173.2090  141.1440 C   0  0  0  0  0  0  0  0  0  0  0  0
  189.3440  174.4650  141.9230 C   0  0  0  0  0  0  0  0  0  0  0  0
  191.3850  174.1910  143.3880 C   0  0  0  0  0  0  0  0  0  0  0  0
  191.7780  175.2600  145.5220 C   0  0  0  0  0  0  0  0  0  0  0  0
  189.4380  173.6070  139.6730 C   0  0  0  0  0  3  0  0  0  0  0  0
  188.7550  174.2900  140.6720 C   0  0  0  0  0  3  0  0  0  0  0  0
  190.1820  176.2600  144.2340 N   0  0  0  0  0  2  0  0  0  0  0  0
  190.6590  173.9910  142.1690 C   0  0  0  0  0  0  0  0  0  0  0  0
  191.3430  176.4160  146.3410 C   0  0  0  0  0  2  0  0  0  0  0  0
  190.6540  173.0680  139.9350 N   0  0  0  0  0  0  0  0  0  0  0  0
  192.5650  173.4180  143.6310 C   0  0  0  0  0  0  0  0  0  0  0  0
  192.4550  172.5380  141.3710 C   0  0  0  0  0  3  0  0  0  0  0  0
  188.5470  174.9500  142.9040 F   0  0  0  0  0  0  0  0  0  0  0  0
  192.8390  174.4660  145.7810 N   0  0  0  0  0  0  0  0  0  0  0  0
  193.2520  173.5300  144.8790 C   0  0  0  0  0  0  0  0  0  0  0  0
  190.2800  177.0770  145.4430 C   0  0  2  0  0  3  0  0  0  0  0  0
  191.0670  175.1630  144.3620 C   0  0  0  0  0  0  0  0  0  0  0  0
  193.0840  172.6220  142.6040 C   0  0  0  0  0  3  0  0  0  0  0  0
  195.4360  170.6070  145.9460 C   0  0  0  0  0  0  0  0  0  0  0  0
  196.6790  171.2380  145.9970 C   0  0  0  0  0  3  0  0  0  0  0  0
  194.4320  172.7000  145.2420 C   0  0  0  0  0  0  0  0  0  0  0  0
  196.7850  172.5570  145.6890 N   0  0  0  0  0  0  0  0  0  0  0  0
  194.3110  171.3440  145.5740 C   0  0  0  0  0  3  0  0  0  0  0  0
  195.7010  173.2920  145.3230 C   0  0  0  0  0  3  0  0  0  0  0  0
  195.3180  169.2620  146.2660 O   0  0  0  0  0  1  0  0  0  0  0  0
  188.9270  177.1720  146.1470 C   0  0  0  0  0  2  0  0  0  0  0  0
  187.8810  176.2550  145.5210 C   0  0  0  0  0  2  0  0  0  0  0  0
  187.1720  177.9030  143.2110 C   0  0  0  0  0  1  0  0  0  0  0  0
  186.5470  176.9350  145.4700 C   0  0  0  0  0  0  0  0  0  0  0  0
  186.0820  177.7070  144.2510 C   0  0  1  0  0  3  0  0  0  0  0  0
  184.6290  179.0410  145.9250 C   0  0  0  0  0  2  0  0  0  0  0  0
  184.4410  177.6370  146.5130 C   0  0  0  0  0  2  0  0  0  0  0  0
  185.7570  176.9190  146.5520 C   0  0  0  0  0  3  0  0  0  0  0  0
  185.4860  179.0680  144.6420 C   0  0  0  0  0  2  0  0  0  0  0  0
  1 12  2  0  0  0  0
  1  8  1  0  0  0  0
  2  8  1  0  0  0  0
  2 13  1  0  0  0  0
  3 11  1  0  0  0  0
  3 17  1  0  0  0  0
  4 14  1  0  0  0  0
  4  9  1  0  0  0  0
  5 10  2  0  0  0  0
  5  6  1  0  0  0  0
  6  2  2  0  0  0  0
  7 17  1  0  0  0  0
  7 16  1  0  0  0  0
  8  3  2  0  0  0  0
 10  1  1  0  0  0  0
 11 15  1  0  0  0  0
 12 18  1  0  0  0  0
 15 21  1  0  0  0  0
 15 14  2  0  0  0  0
 16 26  1  1  0  0  0
 16  9  1  0  0  0  0
 17  4  2  0  0  0  0
 18 11  2  0  0  0  0
 19 20  1  0  0  0  0
 19 25  1  0  0  0  0
 21 24  2  0  0  0  0
 21 23  1  0  0  0  0
 22 20  2  0  0  0  0
 23 19  2  0  0  0  0
 24 22  1  0  0  0  0
 27 26  1  0  0  0  0
 29 27  1  0  0  0  0
 29 33  2  0  0  0  0
 30 28  1  6  0  0  0
 30 34  1  0  0  0  0
 30 29  1  0  0  0  0
 31 32  1  0  0  0  0
 32 33  1  0  0  0  0
 34 31  1  0  0  0  0
M  END
>  <MODEL>
6

>  <REMARK>
 VINA RESULT:      -7.9      3.799      7.447
  Name = 
  4 active torsions:
  status: ('A' for Active; 'I' for Inactive)
    1  A    between atoms: C_3  and  C_13
    2  A    between atoms: C_3  and  C_17
    3  A    between atoms: C_12  and  C_28
    4  A    between atoms: C_17  and  C_29
                            x       y       z     vdW  Elec       q    Type
                         _______ _______ _______ _____ _____    ______ ____

>  <TORSDO>
F 4

$$$$
=
 OpenBabel11052418363D

 34 39  0  0  1  0  0  0  0  0999 V2000
  188.7980  174.3750  141.4150 C   0  0  0  0  0  0  0  0  0  0  0  0
  191.1730  174.1120  141.7940 C   0  0  0  0  0  0  0  0  0  0  0  0
  189.6970  175.1570  143.5590 C   0  0  0  0  0  0  0  0  0  0  0  0
  190.3590  175.7840  145.8000 C   0  0  0  0  0  0  0  0  0  0  0  0
  190.1190  173.2180  139.8190 C   0  0  0  0  0  3  0  0  0  0  0  0
  191.2630  173.4370  140.5770 C   0  0  0  0  0  3  0  0  0  0  0  0
  191.7490  174.2920  144.7780 N   0  0  0  0  0  2  0  0  0  0  0  0
  189.9100  174.5330  142.2870 C   0  0  0  0  0  0  0  0  0  0  0  0
  191.3970  175.5170  146.8230 C   0  0  0  0  0  2  0  0  0  0  0  0
  188.9270  173.7050  140.2400 N   0  0  0  0  0  0  0  0  0  0  0  0
  188.4480  175.8070  143.8160 C   0  0  0  0  0  0  0  0  0  0  0  0
  187.5660  174.9370  141.7280 C   0  0  0  0  0  3  0  0  0  0  0  0
  192.3410  174.4720  142.3740 F   0  0  0  0  0  0  0  0  0  0  0  0
  189.2120  176.4680  146.0010 N   0  0  0  0  0  0  0  0  0  0  0  0
  188.2470  176.5180  145.0390 C   0  0  0  0  0  0  0  0  0  0  0  0
  192.3100  174.5010  146.1120 C   0  0  2  0  0  3  0  0  0  0  0  0
  190.6120  175.1220  144.6350 C   0  0  0  0  0  0  0  0  0  0  0  0
  187.4010  175.6630  142.8980 C   0  0  0  0  0  3  0  0  0  0  0  0
  185.5190  179.1660  144.9730 C   0  0  0  0  0  0  0  0  0  0  0  0
  184.7300  178.7290  146.0370 C   0  0  0  0  0  3  0  0  0  0  0  0
  187.0130  177.2900  145.3450 C   0  0  0  0  0  0  0  0  0  0  0  0
  185.0810  177.6160  146.7310 N   0  0  0  0  0  0  0  0  0  0  0  0
  186.6660  178.4470  144.6330 C   0  0  0  0  0  3  0  0  0  0  0  0
  186.1940  176.9000  146.4150 C   0  0  0  0  0  3  0  0  0  0  0  0
  185.1710  180.3060  144.2630 O   0  0  0  0  0  1  0  0  0  0  0  0
  193.7510  175.0010  146.0250 C   0  0  0  0  0  2  0  0  0  0  0  0
  194.5340  174.3220  144.9050 C   0  0  0  0  0  2  0  0  0  0  0  0
  197.4140  174.1650  145.3890 C   0  0  0  0  0  1  0  0  0  0  0  0
  195.1410  173.0400  145.3890 C   0  0  0  0  0  0  0  0  0  0  0  0
  196.6060  172.9340  145.7640 C   0  0  1  0  0  3  0  0  0  0  0  0
  196.3490  170.4310  145.1610 C   0  0  0  0  0  2  0  0  0  0  0  0
  195.0110  170.6410  145.8800 C   0  0  0  0  0  2  0  0  0  0  0  0
  194.3900  171.9320  145.4370 C   0  0  0  0  0  3  0  0  0  0  0  0
  197.2530  171.6820  145.1510 C   0  0  0  0  0  2  0  0  0  0  0  0
  1 12  2  0  0  0  0
  1  8  1  0  0  0  0
  2  8  1  0  0  0  0
  2 13  1  0  0  0  0
  3 11  1  0  0  0  0
  3 17  1  0  0  0  0
  4 14  1  0  0  0  0
  4  9  1  0  0  0  0
  5 10  2  0  0  0  0
  5  6  1  0  0  0  0
  6  2  2  0  0  0  0
  7 16  1  0  0  0  0
  8  3  2  0  0  0  0
 10  1  1  0  0  0  0
 11 15  1  0  0  0  0
 12 18  1  0  0  0  0
 15 21  1  0  0  0  0
 15 14  2  0  0  0  0
 16 26  1  6  0  0  0
 16  9  1  0  0  0  0
 17  7  1  0  0  0  0
 17  4  2  0  0  0  0
 18 11  2  0  0  0  0
 19 20  1  0  0  0  0
 20 22  2  0  0  0  0
 21 24  2  0  0  0  0
 23 19  2  0  0  0  0
 23 21  1  0  0  0  0
 24 22  1  0  0  0  0
 25 19  1  0  0  0  0
 27 29  1  0  0  0  0
 27 26  1  0  0  0  0
 29 33  2  0  0  0  0
 29 30  1  0  0  0  0
 30 28  1  6  0  0  0
 31 32  1  0  0  0  0
 33 32  1  0  0  0  0
 34 31  1  0  0  0  0
 34 30  1  0  0  0  0
M  END
>  <MODEL>
7

>  <REMARK>
 VINA RESULT:      -7.8      2.517      3.649
  Name = 
  4 active torsions:
  status: ('A' for Active; 'I' for Inactive)
    1  A    between atoms: C_3  and  C_13
    2  A    between atoms: C_3  and  C_17
    3  A    between atoms: C_12  and  C_28
    4  A    between atoms: C_17  and  C_29
                            x       y       z     vdW  Elec       q    Type
                         _______ _______ _______ _____ _____    ______ ____

>  <TORSDO>
F 4

$$$$
=
 OpenBabel11052418363D

 34 39  0  0  1  0  0  0  0  0999 V2000
  186.5030  176.8180  144.5090 C   0  0  0  0  0  0  0  0  0  0  0  0
  188.0800  176.9890  146.3360 C   0  0  0  0  0  0  0  0  0  0  0  0
  188.8160  176.1240  144.0790 C   0  0  0  0  0  0  0  0  0  0  0  0
  191.0800  175.6010  143.4070 C   0  0  0  0  0  0  0  0  0  0  0  0
  185.8260  177.8120  146.5550 C   0  0  0  0  0  3  0  0  0  0  0  0
  187.0810  177.5850  147.1050 C   0  0  0  0  0  3  0  0  0  0  0  0
  190.9170  176.9610  145.2310 N   0  0  0  0  0  2  0  0  0  0  0  0
  187.8370  176.6590  144.9770 C   0  0  0  0  0  0  0  0  0  0  0  0
  192.4920  175.8790  143.7620 C   0  0  0  0  0  2  0  0  0  0  0  0
  185.5600  177.4090  145.2890 N   0  0  0  0  0  0  0  0  0  0  0  0
  188.3850  175.5500  142.8390 C   0  0  0  0  0  0  0  0  0  0  0  0
  186.1270  176.3350  143.2610 C   0  0  0  0  0  3  0  0  0  0  0  0
  189.2020  176.6090  146.9910 F   0  0  0  0  0  0  0  0  0  0  0  0
  190.6580  174.9860  142.2810 N   0  0  0  0  0  0  0  0  0  0  0  0
  189.3310  174.9250  141.9710 C   0  0  0  0  0  0  0  0  0  0  0  0
  192.3500  176.8070  144.9840 C   0  0  2  0  0  3  0  0  0  0  0  0
  190.2120  176.1790  144.2860 C   0  0  0  0  0  0  0  0  0  0  0  0
  187.0480  175.6890  142.4510 C   0  0  0  0  0  3  0  0  0  0  0  0
  188.0270  174.2320  138.4680 C   0  0  0  0  0  0  0  0  0  0  0  0
  188.1920  172.8480  138.4150 C   0  0  0  0  0  3  0  0  0  0  0  0
  188.9540  174.2320  140.7100 C   0  0  0  0  0  0  0  0  0  0  0  0
  188.7120  172.1850  139.4810 N   0  0  0  0  0  0  0  0  0  0  0  0
  188.4040  174.9220  139.6200 C   0  0  0  0  0  3  0  0  0  0  0  0
  189.0860  172.8390  140.6140 C   0  0  0  0  0  3  0  0  0  0  0  0
  187.4910  174.9160  137.3860 O   0  0  0  0  0  1  0  0  0  0  0  0
  193.0560  176.2340  146.2120 C   0  0  0  0  0  2  0  0  0  0  0  0
  193.0380  174.7090  146.2330 C   0  0  0  0  0  2  0  0  0  0  0  0
  193.1050  172.1830  144.7600 C   0  0  0  0  0  1  0  0  0  0  0  0
  194.3460  174.1610  145.7500 C   0  0  0  0  0  0  0  0  0  0  0  0
  194.4290  172.9170  144.8850 C   0  0  1  0  0  3  0  0  0  0  0  0
  196.7970  172.6460  145.8910 C   0  0  0  0  0  2  0  0  0  0  0  0
  196.7980  174.1660  145.6880 C   0  0  0  0  0  2  0  0  0  0  0  0
  195.4890  174.7430  146.1380 C   0  0  0  0  0  3  0  0  0  0  0  0
  195.5120  171.9530  145.3920 C   0  0  0  0  0  2  0  0  0  0  0  0
  1  8  1  0  0  0  0
  1 10  2  0  0  0  0
  2 13  1  0  0  0  0
  2  6  1  0  0  0  0
  3 17  1  0  0  0  0
  3  8  1  0  0  0  0
  4  9  1  0  0  0  0
  4 17  2  0  0  0  0
  5  6  2  0  0  0  0
  8  2  2  0  0  0  0
  9 16  1  0  0  0  0
 10  5  1  0  0  0  0
 11  3  2  0  0  0  0
 12  1  1  0  0  0  0
 14  4  1  0  0  0  0
 15 14  2  0  0  0  0
 15 11  1  0  0  0  0
 16  7  1  0  0  0  0
 16 26  1  1  0  0  0
 17  7  1  0  0  0  0
 18 11  1  0  0  0  0
 18 12  2  0  0  0  0
 19 23  1  0  0  0  0
 20 19  2  0  0  0  0
 20 22  1  0  0  0  0
 21 15  1  0  0  0  0
 22 24  2  0  0  0  0
 23 21  2  0  0  0  0
 24 21  1  0  0  0  0
 25 19  1  0  0  0  0
 26 27  1  0  0  0  0
 29 33  2  0  0  0  0
 29 27  1  0  0  0  0
 30 28  1  1  0  0  0
 30 34  1  0  0  0  0
 30 29  1  0  0  0  0
 32 31  1  0  0  0  0
 32 33  1  0  0  0  0
 34 31  1  0  0  0  0
M  END
>  <MODEL>
8

>  <REMARK>
 VINA RESULT:      -7.6      2.539      4.875
  Name = 
  4 active torsions:
  status: ('A' for Active; 'I' for Inactive)
    1  A    between atoms: C_3  and  C_13
    2  A    between atoms: C_3  and  C_17
    3  A    between atoms: C_12  and  C_28
    4  A    between atoms: C_17  and  C_29
                            x       y       z     vdW  Elec       q    Type
                         _______ _______ _______ _____ _____    ______ ____

>  <TORSDO>
F 4

$$$$
=
 OpenBabel11052418363D

 34 39  0  0  1  0  0  0  0  0999 V2000
  192.7240  176.3700  146.4900 C   0  0  0  0  0  0  0  0  0  0  0  0
  190.3680  176.8860  146.3010 C   0  0  0  0  0  0  0  0  0  0  0  0
  191.6150  175.8460  144.3660 C   0  0  0  0  0  0  0  0  0  0  0  0
  190.6540  175.0650  142.2880 C   0  0  0  0  0  0  0  0  0  0  0  0
  191.5410  177.1670  148.3870 C   0  0  0  0  0  3  0  0  0  0  0  0
  190.3730  177.2690  147.6420 C   0  0  0  0  0  3  0  0  0  0  0  0
  189.1640  175.2980  144.0000 N   0  0  0  0  0  2  0  0  0  0  0  0
  191.5370  176.3460  145.7060 C   0  0  0  0  0  0  0  0  0  0  0  0
  189.3680  174.6360  141.6910 C   0  0  0  0  0  2  0  0  0  0  0  0
  192.6850  176.7440  147.7960 N   0  0  0  0  0  0  0  0  0  0  0  0
  192.9020  175.6140  143.7820 C   0  0  0  0  0  0  0  0  0  0  0  0
  193.9530  176.0500  145.9270 C   0  0  0  0  0  3  0  0  0  0  0  0
  189.2640  177.2050  145.5860 F   0  0  0  0  0  0  0  0  0  0  0  0
  191.8710  174.9300  141.7170 N   0  0  0  0  0  0  0  0  0  0  0  0
  193.0080  175.2070  142.4170 C   0  0  0  0  0  0  0  0  0  0  0  0
  188.3870  174.7910  142.8700 C   0  0  2  0  0  3  0  0  0  0  0  0
  190.5010  175.4860  143.5760 C   0  0  0  0  0  0  0  0  0  0  0  0
  194.0430  175.7030  144.5880 C   0  0  0  0  0  3  0  0  0  0  0  0
  196.1940  173.6680  141.0250 C   0  0  0  0  0  0  0  0  0  0  0  0
  196.7780  174.7960  140.4490 C   0  0  0  0  0  3  0  0  0  0  0  0
  194.3070  175.0280  141.7130 C   0  0  0  0  0  0  0  0  0  0  0  0
  196.1470  175.9970  140.5150 N   0  0  0  0  0  0  0  0  0  0  0  0
  194.9590  173.7880  141.6630 C   0  0  0  0  0  3  0  0  0  0  0  0
  194.9420  176.1360  141.1320 C   0  0  0  0  0  3  0  0  0  0  0  0
  196.8350  172.4390  140.9680 O   0  0  0  0  0  1  0  0  0  0  0  0
  187.2390  175.7400  142.5270 C   0  0  0  0  0  2  0  0  0  0  0  0
  187.3220  177.0520  143.3010 C   0  0  0  0  0  2  0  0  0  0  0  0
  185.0680  178.6530  142.3450 C   0  0  0  0  0  1  0  0  0  0  0  0
  186.1120  177.2300  144.1660 C   0  0  0  0  0  0  0  0  0  0  0  0
  184.8710  177.9520  143.6780 C   0  0  1  0  0  3  0  0  0  0  0  0
  184.4540  178.4620  146.1810 C   0  0  0  0  0  2  0  0  0  0  0  0
  184.9410  177.0140  146.3100 C   0  0  0  0  0  2  0  0  0  0  0  0
  186.1380  176.7950  145.4330 C   0  0  0  0  0  3  0  0  0  0  0  0
  184.3600  178.9570  144.7220 C   0  0  0  0  0  2  0  0  0  0  0  0
  1 10  2  0  0  0  0
  2  6  1  0  0  0  0
  3  8  1  0  0  0  0
  4 17  1  0  0  0  0
  6  5  2  0  0  0  0
  8  2  2  0  0  0  0
  8  1  1  0  0  0  0
  9  4  1  0  0  0  0
  9 16  1  0  0  0  0
 10  5  1  0  0  0  0
 11  3  1  0  0  0  0
 11 18  1  0  0  0  0
 12  1  1  0  0  0  0
 13  2  1  0  0  0  0
 14  4  2  0  0  0  0
 14 15  1  0  0  0  0
 15 11  2  0  0  0  0
 16 26  1  6  0  0  0
 16  7  1  0  0  0  0
 17  7  1  0  0  0  0
 17  3  2  0  0  0  0
 18 12  2  0  0  0  0
 19 23  1  0  0  0  0
 20 22  1  0  0  0  0
 20 19  2  0  0  0  0
 21 15  1  0  0  0  0
 22 24  2  0  0  0  0
 23 21  2  0  0  0  0
 24 21  1  0  0  0  0
 25 19  1  0  0  0  0
 26 27  1  0  0  0  0
 27 29  1  0  0  0  0
 29 33  2  0  0  0  0
 30 28  1  6  0  0  0
 30 29  1  0  0  0  0
 30 34  1  0  0  0  0
 31 32  1  0  0  0  0
 33 32  1  0  0  0  0
 34 31  1  0  0  0  0
M  END
>  <MODEL>
9

>  <REMARK>
 VINA RESULT:      -7.6      3.739      7.789
  Name = 
  4 active torsions:
  status: ('A' for Active; 'I' for Inactive)
    1  A    between atoms: C_3  and  C_13
    2  A    between atoms: C_3  and  C_17
    3  A    between atoms: C_12  and  C_28
    4  A    between atoms: C_17  and  C_29
                            x       y       z     vdW  Elec       q    Type
                         _______ _______ _______ _____ _____    ______ ____

>  <TORSDO>
F 4

$$$$
