=
 OpenBabel11052419223D

 32 34  0  0  1  0  0  0  0  0999 V2000
  189.5740  174.7170  143.0370 C   0  0  0  0  0  2  0  0  0  0  0  0
  190.2580  173.4950  142.9370 O   0  0  0  0  0  0  0  0  0  0  0  0
  190.7490  173.1390  144.2120 C   0  0  2  0  0  3  0  0  0  0  0  0
  189.9210  173.6660  145.3840 C   0  0  0  0  0  1  0  0  0  0  0  0
  192.2770  173.2400  144.3600 C   0  0  2  0  0  3  0  0  0  0  0  0
  192.8110  172.0140  144.7580 O   0  0  0  0  0  1  0  0  0  0  0  0
  192.7660  174.3740  145.2690 C   0  0  0  0  0  2  0  0  0  0  0  0
  193.0630  175.5860  144.5120 N   0  0  0  0  0  0  0  0  0  0  0  0
  194.3830  175.9520  144.8240 N   0  0  0  0  0  0  0  0  0  0  0  0
  195.2070  174.9350  144.3660 O   0  0  0  0  0  0  0  0  0  0  0  0
  195.1110  176.0370  143.5790 C   0  0  2  0  0  3  0  0  0  0  0  0
  196.2440  176.8290  143.7570 O   0  0  0  0  0  1  0  0  0  0  0  0
  192.2010  176.6300  145.0480 C   0  0  0  0  0  2  0  0  0  0  0  0
  191.6500  177.4710  143.9110 C   0  0  0  0  0  2  0  0  0  0  0  0
  189.7910  177.4620  145.5700 C   0  0  0  0  0  1  0  0  0  0  0  0
  190.3440  178.1270  144.3230 C   0  0  0  0  0  2  0  0  0  0  0  0
  188.7090  174.9360  141.8030 C   0  0  2  0  0  3  0  0  0  0  0  0
  187.6110  175.9660  142.0830 C   0  0  2  0  0  3  0  0  0  0  0  0
  188.0000  177.3910  141.6320 C   0  0  0  0  0  2  0  0  0  0  0  0
  184.7940  178.1810  145.2530 C   0  0  1  0  0  3  0  0  0  0  0  0
  187.1890  175.9240  143.5590 C   0  0  0  0  0  2  0  0  0  0  0  0
  185.3100  179.4300  144.0120 S   0  0  0  0  0  0  0  0  0  0  0  0
  186.6070  178.3130  143.4640 C   0  0  2  0  0  3  0  0  0  0  0  0
  186.9030  178.4040  141.9750 C   0  0  0  0  0  2  0  0  0  0  0  0
  185.6090  176.9710  145.1420 N   0  0  0  0  0  2  0  0  0  0  0  0
  184.9290  178.7580  146.6470 C   0  0  0  0  0  1  0  0  0  0  0  0
  186.0820  176.9440  143.7730 C   0  0  2  0  0  3  0  0  0  0  0  0
  188.1380  173.6120  141.3040 C   0  0  0  0  0  2  0  0  0  0  0  0
  188.5450  173.3500  139.8940 C   0  0  0  0  0  0  0  0  0  0  0  0
  188.2890  174.2290  138.9810 N   0  0  0  0  0  2  0  0  0  0  0  0
  189.7700  171.8810  138.2440 C   0  0  0  0  0  1  0  0  0  0  0  0
  189.2980  172.1750  139.5860 N   0  0  0  0  0  2  0  0  0  0  0  0
  2  1  1  0  0  0  0
  2  3  1  0  0  0  0
  3  5  1  0  0  0  0
  3  4  1  1  0  0  0
  5  6  1  1  0  0  0
  5  7  1  0  0  0  0
  8  9  1  0  0  0  0
  8 13  1  0  0  0  0
  8  7  1  0  0  0  0
 10  9  1  0  0  0  0
 11 12  1  1  0  0  0
 11 10  1  0  0  0  0
 11  9  1  0  0  0  0
 14 16  1  0  0  0  0
 14 13  1  0  0  0  0
 16 15  1  0  0  0  0
 17 28  1  1  0  0  0
 17  1  1  0  0  0  0
 18 17  1  1  0  0  0
 18 21  1  0  0  0  0
 19 24  1  0  0  0  0
 19 18  1  0  0  0  0
 20 26  1  1  0  0  0
 22 20  1  0  0  0  0
 23 24  1  6  0  0  0
 23 27  1  0  0  0  0
 23 22  1  0  0  0  0
 25 20  1  0  0  0  0
 27 21  1  1  0  0  0
 27 25  1  0  0  0  0
 29 28  1  0  0  0  0
 30 29  2  0  0  0  0
 31 32  1  0  0  0  0
 32 29  1  0  0  0  0
M  END
>  <MODEL>
1

>  <REMARK>
 VINA RESULT:      -5.8      0.000      0.000
  Name = 
  13 active torsions:
  status: ('A' for Active; 'I' for Inactive)
    1  A    between atoms: O_1  and  C_4
    2  A    between atoms: O_1  and  C_5
    3  A    between atoms: C_2  and  C_14
    4  A    between atoms: N_3  and  N_20
    5  A    between atoms: C_4  and  C_24
    6  A    between atoms: C_5  and  C_14
    7  A    between atoms: C_13  and  C_30
    8  A    between atoms: C_14  and  C_30
    9  A    between atoms: C_15  and  N_20
   10  A    between atoms: C_15  and  C_26
   11  A    between atoms: C_16  and  N_20
   12  A    between atoms: C_16  and  C_24
   13  A    between atoms: C_19  and  C_26
                            x       y       z     vdW  Elec       q    Type
                         _______ _______ _______ _____ _____    ______ ____

>  <TORSDO>
F 13

$$$$
=
 OpenBabel11052419223D

 32 34  0  0  1  0  0  0  0  0999 V2000
  191.3710  175.5290  143.3340 C   0  0  0  0  0  2  0  0  0  0  0  0
  191.7270  174.2010  143.6160 O   0  0  0  0  0  0  0  0  0  0  0  0
  193.0230  173.9570  143.1120 C   0  0  2  0  0  3  0  0  0  0  0  0
  193.1000  173.8240  141.5910 C   0  0  0  0  0  1  0  0  0  0  0  0
  193.8460  172.9440  143.9260 C   0  0  2  0  0  3  0  0  0  0  0  0
  193.0120  172.1930  144.7560 O   0  0  0  0  0  1  0  0  0  0  0  0
  195.0140  173.5440  144.7170 C   0  0  0  0  0  2  0  0  0  0  0  0
  194.9650  175.0020  144.7320 N   0  0  0  0  0  0  0  0  0  0  0  0
  196.2640  175.4590  144.4530 N   0  0  0  0  0  0  0  0  0  0  0  0
  196.5930  175.0020  143.1860 O   0  0  0  0  0  0  0  0  0  0  0  0
  196.1830  176.2920  143.2750 C   0  0  2  0  0  3  0  0  0  0  0  0
  197.2930  177.1330  143.2240 O   0  0  0  0  0  1  0  0  0  0  0  0
  194.6710  175.3920  146.1040 C   0  0  0  0  0  2  0  0  0  0  0  0
  193.8450  176.6660  146.1070 C   0  0  0  0  0  2  0  0  0  0  0  0
  192.2770  174.9440  146.9910 C   0  0  0  0  0  1  0  0  0  0  0  0
  192.5100  176.4300  146.7890 C   0  0  0  0  0  2  0  0  0  0  0  0
  189.8630  175.6420  143.1610 C   0  0  2  0  0  3  0  0  0  0  0  0
  189.2270  176.3480  144.3620 C   0  0  2  0  0  3  0  0  0  0  0  0
  189.0130  175.4040  145.5650 C   0  0  0  0  0  2  0  0  0  0  0  0
  185.5580  178.8240  146.1780 C   0  0  1  0  0  3  0  0  0  0  0  0
  187.9300  177.0590  143.9510 C   0  0  0  0  0  2  0  0  0  0  0  0
  186.1280  177.6570  147.4760 S   0  0  0  0  0  0  0  0  0  0  0  0
  187.0330  176.7440  146.2210 C   0  0  2  0  0  3  0  0  0  0  0  0
  188.3280  176.1280  146.7290 C   0  0  0  0  0  2  0  0  0  0  0  0
  186.1310  178.4740  144.8780 N   0  0  0  0  0  2  0  0  0  0  0  0
  184.0470  178.7950  146.0920 C   0  0  0  0  0  1  0  0  0  0  0  0
  187.3580  177.7630  145.1710 C   0  0  2  0  0  3  0  0  0  0  0  0
  189.2450  174.2680  142.9130 C   0  0  0  0  0  2  0  0  0  0  0  0
  188.7110  174.1640  141.5240 C   0  0  0  0  0  0  0  0  0  0  0  0
  188.2750  175.2240  140.9260 N   0  0  0  0  0  2  0  0  0  0  0  0
  188.3210  172.7500  139.4680 C   0  0  0  0  0  1  0  0  0  0  0  0
  188.7770  172.9120  140.8380 N   0  0  0  0  0  2  0  0  0  0  0  0
  1  2  1  0  0  0  0
  3  4  1  6  0  0  0
  3  2  1  0  0  0  0
  3  5  1  0  0  0  0
  5  7  1  0  0  0  0
  5  6  1  1  0  0  0
  7  8  1  0  0  0  0
  8 13  1  0  0  0  0
  9  8  1  0  0  0  0
 10 11  1  0  0  0  0
 10  9  1  0  0  0  0
 11 12  1  1  0  0  0
 11  9  1  0  0  0  0
 13 14  1  0  0  0  0
 14 16  1  0  0  0  0
 16 15  1  0  0  0  0
 17 28  1  1  0  0  0
 17  1  1  0  0  0  0
 18 17  1  6  0  0  0
 18 19  1  0  0  0  0
 19 24  1  0  0  0  0
 20 26  1  6  0  0  0
 20 22  1  0  0  0  0
 21 18  1  0  0  0  0
 23 24  1  1  0  0  0
 23 22  1  0  0  0  0
 25 27  1  0  0  0  0
 25 20  1  0  0  0  0
 27 21  1  6  0  0  0
 27 23  1  0  0  0  0
 29 28  1  0  0  0  0
 30 29  2  0  0  0  0
 31 32  1  0  0  0  0
 32 29  1  0  0  0  0
M  END
>  <MODEL>
2

>  <REMARK>
 VINA RESULT:      -5.8      1.847      2.667
  Name = 
  13 active torsions:
  status: ('A' for Active; 'I' for Inactive)
    1  A    between atoms: O_1  and  C_4
    2  A    between atoms: O_1  and  C_5
    3  A    between atoms: C_2  and  C_14
    4  A    between atoms: N_3  and  N_20
    5  A    between atoms: C_4  and  C_24
    6  A    between atoms: C_5  and  C_14
    7  A    between atoms: C_13  and  C_30
    8  A    between atoms: C_14  and  C_30
    9  A    between atoms: C_15  and  N_20
   10  A    between atoms: C_15  and  C_26
   11  A    between atoms: C_16  and  N_20
   12  A    between atoms: C_16  and  C_24
   13  A    between atoms: C_19  and  C_26
                            x       y       z     vdW  Elec       q    Type
                         _______ _______ _______ _____ _____    ______ ____

>  <TORSDO>
F 13

$$$$
=
 OpenBabel11052419223D

 32 34  0  0  1  0  0  0  0  0999 V2000
  189.4730  176.8250  142.2620 C   0  0  0  0  0  2  0  0  0  0  0  0
  190.6310  176.0660  142.4900 O   0  0  0  0  0  0  0  0  0  0  0  0
  191.4320  176.7260  143.4480 C   0  0  2  0  0  3  0  0  0  0  0  0
  191.0710  178.1940  143.6770 C   0  0  0  0  0  1  0  0  0  0  0  0
  192.9320  176.4010  143.3610 C   0  0  2  0  0  3  0  0  0  0  0  0
  193.2490  175.8880  142.1010 O   0  0  0  0  0  1  0  0  0  0  0  0
  193.4640  175.4910  144.4740 C   0  0  0  0  0  2  0  0  0  0  0  0
  192.3890  174.7520  145.1280 N   0  0  0  0  0  0  0  0  0  0  0  0
  192.5740  174.8980  146.5130 N   0  0  0  0  0  0  0  0  0  0  0  0
  192.4620  176.2500  146.7980 O   0  0  0  0  0  0  0  0  0  0  0  0
  191.3680  175.4870  147.0480 C   0  0  2  0  0  3  0  0  0  0  0  0
  191.2900  175.2260  148.4150 O   0  0  0  0  0  1  0  0  0  0  0  0
  192.6110  173.3450  144.8240 C   0  0  0  0  0  2  0  0  0  0  0  0
  191.7890  172.9490  143.6100 C   0  0  0  0  0  2  0  0  0  0  0  0
  189.7580  172.3090  144.9020 C   0  0  0  0  0  1  0  0  0  0  0  0
  190.8400  171.8170  143.9590 C   0  0  0  0  0  2  0  0  0  0  0  0
  188.2880  175.9070  141.9960 C   0  0  2  0  0  3  0  0  0  0  0  0
  187.1130  176.2540  142.9150 C   0  0  2  0  0  3  0  0  0  0  0  0
  186.0860  177.1910  142.2420 C   0  0  0  0  0  2  0  0  0  0  0  0
  185.5520  178.1600  147.0160 C   0  0  1  0  0  3  0  0  0  0  0  0
  187.6150  176.8160  144.2530 C   0  0  0  0  0  2  0  0  0  0  0  0
  184.3460  178.6110  145.7080 S   0  0  0  0  0  0  0  0  0  0  0  0
  185.5620  178.1550  144.4650 C   0  0  2  0  0  3  0  0  0  0  0  0
  184.9520  177.5600  143.2050 C   0  0  0  0  0  2  0  0  0  0  0  0
  186.7880  177.6440  146.4270 N   0  0  0  0  0  2  0  0  0  0  0  0
  185.8630  179.3740  147.8660 C   0  0  0  0  0  1  0  0  0  0  0  0
  186.4120  177.1150  145.1320 C   0  0  2  0  0  3  0  0  0  0  0  0
  188.7010  174.4430  142.1240 C   0  0  0  0  0  2  0  0  0  0  0  0
  188.7770  173.7890  140.7860 C   0  0  0  0  0  0  0  0  0  0  0  0
  189.1800  172.5640  140.6960 N   0  0  0  0  0  2  0  0  0  0  0  0
  188.3150  173.9000  138.3050 C   0  0  0  0  0  1  0  0  0  0  0  0
  188.3150  174.4930  139.6320 N   0  0  0  0  0  2  0  0  0  0  0  0
  1  2  1  0  0  0  0
  2  3  1  0  0  0  0
  3  4  1  6  0  0  0
  5  6  1  6  0  0  0
  5  3  1  0  0  0  0
  5  7  1  0  0  0  0
  7  8  1  0  0  0  0
  8  9  1  0  0  0  0
  9 10  1  0  0  0  0
  9 11  1  0  0  0  0
 10 11  1  0  0  0  0
 11 12  1  1  0  0  0
 13  8  1  0  0  0  0
 14 16  1  0  0  0  0
 14 13  1  0  0  0  0
 16 15  1  0  0  0  0
 17 28  1  1  0  0  0
 17  1  1  0  0  0  0
 18 17  1  6  0  0  0
 18 21  1  0  0  0  0
 19 18  1  0  0  0  0
 19 24  1  0  0  0  0
 20 26  1  6  0  0  0
 22 20  1  0  0  0  0
 23 24  1  6  0  0  0
 23 27  1  0  0  0  0
 23 22  1  0  0  0  0
 25 20  1  0  0  0  0
 27 21  1  6  0  0  0
 27 25  1  0  0  0  0
 29 28  1  0  0  0  0
 30 29  2  0  0  0  0
 31 32  1  0  0  0  0
 32 29  1  0  0  0  0
M  END
>  <MODEL>
3

>  <REMARK>
 VINA RESULT:      -5.6      1.877      3.253
  Name = 
  13 active torsions:
  status: ('A' for Active; 'I' for Inactive)
    1  A    between atoms: O_1  and  C_4
    2  A    between atoms: O_1  and  C_5
    3  A    between atoms: C_2  and  C_14
    4  A    between atoms: N_3  and  N_20
    5  A    between atoms: C_4  and  C_24
    6  A    between atoms: C_5  and  C_14
    7  A    between atoms: C_13  and  C_30
    8  A    between atoms: C_14  and  C_30
    9  A    between atoms: C_15  and  N_20
   10  A    between atoms: C_15  and  C_26
   11  A    between atoms: C_16  and  N_20
   12  A    between atoms: C_16  and  C_24
   13  A    between atoms: C_19  and  C_26
                            x       y       z     vdW  Elec       q    Type
                         _______ _______ _______ _____ _____    ______ ____

>  <TORSDO>
F 13

$$$$
=
 OpenBabel11052419223D

 32 34  0  0  1  0  0  0  0  0999 V2000
  188.7280  175.8790  141.7180 C   0  0  0  0  0  2  0  0  0  0  0  0
  187.3830  175.5670  141.9700 O   0  0  0  0  0  0  0  0  0  0  0  0
  186.5920  176.7090  141.7190 C   0  0  2  0  0  3  0  0  0  0  0  0
  187.3260  177.8500  141.0120 C   0  0  0  0  0  1  0  0  0  0  0  0
  185.6640  177.1130  142.8770 C   0  0  2  0  0  3  0  0  0  0  0  0
  184.5270  177.7590  142.3880 O   0  0  0  0  0  1  0  0  0  0  0  0
  186.3310  177.9360  143.9850 C   0  0  0  0  0  2  0  0  0  0  0  0
  186.4320  177.1840  145.2310 N   0  0  0  0  0  0  0  0  0  0  0  0
  186.3130  178.1110  146.2810 N   0  0  0  0  0  0  0  0  0  0  0  0
  185.4080  179.0780  145.8690 O   0  0  0  0  0  0  0  0  0  0  0  0
  184.9280  178.1140  146.6950 C   0  0  2  0  0  3  0  0  0  0  0  0
  184.8330  178.6230  147.9890 O   0  0  0  0  0  1  0  0  0  0  0  0
  187.7900  176.6600  145.2890 C   0  0  0  0  0  2  0  0  0  0  0  0
  188.5040  177.2250  146.5040 C   0  0  0  0  0  2  0  0  0  0  0  0
  189.1320  174.8600  146.9760 C   0  0  0  0  0  1  0  0  0  0  0  0
  189.6230  176.2960  146.9390 C   0  0  0  0  0  2  0  0  0  0  0  0
  189.6330  174.7970  142.2890 C   0  0  2  0  0  3  0  0  0  0  0  0
  190.5300  175.3630  143.3940 C   0  0  2  0  0  3  0  0  0  0  0  0
  191.0410  176.7850  143.0780 C   0  0  0  0  0  2  0  0  0  0  0  0
  194.4910  174.9710  146.0480 C   0  0  1  0  0  3  0  0  0  0  0  0
  191.6790  174.3950  143.7120 C   0  0  0  0  0  2  0  0  0  0  0  0
  194.2690  176.7500  145.6540 S   0  0  0  0  0  0  0  0  0  0  0  0
  193.1010  176.2930  144.3670 C   0  0  2  0  0  3  0  0  0  0  0  0
  191.9770  177.3000  144.1770 C   0  0  0  0  0  2  0  0  0  0  0  0
  193.6270  174.1420  145.2080 N   0  0  0  0  0  2  0  0  0  0  0  0
  195.9370  174.5760  145.8340 C   0  0  0  0  0  1  0  0  0  0  0  0
  192.5170  174.9930  144.8300 C   0  0  2  0  0  3  0  0  0  0  0  0
  190.4440  174.1320  141.1800 C   0  0  0  0  0  2  0  0  0  0  0  0
  189.5560  173.4000  140.2320 C   0  0  0  0  0  0  0  0  0  0  0  0
  188.7710  172.4740  140.6790 N   0  0  0  0  0  2  0  0  0  0  0  0
  188.6370  173.1560  137.8920 C   0  0  0  0  0  1  0  0  0  0  0  0
  189.5140  173.7940  138.8590 N   0  0  0  0  0  2  0  0  0  0  0  0
  1  2  1  0  0  0  0
  1 17  1  0  0  0  0
  3  4  1  1  0  0  0
  3  2  1  0  0  0  0
  3  5  1  0  0  0  0
  5  6  1  6  0  0  0
  5  7  1  0  0  0  0
  7  8  1  0  0  0  0
  8 13  1  0  0  0  0
  8  9  1  0  0  0  0
  9 11  1  0  0  0  0
 10  9  1  0  0  0  0
 10 11  1  0  0  0  0
 11 12  1  1  0  0  0
 13 14  1  0  0  0  0
 14 16  1  0  0  0  0
 16 15  1  0  0  0  0
 17 28  1  6  0  0  0
 18 17  1  6  0  0  0
 18 21  1  0  0  0  0
 19 18  1  0  0  0  0
 19 24  1  0  0  0  0
 20 26  1  6  0  0  0
 22 20  1  0  0  0  0
 23 24  1  1  0  0  0
 23 27  1  0  0  0  0
 23 22  1  0  0  0  0
 25 20  1  0  0  0  0
 27 21  1  6  0  0  0
 27 25  1  0  0  0  0
 29 30  2  0  0  0  0
 29 28  1  0  0  0  0
 31 32  1  0  0  0  0
 32 29  1  0  0  0  0
M  END
>  <MODEL>
4

>  <REMARK>
 VINA RESULT:      -5.6      3.344      6.795
  Name = 
  13 active torsions:
  status: ('A' for Active; 'I' for Inactive)
    1  A    between atoms: O_1  and  C_4
    2  A    between atoms: O_1  and  C_5
    3  A    between atoms: C_2  and  C_14
    4  A    between atoms: N_3  and  N_20
    5  A    between atoms: C_4  and  C_24
    6  A    between atoms: C_5  and  C_14
    7  A    between atoms: C_13  and  C_30
    8  A    between atoms: C_14  and  C_30
    9  A    between atoms: C_15  and  N_20
   10  A    between atoms: C_15  and  C_26
   11  A    between atoms: C_16  and  N_20
   12  A    between atoms: C_16  and  C_24
   13  A    between atoms: C_19  and  C_26
                            x       y       z     vdW  Elec       q    Type
                         _______ _______ _______ _____ _____    ______ ____

>  <TORSDO>
F 13

$$$$
=
 OpenBabel11052419223D

 32 34  0  0  1  0  0  0  0  0999 V2000
  192.8470  176.1160  146.4790 C   0  0  0  0  0  2  0  0  0  0  0  0
  191.5720  176.6070  146.1600 O   0  0  0  0  0  0  0  0  0  0  0  0
  190.6830  176.2940  147.2120 C   0  0  2  0  0  3  0  0  0  0  0  0
  191.2410  175.3180  148.2490 C   0  0  0  0  0  1  0  0  0  0  0  0
  189.2280  176.0590  146.7720 C   0  0  2  0  0  3  0  0  0  0  0  0
  189.1520  174.9770  145.8930 O   0  0  0  0  0  1  0  0  0  0  0  0
  188.5200  177.2900  146.1910 C   0  0  0  0  0  2  0  0  0  0  0  0
  187.7710  176.9630  144.9830 N   0  0  0  0  0  0  0  0  0  0  0  0
  188.1220  177.9150  144.0120 N   0  0  0  0  0  0  0  0  0  0  0  0
  189.5030  177.8820  143.8910 O   0  0  0  0  0  0  0  0  0  0  0  0
  188.7970  177.2120  142.9450 C   0  0  2  0  0  3  0  0  0  0  0  0
  188.7460  177.9750  141.7810 O   0  0  0  0  0  1  0  0  0  0  0  0
  186.3660  177.1840  145.2960 C   0  0  0  0  0  2  0  0  0  0  0  0
  185.9610  178.5840  144.8700 C   0  0  0  0  0  2  0  0  0  0  0  0
  184.2710  178.2130  146.6630 C   0  0  0  0  0  1  0  0  0  0  0  0
  184.5490  178.8920  145.3340 C   0  0  0  0  0  2  0  0  0  0  0  0
  193.4180  175.3350  145.3040 C   0  0  2  0  0  3  0  0  0  0  0  0
  192.3850  174.3510  144.7490 C   0  0  2  0  0  3  0  0  0  0  0  0
  192.8380  172.8790  144.8690 C   0  0  0  0  0  2  0  0  0  0  0  0
  189.7750  172.8170  141.0440 C   0  0  1  0  0  3  0  0  0  0  0  0
  192.0000  174.7190  143.3090 C   0  0  0  0  0  2  0  0  0  0  0  0
  190.3250  171.3350  141.9770 S   0  0  0  0  0  0  0  0  0  0  0  0
  191.5450  172.3510  142.8200 C   0  0  2  0  0  3  0  0  0  0  0  0
  191.8060  171.9250  144.2570 C   0  0  0  0  0  2  0  0  0  0  0  0
  190.5210  174.0020  141.4660 N   0  0  0  0  0  2  0  0  0  0  0  0
  189.9770  172.5910  139.5610 C   0  0  0  0  0  1  0  0  0  0  0  0
  190.9550  173.7290  142.8200 C   0  0  2  0  0  3  0  0  0  0  0  0
  194.7170  174.6380  145.7000 C   0  0  0  0  0  2  0  0  0  0  0  0
  195.8620  175.1340  144.8840 C   0  0  0  0  0  0  0  0  0  0  0  0
  196.9630  174.4570  144.8490 N   0  0  0  0  0  2  0  0  0  0  0  0
  196.7530  176.8130  143.2200 C   0  0  0  0  0  1  0  0  0  0  0  0
  195.6960  176.3010  144.0760 N   0  0  0  0  0  2  0  0  0  0  0  0
  2  1  1  0  0  0  0
  2  3  1  0  0  0  0
  3  4  1  6  0  0  0
  5  6  1  6  0  0  0
  5  3  1  0  0  0  0
  7  5  1  0  0  0  0
  8 13  1  0  0  0  0
  8  7  1  0  0  0  0
  9  8  1  0  0  0  0
 10  9  1  0  0  0  0
 11 12  1  6  0  0  0
 11 10  1  0  0  0  0
 11  9  1  0  0  0  0
 14 13  1  0  0  0  0
 14 16  1  0  0  0  0
 16 15  1  0  0  0  0
 17 28  1  1  0  0  0
 17  1  1  0  0  0  0
 18 19  1  0  0  0  0
 18 17  1  6  0  0  0
 20 26  1  6  0  0  0
 20 25  1  0  0  0  0
 20 22  1  0  0  0  0
 21 18  1  0  0  0  0
 22 23  1  0  0  0  0
 23 24  1  1  0  0  0
 24 19  1  0  0  0  0
 25 27  1  0  0  0  0
 27 23  1  0  0  0  0
 27 21  1  6  0  0  0
 29 28  1  0  0  0  0
 30 29  2  0  0  0  0
 31 32  1  0  0  0  0
 32 29  1  0  0  0  0
M  END
>  <MODEL>
5

>  <REMARK>
 VINA RESULT:      -5.5      2.976      7.019
  Name = 
  13 active torsions:
  status: ('A' for Active; 'I' for Inactive)
    1  A    between atoms: O_1  and  C_4
    2  A    between atoms: O_1  and  C_5
    3  A    between atoms: C_2  and  C_14
    4  A    between atoms: N_3  and  N_20
    5  A    between atoms: C_4  and  C_24
    6  A    between atoms: C_5  and  C_14
    7  A    between atoms: C_13  and  C_30
    8  A    between atoms: C_14  and  C_30
    9  A    between atoms: C_15  and  N_20
   10  A    between atoms: C_15  and  C_26
   11  A    between atoms: C_16  and  N_20
   12  A    between atoms: C_16  and  C_24
   13  A    between atoms: C_19  and  C_26
                            x       y       z     vdW  Elec       q    Type
                         _______ _______ _______ _____ _____    ______ ____

>  <TORSDO>
F 13

$$$$
=
 OpenBabel11052419223D

 32 34  0  0  1  0  0  0  0  0999 V2000
  189.6310  175.2290  142.7950 C   0  0  0  0  0  2  0  0  0  0  0  0
  190.8930  175.6360  142.3350 O   0  0  0  0  0  0  0  0  0  0  0  0
  191.4920  176.4630  143.3110 C   0  0  2  0  0  3  0  0  0  0  0  0
  190.8210  177.8250  143.4920 C   0  0  0  0  0  1  0  0  0  0  0  0
  193.0300  176.4600  143.2950 C   0  0  2  0  0  3  0  0  0  0  0  0
  193.5050  175.9090  142.1040 O   0  0  0  0  0  1  0  0  0  0  0  0
  193.6900  175.7970  144.5090 C   0  0  0  0  0  2  0  0  0  0  0  0
  192.8200  174.7960  145.1190 N   0  0  0  0  0  0  0  0  0  0  0  0
  192.8380  175.0260  146.5050 N   0  0  0  0  0  0  0  0  0  0  0  0
  192.5060  176.3580  146.7010 O   0  0  0  0  0  0  0  0  0  0  0  0
  191.5110  175.4540  146.8860 C   0  0  2  0  0  3  0  0  0  0  0  0
  191.3310  175.2420  148.2520 O   0  0  0  0  0  1  0  0  0  0  0  0
  193.4580  173.5060  144.9010 C   0  0  0  0  0  2  0  0  0  0  0  0
  194.9530  173.6990  144.7180 C   0  0  0  0  0  2  0  0  0  0  0  0
  196.9510  173.4800  146.1900 C   0  0  0  0  0  1  0  0  0  0  0  0
  195.7230  172.7750  145.6430 C   0  0  0  0  0  2  0  0  0  0  0  0
  188.6050  175.3410  141.6770 C   0  0  2  0  0  3  0  0  0  0  0  0
  187.4290  176.2260  142.1020 C   0  0  2  0  0  3  0  0  0  0  0  0
  187.6090  177.7000  141.6820 C   0  0  0  0  0  2  0  0  0  0  0  0
  184.6960  177.9860  145.6120 C   0  0  1  0  0  3  0  0  0  0  0  0
  187.1570  176.0840  143.6060 C   0  0  0  0  0  2  0  0  0  0  0  0
  184.9470  179.3290  144.3860 S   0  0  0  0  0  0  0  0  0  0  0  0
  186.3030  178.3900  143.6730 C   0  0  2  0  0  3  0  0  0  0  0  0
  186.4430  178.5670  142.1690 C   0  0  0  0  0  2  0  0  0  0  0  0
  185.6280  176.8840  145.3720 N   0  0  0  0  0  2  0  0  0  0  0  0
  184.8970  178.5260  147.0120 C   0  0  0  0  0  1  0  0  0  0  0  0
  185.9680  176.9590  143.9660 C   0  0  2  0  0  3  0  0  0  0  0  0
  188.1450  173.9560  141.2270 C   0  0  0  0  0  2  0  0  0  0  0  0
  188.6950  173.6200  139.8830 C   0  0  0  0  0  0  0  0  0  0  0  0
  189.5150  172.6280  139.7580 N   0  0  0  0  0  2  0  0  0  0  0  0
  188.6920  174.0290  137.3900 C   0  0  0  0  0  1  0  0  0  0  0  0
  188.2350  174.3360  138.7350 N   0  0  0  0  0  2  0  0  0  0  0  0
  2  1  1  0  0  0  0
  2  3  1  0  0  0  0
  3  4  1  6  0  0  0
  5  6  1  6  0  0  0
  5  3  1  0  0  0  0
  5  7  1  0  0  0  0
  7  8  1  0  0  0  0
  8  9  1  0  0  0  0
  9 10  1  0  0  0  0
  9 11  1  0  0  0  0
 10 11  1  0  0  0  0
 11 12  1  1  0  0  0
 13  8  1  0  0  0  0
 14 13  1  0  0  0  0
 14 16  1  0  0  0  0
 16 15  1  0  0  0  0
 17 28  1  1  0  0  0
 17  1  1  0  0  0  0
 18 17  1  1  0  0  0
 18 21  1  0  0  0  0
 19 18  1  0  0  0  0
 19 24  1  0  0  0  0
 20 26  1  1  0  0  0
 22 20  1  0  0  0  0
 23 24  1  6  0  0  0
 23 27  1  0  0  0  0
 23 22  1  0  0  0  0
 25 20  1  0  0  0  0
 27 21  1  1  0  0  0
 27 25  1  0  0  0  0
 29 28  1  0  0  0  0
 30 29  2  0  0  0  0
 31 32  1  0  0  0  0
 32 29  1  0  0  0  0
M  END
>  <MODEL>
6

>  <REMARK>
 VINA RESULT:      -5.5      1.916      3.329
  Name = 
  13 active torsions:
  status: ('A' for Active; 'I' for Inactive)
    1  A    between atoms: O_1  and  C_4
    2  A    between atoms: O_1  and  C_5
    3  A    between atoms: C_2  and  C_14
    4  A    between atoms: N_3  and  N_20
    5  A    between atoms: C_4  and  C_24
    6  A    between atoms: C_5  and  C_14
    7  A    between atoms: C_13  and  C_30
    8  A    between atoms: C_14  and  C_30
    9  A    between atoms: C_15  and  N_20
   10  A    between atoms: C_15  and  C_26
   11  A    between atoms: C_16  and  N_20
   12  A    between atoms: C_16  and  C_24
   13  A    between atoms: C_19  and  C_26
                            x       y       z     vdW  Elec       q    Type
                         _______ _______ _______ _____ _____    ______ ____

>  <TORSDO>
F 13

$$$$
=
 OpenBabel11052419223D

 32 34  0  0  1  0  0  0  0  0999 V2000
  188.1890  176.1320  146.8270 C   0  0  0  0  0  2  0  0  0  0  0  0
  188.0360  177.5260  146.7870 O   0  0  0  0  0  0  0  0  0  0  0  0
  186.6590  177.8350  146.7420 C   0  0  2  0  0  3  0  0  0  0  0  0
  185.7400  176.7260  147.2570 C   0  0  0  0  0  1  0  0  0  0  0  0
  186.2060  178.5520  145.4590 C   0  0  2  0  0  3  0  0  0  0  0  0
  185.6440  179.7920  145.7650 O   0  0  0  0  0  1  0  0  0  0  0  0
  185.2750  177.7350  144.5540 C   0  0  0  0  0  2  0  0  0  0  0  0
  185.7970  177.6280  143.1960 N   0  0  0  0  0  0  0  0  0  0  0  0
  184.6930  177.4630  142.3430 N   0  0  0  0  0  0  0  0  0  0  0  0
  183.8400  178.5330  142.5710 O   0  0  0  0  0  0  0  0  0  0  0  0
  184.6420  178.6200  141.4790 C   0  0  2  0  0  3  0  0  0  0  0  0
  183.9010  178.3150  140.3390 O   0  0  0  0  0  1  0  0  0  0  0  0
  186.5560  176.3850  143.1420 C   0  0  0  0  0  2  0  0  0  0  0  0
  187.6830  176.5180  142.1330 C   0  0  0  0  0  2  0  0  0  0  0  0
  189.2900  178.0450  143.2710 C   0  0  0  0  0  1  0  0  0  0  0  0
  188.2590  177.9220  142.1640 C   0  0  0  0  0  2  0  0  0  0  0  0
  189.5560  175.7390  146.2830 C   0  0  2  0  0  3  0  0  0  0  0  0
  189.4240  174.6630  145.2010 C   0  0  2  0  0  3  0  0  0  0  0  0
  189.7280  173.2450  145.7300 C   0  0  0  0  0  2  0  0  0  0  0  0
  190.8130  172.9370  140.9610 C   0  0  1  0  0  3  0  0  0  0  0  0
  190.2790  175.0170  143.9750 C   0  0  0  0  0  2  0  0  0  0  0  0
  190.5440  171.5030  142.0750 S   0  0  0  0  0  0  0  0  0  0  0  0
  190.5640  172.6240  143.4800 C   0  0  2  0  0  3  0  0  0  0  0  0
  189.6400  172.2010  144.6110 C   0  0  0  0  0  2  0  0  0  0  0  0
  190.8540  174.1850  141.7230 N   0  0  0  0  0  2  0  0  0  0  0  0
  192.1130  172.7610  140.2050 C   0  0  0  0  0  1  0  0  0  0  0  0
  190.0890  173.9330  142.9270 C   0  0  2  0  0  3  0  0  0  0  0  0
  190.4800  175.3000  147.4160 C   0  0  0  0  0  2  0  0  0  0  0  0
  191.6790  176.1830  147.5020 C   0  0  0  0  0  0  0  0  0  0  0  0
  191.7210  177.1180  148.3940 N   0  0  0  0  0  2  0  0  0  0  0  0
  194.0240  176.7120  146.7250 C   0  0  0  0  0  1  0  0  0  0  0  0
  192.8050  175.9230  146.6610 N   0  0  0  0  0  2  0  0  0  0  0  0
  2  1  1  0  0  0  0
  3  2  1  0  0  0  0
  3  4  1  6  0  0  0
  5  6  1  1  0  0  0
  5  3  1  0  0  0  0
  7  5  1  0  0  0  0
  8  7  1  0  0  0  0
  9 10  1  0  0  0  0
  9  8  1  0  0  0  0
 11 12  1  6  0  0  0
 11  9  1  0  0  0  0
 11 10  1  0  0  0  0
 13  8  1  0  0  0  0
 14 16  1  0  0  0  0
 14 13  1  0  0  0  0
 16 15  1  0  0  0  0
 17  1  1  1  0  0  0
 17 28  1  0  0  0  0
 18 19  1  0  0  0  0
 18 17  1  1  0  0  0
 20 26  1  1  0  0  0
 20 25  1  0  0  0  0
 20 22  1  0  0  0  0
 21 18  1  0  0  0  0
 22 23  1  0  0  0  0
 23 24  1  1  0  0  0
 24 19  1  0  0  0  0
 25 27  1  0  0  0  0
 27 23  1  0  0  0  0
 27 21  1  1  0  0  0
 28 29  1  0  0  0  0
 29 30  2  0  0  0  0
 32 31  1  0  0  0  0
 32 29  1  0  0  0  0
M  END
>  <MODEL>
7

>  <REMARK>
 VINA RESULT:      -5.5      3.785      7.951
  Name = 
  13 active torsions:
  status: ('A' for Active; 'I' for Inactive)
    1  A    between atoms: O_1  and  C_4
    2  A    between atoms: O_1  and  C_5
    3  A    between atoms: C_2  and  C_14
    4  A    between atoms: N_3  and  N_20
    5  A    between atoms: C_4  and  C_24
    6  A    between atoms: C_5  and  C_14
    7  A    between atoms: C_13  and  C_30
    8  A    between atoms: C_14  and  C_30
    9  A    between atoms: C_15  and  N_20
   10  A    between atoms: C_15  and  C_26
   11  A    between atoms: C_16  and  N_20
   12  A    between atoms: C_16  and  C_24
   13  A    between atoms: C_19  and  C_26
                            x       y       z     vdW  Elec       q    Type
                         _______ _______ _______ _____ _____    ______ ____

>  <TORSDO>
F 13

$$$$
=
 OpenBabel11052419223D

 32 34  0  0  1  0  0  0  0  0999 V2000
  188.0080  174.7210  142.1860 C   0  0  0  0  0  2  0  0  0  0  0  0
  188.3960  175.7380  141.3010 O   0  0  0  0  0  0  0  0  0  0  0  0
  187.4570  176.7890  141.3700 C   0  0  2  0  0  3  0  0  0  0  0  0
  186.8240  177.1680  140.0300 C   0  0  0  0  0  1  0  0  0  0  0  0
  187.8690  177.9580  142.2810 C   0  0  2  0  0  3  0  0  0  0  0  0
  189.2180  177.8540  142.6270 O   0  0  0  0  0  1  0  0  0  0  0  0
  186.9950  178.1490  143.5250 C   0  0  0  0  0  2  0  0  0  0  0  0
  185.8670  177.2240  143.5420 N   0  0  0  0  0  0  0  0  0  0  0  0
  184.6980  178.0020  143.5980 N   0  0  0  0  0  0  0  0  0  0  0  0
  184.8570  179.0400  142.6920 O   0  0  0  0  0  0  0  0  0  0  0  0
  184.1080  177.9860  142.2790 C   0  0  2  0  0  3  0  0  0  0  0  0
  182.7580  178.3160  142.3710 O   0  0  0  0  0  1  0  0  0  0  0  0
  185.9460  176.4980  144.8020 C   0  0  0  0  0  2  0  0  0  0  0  0
  185.2000  177.2630  145.8810 C   0  0  0  0  0  2  0  0  0  0  0  0
  186.0950  178.7690  147.6520 C   0  0  0  0  0  1  0  0  0  0  0  0
  186.0330  177.3390  147.1480 C   0  0  0  0  0  2  0  0  0  0  0  0
  189.1550  173.7420  142.3960 C   0  0  2  0  0  3  0  0  0  0  0  0
  189.9020  174.0470  143.6980 C   0  0  2  0  0  3  0  0  0  0  0  0
  189.0780  174.9210  144.6680 C   0  0  0  0  0  2  0  0  0  0  0  0
  193.7140  175.9480  145.8760 C   0  0  1  0  0  3  0  0  0  0  0  0
  191.2810  174.6560  143.4040 C   0  0  0  0  0  2  0  0  0  0  0  0
  192.2480  176.3170  146.9160 S   0  0  0  0  0  0  0  0  0  0  0  0
  191.1880  175.8980  145.5270 C   0  0  2  0  0  3  0  0  0  0  0  0
  189.8730  175.2530  145.9350 C   0  0  0  0  0  2  0  0  0  0  0  0
  193.3060  175.4820  144.5500 N   0  0  0  0  0  2  0  0  0  0  0  0
  194.5690  177.1900  145.7360 C   0  0  0  0  0  1  0  0  0  0  0  0
  191.9860  174.9130  144.7260 C   0  0  2  0  0  3  0  0  0  0  0  0
  190.0890  173.7400  141.1880 C   0  0  0  0  0  2  0  0  0  0  0  0
  190.1280  172.3960  140.5430 C   0  0  0  0  0  0  0  0  0  0  0  0
  190.4270  171.3560  141.2510 N   0  0  0  0  0  2  0  0  0  0  0  0
  189.7100  170.9770  138.4960 C   0  0  0  0  0  1  0  0  0  0  0  0
  189.7420  172.2610  139.1740 N   0  0  0  0  0  2  0  0  0  0  0  0
  1 17  1  0  0  0  0
  2  3  1  0  0  0  0
  2  1  1  0  0  0  0
  3  4  1  6  0  0  0
  3  5  1  0  0  0  0
  5  6  1  1  0  0  0
  5  7  1  0  0  0  0
  7  8  1  0  0  0  0
  8  9  1  0  0  0  0
  8 13  1  0  0  0  0
 10  9  1  0  0  0  0
 11 12  1  1  0  0  0
 11 10  1  0  0  0  0
 11  9  1  0  0  0  0
 13 14  1  0  0  0  0
 14 16  1  0  0  0  0
 16 15  1  0  0  0  0
 17 28  1  6  0  0  0
 18 17  1  6  0  0  0
 18 19  1  0  0  0  0
 19 24  1  0  0  0  0
 20 26  1  6  0  0  0
 20 22  1  0  0  0  0
 21 18  1  0  0  0  0
 23 24  1  1  0  0  0
 23 22  1  0  0  0  0
 25 27  1  0  0  0  0
 25 20  1  0  0  0  0
 27 21  1  6  0  0  0
 27 23  1  0  0  0  0
 29 28  1  0  0  0  0
 29 30  2  0  0  0  0
 31 32  1  0  0  0  0
 32 29  1  0  0  0  0
M  END
>  <MODEL>
8

>  <REMARK>
 VINA RESULT:      -5.4      3.082      6.757
  Name = 
  13 active torsions:
  status: ('A' for Active; 'I' for Inactive)
    1  A    between atoms: O_1  and  C_4
    2  A    between atoms: O_1  and  C_5
    3  A    between atoms: C_2  and  C_14
    4  A    between atoms: N_3  and  N_20
    5  A    between atoms: C_4  and  C_24
    6  A    between atoms: C_5  and  C_14
    7  A    between atoms: C_13  and  C_30
    8  A    between atoms: C_14  and  C_30
    9  A    between atoms: C_15  and  N_20
   10  A    between atoms: C_15  and  C_26
   11  A    between atoms: C_16  and  N_20
   12  A    between atoms: C_16  and  C_24
   13  A    between atoms: C_19  and  C_26
                            x       y       z     vdW  Elec       q    Type
                         _______ _______ _______ _____ _____    ______ ____

>  <TORSDO>
F 13

$$$$
=
 OpenBabel11052419223D

 32 34  0  0  1  0  0  0  0  0999 V2000
  189.2430  176.4980  142.2140 C   0  0  0  0  0  2  0  0  0  0  0  0
  190.1580  175.6480  142.8540 O   0  0  0  0  0  0  0  0  0  0  0  0
  191.1820  176.4290  143.4330 C   0  0  2  0  0  3  0  0  0  0  0  0
  190.8730  177.9250  143.5170 C   0  0  0  0  0  1  0  0  0  0  0  0
  192.6050  176.0530  142.9850 C   0  0  2  0  0  3  0  0  0  0  0  0
  192.5630  175.2840  141.8210 O   0  0  0  0  0  1  0  0  0  0  0  0
  193.4650  175.3780  144.0600 C   0  0  0  0  0  2  0  0  0  0  0  0
  194.5710  176.2310  144.4820 N   0  0  0  0  0  0  0  0  0  0  0  0
  195.6940  175.4010  144.6360 N   0  0  0  0  0  0  0  0  0  0  0  0
  195.7630  174.5950  143.5100 O   0  0  0  0  0  0  0  0  0  0  0  0
  196.5850  175.6740  143.5330 C   0  0  2  0  0  3  0  0  0  0  0  0
  197.8750  175.2630  143.8650 O   0  0  0  0  0  1  0  0  0  0  0  0
  194.2300  176.7240  145.8090 C   0  0  0  0  0  2  0  0  0  0  0  0
  193.3430  175.7150  146.5160 C   0  0  0  0  0  2  0  0  0  0  0  0
  191.2560  175.3990  147.8400 C   0  0  0  0  0  1  0  0  0  0  0  0
  192.1710  176.4140  147.1810 C   0  0  0  0  0  2  0  0  0  0  0  0
  187.9580  175.7440  141.9010 C   0  0  2  0  0  3  0  0  0  0  0  0
  186.8320  176.1670  142.8480 C   0  0  2  0  0  3  0  0  0  0  0  0
  185.8920  177.2220  142.2250 C   0  0  0  0  0  2  0  0  0  0  0  0
  185.5080  178.0630  147.0370 C   0  0  1  0  0  3  0  0  0  0  0  0
  187.4010  176.6290  144.1980 C   0  0  0  0  0  2  0  0  0  0  0  0
  184.3360  178.6740  145.7640 S   0  0  0  0  0  0  0  0  0  0  0  0
  185.4880  178.1490  144.4880 C   0  0  2  0  0  3  0  0  0  0  0  0
  184.8100  177.6620  143.2160 C   0  0  0  0  0  2  0  0  0  0  0  0
  186.6820  177.4530  146.4120 N   0  0  0  0  0  2  0  0  0  0  0  0
  185.9440  179.2090  147.9250 C   0  0  0  0  0  1  0  0  0  0  0  0
  186.2420  177.0100  145.1040 C   0  0  2  0  0  3  0  0  0  0  0  0
  188.1970  174.2360  141.9340 C   0  0  0  0  0  2  0  0  0  0  0  0
  188.6190  173.7310  140.5960 C   0  0  0  0  0  0  0  0  0  0  0  0
  189.2930  172.6310  140.5120 N   0  0  0  0  0  2  0  0  0  0  0  0
  188.5260  173.9560  138.0810 C   0  0  0  0  0  1  0  0  0  0  0  0
  188.1920  174.4190  139.4180 N   0  0  0  0  0  2  0  0  0  0  0  0
  1  2  1  0  0  0  0
  2  3  1  0  0  0  0
  3  4  1  6  0  0  0
  5  6  1  6  0  0  0
  5  3  1  0  0  0  0
  5  7  1  0  0  0  0
  7  8  1  0  0  0  0
  8  9  1  0  0  0  0
  8 13  1  0  0  0  0
 10 11  1  0  0  0  0
 10  9  1  0  0  0  0
 11 12  1  1  0  0  0
 11  9  1  0  0  0  0
 13 14  1  0  0  0  0
 14 16  1  0  0  0  0
 16 15  1  0  0  0  0
 17 28  1  1  0  0  0
 17  1  1  0  0  0  0
 18 17  1  6  0  0  0
 18 21  1  0  0  0  0
 19 18  1  0  0  0  0
 19 24  1  0  0  0  0
 20 26  1  1  0  0  0
 22 20  1  0  0  0  0
 23 24  1  6  0  0  0
 23 27  1  0  0  0  0
 23 22  1  0  0  0  0
 25 20  1  0  0  0  0
 27 21  1  6  0  0  0
 27 25  1  0  0  0  0
 29 28  1  0  0  0  0
 30 29  2  0  0  0  0
 31 32  1  0  0  0  0
 32 29  1  0  0  0  0
M  END
>  <MODEL>
9

>  <REMARK>
 VINA RESULT:      -5.4      1.840      2.400
  Name = 
  13 active torsions:
  status: ('A' for Active; 'I' for Inactive)
    1  A    between atoms: O_1  and  C_4
    2  A    between atoms: O_1  and  C_5
    3  A    between atoms: C_2  and  C_14
    4  A    between atoms: N_3  and  N_20
    5  A    between atoms: C_4  and  C_24
    6  A    between atoms: C_5  and  C_14
    7  A    between atoms: C_13  and  C_30
    8  A    between atoms: C_14  and  C_30
    9  A    between atoms: C_15  and  N_20
   10  A    between atoms: C_15  and  C_26
   11  A    between atoms: C_16  and  N_20
   12  A    between atoms: C_16  and  C_24
   13  A    between atoms: C_19  and  C_26
                            x       y       z     vdW  Elec       q    Type
                         _______ _______ _______ _____ _____    ______ ____

>  <TORSDO>
F 13

$$$$
