=
 OpenBabel11052417553D

 31 35  0  0  1  0  0  0  0  0999 V2000
  185.4060  178.1960  146.4860 C   0  0  2  0  0  3  0  0  0  0  0  0
  188.2780  176.6700  144.3680 C   0  0  1  0  0  3  0  0  0  0  0  0
  189.2790  176.3520  145.4930 C   0  0  1  0  0  3  0  0  0  0  0  0
  189.4170  174.8310  147.4980 C   0  0  0  0  0  2  0  0  0  0  0  0
  187.2750  177.7310  144.8430 C   0  0  2  0  0  3  0  0  0  0  0  0
  184.5110  178.6410  145.3290 C   0  0  0  0  0  2  0  0  0  0  0  0
  189.0720  174.9380  146.0140 C   0  0  0  0  0  2  0  0  0  0  0  0
  188.0160  177.6720  142.0200 C   0  0  1  0  0  3  0  0  0  0  0  0
  186.0380  179.2980  147.0650 O   0  0  0  0  0  1  0  0  0  0  0  0
  191.1850  177.2300  143.9730 N   0  0  0  0  0  2  0  0  0  0  0  0
  190.8790  175.1620  147.7910 C   0  0  0  0  0  2  0  0  0  0  0  0
  187.1060  178.6820  142.5740 N   0  0  0  0  0  2  0  0  0  0  0  0
  188.9680  177.0670  143.0600 C   0  0  1  0  0  3  0  0  0  0  0  0
  186.4410  177.1790  146.0060 C   0  0  0  0  0  2  0  0  0  0  0  0
  191.0840  176.6740  147.7890 C   0  0  0  0  0  2  0  0  0  0  0  0
  186.3430  178.1390  143.6950 C   0  0  2  0  0  3  0  0  0  0  0  0
  185.3430  179.1870  144.1710 C   0  0  0  0  0  2  0  0  0  0  0  0
  190.1110  178.0050  143.3680 C   0  0  0  0  0  2  0  0  0  0  0  0
  190.7890  176.5860  145.2350 C   0  0  1  0  0  3  0  0  0  0  0  0
  191.5100  177.2230  146.4220 C   0  0  0  0  0  2  0  0  0  0  0  0
  187.3310  176.6520  141.0970 C   0  0  0  0  0  2  0  0  0  0  0  0
  187.1580  174.6510  142.3580 O   0  0  0  0  0  0  0  0  0  0  0  0
  187.6970  175.2250  141.3750 C   0  0  0  0  0  0  0  0  0  0  0  0
  190.4710  173.2120  138.7850 C   0  0  0  0  0  0  0  0  0  0  0  0
  188.3920  174.3870  139.1430 C   0  0  0  0  0  3  0  0  0  0  0  0
  190.2780  174.0750  142.4470 C   0  0  0  0  0  1  0  0  0  0  0  0
  191.5980  172.4180  137.7070 Cl  0  0  0  0  0  0  0  0  0  0  0  0
  189.2850  173.7460  138.2840 C   0  0  0  0  0  3  0  0  0  0  0  0
  189.8760  173.9570  141.0160 C   0  0  0  0  0  0  0  0  0  0  0  0
  188.6680  174.5030  140.5160 C   0  0  0  0  0  0  0  0  0  0  0  0
  190.7650  173.3190  140.1440 C   0  0  0  0  0  3  0  0  0  0  0  0
  1  9  1  6  0  0  0
  2  5  1  0  0  0  0
  2  3  1  0  0  0  0
  3  7  1  0  0  0  0
  4 11  1  0  0  0  0
  5 14  1  0  0  0  0
  6  1  1  0  0  0  0
  7  4  1  0  0  0  0
  8 12  1  0  0  0  0
  8 13  1  0  0  0  0
 10 19  1  0  0  0  0
 12 16  1  0  0  0  0
 13 18  1  0  0  0  0
 13  2  1  0  0  0  0
 14  1  1  0  0  0  0
 15 11  1  0  0  0  0
 16 17  1  0  0  0  0
 16  5  1  0  0  0  0
 17  6  1  0  0  0  0
 18 10  1  0  0  0  0
 19  3  1  0  0  0  0
 19 20  1  0  0  0  0
 20 15  1  0  0  0  0
 21 23  1  0  0  0  0
 21  8  1  0  0  0  0
 23 22  2  0  0  0  0
 24 31  1  0  0  0  0
 25 30  2  0  0  0  0
 27 24  1  0  0  0  0
 28 24  2  0  0  0  0
 28 25  1  0  0  0  0
 29 26  1  0  0  0  0
 30 29  1  0  0  0  0
 30 23  1  0  0  0  0
 31 29  2  0  0  0  0
M  END
>  <MODEL>
1

>  <REMARK>
 VINA RESULT:      -8.5      0.000      0.000
  Name = 
  3 active torsions:
  status: ('A' for Active; 'I' for Inactive)
    1  A    between atoms: C_9  and  C_22
    2  A    between atoms: C_9  and  C_23
    3  A    between atoms: C_15  and  C_23
                            x       y       z     vdW  Elec       q    Type
                         _______ _______ _______ _____ _____    ______ ____

>  <TORSDO>
F 3

$$$$
=
 OpenBabel11052417553D

 31 35  0  0  1  0  0  0  0  0999 V2000
  194.7540  174.4260  145.1980 C   0  0  2  0  0  3  0  0  0  0  0  0
  190.9560  174.7550  144.4730 C   0  0  1  0  0  3  0  0  0  0  0  0
  190.8080  173.6610  143.4010 C   0  0  1  0  0  3  0  0  0  0  0  0
  191.0210  171.1540  143.2470 C   0  0  0  0  0  2  0  0  0  0  0  0
  192.4230  175.1930  144.5760 C   0  0  2  0  0  3  0  0  0  0  0  0
  194.8890  175.6240  146.1380 C   0  0  0  0  0  2  0  0  0  0  0  0
  190.4490  172.3280  144.0400 C   0  0  0  0  0  2  0  0  0  0  0  0
  190.3360  177.1640  145.1050 C   0  0  1  0  0  3  0  0  0  0  0  0
  195.3050  174.7200  143.9500 O   0  0  0  0  0  1  0  0  0  0  0  0
  189.2650  175.2550  142.0610 N   0  0  0  0  0  2  0  0  0  0  0  0
  190.4780  171.0810  141.8220 C   0  0  0  0  0  2  0  0  0  0  0  0
  191.7630  177.5050  145.1280 N   0  0  0  0  0  2  0  0  0  0  0  0
  190.0110  175.9380  144.2420 C   0  0  1  0  0  3  0  0  0  0  0  0
  193.2880  174.0190  145.0500 C   0  0  0  0  0  2  0  0  0  0  0  0
  191.1870  172.1040  140.9380 C   0  0  0  0  0  2  0  0  0  0  0  0
  192.5650  176.3630  145.5590 C   0  0  2  0  0  3  0  0  0  0  0  0
  194.0250  176.7910  145.6650 C   0  0  0  0  0  2  0  0  0  0  0  0
  190.0060  176.2880  142.7720 C   0  0  0  0  0  2  0  0  0  0  0  0
  189.8690  173.9200  142.1950 C   0  0  1  0  0  3  0  0  0  0  0  0
  190.4540  173.4490  140.8650 C   0  0  0  0  0  2  0  0  0  0  0  0
  189.6660  177.1800  146.4880 C   0  0  0  0  0  2  0  0  0  0  0  0
  188.1910  175.4250  147.0980 O   0  0  0  0  0  0  0  0  0  0  0  0
  188.3110  176.5400  146.5250 C   0  0  0  0  0  0  0  0  0  0  0  0
  184.8860  178.3410  144.6560 C   0  0  0  0  0  0  0  0  0  0  0  0
  186.7400  176.7930  144.6180 C   0  0  0  0  0  3  0  0  0  0  0  0
  186.6930  178.6610  147.9460 C   0  0  0  0  0  1  0  0  0  0  0  0
  183.4800  179.0420  143.8860 Cl  0  0  0  0  0  0  0  0  0  0  0  0
  185.6250  177.3590  143.9980 C   0  0  0  0  0  3  0  0  0  0  0  0
  186.3790  178.2000  146.5630 C   0  0  0  0  0  0  0  0  0  0  0  0
  187.1370  177.2010  145.9030 C   0  0  0  0  0  0  0  0  0  0  0  0
  185.2610  178.7570  145.9340 C   0  0  0  0  0  3  0  0  0  0  0  0
  1  9  1  6  0  0  0
  1  6  1  0  0  0  0
  2  5  1  0  0  0  0
  3  7  1  0  0  0  0
  3  2  1  0  0  0  0
  4  7  1  0  0  0  0
  5 14  1  0  0  0  0
  5 16  1  0  0  0  0
  8 12  1  0  0  0  0
  8 21  1  0  0  0  0
 10 19  1  0  0  0  0
 10 18  1  0  0  0  0
 11  4  1  0  0  0  0
 12 16  1  0  0  0  0
 13  2  1  0  0  0  0
 13  8  1  0  0  0  0
 14  1  1  0  0  0  0
 15 11  1  0  0  0  0
 16 17  1  0  0  0  0
 17  6  1  0  0  0  0
 18 13  1  0  0  0  0
 19  3  1  0  0  0  0
 20 15  1  0  0  0  0
 20 19  1  0  0  0  0
 21 23  1  0  0  0  0
 23 22  2  0  0  0  0
 24 31  1  0  0  0  0
 25 30  2  0  0  0  0
 27 24  1  0  0  0  0
 28 25  1  0  0  0  0
 28 24  2  0  0  0  0
 29 26  1  0  0  0  0
 30 23  1  0  0  0  0
 30 29  1  0  0  0  0
 31 29  2  0  0  0  0
M  END
>  <MODEL>
2

>  <REMARK>
 VINA RESULT:      -8.4      3.408      7.088
  Name = 
  3 active torsions:
  status: ('A' for Active; 'I' for Inactive)
    1  A    between atoms: C_9  and  C_22
    2  A    between atoms: C_9  and  C_23
    3  A    between atoms: C_15  and  C_23
                            x       y       z     vdW  Elec       q    Type
                         _______ _______ _______ _____ _____    ______ ____

>  <TORSDO>
F 3

$$$$
=
 OpenBabel11052417553D

 31 35  0  0  1  0  0  0  0  0999 V2000
  185.5410  177.9720  146.0340 C   0  0  2  0  0  3  0  0  0  0  0  0
  188.4400  176.1750  144.1830 C   0  0  1  0  0  3  0  0  0  0  0  0
  189.4270  176.0160  145.3530 C   0  0  1  0  0  3  0  0  0  0  0  0
  189.5400  174.7860  147.5500 C   0  0  0  0  0  2  0  0  0  0  0  0
  187.4310  177.2880  144.4950 C   0  0  2  0  0  3  0  0  0  0  0  0
  184.6610  178.2510  144.8160 C   0  0  0  0  0  2  0  0  0  0  0  0
  189.2130  174.6870  146.0610 C   0  0  0  0  0  2  0  0  0  0  0  0
  188.2080  176.8430  141.7160 C   0  0  1  0  0  3  0  0  0  0  0  0
  186.1660  179.1440  146.4630 O   0  0  0  0  0  1  0  0  0  0  0  0
  191.3520  176.6800  143.7500 N   0  0  0  0  0  2  0  0  0  0  0  0
  190.9980  175.1560  147.8130 C   0  0  0  0  0  2  0  0  0  0  0  0
  187.2910  177.9180  142.1140 N   0  0  0  0  0  2  0  0  0  0  0  0
  189.1470  176.3890  142.8410 C   0  0  1  0  0  3  0  0  0  0  0  0
  186.5830  176.9000  145.7120 C   0  0  0  0  0  2  0  0  0  0  0  0
  191.2030  176.6540  147.6050 C   0  0  0  0  0  2  0  0  0  0  0  0
  186.5140  177.5320  143.2890 C   0  0  2  0  0  3  0  0  0  0  0  0
  185.5080  178.6350  143.6040 C   0  0  0  0  0  2  0  0  0  0  0  0
  190.2860  177.3630  143.0310 C   0  0  0  0  0  2  0  0  0  0  0  0
  190.9410  176.2160  145.0840 C   0  0  1  0  0  3  0  0  0  0  0  0
  191.6460  177.0110  146.1820 C   0  0  0  0  0  2  0  0  0  0  0  0
  187.5350  175.7050  140.9330 C   0  0  0  0  0  2  0  0  0  0  0  0
  188.5880  174.5460  139.1510 O   0  0  0  0  0  0  0  0  0  0  0  0
  188.4870  174.6770  140.4000 C   0  0  0  0  0  0  0  0  0  0  0  0
  190.9050  172.3280  143.0640 C   0  0  0  0  0  0  0  0  0  0  0  0
  190.6830  174.0210  141.3550 C   0  0  0  0  0  3  0  0  0  0  0  0
  187.2410  172.6300  142.2430 C   0  0  0  0  0  1  0  0  0  0  0  0
  191.9080  171.4010  144.1580 Cl  0  0  0  0  0  0  0  0  0  0  0  0
  191.4840  173.2750  142.2210 C   0  0  0  0  0  3  0  0  0  0  0  0
  188.7120  172.8660  142.1770 C   0  0  0  0  0  0  0  0  0  0  0  0
  189.2910  173.8310  141.3160 C   0  0  0  0  0  0  0  0  0  0  0  0
  189.5250  172.1270  143.0430 C   0  0  0  0  0  3  0  0  0  0  0  0
  1  9  1  6  0  0  0
  2  5  1  0  0  0  0
  2  3  1  0  0  0  0
  3  7  1  0  0  0  0
  4 11  1  0  0  0  0
  5 14  1  0  0  0  0
  6  1  1  0  0  0  0
  7  4  1  0  0  0  0
  8 12  1  0  0  0  0
  8 13  1  0  0  0  0
 10 19  1  0  0  0  0
 12 16  1  0  0  0  0
 13 18  1  0  0  0  0
 13  2  1  0  0  0  0
 14  1  1  0  0  0  0
 15 11  1  0  0  0  0
 16 17  1  0  0  0  0
 16  5  1  0  0  0  0
 17  6  1  0  0  0  0
 18 10  1  0  0  0  0
 19  3  1  0  0  0  0
 19 20  1  0  0  0  0
 20 15  1  0  0  0  0
 21  8  1  0  0  0  0
 22 23  2  0  0  0  0
 23 21  1  0  0  0  0
 23 30  1  0  0  0  0
 24 27  1  0  0  0  0
 25 28  1  0  0  0  0
 28 24  2  0  0  0  0
 29 26  1  0  0  0  0
 29 31  2  0  0  0  0
 30 25  2  0  0  0  0
 30 29  1  0  0  0  0
 31 24  1  0  0  0  0
M  END
>  <MODEL>
3

>  <REMARK>
 VINA RESULT:      -8.3      1.666      2.148
  Name = 
  3 active torsions:
  status: ('A' for Active; 'I' for Inactive)
    1  A    between atoms: C_9  and  C_22
    2  A    between atoms: C_9  and  C_23
    3  A    between atoms: C_15  and  C_23
                            x       y       z     vdW  Elec       q    Type
                         _______ _______ _______ _____ _____    ______ ____

>  <TORSDO>
F 3

$$$$
=
 OpenBabel11052417553D

 31 35  0  0  1  0  0  0  0  0999 V2000
  192.5650  172.3840  140.4100 C   0  0  2  0  0  3  0  0  0  0  0  0
  191.0460  175.1690  142.6450 C   0  0  1  0  0  3  0  0  0  0  0  0
  192.1760  175.3070  143.6810 C   0  0  1  0  0  3  0  0  0  0  0  0
  194.5880  176.0350  143.7300 C   0  0  0  0  0  2  0  0  0  0  0  0
  191.1400  173.8070  141.9440 C   0  0  2  0  0  3  0  0  0  0  0  0
  191.3560  172.1670  139.5010 C   0  0  0  0  0  2  0  0  0  0  0  0
  193.1770  176.3660  143.2470 C   0  0  0  0  0  2  0  0  0  0  0  0
  188.5040  175.0020  142.3300 C   0  0  1  0  0  3  0  0  0  0  0  0
  192.6870  171.3310  141.3180 O   0  0  0  0  0  1  0  0  0  0  0  0
  190.3790  175.4750  145.5410 N   0  0  0  0  0  2  0  0  0  0  0  0
  194.6940  175.9750  145.2520 C   0  0  0  0  0  2  0  0  0  0  0  0
  188.6860  173.6810  141.7170 N   0  0  0  0  0  2  0  0  0  0  0  0
  189.6600  175.4190  143.2480 C   0  0  1  0  0  3  0  0  0  0  0  0
  192.4500  173.7160  141.1520 C   0  0  0  0  0  2  0  0  0  0  0  0
  194.1410  174.6470  145.7630 C   0  0  0  0  0  2  0  0  0  0  0  0
  189.9520  173.6130  140.9910 C   0  0  2  0  0  3  0  0  0  0  0  0
  190.0520  172.2620  140.2900 C   0  0  0  0  0  2  0  0  0  0  0  0
  189.5710  174.7260  144.5880 C   0  0  0  0  0  2  0  0  0  0  0  0
  191.8010  175.5350  145.1670 C   0  0  1  0  0  3  0  0  0  0  0  0
  192.6550  174.7160  146.1350 C   0  0  0  0  0  2  0  0  0  0  0  0
  188.0330  176.0870  141.3480 C   0  0  0  0  0  2  0  0  0  0  0  0
  188.7170  178.3450  141.5990 O   0  0  0  0  0  0  0  0  0  0  0  0
  187.9010  177.4520  141.9540 C   0  0  0  0  0  0  0  0  0  0  0  0
  184.9190  178.3610  144.9100 C   0  0  0  0  0  0  0  0  0  0  0  0
  187.1720  177.7290  144.3110 C   0  0  0  0  0  3  0  0  0  0  0  0
  185.0800  178.1810  141.1500 C   0  0  0  0  0  1  0  0  0  0  0  0
  183.7280  178.7530  146.1300 Cl  0  0  0  0  0  0  0  0  0  0  0  0
  186.2200  178.0320  145.2860 C   0  0  0  0  0  3  0  0  0  0  0  0
  185.5140  178.0850  142.5740 C   0  0  0  0  0  0  0  0  0  0  0  0
  186.8390  177.7490  142.9460 C   0  0  0  0  0  0  0  0  0  0  0  0
  184.5690  178.3900  143.5600 C   0  0  0  0  0  3  0  0  0  0  0  0
  1 14  1  0  0  0  0
  1  9  1  1  0  0  0
  2 13  1  0  0  0  0
  2  3  1  0  0  0  0
  3 19  1  0  0  0  0
  4 11  1  0  0  0  0
  5  2  1  0  0  0  0
  6 17  1  0  0  0  0
  6  1  1  0  0  0  0
  7  3  1  0  0  0  0
  7  4  1  0  0  0  0
  8 13  1  0  0  0  0
 11 15  1  0  0  0  0
 12  8  1  0  0  0  0
 13 18  1  0  0  0  0
 14  5  1  0  0  0  0
 15 20  1  0  0  0  0
 16 12  1  0  0  0  0
 16  5  1  0  0  0  0
 17 16  1  0  0  0  0
 18 10  1  0  0  0  0
 19 10  1  0  0  0  0
 19 20  1  0  0  0  0
 21 23  1  0  0  0  0
 21  8  1  0  0  0  0
 22 23  2  0  0  0  0
 23 30  1  0  0  0  0
 24 28  1  0  0  0  0
 24 27  1  0  0  0  0
 25 28  2  0  0  0  0
 26 29  1  0  0  0  0
 29 30  2  0  0  0  0
 29 31  1  0  0  0  0
 30 25  1  0  0  0  0
 31 24  2  0  0  0  0
M  END
>  <MODEL>
4

>  <REMARK>
 VINA RESULT:      -8.3      3.441      6.743
  Name = 
  3 active torsions:
  status: ('A' for Active; 'I' for Inactive)
    1  A    between atoms: C_9  and  C_22
    2  A    between atoms: C_9  and  C_23
    3  A    between atoms: C_15  and  C_23
                            x       y       z     vdW  Elec       q    Type
                         _______ _______ _______ _____ _____    ______ ____

>  <TORSDO>
F 3

$$$$
=
 OpenBabel11052417553D

 31 35  0  0  1  0  0  0  0  0999 V2000
  191.1610  172.5310  142.2660 C   0  0  2  0  0  3  0  0  0  0  0  0
  192.0790  175.6040  144.4520 C   0  0  1  0  0  3  0  0  0  0  0  0
  193.6130  175.5470  144.3340 C   0  0  1  0  0  3  0  0  0  0  0  0
  195.3610  175.8060  142.5370 C   0  0  0  0  0  2  0  0  0  0  0  0
  191.4770  174.2330  144.1140 C   0  0  2  0  0  3  0  0  0  0  0  0
  189.6570  172.5270  142.5390 C   0  0  0  0  0  2  0  0  0  0  0  0
  194.0930  176.3880  143.1610 C   0  0  0  0  0  2  0  0  0  0  0  0
  190.1140  175.9140  146.0730 C   0  0  1  0  0  3  0  0  0  0  0  0
  191.7850  171.4940  142.9620 O   0  0  0  0  0  1  0  0  0  0  0  0
  193.7740  176.0950  146.8620 N   0  0  0  0  0  2  0  0  0  0  0  0
  196.5340  175.7620  143.5130 C   0  0  0  0  0  2  0  0  0  0  0  0
  189.6410  174.5690  145.7260 N   0  0  0  0  0  2  0  0  0  0  0  0
  191.6110  176.1240  145.8140 C   0  0  1  0  0  3  0  0  0  0  0  0
  191.7750  173.8770  142.6520 C   0  0  0  0  0  2  0  0  0  0  0  0
  196.3830  174.5750  144.4610 C   0  0  0  0  0  2  0  0  0  0  0  0
  189.9590  174.2450  144.3370 C   0  0  2  0  0  3  0  0  0  0  0  0
  189.3620  172.8850  143.9940 C   0  0  0  0  0  2  0  0  0  0  0  0
  192.4490  175.4920  146.9000 C   0  0  0  0  0  2  0  0  0  0  0  0
  194.4690  175.8760  145.5840 C   0  0  1  0  0  3  0  0  0  0  0  0
  195.6580  174.9330  145.7630 C   0  0  0  0  0  2  0  0  0  0  0  0
  189.2040  177.0460  145.5710 C   0  0  0  0  0  2  0  0  0  0  0  0
  187.4640  176.3760  147.0380 O   0  0  0  0  0  0  0  0  0  0  0  0
  187.7550  176.8720  145.9170 C   0  0  0  0  0  0  0  0  0  0  0  0
  184.6620  177.9050  143.1200 C   0  0  0  0  0  0  0  0  0  0  0  0
  186.5860  176.5850  143.7460 C   0  0  0  0  0  3  0  0  0  0  0  0
  185.7460  179.0410  146.5440 C   0  0  0  0  0  1  0  0  0  0  0  0
  183.3950  178.2910  141.9770 Cl  0  0  0  0  0  0  0  0  0  0  0  0
  185.5820  176.8990  142.8280 C   0  0  0  0  0  3  0  0  0  0  0  0
  185.7480  178.2920  145.2550 C   0  0  0  0  0  0  0  0  0  0  0  0
  186.6880  177.2720  144.9670 C   0  0  0  0  0  0  0  0  0  0  0  0
  184.7440  178.5960  144.3290 C   0  0  0  0  0  3  0  0  0  0  0  0
  1  6  1  0  0  0  0
  1 14  1  0  0  0  0
  1  9  1  1  0  0  0
  2 13  1  0  0  0  0
  3  2  1  0  0  0  0
  3 19  1  0  0  0  0
  4  7  1  0  0  0  0
  4 11  1  0  0  0  0
  5 16  1  0  0  0  0
  5  2  1  0  0  0  0
  6 17  1  0  0  0  0
  7  3  1  0  0  0  0
 10 18  1  0  0  0  0
 11 15  1  0  0  0  0
 12  8  1  0  0  0  0
 13  8  1  0  0  0  0
 13 18  1  0  0  0  0
 14  5  1  0  0  0  0
 15 20  1  0  0  0  0
 16 12  1  0  0  0  0
 17 16  1  0  0  0  0
 19 20  1  0  0  0  0
 19 10  1  0  0  0  0
 21 23  1  0  0  0  0
 21  8  1  0  0  0  0
 23 22  2  0  0  0  0
 24 31  1  0  0  0  0
 25 30  2  0  0  0  0
 27 24  1  0  0  0  0
 28 24  2  0  0  0  0
 28 25  1  0  0  0  0
 29 26  1  0  0  0  0
 30 29  1  0  0  0  0
 30 23  1  0  0  0  0
 31 29  2  0  0  0  0
M  END
>  <MODEL>
5

>  <REMARK>
 VINA RESULT:      -8.2      3.567      6.665
  Name = 
  3 active torsions:
  status: ('A' for Active; 'I' for Inactive)
    1  A    between atoms: C_9  and  C_22
    2  A    between atoms: C_9  and  C_23
    3  A    between atoms: C_15  and  C_23
                            x       y       z     vdW  Elec       q    Type
                         _______ _______ _______ _____ _____    ______ ____

>  <TORSDO>
F 3

$$$$
=
 OpenBabel11052417553D

 31 35  0  0  1  0  0  0  0  0999 V2000
  188.4390  177.0150  146.3230 C   0  0  2  0  0  3  0  0  0  0  0  0
  191.0660  175.2730  144.0580 C   0  0  1  0  0  3  0  0  0  0  0  0
  190.1240  174.4200  143.1900 C   0  0  1  0  0  3  0  0  0  0  0  0
  188.3120  174.7900  141.4770 C   0  0  0  0  0  2  0  0  0  0  0  0
  190.3590  175.6740  145.3600 C   0  0  2  0  0  3  0  0  0  0  0  0
  189.4150  177.7200  147.2640 C   0  0  0  0  0  2  0  0  0  0  0  0
  189.7180  175.1760  141.9340 C   0  0  0  0  0  2  0  0  0  0  0  0
  193.2490  175.2660  145.4070 C   0  0  1  0  0  3  0  0  0  0  0  0
  187.8490  175.9220  146.9600 O   0  0  0  0  0  1  0  0  0  0  0  0
  191.8000  172.4540  143.3970 N   0  0  0  0  0  2  0  0  0  0  0  0
  188.1910  173.3110  141.1180 C   0  0  0  0  0  2  0  0  0  0  0  0
  192.4820  175.6000  146.6130 N   0  0  0  0  0  2  0  0  0  0  0  0
  192.4120  174.5890  144.3140 C   0  0  1  0  0  3  0  0  0  0  0  0
  189.1510  176.5660  145.0460 C   0  0  0  0  0  2  0  0  0  0  0  0
  188.0760  172.4710  142.3870 C   0  0  0  0  0  2  0  0  0  0  0  0
  191.3250  176.4280  146.2830 C   0  0  2  0  0  3  0  0  0  0  0  0
  190.6180  176.8310  147.5730 C   0  0  0  0  0  2  0  0  0  0  0  0
  192.1750  173.1310  144.6300 C   0  0  0  0  0  2  0  0  0  0  0  0
  190.5620  172.9840  142.8030 C   0  0  1  0  0  3  0  0  0  0  0  0
  189.4290  171.9630  142.8990 C   0  0  0  0  0  2  0  0  0  0  0  0
  194.1640  176.3990  144.9150 C   0  0  0  0  0  2  0  0  0  0  0  0
  196.2280  176.7700  143.8060 O   0  0  0  0  0  0  0  0  0  0  0  0
  195.4980  175.9390  144.4100 C   0  0  0  0  0  0  0  0  0  0  0  0
  196.7760  171.9000  145.1260 C   0  0  0  0  0  0  0  0  0  0  0  0
  196.4200  174.1660  145.8830 C   0  0  0  0  0  3  0  0  0  0  0  0
  195.3730  173.8520  142.2260 C   0  0  0  0  0  1  0  0  0  0  0  0
  197.2780  170.2550  145.4480 Cl  0  0  0  0  0  0  0  0  0  0  0  0
  196.8300  172.8560  146.1390 C   0  0  0  0  0  3  0  0  0  0  0  0
  195.9010  173.5610  143.5900 C   0  0  0  0  0  0  0  0  0  0  0  0
  195.9520  174.5410  144.6130 C   0  0  0  0  0  0  0  0  0  0  0  0
  196.3110  172.2510  143.8590 C   0  0  0  0  0  3  0  0  0  0  0  0
  1  9  1  1  0  0  0
  1  6  1  0  0  0  0
  2 13  1  0  0  0  0
  2  5  1  0  0  0  0
  3  2  1  0  0  0  0
  4  7  1  0  0  0  0
  5 16  1  0  0  0  0
  6 17  1  0  0  0  0
  7  3  1  0  0  0  0
  8 12  1  0  0  0  0
 10 18  1  0  0  0  0
 11  4  1  0  0  0  0
 11 15  1  0  0  0  0
 13 18  1  0  0  0  0
 13  8  1  0  0  0  0
 14  5  1  0  0  0  0
 14  1  1  0  0  0  0
 15 20  1  0  0  0  0
 16 12  1  0  0  0  0
 16 17  1  0  0  0  0
 19 20  1  0  0  0  0
 19  3  1  0  0  0  0
 19 10  1  0  0  0  0
 21  8  1  0  0  0  0
 22 23  2  0  0  0  0
 23 30  1  0  0  0  0
 23 21  1  0  0  0  0
 24 27  1  0  0  0  0
 24 28  1  0  0  0  0
 25 28  2  0  0  0  0
 26 29  1  0  0  0  0
 29 31  1  0  0  0  0
 29 30  2  0  0  0  0
 30 25  1  0  0  0  0
 31 24  2  0  0  0  0
M  END
>  <MODEL>
6

>  <REMARK>
 VINA RESULT:      -7.8      4.335      6.696
  Name = 
  3 active torsions:
  status: ('A' for Active; 'I' for Inactive)
    1  A    between atoms: C_9  and  C_22
    2  A    between atoms: C_9  and  C_23
    3  A    between atoms: C_15  and  C_23
                            x       y       z     vdW  Elec       q    Type
                         _______ _______ _______ _____ _____    ______ ____

>  <TORSDO>
F 3

$$$$
=
 OpenBabel11052417553D

 31 35  0  0  1  0  0  0  0  0999 V2000
  192.3720  175.8580  143.8150 C   0  0  2  0  0  3  0  0  0  0  0  0
  189.3860  173.9380  142.2480 C   0  0  1  0  0  3  0  0  0  0  0  0
  190.1410  172.7320  141.6620 C   0  0  1  0  0  3  0  0  0  0  0  0
  191.4710  170.7660  142.5110 C   0  0  0  0  0  2  0  0  0  0  0  0
  190.3580  175.1020  142.4810 C   0  0  2  0  0  3  0  0  0  0  0  0
  191.6100  177.1130  144.2400 C   0  0  0  0  0  2  0  0  0  0  0  0
  190.1940  171.5900  142.6660 C   0  0  0  0  0  2  0  0  0  0  0  0
  187.5890  175.7100  141.7840 C   0  0  1  0  0  3  0  0  0  0  0  0
  193.1570  176.1220  142.6910 O   0  0  0  0  0  1  0  0  0  0  0  0
  188.6750  172.9170  139.5330 N   0  0  0  0  0  2  0  0  0  0  0  0
  191.5850  170.1060  141.1390 C   0  0  0  0  0  2  0  0  0  0  0  0
  188.6000  176.7570  141.9730 N   0  0  0  0  0  2  0  0  0  0  0  0
  188.1790  174.3470  141.3990 C   0  0  1  0  0  3  0  0  0  0  0  0
  191.4040  174.7090  143.5300 C   0  0  0  0  0  2  0  0  0  0  0  0
  192.0460  171.1280  140.1020 C   0  0  0  0  0  2  0  0  0  0  0  0
  189.5970  176.3470  142.9580 C   0  0  2  0  0  3  0  0  0  0  0  0
  190.5670  177.5010  143.1950 C   0  0  0  0  0  2  0  0  0  0  0  0
  188.5660  174.3110  139.9390 C   0  0  0  0  0  2  0  0  0  0  0  0
  189.7040  172.1790  140.2810 C   0  0  1  0  0  3  0  0  0  0  0  0
  190.8830  171.8180  139.3790 C   0  0  0  0  0  2  0  0  0  0  0  0
  186.5210  175.6660  142.8890 C   0  0  0  0  0  2  0  0  0  0  0  0
  185.3150  177.6430  142.3750 O   0  0  0  0  0  0  0  0  0  0  0  0
  185.9550  177.0050  143.2530 C   0  0  0  0  0  0  0  0  0  0  0  0
  186.6260  178.6280  147.1750 C   0  0  0  0  0  0  0  0  0  0  0  0
  187.2630  177.1700  145.3570 C   0  0  0  0  0  3  0  0  0  0  0  0
  184.0660  179.0430  144.4430 C   0  0  0  0  0  1  0  0  0  0  0  0
  186.9340  179.2940  148.7630 Cl  0  0  0  0  0  0  0  0  0  0  0  0
  187.5050  177.6940  146.6280 C   0  0  0  0  0  3  0  0  0  0  0  0
  185.2540  178.5210  145.1760 C   0  0  0  0  0  0  0  0  0  0  0  0
  186.1410  177.5700  144.6120 C   0  0  0  0  0  0  0  0  0  0  0  0
  185.5080  179.0410  146.4500 C   0  0  0  0  0  3  0  0  0  0  0  0
  1  9  1  6  0  0  0
  1  6  1  0  0  0  0
  2  5  1  0  0  0  0
  3  2  1  0  0  0  0
  3  7  1  0  0  0  0
  4  7  1  0  0  0  0
  5 16  1  0  0  0  0
  5 14  1  0  0  0  0
  8 12  1  0  0  0  0
  8 21  1  0  0  0  0
 10 18  1  0  0  0  0
 10 19  1  0  0  0  0
 11  4  1  0  0  0  0
 12 16  1  0  0  0  0
 13  8  1  0  0  0  0
 13  2  1  0  0  0  0
 14  1  1  0  0  0  0
 15 11  1  0  0  0  0
 16 17  1  0  0  0  0
 17  6  1  0  0  0  0
 18 13  1  0  0  0  0
 19  3  1  0  0  0  0
 20 15  1  0  0  0  0
 20 19  1  0  0  0  0
 21 23  1  0  0  0  0
 22 23  2  0  0  0  0
 23 30  1  0  0  0  0
 24 27  1  0  0  0  0
 25 28  2  0  0  0  0
 26 29  1  0  0  0  0
 28 24  1  0  0  0  0
 29 31  1  0  0  0  0
 30 29  2  0  0  0  0
 30 25  1  0  0  0  0
 31 24  2  0  0  0  0
M  END
>  <MODEL>
7

>  <REMARK>
 VINA RESULT:      -7.8      3.433      6.996
  Name = 
  3 active torsions:
  status: ('A' for Active; 'I' for Inactive)
    1  A    between atoms: C_9  and  C_22
    2  A    between atoms: C_9  and  C_23
    3  A    between atoms: C_15  and  C_23
                            x       y       z     vdW  Elec       q    Type
                         _______ _______ _______ _____ _____    ______ ____

>  <TORSDO>
F 3

$$$$
=
 OpenBabel11052417553D

 31 35  0  0  1  0  0  0  0  0999 V2000
  186.0060  177.5690  144.7310 C   0  0  2  0  0  3  0  0  0  0  0  0
  188.9010  175.1260  143.8850 C   0  0  1  0  0  3  0  0  0  0  0  0
  189.7910  175.3520  145.1200 C   0  0  1  0  0  3  0  0  0  0  0  0
  189.6690  174.9710  147.6080 C   0  0  0  0  0  2  0  0  0  0  0  0
  187.9490  176.3160  143.6990 C   0  0  2  0  0  3  0  0  0  0  0  0
  185.2340  177.4350  143.4190 C   0  0  0  0  0  2  0  0  0  0  0  0
  189.4410  174.3660  146.2230 C   0  0  0  0  0  2  0  0  0  0  0  0
  188.8860  174.8910  141.3300 C   0  0  1  0  0  3  0  0  0  0  0  0
  186.6770  178.7920  144.7800 O   0  0  0  0  0  1  0  0  0  0  0  0
  191.8630  175.3350  143.5630 N   0  0  0  0  0  2  0  0  0  0  0  0
  191.1270  175.3540  147.8530 C   0  0  0  0  0  2  0  0  0  0  0  0
  188.0170  176.0710  141.2460 N   0  0  0  0  0  2  0  0  0  0  0  0
  189.7110  174.8260  142.6210 C   0  0  1  0  0  3  0  0  0  0  0  0
  186.9940  176.4140  144.8950 C   0  0  0  0  0  2  0  0  0  0  0  0
  191.4450  176.6750  147.1570 C   0  0  0  0  0  2  0  0  0  0  0  0
  187.1360  176.1540  142.4080 C   0  0  2  0  0  3  0  0  0  0  0  0
  186.1860  177.3340  142.2300 C   0  0  0  0  0  2  0  0  0  0  0  0
  190.8970  175.7610  142.5600 C   0  0  0  0  0  2  0  0  0  0  0  0
  191.3300  175.3860  144.9330 C   0  0  1  0  0  3  0  0  0  0  0  0
  192.0090  176.4900  145.7430 C   0  0  0  0  0  2  0  0  0  0  0  0
  188.1940  173.5770  140.9350 C   0  0  0  0  0  2  0  0  0  0  0  0
  188.2290  172.2380  138.9760 O   0  0  0  0  0  0  0  0  0  0  0  0
  188.9120  172.7960  139.8760 C   0  0  0  0  0  0  0  0  0  0  0  0
  193.2040  172.5830  139.8520 C   0  0  0  0  0  0  0  0  0  0  0  0
  191.1280  173.4410  138.9610 C   0  0  0  0  0  3  0  0  0  0  0  0
  190.4000  171.0540  141.8490 C   0  0  0  0  0  1  0  0  0  0  0  0
  194.9530  172.5330  139.8400 Cl  0  0  0  0  0  0  0  0  0  0  0  0
  192.5240  173.3930  138.9440 C   0  0  0  0  0  3  0  0  0  0  0  0
  191.0920  171.8590  140.8030 C   0  0  0  0  0  0  0  0  0  0  0  0
  190.3920  172.6790  139.8830 C   0  0  0  0  0  0  0  0  0  0  0  0
  192.4910  171.8220  140.7780 C   0  0  0  0  0  3  0  0  0  0  0  0
  1  9  1  6  0  0  0
  1 14  1  0  0  0  0
  2  3  1  0  0  0  0
  3  7  1  0  0  0  0
  4 11  1  0  0  0  0
  5  2  1  0  0  0  0
  5 14  1  0  0  0  0
  6  1  1  0  0  0  0
  7  4  1  0  0  0  0
  8 13  1  0  0  0  0
 10 19  1  0  0  0  0
 12  8  1  0  0  0  0
 12 16  1  0  0  0  0
 13  2  1  0  0  0  0
 15 11  1  0  0  0  0
 16  5  1  0  0  0  0
 17 16  1  0  0  0  0
 17  6  1  0  0  0  0
 18 13  1  0  0  0  0
 18 10  1  0  0  0  0
 19  3  1  0  0  0  0
 19 20  1  0  0  0  0
 20 15  1  0  0  0  0
 21  8  1  0  0  0  0
 22 23  2  0  0  0  0
 23 30  1  0  0  0  0
 23 21  1  0  0  0  0
 24 31  1  0  0  0  0
 25 30  2  0  0  0  0
 27 24  1  0  0  0  0
 28 25  1  0  0  0  0
 28 24  2  0  0  0  0
 29 26  1  0  0  0  0
 30 29  1  0  0  0  0
 31 29  2  0  0  0  0
M  END
>  <MODEL>
8

>  <REMARK>
 VINA RESULT:      -7.7      1.893      2.469
  Name = 
  3 active torsions:
  status: ('A' for Active; 'I' for Inactive)
    1  A    between atoms: C_9  and  C_22
    2  A    between atoms: C_9  and  C_23
    3  A    between atoms: C_15  and  C_23
                            x       y       z     vdW  Elec       q    Type
                         _______ _______ _______ _____ _____    ______ ____

>  <TORSDO>
F 3

$$$$
=
 OpenBabel11052417553D

 31 35  0  0  1  0  0  0  0  0999 V2000
  185.7340  177.8270  145.5500 C   0  0  2  0  0  3  0  0  0  0  0  0
  188.6160  175.6700  144.1010 C   0  0  1  0  0  3  0  0  0  0  0  0
  189.5770  175.6930  145.3020 C   0  0  1  0  0  3  0  0  0  0  0  0
  189.6180  174.8570  147.6800 C   0  0  0  0  0  2  0  0  0  0  0  0
  187.6320  176.8450  144.1940 C   0  0  2  0  0  3  0  0  0  0  0  0
  184.8840  177.9130  144.2830 C   0  0  0  0  0  2  0  0  0  0  0  0
  189.3160  174.5110  146.2230 C   0  0  0  0  0  2  0  0  0  0  0  0
  188.4460  175.9090  141.5510 C   0  0  1  0  0  3  0  0  0  0  0  0
  186.3820  179.0410  145.7860 O   0  0  0  0  0  1  0  0  0  0  0  0
  191.5480  176.0250  143.6520 N   0  0  0  0  0  2  0  0  0  0  0  0
  191.0800  175.2330  147.9070 C   0  0  0  0  0  2  0  0  0  0  0  0
  187.5520  177.0570  141.7380 N   0  0  0  0  0  2  0  0  0  0  0  0
  189.3520  175.6330  142.7580 C   0  0  1  0  0  3  0  0  0  0  0  0
  186.7520  176.6920  145.4400 C   0  0  0  0  0  2  0  0  0  0  0  0
  191.3290  176.6680  147.4500 C   0  0  0  0  0  2  0  0  0  0  0  0
  186.7430  176.8990  142.9440 C   0  0  2  0  0  3  0  0  0  0  0  0
  185.7620  178.0620  143.0430 C   0  0  0  0  0  2  0  0  0  0  0  0
  190.5140  176.5980  142.8030 C   0  0  0  0  0  2  0  0  0  0  0  0
  191.1000  175.8070  145.0370 C   0  0  1  0  0  3  0  0  0  0  0  0
  191.8080  176.7630  145.9960 C   0  0  0  0  0  2  0  0  0  0  0  0
  187.7570  174.6690  140.9610 C   0  0  0  0  0  2  0  0  0  0  0  0
  188.7690  172.5630  141.3710 O   0  0  0  0  0  0  0  0  0  0  0  0
  188.6940  173.5560  140.5990 C   0  0  0  0  0  0  0  0  0  0  0  0
  190.9710  173.8020  136.9640 C   0  0  0  0  0  0  0  0  0  0  0  0
  188.8560  173.6900  138.1250 C   0  0  0  0  0  3  0  0  0  0  0  0
  191.7150  173.6170  140.6520 C   0  0  0  0  0  1  0  0  0  0  0  0
  191.8770  173.9280  135.4720 Cl  0  0  0  0  0  0  0  0  0  0  0  0
  189.5770  173.7810  136.9340 C   0  0  0  0  0  3  0  0  0  0  0  0
  190.9310  173.6390  139.3840 C   0  0  0  0  0  0  0  0  0  0  0  0
  189.5140  173.6170  139.3640 C   0  0  0  0  0  0  0  0  0  0  0  0
  191.6430  173.7340  138.1840 C   0  0  0  0  0  3  0  0  0  0  0  0
  1  9  1  6  0  0  0
  2  5  1  0  0  0  0
  2  3  1  0  0  0  0
  3  7  1  0  0  0  0
  4 11  1  0  0  0  0
  5 14  1  0  0  0  0
  6  1  1  0  0  0  0
  7  4  1  0  0  0  0
  8 12  1  0  0  0  0
  8 13  1  0  0  0  0
 10 19  1  0  0  0  0
 12 16  1  0  0  0  0
 13 18  1  0  0  0  0
 13  2  1  0  0  0  0
 14  1  1  0  0  0  0
 15 11  1  0  0  0  0
 16 17  1  0  0  0  0
 16  5  1  0  0  0  0
 17  6  1  0  0  0  0
 18 10  1  0  0  0  0
 19  3  1  0  0  0  0
 19 20  1  0  0  0  0
 20 15  1  0  0  0  0
 21  8  1  0  0  0  0
 23 21  1  0  0  0  0
 23 22  2  0  0  0  0
 24 31  1  0  0  0  0
 25 30  2  0  0  0  0
 27 24  1  0  0  0  0
 28 24  2  0  0  0  0
 28 25  1  0  0  0  0
 29 26  1  0  0  0  0
 30 29  1  0  0  0  0
 30 23  1  0  0  0  0
 31 29  2  0  0  0  0
M  END
>  <MODEL>
9

>  <REMARK>
 VINA RESULT:      -7.6      1.300      1.577
  Name = 
  3 active torsions:
  status: ('A' for Active; 'I' for Inactive)
    1  A    between atoms: C_9  and  C_22
    2  A    between atoms: C_9  and  C_23
    3  A    between atoms: C_15  and  C_23
                            x       y       z     vdW  Elec       q    Type
                         _______ _______ _______ _____ _____    ______ ____

>  <TORSDO>
F 3

$$$$
