=
 OpenBabel11052419173D

 32 37  0  0  1  0  0  0  0  0999 V2000
  189.9060  176.0150  144.7420 C   0  0  1  0  0  3  0  0  0  0  0  0
  187.7200  177.0860  144.2330 C   0  0  1  0  0  3  0  0  0  0  0  0
  191.1440  176.0860  145.6350 C   0  0  0  0  0  2  0  0  0  0  0  0
  188.9640  177.1720  145.0970 C   0  0  1  0  0  3  0  0  0  0  0  0
  186.7330  178.1740  144.6460 C   0  0  1  0  0  3  0  0  0  0  0  0
  185.6680  177.5400  139.7530 C   0  0  0  0  0  2  0  0  0  0  0  0
  188.0810  177.2270  142.7550 C   0  0  1  0  0  3  0  0  0  0  0  0
  184.5860  178.3140  141.5940 C   0  0  0  0  0  2  0  0  0  0  0  0
  185.8390  178.3040  142.4650 C   0  0  1  0  0  3  0  0  0  0  0  0
  188.5380  177.0910  146.5720 C   0  0  2  0  0  3  0  0  0  0  0  0
  185.4980  178.0590  143.8680 N   0  0  0  0  0  2  0  0  0  0  0  0
  187.6800  178.1640  146.9170 O   0  0  0  0  0  0  0  0  0  0  0  0
  189.7740  177.1210  147.4670 C   0  0  0  0  0  2  0  0  0  0  0  0
  189.0050  176.0720  142.3650 C   0  0  0  0  0  2  0  0  0  0  0  0
  190.2680  176.0600  143.2410 C   0  0  2  0  0  3  0  0  0  0  0  0
  186.7860  177.2120  141.9400 C   0  0  1  0  0  3  0  0  0  0  0  0
  186.4790  178.1030  146.1620 C   0  0  2  0  0  3  0  0  0  0  0  0
  190.7310  175.9860  147.1030 C   0  0  0  0  0  2  0  0  0  0  0  0
  184.9390  178.6320  140.2680 O   0  0  0  0  0  0  0  0  0  0  0  0
  187.0290  177.4310  140.4480 C   0  0  0  0  0  2  0  0  0  0  0  0
  193.1810  174.1570  141.3450 C   0  0  1  0  0  3  0  0  0  0  0  0
  193.6210  171.6910  144.1140 O   0  0  0  0  0  1  0  0  0  0  0  0
  194.1640  174.6560  140.5110 F   0  0  0  0  0  0  0  0  0  0  0  0
  191.5670  172.3960  142.8890 C   0  0  0  0  0  2  0  0  0  0  0  0
  191.1730  174.9270  142.8250 C   0  0  0  0  0  0  0  0  0  0  0  0
  193.7980  173.2750  142.3860 C   0  0  0  0  0  3  0  0  0  0  0  0
  190.8590  173.6770  143.2370 C   0  0  0  0  0  3  0  0  0  0  0  0
  192.3850  175.3050  141.9810 C   0  0  1  0  0  3  0  0  0  0  0  0
  193.3010  176.2620  142.7370 C   0  0  0  0  0  1  0  0  0  0  0  0
  193.0390  172.4750  143.1280 C   0  0  0  0  0  0  0  0  0  0  0  0
  185.5150  177.0040  146.6340 C   0  0  0  0  0  2  0  0  0  0  0  0
  184.2170  177.4930  146.7960 O   0  0  0  0  0  1  0  0  0  0  0  0
  1  4  1  0  0  0  0
  1  3  1  1  0  0  0
  2  5  1  0  0  0  0
  2  4  1  0  0  0  0
  3 18  1  0  0  0  0
  4 10  1  0  0  0  0
  5 17  1  0  0  0  0
  6 19  1  0  0  0  0
  6 20  1  0  0  0  0
  7  2  1  0  0  0  0
  8  9  1  0  0  0  0
  9 11  1  0  0  0  0
 10 12  1  0  0  0  0
 10 13  1  0  0  0  0
 11  5  1  0  0  0  0
 14  7  1  0  0  0  0
 14 15  1  0  0  0  0
 15  1  1  0  0  0  0
 16  9  1  0  0  0  0
 16  7  1  0  0  0  0
 17 31  1  0  0  0  0
 17 12  1  0  0  0  0
 18 13  1  0  0  0  0
 19  8  1  0  0  0  0
 20 16  1  0  0  0  0
 21 28  1  0  0  0  0
 21 26  1  0  0  0  0
 23 21  1  0  0  0  0
 24 30  1  0  0  0  0
 24 27  1  0  0  0  0
 25 27  2  0  0  0  0
 25 15  1  0  0  0  0
 26 30  2  0  0  0  0
 28 29  1  0  0  0  0
 28 25  1  0  0  0  0
 30 22  1  0  0  0  0
 31 32  1  0  0  0  0
M  END
>  <MODEL>
1

>  <REMARK>
 VINA RESULT:      -7.9      0.000      0.000
  Name = 
  2 active torsions:
  status: ('A' for Active; 'I' for Inactive)
    1  A    between atoms: C_13  and  C_29
    2  A    between atoms: C_16  and  C_27
                            x       y       z     vdW  Elec       q    Type
                         _______ _______ _______ _____ _____    ______ ____

>  <TORSDO>
F 2

$$$$
=
 OpenBabel11052419173D

 32 37  0  0  1  0  0  0  0  0999 V2000
  189.8430  176.1400  145.6100 C   0  0  1  0  0  3  0  0  0  0  0  0
  190.8670  174.9350  143.6910 C   0  0  1  0  0  3  0  0  0  0  0  0
  189.7580  176.1970  147.1350 C   0  0  0  0  0  2  0  0  0  0  0  0
  190.7550  174.9760  145.2030 C   0  0  1  0  0  3  0  0  0  0  0  0
  191.8490  173.8440  143.2780 C   0  0  1  0  0  3  0  0  0  0  0  0
  188.7060  174.0230  139.3340 C   0  0  0  0  0  2  0  0  0  0  0  0
  189.4990  174.6890  143.0570 C   0  0  1  0  0  3  0  0  0  0  0  0
  190.8430  173.3570  139.7160 C   0  0  0  0  0  2  0  0  0  0  0  0
  190.7280  173.4940  141.2310 C   0  0  1  0  0  3  0  0  0  0  0  0
  192.1640  175.1600  145.7900 C   0  0  2  0  0  3  0  0  0  0  0  0
  192.0210  173.8400  141.8250 N   0  0  0  0  0  2  0  0  0  0  0  0
  193.0120  174.0830  145.4340 O   0  0  0  0  0  0  0  0  0  0  0  0
  192.0790  175.2580  147.3110 C   0  0  0  0  0  2  0  0  0  0  0  0
  188.5710  175.8470  143.4290 C   0  0  0  0  0  2  0  0  0  0  0  0
  188.4540  175.9860  144.9550 C   0  0  2  0  0  3  0  0  0  0  0  0
  189.6830  174.5790  141.5420 C   0  0  1  0  0  3  0  0  0  0  0  0
  193.1830  174.0280  144.0250 C   0  0  2  0  0  3  0  0  0  0  0  0
  191.1520  176.4000  147.7260 C   0  0  0  0  0  2  0  0  0  0  0  0
  189.6040  172.9460  139.1860 O   0  0  0  0  0  0  0  0  0  0  0  0
  188.3820  174.2480  140.8150 C   0  0  0  0  0  2  0  0  0  0  0  0
  186.0750  179.1100  144.4220 C   0  0  1  0  0  3  0  0  0  0  0  0
  184.0550  178.3230  147.4610 O   0  0  0  0  0  1  0  0  0  0  0  0
  185.6230  179.6850  143.2480 F   0  0  0  0  0  0  0  0  0  0  0  0
  186.5210  178.5510  147.1740 C   0  0  0  0  0  2  0  0  0  0  0  0
  187.5180  177.1200  145.2980 C   0  0  0  0  0  0  0  0  0  0  0  0
  184.9220  178.8710  145.3460 C   0  0  0  0  0  3  0  0  0  0  0  0
  187.3410  177.4270  146.6040 C   0  0  0  0  0  3  0  0  0  0  0  0
  186.8350  177.8100  144.1230 C   0  0  1  0  0  3  0  0  0  0  0  0
  185.9690  176.8300  143.3390 C   0  0  0  0  0  1  0  0  0  0  0  0
  185.1320  178.5800  146.6260 C   0  0  0  0  0  0  0  0  0  0  0  0
  194.1160  175.1200  143.4790 C   0  0  0  0  0  2  0  0  0  0  0  0
  195.3400  175.1320  144.1490 O   0  0  0  0  0  1  0  0  0  0  0  0
  1  3  1  1  0  0  0
  2  4  1  0  0  0  0
  3 18  1  0  0  0  0
  4  1  1  0  0  0  0
  4 10  1  0  0  0  0
  5  2  1  0  0  0  0
  5 17  1  0  0  0  0
  6 20  1  0  0  0  0
  7 14  1  0  0  0  0
  7  2  1  0  0  0  0
  8  9  1  0  0  0  0
  9 16  1  0  0  0  0
  9 11  1  0  0  0  0
 10 13  1  0  0  0  0
 11  5  1  0  0  0  0
 12 10  1  0  0  0  0
 13 18  1  0  0  0  0
 14 15  1  0  0  0  0
 15 25  1  0  0  0  0
 15  1  1  0  0  0  0
 16  7  1  0  0  0  0
 17 12  1  0  0  0  0
 19  6  1  0  0  0  0
 19  8  1  0  0  0  0
 20 16  1  0  0  0  0
 21 26  1  0  0  0  0
 23 21  1  0  0  0  0
 25 27  2  0  0  0  0
 26 30  2  0  0  0  0
 27 24  1  0  0  0  0
 28 21  1  0  0  0  0
 28 25  1  0  0  0  0
 29 28  1  0  0  0  0
 30 24  1  0  0  0  0
 30 22  1  0  0  0  0
 31 17  1  0  0  0  0
 31 32  1  0  0  0  0
M  END
>  <MODEL>
2

>  <REMARK>
 VINA RESULT:      -7.6      3.179      6.954
  Name = 
  2 active torsions:
  status: ('A' for Active; 'I' for Inactive)
    1  A    between atoms: C_13  and  C_29
    2  A    between atoms: C_16  and  C_27
                            x       y       z     vdW  Elec       q    Type
                         _______ _______ _______ _____ _____    ______ ____

>  <TORSDO>
F 2

$$$$
=
 OpenBabel11052419173D

 32 37  0  0  1  0  0  0  0  0999 V2000
  189.8420  176.1960  144.9050 C   0  0  1  0  0  3  0  0  0  0  0  0
  187.6420  177.1930  144.3130 C   0  0  1  0  0  3  0  0  0  0  0  0
  191.0460  176.3150  145.8380 C   0  0  0  0  0  2  0  0  0  0  0  0
  188.8540  177.3270  145.2170 C   0  0  1  0  0  3  0  0  0  0  0  0
  186.6080  178.2520  144.6820 C   0  0  1  0  0  3  0  0  0  0  0  0
  185.7290  177.5400  139.7630 C   0  0  0  0  0  2  0  0  0  0  0  0
  188.0480  177.3310  142.8470 C   0  0  1  0  0  3  0  0  0  0  0  0
  184.5620  178.2960  141.5590 C   0  0  0  0  0  2  0  0  0  0  0  0
  185.7840  178.3350  142.4710 C   0  0  1  0  0  3  0  0  0  0  0  0
  188.3810  177.2460  146.6780 C   0  0  2  0  0  3  0  0  0  0  0  0
  185.4050  178.0910  143.8640 N   0  0  0  0  0  2  0  0  0  0  0  0
  187.4780  178.2940  146.9830 O   0  0  0  0  0  0  0  0  0  0  0  0
  189.5850  177.3230  147.6130 C   0  0  0  0  0  2  0  0  0  0  0  0
  189.0200  176.2030  142.4990 C   0  0  0  0  0  2  0  0  0  0  0  0
  190.2530  176.2390  143.4170 C   0  0  2  0  0  3  0  0  0  0  0  0
  186.7830  177.2690  141.9890 C   0  0  1  0  0  3  0  0  0  0  0  0
  186.3060  178.1880  146.1900 C   0  0  2  0  0  3  0  0  0  0  0  0
  190.5880  176.2150  147.2930 C   0  0  0  0  0  2  0  0  0  0  0  0
  184.9490  178.6140  140.2420 O   0  0  0  0  0  0  0  0  0  0  0  0
  187.0680  177.4820  140.5040 C   0  0  0  0  0  2  0  0  0  0  0  0
  191.9510  172.6590  143.4230 C   0  0  1  0  0  3  0  0  0  0  0  0
  193.0680  172.9810  139.8750 O   0  0  0  0  0  1  0  0  0  0  0  0
  191.5660  171.5010  144.0730 F   0  0  0  0  0  0  0  0  0  0  0  0
  193.3690  174.5240  141.8100 C   0  0  0  0  0  2  0  0  0  0  0  0
  191.2070  175.1320  143.0430 C   0  0  0  0  0  0  0  0  0  0  0  0
  192.2210  172.3660  141.9800 C   0  0  0  0  0  3  0  0  0  0  0  0
  192.2600  175.4400  142.2500 C   0  0  0  0  0  3  0  0  0  0  0  0
  190.8780  173.7460  143.5840 C   0  0  1  0  0  3  0  0  0  0  0  0
  189.5240  173.2650  143.0750 C   0  0  0  0  0  1  0  0  0  0  0  0
  192.8580  173.2510  141.2190 C   0  0  0  0  0  0  0  0  0  0  0  0
  185.3610  177.0630  146.6400 C   0  0  0  0  0  2  0  0  0  0  0  0
  184.0740  177.5420  146.8890 O   0  0  0  0  0  1  0  0  0  0  0  0
  1  4  1  0  0  0  0
  1  3  1  1  0  0  0
  2  5  1  0  0  0  0
  2  4  1  0  0  0  0
  3 18  1  0  0  0  0
  4 10  1  0  0  0  0
  5 17  1  0  0  0  0
  6 19  1  0  0  0  0
  6 20  1  0  0  0  0
  7  2  1  0  0  0  0
  8  9  1  0  0  0  0
  9 11  1  0  0  0  0
 10 12  1  0  0  0  0
 10 13  1  0  0  0  0
 11  5  1  0  0  0  0
 14  7  1  0  0  0  0
 14 15  1  0  0  0  0
 15  1  1  0  0  0  0
 16  9  1  0  0  0  0
 16  7  1  0  0  0  0
 17 31  1  0  0  0  0
 17 12  1  0  0  0  0
 18 13  1  0  0  0  0
 19  8  1  0  0  0  0
 20 16  1  0  0  0  0
 21 28  1  0  0  0  0
 21 23  1  0  0  0  0
 22 30  1  0  0  0  0
 24 27  1  0  0  0  0
 25 15  1  0  0  0  0
 25 28  1  0  0  0  0
 26 21  1  0  0  0  0
 27 25  2  0  0  0  0
 29 28  1  0  0  0  0
 30 24  1  0  0  0  0
 30 26  2  0  0  0  0
 31 32  1  0  0  0  0
M  END
>  <MODEL>
3

>  <REMARK>
 VINA RESULT:      -7.5      1.332      1.869
  Name = 
  2 active torsions:
  status: ('A' for Active; 'I' for Inactive)
    1  A    between atoms: C_13  and  C_29
    2  A    between atoms: C_16  and  C_27
                            x       y       z     vdW  Elec       q    Type
                         _______ _______ _______ _____ _____    ______ ____

>  <TORSDO>
F 2

$$$$
=
 OpenBabel11052419173D

 32 37  0  0  1  0  0  0  0  0999 V2000
  188.9290  174.8950  143.2420 C   0  0  1  0  0  3  0  0  0  0  0  0
  191.3600  174.3720  143.2660 C   0  0  1  0  0  3  0  0  0  0  0  0
  187.6540  174.8290  142.4020 C   0  0  0  0  0  2  0  0  0  0  0  0
  190.0990  174.3360  142.4230 C   0  0  1  0  0  3  0  0  0  0  0  0
  192.5090  173.7280  142.4970 C   0  0  1  0  0  3  0  0  0  0  0  0
  194.9000  177.0680  145.4280 C   0  0  0  0  0  2  0  0  0  0  0  0
  191.7120  175.8090  143.6460 C   0  0  1  0  0  3  0  0  0  0  0  0
  195.4230  175.1340  144.3590 C   0  0  0  0  0  2  0  0  0  0  0  0
  194.1060  175.0780  143.5910 C   0  0  1  0  0  3  0  0  0  0  0  0
  189.8280  172.8790  142.0150 C   0  0  2  0  0  3  0  0  0  0  0  0
  193.7150  173.6920  143.3250 N   0  0  0  0  0  2  0  0  0  0  0  0
  190.8950  172.3550  141.2450 O   0  0  0  0  0  0  0  0  0  0  0  0
  188.5340  172.8020  141.2100 C   0  0  0  0  0  2  0  0  0  0  0  0
  190.5700  176.3880  144.4830 C   0  0  0  0  0  2  0  0  0  0  0  0
  189.2410  176.3330  143.7110 C   0  0  2  0  0  3  0  0  0  0  0  0
  193.0290  175.7930  144.4240 C   0  0  1  0  0  3  0  0  0  0  0  0
  192.0930  172.3290  142.0060 C   0  0  2  0  0  3  0  0  0  0  0  0
  187.3660  173.3800  142.0090 C   0  0  0  0  0  2  0  0  0  0  0  0
  195.8110  176.4780  144.5280 O   0  0  0  0  0  0  0  0  0  0  0  0
  193.5170  177.1950  144.7820 C   0  0  0  0  0  2  0  0  0  0  0  0
  186.4100  178.8640  144.8420 C   0  0  1  0  0  3  0  0  0  0  0  0
  184.4970  176.2080  146.6380 O   0  0  0  0  0  1  0  0  0  0  0  0
  185.8900  179.9600  144.1770 F   0  0  0  0  0  0  0  0  0  0  0  0
  186.9010  176.8520  146.7910 C   0  0  0  0  0  2  0  0  0  0  0  0
  188.1350  176.9280  144.5470 C   0  0  0  0  0  0  0  0  0  0  0  0
  185.2960  177.9920  145.3320 C   0  0  0  0  0  3  0  0  0  0  0  0
  187.8950  176.3850  145.7640 C   0  0  0  0  0  3  0  0  0  0  0  0
  187.3690  178.0890  143.9260 C   0  0  1  0  0  3  0  0  0  0  0  0
  186.6780  177.6620  142.6360 C   0  0  0  0  0  1  0  0  0  0  0  0
  185.5320  177.0330  146.2210 C   0  0  0  0  0  0  0  0  0  0  0  0
  192.1250  171.2090  143.0580 C   0  0  0  0  0  2  0  0  0  0  0  0
  191.9910  169.9500  142.4710 O   0  0  0  0  0  1  0  0  0  0  0  0
  1  3  1  6  0  0  0
  1 15  1  0  0  0  0
  2  7  1  0  0  0  0
  4  1  1  0  0  0  0
  4  2  1  0  0  0  0
  5  2  1  0  0  0  0
  5 11  1  0  0  0  0
  7 16  1  0  0  0  0
  7 14  1  0  0  0  0
  8 19  1  0  0  0  0
  9  8  1  0  0  0  0
  9 16  1  0  0  0  0
 10  4  1  0  0  0  0
 11  9  1  0  0  0  0
 12 17  1  0  0  0  0
 12 10  1  0  0  0  0
 13 18  1  0  0  0  0
 13 10  1  0  0  0  0
 15 14  1  0  0  0  0
 15 25  1  0  0  0  0
 16 20  1  0  0  0  0
 17  5  1  0  0  0  0
 17 31  1  0  0  0  0
 18  3  1  0  0  0  0
 19  6  1  0  0  0  0
 20  6  1  0  0  0  0
 21 26  1  0  0  0  0
 23 21  1  0  0  0  0
 25 27  2  0  0  0  0
 26 30  2  0  0  0  0
 27 24  1  0  0  0  0
 28 25  1  0  0  0  0
 28 21  1  0  0  0  0
 29 28  1  0  0  0  0
 30 22  1  0  0  0  0
 30 24  1  0  0  0  0
 32 31  1  0  0  0  0
M  END
>  <MODEL>
4

>  <REMARK>
 VINA RESULT:      -7.3      3.218      7.933
  Name = 
  2 active torsions:
  status: ('A' for Active; 'I' for Inactive)
    1  A    between atoms: C_13  and  C_29
    2  A    between atoms: C_16  and  C_27
                            x       y       z     vdW  Elec       q    Type
                         _______ _______ _______ _____ _____    ______ ____

>  <TORSDO>
F 2

$$$$
=
 OpenBabel11052419173D

 32 37  0  0  1  0  0  0  0  0999 V2000
  191.8970  174.6660  142.8160 C   0  0  1  0  0  3  0  0  0  0  0  0
  189.6960  175.6410  143.4400 C   0  0  1  0  0  3  0  0  0  0  0  0
  192.5790  173.4870  142.1230 C   0  0  0  0  0  2  0  0  0  0  0  0
  190.3780  174.4570  142.7800 C   0  0  1  0  0  3  0  0  0  0  0  0
  188.1830  175.4920  143.3220 C   0  0  1  0  0  3  0  0  0  0  0  0
  188.6860  178.1390  147.5900 C   0  0  0  0  0  2  0  0  0  0  0  0
  190.1090  175.7500  144.9070 C   0  0  1  0  0  3  0  0  0  0  0  0
  187.0760  177.8240  146.0200 C   0  0  0  0  0  2  0  0  0  0  0  0
  187.8270  176.6940  145.3230 C   0  0  1  0  0  3  0  0  0  0  0  0
  189.8790  174.3550  141.3300 C   0  0  2  0  0  3  0  0  0  0  0  0
  187.5130  176.6620  143.8930 N   0  0  0  0  0  2  0  0  0  0  0  0
  188.4780  174.1470  141.2830 O   0  0  0  0  0  0  0  0  0  0  0  0
  190.5870  173.2040  140.6210 C   0  0  0  0  0  2  0  0  0  0  0  0
  191.6200  175.9800  144.9740 C   0  0  0  0  0  2  0  0  0  0  0  0
  192.3790  174.8420  144.2720 C   0  0  2  0  0  3  0  0  0  0  0  0
  189.3350  176.9080  145.5400 C   0  0  1  0  0  3  0  0  0  0  0  0
  187.7910  175.2520  141.8530 C   0  0  2  0  0  3  0  0  0  0  0  0
  192.1030  173.3900  140.6740 C   0  0  0  0  0  2  0  0  0  0  0  0
  187.3360  177.7770  147.4040 O   0  0  0  0  0  0  0  0  0  0  0  0
  189.6120  177.0520  147.0350 C   0  0  0  0  0  2  0  0  0  0  0  0
  196.0780  174.6140  145.6750 C   0  0  1  0  0  3  0  0  0  0  0  0
  197.5870  175.1400  142.3010 O   0  0  0  0  0  1  0  0  0  0  0  0
  196.5850  173.8400  146.7030 F   0  0  0  0  0  0  0  0  0  0  0  0
  195.8530  176.4550  143.5190 C   0  0  0  0  0  2  0  0  0  0  0  0
  193.8660  175.0790  144.3700 C   0  0  0  0  0  0  0  0  0  0  0  0
  196.9370  174.4680  144.4580 C   0  0  0  0  0  3  0  0  0  0  0  0
  194.4190  176.0040  143.5500 C   0  0  0  0  0  3  0  0  0  0  0  0
  194.6200  174.2280  145.3850 C   0  0  1  0  0  3  0  0  0  0  0  0
  194.4960  172.7450  145.0560 C   0  0  0  0  0  1  0  0  0  0  0  0
  196.8100  175.3110  143.4380 C   0  0  0  0  0  0  0  0  0  0  0  0
  187.7720  176.4940  140.9490 C   0  0  0  0  0  2  0  0  0  0  0  0
  186.4750  176.9730  140.7620 O   0  0  0  0  0  1  0  0  0  0  0  0
  1  3  1  1  0  0  0
  1 15  1  0  0  0  0
  2  7  1  0  0  0  0
  4  1  1  0  0  0  0
  4  2  1  0  0  0  0
  5  2  1  0  0  0  0
  5 11  1  0  0  0  0
  7 14  1  0  0  0  0
  7 16  1  0  0  0  0
  8 19  1  0  0  0  0
  9 16  1  0  0  0  0
  9  8  1  0  0  0  0
 10  4  1  0  0  0  0
 11  9  1  0  0  0  0
 12 10  1  0  0  0  0
 12 17  1  0  0  0  0
 13 18  1  0  0  0  0
 13 10  1  0  0  0  0
 15 25  1  0  0  0  0
 15 14  1  0  0  0  0
 16 20  1  0  0  0  0
 17  5  1  0  0  0  0
 18  3  1  0  0  0  0
 19  6  1  0  0  0  0
 20  6  1  0  0  0  0
 21 23  1  0  0  0  0
 22 30  1  0  0  0  0
 24 27  1  0  0  0  0
 25 28  1  0  0  0  0
 26 21  1  0  0  0  0
 27 25  2  0  0  0  0
 28 21  1  0  0  0  0
 29 28  1  0  0  0  0
 30 24  1  0  0  0  0
 30 26  2  0  0  0  0
 31 17  1  0  0  0  0
 32 31  1  0  0  0  0
M  END
>  <MODEL>
5

>  <REMARK>
 VINA RESULT:      -7.3      2.681      5.263
  Name = 
  2 active torsions:
  status: ('A' for Active; 'I' for Inactive)
    1  A    between atoms: C_13  and  C_29
    2  A    between atoms: C_16  and  C_27
                            x       y       z     vdW  Elec       q    Type
                         _______ _______ _______ _____ _____    ______ ____

>  <TORSDO>
F 2

$$$$
=
 OpenBabel11052419173D

 32 37  0  0  1  0  0  0  0  0999 V2000
  189.4190  176.5770  145.6180 C   0  0  1  0  0  3  0  0  0  0  0  0
  190.9380  175.0350  144.3950 C   0  0  1  0  0  3  0  0  0  0  0  0
  189.0790  177.1520  146.9930 C   0  0  0  0  0  2  0  0  0  0  0  0
  190.5780  175.5840  145.7630 C   0  0  1  0  0  3  0  0  0  0  0  0
  192.1530  174.1210  144.5120 C   0  0  1  0  0  3  0  0  0  0  0  0
  189.7070  172.1700  140.5530 C   0  0  0  0  0  2  0  0  0  0  0  0
  189.7570  174.2760  143.7920 C   0  0  1  0  0  3  0  0  0  0  0  0
  191.8390  172.1870  141.3340 C   0  0  0  0  0  2  0  0  0  0  0  0
  191.4580  172.8220  142.6680 C   0  0  1  0  0  3  0  0  0  0  0  0
  191.8170  176.2780  146.3490 C   0  0  2  0  0  3  0  0  0  0  0  0
  192.5550  173.6400  143.1900 N   0  0  0  0  0  2  0  0  0  0  0  0
  192.8910  175.3670  146.5020 O   0  0  0  0  0  0  0  0  0  0  0  0
  191.4720  176.8890  147.7050 C   0  0  0  0  0  2  0  0  0  0  0  0
  188.5890  175.2480  143.6160 C   0  0  0  0  0  2  0  0  0  0  0  0
  188.2030  175.8910  144.9590 C   0  0  2  0  0  3  0  0  0  0  0  0
  190.1990  173.6800  142.4540 C   0  0  1  0  0  3  0  0  0  0  0  0
  193.2940  174.8560  145.2400 C   0  0  2  0  0  3  0  0  0  0  0  0
  190.3010  177.8610  147.5750 C   0  0  0  0  0  2  0  0  0  0  0  0
  190.7950  171.3450  140.9010 O   0  0  0  0  0  0  0  0  0  0  0  0
  189.1130  172.8270  141.8030 C   0  0  0  0  0  2  0  0  0  0  0  0
  184.6640  177.5680  145.5620 C   0  0  1  0  0  3  0  0  0  0  0  0
  185.7880  180.8590  144.2050 O   0  0  0  0  0  1  0  0  0  0  0  0
  183.7470  177.3540  146.5750 F   0  0  0  0  0  0  0  0  0  0  0  0
  185.9510  178.5690  143.2310 C   0  0  0  0  0  2  0  0  0  0  0  0
  187.0370  176.8280  144.7650 C   0  0  0  0  0  0  0  0  0  0  0  0
  184.9080  179.0360  145.3990 C   0  0  0  0  0  3  0  0  0  0  0  0
  187.0320  177.6180  143.6660 C   0  0  0  0  0  3  0  0  0  0  0  0
  185.9680  176.8100  145.8510 C   0  0  1  0  0  3  0  0  0  0  0  0
  186.5520  177.2090  147.2020 C   0  0  0  0  0  1  0  0  0  0  0  0
  185.5360  179.5000  144.3240 C   0  0  0  0  0  0  0  0  0  0  0  0
  194.0920  175.8630  144.3980 C   0  0  0  0  0  2  0  0  0  0  0  0
  195.1560  176.4060  145.1190 O   0  0  0  0  0  1  0  0  0  0  0  0
  1  4  1  0  0  0  0
  1  3  1  1  0  0  0
  2  5  1  0  0  0  0
  2  4  1  0  0  0  0
  3 18  1  0  0  0  0
  4 10  1  0  0  0  0
  5 17  1  0  0  0  0
  6 19  1  0  0  0  0
  6 20  1  0  0  0  0
  7  2  1  0  0  0  0
  8  9  1  0  0  0  0
  9 11  1  0  0  0  0
 10 12  1  0  0  0  0
 10 13  1  0  0  0  0
 11  5  1  0  0  0  0
 14  7  1  0  0  0  0
 14 15  1  0  0  0  0
 15  1  1  0  0  0  0
 16  9  1  0  0  0  0
 16  7  1  0  0  0  0
 17 12  1  0  0  0  0
 18 13  1  0  0  0  0
 19  8  1  0  0  0  0
 20 16  1  0  0  0  0
 21 28  1  0  0  0  0
 21 23  1  0  0  0  0
 22 30  1  0  0  0  0
 24 27  1  0  0  0  0
 24 30  1  0  0  0  0
 25 15  1  0  0  0  0
 25 28  1  0  0  0  0
 26 21  1  0  0  0  0
 27 25  2  0  0  0  0
 28 29  1  0  0  0  0
 30 26  2  0  0  0  0
 31 32  1  0  0  0  0
 31 17  1  0  0  0  0
M  END
>  <MODEL>
6

>  <REMARK>
 VINA RESULT:      -7.1      3.444      7.281
  Name = 
  2 active torsions:
  status: ('A' for Active; 'I' for Inactive)
    1  A    between atoms: C_13  and  C_29
    2  A    between atoms: C_16  and  C_27
                            x       y       z     vdW  Elec       q    Type
                         _______ _______ _______ _____ _____    ______ ____

>  <TORSDO>
F 2

$$$$
=
 OpenBabel11052419173D

 32 37  0  0  1  0  0  0  0  0999 V2000
  190.0640  175.6180  143.2000 C   0  0  1  0  0  3  0  0  0  0  0  0
  187.9220  176.7590  143.7440 C   0  0  1  0  0  3  0  0  0  0  0  0
  190.6870  174.4420  142.4500 C   0  0  0  0  0  2  0  0  0  0  0  0
  188.5410  175.5740  143.0260 C   0  0  1  0  0  3  0  0  0  0  0  0
  186.4170  176.7800  143.4950 C   0  0  1  0  0  3  0  0  0  0  0  0
  186.8010  178.9650  148.0280 C   0  0  0  0  0  2  0  0  0  0  0  0
  188.2140  176.6920  145.2420 C   0  0  1  0  0  3  0  0  0  0  0  0
  185.3100  178.9630  146.3150 C   0  0  0  0  0  2  0  0  0  0  0  0
  186.0070  177.8280  145.5700 C   0  0  1  0  0  3  0  0  0  0  0  0
  188.1620  175.6550  141.5380 C   0  0  2  0  0  3  0  0  0  0  0  0
  185.8170  177.9570  144.1240 N   0  0  0  0  0  2  0  0  0  0  0  0
  186.7580  175.6000  141.3630 O   0  0  0  0  0  0  0  0  0  0  0  0
  188.8150  174.5040  140.7770 C   0  0  0  0  0  2  0  0  0  0  0  0
  189.7280  176.7550  145.4490 C   0  0  0  0  0  2  0  0  0  0  0  0
  190.4330  175.6120  144.6990 C   0  0  2  0  0  3  0  0  0  0  0  0
  187.5030  177.8620  145.9240 C   0  0  1  0  0  3  0  0  0  0  0  0
  186.1340  176.7140  141.9830 C   0  0  2  0  0  3  0  0  0  0  0  0
  190.3320  174.5260  140.9660 C   0  0  0  0  0  2  0  0  0  0  0  0
  185.4430  178.7640  147.7030 O   0  0  0  0  0  0  0  0  0  0  0  0
  187.6620  177.8420  147.4420 C   0  0  0  0  0  2  0  0  0  0  0  0
  193.8700  176.6780  146.3580 C   0  0  1  0  0  3  0  0  0  0  0  0
  195.5460  173.4920  145.3680 O   0  0  0  0  0  1  0  0  0  0  0  0
  194.1050  177.4230  147.4990 F   0  0  0  0  0  0  0  0  0  0  0  0
  194.2420  175.1240  144.0050 C   0  0  0  0  0  2  0  0  0  0  0  0
  191.9210  175.6830  144.9350 C   0  0  0  0  0  0  0  0  0  0  0  0
  194.6780  175.4180  146.3990 C   0  0  0  0  0  3  0  0  0  0  0  0
  192.7390  175.1150  144.0170 C   0  0  0  0  0  3  0  0  0  0  0  0
  192.3710  176.3800  146.2140 C   0  0  1  0  0  3  0  0  0  0  0  0
  191.8270  175.6670  147.4470 C   0  0  0  0  0  1  0  0  0  0  0  0
  194.8260  174.6770  145.3060 C   0  0  0  0  0  0  0  0  0  0  0  0
  186.3140  178.0280  141.2070 C   0  0  0  0  0  2  0  0  0  0  0  0
  185.1560  178.3740  140.5080 O   0  0  0  0  0  1  0  0  0  0  0  0
  1  3  1  6  0  0  0
  1 15  1  0  0  0  0
  2  7  1  0  0  0  0
  4  1  1  0  0  0  0
  4  2  1  0  0  0  0
  5  2  1  0  0  0  0
  5 11  1  0  0  0  0
  7 14  1  0  0  0  0
  7 16  1  0  0  0  0
  8 19  1  0  0  0  0
  9 16  1  0  0  0  0
  9  8  1  0  0  0  0
 10  4  1  0  0  0  0
 11  9  1  0  0  0  0
 12 10  1  0  0  0  0
 12 17  1  0  0  0  0
 13 18  1  0  0  0  0
 13 10  1  0  0  0  0
 15 25  1  0  0  0  0
 15 14  1  0  0  0  0
 16 20  1  0  0  0  0
 17  5  1  0  0  0  0
 18  3  1  0  0  0  0
 19  6  1  0  0  0  0
 20  6  1  0  0  0  0
 21 26  1  0  0  0  0
 21 23  1  0  0  0  0
 24 27  1  0  0  0  0
 24 30  1  0  0  0  0
 25 28  1  0  0  0  0
 27 25  2  0  0  0  0
 28 21  1  0  0  0  0
 28 29  1  0  0  0  0
 30 22  1  0  0  0  0
 30 26  2  0  0  0  0
 31 17  1  0  0  0  0
 32 31  1  0  0  0  0
M  END
>  <MODEL>
7

>  <REMARK>
 VINA RESULT:      -7.1      2.221      4.761
  Name = 
  2 active torsions:
  status: ('A' for Active; 'I' for Inactive)
    1  A    between atoms: C_13  and  C_29
    2  A    between atoms: C_16  and  C_27
                            x       y       z     vdW  Elec       q    Type
                         _______ _______ _______ _____ _____    ______ ____

>  <TORSDO>
F 2

$$$$
=
 OpenBabel11052419173D

 32 37  0  0  1  0  0  0  0  0999 V2000
  188.8710  174.5280  143.1160 C   0  0  1  0  0  3  0  0  0  0  0  0
  191.2220  174.0050  143.7360 C   0  0  1  0  0  3  0  0  0  0  0  0
  187.8260  174.4160  142.0060 C   0  0  0  0  0  2  0  0  0  0  0  0
  190.1910  173.9230  142.6250 C   0  0  1  0  0  3  0  0  0  0  0  0
  192.5090  173.3170  143.2930 C   0  0  1  0  0  3  0  0  0  0  0  0
  194.1990  176.8170  146.5130 C   0  0  0  0  0  2  0  0  0  0  0  0
  191.4960  175.4610  144.1070 C   0  0  1  0  0  3  0  0  0  0  0  0
  194.9290  174.8240  145.7040 C   0  0  0  0  0  2  0  0  0  0  0  0
  193.8260  174.7260  144.6540 C   0  0  1  0  0  3  0  0  0  0  0  0
  190.0020  172.4450  142.2470 C   0  0  2  0  0  3  0  0  0  0  0  0
  193.4880  173.3270  144.3810 N   0  0  0  0  0  2  0  0  0  0  0  0
  191.2120  171.8770  141.7770 O   0  0  0  0  0  0  0  0  0  0  0  0
  188.9300  172.3230  141.1660 C   0  0  0  0  0  2  0  0  0  0  0  0
  190.1990  176.0880  144.6220 C   0  0  0  0  0  2  0  0  0  0  0  0
  189.0860  175.9900  143.5650 C   0  0  2  0  0  3  0  0  0  0  0  0
  192.5950  175.4880  145.1710 C   0  0  1  0  0  3  0  0  0  0  0  0
  192.1990  171.8930  142.7970 C   0  0  2  0  0  3  0  0  0  0  0  0
  187.6170  172.9470  141.6380 C   0  0  0  0  0  2  0  0  0  0  0  0
  195.2860  176.1750  145.8840 O   0  0  0  0  0  0  0  0  0  0  0  0
  193.0060  176.9070  145.5550 C   0  0  0  0  0  2  0  0  0  0  0  0
  186.1880  176.9350  146.0970 C   0  0  1  0  0  3  0  0  0  0  0  0
  185.5660  180.2240  144.4430 O   0  0  0  0  0  1  0  0  0  0  0  0
  186.0620  176.6430  147.4430 F   0  0  0  0  0  0  0  0  0  0  0  0
  185.7000  177.9290  143.4770 C   0  0  0  0  0  2  0  0  0  0  0  0
  187.8240  176.6330  144.0860 C   0  0  0  0  0  0  0  0  0  0  0  0
  185.9480  178.3950  145.8700 C   0  0  0  0  0  3  0  0  0  0  0  0
  187.0290  177.2810  143.2030 C   0  0  0  0  0  3  0  0  0  0  0  0
  187.5700  176.5060  145.5830 C   0  0  1  0  0  3  0  0  0  0  0  0
  188.6870  177.1630  146.3860 C   0  0  0  0  0  1  0  0  0  0  0  0
  185.7500  178.8640  144.6420 C   0  0  0  0  0  0  0  0  0  0  0  0
  191.9690  170.8350  143.8880 C   0  0  0  0  0  2  0  0  0  0  0  0
  193.0070  169.9020  143.9240 O   0  0  0  0  0  1  0  0  0  0  0  0
  1  3  1  6  0  0  0
  1 15  1  0  0  0  0
  2  7  1  0  0  0  0
  4  1  1  0  0  0  0
  4  2  1  0  0  0  0
  5  2  1  0  0  0  0
  5 11  1  0  0  0  0
  7 14  1  0  0  0  0
  7 16  1  0  0  0  0
  8 19  1  0  0  0  0
  9 16  1  0  0  0  0
  9  8  1  0  0  0  0
 10  4  1  0  0  0  0
 11  9  1  0  0  0  0
 12 10  1  0  0  0  0
 12 17  1  0  0  0  0
 13 18  1  0  0  0  0
 13 10  1  0  0  0  0
 15 25  1  0  0  0  0
 15 14  1  0  0  0  0
 16 20  1  0  0  0  0
 17  5  1  0  0  0  0
 17 31  1  0  0  0  0
 18  3  1  0  0  0  0
 19  6  1  0  0  0  0
 20  6  1  0  0  0  0
 21 23  1  0  0  0  0
 22 30  1  0  0  0  0
 24 30  1  0  0  0  0
 25 28  1  0  0  0  0
 26 21  1  0  0  0  0
 27 24  1  0  0  0  0
 27 25  2  0  0  0  0
 28 21  1  0  0  0  0
 28 29  1  0  0  0  0
 30 26  2  0  0  0  0
 31 32  1  0  0  0  0
M  END
>  <MODEL>
8

>  <REMARK>
 VINA RESULT:      -7.0      3.294      8.085
  Name = 
  2 active torsions:
  status: ('A' for Active; 'I' for Inactive)
    1  A    between atoms: C_13  and  C_29
    2  A    between atoms: C_16  and  C_27
                            x       y       z     vdW  Elec       q    Type
                         _______ _______ _______ _____ _____    ______ ____

>  <TORSDO>
F 2

$$$$
=
 OpenBabel11052419173D

 32 37  0  0  1  0  0  0  0  0999 V2000
  192.2390  173.6040  142.1660 C   0  0  1  0  0  3  0  0  0  0  0  0
  189.8910  174.4090  141.9990 C   0  0  1  0  0  3  0  0  0  0  0  0
  193.1400  172.3760  142.0500 C   0  0  0  0  0  2  0  0  0  0  0  0
  190.7850  173.1850  141.9150 C   0  0  1  0  0  3  0  0  0  0  0  0
  188.4570  174.0210  141.6530 C   0  0  1  0  0  3  0  0  0  0  0  0
  187.8020  177.9080  144.8050 C   0  0  0  0  0  2  0  0  0  0  0  0
  189.9550  175.0260  143.3950 C   0  0  1  0  0  3  0  0  0  0  0  0
  186.6120  176.8980  143.1550 C   0  0  0  0  0  2  0  0  0  0  0  0
  187.5780  175.7240  143.0310 C   0  0  1  0  0  3  0  0  0  0  0  0
  190.6330  172.5680  140.5150 C   0  0  2  0  0  3  0  0  0  0  0  0
  187.5970  175.2050  141.6620 N   0  0  0  0  0  2  0  0  0  0  0  0
  189.2970  172.1630  140.2760 O   0  0  0  0  0  0  0  0  0  0  0  0
  191.5620  171.3640  140.3800 C   0  0  0  0  0  2  0  0  0  0  0  0
  191.3920  175.4730  143.6680 C   0  0  0  0  0  2  0  0  0  0  0  0
  192.3680  174.2910  143.5430 C   0  0  2  0  0  3  0  0  0  0  0  0
  188.9790  176.2030  143.4460 C   0  0  1  0  0  3  0  0  0  0  0  0
  188.4240  173.2820  140.3030 C   0  0  2  0  0  3  0  0  0  0  0  0
  193.0100  171.7670  140.6540 C   0  0  0  0  0  2  0  0  0  0  0  0
  186.5570  177.3210  144.4980 O   0  0  0  0  0  0  0  0  0  0  0  0
  188.9030  176.8430  144.8310 C   0  0  0  0  0  2  0  0  0  0  0  0
  195.6940  174.9490  145.5940 C   0  0  1  0  0  3  0  0  0  0  0  0
  197.8270  174.8090  142.5330 O   0  0  0  0  0  1  0  0  0  0  0  0
  196.0390  174.5400  146.8690 F   0  0  0  0  0  0  0  0  0  0  0  0
  195.7670  176.1320  143.0090 C   0  0  0  0  0  2  0  0  0  0  0  0
  193.7740  174.7520  143.8360 C   0  0  0  0  0  0  0  0  0  0  0  0
  196.7990  174.6210  144.6390 C   0  0  0  0  0  3  0  0  0  0  0  0
  194.4040  175.5070  142.9060 C   0  0  0  0  0  3  0  0  0  0  0  0
  194.3700  174.3010  145.1650 C   0  0  1  0  0  3  0  0  0  0  0  0
  194.4470  172.7800  145.2430 C   0  0  0  0  0  1  0  0  0  0  0  0
  196.8170  175.1510  143.4200 C   0  0  0  0  0  0  0  0  0  0  0  0
  188.5220  174.1660  139.0490 C   0  0  0  0  0  2  0  0  0  0  0  0
  188.1950  173.4550  137.8930 O   0  0  0  0  0  1  0  0  0  0  0  0
  1  3  1  1  0  0  0
  1 15  1  0  0  0  0
  2  7  1  0  0  0  0
  4  2  1  0  0  0  0
  4  1  1  0  0  0  0
  5 11  1  0  0  0  0
  5  2  1  0  0  0  0
  6 20  1  0  0  0  0
  7 16  1  0  0  0  0
  7 14  1  0  0  0  0
  8 19  1  0  0  0  0
  9  8  1  0  0  0  0
  9 16  1  0  0  0  0
 10  4  1  0  0  0  0
 11  9  1  0  0  0  0
 12 17  1  0  0  0  0
 12 10  1  0  0  0  0
 13 10  1  0  0  0  0
 13 18  1  0  0  0  0
 15 14  1  0  0  0  0
 15 25  1  0  0  0  0
 16 20  1  0  0  0  0
 17  5  1  0  0  0  0
 18  3  1  0  0  0  0
 19  6  1  0  0  0  0
 21 23  1  0  0  0  0
 22 30  1  0  0  0  0
 24 30  1  0  0  0  0
 25 28  1  0  0  0  0
 26 21  1  0  0  0  0
 27 24  1  0  0  0  0
 27 25  2  0  0  0  0
 28 29  1  0  0  0  0
 28 21  1  0  0  0  0
 30 26  2  0  0  0  0
 31 17  1  0  0  0  0
 32 31  1  0  0  0  0
M  END
>  <MODEL>
9

>  <REMARK>
 VINA RESULT:      -6.9      3.158      5.692
  Name = 
  2 active torsions:
  status: ('A' for Active; 'I' for Inactive)
    1  A    between atoms: C_13  and  C_29
    2  A    between atoms: C_16  and  C_27
                            x       y       z     vdW  Elec       q    Type
                         _______ _______ _______ _____ _____    ______ ____

>  <TORSDO>
F 2

$$$$
