=
 OpenBabel11052419133D

 32 36  0  0  1  0  0  0  0  0999 V2000
  188.8600  176.2130  144.2710 N   0  0  0  0  0  0  0  0  0  0  0  0
  189.0130  174.2350  142.3370 C   0  0  0  0  0  0  0  0  0  0  0  0
  189.2540  177.5930  144.5550 C   0  0  0  0  0  2  0  0  0  0  0  0
  189.7870  175.1040  144.5620 C   0  0  1  0  0  3  0  0  0  0  0  0
  191.1010  173.4630  143.1970 N   0  0  0  0  0  0  0  0  0  0  0  0
  188.4110  172.4580  139.1290 C   0  0  0  0  0  3  0  0  0  0  0  0
  190.0140  174.2720  143.3200 C   0  0  0  0  0  0  0  0  0  0  0  0
  190.5290  171.7400  140.0650 C   0  0  0  0  0  3  0  0  0  0  0  0
  190.3370  172.5930  141.1550 C   0  0  0  0  0  0  0  0  0  0  0  0
  191.0850  175.6160  145.2120 C   0  0  1  0  0  3  0  0  0  0  0  0
  191.2630  172.6580  142.1450 N   0  0  0  0  0  0  0  0  0  0  0  0
  190.7530  176.5680  146.3620 C   0  0  0  0  0  2  0  0  0  0  0  0
  187.8470  175.0630  142.4660 N   0  0  0  0  0  0  0  0  0  0  0  0
  187.7490  175.9790  143.3840 C   0  0  0  0  0  0  0  0  0  0  0  0
  189.1750  173.3870  141.2350 C   0  0  0  0  0  0  0  0  0  0  0  0
  189.8150  177.7170  145.9690 C   0  0  0  0  0  2  0  0  0  0  0  0
  189.5670  171.6730  139.0530 C   0  0  0  0  0  3  0  0  0  0  0  0
  188.2140  173.3130  140.2160 C   0  0  0  0  0  3  0  0  0  0  0  0
  184.7410  177.9620  144.6330 C   0  0  0  0  0  0  0  0  0  0  0  0
  184.0880  178.2930  145.8150 O   0  0  0  0  0  1  0  0  0  0  0  0
  186.5340  176.8240  143.4360 C   0  0  0  0  0  0  0  0  0  0  0  0
  184.2420  178.4450  143.4220 C   0  0  0  0  0  3  0  0  0  0  0  0
  186.0070  177.3100  142.2300 C   0  0  0  0  0  3  0  0  0  0  0  0
  185.8840  177.1450  144.6510 C   0  0  0  0  0  0  0  0  0  0  0  0
  186.3480  176.5780  145.9560 C   0  0  0  0  0  1  0  0  0  0  0  0
  184.8700  178.1180  142.2130 C   0  0  0  0  0  0  0  0  0  0  0  0
  183.1060  178.2320  140.4830 C   0  0  0  0  0  1  0  0  0  0  0  0
  184.3870  178.5820  140.9870 O   0  0  0  0  0  0  0  0  0  0  0  0
  191.8590  174.5030  145.7390 N   0  0  0  0  0  2  0  0  0  0  0  0
  193.2100  174.9870  145.9600 C   0  0  0  0  0  2  0  0  0  0  0  0
  193.8080  175.4330  144.6420 C   0  0  0  0  0  2  0  0  0  0  0  0
  194.6420  176.5280  144.8570 O   0  0  0  0  0  1  0  0  0  0  0  0
  1  3  1  0  0  0  0
  1  4  1  0  0  0  0
  2 13  1  0  0  0  0
  2  7  1  0  0  0  0
  3 16  1  0  0  0  0
  4  7  1  6  0  0  0
  4 10  1  0  0  0  0
  5  7  2  0  0  0  0
  6 18  2  0  0  0  0
  8  9  1  0  0  0  0
  9 15  1  0  0  0  0
  9 11  2  0  0  0  0
 10 29  1  1  0  0  0
 10 12  1  0  0  0  0
 11  5  1  0  0  0  0
 13 14  2  0  0  0  0
 14 21  1  0  0  0  0
 14  1  1  0  0  0  0
 15  2  2  0  0  0  0
 16 12  1  0  0  0  0
 17  6  1  0  0  0  0
 17  8  2  0  0  0  0
 18 15  1  0  0  0  0
 19 24  1  0  0  0  0
 19 20  1  0  0  0  0
 21 24  2  0  0  0  0
 22 19  2  0  0  0  0
 23 21  1  0  0  0  0
 24 25  1  0  0  0  0
 26 23  2  0  0  0  0
 26 22  1  0  0  0  0
 27 28  1  0  0  0  0
 28 26  1  0  0  0  0
 29 30  1  0  0  0  0
 31 32  1  0  0  0  0
 31 30  1  0  0  0  0
M  END
>  <MODEL>
1

>  <REMARK>
 VINA RESULT:      -7.6      0.000      0.000
  Name = 
  5 active torsions:
  status: ('A' for Active; 'I' for Inactive)
    1  A    between atoms: C_13  and  C_18
    2  A    between atoms: C_14  and  N_29
    3  A    between atoms: O_15  and  C_26
    4  A    between atoms: C_16  and  C_27
    5  A    between atoms: C_18  and  N_29
                            x       y       z     vdW  Elec       q    Type
                         _______ _______ _______ _____ _____    ______ ____

>  <TORSDO>
F 5

$$$$
=
 OpenBabel11052419133D

 32 36  0  0  1  0  0  0  0  0999 V2000
  190.4900  175.4360  144.9880 N   0  0  0  0  0  0  0  0  0  0  0  0
  189.9060  173.8560  142.7900 C   0  0  0  0  0  0  0  0  0  0  0  0
  191.1390  176.6870  145.3800 C   0  0  0  0  0  2  0  0  0  0  0  0
  191.2820  174.2000  144.8620 C   0  0  1  0  0  3  0  0  0  0  0  0
  191.9950  172.7160  142.9710 N   0  0  0  0  0  0  0  0  0  0  0  0
  188.3380  172.7920  139.5920 C   0  0  0  0  0  3  0  0  0  0  0  0
  191.0960  173.5990  143.4860 C   0  0  0  0  0  0  0  0  0  0  0  0
  190.4800  171.6870  139.8480 C   0  0  0  0  0  3  0  0  0  0  0  0
  190.6680  172.3340  141.0720 C   0  0  0  0  0  0  0  0  0  0  0  0
  192.7550  174.4370  145.2410 C   0  0  1  0  0  3  0  0  0  0  0  0
  191.7930  172.1110  141.7990 N   0  0  0  0  0  0  0  0  0  0  0  0
  192.8370  175.1850  146.5730 C   0  0  0  0  0  2  0  0  0  0  0  0
  188.9360  174.7640  143.3330 N   0  0  0  0  0  0  0  0  0  0  0  0
  189.1850  175.4950  144.3800 C   0  0  0  0  0  0  0  0  0  0  0  0
  189.6860  173.2180  141.5630 C   0  0  0  0  0  0  0  0  0  0  0  0
  192.0170  176.4810  146.6120 C   0  0  0  0  0  2  0  0  0  0  0  0
  189.3160  171.9160  139.1090 C   0  0  0  0  0  3  0  0  0  0  0  0
  188.5210  173.4420  140.8160 C   0  0  0  0  0  3  0  0  0  0  0  0
  186.7500  177.4000  146.6110 C   0  0  0  0  0  0  0  0  0  0  0  0
  186.3160  177.4500  147.9320 O   0  0  0  0  0  1  0  0  0  0  0  0
  188.1530  176.4410  144.8640 C   0  0  0  0  0  0  0  0  0  0  0  0
  186.1980  178.2820  145.6810 C   0  0  0  0  0  3  0  0  0  0  0  0
  187.5750  177.3260  143.9440 C   0  0  0  0  0  3  0  0  0  0  0  0
  187.7250  176.4700  146.2120 C   0  0  0  0  0  0  0  0  0  0  0  0
  188.2410  175.4870  147.2160 C   0  0  0  0  0  1  0  0  0  0  0  0
  186.6040  178.2470  144.3400 C   0  0  0  0  0  0  0  0  0  0  0  0
  185.2180  178.6660  142.3350 C   0  0  0  0  0  1  0  0  0  0  0  0
  186.0620  179.1120  143.3870 O   0  0  0  0  0  0  0  0  0  0  0  0
  193.4530  173.1680  145.3770 N   0  0  0  0  0  2  0  0  0  0  0  0
  194.8750  173.4610  145.3880 C   0  0  0  0  0  2  0  0  0  0  0  0
  195.2740  174.0760  144.0630 C   0  0  0  0  0  2  0  0  0  0  0  0
  196.2370  175.0600  144.2790 O   0  0  0  0  0  1  0  0  0  0  0  0
  1  3  1  0  0  0  0
  2 13  1  0  0  0  0
  2  7  1  0  0  0  0
  3 16  1  0  0  0  0
  4  7  1  6  0  0  0
  4  1  1  0  0  0  0
  4 10  1  0  0  0  0
  5  7  2  0  0  0  0
  6 18  2  0  0  0  0
  8  9  1  0  0  0  0
  9 15  1  0  0  0  0
  9 11  2  0  0  0  0
 10 29  1  1  0  0  0
 10 12  1  0  0  0  0
 11  5  1  0  0  0  0
 12 16  1  0  0  0  0
 13 14  2  0  0  0  0
 14 21  1  0  0  0  0
 14  1  1  0  0  0  0
 15  2  2  0  0  0  0
 17  6  1  0  0  0  0
 17  8  2  0  0  0  0
 18 15  1  0  0  0  0
 19 20  1  0  0  0  0
 21 24  2  0  0  0  0
 22 19  2  0  0  0  0
 23 26  2  0  0  0  0
 23 21  1  0  0  0  0
 24 19  1  0  0  0  0
 24 25  1  0  0  0  0
 26 22  1  0  0  0  0
 27 28  1  0  0  0  0
 28 26  1  0  0  0  0
 29 30  1  0  0  0  0
 31 32  1  0  0  0  0
 31 30  1  0  0  0  0
M  END
>  <MODEL>
2

>  <REMARK>
 VINA RESULT:      -7.5      1.528      2.053
  Name = 
  5 active torsions:
  status: ('A' for Active; 'I' for Inactive)
    1  A    between atoms: C_13  and  C_18
    2  A    between atoms: C_14  and  N_29
    3  A    between atoms: O_15  and  C_26
    4  A    between atoms: C_16  and  C_27
    5  A    between atoms: C_18  and  N_29
                            x       y       z     vdW  Elec       q    Type
                         _______ _______ _______ _____ _____    ______ ____

>  <TORSDO>
F 5

$$$$
=
 OpenBabel11052419133D

 32 36  0  0  1  0  0  0  0  0999 V2000
  188.8240  176.1400  143.9510 N   0  0  0  0  0  0  0  0  0  0  0  0
  189.0590  174.0880  142.1050 C   0  0  0  0  0  0  0  0  0  0  0  0
  189.2400  177.5170  144.2160 C   0  0  0  0  0  2  0  0  0  0  0  0
  189.6890  175.0160  144.3510 C   0  0  1  0  0  3  0  0  0  0  0  0
  191.0500  173.2870  143.1490 N   0  0  0  0  0  0  0  0  0  0  0  0
  188.6440  172.2100  138.9240 C   0  0  0  0  0  3  0  0  0  0  0  0
  189.9820  174.1320  143.1600 C   0  0  0  0  0  0  0  0  0  0  0  0
  190.6600  171.4650  140.0460 C   0  0  0  0  0  3  0  0  0  0  0  0
  190.4140  172.3640  141.0860 C   0  0  0  0  0  0  0  0  0  0  0  0
  190.9510  175.5130  145.0810 C   0  0  1  0  0  3  0  0  0  0  0  0
  191.2640  172.4380  142.1420 N   0  0  0  0  0  0  0  0  0  0  0  0
  190.5640  176.5170  146.1680 C   0  0  0  0  0  2  0  0  0  0  0  0
  187.9130  174.9540  142.1150 N   0  0  0  0  0  0  0  0  0  0  0  0
  187.7760  175.9060  142.9900 C   0  0  0  0  0  0  0  0  0  0  0  0
  189.2750  173.1940  141.0490 C   0  0  0  0  0  0  0  0  0  0  0  0
  189.6960  177.6780  145.6640 C   0  0  0  0  0  2  0  0  0  0  0  0
  189.7760  171.3890  138.9650 C   0  0  0  0  0  3  0  0  0  0  0  0
  188.3930  173.1110  139.9630 C   0  0  0  0  0  3  0  0  0  0  0  0
  184.9940  178.1720  141.6990 C   0  0  0  0  0  0  0  0  0  0  0  0
  184.5270  178.7330  140.5150 O   0  0  0  0  0  1  0  0  0  0  0  0
  186.5890  176.7890  142.9180 C   0  0  0  0  0  0  0  0  0  0  0  0
  184.3190  178.4400  142.8900 C   0  0  0  0  0  3  0  0  0  0  0  0
  185.9030  177.0840  144.1050 C   0  0  0  0  0  3  0  0  0  0  0  0
  186.1350  177.3520  141.7020 C   0  0  0  0  0  0  0  0  0  0  0  0
  186.8820  177.1460  140.4210 C   0  0  0  0  0  1  0  0  0  0  0  0
  184.7720  177.9010  144.1020 C   0  0  0  0  0  0  0  0  0  0  0  0
  184.6940  177.8570  146.5740 C   0  0  0  0  0  1  0  0  0  0  0  0
  184.1200  178.1600  145.3100 O   0  0  0  0  0  0  0  0  0  0  0  0
  191.6460  174.3980  145.7040 N   0  0  0  0  0  2  0  0  0  0  0  0
  192.9790  174.8610  146.0460 C   0  0  0  0  0  2  0  0  0  0  0  0
  193.7600  175.1310  144.7760 C   0  0  0  0  0  2  0  0  0  0  0  0
  194.3930  176.3690  144.8750 O   0  0  0  0  0  1  0  0  0  0  0  0
  1  3  1  0  0  0  0
  1  4  1  0  0  0  0
  2 13  1  0  0  0  0
  2  7  1  0  0  0  0
  3 16  1  0  0  0  0
  4  7  1  6  0  0  0
  4 10  1  0  0  0  0
  5  7  2  0  0  0  0
  6 17  1  0  0  0  0
  6 18  2  0  0  0  0
  8  9  1  0  0  0  0
  9 11  2  0  0  0  0
 10 29  1  1  0  0  0
 10 12  1  0  0  0  0
 11  5  1  0  0  0  0
 13 14  2  0  0  0  0
 14  1  1  0  0  0  0
 15  9  1  0  0  0  0
 15  2  2  0  0  0  0
 16 12  1  0  0  0  0
 17  8  2  0  0  0  0
 18 15  1  0  0  0  0
 19 24  2  0  0  0  0
 19 22  1  0  0  0  0
 20 19  1  0  0  0  0
 21 14  1  0  0  0  0
 21 23  2  0  0  0  0
 22 26  2  0  0  0  0
 24 21  1  0  0  0  0
 25 24  1  0  0  0  0
 26 23  1  0  0  0  0
 26 28  1  0  0  0  0
 28 27  1  0  0  0  0
 29 30  1  0  0  0  0
 31 32  1  0  0  0  0
 31 30  1  0  0  0  0
M  END
>  <MODEL>
3

>  <REMARK>
 VINA RESULT:      -7.4      0.643      2.134
  Name = 
  5 active torsions:
  status: ('A' for Active; 'I' for Inactive)
    1  A    between atoms: C_13  and  C_18
    2  A    between atoms: C_14  and  N_29
    3  A    between atoms: O_15  and  C_26
    4  A    between atoms: C_16  and  C_27
    5  A    between atoms: C_18  and  N_29
                            x       y       z     vdW  Elec       q    Type
                         _______ _______ _______ _____ _____    ______ ____

>  <TORSDO>
F 5

$$$$
=
 OpenBabel11052419133D

 32 36  0  0  1  0  0  0  0  0999 V2000
  186.8350  176.8840  141.7650 N   0  0  0  0  0  0  0  0  0  0  0  0
  186.6190  177.4440  144.4690 C   0  0  0  0  0  0  0  0  0  0  0  0
  187.3450  177.4220  140.5040 C   0  0  0  0  0  2  0  0  0  0  0  0
  185.4880  177.2530  142.2360 C   0  0  1  0  0  3  0  0  0  0  0  0
  184.5630  178.6070  144.1330 N   0  0  0  0  0  0  0  0  0  0  0  0
  187.6550  178.0220  147.9920 C   0  0  0  0  0  3  0  0  0  0  0  0
  185.5620  177.8300  143.6320 C   0  0  0  0  0  0  0  0  0  0  0  0
  185.5730  179.1860  147.5600 C   0  0  0  0  0  3  0  0  0  0  0  0
  185.5830  178.7170  146.2440 C   0  0  0  0  0  0  0  0  0  0  0  0
  184.7720  178.1670  141.2240 C   0  0  1  0  0  3  0  0  0  0  0  0
  184.5770  179.0440  145.3930 N   0  0  0  0  0  0  0  0  0  0  0  0
  184.8810  177.5750  139.8170 C   0  0  0  0  0  2  0  0  0  0  0  0
  187.6680  176.6020  143.9630 N   0  0  0  0  0  0  0  0  0  0  0  0
  187.7680  176.3100  142.7000 C   0  0  0  0  0  0  0  0  0  0  0  0
  186.6350  177.8940  145.7950 C   0  0  0  0  0  0  0  0  0  0  0  0
  186.3190  177.2540  139.3870 C   0  0  0  0  0  2  0  0  0  0  0  0
  186.6080  178.8400  148.4330 C   0  0  0  0  0  3  0  0  0  0  0  0
  187.6690  177.5500  146.6770 C   0  0  0  0  0  3  0  0  0  0  0  0
  191.2740  174.9660  142.0310 C   0  0  0  0  0  0  0  0  0  0  0  0
  192.6080  175.2830  142.2620 O   0  0  0  0  0  1  0  0  0  0  0  0
  188.8970  175.4680  142.2400 C   0  0  0  0  0  0  0  0  0  0  0  0
  190.9630  173.7970  141.3350 C   0  0  0  0  0  3  0  0  0  0  0  0
  188.6090  174.2960  141.5280 C   0  0  0  0  0  3  0  0  0  0  0  0
  190.2480  175.8140  142.4830 C   0  0  0  0  0  0  0  0  0  0  0  0
  190.6140  177.0990  143.1570 C   0  0  0  0  0  1  0  0  0  0  0  0
  189.6290  173.4570  141.0760 C   0  0  0  0  0  0  0  0  0  0  0  0
  188.5710  172.3200  139.1500 C   0  0  0  0  0  1  0  0  0  0  0  0
  189.2910  172.2970  140.3750 O   0  0  0  0  0  0  0  0  0  0  0  0
  183.3640  178.2940  141.5670 N   0  0  0  0  0  2  0  0  0  0  0  0
  182.6010  177.9170  140.3900 C   0  0  0  0  0  2  0  0  0  0  0  0
  181.1600  178.3470  140.5640 C   0  0  0  0  0  2  0  0  0  0  0  0
  180.9550  178.7590  141.8800 O   0  0  0  0  0  1  0  0  0  0  0  0
  1  4  1  0  0  0  0
  1 14  1  0  0  0  0
  2 15  1  0  0  0  0
  3  1  1  0  0  0  0
  4  7  1  1  0  0  0
  5 11  2  0  0  0  0
  6 17  1  0  0  0  0
  7  5  1  0  0  0  0
  7  2  2  0  0  0  0
  8 17  2  0  0  0  0
  9  8  1  0  0  0  0
 10 29  1  1  0  0  0
 10  4  1  0  0  0  0
 11  9  1  0  0  0  0
 12 10  1  0  0  0  0
 13  2  1  0  0  0  0
 14 13  2  0  0  0  0
 15  9  2  0  0  0  0
 15 18  1  0  0  0  0
 16 12  1  0  0  0  0
 16  3  1  0  0  0  0
 18  6  2  0  0  0  0
 19 20  1  0  0  0  0
 19 24  1  0  0  0  0
 21 24  2  0  0  0  0
 21 14  1  0  0  0  0
 22 19  2  0  0  0  0
 23 21  1  0  0  0  0
 24 25  1  0  0  0  0
 26 22  1  0  0  0  0
 26 23  2  0  0  0  0
 27 28  1  0  0  0  0
 28 26  1  0  0  0  0
 30 31  1  0  0  0  0
 30 29  1  0  0  0  0
 31 32  1  0  0  0  0
M  END
>  <MODEL>
4

>  <REMARK>
 VINA RESULT:      -7.3      2.837      8.268
  Name = 
  5 active torsions:
  status: ('A' for Active; 'I' for Inactive)
    1  A    between atoms: C_13  and  C_18
    2  A    between atoms: C_14  and  N_29
    3  A    between atoms: O_15  and  C_26
    4  A    between atoms: C_16  and  C_27
    5  A    between atoms: C_18  and  N_29
                            x       y       z     vdW  Elec       q    Type
                         _______ _______ _______ _____ _____    ______ ____

>  <TORSDO>
F 5

$$$$
=
 OpenBabel11052419133D

 32 36  0  0  1  0  0  0  0  0999 V2000
  186.9520  177.0120  142.0140 N   0  0  0  0  0  0  0  0  0  0  0  0
  186.6910  177.6360  144.7010 C   0  0  0  0  0  0  0  0  0  0  0  0
  187.4510  177.5360  140.7430 C   0  0  0  0  0  2  0  0  0  0  0  0
  185.5870  177.3400  142.4640 C   0  0  1  0  0  3  0  0  0  0  0  0
  184.5920  178.7060  144.3160 N   0  0  0  0  0  0  0  0  0  0  0  0
  187.6710  178.3500  148.2140 C   0  0  0  0  0  3  0  0  0  0  0  0
  185.6270  177.9560  143.8450 C   0  0  0  0  0  0  0  0  0  0  0  0
  185.5490  179.4180  147.7340 C   0  0  0  0  0  3  0  0  0  0  0  0
  185.5890  178.9140  146.4320 C   0  0  0  0  0  0  0  0  0  0  0  0
  184.8450  178.1960  141.4230 C   0  0  1  0  0  3  0  0  0  0  0  0
  184.5790  179.1770  145.5650 N   0  0  0  0  0  0  0  0  0  0  0  0
  184.9900  177.5710  140.0340 C   0  0  0  0  0  2  0  0  0  0  0  0
  187.7760  176.8230  144.2260 N   0  0  0  0  0  0  0  0  0  0  0  0
  187.8990  176.5010  142.9720 C   0  0  0  0  0  0  0  0  0  0  0  0
  186.6770  178.1220  146.0130 C   0  0  0  0  0  0  0  0  0  0  0  0
  186.4430  177.2960  139.6230 C   0  0  0  0  0  2  0  0  0  0  0  0
  186.5890  179.1370  148.6240 C   0  0  0  0  0  3  0  0  0  0  0  0
  187.7160  177.8440  146.9120 C   0  0  0  0  0  3  0  0  0  0  0  0
  190.0720  173.7160  141.5350 C   0  0  0  0  0  0  0  0  0  0  0  0
  189.9590  172.4720  140.9240 O   0  0  0  0  0  1  0  0  0  0  0  0
  189.0650  175.6930  142.5450 C   0  0  0  0  0  0  0  0  0  0  0  0
  191.3410  174.2490  141.7620 C   0  0  0  0  0  3  0  0  0  0  0  0
  190.3500  176.2030  142.7750 C   0  0  0  0  0  3  0  0  0  0  0  0
  188.9250  174.4270  141.9280 C   0  0  0  0  0  0  0  0  0  0  0  0
  187.5820  173.7950  141.7430 C   0  0  0  0  0  1  0  0  0  0  0  0
  191.4880  175.4940  142.3870 C   0  0  0  0  0  0  0  0  0  0  0  0
  193.1830  176.4190  143.9340 C   0  0  0  0  0  1  0  0  0  0  0  0
  192.7470  176.0470  142.6330 O   0  0  0  0  0  0  0  0  0  0  0  0
  183.4300  178.2760  141.7510 N   0  0  0  0  0  2  0  0  0  0  0  0
  182.6960  178.2190  140.4990 C   0  0  0  0  0  2  0  0  0  0  0  0
  181.2240  178.4550  140.7660 C   0  0  0  0  0  2  0  0  0  0  0  0
  181.0690  179.0480  142.0180 O   0  0  0  0  0  1  0  0  0  0  0  0
  1  4  1  0  0  0  0
  1 14  1  0  0  0  0
  2 15  1  0  0  0  0
  3  1  1  0  0  0  0
  4  7  1  1  0  0  0
  5 11  2  0  0  0  0
  6 17  1  0  0  0  0
  7  5  1  0  0  0  0
  7  2  2  0  0  0  0
  8 17  2  0  0  0  0
  9  8  1  0  0  0  0
 10 29  1  1  0  0  0
 10  4  1  0  0  0  0
 11  9  1  0  0  0  0
 12 10  1  0  0  0  0
 13  2  1  0  0  0  0
 14 13  2  0  0  0  0
 15  9  2  0  0  0  0
 15 18  1  0  0  0  0
 16 12  1  0  0  0  0
 16  3  1  0  0  0  0
 18  6  2  0  0  0  0
 19 22  2  0  0  0  0
 19 24  1  0  0  0  0
 20 19  1  0  0  0  0
 21 23  1  0  0  0  0
 21 14  1  0  0  0  0
 22 26  1  0  0  0  0
 24 21  2  0  0  0  0
 25 24  1  0  0  0  0
 26 28  1  0  0  0  0
 26 23  2  0  0  0  0
 28 27  1  0  0  0  0
 30 31  1  0  0  0  0
 30 29  1  0  0  0  0
 31 32  1  0  0  0  0
M  END
>  <MODEL>
5

>  <REMARK>
 VINA RESULT:      -7.3      2.827      8.432
  Name = 
  5 active torsions:
  status: ('A' for Active; 'I' for Inactive)
    1  A    between atoms: C_13  and  C_18
    2  A    between atoms: C_14  and  N_29
    3  A    between atoms: O_15  and  C_26
    4  A    between atoms: C_16  and  C_27
    5  A    between atoms: C_18  and  N_29
                            x       y       z     vdW  Elec       q    Type
                         _______ _______ _______ _____ _____    ______ ____

>  <TORSDO>
F 5

$$$$
=
 OpenBabel11052419133D

 32 36  0  0  1  0  0  0  0  0999 V2000
  189.6810  176.4790  143.0360 N   0  0  0  0  0  0  0  0  0  0  0  0
  189.6440  174.2640  141.3730 C   0  0  0  0  0  0  0  0  0  0  0  0
  189.9520  177.9160  143.0510 C   0  0  0  0  0  2  0  0  0  0  0  0
  190.7820  175.5170  143.2280 C   0  0  1  0  0  3  0  0  0  0  0  0
  191.9520  173.8260  141.7930 N   0  0  0  0  0  0  0  0  0  0  0  0
  188.5660  171.9890  138.6380 C   0  0  0  0  0  3  0  0  0  0  0  0
  190.8270  174.5380  142.0750 C   0  0  0  0  0  0  0  0  0  0  0  0
  190.9130  171.6180  139.1200 C   0  0  0  0  0  3  0  0  0  0  0  0
  190.8650  172.5990  140.1130 C   0  0  0  0  0  0  0  0  0  0  0  0
  192.1180  176.2380  143.4820 C   0  0  1  0  0  3  0  0  0  0  0  0
  191.9730  172.8950  140.8380 N   0  0  0  0  0  0  0  0  0  0  0  0
  191.9350  177.3130  144.5550 C   0  0  0  0  0  2  0  0  0  0  0  0
  188.4420  174.9880  141.6770 N   0  0  0  0  0  0  0  0  0  0  0  0
  188.4380  176.0140  142.4760 C   0  0  0  0  0  0  0  0  0  0  0  0
  189.6600  173.2830  140.3740 C   0  0  0  0  0  0  0  0  0  0  0  0
  190.7960  178.2980  144.2640 C   0  0  0  0  0  2  0  0  0  0  0  0
  189.7650  171.3140  138.3820 C   0  0  0  0  0  3  0  0  0  0  0  0
  188.5120  172.9710  139.6310 C   0  0  0  0  0  3  0  0  0  0  0  0
  185.4540  177.6730  144.1760 C   0  0  0  0  0  0  0  0  0  0  0  0
  184.9370  177.9120  145.4440 O   0  0  0  0  0  1  0  0  0  0  0  0
  187.1690  176.7390  142.7150 C   0  0  0  0  0  0  0  0  0  0  0  0
  184.7580  178.1360  143.0580 C   0  0  0  0  0  3  0  0  0  0  0  0
  186.4450  177.2010  141.6070 C   0  0  0  0  0  3  0  0  0  0  0  0
  186.6590  176.9670  144.0150 C   0  0  0  0  0  0  0  0  0  0  0  0
  187.3420  176.4160  145.2280 C   0  0  0  0  0  1  0  0  0  0  0  0
  185.2470  177.8990  141.7670 C   0  0  0  0  0  0  0  0  0  0  0  0
  183.1510  178.2910  140.5130 C   0  0  0  0  0  1  0  0  0  0  0  0
  184.5660  178.3450  140.6320 O   0  0  0  0  0  0  0  0  0  0  0  0
  193.1240  175.2920  143.9370 N   0  0  0  0  0  2  0  0  0  0  0  0
  194.3540  176.0390  144.1390 C   0  0  0  0  0  2  0  0  0  0  0  0
  195.1320  175.4280  145.2850 C   0  0  0  0  0  2  0  0  0  0  0  0
  194.5400  175.7920  146.4940 O   0  0  0  0  0  1  0  0  0  0  0  0
  1  3  1  0  0  0  0
  1  4  1  0  0  0  0
  2 13  1  0  0  0  0
  2  7  1  0  0  0  0
  3 16  1  0  0  0  0
  4  7  1  6  0  0  0
  4 10  1  0  0  0  0
  5  7  2  0  0  0  0
  6 18  2  0  0  0  0
  8  9  1  0  0  0  0
  9 15  1  0  0  0  0
  9 11  2  0  0  0  0
 10 29  1  1  0  0  0
 10 12  1  0  0  0  0
 11  5  1  0  0  0  0
 13 14  2  0  0  0  0
 14 21  1  0  0  0  0
 14  1  1  0  0  0  0
 15  2  2  0  0  0  0
 16 12  1  0  0  0  0
 17  6  1  0  0  0  0
 17  8  2  0  0  0  0
 18 15  1  0  0  0  0
 19 20  1  0  0  0  0
 21 24  2  0  0  0  0
 22 19  2  0  0  0  0
 23 26  2  0  0  0  0
 23 21  1  0  0  0  0
 24 19  1  0  0  0  0
 24 25  1  0  0  0  0
 26 22  1  0  0  0  0
 27 28  1  0  0  0  0
 28 26  1  0  0  0  0
 29 30  1  0  0  0  0
 30 31  1  0  0  0  0
 31 32  1  0  0  0  0
M  END
>  <MODEL>
6

>  <REMARK>
 VINA RESULT:      -7.2      1.335      1.387
  Name = 
  5 active torsions:
  status: ('A' for Active; 'I' for Inactive)
    1  A    between atoms: C_13  and  C_18
    2  A    between atoms: C_14  and  N_29
    3  A    between atoms: O_15  and  C_26
    4  A    between atoms: C_16  and  C_27
    5  A    between atoms: C_18  and  N_29
                            x       y       z     vdW  Elec       q    Type
                         _______ _______ _______ _____ _____    ______ ____

>  <TORSDO>
F 5

$$$$
=
 OpenBabel11052419133D

 32 36  0  0  1  0  0  0  0  0999 V2000
  189.5800  174.7230  142.3710 N   0  0  0  0  0  0  0  0  0  0  0  0
  191.9940  175.0620  143.6850 C   0  0  0  0  0  0  0  0  0  0  0  0
  188.3870  173.8770  142.3310 C   0  0  0  0  0  2  0  0  0  0  0  0
  190.7810  174.3430  141.6070 C   0  0  1  0  0  3  0  0  0  0  0  0
  193.0980  173.5740  142.1800 N   0  0  0  0  0  0  0  0  0  0  0  0
  194.3790  175.8320  146.4300 C   0  0  0  0  0  3  0  0  0  0  0  0
  191.9830  174.2760  142.5230 C   0  0  0  0  0  0  0  0  0  0  0  0
  195.4200  174.3070  144.8590 C   0  0  0  0  0  3  0  0  0  0  0  0
  194.2580  174.3120  144.0830 C   0  0  0  0  0  0  0  0  0  0  0  0
  190.5460  173.0550  140.7970 C   0  0  1  0  0  3  0  0  0  0  0  0
  194.1950  173.5840  142.9400 N   0  0  0  0  0  0  0  0  0  0  0  0
  189.2310  173.1590  140.0220 C   0  0  0  0  0  2  0  0  0  0  0  0
  190.8350  175.8290  144.0460 N   0  0  0  0  0  0  0  0  0  0  0  0
  189.7010  175.7000  143.4220 C   0  0  0  0  0  0  0  0  0  0  0  0
  193.1460  175.0810  144.4810 C   0  0  0  0  0  0  0  0  0  0  0  0
  188.0210  173.5200  140.8940 C   0  0  0  0  0  2  0  0  0  0  0  0
  195.4800  175.0650  146.0310 C   0  0  0  0  0  3  0  0  0  0  0  0
  193.2150  175.8400  145.6580 C   0  0  0  0  0  3  0  0  0  0  0  0
  186.8200  178.1950  143.5420 C   0  0  0  0  0  0  0  0  0  0  0  0
  186.2100  179.1710  142.7610 O   0  0  0  0  0  1  0  0  0  0  0  0
  188.5340  176.4940  143.8720 C   0  0  0  0  0  0  0  0  0  0  0  0
  186.3180  177.9350  144.8180 C   0  0  0  0  0  3  0  0  0  0  0  0
  188.0220  176.2590  145.1560 C   0  0  0  0  0  3  0  0  0  0  0  0
  187.9330  177.4850  143.0610 C   0  0  0  0  0  0  0  0  0  0  0  0
  188.4950  177.8410  141.7210 C   0  0  0  0  0  1  0  0  0  0  0  0
  186.9190  176.9680  145.6350 C   0  0  0  0  0  0  0  0  0  0  0  0
  186.1100  177.7120  147.8510 C   0  0  0  0  0  1  0  0  0  0  0  0
  186.4420  176.6920  146.9180 O   0  0  0  0  0  0  0  0  0  0  0  0
  191.6290  172.8490  139.8490 N   0  0  0  0  0  2  0  0  0  0  0  0
  191.2470  173.5080  138.6120 C   0  0  0  0  0  2  0  0  0  0  0  0
  192.4770  174.0970  137.9540 C   0  0  0  0  0  2  0  0  0  0  0  0
  193.3280  174.6080  138.9330 O   0  0  0  0  0  1  0  0  0  0  0  0
  1 14  1  0  0  0  0
  2 13  1  0  0  0  0
  2 15  1  0  0  0  0
  3  1  1  0  0  0  0
  4  1  1  0  0  0  0
  4  7  1  1  0  0  0
  5  7  1  0  0  0  0
  5 11  2  0  0  0  0
  7  2  2  0  0  0  0
  8 17  2  0  0  0  0
  9 15  2  0  0  0  0
  9  8  1  0  0  0  0
 10 29  1  6  0  0  0
 10  4  1  0  0  0  0
 11  9  1  0  0  0  0
 12 10  1  0  0  0  0
 12 16  1  0  0  0  0
 14 21  1  0  0  0  0
 14 13  2  0  0  0  0
 15 18  1  0  0  0  0
 16  3  1  0  0  0  0
 17  6  1  0  0  0  0
 18  6  2  0  0  0  0
 19 22  1  0  0  0  0
 20 19  1  0  0  0  0
 21 23  2  0  0  0  0
 22 26  2  0  0  0  0
 23 26  1  0  0  0  0
 24 19  2  0  0  0  0
 24 21  1  0  0  0  0
 25 24  1  0  0  0  0
 26 28  1  0  0  0  0
 28 27  1  0  0  0  0
 30 29  1  0  0  0  0
 31 30  1  0  0  0  0
 31 32  1  0  0  0  0
M  END
>  <MODEL>
7

>  <REMARK>
 VINA RESULT:      -7.2      2.223      5.483
  Name = 
  5 active torsions:
  status: ('A' for Active; 'I' for Inactive)
    1  A    between atoms: C_13  and  C_18
    2  A    between atoms: C_14  and  N_29
    3  A    between atoms: O_15  and  C_26
    4  A    between atoms: C_16  and  C_27
    5  A    between atoms: C_18  and  N_29
                            x       y       z     vdW  Elec       q    Type
                         _______ _______ _______ _____ _____    ______ ____

>  <TORSDO>
F 5

$$$$
=
 OpenBabel11052419133D

 32 36  0  0  1  0  0  0  0  0999 V2000
  190.1750  175.5080  144.6040 N   0  0  0  0  0  0  0  0  0  0  0  0
  189.7740  173.8460  142.4250 C   0  0  0  0  0  0  0  0  0  0  0  0
  190.7980  176.7700  145.0040 C   0  0  0  0  0  2  0  0  0  0  0  0
  190.9640  174.2640  144.5970 C   0  0  1  0  0  3  0  0  0  0  0  0
  191.8280  172.7020  142.8360 N   0  0  0  0  0  0  0  0  0  0  0  0
  188.4860  172.6660  139.1440 C   0  0  0  0  0  3  0  0  0  0  0  0
  190.8950  173.6100  143.2350 C   0  0  0  0  0  0  0  0  0  0  0  0
  190.5880  171.5600  139.6330 C   0  0  0  0  0  3  0  0  0  0  0  0
  190.6720  172.2540  140.8420 C   0  0  0  0  0  0  0  0  0  0  0  0
  192.3990  174.5070  145.0970 C   0  0  1  0  0  3  0  0  0  0  0  0
  191.7250  172.0530  141.6740 N   0  0  0  0  0  0  0  0  0  0  0  0
  192.3690  175.3070  146.4010 C   0  0  0  0  0  2  0  0  0  0  0  0
  188.7670  174.7810  142.8450 N   0  0  0  0  0  0  0  0  0  0  0  0
  188.9300  175.5500  143.8810 C   0  0  0  0  0  0  0  0  0  0  0  0
  189.6580  173.1620  141.2090 C   0  0  0  0  0  0  0  0  0  0  0  0
  191.5600  176.6080  146.3160 C   0  0  0  0  0  2  0  0  0  0  0  0
  189.4960  171.7670  138.7840 C   0  0  0  0  0  3  0  0  0  0  0  0
  188.5660  173.3630  140.3530 C   0  0  0  0  0  3  0  0  0  0  0  0
  186.4170  178.4150  143.7350 C   0  0  0  0  0  0  0  0  0  0  0  0
  185.9770  179.4160  142.8750 O   0  0  0  0  0  1  0  0  0  0  0  0
  187.8670  176.5200  144.2340 C   0  0  0  0  0  0  0  0  0  0  0  0
  185.8370  178.3010  144.9990 C   0  0  0  0  0  3  0  0  0  0  0  0
  187.2800  176.4330  145.5040 C   0  0  0  0  0  3  0  0  0  0  0  0
  187.4390  177.5330  143.3440 C   0  0  0  0  0  0  0  0  0  0  0  0
  188.0950  177.7300  142.0130 C   0  0  0  0  0  1  0  0  0  0  0  0
  186.2680  177.3120  145.8930 C   0  0  0  0  0  0  0  0  0  0  0  0
  185.9410  178.1190  148.2080 C   0  0  0  0  0  1  0  0  0  0  0  0
  185.7100  177.1810  147.1670 O   0  0  0  0  0  0  0  0  0  0  0  0
  193.0700  173.2410  145.3430 N   0  0  0  0  0  2  0  0  0  0  0  0
  194.4960  173.5130  145.3880 C   0  0  0  0  0  2  0  0  0  0  0  0
  194.9220  174.1840  144.0990 C   0  0  0  0  0  2  0  0  0  0  0  0
  195.8030  175.2250  144.3870 O   0  0  0  0  0  1  0  0  0  0  0  0
  1  3  1  0  0  0  0
  2 13  1  0  0  0  0
  2  7  1  0  0  0  0
  3 16  1  0  0  0  0
  4  7  1  6  0  0  0
  4  1  1  0  0  0  0
  4 10  1  0  0  0  0
  5  7  2  0  0  0  0
  6 18  2  0  0  0  0
  8  9  1  0  0  0  0
  9 15  1  0  0  0  0
  9 11  2  0  0  0  0
 10 29  1  1  0  0  0
 10 12  1  0  0  0  0
 11  5  1  0  0  0  0
 13 14  2  0  0  0  0
 14 21  1  0  0  0  0
 14  1  1  0  0  0  0
 15  2  2  0  0  0  0
 16 12  1  0  0  0  0
 17  6  1  0  0  0  0
 17  8  2  0  0  0  0
 18 15  1  0  0  0  0
 19 22  1  0  0  0  0
 20 19  1  0  0  0  0
 21 23  2  0  0  0  0
 22 26  2  0  0  0  0
 23 26  1  0  0  0  0
 24 19  2  0  0  0  0
 24 21  1  0  0  0  0
 25 24  1  0  0  0  0
 26 28  1  0  0  0  0
 28 27  1  0  0  0  0
 29 30  1  0  0  0  0
 31 32  1  0  0  0  0
 31 30  1  0  0  0  0
M  END
>  <MODEL>
8

>  <REMARK>
 VINA RESULT:      -7.1      1.593      2.675
  Name = 
  5 active torsions:
  status: ('A' for Active; 'I' for Inactive)
    1  A    between atoms: C_13  and  C_18
    2  A    between atoms: C_14  and  N_29
    3  A    between atoms: O_15  and  C_26
    4  A    between atoms: C_16  and  C_27
    5  A    between atoms: C_18  and  N_29
                            x       y       z     vdW  Elec       q    Type
                         _______ _______ _______ _____ _____    ______ ____

>  <TORSDO>
F 5

$$$$
=
 OpenBabel11052419133D

 32 36  0  0  1  0  0  0  0  0999 V2000
  189.4730  175.7850  144.4650 N   0  0  0  0  0  0  0  0  0  0  0  0
  187.7200  176.9430  142.6590 C   0  0  0  0  0  0  0  0  0  0  0  0
  189.7130  174.5600  145.2290 C   0  0  0  0  0  2  0  0  0  0  0  0
  188.5960  176.8370  145.0100 C   0  0  1  0  0  3  0  0  0  0  0  0
  186.3460  177.7740  144.4250 N   0  0  0  0  0  0  0  0  0  0  0  0
  185.9070  177.5410  139.4700 C   0  0  0  0  0  3  0  0  0  0  0  0
  187.4940  177.1600  144.0270 C   0  0  0  0  0  0  0  0  0  0  0  0
  184.5680  178.3450  141.3240 C   0  0  0  0  0  3  0  0  0  0  0  0
  185.5640  177.9450  142.2180 C   0  0  0  0  0  0  0  0  0  0  0  0
  188.0860  176.4680  146.4150 C   0  0  1  0  0  3  0  0  0  0  0  0
  185.4080  178.1450  143.5510 N   0  0  0  0  0  0  0  0  0  0  0  0
  189.2540  176.0090  147.2910 C   0  0  0  0  0  2  0  0  0  0  0  0
  188.9380  176.3210  142.2210 N   0  0  0  0  0  0  0  0  0  0  0  0
  189.7840  175.7950  143.0580 C   0  0  0  0  0  0  0  0  0  0  0  0
  186.7420  177.3370  141.7380 C   0  0  0  0  0  0  0  0  0  0  0  0
  190.0940  174.8850  146.6700 C   0  0  0  0  0  2  0  0  0  0  0  0
  184.7390  178.1420  139.9520 C   0  0  0  0  0  3  0  0  0  0  0  0
  186.9070  177.1390  140.3600 C   0  0  0  0  0  3  0  0  0  0  0  0
  193.4210  174.9000  142.3420 C   0  0  0  0  0  0  0  0  0  0  0  0
  194.7110  175.3160  142.6520 O   0  0  0  0  0  1  0  0  0  0  0  0
  191.0020  175.1340  142.5350 C   0  0  0  0  0  0  0  0  0  0  0  0
  193.2450  173.8020  141.4990 C   0  0  0  0  0  3  0  0  0  0  0  0
  190.8490  174.0380  141.6750 C   0  0  0  0  0  3  0  0  0  0  0  0
  192.3050  175.5780  142.8620 C   0  0  0  0  0  0  0  0  0  0  0  0
  192.5250  176.7990  143.6990 C   0  0  0  0  0  1  0  0  0  0  0  0
  191.9580  173.3670  141.1570 C   0  0  0  0  0  0  0  0  0  0  0  0
  190.4750  171.6900  140.1040 C   0  0  0  0  0  1  0  0  0  0  0  0
  191.7530  172.2760  140.3090 O   0  0  0  0  0  0  0  0  0  0  0  0
  187.4590  177.6200  147.0440 N   0  0  0  0  0  2  0  0  0  0  0  0
  186.2140  177.1600  147.6350 C   0  0  0  0  0  2  0  0  0  0  0  0
  185.2090  178.2920  147.6370 C   0  0  0  0  0  2  0  0  0  0  0  0
  184.1090  177.9370  146.8570 O   0  0  0  0  0  1  0  0  0  0  0  0
  1  4  1  0  0  0  0
  1  3  1  0  0  0  0
  2  7  1  0  0  0  0
  3 16  1  0  0  0  0
  4  7  1  6  0  0  0
  4 10  1  0  0  0  0
  6 17  1  0  0  0  0
  6 18  2  0  0  0  0
  7  5  2  0  0  0  0
  8  9  1  0  0  0  0
  9 11  2  0  0  0  0
 10 29  1  1  0  0  0
 10 12  1  0  0  0  0
 11  5  1  0  0  0  0
 13  2  1  0  0  0  0
 13 14  2  0  0  0  0
 14  1  1  0  0  0  0
 15  9  1  0  0  0  0
 15  2  2  0  0  0  0
 16 12  1  0  0  0  0
 17  8  2  0  0  0  0
 18 15  1  0  0  0  0
 19 20  1  0  0  0  0
 19 24  1  0  0  0  0
 21 24  2  0  0  0  0
 21 14  1  0  0  0  0
 22 19  2  0  0  0  0
 23 21  1  0  0  0  0
 24 25  1  0  0  0  0
 26 22  1  0  0  0  0
 26 23  2  0  0  0  0
 27 28  1  0  0  0  0
 28 26  1  0  0  0  0
 29 30  1  0  0  0  0
 30 31  1  0  0  0  0
 32 31  1  0  0  0  0
M  END
>  <MODEL>
9

>  <REMARK>
 VINA RESULT:      -7.0      2.326      6.814
  Name = 
  5 active torsions:
  status: ('A' for Active; 'I' for Inactive)
    1  A    between atoms: C_13  and  C_18
    2  A    between atoms: C_14  and  N_29
    3  A    between atoms: O_15  and  C_26
    4  A    between atoms: C_16  and  C_27
    5  A    between atoms: C_18  and  N_29
                            x       y       z     vdW  Elec       q    Type
                         _______ _______ _______ _____ _____    ______ ____

>  <TORSDO>
F 5

$$$$
