=
 OpenBabel11052417203D

 30 34  0  0  1  0  0  0  0  0999 V2000
  191.6210  176.3540  143.2440 C   0  0  2  0  0  3  0  0  0  0  0  0
  192.6140  176.6970  145.6860 C   0  0  1  0  0  3  0  0  0  0  0  0
  188.0720  176.7820  146.4910 C   0  0  0  0  0  2  0  0  0  0  0  0
  190.1950  176.3340  142.6860 C   0  0  1  0  0  3  0  0  0  0  0  0
  192.1340  175.0340  143.3050 O   0  0  0  0  0  0  0  0  0  0  0  0
  189.8000  171.5130  143.1400 C   0  0  0  0  0  1  0  0  0  0  0  0
  190.2050  175.0030  141.9770 C   0  0  1  0  0  3  0  0  0  0  0  0
  191.6020  172.9600  142.1510 C   0  0  0  0  0  2  0  0  0  0  0  0
  187.2410  176.2870  145.2860 C   0  0  1  0  0  3  0  0  0  0  0  0
  191.0950  174.1960  142.8720 C   0  0  1  0  0  3  0  0  0  0  0  0
  189.1780  172.7690  140.7720 S   0  0  0  0  0  0  0  0  0  0  0  0
  192.2880  175.4870  146.5460 C   0  0  0  0  0  2  0  0  0  0  0  0
  190.9690  170.8880  141.1850 O   0  0  0  0  0  1  0  0  0  0  0  0
  193.8620  176.5350  145.0800 O   0  0  0  0  0  1  0  0  0  0  0  0
  189.5530  176.4080  146.3360 C   0  0  2  0  0  3  0  0  0  0  0  0
  190.3590  176.8620  147.5390 C   0  0  0  0  0  2  0  0  0  0  0  0
  190.4480  171.9950  141.8510 C   0  0  2  0  0  0  0  0  0  0  0  0
  191.5270  176.9900  144.6370 C   0  0  2  0  0  3  0  0  0  0  0  0
  189.3300  176.3220  143.9420 C   0  0  2  0  0  3  0  0  0  0  0  0
  185.9160  176.7120  145.4010 O   0  0  0  0  0  1  0  0  0  0  0  0
  187.8380  176.6740  143.9100 C   0  0  2  0  0  3  0  0  0  0  0  0
  187.9170  175.1610  140.9790 C   0  0  0  0  0  1  0  0  0  0  0  0
  191.5220  175.9030  147.8070 C   0  0  0  0  0  2  0  0  0  0  0  0
  190.0540  177.0480  145.0420 C   0  0  1  0  0  3  0  0  0  0  0  0
  188.8760  174.2820  141.7600 C   0  0  2  0  0  3  0  0  0  0  0  0
  187.5100  178.1220  143.4960 C   0  0  1  0  0  3  0  0  0  0  0  0
  188.3300  178.5650  142.4550 O   0  0  0  0  0  1  0  0  0  0  0  0
  186.0420  178.2790  143.1250 C   0  0  0  0  0  2  0  0  0  0  0  0
  185.5580  179.5820  143.5010 N   0  0  0  0  0  0  0  0  0  0  0  0
  185.6040  179.9390  144.6400 O   0  0  0  0  0  0  0  0  0  0  0  0
  1  5  1  1  0  0  0
  1 18  1  0  0  0  0
  2 14  1  6  0  0  0
  2 12  1  0  0  0  0
  4  1  1  0  0  0  0
  4 19  1  0  0  0  0
  7  4  1  0  0  0  0
  7 10  1  0  0  0  0
  8 10  1  0  0  0  0
  9 20  1  0  0  0  0
  9  3  1  0  0  0  0
 10  5  1  0  0  0  0
 11 25  1  0  0  0  0
 11 17  1  0  0  0  0
 12 23  1  0  0  0  0
 13 17  1  0  0  0  0
 15  3  1  0  0  0  0
 15 16  1  0  0  0  0
 16 23  1  0  0  0  0
 17  8  1  0  0  0  0
 17  6  1  0  0  0  0
 18 24  1  0  0  0  0
 18  2  1  0  0  0  0
 19 24  1  0  0  0  0
 21 19  1  0  0  0  0
 21  9  1  0  0  0  0
 22 25  1  0  0  0  0
 24 15  1  0  0  0  0
 25  7  1  0  0  0  0
 26 21  1  0  0  0  0
 27 26  1  0  0  0  0
 28 26  1  0  0  0  0
 28 29  1  0  0  0  0
 29 30  2  0  0  0  0
M  END
>  <MODEL>
1

>  <REMARK>
 VINA RESULT:      -7.3      0.000      0.000
  Name = 
  3 active torsions:
  status: ('A' for Active; 'I' for Inactive)
    1  A    between atoms: C_7  and  C_10
    2  A    between atoms: C_7  and  N_16
    3  A    between atoms: C_10  and  C_25
                            x       y       z     vdW  Elec       q    Type
                         _______ _______ _______ _____ _____    ______ ____

>  <TORSDO>
F 3

$$$$
=
 OpenBabel11052417203D

 30 34  0  0  1  0  0  0  0  0999 V2000
  192.5140  176.1230  142.4000 C   0  0  2  0  0  3  0  0  0  0  0  0
  194.8430  176.1380  143.6820 C   0  0  1  0  0  3  0  0  0  0  0  0
  191.8760  175.3200  147.1190 C   0  0  0  0  0  2  0  0  0  0  0  0
  191.0620  175.9790  142.8650 C   0  0  1  0  0  3  0  0  0  0  0  0
  192.9470  174.9180  141.7890 O   0  0  0  0  0  0  0  0  0  0  0  0
  191.0500  171.1640  142.2170 C   0  0  0  0  0  1  0  0  0  0  0  0
  190.6150  174.8320  141.9940 C   0  0  1  0  0  3  0  0  0  0  0  0
  191.7970  173.0520  140.7350 C   0  0  0  0  0  2  0  0  0  0  0  0
  190.4650  174.9420  146.6150 C   0  0  1  0  0  3  0  0  0  0  0  0
  191.8720  174.0230  141.9000 C   0  0  1  0  0  3  0  0  0  0  0  0
  189.0530  172.7410  141.1680 S   0  0  0  0  0  0  0  0  0  0  0  0
  195.1440  174.7470  144.2130 C   0  0  0  0  0  2  0  0  0  0  0  0
  190.6920  171.1340  139.8830 O   0  0  0  0  0  1  0  0  0  0  0  0
  195.4110  176.3040  142.4170 O   0  0  0  0  0  1  0  0  0  0  0  0
  192.9130  175.2310  145.9900 C   0  0  2  0  0  3  0  0  0  0  0  0
  194.3020  175.5670  146.4970 C   0  0  0  0  0  2  0  0  0  0  0  0
  190.7200  171.9890  140.9830 C   0  0  2  0  0  0  0  0  0  0  0  0
  193.3360  176.4490  143.6530 C   0  0  2  0  0  3  0  0  0  0  0  0
  191.2050  175.5800  144.3310 C   0  0  2  0  0  3  0  0  0  0  0  0
  189.5230  175.1140  147.6310 O   0  0  0  0  0  1  0  0  0  0  0  0
  190.0400  175.6830  145.3230 C   0  0  2  0  0  3  0  0  0  0  0  0
  188.2190  174.8060  142.7150 C   0  0  0  0  0  1  0  0  0  0  0  0
  195.3660  174.7770  145.7290 C   0  0  0  0  0  2  0  0  0  0  0  0
  192.4660  176.1860  144.8820 C   0  0  1  0  0  3  0  0  0  0  0  0
  189.4560  173.9600  142.4740 C   0  0  2  0  0  3  0  0  0  0  0  0
  189.5230  177.1100  145.5890 C   0  0  1  0  0  3  0  0  0  0  0  0
  190.1640  178.0560  144.7830 O   0  0  0  0  0  1  0  0  0  0  0  0
  188.0130  177.1990  145.4200 C   0  0  0  0  0  2  0  0  0  0  0  0
  187.3820  177.5630  146.6610 N   0  0  0  0  0  0  0  0  0  0  0  0
  186.6310  176.8080  147.2020 O   0  0  0  0  0  0  0  0  0  0  0  0
  1  5  1  1  0  0  0
  1  4  1  0  0  0  0
  1 18  1  0  0  0  0
  2 14  1  6  0  0  0
  2 12  1  0  0  0  0
  4 19  1  0  0  0  0
  5 10  1  0  0  0  0
  7 25  1  0  0  0  0
  7  4  1  0  0  0  0
  8 17  1  0  0  0  0
  8 10  1  0  0  0  0
  9  3  1  0  0  0  0
  9 20  1  0  0  0  0
 10  7  1  0  0  0  0
 11 25  1  0  0  0  0
 12 23  1  0  0  0  0
 13 17  1  0  0  0  0
 15 16  1  0  0  0  0
 15  3  1  0  0  0  0
 17 11  1  0  0  0  0
 17  6  1  0  0  0  0
 18  2  1  0  0  0  0
 18 24  1  0  0  0  0
 19 24  1  0  0  0  0
 19 21  1  0  0  0  0
 21 26  1  0  0  0  0
 21  9  1  0  0  0  0
 23 16  1  0  0  0  0
 24 15  1  0  0  0  0
 25 22  1  0  0  0  0
 27 26  1  0  0  0  0
 28 26  1  0  0  0  0
 28 29  1  0  0  0  0
 29 30  2  0  0  0  0
M  END
>  <MODEL>
2

>  <REMARK>
 VINA RESULT:      -7.3      2.049      2.838
  Name = 
  3 active torsions:
  status: ('A' for Active; 'I' for Inactive)
    1  A    between atoms: C_7  and  C_10
    2  A    between atoms: C_7  and  N_16
    3  A    between atoms: C_10  and  C_25
                            x       y       z     vdW  Elec       q    Type
                         _______ _______ _______ _____ _____    ______ ____

>  <TORSDO>
F 3

$$$$
=
 OpenBabel11052417203D

 30 34  0  0  1  0  0  0  0  0999 V2000
  190.9820  172.8390  144.6380 C   0  0  2  0  0  3  0  0  0  0  0  0
  189.8830  172.1000  142.3330 C   0  0  1  0  0  3  0  0  0  0  0  0
  188.2240  176.3750  142.8430 C   0  0  0  0  0  2  0  0  0  0  0  0
  190.8590  174.0980  145.5020 C   0  0  1  0  0  3  0  0  0  0  0  0
  192.2240  172.8430  143.9550 O   0  0  0  0  0  0  0  0  0  0  0  0
  194.6790  176.2390  143.3980 C   0  0  0  0  0  1  0  0  0  0  0  0
  192.3130  174.4760  145.6310 C   0  0  1  0  0  3  0  0  0  0  0  0
  194.3630  173.9330  144.3450 C   0  0  0  0  0  2  0  0  0  0  0  0
  188.9540  177.1720  143.9480 C   0  0  1  0  0  3  0  0  0  0  0  0
  192.8500  174.0500  144.2990 C   0  0  1  0  0  3  0  0  0  0  0  0
  194.4770  176.0740  146.1380 S   0  0  0  0  0  0  0  0  0  0  0  0
  190.4510  172.9400  141.2020 C   0  0  0  0  0  2  0  0  0  0  0  0
  196.3910  175.1380  144.5950 O   0  0  0  0  0  1  0  0  0  0  0  0
  190.6260  170.9270  142.4830 O   0  0  0  0  0  1  0  0  0  0  0  0
  189.0140  175.1180  142.4520 C   0  0  2  0  0  3  0  0  0  0  0  0
  188.3140  174.3580  141.3400 C   0  0  0  0  0  2  0  0  0  0  0  0
  195.0090  175.3080  144.5540 C   0  0  2  0  0  0  0  0  0  0  0  0
  189.7990  172.8730  143.6620 C   0  0  2  0  0  3  0  0  0  0  0  0
  190.0810  175.0590  144.6080 C   0  0  2  0  0  3  0  0  0  0  0  0
  188.1800  178.2610  144.3530 O   0  0  0  0  0  1  0  0  0  0  0  0
  189.3900  176.3110  145.1590 C   0  0  2  0  0  3  0  0  0  0  0  0
  191.9970  176.4160  147.1790 C   0  0  0  0  0  1  0  0  0  0  0  0
  189.3330  173.6560  140.4370 C   0  0  0  0  0  2  0  0  0  0  0  0
  189.1720  174.2660  143.7110 C   0  0  1  0  0  3  0  0  0  0  0  0
  192.6660  175.9370  145.9040 C   0  0  2  0  0  3  0  0  0  0  0  0
  188.2440  176.0470  146.1560 C   0  0  1  0  0  3  0  0  0  0  0  0
  188.5660  175.0380  147.0670 O   0  0  0  0  0  1  0  0  0  0  0  0
  187.8340  177.3180  146.8880 C   0  0  0  0  0  2  0  0  0  0  0  0
  186.4210  177.3170  147.1580 N   0  0  0  0  0  0  0  0  0  0  0  0
  185.6600  176.7910  146.4030 O   0  0  0  0  0  0  0  0  0  0  0  0
  1  5  1  6  0  0  0
  1  4  1  0  0  0  0
  2 14  1  1  0  0  0
  2 18  1  0  0  0  0
  3  9  1  0  0  0  0
  4  7  1  0  0  0  0
  5 10  1  0  0  0  0
  6 17  1  0  0  0  0
  7 25  1  0  0  0  0
  8 17  1  0  0  0  0
  9 20  1  0  0  0  0
  9 21  1  0  0  0  0
 10  8  1  0  0  0  0
 10  7  1  0  0  0  0
 12  2  1  0  0  0  0
 15  3  1  0  0  0  0
 15 24  1  0  0  0  0
 16 15  1  0  0  0  0
 17 13  1  0  0  0  0
 17 11  1  0  0  0  0
 18 24  1  0  0  0  0
 18  1  1  0  0  0  0
 19 21  1  0  0  0  0
 19  4  1  0  0  0  0
 21 26  1  0  0  0  0
 23 12  1  0  0  0  0
 23 16  1  0  0  0  0
 24 19  1  0  0  0  0
 25 11  1  0  0  0  0
 25 22  1  0  0  0  0
 26 28  1  0  0  0  0
 26 27  1  0  0  0  0
 28 29  1  0  0  0  0
 30 29  2  0  0  0  0
M  END
>  <MODEL>
3

>  <REMARK>
 VINA RESULT:      -7.0      2.500      5.137
  Name = 
  3 active torsions:
  status: ('A' for Active; 'I' for Inactive)
    1  A    between atoms: C_7  and  C_10
    2  A    between atoms: C_7  and  N_16
    3  A    between atoms: C_10  and  C_25
                            x       y       z     vdW  Elec       q    Type
                         _______ _______ _______ _____ _____    ______ ____

>  <TORSDO>
F 3

$$$$
=
 OpenBabel11052417203D

 30 34  0  0  1  0  0  0  0  0999 V2000
  189.9200  174.5540  145.7960 C   0  0  2  0  0  3  0  0  0  0  0  0
  192.0400  175.3100  147.2110 C   0  0  1  0  0  3  0  0  0  0  0  0
  193.9870  173.8800  143.2790 C   0  0  0  0  0  2  0  0  0  0  0  0
  189.7560  173.9110  144.4160 C   0  0  1  0  0  3  0  0  0  0  0  0
  189.5710  175.9270  145.7330 O   0  0  0  0  0  0  0  0  0  0  0  0
  189.2810  178.1970  142.1780 C   0  0  0  0  0  1  0  0  0  0  0  0
  188.8080  174.8920  143.7750 C   0  0  1  0  0  3  0  0  0  0  0  0
  188.1870  177.2500  144.2330 C   0  0  0  0  0  2  0  0  0  0  0  0
  192.9600  173.6780  142.1420 C   0  0  1  0  0  3  0  0  0  0  0  0
  189.2550  176.1830  144.3900 C   0  0  1  0  0  3  0  0  0  0  0  0
  187.4690  176.1690  141.7570 S   0  0  0  0  0  0  0  0  0  0  0  0
  192.6840  176.5230  146.5610 C   0  0  0  0  0  2  0  0  0  0  0  0
  187.0060  178.5910  142.6730 O   0  0  0  0  0  1  0  0  0  0  0  0
  191.1140  175.7130  148.1740 O   0  0  0  0  0  1  0  0  0  0  0  0
  193.3820  174.6860  144.4380 C   0  0  2  0  0  3  0  0  0  0  0  0
  194.4030  174.9150  145.5360 C   0  0  0  0  0  2  0  0  0  0  0  0
  187.9990  177.6180  142.7560 C   0  0  2  0  0  0  0  0  0  0  0  0
  191.3910  174.3630  146.1860 C   0  0  2  0  0  3  0  0  0  0  0  0
  191.1620  173.9850  143.8280 C   0  0  2  0  0  3  0  0  0  0  0  0
  193.4980  172.8700  141.1390 O   0  0  0  0  0  1  0  0  0  0  0  0
  191.5890  173.1410  142.6220 C   0  0  2  0  0  3  0  0  0  0  0  0
  188.4880  173.6600  141.6220 C   0  0  0  0  0  1  0  0  0  0  0  0
  194.1570  176.2540  146.2370 C   0  0  0  0  0  2  0  0  0  0  0  0
  192.1650  173.9130  144.9460 C   0  0  1  0  0  3  0  0  0  0  0  0
  188.7940  175.0060  142.2520 C   0  0  2  0  0  3  0  0  0  0  0  0
  191.5850  171.6160  142.8480 C   0  0  1  0  0  3  0  0  0  0  0  0
  191.5490  171.2910  144.2070 O   0  0  0  0  0  1  0  0  0  0  0  0
  190.4380  170.9440  142.1070 C   0  0  0  0  0  2  0  0  0  0  0  0
  190.8240  170.6190  140.7590 N   0  0  0  0  0  0  0  0  0  0  0  0
  190.3960  171.2470  139.8380 O   0  0  0  0  0  0  0  0  0  0  0  0
  1  5  1  6  0  0  0
  1 18  1  0  0  0  0
  2 14  1  1  0  0  0
  3 15  1  0  0  0  0
  4  1  1  0  0  0  0
  6 17  1  0  0  0  0
  7 10  1  0  0  0  0
  7  4  1  0  0  0  0
  8 10  1  0  0  0  0
  9 21  1  0  0  0  0
  9  3  1  0  0  0  0
 10  5  1  0  0  0  0
 11 25  1  0  0  0  0
 11 17  1  0  0  0  0
 12  2  1  0  0  0  0
 13 17  1  0  0  0  0
 15 24  1  0  0  0  0
 15 16  1  0  0  0  0
 16 23  1  0  0  0  0
 17  8  1  0  0  0  0
 18  2  1  0  0  0  0
 19  4  1  0  0  0  0
 19 24  1  0  0  0  0
 20  9  1  0  0  0  0
 21 26  1  0  0  0  0
 21 19  1  0  0  0  0
 22 25  1  0  0  0  0
 23 12  1  0  0  0  0
 24 18  1  0  0  0  0
 25  7  1  0  0  0  0
 26 27  1  0  0  0  0
 28 26  1  0  0  0  0
 29 28  1  0  0  0  0
 30 29  2  0  0  0  0
M  END
>  <MODEL>
4

>  <REMARK>
 VINA RESULT:      -6.9      2.844      5.873
  Name = 
  3 active torsions:
  status: ('A' for Active; 'I' for Inactive)
    1  A    between atoms: C_7  and  C_10
    2  A    between atoms: C_7  and  N_16
    3  A    between atoms: C_10  and  C_25
                            x       y       z     vdW  Elec       q    Type
                         _______ _______ _______ _____ _____    ______ ____

>  <TORSDO>
F 3

$$$$
=
 OpenBabel11052417203D

 30 34  0  0  1  0  0  0  0  0999 V2000
  191.8460  172.3880  144.0680 C   0  0  2  0  0  3  0  0  0  0  0  0
  189.9260  171.5940  142.4090 C   0  0  1  0  0  3  0  0  0  0  0  0
  188.4520  175.7960  143.6200 C   0  0  0  0  0  2  0  0  0  0  0  0
  192.0390  173.6440  144.9240 C   0  0  1  0  0  3  0  0  0  0  0  0
  192.6960  172.4430  142.9340 O   0  0  0  0  0  0  0  0  0  0  0  0
  194.5620  175.9410  141.4670 C   0  0  0  0  0  1  0  0  0  0  0  0
  193.4000  174.0840  144.4490 C   0  0  1  0  0  3  0  0  0  0  0  0
  194.7590  173.6260  142.4260 C   0  0  0  0  0  2  0  0  0  0  0  0
  189.5390  176.6270  144.3380 C   0  0  1  0  0  3  0  0  0  0  0  0
  193.3580  173.6780  143.0080 C   0  0  1  0  0  3  0  0  0  0  0  0
  195.5140  175.7760  144.0440 S   0  0  0  0  0  0  0  0  0  0  0  0
  189.9430  172.4550  141.1570 C   0  0  0  0  0  2  0  0  0  0  0  0
  196.6590  174.9190  141.8370 O   0  0  0  0  0  1  0  0  0  0  0  0
  190.7120  170.4560  142.2230 O   0  0  0  0  0  1  0  0  0  0  0  0
  189.0610  174.5720  142.9190 C   0  0  2  0  0  3  0  0  0  0  0  0
  187.9980  173.7800  142.1840 C   0  0  0  0  0  2  0  0  0  0  0  0
  195.3760  175.0280  142.3710 C   0  0  2  0  0  0  0  0  0  0  0  0
  190.3660  172.3670  143.6650 C   0  0  2  0  0  3  0  0  0  0  0  0
  190.9230  174.5670  144.4440 C   0  0  2  0  0  3  0  0  0  0  0  0
  188.9570  177.6830  145.0420 O   0  0  0  0  0  1  0  0  0  0  0  0
  190.4700  175.7900  145.2500 C   0  0  2  0  0  3  0  0  0  0  0  0
  193.6710  176.0130  146.0190 C   0  0  0  0  0  1  0  0  0  0  0  0
  188.5810  173.1200  140.9310 C   0  0  0  0  0  2  0  0  0  0  0  0
  189.7580  173.7320  143.9890 C   0  0  1  0  0  3  0  0  0  0  0  0
  193.7740  175.5600  144.5740 C   0  0  2  0  0  3  0  0  0  0  0  0
  189.8480  175.4790  146.6260 C   0  0  1  0  0  3  0  0  0  0  0  0
  189.3390  174.1790  146.6870 O   0  0  0  0  0  1  0  0  0  0  0  0
  190.8390  175.7190  147.7550 C   0  0  0  0  0  2  0  0  0  0  0  0
  190.9580  177.1260  148.0390 N   0  0  0  0  0  0  0  0  0  0  0  0
  191.6030  177.5030  148.9700 O   0  0  0  0  0  0  0  0  0  0  0  0
  1  5  1  6  0  0  0
  1  4  1  0  0  0  0
  2 14  1  6  0  0  0
  2 18  1  0  0  0  0
  3  9  1  0  0  0  0
  5 10  1  0  0  0  0
  6 17  1  0  0  0  0
  7 25  1  0  0  0  0
  7  4  1  0  0  0  0
  8 10  1  0  0  0  0
  9 20  1  0  0  0  0
  9 21  1  0  0  0  0
 10  7  1  0  0  0  0
 11 25  1  0  0  0  0
 12  2  1  0  0  0  0
 13 17  1  0  0  0  0
 15  3  1  0  0  0  0
 15 24  1  0  0  0  0
 16 15  1  0  0  0  0
 17  8  1  0  0  0  0
 17 11  1  0  0  0  0
 18 24  1  0  0  0  0
 18  1  1  0  0  0  0
 19  4  1  0  0  0  0
 19 21  1  0  0  0  0
 21 26  1  0  0  0  0
 23 12  1  0  0  0  0
 23 16  1  0  0  0  0
 24 19  1  0  0  0  0
 25 22  1  0  0  0  0
 26 27  1  0  0  0  0
 26 28  1  0  0  0  0
 28 29  1  0  0  0  0
 29 30  2  0  0  0  0
M  END
>  <MODEL>
5

>  <REMARK>
 VINA RESULT:      -6.8      3.046      5.548
  Name = 
  3 active torsions:
  status: ('A' for Active; 'I' for Inactive)
    1  A    between atoms: C_7  and  C_10
    2  A    between atoms: C_7  and  N_16
    3  A    between atoms: C_10  and  C_25
                            x       y       z     vdW  Elec       q    Type
                         _______ _______ _______ _____ _____    ______ ____

>  <TORSDO>
F 3

$$$$
=
 OpenBabel11052417203D

 30 34  0  0  1  0  0  0  0  0999 V2000
  191.1710  175.2400  142.5770 C   0  0  2  0  0  3  0  0  0  0  0  0
  190.4710  173.1300  141.1190 C   0  0  1  0  0  3  0  0  0  0  0  0
  193.5720  171.3000  144.0040 C   0  0  0  0  0  2  0  0  0  0  0  0
  192.1980  175.4490  143.6940 C   0  0  1  0  0  3  0  0  0  0  0  0
  189.8640  175.1980  143.1250 O   0  0  0  0  0  0  0  0  0  0  0  0
  188.9620  174.5410  147.2030 C   0  0  0  0  0  1  0  0  0  0  0  0
  191.3120  176.0340  144.7650 C   0  0  1  0  0  3  0  0  0  0  0  0
  188.8670  176.0310  145.1810 C   0  0  0  0  0  2  0  0  0  0  0  0
  193.9190  172.2370  145.1830 C   0  0  1  0  0  3  0  0  0  0  0  0
  190.0250  175.3100  144.5140 C   0  0  1  0  0  3  0  0  0  0  0  0
  190.5460  176.7900  147.2820 S   0  0  0  0  0  0  0  0  0  0  0  0
  189.7360  172.1270  141.9910 C   0  0  0  0  0  2  0  0  0  0  0  0
  187.9190  176.6590  147.2630 O   0  0  0  0  0  1  0  0  0  0  0  0
  189.5610  173.9950  140.5080 O   0  0  0  0  0  1  0  0  0  0  0  0
  192.3010  171.7660  143.2790 C   0  0  2  0  0  3  0  0  0  0  0  0
  191.9430  170.8230  142.1460 C   0  0  0  0  0  2  0  0  0  0  0  0
  189.0010  175.9780  146.7070 C   0  0  2  0  0  0  0  0  0  0  0  0
  191.5420  173.9180  141.8950 C   0  0  2  0  0  3  0  0  0  0  0  0
  192.6500  174.0290  144.0200 C   0  0  2  0  0  3  0  0  0  0  0  0
  195.1230  171.8510  145.7740 O   0  0  0  0  0  1  0  0  0  0  0  0
  193.9330  173.7400  144.8080 C   0  0  2  0  0  3  0  0  0  0  0  0
  193.1070  176.4820  146.4480 C   0  0  0  0  0  1  0  0  0  0  0  0
  190.4250  170.7590  141.9520 C   0  0  0  0  0  2  0  0  0  0  0  0
  192.5550  173.1870  142.7770 C   0  0  1  0  0  3  0  0  0  0  0  0
  191.7330  175.8800  146.2250 C   0  0  2  0  0  3  0  0  0  0  0  0
  195.2420  174.1780  144.1220 C   0  0  1  0  0  3  0  0  0  0  0  0
  195.0920  174.2930  142.7380 O   0  0  0  0  0  1  0  0  0  0  0  0
  195.7750  175.4770  144.7120 C   0  0  0  0  0  2  0  0  0  0  0  0
  195.8120  176.5120  143.7130 N   0  0  0  0  0  0  0  0  0  0  0  0
  196.8170  177.1250  143.5130 O   0  0  0  0  0  0  0  0  0  0  0  0
  1  5  1  1  0  0  0
  1  4  1  0  0  0  0
  2 14  1  1  0  0  0
  2 18  1  0  0  0  0
  2 12  1  0  0  0  0
  3  9  1  0  0  0  0
  4 19  1  0  0  0  0
  4  7  1  0  0  0  0
  5 10  1  0  0  0  0
  7 25  1  0  0  0  0
  8 17  1  0  0  0  0
  9 20  1  0  0  0  0
 10  7  1  0  0  0  0
 10  8  1  0  0  0  0
 15  3  1  0  0  0  0
 16 15  1  0  0  0  0
 17  6  1  0  0  0  0
 17 13  1  0  0  0  0
 17 11  1  0  0  0  0
 18  1  1  0  0  0  0
 18 24  1  0  0  0  0
 19 21  1  0  0  0  0
 21  9  1  0  0  0  0
 23 12  1  0  0  0  0
 23 16  1  0  0  0  0
 24 15  1  0  0  0  0
 24 19  1  0  0  0  0
 25 22  1  0  0  0  0
 25 11  1  0  0  0  0
 26 28  1  0  0  0  0
 26 21  1  0  0  0  0
 27 26  1  0  0  0  0
 29 28  1  0  0  0  0
 30 29  2  0  0  0  0
M  END
>  <MODEL>
6

>  <REMARK>
 VINA RESULT:      -6.7      3.355      7.021
  Name = 
  3 active torsions:
  status: ('A' for Active; 'I' for Inactive)
    1  A    between atoms: C_7  and  C_10
    2  A    between atoms: C_7  and  N_16
    3  A    between atoms: C_10  and  C_25
                            x       y       z     vdW  Elec       q    Type
                         _______ _______ _______ _____ _____    ______ ____

>  <TORSDO>
F 3

$$$$
=
 OpenBabel11052417203D

 30 34  0  0  1  0  0  0  0  0999 V2000
  189.7620  173.2580  143.8820 C   0  0  2  0  0  3  0  0  0  0  0  0
  189.3880  172.1900  141.4760 C   0  0  1  0  0  3  0  0  0  0  0  0
  187.7830  176.4740  140.8700 C   0  0  0  0  0  2  0  0  0  0  0  0
  189.4230  174.6230  144.4870 C   0  0  1  0  0  3  0  0  0  0  0  0
  191.1530  173.1820  143.6140 O   0  0  0  0  0  0  0  0  0  0  0  0
  193.7620  176.4990  143.3680 C   0  0  0  0  0  1  0  0  0  0  0  0
  190.7800  175.0340  144.9980 C   0  0  1  0  0  3  0  0  0  0  0  0
  193.1050  174.3430  144.4810 C   0  0  0  0  0  2  0  0  0  0  0  0
  188.1690  177.4260  142.0240 C   0  0  1  0  0  3  0  0  0  0  0  0
  191.6810  174.4340  143.9630 C   0  0  1  0  0  3  0  0  0  0  0  0
  192.7380  176.7150  145.9130 S   0  0  0  0  0  0  0  0  0  0  0  0
  190.2970  172.8720  140.4670 C   0  0  0  0  0  2  0  0  0  0  0  0
  194.9990  175.5970  145.1670 O   0  0  0  0  0  1  0  0  0  0  0  0
  190.0160  171.0600  142.0030 O   0  0  0  0  0  1  0  0  0  0  0  0
  188.6160  175.1840  140.9120 C   0  0  2  0  0  3  0  0  0  0  0  0
  188.2620  174.2680  139.7560 C   0  0  0  0  0  2  0  0  0  0  0  0
  193.6990  175.7420  144.6860 C   0  0  2  0  0  0  0  0  0  0  0  0
  188.9310  173.1400  142.5980 C   0  0  2  0  0  3  0  0  0  0  0  0
  188.9800  175.4400  143.2770 C   0  0  2  0  0  3  0  0  0  0  0  0
  187.3420  178.5510  142.0230 O   0  0  0  0  0  1  0  0  0  0  0  0
  188.1920  176.7480  143.4170 C   0  0  2  0  0  3  0  0  0  0  0  0
  190.0710  177.1660  146.0970 C   0  0  0  0  0  1  0  0  0  0  0  0
  189.4840  173.4600  139.3090 C   0  0  0  0  0  2  0  0  0  0  0  0
  188.3600  174.5180  142.2640 C   0  0  1  0  0  3  0  0  0  0  0  0
  191.0780  176.5230  145.1630 C   0  0  2  0  0  3  0  0  0  0  0  0
  186.7920  176.6110  144.0450 C   0  0  1  0  0  3  0  0  0  0  0  0
  186.7120  177.2480  145.2860 O   0  0  0  0  0  1  0  0  0  0  0  0
  185.7060  177.1240  143.1100 C   0  0  0  0  0  2  0  0  0  0  0  0
  184.7310  177.8950  143.8360 N   0  0  0  0  0  0  0  0  0  0  0  0
  184.3670  178.9550  143.4230 O   0  0  0  0  0  0  0  0  0  0  0  0
  1  5  1  6  0  0  0
  1  4  1  0  0  0  0
  2 14  1  1  0  0  0
  2 18  1  0  0  0  0
  3 15  1  0  0  0  0
  3  9  1  0  0  0  0
  4  7  1  0  0  0  0
  5 10  1  0  0  0  0
  6 17  1  0  0  0  0
  7 25  1  0  0  0  0
  8 17  1  0  0  0  0
  9 21  1  0  0  0  0
 10  8  1  0  0  0  0
 10  7  1  0  0  0  0
 12  2  1  0  0  0  0
 15 24  1  0  0  0  0
 16 15  1  0  0  0  0
 17 13  1  0  0  0  0
 17 11  1  0  0  0  0
 18  1  1  0  0  0  0
 19 21  1  0  0  0  0
 19  4  1  0  0  0  0
 20  9  1  0  0  0  0
 21 26  1  0  0  0  0
 23 16  1  0  0  0  0
 23 12  1  0  0  0  0
 24 18  1  0  0  0  0
 24 19  1  0  0  0  0
 25 11  1  0  0  0  0
 25 22  1  0  0  0  0
 26 27  1  0  0  0  0
 28 29  1  0  0  0  0
 28 26  1  0  0  0  0
 30 29  2  0  0  0  0
M  END
>  <MODEL>
7

>  <REMARK>
 VINA RESULT:      -6.3      2.056      5.002
  Name = 
  3 active torsions:
  status: ('A' for Active; 'I' for Inactive)
    1  A    between atoms: C_7  and  C_10
    2  A    between atoms: C_7  and  N_16
    3  A    between atoms: C_10  and  C_25
                            x       y       z     vdW  Elec       q    Type
                         _______ _______ _______ _____ _____    ______ ____

>  <TORSDO>
F 3

$$$$
=
 OpenBabel11052417203D

 30 34  0  0  1  0  0  0  0  0999 V2000
  188.3880  177.5290  142.9530 C   0  0  2  0  0  3  0  0  0  0  0  0
  188.1880  175.6310  141.1030 C   0  0  1  0  0  3  0  0  0  0  0  0
  190.5820  173.4800  144.4090 C   0  0  0  0  0  2  0  0  0  0  0  0
  189.0940  177.6000  144.3110 C   0  0  1  0  0  3  0  0  0  0  0  0
  186.9900  177.3810  143.1440 O   0  0  0  0  0  0  0  0  0  0  0  0
  185.1500  176.1360  146.7410 C   0  0  0  0  0  1  0  0  0  0  0  0
  187.9410  178.0090  145.1910 C   0  0  1  0  0  3  0  0  0  0  0  0
  185.4720  177.8940  144.9740 C   0  0  0  0  0  2  0  0  0  0  0  0
  190.5730  174.2480  145.7500 C   0  0  1  0  0  3  0  0  0  0  0  0
  186.7970  177.3000  144.5320 C   0  0  1  0  0  3  0  0  0  0  0  0
  186.5370  178.3850  147.5120 S   0  0  0  0  0  0  0  0  0  0  0  0
  187.3190  174.4990  141.6220 C   0  0  0  0  0  2  0  0  0  0  0  0
  184.0070  178.2010  146.8140 O   0  0  0  0  0  1  0  0  0  0  0  0
  187.4100  176.5540  140.4010 O   0  0  0  0  0  1  0  0  0  0  0  0
  189.5040  174.0160  143.4550 C   0  0  2  0  0  3  0  0  0  0  0  0
  189.4900  173.2350  142.1550 C   0  0  0  0  0  2  0  0  0  0  0  0
  185.2290  177.6290  146.4650 C   0  0  2  0  0  0  0  0  0  0  0  0
  188.9890  176.3240  142.2200 C   0  0  2  0  0  3  0  0  0  0  0  0
  189.5320  176.1580  144.5500 C   0  0  2  0  0  3  0  0  0  0  0  0
  191.6150  173.8090  146.5690 O   0  0  0  0  0  1  0  0  0  0  0  0
  190.5950  175.7890  145.5920 C   0  0  2  0  0  3  0  0  0  0  0  0
  189.2380  178.2530  147.3160 C   0  0  0  0  0  1  0  0  0  0  0  0
  188.0730  173.1650  141.5780 C   0  0  0  0  0  2  0  0  0  0  0  0
  189.7930  175.4990  143.2250 C   0  0  1  0  0  3  0  0  0  0  0  0
  187.9970  177.6590  146.6770 C   0  0  2  0  0  3  0  0  0  0  0  0
  192.0060  176.3480  145.3210 C   0  0  1  0  0  3  0  0  0  0  0  0
  191.9740  177.4510  144.4640 O   0  0  0  0  0  1  0  0  0  0  0  0
  192.7280  176.6960  146.6150 C   0  0  0  0  0  2  0  0  0  0  0  0
  194.1540  176.5980  146.4450 N   0  0  0  0  0  0  0  0  0  0  0  0
  194.7830  177.5370  146.0580 O   0  0  0  0  0  0  0  0  0  0  0  0
  1  5  1  1  0  0  0
  1  4  1  0  0  0  0
  2 14  1  1  0  0  0
  2 12  1  0  0  0  0
  2 18  1  0  0  0  0
  3  9  1  0  0  0  0
  4 19  1  0  0  0  0
  4  7  1  0  0  0  0
  5 10  1  0  0  0  0
  7 25  1  0  0  0  0
  8 17  1  0  0  0  0
  9 20  1  0  0  0  0
 10  8  1  0  0  0  0
 10  7  1  0  0  0  0
 15  3  1  0  0  0  0
 16 15  1  0  0  0  0
 17  6  1  0  0  0  0
 17 13  1  0  0  0  0
 17 11  1  0  0  0  0
 18  1  1  0  0  0  0
 18 24  1  0  0  0  0
 19 21  1  0  0  0  0
 21  9  1  0  0  0  0
 23 12  1  0  0  0  0
 23 16  1  0  0  0  0
 24 15  1  0  0  0  0
 24 19  1  0  0  0  0
 25 22  1  0  0  0  0
 25 11  1  0  0  0  0
 26 21  1  0  0  0  0
 26 28  1  0  0  0  0
 27 26  1  0  0  0  0
 29 28  1  0  0  0  0
 30 29  2  0  0  0  0
M  END
>  <MODEL>
8

>  <REMARK>
 VINA RESULT:      -6.3      3.112      6.542
  Name = 
  3 active torsions:
  status: ('A' for Active; 'I' for Inactive)
    1  A    between atoms: C_7  and  C_10
    2  A    between atoms: C_7  and  N_16
    3  A    between atoms: C_10  and  C_25
                            x       y       z     vdW  Elec       q    Type
                         _______ _______ _______ _____ _____    ______ ____

>  <TORSDO>
F 3

$$$$
=
 OpenBabel11052417203D

 30 34  0  0  1  0  0  0  0  0999 V2000
  190.1970  177.5400  143.8500 C   0  0  2  0  0  3  0  0  0  0  0  0
  191.3810  176.6480  146.0560 C   0  0  1  0  0  3  0  0  0  0  0  0
  186.9170  176.3160  147.1770 C   0  0  0  0  0  2  0  0  0  0  0  0
  188.7340  177.7910  143.4730 C   0  0  1  0  0  3  0  0  0  0  0  0
  190.6620  176.3600  143.2160 O   0  0  0  0  0  0  0  0  0  0  0  0
  188.1890  173.3630  141.5510 C   0  0  0  0  0  1  0  0  0  0  0  0
  188.6400  176.9770  142.2080 C   0  0  1  0  0  3  0  0  0  0  0  0
  189.9660  175.1140  141.2470 C   0  0  0  0  0  2  0  0  0  0  0  0
  185.9810  176.4710  145.9570 C   0  0  1  0  0  3  0  0  0  0  0  0
  189.5620  175.8380  142.5190 C   0  0  1  0  0  3  0  0  0  0  0  0
  187.4410  175.6150  140.1570 S   0  0  0  0  0  0  0  0  0  0  0  0
  191.0730  175.1720  146.2410 C   0  0  0  0  0  2  0  0  0  0  0  0
  189.1850  173.7770  139.4500 O   0  0  0  0  0  1  0  0  0  0  0  0
  192.5730  176.8060  145.3470 O   0  0  0  0  0  1  0  0  0  0  0  0
  188.3680  176.0700  146.7360 C   0  0  2  0  0  3  0  0  0  0  0  0
  189.2770  175.8810  147.9350 C   0  0  0  0  0  2  0  0  0  0  0  0
  188.7580  174.4150  140.6120 C   0  0  2  0  0  0  0  0  0  0  0  0
  190.2310  177.4130  145.3780 C   0  0  2  0  0  3  0  0  0  0  0  0
  187.9640  177.1650  144.6320 C   0  0  2  0  0  3  0  0  0  0  0  0
  184.6850  176.7820  146.3750 O   0  0  0  0  0  1  0  0  0  0  0  0
  186.4880  177.4830  144.9000 C   0  0  2  0  0  3  0  0  0  0  0  0
  186.2910  177.5960  141.6080 C   0  0  0  0  0  1  0  0  0  0  0  0
  190.4190  174.9160  147.6040 C   0  0  0  0  0  2  0  0  0  0  0  0
  188.7950  177.2630  145.8810 C   0  0  1  0  0  3  0  0  0  0  0  0
  187.2720  176.4500  141.7790 C   0  0  2  0  0  3  0  0  0  0  0  0
  186.1870  178.9480  145.2730 C   0  0  1  0  0  3  0  0  0  0  0  0
  185.5690  179.6360  144.2260 O   0  0  0  0  0  1  0  0  0  0  0  0
  185.3500  179.0410  146.5420 C   0  0  0  0  0  2  0  0  0  0  0  0
  186.0360  179.8060  147.5500 N   0  0  0  0  0  0  0  0  0  0  0  0
  186.6920  179.2570  148.3840 O   0  0  0  0  0  0  0  0  0  0  0  0
  1  5  1  6  0  0  0
  1 18  1  0  0  0  0
  2 14  1  6  0  0  0
  2 12  1  0  0  0  0
  4  1  1  0  0  0  0
  4 19  1  0  0  0  0
  7 10  1  0  0  0  0
  7  4  1  0  0  0  0
  8 10  1  0  0  0  0
  9 20  1  0  0  0  0
  9  3  1  0  0  0  0
 10  5  1  0  0  0  0
 11 17  1  0  0  0  0
 11 25  1  0  0  0  0
 12 23  1  0  0  0  0
 13 17  1  0  0  0  0
 15  3  1  0  0  0  0
 15 16  1  0  0  0  0
 17  8  1  0  0  0  0
 17  6  1  0  0  0  0
 18 24  1  0  0  0  0
 18  2  1  0  0  0  0
 19 21  1  0  0  0  0
 19 24  1  0  0  0  0
 21 26  1  0  0  0  0
 21  9  1  0  0  0  0
 22 25  1  0  0  0  0
 23 16  1  0  0  0  0
 24 15  1  0  0  0  0
 25  7  1  0  0  0  0
 26 28  1  0  0  0  0
 27 26  1  0  0  0  0
 28 29  1  0  0  0  0
 29 30  2  0  0  0  0
M  END
>  <MODEL>
9

>  <REMARK>
 VINA RESULT:      -6.3      2.000      2.484
  Name = 
  3 active torsions:
  status: ('A' for Active; 'I' for Inactive)
    1  A    between atoms: C_7  and  C_10
    2  A    between atoms: C_7  and  N_16
    3  A    between atoms: C_10  and  C_25
                            x       y       z     vdW  Elec       q    Type
                         _______ _______ _______ _____ _____    ______ ____

>  <TORSDO>
F 3

$$$$
