=
 OpenBabel11052419183D

 32 37  0  0  1  0  0  0  0  0999 V2000
  190.2500  176.1980  144.8020 C   0  0  2  0  0  3  0  0  0  0  0  0
  187.9900  177.2470  144.4710 C   0  0  0  0  0  0  0  0  0  0  0  0
  191.3760  175.9740  145.7350 C   0  0  0  0  0  3  0  0  0  0  0  0
  188.8980  176.5050  145.4070 C   0  0  2  0  0  3  0  0  0  0  0  0
  186.9520  177.9700  144.9400 C   0  0  0  0  0  0  0  0  0  0  0  0
  186.1530  177.4340  139.8670 C   0  0  0  0  0  3  0  0  0  0  0  0
  188.1820  177.0150  143.0290 C   0  0  0  0  0  0  0  0  0  0  0  0
  185.0140  178.5490  141.6910 C   0  0  0  0  0  3  0  0  0  0  0  0
  186.0340  178.1680  142.5700 C   0  0  0  0  0  0  0  0  0  0  0  0
  188.9830  177.1650  146.7550 C   0  0  0  0  0  0  0  0  0  0  0  0
  185.9750  178.6440  143.9970 C   0  0  0  0  0  3  0  0  0  0  0  0
  187.8770  177.8770  147.2160 O   0  0  0  0  0  0  0  0  0  0  0  0
  190.0740  177.0400  147.5170 C   0  0  0  0  0  3  0  0  0  0  0  0
  189.2820  176.4650  142.6000 N   0  0  0  0  0  0  0  0  0  0  0  0
  190.3780  176.0870  143.4570 C   0  0  0  0  0  0  0  0  0  0  0  0
  187.1250  177.4210  142.0910 C   0  0  0  0  0  0  0  0  0  0  0  0
  186.8340  178.1920  146.3630 N   0  0  0  0  0  0  0  0  0  0  0  0
  191.2820  176.3580  147.0120 C   0  0  0  0  0  3  0  0  0  0  0  0
  185.0710  178.1780  140.3440 C   0  0  0  0  0  3  0  0  0  0  0  0
  187.1790  177.0560  140.7380 C   0  0  0  0  0  3  0  0  0  0  0  0
  192.7730  173.5190  143.6200 C   0  0  1  0  0  3  0  0  0  0  0  0
  195.8320  174.8060  142.7680 O   0  0  0  0  0  0  0  0  0  0  0  0
  193.3050  172.1870  143.1210 C   0  0  0  0  0  1  0  0  0  0  0  0
  193.9960  176.1360  142.1270 C   0  0  0  0  0  2  0  0  0  0  0  0
  191.6390  175.6480  142.8070 C   0  0  0  0  0  0  0  0  0  0  0  0
  193.9410  174.3920  144.1100 C   0  0  0  0  0  2  0  0  0  0  0  0
  192.6350  176.5300  142.6360 C   0  0  0  0  0  3  0  0  0  0  0  0
  191.9080  174.1830  142.5370 C   0  0  2  0  0  3  0  0  0  0  0  0
  190.6750  173.4380  142.3230 N   0  0  0  0  0  1  0  0  0  0  0  0
  194.6700  175.0990  142.9940 C   0  0  0  0  0  0  0  0  0  0  0  0
  185.6920  178.9080  146.9120 C   0  0  0  0  0  2  0  0  0  0  0  0
  184.6360  178.0190  147.1140 O   0  0  0  0  0  1  0  0  0  0  0  0
  1  4  1  0  0  0  0
  1  3  1  1  0  0  0
  2  5  1  0  0  0  0
  3 18  2  0  0  0  0
  4  2  1  6  0  0  0
  4 10  1  0  0  0  0
  5 17  1  0  0  0  0
  6 19  2  0  0  0  0
  6 20  1  0  0  0  0
  7  2  2  0  0  0  0
  8  9  2  0  0  0  0
  9 11  1  0  0  0  0
 10 12  1  0  0  0  0
 10 13  2  0  0  0  0
 11  5  2  0  0  0  0
 14  7  1  0  0  0  0
 14 15  2  0  0  0  0
 15  1  1  0  0  0  0
 16  9  1  0  0  0  0
 16  7  1  0  0  0  0
 17 31  1  0  0  0  0
 17 12  1  0  0  0  0
 18 13  1  0  0  0  0
 19  8  1  0  0  0  0
 20 16  2  0  0  0  0
 21 23  1  6  0  0  0
 21 26  1  0  0  0  0
 22 30  2  0  0  0  0
 24 27  1  0  0  0  0
 24 30  1  0  0  0  0
 25 15  1  0  0  0  0
 27 25  2  0  0  0  0
 28 29  1  1  0  0  0
 28 25  1  0  0  0  0
 28 21  1  0  0  0  0
 30 26  1  0  0  0  0
 31 32  1  0  0  0  0
M  END
>  <MODEL>
1

>  <REMARK>
 VINA RESULT:      -8.6      0.000      0.000
  Name = 
  2 active torsions:
  status: ('A' for Active; 'I' for Inactive)
    1  A    between atoms: C_13  and  N_29
    2  A    between atoms: C_16  and  C_27
                            x       y       z     vdW  Elec       q    Type
                         _______ _______ _______ _____ _____    ______ ____

>  <TORSDO>
F 2

$$$$
=
 OpenBabel11052419183D

 32 37  0  0  1  0  0  0  0  0999 V2000
  188.8040  175.3080  142.3170 C   0  0  0  0  0  0  0  0  0  0  0  0
  186.9680  176.9310  142.8750 C   0  0  0  0  0  0  0  0  0  0  0  0
  189.4000  174.4370  141.2800 C   0  0  0  0  0  3  0  0  0  0  0  0
  187.9540  176.4660  141.8440 C   0  0  2  0  0  3  0  0  0  0  0  0
  185.8690  177.6280  142.5190 C   0  0  0  0  0  0  0  0  0  0  0  0
  186.3350  178.1960  147.6300 C   0  0  0  0  0  3  0  0  0  0  0  0
  187.3390  176.7420  144.2880 C   0  0  0  0  0  0  0  0  0  0  0  0
  184.7590  178.9280  145.9430 C   0  0  0  0  0  3  0  0  0  0  0  0
  185.4600  178.2130  144.9670 C   0  0  0  0  0  0  0  0  0  0  0  0
  187.3040  176.2250  140.5100 C   0  0  0  0  0  0  0  0  0  0  0  0
  184.9180  178.1820  143.5620 C   0  0  0  0  0  3  0  0  0  0  0  0
  186.1890  176.9870  140.1670 O   0  0  0  0  0  0  0  0  0  0  0  0
  187.8060  175.3350  139.6490 C   0  0  0  0  0  3  0  0  0  0  0  0
  188.3030  175.9240  144.6020 N   0  0  0  0  0  2  0  0  0  0  0  0
  189.0340  175.1360  143.6410 C   0  0  0  0  0  0  0  0  0  0  0  0
  186.6030  177.4770  145.3270 C   0  0  0  0  0  0  0  0  0  0  0  0
  185.5370  177.7520  141.1190 N   0  0  0  0  0  0  0  0  0  0  0  0
  188.9380  174.4650  140.0260 C   0  0  0  0  0  3  0  0  0  0  0  0
  185.1980  178.9240  147.2700 C   0  0  0  0  0  3  0  0  0  0  0  0
  187.0360  177.4730  146.6610 C   0  0  0  0  0  3  0  0  0  0  0  0
  192.3920  174.1320  143.3770 C   0  0  1  0  0  3  0  0  0  0  0  0
  192.5610  170.7310  143.7560 O   0  0  0  0  0  0  0  0  0  0  0  0
  193.8150  174.1620  143.9040 C   0  0  0  0  0  1  0  0  0  0  0  0
  190.5540  171.7030  144.5160 C   0  0  0  0  0  2  0  0  0  0  0  0
  189.9710  174.1090  144.1640 C   0  0  0  0  0  0  0  0  0  0  0  0
  192.1230  172.7840  142.6870 C   0  0  0  0  0  2  0  0  0  0  0  0
  189.6120  172.8180  144.1480 C   0  0  0  0  0  3  0  0  0  0  0  0
  191.4020  174.4640  144.5060 C   0  0  2  0  0  3  0  0  0  0  0  0
  191.5310  175.8530  144.9220 N   0  0  0  0  0  1  0  0  0  0  0  0
  191.7930  171.6720  143.6520 C   0  0  0  0  0  0  0  0  0  0  0  0
  184.3980  178.5510  140.6920 C   0  0  0  0  0  2  0  0  0  0  0  0
  183.4470  177.7270  140.0890 O   0  0  0  0  0  1  0  0  0  0  0  0
  1 15  2  0  0  0  0
  2  7  1  0  0  0  0
  3  1  1  0  0  0  0
  4 10  1  6  0  0  0
  4  1  1  0  0  0  0
  4  2  1  0  0  0  0
  5  2  2  0  0  0  0
  5 11  1  0  0  0  0
  7 14  1  0  0  0  0
  7 16  2  0  0  0  0
  8 19  2  0  0  0  0
  9 16  1  0  0  0  0
  9  8  1  0  0  0  0
 11  9  2  0  0  0  0
 12 10  1  0  0  0  0
 12 17  1  0  0  0  0
 13 18  1  0  0  0  0
 13 10  2  0  0  0  0
 15 25  1  0  0  0  0
 15 14  1  0  0  0  0
 16 20  1  0  0  0  0
 17  5  1  0  0  0  0
 18  3  2  0  0  0  0
 19  6  1  0  0  0  0
 20  6  2  0  0  0  0
 21 23  1  1  0  0  0
 21 28  1  0  0  0  0
 25 28  1  0  0  0  0
 26 21  1  0  0  0  0
 26 30  1  0  0  0  0
 27 25  2  0  0  0  0
 27 24  1  0  0  0  0
 28 29  1  6  0  0  0
 30 22  2  0  0  0  0
 30 24  1  0  0  0  0
 31 17  1  0  0  0  0
 32 31  1  0  0  0  0
M  END
>  <MODEL>
2

>  <REMARK>
 VINA RESULT:      -8.1      2.748      4.824
  Name = 
  2 active torsions:
  status: ('A' for Active; 'I' for Inactive)
    1  A    between atoms: C_13  and  N_29
    2  A    between atoms: C_16  and  C_27
                            x       y       z     vdW  Elec       q    Type
                         _______ _______ _______ _____ _____    ______ ____

>  <TORSDO>
F 2

$$$$
=
 OpenBabel11052419183D

 32 37  0  0  1  0  0  0  0  0999 V2000
  189.3710  176.6500  145.1720 C   0  0  2  0  0  3  0  0  0  0  0  0
  190.7800  175.3450  143.5500 C   0  0  0  0  0  0  0  0  0  0  0  0
  189.2710  177.2120  146.5370 C   0  0  0  0  0  3  0  0  0  0  0  0
  190.7580  176.3860  144.6310 C   0  0  2  0  0  3  0  0  0  0  0  0
  191.9130  174.6750  143.2540 C   0  0  0  0  0  0  0  0  0  0  0  0
  188.6660  173.8000  139.3370 C   0  0  0  0  0  3  0  0  0  0  0  0
  189.5660  175.2120  142.7260 C   0  0  0  0  0  0  0  0  0  0  0  0
  190.9090  173.0960  139.9170 C   0  0  0  0  0  3  0  0  0  0  0  0
  190.8200  173.7850  141.1310 C   0  0  0  0  0  0  0  0  0  0  0  0
  191.7750  176.1080  145.7030 C   0  0  0  0  0  0  0  0  0  0  0  0
  191.9660  173.6910  142.1030 C   0  0  0  0  0  3  0  0  0  0  0  0
  192.9460  175.4410  145.3500 O   0  0  0  0  0  0  0  0  0  0  0  0
  191.5870  176.5280  146.9580 C   0  0  0  0  0  3  0  0  0  0  0  0
  188.4440  175.7320  143.1340 N   0  0  0  0  0  0  0  0  0  0  0  0
  188.2870  176.4200  144.3920 C   0  0  0  0  0  0  0  0  0  0  0  0
  189.6400  174.4800  141.4530 C   0  0  0  0  0  0  0  0  0  0  0  0
  193.0610  174.8190  144.1190 N   0  0  0  0  0  0  0  0  0  0  0  0
  190.3190  177.1660  147.3650 C   0  0  0  0  0  3  0  0  0  0  0  0
  189.8370  173.1080  139.0200 C   0  0  0  0  0  3  0  0  0  0  0  0
  188.5660  174.4850  140.5520 C   0  0  0  0  0  3  0  0  0  0  0  0
  186.2390  179.2460  144.8070 C   0  0  1  0  0  3  0  0  0  0  0  0
  184.0660  178.6660  147.3920 O   0  0  0  0  0  0  0  0  0  0  0  0
  185.1830  180.1930  144.2630 C   0  0  0  0  0  1  0  0  0  0  0  0
  185.0830  176.7310  146.5130 C   0  0  0  0  0  2  0  0  0  0  0  0
  186.9100  176.7910  144.8060 C   0  0  0  0  0  0  0  0  0  0  0  0
  186.1140  179.1560  146.3370 C   0  0  0  0  0  2  0  0  0  0  0  0
  186.4060  176.2910  145.9430 C   0  0  0  0  0  3  0  0  0  0  0  0
  186.1510  177.8880  144.0920 C   0  0  2  0  0  3  0  0  0  0  0  0
  186.5530  178.0050  142.6970 N   0  0  0  0  0  1  0  0  0  0  0  0
  185.0290  178.2140  146.7960 C   0  0  0  0  0  0  0  0  0  0  0  0
  194.3220  174.1670  143.7960 C   0  0  0  0  0  2  0  0  0  0  0  0
  195.2730  175.1290  143.4550 O   0  0  0  0  0  1  0  0  0  0  0  0
  1  3  1  6  0  0  0
  3 18  2  0  0  0  0
  4  2  1  6  0  0  0
  4  1  1  0  0  0  0
  4 10  1  0  0  0  0
  5  2  1  0  0  0  0
  5 17  1  0  0  0  0
  6 20  1  0  0  0  0
  7 14  1  0  0  0  0
  7  2  2  0  0  0  0
  8  9  2  0  0  0  0
  9 16  1  0  0  0  0
  9 11  1  0  0  0  0
 10 13  2  0  0  0  0
 11  5  2  0  0  0  0
 12 10  1  0  0  0  0
 13 18  1  0  0  0  0
 14 15  2  0  0  0  0
 15 25  1  0  0  0  0
 15  1  1  0  0  0  0
 16  7  1  0  0  0  0
 17 12  1  0  0  0  0
 19  6  2  0  0  0  0
 19  8  1  0  0  0  0
 20 16  2  0  0  0  0
 21 23  1  6  0  0  0
 21 26  1  0  0  0  0
 24 30  1  0  0  0  0
 25 27  2  0  0  0  0
 26 30  1  0  0  0  0
 27 24  1  0  0  0  0
 28 29  1  6  0  0  0
 28 25  1  0  0  0  0
 28 21  1  0  0  0  0
 30 22  2  0  0  0  0
 31 17  1  0  0  0  0
 32 31  1  0  0  0  0
M  END
>  <MODEL>
3

>  <REMARK>
 VINA RESULT:      -8.1      1.985      6.945
  Name = 
  2 active torsions:
  status: ('A' for Active; 'I' for Inactive)
    1  A    between atoms: C_13  and  N_29
    2  A    between atoms: C_16  and  C_27
                            x       y       z     vdW  Elec       q    Type
                         _______ _______ _______ _____ _____    ______ ____

>  <TORSDO>
F 2

$$$$
=
 OpenBabel11052419183D

 32 37  0  0  1  0  0  0  0  0999 V2000
  191.4410  175.3460  145.9280 C   0  0  2  0  0  3  0  0  0  0  0  0
  189.5620  175.5090  144.2660 C   0  0  0  0  0  0  0  0  0  0  0  0
  191.9920  175.8360  147.2100 C   0  0  0  0  0  3  0  0  0  0  0  0
  189.9500  175.4870  145.7150 C   0  0  2  0  0  3  0  0  0  0  0  0
  188.3880  176.0430  143.8690 C   0  0  0  0  0  0  0  0  0  0  0  0
  190.1490  173.3130  139.8570 C   0  0  0  0  0  3  0  0  0  0  0  0
  190.4340  174.7780  143.3290 C   0  0  0  0  0  0  0  0  0  0  0  0
  188.2170  174.7080  140.2870 C   0  0  0  0  0  3  0  0  0  0  0  0
  188.7090  175.0090  141.5610 C   0  0  0  0  0  0  0  0  0  0  0  0
  189.3420  176.6300  146.4790 C   0  0  0  0  0  0  0  0  0  0  0  0
  187.9480  175.9840  142.4200 C   0  0  0  0  0  3  0  0  0  0  0  0
  188.1130  177.1330  146.0560 O   0  0  0  0  0  0  0  0  0  0  0  0
  189.9390  177.1270  147.5670 C   0  0  0  0  0  3  0  0  0  0  0  0
  191.6330  174.4270  143.6980 N   0  0  0  0  0  0  0  0  0  0  0  0
  192.2030  174.7430  144.9840 C   0  0  0  0  0  0  0  0  0  0  0  0
  189.9360  174.4640  141.9820 C   0  0  0  0  0  0  0  0  0  0  0  0
  187.5920  176.7780  144.8240 N   0  0  0  0  0  0  0  0  0  0  0  0
  191.2760  176.6600  147.9830 C   0  0  0  0  0  3  0  0  0  0  0  0
  188.9320  173.8570  139.4390 C   0  0  0  0  0  3  0  0  0  0  0  0
  190.6510  173.6160  141.1250 C   0  0  0  0  0  3  0  0  0  0  0  0
  195.3030  175.0470  143.3560 C   0  0  1  0  0  3  0  0  0  0  0  0
  197.2980  172.4200  144.2800 O   0  0  0  0  0  0  0  0  0  0  0  0
  196.5920  175.8150  143.1210 C   0  0  0  0  0  1  0  0  0  0  0  0
  195.4510  172.7920  145.6940 C   0  0  0  0  0  2  0  0  0  0  0  0
  193.6430  174.4450  145.1890 C   0  0  0  0  0  0  0  0  0  0  0  0
  195.5550  173.5420  143.1630 C   0  0  0  0  0  2  0  0  0  0  0  0
  194.0120  173.2250  145.6060 C   0  0  0  0  0  3  0  0  0  0  0  0
  194.7130  175.4120  144.7280 C   0  0  2  0  0  3  0  0  0  0  0  0
  194.2400  176.7890  144.7440 N   0  0  0  0  0  1  0  0  0  0  0  0
  196.1730  172.8780  144.3700 C   0  0  0  0  0  0  0  0  0  0  0  0
  186.2890  177.3100  144.4530 C   0  0  0  0  0  2  0  0  0  0  0  0
  186.2550  178.6820  144.7040 O   0  0  0  0  0  1  0  0  0  0  0  0
  1  3  1  1  0  0  0
  3 18  2  0  0  0  0
  4  2  1  6  0  0  0
  4  1  1  0  0  0  0
  4 10  1  0  0  0  0
  5  2  1  0  0  0  0
  5 17  1  0  0  0  0
  6 20  1  0  0  0  0
  7 14  1  0  0  0  0
  7  2  2  0  0  0  0
  8  9  2  0  0  0  0
  9 16  1  0  0  0  0
  9 11  1  0  0  0  0
 10 13  2  0  0  0  0
 11  5  2  0  0  0  0
 12 10  1  0  0  0  0
 13 18  1  0  0  0  0
 14 15  2  0  0  0  0
 15 25  1  0  0  0  0
 15  1  1  0  0  0  0
 16  7  1  0  0  0  0
 17 12  1  0  0  0  0
 19  6  2  0  0  0  0
 19  8  1  0  0  0  0
 20 16  2  0  0  0  0
 21 23  1  1  0  0  0
 21 28  1  0  0  0  0
 22 30  2  0  0  0  0
 25 27  2  0  0  0  0
 26 21  1  0  0  0  0
 26 30  1  0  0  0  0
 27 24  1  0  0  0  0
 28 29  1  6  0  0  0
 28 25  1  0  0  0  0
 30 24  1  0  0  0  0
 31 32  1  0  0  0  0
 31 17  1  0  0  0  0
M  END
>  <MODEL>
4

>  <REMARK>
 VINA RESULT:      -7.8      2.167      3.540
  Name = 
  2 active torsions:
  status: ('A' for Active; 'I' for Inactive)
    1  A    between atoms: C_13  and  N_29
    2  A    between atoms: C_16  and  C_27
                            x       y       z     vdW  Elec       q    Type
                         _______ _______ _______ _____ _____    ______ ____

>  <TORSDO>
F 2

$$$$
=
 OpenBabel11052419183D

 32 37  0  0  1  0  0  0  0  0999 V2000
  187.8950  176.5790  142.7560 C   0  0  2  0  0  3  0  0  0  0  0  0
  188.1910  175.2060  140.6710 C   0  0  0  0  0  0  0  0  0  0  0  0
  187.3590  177.8290  143.3370 C   0  0  0  0  0  3  0  0  0  0  0  0
  187.2780  176.0950  141.4620 C   0  0  2  0  0  3  0  0  0  0  0  0
  188.0130  175.0320  139.3450 C   0  0  0  0  0  0  0  0  0  0  0  0
  191.2500  171.3050  140.8580 C   0  0  0  0  0  3  0  0  0  0  0  0
  189.1730  174.4120  141.4290 C   0  0  0  0  0  0  0  0  0  0  0  0
  190.2770  172.0050  138.7530 C   0  0  0  0  0  3  0  0  0  0  0  0
  189.6570  173.0850  139.3900 C   0  0  0  0  0  0  0  0  0  0  0  0
  186.7030  177.2030  140.6240 C   0  0  0  0  0  0  0  0  0  0  0  0
  188.8720  174.0630  138.5570 C   0  0  0  0  0  3  0  0  0  0  0  0
  186.5050  176.9730  139.2640 O   0  0  0  0  0  0  0  0  0  0  0  0
  186.3450  178.3690  141.1720 C   0  0  0  0  0  3  0  0  0  0  0  0
  189.4430  174.7210  142.6650 N   0  0  0  0  0  0  0  0  0  0  0  0
  188.8610  175.8440  143.3580 C   0  0  0  0  0  0  0  0  0  0  0  0
  189.8430  173.2800  140.7700 C   0  0  0  0  0  0  0  0  0  0  0  0
  187.0600  175.8650  138.6480 N   0  0  0  0  0  0  0  0  0  0  0  0
  186.6200  178.6580  142.5940 C   0  0  0  0  0  3  0  0  0  0  0  0
  191.0670  171.1140  139.4860 C   0  0  0  0  0  3  0  0  0  0  0  0
  190.6400  172.3870  141.4990 C   0  0  0  0  0  3  0  0  0  0  0  0
  191.9150  175.9900  145.0930 C   0  0  1  0  0  3  0  0  0  0  0  0
  191.3500  175.2420  148.3880 O   0  0  0  0  0  0  0  0  0  0  0  0
  193.1090  176.7910  145.5820 C   0  0  0  0  0  1  0  0  0  0  0  0
  189.4200  175.8310  147.1720 C   0  0  0  0  0  2  0  0  0  0  0  0
  189.4080  176.1840  144.6960 C   0  0  0  0  0  0  0  0  0  0  0  0
  191.6160  174.8500  146.0810 C   0  0  0  0  0  2  0  0  0  0  0  0
  188.8400  175.6620  145.7930 C   0  0  0  0  0  3  0  0  0  0  0  0
  190.7210  176.9240  144.8360 C   0  0  2  0  0  3  0  0  0  0  0  0
  190.9740  177.7960  143.6990 N   0  0  0  0  0  1  0  0  0  0  0  0
  190.8270  175.2950  147.2880 C   0  0  0  0  0  0  0  0  0  0  0  0
  186.7900  175.6610  137.2320 C   0  0  0  0  0  2  0  0  0  0  0  0
  185.4780  176.0410  136.9470 O   0  0  0  0  0  1  0  0  0  0  0  0
  1  3  1  1  0  0  0
  1 15  1  0  0  0  0
  2  7  1  0  0  0  0
  2  4  1  0  0  0  0
  4 10  1  6  0  0  0
  4  1  1  0  0  0  0
  5  2  2  0  0  0  0
  6 20  2  0  0  0  0
  7 14  1  0  0  0  0
  8  9  1  0  0  0  0
  8 19  2  0  0  0  0
  9 16  1  0  0  0  0
 10 13  2  0  0  0  0
 11  5  1  0  0  0  0
 11  9  2  0  0  0  0
 12 10  1  0  0  0  0
 13 18  1  0  0  0  0
 14 15  2  0  0  0  0
 15 25  1  0  0  0  0
 16  7  2  0  0  0  0
 16 20  1  0  0  0  0
 17 12  1  0  0  0  0
 17  5  1  0  0  0  0
 18  3  2  0  0  0  0
 19  6  1  0  0  0  0
 21 23  1  1  0  0  0
 21 26  1  0  0  0  0
 24 30  1  0  0  0  0
 25 28  1  0  0  0  0
 25 27  2  0  0  0  0
 26 30  1  0  0  0  0
 27 24  1  0  0  0  0
 28 29  1  6  0  0  0
 28 21  1  0  0  0  0
 30 22  2  0  0  0  0
 31 17  1  0  0  0  0
 32 31  1  0  0  0  0
M  END
>  <MODEL>
5

>  <REMARK>
 VINA RESULT:      -7.6      3.409      6.285
  Name = 
  2 active torsions:
  status: ('A' for Active; 'I' for Inactive)
    1  A    between atoms: C_13  and  N_29
    2  A    between atoms: C_16  and  C_27
                            x       y       z     vdW  Elec       q    Type
                         _______ _______ _______ _____ _____    ______ ____

>  <TORSDO>
F 2

$$$$
=
 OpenBabel11052419183D

 32 37  0  0  1  0  0  0  0  0999 V2000
  188.9900  176.1110  143.1560 C   0  0  0  0  0  0  0  0  0  0  0  0
  189.3780  174.0100  141.8320 C   0  0  0  0  0  0  0  0  0  0  0  0
  188.4480  177.4870  143.1440 C   0  0  0  0  0  3  0  0  0  0  0  0
  188.4390  175.1400  142.1350 C   0  0  2  0  0  3  0  0  0  0  0  0
  189.2740  173.3100  140.6830 C   0  0  0  0  0  0  0  0  0  0  0  0
  192.3340  170.5350  143.7800 C   0  0  0  0  0  3  0  0  0  0  0  0
  190.2950  173.5960  142.9080 C   0  0  0  0  0  0  0  0  0  0  0  0
  191.5020  170.3130  141.5160 C   0  0  0  0  0  3  0  0  0  0  0  0
  190.8700  171.5560  141.6190 C   0  0  0  0  0  0  0  0  0  0  0  0
  187.9390  175.8090  140.8850 C   0  0  0  0  0  0  0  0  0  0  0  0
  190.1570  172.1080  140.4130 C   0  0  0  0  0  3  0  0  0  0  0  0
  187.8160  175.0440  139.7260 O   0  0  0  0  0  0  0  0  0  0  0  0
  187.5750  177.0950  140.8880 C   0  0  0  0  0  3  0  0  0  0  0  0
  190.4990  174.3840  143.9250 N   0  0  0  0  0  2  0  0  0  0  0  0
  189.9020  175.6890  144.0640 C   0  0  0  0  0  0  0  0  0  0  0  0
  190.9780  172.2980  142.8090 C   0  0  0  0  0  0  0  0  0  0  0  0
  188.3820  173.7830  139.6500 N   0  0  0  0  0  0  0  0  0  0  0  0
  187.7710  177.9390  142.0840 C   0  0  0  0  0  3  0  0  0  0  0  0
  192.2280  169.8010  142.5950 C   0  0  0  0  0  3  0  0  0  0  0  0
  191.7110  171.7810  143.8870 C   0  0  0  0  0  3  0  0  0  0  0  0
  192.6690  176.1000  146.1930 C   0  0  1  0  0  3  0  0  0  0  0  0
  191.5660  177.2460  149.2280 O   0  0  0  0  0  0  0  0  0  0  0  0
  193.9810  176.7910  146.5200 C   0  0  0  0  0  1  0  0  0  0  0  0
  190.0240  177.4990  147.4650 C   0  0  0  0  0  2  0  0  0  0  0  0
  190.3760  176.5460  145.1800 C   0  0  0  0  0  0  0  0  0  0  0  0
  191.9560  175.6990  147.4950 C   0  0  0  0  0  2  0  0  0  0  0  0
  189.5700  176.7710  146.2280 C   0  0  0  0  0  3  0  0  0  0  0  0
  191.8220  176.9860  145.2650 C   0  0  2  0  0  3  0  0  0  0  0  0
  192.4320  177.0950  143.9470 N   0  0  0  0  0  1  0  0  0  0  0  0
  191.2010  176.8350  148.1400 C   0  0  0  0  0  0  0  0  0  0  0  0
  188.1910  173.0210  138.4250 C   0  0  0  0  0  2  0  0  0  0  0  0
  188.7920  173.6900  137.3580 O   0  0  0  0  0  1  0  0  0  0  0  0
  1 15  2  0  0  0  0
  2  4  1  0  0  0  0
  2  7  1  0  0  0  0
  3  1  1  0  0  0  0
  4 10  1  6  0  0  0
  4  1  1  0  0  0  0
  5  2  2  0  0  0  0
  6 20  2  0  0  0  0
  7 14  1  0  0  0  0
  8  9  1  0  0  0  0
  8 19  2  0  0  0  0
  9 16  1  0  0  0  0
 10 13  2  0  0  0  0
 11  5  1  0  0  0  0
 11  9  2  0  0  0  0
 12 10  1  0  0  0  0
 13 18  1  0  0  0  0
 14 15  1  0  0  0  0
 15 25  1  0  0  0  0
 16  7  2  0  0  0  0
 16 20  1  0  0  0  0
 17 12  1  0  0  0  0
 17  5  1  0  0  0  0
 18  3  2  0  0  0  0
 19  6  1  0  0  0  0
 21 23  1  1  0  0  0
 21 26  1  0  0  0  0
 24 30  1  0  0  0  0
 25 28  1  0  0  0  0
 25 27  2  0  0  0  0
 26 30  1  0  0  0  0
 27 24  1  0  0  0  0
 28 29  1  6  0  0  0
 28 21  1  0  0  0  0
 30 22  2  0  0  0  0
 31 17  1  0  0  0  0
 32 31  1  0  0  0  0
M  END
>  <MODEL>
6

>  <REMARK>
 VINA RESULT:      -7.6      3.107      6.815
  Name = 
  2 active torsions:
  status: ('A' for Active; 'I' for Inactive)
    1  A    between atoms: C_13  and  N_29
    2  A    between atoms: C_16  and  C_27
                            x       y       z     vdW  Elec       q    Type
                         _______ _______ _______ _____ _____    ______ ____

>  <TORSDO>
F 2

$$$$
=
 OpenBabel11052419183D

 32 37  0  0  1  0  0  0  0  0999 V2000
  188.9370  174.5020  143.1900 C   0  0  0  0  0  0  0  0  0  0  0  0
  191.2200  173.5610  143.6620 C   0  0  0  0  0  0  0  0  0  0  0  0
  187.7010  174.3800  142.3880 C   0  0  0  0  0  3  0  0  0  0  0  0
  189.7830  173.2590  143.3540 C   0  0  2  0  0  3  0  0  0  0  0  0
  192.1870  172.6510  143.4220 C   0  0  0  0  0  0  0  0  0  0  0  0
  194.3100  176.2300  146.4780 C   0  0  0  0  0  3  0  0  0  0  0  0
  191.5000  174.8140  144.3840 C   0  0  0  0  0  0  0  0  0  0  0  0
  195.0770  174.2070  145.3890 C   0  0  0  0  0  3  0  0  0  0  0  0
  193.8270  174.0520  144.7820 C   0  0  0  0  0  0  0  0  0  0  0  0
  189.6420  172.2860  142.2160 C   0  0  0  0  0  0  0  0  0  0  0  0
  193.6270  172.9130  143.8170 C   0  0  0  0  0  3  0  0  0  0  0  0
  190.6480  171.3420  142.0210 O   0  0  0  0  0  0  0  0  0  0  0  0
  188.5580  172.2910  141.4340 C   0  0  0  0  0  3  0  0  0  0  0  0
  190.5900  175.7440  144.4470 N   0  0  0  0  0  2  0  0  0  0  0  0
  189.3000  175.6510  143.8100 C   0  0  0  0  0  0  0  0  0  0  0  0
  192.8140  174.9980  145.0180 C   0  0  0  0  0  0  0  0  0  0  0  0
  191.8600  171.4560  142.6780 N   0  0  0  0  0  0  0  0  0  0  0  0
  187.5210  173.3320  141.5770 C   0  0  0  0  0  3  0  0  0  0  0  0
  195.3160  175.2910  146.2400 C   0  0  0  0  0  3  0  0  0  0  0  0
  193.0610  176.0850  145.8680 C   0  0  0  0  0  3  0  0  0  0  0  0
  186.1900  176.7890  144.9890 C   0  0  1  0  0  3  0  0  0  0  0  0
  184.9330  179.0700  142.7630 O   0  0  0  0  0  0  0  0  0  0  0  0
  185.3730  177.5150  146.0420 C   0  0  0  0  0  1  0  0  0  0  0  0
  187.2410  178.6520  142.5390 C   0  0  0  0  0  2  0  0  0  0  0  0
  188.4450  176.8650  143.8090 C   0  0  0  0  0  0  0  0  0  0  0  0
  185.5250  176.9550  143.6120 C   0  0  0  0  0  2  0  0  0  0  0  0
  188.2130  177.5080  142.6550 C   0  0  0  0  0  3  0  0  0  0  0  0
  187.6530  177.2610  145.0360 C   0  0  2  0  0  3  0  0  0  0  0  0
  188.3030  176.8240  146.2640 N   0  0  0  0  0  1  0  0  0  0  0  0
  185.8370  178.2740  142.9500 C   0  0  0  0  0  0  0  0  0  0  0  0
  192.8590  170.4210  142.4590 C   0  0  0  0  0  2  0  0  0  0  0  0
  192.6730  169.3880  143.3780 O   0  0  0  0  0  1  0  0  0  0  0  0
  1  4  1  0  0  0  0
  1 15  2  0  0  0  0
  2  7  1  0  0  0  0
  3  1  1  0  0  0  0
  4 10  1  6  0  0  0
  4  2  1  0  0  0  0
  5  2  2  0  0  0  0
  5 11  1  0  0  0  0
  7 14  1  0  0  0  0
  7 16  2  0  0  0  0
  8 19  2  0  0  0  0
  9 16  1  0  0  0  0
  9  8  1  0  0  0  0
 11  9  2  0  0  0  0
 12 10  1  0  0  0  0
 12 17  1  0  0  0  0
 13 18  1  0  0  0  0
 13 10  2  0  0  0  0
 15 14  1  0  0  0  0
 16 20  1  0  0  0  0
 17  5  1  0  0  0  0
 18  3  2  0  0  0  0
 19  6  1  0  0  0  0
 20  6  2  0  0  0  0
 21 28  1  0  0  0  0
 21 23  1  1  0  0  0
 22 30  2  0  0  0  0
 24 27  1  0  0  0  0
 24 30  1  0  0  0  0
 25 15  1  0  0  0  0
 25 28  1  0  0  0  0
 26 21  1  0  0  0  0
 27 25  2  0  0  0  0
 28 29  1  1  0  0  0
 30 26  1  0  0  0  0
 31 17  1  0  0  0  0
 31 32  1  0  0  0  0
M  END
>  <MODEL>
7

>  <REMARK>
 VINA RESULT:      -7.5      2.630      8.026
  Name = 
  2 active torsions:
  status: ('A' for Active; 'I' for Inactive)
    1  A    between atoms: C_13  and  N_29
    2  A    between atoms: C_16  and  C_27
                            x       y       z     vdW  Elec       q    Type
                         _______ _______ _______ _____ _____    ______ ____

>  <TORSDO>
F 2

$$$$
=
 OpenBabel11052419183D

 32 37  0  0  1  0  0  0  0  0999 V2000
  189.0960  175.9050  143.9310 C   0  0  2  0  0  3  0  0  0  0  0  0
  191.1420  176.1180  145.3760 C   0  0  0  0  0  0  0  0  0  0  0  0
  187.6260  176.0450  143.8570 C   0  0  0  0  0  3  0  0  0  0  0  0
  189.8160  176.7060  144.9940 C   0  0  2  0  0  3  0  0  0  0  0  0
  191.7170  176.4150  146.5600 C   0  0  0  0  0  0  0  0  0  0  0  0
  195.4060  174.2350  143.6790 C   0  0  0  0  0  3  0  0  0  0  0  0
  191.8540  175.3480  144.3430 C   0  0  0  0  0  0  0  0  0  0  0  0
  195.2570  175.1010  145.9360 C   0  0  0  0  0  3  0  0  0  0  0  0
  193.8950  175.3650  145.7530 C   0  0  0  0  0  0  0  0  0  0  0  0
  188.9630  177.0060  146.1960 C   0  0  0  0  0  0  0  0  0  0  0  0
  193.0990  175.9010  146.9130 C   0  0  0  0  0  3  0  0  0  0  0  0
  189.5960  177.3380  147.3920 O   0  0  0  0  0  0  0  0  0  0  0  0
  187.6290  176.9990  146.1150 C   0  0  0  0  0  3  0  0  0  0  0  0
  191.2150  174.9310  143.2870 N   0  0  0  0  0  0  0  0  0  0  0  0
  189.8060  175.1430  143.0650 C   0  0  0  0  0  0  0  0  0  0  0  0
  193.2830  175.0520  144.5260 C   0  0  0  0  0  0  0  0  0  0  0  0
  190.9570  177.1440  147.5490 N   0  0  0  0  0  0  0  0  0  0  0  0
  186.9440  176.5730  144.8780 C   0  0  0  0  0  3  0  0  0  0  0  0
  196.0110  174.5430  144.9000 C   0  0  0  0  0  3  0  0  0  0  0  0
  194.0440  174.4880  143.4920 C   0  0  0  0  0  3  0  0  0  0  0  0
  190.4050  172.4930  140.8350 C   0  0  1  0  0  3  0  0  0  0  0  0
  188.9830  173.2520  137.8110 O   0  0  0  0  0  0  0  0  0  0  0  0
  190.2170  171.0380  140.4460 C   0  0  0  0  0  1  0  0  0  0  0  0
  188.1900  174.5390  139.6180 C   0  0  0  0  0  2  0  0  0  0  0  0
  189.1790  174.4470  141.9130 C   0  0  0  0  0  0  0  0  0  0  0  0
  190.5490  173.3530  139.5680 C   0  0  0  0  0  2  0  0  0  0  0  0
  188.7010  175.1660  140.8880 C   0  0  0  0  0  3  0  0  0  0  0  0
  189.2700  172.9430  141.7690 C   0  0  2  0  0  3  0  0  0  0  0  0
  189.3640  172.2800  143.0620 N   0  0  0  0  0  1  0  0  0  0  0  0
  189.2290  173.6930  138.9210 C   0  0  0  0  0  0  0  0  0  0  0  0
  191.5650  177.5420  148.8100 C   0  0  0  0  0  2  0  0  0  0  0  0
  190.8350  178.5900  149.3710 O   0  0  0  0  0  1  0  0  0  0  0  0
  1  3  1  6  0  0  0
  1  4  1  0  0  0  0
  2  5  1  0  0  0  0
  3 18  2  0  0  0  0
  4  2  1  1  0  0  0
  4 10  1  0  0  0  0
  5 11  2  0  0  0  0
  5 17  1  0  0  0  0
  6 19  1  0  0  0  0
  7 16  1  0  0  0  0
  7  2  2  0  0  0  0
  9  8  1  0  0  0  0
  9 11  1  0  0  0  0
 10 12  1  0  0  0  0
 12 17  1  0  0  0  0
 13 10  2  0  0  0  0
 14  7  1  0  0  0  0
 15 14  2  0  0  0  0
 15  1  1  0  0  0  0
 16  9  2  0  0  0  0
 17 31  1  0  0  0  0
 18 13  1  0  0  0  0
 19  8  2  0  0  0  0
 20  6  2  0  0  0  0
 20 16  1  0  0  0  0
 21 23  1  6  0  0  0
 21 28  1  0  0  0  0
 22 30  2  0  0  0  0
 24 27  1  0  0  0  0
 25 15  1  0  0  0  0
 26 21  1  0  0  0  0
 27 25  2  0  0  0  0
 28 25  1  0  0  0  0
 28 29  1  1  0  0  0
 30 26  1  0  0  0  0
 30 24  1  0  0  0  0
 31 32  1  0  0  0  0
M  END
>  <MODEL>
8

>  <REMARK>
 VINA RESULT:      -7.4      2.797      6.002
  Name = 
  2 active torsions:
  status: ('A' for Active; 'I' for Inactive)
    1  A    between atoms: C_13  and  N_29
    2  A    between atoms: C_16  and  C_27
                            x       y       z     vdW  Elec       q    Type
                         _______ _______ _______ _____ _____    ______ ____

>  <TORSDO>
F 2

$$$$
=
 OpenBabel11052419183D

 32 37  0  0  1  0  0  0  0  0999 V2000
  189.9150  175.1260  145.0790 C   0  0  2  0  0  3  0  0  0  0  0  0
  187.9970  176.6180  144.4340 C   0  0  0  0  0  0  0  0  0  0  0  0
  190.8690  174.7440  146.1420 C   0  0  0  0  0  3  0  0  0  0  0  0
  188.6210  175.7800  145.5110 C   0  0  2  0  0  3  0  0  0  0  0  0
  187.1150  177.5930  144.7370 C   0  0  0  0  0  0  0  0  0  0  0  0
  186.6770  176.7890  139.6560 C   0  0  0  0  0  3  0  0  0  0  0  0
  188.2600  176.2190  143.0410 C   0  0  0  0  0  0  0  0  0  0  0  0
  185.6660  178.2900  141.2650 C   0  0  0  0  0  3  0  0  0  0  0  0
  186.4860  177.7730  142.2730 C   0  0  0  0  0  0  0  0  0  0  0  0
  188.7340  176.5250  146.8120 C   0  0  0  0  0  0  0  0  0  0  0  0
  186.4100  178.3790  143.6500 C   0  0  0  0  0  3  0  0  0  0  0  0
  187.7840  177.5030  147.1010 O   0  0  0  0  0  0  0  0  0  0  0  0
  189.6920  176.2300  147.6960 C   0  0  0  0  0  3  0  0  0  0  0  0
  189.2380  175.4010  142.7720 N   0  0  0  0  0  0  0  0  0  0  0  0
  190.1350  174.8680  143.7670 C   0  0  0  0  0  0  0  0  0  0  0  0
  187.4140  176.7630  141.9670 C   0  0  0  0  0  0  0  0  0  0  0  0
  186.9240  177.9640  146.1200 N   0  0  0  0  0  0  0  0  0  0  0  0
  190.7510  175.2530  147.3720 C   0  0  0  0  0  3  0  0  0  0  0  0
  185.7570  177.7950  139.9600 C   0  0  0  0  0  3  0  0  0  0  0  0
  187.5050  176.2730  140.6560 C   0  0  0  0  0  3  0  0  0  0  0  0
  192.5590  174.9140  141.2230 C   0  0  1  0  0  3  0  0  0  0  0  0
  193.4150  171.6870  140.4540 O   0  0  0  0  0  0  0  0  0  0  0  0
  193.9490  175.2930  140.7410 C   0  0  0  0  0  1  0  0  0  0  0  0
  192.3160  171.9430  142.5210 C   0  0  0  0  0  2  0  0  0  0  0  0
  191.3150  174.1020  143.2890 C   0  0  0  0  0  0  0  0  0  0  0  0
  192.0930  173.6360  140.5060 C   0  0  0  0  0  2  0  0  0  0  0  0
  191.2230  172.7730  143.1410 C   0  0  0  0  0  3  0  0  0  0  0  0
  192.5400  174.8130  142.7560 C   0  0  2  0  0  3  0  0  0  0  0  0
  192.7160  176.1220  143.3690 N   0  0  0  0  0  1  0  0  0  0  0  0
  192.6510  172.3710  141.1120 C   0  0  0  0  0  0  0  0  0  0  0  0
  185.9330  178.9620  146.4920 C   0  0  0  0  0  2  0  0  0  0  0  0
  185.1270  178.4640  147.5160 O   0  0  0  0  0  1  0  0  0  0  0  0
  1  4  1  0  0  0  0
  1  3  1  1  0  0  0
  2  5  1  0  0  0  0
  3 18  2  0  0  0  0
  4  2  1  6  0  0  0
  4 10  1  0  0  0  0
  5 17  1  0  0  0  0
  6 19  2  0  0  0  0
  6 20  1  0  0  0  0
  7  2  2  0  0  0  0
  8  9  2  0  0  0  0
  9 11  1  0  0  0  0
 10 12  1  0  0  0  0
 10 13  2  0  0  0  0
 11  5  2  0  0  0  0
 14  7  1  0  0  0  0
 14 15  2  0  0  0  0
 15  1  1  0  0  0  0
 16  9  1  0  0  0  0
 16  7  1  0  0  0  0
 17 31  1  0  0  0  0
 17 12  1  0  0  0  0
 18 13  1  0  0  0  0
 19  8  1  0  0  0  0
 20 16  2  0  0  0  0
 21 23  1  6  0  0  0
 21 28  1  0  0  0  0
 22 30  2  0  0  0  0
 24 27  1  0  0  0  0
 25 15  1  0  0  0  0
 26 30  1  0  0  0  0
 26 21  1  0  0  0  0
 27 25  2  0  0  0  0
 28 25  1  0  0  0  0
 28 29  1  1  0  0  0
 30 24  1  0  0  0  0
 31 32  1  0  0  0  0
M  END
>  <MODEL>
9

>  <REMARK>
 VINA RESULT:      -7.4      1.473      2.133
  Name = 
  2 active torsions:
  status: ('A' for Active; 'I' for Inactive)
    1  A    between atoms: C_13  and  N_29
    2  A    between atoms: C_16  and  C_27
                            x       y       z     vdW  Elec       q    Type
                         _______ _______ _______ _____ _____    ______ ____

>  <TORSDO>
F 2

$$$$
