=
 OpenBabel11052418583D

 34 37  0  0  1  0  0  0  0  0999 V2000
  188.6970  176.3880  144.4030 N   0  0  0  0  0  0  0  0  0  0  0  0
  187.9390  176.8300  142.1470 C   0  0  2  0  0  3  0  0  0  0  0  0
  187.5270  177.2580  144.4620 C   0  0  1  0  0  3  0  0  0  0  0  0
  186.8370  177.1940  143.1170 C   0  0  1  0  0  3  0  0  0  0  0  0
  188.9440  176.0670  142.9930 C   0  0  2  0  0  3  0  0  0  0  0  0
  188.5560  177.9750  141.6380 O   0  0  0  0  0  1  0  0  0  0  0  0
  188.3380  174.3620  140.3030 C   0  0  0  0  0  3  0  0  0  0  0  0
  190.5410  173.6750  141.0690 C   0  0  0  0  0  0  0  0  0  0  0  0
  188.8370  174.5470  142.7600 C   0  0  2  0  0  3  0  0  0  0  0  0
  190.8930  173.3760  139.7490 C   0  0  0  0  0  3  0  0  0  0  0  0
  191.5100  173.3160  142.1620 C   0  0  0  0  0  2  0  0  0  0  0  0
  189.6690  173.7720  143.7890 C   0  0  0  0  0  2  0  0  0  0  0  0
  189.2460  174.1710  141.3540 C   0  0  0  0  0  0  0  0  0  0  0  0
  189.9830  173.5820  138.7100 C   0  0  0  0  0  3  0  0  0  0  0  0
  188.7050  174.0720  138.9870 C   0  0  0  0  0  3  0  0  0  0  0  0
  191.1550  173.9530  143.5020 C   0  0  0  0  0  2  0  0  0  0  0  0
  186.2500  178.4240  142.8020 O   0  0  0  0  0  0  0  0  0  0  0  0
  184.9270  178.1180  142.4830 C   0  0  0  0  0  2  0  0  0  0  0  0
  184.6940  178.2440  140.6890 S   0  0  0  0  0  1  0  0  0  0  0  0
  189.8340  177.1680  144.8650 C   0  0  0  0  0  2  0  0  0  0  0  0
  190.4980  176.4280  146.3820 S   0  0  0  0  0  0  0  0  0  0  0  0
  192.2030  176.6130  145.7970 C   0  0  0  0  0  2  0  0  0  0  0  0
  193.0860  175.5920  146.4880 C   0  0  0  0  0  2  0  0  0  0  0  0
  196.3730  174.3460  145.3000 C   0  0  0  0  0  2  0  0  0  0  0  0
  194.4470  175.6990  145.9920 N   0  0  0  0  0  0  0  0  0  0  0  0
  194.9200  174.3330  145.7690 C   0  0  0  0  0  2  0  0  0  0  0  0
  197.5030  175.0950  143.3180 N   0  0  0  0  0  2  0  0  0  0  0  0
  195.7840  176.5640  144.1230 C   0  0  0  0  0  2  0  0  0  0  0  0
  194.3780  176.3660  144.6910 C   0  0  0  0  0  2  0  0  0  0  0  0
  196.5120  175.2530  144.1130 C   0  0  0  0  0  0  0  0  0  0  0  0
  186.5920  176.7800  145.5590 C   0  0  0  0  0  2  0  0  0  0  0  0
  186.7080  177.8710  147.0060 S   0  0  0  0  0  0  0  0  0  0  0  0
  185.5800  179.0810  146.2640 C   0  0  0  0  0  2  0  0  0  0  0  0
  184.1920  178.4820  146.1700 C   0  0  0  0  0  1  0  0  0  0  0  0
  1  3  1  0  0  0  0
  1 20  1  0  0  0  0
  2  6  1  1  0  0  0
  2  5  1  0  0  0  0
  2  4  1  0  0  0  0
  3 31  1  1  0  0  0
  4 17  1  6  0  0  0
  4  3  1  0  0  0  0
  5  1  1  1  0  0  0
  7 13  1  0  0  0  0
  8 13  2  0  0  0  0
  8 11  1  0  0  0  0
  9  5  1  0  0  0  0
  9 12  1  1  0  0  0
 10  8  1  0  0  0  0
 11 16  1  0  0  0  0
 13  9  1  0  0  0  0
 14 15  1  0  0  0  0
 14 10  2  0  0  0  0
 15  7  2  0  0  0  0
 16 12  1  0  0  0  0
 18 17  1  0  0  0  0
 19 18  1  0  0  0  0
 20 21  1  0  0  0  0
 22 21  1  0  0  0  0
 22 23  1  0  0  0  0
 24 26  1  0  0  0  0
 25 23  1  0  0  0  0
 26 25  1  0  0  0  0
 27 30  2  0  0  0  0
 28 29  1  0  0  0  0
 29 25  1  0  0  0  0
 30 28  1  0  0  0  0
 30 24  1  0  0  0  0
 31 32  1  0  0  0  0
 33 32  1  0  0  0  0
 34 33  1  0  0  0  0
M  END
>  <MODEL>
1

>  <REMARK>
 VINA RESULT:      -6.3      0.000      0.000
  Name = 
  11 active torsions:
  status: ('A' for Active; 'I' for Inactive)
    1  A    between atoms: C_3  and  N_13
    2  A    between atoms: C_3  and  C_17
    3  A    between atoms: C_4  and  C_31
    4  A    between atoms: N_5  and  C_18
    5  A    between atoms: C_7  and  O_8
    6  A    between atoms: O_8  and  C_28
    7  A    between atoms: C_12  and  S_16
    8  A    between atoms: S_16  and  C_23
    9  A    between atoms: C_17  and  S_29
   10  A    between atoms: C_18  and  S_29
   11  A    between atoms: C_23  and  C_26
                            x       y       z     vdW  Elec       q    Type
                         _______ _______ _______ _____ _____    ______ ____

>  <TORSDO>
F 11

$$$$
=
 OpenBabel11052418583D

 34 37  0  0  1  0  0  0  0  0999 V2000
  187.6090  176.9870  143.1170 N   0  0  0  0  0  0  0  0  0  0  0  0
  187.1720  177.1800  145.4900 C   0  0  2  0  0  3  0  0  0  0  0  0
  186.2660  177.5270  143.3060 C   0  0  1  0  0  3  0  0  0  0  0  0
  186.1620  178.0150  144.7340 C   0  0  1  0  0  3  0  0  0  0  0  0
  188.2090  176.8120  144.4430 C   0  0  2  0  0  3  0  0  0  0  0  0
  186.5880  176.0090  145.9780 O   0  0  0  0  0  1  0  0  0  0  0  0
  190.2220  177.2640  146.9440 C   0  0  0  0  0  3  0  0  0  0  0  0
  191.5600  176.3120  145.1500 C   0  0  0  0  0  0  0  0  0  0  0  0
  189.4780  177.6770  144.5780 C   0  0  2  0  0  3  0  0  0  0  0  0
  192.4140  175.7470  146.1030 C   0  0  0  0  0  3  0  0  0  0  0  0
  191.9400  176.1990  143.6990 C   0  0  0  0  0  2  0  0  0  0  0  0
  190.1550  177.8790  143.2170 C   0  0  0  0  0  2  0  0  0  0  0  0
  190.4510  177.0830  145.5730 C   0  0  0  0  0  0  0  0  0  0  0  0
  192.1680  175.9250  147.4670 C   0  0  0  0  0  3  0  0  0  0  0  0
  191.0740  176.6850  147.8870 C   0  0  0  0  0  3  0  0  0  0  0  0
  190.8020  176.5790  142.7570 C   0  0  0  0  0  2  0  0  0  0  0  0
  184.8650  177.8360  145.2260 O   0  0  0  0  0  0  0  0  0  0  0  0
  184.5600  179.0340  145.8720 C   0  0  0  0  0  2  0  0  0  0  0  0
  185.4740  179.1260  147.4360 S   0  0  0  0  0  1  0  0  0  0  0  0
  187.4600  175.6610  142.5400 C   0  0  0  0  0  2  0  0  0  0  0  0
  187.9000  175.7140  140.7810 S   0  0  0  0  0  0  0  0  0  0  0  0
  188.5220  174.0120  140.8240 C   0  0  0  0  0  2  0  0  0  0  0  0
  188.5890  173.5370  142.2620 C   0  0  0  0  0  2  0  0  0  0  0  0
  191.4510  172.5430  144.4060 C   0  0  0  0  0  2  0  0  0  0  0  0
  189.9180  173.0270  142.5520 N   0  0  0  0  0  0  0  0  0  0  0  0
  190.0530  173.0120  144.0080 C   0  0  0  0  0  2  0  0  0  0  0  0
  192.6480  170.4690  144.2410 N   0  0  0  0  0  2  0  0  0  0  0  0
  191.3480  171.0470  142.3080 C   0  0  0  0  0  2  0  0  0  0  0  0
  189.9580  171.6400  142.0850 C   0  0  0  0  0  2  0  0  0  0  0  0
  191.7520  171.2320  143.7410 C   0  0  0  0  0  0  0  0  0  0  0  0
  186.0370  178.6740  142.3370 C   0  0  0  0  0  2  0  0  0  0  0  0
  184.9750  178.1370  140.9640 S   0  0  0  0  0  0  0  0  0  0  0  0
  183.4890  178.2200  141.9990 C   0  0  0  0  0  2  0  0  0  0  0  0
  182.2590  178.1720  141.1170 C   0  0  0  0  0  1  0  0  0  0  0  0
  1  3  1  0  0  0  0
  2  6  1  6  0  0  0
  3 31  1  6  0  0  0
  3  4  1  0  0  0  0
  4 17  1  1  0  0  0
  4  2  1  0  0  0  0
  5  1  1  6  0  0  0
  5  9  1  0  0  0  0
  5  2  1  0  0  0  0
  7 15  1  0  0  0  0
  8 13  1  0  0  0  0
  8 10  2  0  0  0  0
  9 12  1  6  0  0  0
  9 13  1  0  0  0  0
 10 14  1  0  0  0  0
 11  8  1  0  0  0  0
 13  7  2  0  0  0  0
 14 15  2  0  0  0  0
 16 12  1  0  0  0  0
 16 11  1  0  0  0  0
 17 18  1  0  0  0  0
 18 19  1  0  0  0  0
 20  1  1  0  0  0  0
 21 22  1  0  0  0  0
 21 20  1  0  0  0  0
 22 23  1  0  0  0  0
 23 25  1  0  0  0  0
 25 26  1  0  0  0  0
 26 24  1  0  0  0  0
 28 30  1  0  0  0  0
 29 28  1  0  0  0  0
 29 25  1  0  0  0  0
 30 27  2  0  0  0  0
 30 24  1  0  0  0  0
 32 33  1  0  0  0  0
 32 31  1  0  0  0  0
 34 33  1  0  0  0  0
M  END
>  <MODEL>
2

>  <REMARK>
 VINA RESULT:      -6.3      2.803      5.512
  Name = 
  11 active torsions:
  status: ('A' for Active; 'I' for Inactive)
    1  A    between atoms: C_3  and  N_13
    2  A    between atoms: C_3  and  C_17
    3  A    between atoms: C_4  and  C_31
    4  A    between atoms: N_5  and  C_18
    5  A    between atoms: C_7  and  O_8
    6  A    between atoms: O_8  and  C_28
    7  A    between atoms: C_12  and  S_16
    8  A    between atoms: S_16  and  C_23
    9  A    between atoms: C_17  and  S_29
   10  A    between atoms: C_18  and  S_29
   11  A    between atoms: C_23  and  C_26
                            x       y       z     vdW  Elec       q    Type
                         _______ _______ _______ _____ _____    ______ ____

>  <TORSDO>
F 11

$$$$
=
 OpenBabel11052418583D

 34 37  0  0  1  0  0  0  0  0999 V2000
  191.6150  175.0830  145.2060 N   0  0  0  0  0  0  0  0  0  0  0  0
  191.4440  173.1430  143.7690 C   0  0  2  0  0  3  0  0  0  0  0  0
  192.6220  174.1070  145.6110 C   0  0  1  0  0  3  0  0  0  0  0  0
  192.7770  173.1100  144.4850 C   0  0  1  0  0  3  0  0  0  0  0  0
  190.9090  174.5380  144.0430 C   0  0  2  0  0  3  0  0  0  0  0  0
  190.5610  172.2070  144.3120 O   0  0  0  0  0  1  0  0  0  0  0  0
  188.9090  175.2460  141.5900 C   0  0  0  0  0  3  0  0  0  0  0  0
  189.3710  177.3450  142.7270 C   0  0  0  0  0  0  0  0  0  0  0  0
  191.0910  175.4600  142.8210 C   0  0  2  0  0  3  0  0  0  0  0  0
  188.1250  177.8290  142.3140 C   0  0  0  0  0  3  0  0  0  0  0  0
  190.3040  178.2930  143.4300 C   0  0  0  0  0  2  0  0  0  0  0  0
  192.0960  176.5800  143.1210 C   0  0  0  0  0  2  0  0  0  0  0  0
  189.7720  176.0390  142.3600 C   0  0  0  0  0  0  0  0  0  0  0  0
  187.2700  177.0240  141.5570 C   0  0  0  0  0  3  0  0  0  0  0  0
  187.6630  175.7350  141.1930 C   0  0  0  0  0  3  0  0  0  0  0  0
  191.4840  177.5850  144.0880 C   0  0  0  0  0  2  0  0  0  0  0  0
  193.0670  171.8360  144.9870 O   0  0  0  0  0  0  0  0  0  0  0  0
  193.9430  171.2770  144.0560 C   0  0  0  0  0  2  0  0  0  0  0  0
  195.5870  171.1050  144.8020 S   0  0  0  0  0  1  0  0  0  0  0  0
  190.6460  175.1720  146.2870 C   0  0  0  0  0  2  0  0  0  0  0  0
  191.2300  176.3610  147.5260 S   0  0  0  0  0  0  0  0  0  0  0  0
  189.8400  177.4760  147.1990 C   0  0  0  0  0  2  0  0  0  0  0  0
  188.6280  176.6630  146.7880 C   0  0  0  0  0  2  0  0  0  0  0  0
  185.5600  177.5850  144.9150 C   0  0  0  0  0  2  0  0  0  0  0  0
  187.5810  177.5470  146.3050 N   0  0  0  0  0  0  0  0  0  0  0  0
  186.6680  176.7220  145.5150 C   0  0  0  0  0  2  0  0  0  0  0  0
  183.7130  178.8290  145.8110 N   0  0  0  0  0  2  0  0  0  0  0  0
  185.7570  179.0090  147.0560 C   0  0  0  0  0  2  0  0  0  0  0  0
  186.8490  178.0260  147.4790 C   0  0  0  0  0  2  0  0  0  0  0  0
  184.8970  178.3820  145.9990 C   0  0  0  0  0  0  0  0  0  0  0  0
  193.9400  174.8160  145.8760 C   0  0  0  0  0  2  0  0  0  0  0  0
  194.9230  174.9070  144.3510 S   0  0  0  0  0  0  0  0  0  0  0  0
  195.3720  176.6340  144.6690 C   0  0  0  0  0  2  0  0  0  0  0  0
  194.6420  177.1240  145.9020 C   0  0  0  0  0  1  0  0  0  0  0  0
  1  3  1  0  0  0  0
  1 20  1  0  0  0  0
  2  5  1  0  0  0  0
  2  6  1  1  0  0  0
  2  4  1  0  0  0  0
  3 31  1  6  0  0  0
  4 17  1  1  0  0  0
  4  3  1  0  0  0  0
  5  1  1  1  0  0  0
  7 13  1  0  0  0  0
  8 11  1  0  0  0  0
  9 12  1  1  0  0  0
  9  5  1  0  0  0  0
 10  8  1  0  0  0  0
 11 16  1  0  0  0  0
 12 16  1  0  0  0  0
 13  8  2  0  0  0  0
 13  9  1  0  0  0  0
 14 10  2  0  0  0  0
 15 14  1  0  0  0  0
 15  7  2  0  0  0  0
 18 19  1  0  0  0  0
 18 17  1  0  0  0  0
 20 21  1  0  0  0  0
 22 21  1  0  0  0  0
 23 22  1  0  0  0  0
 24 26  1  0  0  0  0
 24 30  1  0  0  0  0
 25 23  1  0  0  0  0
 25 29  1  0  0  0  0
 26 25  1  0  0  0  0
 27 30  2  0  0  0  0
 28 29  1  0  0  0  0
 30 28  1  0  0  0  0
 32 33  1  0  0  0  0
 32 31  1  0  0  0  0
 33 34  1  0  0  0  0
M  END
>  <MODEL>
3

>  <REMARK>
 VINA RESULT:      -6.3      3.255      7.551
  Name = 
  11 active torsions:
  status: ('A' for Active; 'I' for Inactive)
    1  A    between atoms: C_3  and  N_13
    2  A    between atoms: C_3  and  C_17
    3  A    between atoms: C_4  and  C_31
    4  A    between atoms: N_5  and  C_18
    5  A    between atoms: C_7  and  O_8
    6  A    between atoms: O_8  and  C_28
    7  A    between atoms: C_12  and  S_16
    8  A    between atoms: S_16  and  C_23
    9  A    between atoms: C_17  and  S_29
   10  A    between atoms: C_18  and  S_29
   11  A    between atoms: C_23  and  C_26
                            x       y       z     vdW  Elec       q    Type
                         _______ _______ _______ _____ _____    ______ ____

>  <TORSDO>
F 11

$$$$
=
 OpenBabel11052418583D

 34 37  0  0  1  0  0  0  0  0999 V2000
  193.7330  174.7240  144.8380 N   0  0  0  0  0  0  0  0  0  0  0  0
  192.8620  175.9390  142.9350 C   0  0  2  0  0  3  0  0  0  0  0  0
  194.7740  174.8110  143.8180 C   0  0  1  0  0  3  0  0  0  0  0  0
  194.3710  175.8910  142.8390 C   0  0  1  0  0  3  0  0  0  0  0  0
  192.5610  175.4530  144.3420 C   0  0  2  0  0  3  0  0  0  0  0  0
  192.2740  175.0630  142.0200 O   0  0  0  0  0  1  0  0  0  0  0  0
  190.0860  177.5470  144.3230 C   0  0  0  0  0  3  0  0  0  0  0  0
  189.9580  176.3530  146.4370 C   0  0  0  0  0  0  0  0  0  0  0  0
  192.2200  176.6260  145.2820 C   0  0  2  0  0  3  0  0  0  0  0  0
  188.5740  176.5550  146.4530 C   0  0  0  0  0  3  0  0  0  0  0  0
  190.6000  175.7300  147.6460 C   0  0  0  0  0  2  0  0  0  0  0  0
  192.8060  176.3990  146.6820 C   0  0  0  0  0  2  0  0  0  0  0  0
  190.7270  176.8570  145.3620 C   0  0  0  0  0  0  0  0  0  0  0  0
  187.9460  177.2340  145.4060 C   0  0  0  0  0  3  0  0  0  0  0  0
  188.7020  177.7320  144.3430 C   0  0  0  0  0  3  0  0  0  0  0  0
  192.0390  175.2910  147.3940 C   0  0  0  0  0  2  0  0  0  0  0  0
  194.8010  175.5750  141.5460 O   0  0  0  0  0  0  0  0  0  0  0  0
  195.7560  176.5440  141.2410 C   0  0  0  0  0  2  0  0  0  0  0  0
  197.2270  175.7420  140.5440 S   0  0  0  0  0  1  0  0  0  0  0  0
  193.3500  173.3250  144.9390 C   0  0  0  0  0  2  0  0  0  0  0  0
  193.7350  172.4780  143.3820 S   0  0  0  0  0  0  0  0  0  0  0  0
  192.5680  171.1410  143.7500 C   0  0  0  0  0  2  0  0  0  0  0  0
  191.5270  171.0650  142.6500 C   0  0  0  0  0  2  0  0  0  0  0  0
  189.2730  173.5700  141.0960 C   0  0  0  0  0  2  0  0  0  0  0  0
  190.8580  172.3470  142.5150 N   0  0  0  0  0  0  0  0  0  0  0  0
  189.9770  172.2390  141.3520 C   0  0  0  0  0  2  0  0  0  0  0  0
  187.6230  174.8620  142.2670 N   0  0  0  0  0  2  0  0  0  0  0  0
  189.3150  173.8780  143.6560 C   0  0  0  0  0  2  0  0  0  0  0  0
  190.0160  172.5210  143.6990 C   0  0  0  0  0  2  0  0  0  0  0  0
  188.5920  174.0310  142.3510 C   0  0  0  0  0  0  0  0  0  0  0  0
  196.1000  175.1580  144.4730 C   0  0  0  0  0  2  0  0  0  0  0  0
  197.2890  173.8050  144.2450 S   0  0  0  0  0  0  0  0  0  0  0  0
  197.0490  173.2230  145.9450 C   0  0  0  0  0  2  0  0  0  0  0  0
  196.6490  171.7620  145.9240 C   0  0  0  0  0  1  0  0  0  0  0  0
  1 20  1  0  0  0  0
  2  6  1  6  0  0  0
  2  5  1  0  0  0  0
  3 31  1  1  0  0  0
  3  1  1  0  0  0  0
  4 17  1  6  0  0  0
  4  2  1  0  0  0  0
  4  3  1  0  0  0  0
  5  1  1  1  0  0  0
  5  9  1  0  0  0  0
  7 15  2  0  0  0  0
  7 13  1  0  0  0  0
  8 10  1  0  0  0  0
  8 11  1  0  0  0  0
  9 13  1  0  0  0  0
  9 12  1  1  0  0  0
 12 16  1  0  0  0  0
 13  8  2  0  0  0  0
 14 10  2  0  0  0  0
 15 14  1  0  0  0  0
 16 11  1  0  0  0  0
 18 17  1  0  0  0  0
 19 18  1  0  0  0  0
 21 22  1  0  0  0  0
 21 20  1  0  0  0  0
 23 22  1  0  0  0  0
 24 26  1  0  0  0  0
 24 30  1  0  0  0  0
 25 23  1  0  0  0  0
 25 29  1  0  0  0  0
 26 25  1  0  0  0  0
 27 30  2  0  0  0  0
 28 29  1  0  0  0  0
 30 28  1  0  0  0  0
 32 31  1  0  0  0  0
 32 33  1  0  0  0  0
 34 33  1  0  0  0  0
M  END
>  <MODEL>
4

>  <REMARK>
 VINA RESULT:      -6.3      3.641      7.800
  Name = 
  11 active torsions:
  status: ('A' for Active; 'I' for Inactive)
    1  A    between atoms: C_3  and  N_13
    2  A    between atoms: C_3  and  C_17
    3  A    between atoms: C_4  and  C_31
    4  A    between atoms: N_5  and  C_18
    5  A    between atoms: C_7  and  O_8
    6  A    between atoms: O_8  and  C_28
    7  A    between atoms: C_12  and  S_16
    8  A    between atoms: S_16  and  C_23
    9  A    between atoms: C_17  and  S_29
   10  A    between atoms: C_18  and  S_29
   11  A    between atoms: C_23  and  C_26
                            x       y       z     vdW  Elec       q    Type
                         _______ _______ _______ _____ _____    ______ ____

>  <TORSDO>
F 11

$$$$
=
 OpenBabel11052418583D

 34 37  0  0  1  0  0  0  0  0999 V2000
  188.8670  175.3010  143.3210 N   0  0  0  0  0  0  0  0  0  0  0  0
  189.0130  177.4040  144.5110 C   0  0  2  0  0  3  0  0  0  0  0  0
  189.8770  175.1800  144.3690 C   0  0  1  0  0  3  0  0  0  0  0  0
  189.6740  176.3230  145.3380 C   0  0  1  0  0  3  0  0  0  0  0  0
  188.2830  176.6420  143.4180 C   0  0  2  0  0  3  0  0  0  0  0  0
  189.9670  178.2360  143.9210 O   0  0  0  0  0  1  0  0  0  0  0  0
  186.6470  176.6420  146.2170 C   0  0  0  0  0  3  0  0  0  0  0  0
  185.8750  178.5820  144.9720 C   0  0  0  0  0  0  0  0  0  0  0  0
  186.7720  176.5520  143.7080 C   0  0  2  0  0  3  0  0  0  0  0  0
  185.5890  179.2280  146.1790 C   0  0  0  0  0  3  0  0  0  0  0  0
  185.4660  179.2560  143.6910 C   0  0  0  0  0  2  0  0  0  0  0  0
  185.9520  177.0970  142.5310 C   0  0  0  0  0  2  0  0  0  0  0  0
  186.4080  177.2710  144.9880 C   0  0  0  0  0  0  0  0  0  0  0  0
  185.8430  178.5940  147.3980 C   0  0  0  0  0  3  0  0  0  0  0  0
  186.3690  177.3000  147.4170 C   0  0  0  0  0  3  0  0  0  0  0  0
  186.0900  178.6120  142.4570 C   0  0  0  0  0  2  0  0  0  0  0  0
  190.8980  176.7470  145.8670 O   0  0  0  0  0  0  0  0  0  0  0  0
  190.6740  176.8590  147.2390 C   0  0  0  0  0  2  0  0  0  0  0  0
  191.3780  175.4180  148.0850 S   0  0  0  0  0  1  0  0  0  0  0  0
  189.5630  175.2320  142.0460 C   0  0  0  0  0  2  0  0  0  0  0  0
  188.4350  174.6000  140.7750 S   0  0  0  0  0  0  0  0  0  0  0  0
  188.8050  172.8810  141.2150 C   0  0  0  0  0  2  0  0  0  0  0  0
  190.0530  172.4320  140.4800 C   0  0  0  0  0  2  0  0  0  0  0  0
  190.1470  172.5170  136.7710 C   0  0  0  0  0  2  0  0  0  0  0  0
  189.7090  172.0130  139.1320 N   0  0  0  0  0  0  0  0  0  0  0  0
  190.4910  172.8490  138.2220 C   0  0  0  0  0  2  0  0  0  0  0  0
  190.4700  170.6090  135.3510 N   0  0  0  0  0  2  0  0  0  0  0  0
  189.7950  170.1000  137.5970 C   0  0  0  0  0  2  0  0  0  0  0  0
  190.1690  170.6330  138.9800 C   0  0  0  0  0  2  0  0  0  0  0  0
  190.2930  171.0420  136.5420 C   0  0  0  0  0  0  0  0  0  0  0  0
  189.7150  173.8480  145.0800 C   0  0  0  0  0  2  0  0  0  0  0  0
  190.9130  172.6420  144.4390 S   0  0  0  0  0  0  0  0  0  0  0  0
  192.2630  173.8500  144.5130 C   0  0  0  0  0  2  0  0  0  0  0  0
  193.3520  173.3320  145.4300 C   0  0  0  0  0  1  0  0  0  0  0  0
  1  3  1  0  0  0  0
  2  6  1  6  0  0  0
  2  4  1  0  0  0  0
  3 31  1  1  0  0  0
  3  4  1  0  0  0  0
  4 17  1  6  0  0  0
  5  1  1  1  0  0  0
  5  9  1  0  0  0  0
  5  2  1  0  0  0  0
  7 15  1  0  0  0  0
  8 13  1  0  0  0  0
  8 10  2  0  0  0  0
  9 12  1  6  0  0  0
  9 13  1  0  0  0  0
 10 14  1  0  0  0  0
 11  8  1  0  0  0  0
 13  7  2  0  0  0  0
 14 15  2  0  0  0  0
 16 12  1  0  0  0  0
 16 11  1  0  0  0  0
 17 18  1  0  0  0  0
 18 19  1  0  0  0  0
 20  1  1  0  0  0  0
 21 22  1  0  0  0  0
 21 20  1  0  0  0  0
 23 22  1  0  0  0  0
 24 26  1  0  0  0  0
 25 23  1  0  0  0  0
 26 25  1  0  0  0  0
 27 30  2  0  0  0  0
 28 29  1  0  0  0  0
 29 25  1  0  0  0  0
 30 24  1  0  0  0  0
 30 28  1  0  0  0  0
 32 33  1  0  0  0  0
 32 31  1  0  0  0  0
 33 34  1  0  0  0  0
M  END
>  <MODEL>
5

>  <REMARK>
 VINA RESULT:      -6.3      3.106      7.626
  Name = 
  11 active torsions:
  status: ('A' for Active; 'I' for Inactive)
    1  A    between atoms: C_3  and  N_13
    2  A    between atoms: C_3  and  C_17
    3  A    between atoms: C_4  and  C_31
    4  A    between atoms: N_5  and  C_18
    5  A    between atoms: C_7  and  O_8
    6  A    between atoms: O_8  and  C_28
    7  A    between atoms: C_12  and  S_16
    8  A    between atoms: S_16  and  C_23
    9  A    between atoms: C_17  and  S_29
   10  A    between atoms: C_18  and  S_29
   11  A    between atoms: C_23  and  C_26
                            x       y       z     vdW  Elec       q    Type
                         _______ _______ _______ _____ _____    ______ ____

>  <TORSDO>
F 11

$$$$
=
 OpenBabel11052418583D

 34 37  0  0  1  0  0  0  0  0999 V2000
  190.8640  174.9620  143.4750 N   0  0  0  0  0  0  0  0  0  0  0  0
  192.6000  173.4070  142.8240 C   0  0  2  0  0  3  0  0  0  0  0  0
  190.2990  173.9890  142.5450 C   0  0  1  0  0  3  0  0  0  0  0  0
  191.2530  172.8170  142.4690 C   0  0  1  0  0  3  0  0  0  0  0  0
  192.2660  174.5990  143.7040 C   0  0  2  0  0  3  0  0  0  0  0  0
  193.2640  173.8620  141.6820 O   0  0  0  0  0  1  0  0  0  0  0  0
  194.2520  172.4780  145.1420 C   0  0  0  0  0  3  0  0  0  0  0  0
  194.9170  174.6810  145.9280 C   0  0  0  0  0  0  0  0  0  0  0  0
  192.5030  174.2820  145.1940 C   0  0  2  0  0  3  0  0  0  0  0  0
  196.2220  174.2100  146.1060 C   0  0  0  0  0  3  0  0  0  0  0  0
  194.5920  176.0710  146.4000 C   0  0  0  0  0  2  0  0  0  0  0  0
  192.1820  175.4980  146.0740 C   0  0  0  0  0  2  0  0  0  0  0  0
  193.9160  173.8050  145.4430 C   0  0  0  0  0  0  0  0  0  0  0  0
  196.5460  172.8880  145.7910 C   0  0  0  0  0  3  0  0  0  0  0  0
  195.5610  172.0220  145.3120 C   0  0  0  0  0  3  0  0  0  0  0  0
  193.2450  176.5720  145.8860 C   0  0  0  0  0  2  0  0  0  0  0  0
  191.2500  172.2570  141.1870 O   0  0  0  0  0  0  0  0  0  0  0  0
  191.0510  170.8930  141.3940 C   0  0  0  0  0  2  0  0  0  0  0  0
  192.4320  169.9660  140.6690 S   0  0  0  0  0  1  0  0  0  0  0  0
  190.8650  176.2490  142.7980 C   0  0  0  0  0  2  0  0  0  0  0  0
  189.7200  177.3760  143.6400 S   0  0  0  0  0  0  0  0  0  0  0  0
  188.9770  177.8910  142.0690 C   0  0  0  0  0  2  0  0  0  0  0  0
  187.4860  177.6190  142.1050 C   0  0  0  0  0  2  0  0  0  0  0  0
  185.3960  179.5890  144.4550 C   0  0  0  0  0  2  0  0  0  0  0  0
  186.9440  178.0080  143.3960 N   0  0  0  0  0  0  0  0  0  0  0  0
  185.9770  179.0750  143.1400 C   0  0  0  0  0  2  0  0  0  0  0  0
  183.9740  178.6620  146.1520 N   0  0  0  0  0  2  0  0  0  0  0  0
  185.6510  177.1680  145.3060 C   0  0  0  0  0  2  0  0  0  0  0  0
  186.2100  176.8550  143.9180 C   0  0  0  0  0  2  0  0  0  0  0  0
  184.8560  178.4390  145.2530 C   0  0  0  0  0  0  0  0  0  0  0  0
  188.9400  173.5340  143.0480 C   0  0  0  0  0  2  0  0  0  0  0  0
  187.8770  173.0630  141.6520 S   0  0  0  0  0  0  0  0  0  0  0  0
  188.5320  174.4020  140.6200 C   0  0  0  0  0  2  0  0  0  0  0  0
  188.5720  173.9500  139.1750 C   0  0  0  0  0  1  0  0  0  0  0  0
  2  6  1  6  0  0  0
  2  5  1  0  0  0  0
  3 31  1  1  0  0  0
  3  1  1  0  0  0  0
  4 17  1  6  0  0  0
  4  3  1  0  0  0  0
  4  2  1  0  0  0  0
  5  1  1  1  0  0  0
  5  9  1  0  0  0  0
  7 15  2  0  0  0  0
  7 13  1  0  0  0  0
  8 10  1  0  0  0  0
  8 11  1  0  0  0  0
  9 13  1  0  0  0  0
  9 12  1  1  0  0  0
 13  8  2  0  0  0  0
 14 10  2  0  0  0  0
 15 14  1  0  0  0  0
 16 12  1  0  0  0  0
 16 11  1  0  0  0  0
 17 18  1  0  0  0  0
 19 18  1  0  0  0  0
 20  1  1  0  0  0  0
 20 21  1  0  0  0  0
 22 23  1  0  0  0  0
 22 21  1  0  0  0  0
 23 25  1  0  0  0  0
 24 30  1  0  0  0  0
 25 29  1  0  0  0  0
 26 25  1  0  0  0  0
 26 24  1  0  0  0  0
 29 28  1  0  0  0  0
 30 28  1  0  0  0  0
 30 27  2  0  0  0  0
 32 31  1  0  0  0  0
 33 32  1  0  0  0  0
 34 33  1  0  0  0  0
M  END
>  <MODEL>
6

>  <REMARK>
 VINA RESULT:      -6.2      2.981      7.853
  Name = 
  11 active torsions:
  status: ('A' for Active; 'I' for Inactive)
    1  A    between atoms: C_3  and  N_13
    2  A    between atoms: C_3  and  C_17
    3  A    between atoms: C_4  and  C_31
    4  A    between atoms: N_5  and  C_18
    5  A    between atoms: C_7  and  O_8
    6  A    between atoms: O_8  and  C_28
    7  A    between atoms: C_12  and  S_16
    8  A    between atoms: S_16  and  C_23
    9  A    between atoms: C_17  and  S_29
   10  A    between atoms: C_18  and  S_29
   11  A    between atoms: C_23  and  C_26
                            x       y       z     vdW  Elec       q    Type
                         _______ _______ _______ _____ _____    ______ ____

>  <TORSDO>
F 11

$$$$
=
 OpenBabel11052418583D

 34 37  0  0  1  0  0  0  0  0999 V2000
  190.1660  175.0990  145.2080 N   0  0  0  0  0  0  0  0  0  0  0  0
  190.3130  176.2820  143.1020 C   0  0  2  0  0  3  0  0  0  0  0  0
  191.5150  174.9430  144.6740 C   0  0  1  0  0  3  0  0  0  0  0  0
  191.7110  175.9920  143.6020 C   0  0  1  0  0  3  0  0  0  0  0  0
  189.4180  175.9600  144.2870 C   0  0  2  0  0  3  0  0  0  0  0  0
  189.9760  175.4380  142.0410 O   0  0  0  0  0  1  0  0  0  0  0  0
  187.4530  178.3500  143.3200 C   0  0  0  0  0  3  0  0  0  0  0  0
  186.4180  177.3650  145.2870 C   0  0  0  0  0  0  0  0  0  0  0  0
  188.9530  177.2420  145.0050 C   0  0  2  0  0  3  0  0  0  0  0  0
  185.1620  177.7460  144.8020 C   0  0  0  0  0  3  0  0  0  0  0  0
  186.4960  176.7660  146.6650 C   0  0  0  0  0  2  0  0  0  0  0  0
  188.9740  177.0580  146.5280 C   0  0  0  0  0  2  0  0  0  0  0  0
  187.5800  177.6720  144.5400 C   0  0  0  0  0  0  0  0  0  0  0  0
  185.0480  178.4100  143.5790 C   0  0  0  0  0  3  0  0  0  0  0  0
  186.1930  178.7150  142.8400 C   0  0  0  0  0  3  0  0  0  0  0  0
  187.8490  176.1240  146.9560 C   0  0  0  0  0  2  0  0  0  0  0  0
  192.5400  175.5120  142.5830 O   0  0  0  0  0  0  0  0  0  0  0  0
  193.5980  176.4180  142.5270 C   0  0  0  0  0  2  0  0  0  0  0  0
  195.0980  175.5610  141.9770 S   0  0  0  0  0  1  0  0  0  0  0  0
  189.5360  173.7890  145.1690 C   0  0  0  0  0  2  0  0  0  0  0  0
  190.5940  172.6360  144.2520 S   0  0  0  0  0  0  0  0  0  0  0  0
  189.2420  172.1900  143.1320 C   0  0  0  0  0  2  0  0  0  0  0  0
  189.8120  171.5190  141.8970 C   0  0  0  0  0  2  0  0  0  0  0  0
  190.6990  172.7390  138.5070 C   0  0  0  0  0  2  0  0  0  0  0  0
  189.8780  172.4730  140.8030 N   0  0  0  0  0  0  0  0  0  0  0  0
  190.5320  171.7870  139.6890 C   0  0  0  0  0  2  0  0  0  0  0  0
  189.1930  173.8340  136.9920 N   0  0  0  0  0  2  0  0  0  0  0  0
  188.4840  173.8060  139.2850 C   0  0  0  0  0  2  0  0  0  0  0  0
  188.5010  172.7640  140.4030 C   0  0  0  0  0  2  0  0  0  0  0  0
  189.3760  173.3580  138.1650 C   0  0  0  0  0  0  0  0  0  0  0  0
  192.5290  175.1300  145.7900 C   0  0  0  0  0  2  0  0  0  0  0  0
  193.9510  174.0280  145.5410 S   0  0  0  0  0  0  0  0  0  0  0  0
  195.1260  175.3550  145.9210 C   0  0  0  0  0  2  0  0  0  0  0  0
  194.3730  176.5570  146.4510 C   0  0  0  0  0  1  0  0  0  0  0  0
  2  6  1  6  0  0  0
  2  4  1  0  0  0  0
  2  5  1  0  0  0  0
  3  1  1  0  0  0  0
  3 31  1  1  0  0  0
  4 17  1  6  0  0  0
  4  3  1  0  0  0  0
  5  9  1  0  0  0  0
  5  1  1  1  0  0  0
  7 13  1  0  0  0  0
  8 11  1  0  0  0  0
  9 12  1  1  0  0  0
 10  8  1  0  0  0  0
 11 16  1  0  0  0  0
 12 16  1  0  0  0  0
 13  9  1  0  0  0  0
 13  8  2  0  0  0  0
 14 10  2  0  0  0  0
 15  7  2  0  0  0  0
 15 14  1  0  0  0  0
 18 17  1  0  0  0  0
 19 18  1  0  0  0  0
 20  1  1  0  0  0  0
 21 20  1  0  0  0  0
 22 21  1  0  0  0  0
 23 22  1  0  0  0  0
 24 26  1  0  0  0  0
 25 23  1  0  0  0  0
 26 25  1  0  0  0  0
 27 30  2  0  0  0  0
 28 29  1  0  0  0  0
 29 25  1  0  0  0  0
 30 24  1  0  0  0  0
 30 28  1  0  0  0  0
 32 31  1  0  0  0  0
 32 33  1  0  0  0  0
 33 34  1  0  0  0  0
M  END
>  <MODEL>
7

>  <REMARK>
 VINA RESULT:      -6.2      3.104      7.083
  Name = 
  11 active torsions:
  status: ('A' for Active; 'I' for Inactive)
    1  A    between atoms: C_3  and  N_13
    2  A    between atoms: C_3  and  C_17
    3  A    between atoms: C_4  and  C_31
    4  A    between atoms: N_5  and  C_18
    5  A    between atoms: C_7  and  O_8
    6  A    between atoms: O_8  and  C_28
    7  A    between atoms: C_12  and  S_16
    8  A    between atoms: S_16  and  C_23
    9  A    between atoms: C_17  and  S_29
   10  A    between atoms: C_18  and  S_29
   11  A    between atoms: C_23  and  C_26
                            x       y       z     vdW  Elec       q    Type
                         _______ _______ _______ _____ _____    ______ ____

>  <TORSDO>
F 11

$$$$
=
 OpenBabel11052418583D

 34 37  0  0  1  0  0  0  0  0999 V2000
  189.1830  175.8630  143.8270 N   0  0  0  0  0  0  0  0  0  0  0  0
  189.6180  176.2390  146.1780 C   0  0  2  0  0  3  0  0  0  0  0  0
  187.9610  176.3490  144.4600 C   0  0  1  0  0  3  0  0  0  0  0  0
  188.3410  176.9530  145.7930 C   0  0  1  0  0  3  0  0  0  0  0  0
  190.2330  175.8330  144.8500 C   0  0  2  0  0  3  0  0  0  0  0  0
  189.3430  175.0860  146.9180 O   0  0  0  0  0  1  0  0  0  0  0  0
  193.0310  176.5010  146.3460 C   0  0  0  0  0  3  0  0  0  0  0  0
  193.6180  175.5440  144.1890 C   0  0  0  0  0  0  0  0  0  0  0  0
  191.3930  176.7700  144.4580 C   0  0  2  0  0  3  0  0  0  0  0  0
  194.8130  175.0680  144.7390 C   0  0  0  0  0  3  0  0  0  0  0  0
  193.4050  175.3880  142.7080 C   0  0  0  0  0  2  0  0  0  0  0  0
  191.4670  176.9480  142.9360 C   0  0  0  0  0  2  0  0  0  0  0  0
  192.7150  176.2730  144.9990 C   0  0  0  0  0  0  0  0  0  0  0  0
  195.1100  175.2910  146.0860 C   0  0  0  0  0  3  0  0  0  0  0  0
  194.2210  176.0100  146.8880 C   0  0  0  0  0  3  0  0  0  0  0  0
  191.9660  175.6650  142.2840 C   0  0  0  0  0  2  0  0  0  0  0  0
  187.3270  176.7520  146.7360 O   0  0  0  0  0  0  0  0  0  0  0  0
  187.0540  178.0220  147.2430 C   0  0  0  0  0  2  0  0  0  0  0  0
  185.2610  178.2910  147.2630 S   0  0  0  0  0  1  0  0  0  0  0  0
  188.9410  174.4860  143.4290 C   0  0  0  0  0  2  0  0  0  0  0  0
  188.7210  174.4060  141.6300 S   0  0  0  0  0  0  0  0  0  0  0  0
  189.4720  172.7580  141.5510 C   0  0  0  0  0  2  0  0  0  0  0  0
  189.6710  172.2280  142.9570 C   0  0  0  0  0  2  0  0  0  0  0  0
  193.1290  171.4050  141.8890 C   0  0  0  0  0  2  0  0  0  0  0  0
  191.0040  171.6630  143.0870 N   0  0  0  0  0  0  0  0  0  0  0  0
  191.7280  172.0120  141.8650 C   0  0  0  0  0  2  0  0  0  0  0  0
  195.1060  171.7650  143.2020 N   0  0  0  0  0  2  0  0  0  0  0  0
  193.0490  171.7730  144.4400 C   0  0  0  0  0  2  0  0  0  0  0  0
  191.6540  172.3500  144.2040 C   0  0  0  0  0  2  0  0  0  0  0  0
  193.8270  171.7950  143.1580 C   0  0  0  0  0  0  0  0  0  0  0  0
  187.3090  177.3940  143.5710 C   0  0  0  0  0  2  0  0  0  0  0  0
  185.5190  177.1030  143.4660 S   0  0  0  0  0  0  0  0  0  0  0  0
  185.2220  178.7720  142.8210 C   0  0  0  0  0  2  0  0  0  0  0  0
  185.5660  179.7910  143.8870 C   0  0  0  0  0  1  0  0  0  0  0  0
  1  3  1  0  0  0  0
  2  6  1  1  0  0  0
  3 31  1  6  0  0  0
  3  4  1  0  0  0  0
  4  2  1  0  0  0  0
  4 17  1  1  0  0  0
  5  1  1  6  0  0  0
  5  2  1  0  0  0  0
  7 15  1  0  0  0  0
  8 10  2  0  0  0  0
  8 13  1  0  0  0  0
  9 12  1  6  0  0  0
  9  5  1  0  0  0  0
  9 13  1  0  0  0  0
 10 14  1  0  0  0  0
 11  8  1  0  0  0  0
 13  7  2  0  0  0  0
 14 15  2  0  0  0  0
 16 11  1  0  0  0  0
 16 12  1  0  0  0  0
 17 18  1  0  0  0  0
 18 19  1  0  0  0  0
 20  1  1  0  0  0  0
 21 20  1  0  0  0  0
 22 21  1  0  0  0  0
 22 23  1  0  0  0  0
 23 25  1  0  0  0  0
 24 30  1  0  0  0  0
 25 29  1  0  0  0  0
 26 24  1  0  0  0  0
 26 25  1  0  0  0  0
 29 28  1  0  0  0  0
 30 27  2  0  0  0  0
 30 28  1  0  0  0  0
 32 31  1  0  0  0  0
 33 32  1  0  0  0  0
 33 34  1  0  0  0  0
M  END
>  <MODEL>
8

>  <REMARK>
 VINA RESULT:      -6.1      2.580      5.113
  Name = 
  11 active torsions:
  status: ('A' for Active; 'I' for Inactive)
    1  A    between atoms: C_3  and  N_13
    2  A    between atoms: C_3  and  C_17
    3  A    between atoms: C_4  and  C_31
    4  A    between atoms: N_5  and  C_18
    5  A    between atoms: C_7  and  O_8
    6  A    between atoms: O_8  and  C_28
    7  A    between atoms: C_12  and  S_16
    8  A    between atoms: S_16  and  C_23
    9  A    between atoms: C_17  and  S_29
   10  A    between atoms: C_18  and  S_29
   11  A    between atoms: C_23  and  C_26
                            x       y       z     vdW  Elec       q    Type
                         _______ _______ _______ _____ _____    ______ ____

>  <TORSDO>
F 11

$$$$
=
 OpenBabel11052418583D

 34 37  0  0  1  0  0  0  0  0999 V2000
  188.9060  176.3250  144.1770 N   0  0  0  0  0  0  0  0  0  0  0  0
  188.9460  176.4060  146.5960 C   0  0  2  0  0  3  0  0  0  0  0  0
  187.5760  176.6840  144.6580 C   0  0  1  0  0  3  0  0  0  0  0  0
  187.7090  177.1220  146.1000 C   0  0  1  0  0  3  0  0  0  0  0  0
  189.7830  176.1980  145.3450 C   0  0  2  0  0  3  0  0  0  0  0  0
  188.6210  175.1590  147.1340 O   0  0  0  0  0  1  0  0  0  0  0  0
  192.8190  176.0670  146.4760 C   0  0  0  0  0  3  0  0  0  0  0  0
  192.9960  176.2960  144.0620 C   0  0  0  0  0  0  0  0  0  0  0  0
  190.9380  177.2150  145.2650 C   0  0  2  0  0  3  0  0  0  0  0  0
  194.2200  175.6200  144.1000 C   0  0  0  0  0  3  0  0  0  0  0  0
  192.5480  176.8840  142.7520 C   0  0  0  0  0  2  0  0  0  0  0  0
  190.7930  178.1180  144.0340 C   0  0  0  0  0  2  0  0  0  0  0  0
  192.2850  176.5260  145.2640 C   0  0  0  0  0  0  0  0  0  0  0  0
  194.7350  175.1560  145.3130 C   0  0  0  0  0  3  0  0  0  0  0  0
  194.0360  175.3820  146.5010 C   0  0  0  0  0  3  0  0  0  0  0  0
  191.0880  177.3230  142.7670 C   0  0  0  0  0  2  0  0  0  0  0  0
  186.5720  176.7670  146.8330 O   0  0  0  0  0  0  0  0  0  0  0  0
  186.0790  177.9720  147.3330 C   0  0  0  0  0  2  0  0  0  0  0  0
  184.4480  178.3010  146.6120 S   0  0  0  0  0  1  0  0  0  0  0  0
  188.8030  175.0050  143.5780 C   0  0  0  0  0  2  0  0  0  0  0  0
  190.1280  173.9450  144.2180 S   0  0  0  0  0  0  0  0  0  0  0  0
  190.7920  173.6660  142.5550 C   0  0  0  0  0  2  0  0  0  0  0  0
  189.7340  173.0010  141.6960 C   0  0  0  0  0  2  0  0  0  0  0  0
  190.7920  173.5980  138.1890 C   0  0  0  0  0  2  0  0  0  0  0  0
  189.6980  173.6270  140.3850 N   0  0  0  0  0  0  0  0  0  0  0  0
  190.7170  172.9610  139.5750 C   0  0  0  0  0  2  0  0  0  0  0  0
  189.3160  173.7100  136.2990 N   0  0  0  0  0  2  0  0  0  0  0  0
  188.2550  173.9930  138.4340 C   0  0  0  0  0  2  0  0  0  0  0  0
  188.3920  173.3220  139.8000 C   0  0  0  0  0  2  0  0  0  0  0  0
  189.4250  173.6230  137.5710 C   0  0  0  0  0  0  0  0  0  0  0  0
  187.0160  177.8140  143.8110 C   0  0  0  0  0  2  0  0  0  0  0  0
  185.5240  177.2640  142.9320 S   0  0  0  0  0  0  0  0  0  0  0  0
  186.0920  178.0020  141.3770 C   0  0  0  0  0  2  0  0  0  0  0  0
  187.4010  177.3600  140.9640 C   0  0  0  0  0  1  0  0  0  0  0  0
  1  3  1  0  0  0  0
  2  6  1  6  0  0  0
  3 31  1  6  0  0  0
  3  4  1  0  0  0  0
  4  2  1  0  0  0  0
  4 17  1  1  0  0  0
  5  1  1  6  0  0  0
  5  2  1  0  0  0  0
  7 15  1  0  0  0  0
  8 10  2  0  0  0  0
  8 13  1  0  0  0  0
  9 12  1  6  0  0  0
  9  5  1  0  0  0  0
 10 14  1  0  0  0  0
 11 16  1  0  0  0  0
 11  8  1  0  0  0  0
 13  9  1  0  0  0  0
 13  7  2  0  0  0  0
 14 15  2  0  0  0  0
 16 12  1  0  0  0  0
 17 18  1  0  0  0  0
 19 18  1  0  0  0  0
 20  1  1  0  0  0  0
 20 21  1  0  0  0  0
 22 21  1  0  0  0  0
 23 22  1  0  0  0  0
 24 26  1  0  0  0  0
 25 23  1  0  0  0  0
 26 25  1  0  0  0  0
 27 30  2  0  0  0  0
 28 29  1  0  0  0  0
 29 25  1  0  0  0  0
 30 24  1  0  0  0  0
 30 28  1  0  0  0  0
 32 31  1  0  0  0  0
 33 32  1  0  0  0  0
 34 33  1  0  0  0  0
M  END
>  <MODEL>
9

>  <REMARK>
 VINA RESULT:      -6.1      2.565      6.102
  Name = 
  11 active torsions:
  status: ('A' for Active; 'I' for Inactive)
    1  A    between atoms: C_3  and  N_13
    2  A    between atoms: C_3  and  C_17
    3  A    between atoms: C_4  and  C_31
    4  A    between atoms: N_5  and  C_18
    5  A    between atoms: C_7  and  O_8
    6  A    between atoms: O_8  and  C_28
    7  A    between atoms: C_12  and  S_16
    8  A    between atoms: S_16  and  C_23
    9  A    between atoms: C_17  and  S_29
   10  A    between atoms: C_18  and  S_29
   11  A    between atoms: C_23  and  C_26
                            x       y       z     vdW  Elec       q    Type
                         _______ _______ _______ _____ _____    ______ ____

>  <TORSDO>
F 11

$$$$
