=
 OpenBabel11052419463D

 55 61  0  0  1  0  0  0  0  0999 V2000
  189.5420  172.9110  143.4300 C   0  0  0  0  0  2  0  0  0  0  0  0
  190.7390  172.7750  140.8100 C   0  0  0  0  0  0  0  0  0  0  0  0
  189.6760  173.5610  140.9920 C   0  0  0  0  0  3  0  0  0  0  0  0
  190.2570  171.6420  142.9800 C   0  0  0  0  0  2  0  0  0  0  0  0
  189.0310  173.6490  142.2720 N   0  0  0  0  0  0  0  0  0  0  0  0
  191.3280  172.0030  141.9540 C   0  0  0  0  0  2  0  0  0  0  0  0
  187.8650  174.4130  142.4140 N   0  0  0  0  0  2  0  0  0  0  0  0
  188.2540  175.8160  142.3720 C   0  0  0  0  0  2  0  0  0  0  0  0
  185.3970  177.8870  145.9790 C   0  0  0  0  0  2  0  0  0  0  0  0
  191.0990  176.3250  142.8350 C   0  0  0  0  0  2  0  0  0  0  0  0
  186.5390  178.7740  147.9980 C   0  0  0  0  0  2  0  0  0  0  0  0
  187.8780  177.4780  146.3060 C   0  0  0  0  0  0  0  0  0  0  0  0
  187.7980  177.9580  147.7290 C   0  0  0  0  0  2  0  0  0  0  0  0
  185.3250  178.0100  147.4970 C   0  0  0  0  0  2  0  0  0  0  0  0
  186.7280  177.3540  145.5020 C   0  0  0  0  0  0  0  0  0  0  0  0
  189.2500  176.5640  144.5810 C   0  0  0  0  0  0  0  0  0  0  0  0
  191.5840  175.7680  145.1330 C   0  0  0  0  0  2  0  0  0  0  0  0
  189.0810  177.0650  145.8340 N   0  0  0  0  0  0  0  0  0  0  0  0
  192.8930  175.7070  144.3670 C   0  0  1  0  0  3  0  0  0  0  0  0
  186.8580  176.8240  144.2040 C   0  0  0  0  0  0  0  0  0  0  0  0
  192.5260  175.8180  142.8900 C   0  0  0  0  0  2  0  0  0  0  0  0
  188.1270  176.4260  143.7350 C   0  0  0  0  0  0  0  0  0  0  0  0
  190.5700  176.1610  144.1740 N   0  0  0  0  0  0  0  0  0  0  0  0
  185.6420  176.6700  143.3330 C   0  0  0  0  0  2  0  0  0  0  0  0
  184.9060  177.6400  141.1190 N   0  0  0  0  0  2  0  0  0  0  0  0
  185.9390  178.9610  142.7470 O   0  0  0  0  0  0  0  0  0  0  0  0
  184.7860  178.7260  140.1610 C   0  0  0  0  0  1  0  0  0  0  0  0
  185.5050  177.8280  142.4020 C   0  0  0  0  0  0  0  0  0  0  0  0
  193.7670  176.8800  144.7820 C   0  0  0  0  0  2  0  0  0  0  0  0
  194.3690  176.6430  146.1260 C   0  0  0  0  0  0  0  0  0  0  0  0
  194.3960  177.5700  146.9770 O   0  0  0  0  0  1  0  0  0  0  0  0
  194.8690  175.3890  146.4530 O   0  0  0  0  0  0  0  0  0  0  0  0
  191.3630  172.6940  139.4610 C   0  0  0  0  0  2  0  0  0  0  0  0
  191.5710  171.2390  139.0690 C   0  0  0  0  0  2  0  0  0  0  0  0
  192.8810  171.0620  138.4580 N   0  0  0  0  0  2  0  0  0  0  0  0
  193.8010  172.0200  139.0550 C   0  0  0  0  0  2  0  0  0  0  0  0
  195.0060  171.3020  139.6420 C   0  0  0  0  0  2  0  0  0  0  0  0
  194.7790  171.0640  141.0070 O   0  0  0  0  0  0  0  0  0  0  0  0
  196.4130  172.4600  144.4690 C   0  0  2  0  0  0  0  0  0  0  0  0
  197.4440  169.6310  145.7030 S   0  0  0  0  0  1  0  0  0  0  0  0
  196.3340  170.8790  142.9290 C   0  0  2  0  0  0  0  0  0  0  0  0
  196.7740  172.2370  140.9810 F   0  0  0  0  0  0  0  0  0  0  0  0
  193.8810  169.9900  143.4920 C   0  0  0  0  0  1  0  0  0  0  0  0
  195.2760  170.4180  143.9570 C   0  0  2  0  0  0  0  0  0  0  0  0
  195.7400  171.7590  141.7800 C   0  0  1  0  0  0  0  0  0  0  0  0
  195.8010  173.5780  143.6020 C   0  0  0  0  0  2  0  0  0  0  0  0
  195.3440  171.5070  145.0300 C   0  0  1  0  0  0  0  0  0  0  0  0
  197.2270  173.0750  145.5900 C   0  0  0  0  0  1  0  0  0  0  0  0
  195.6870  170.0490  145.3920 C   0  0  2  0  0  0  0  0  0  0  0  0
  195.0400  172.9860  142.4000 C   0  0  0  0  0  2  0  0  0  0  0  0
  197.0080  169.7820  142.4230 F   0  0  0  0  0  0  0  0  0  0  0  0
  194.0010  172.0790  145.4970 C   0  0  0  0  0  1  0  0  0  0  0  0
  197.2420  171.6940  143.6320 O   0  0  0  0  0  0  0  0  0  0  0  0
  194.6610  169.3040  146.2450 C   0  0  0  0  0  2  0  0  0  0  0  0
  195.2210  168.9640  147.4760 O   0  0  0  0  0  1  0  0  0  0  0  0
  2  3  2  0  0  0  0
  2  6  1  0  0  0  0
  3  5  1  0  0  0  0
  4  1  1  0  0  0  0
  5  7  1  0  0  0  0
  5  1  1  0  0  0  0
  6  4  1  0  0  0  0
  8  7  1  0  0  0  0
  8 22  1  0  0  0  0
  9 14  1  0  0  0  0
 10 21  1  0  0  0  0
 10 23  1  0  0  0  0
 12 13  1  0  0  0  0
 13 11  1  0  0  0  0
 14 11  1  0  0  0  0
 15  9  1  0  0  0  0
 15 12  2  0  0  0  0
 16 18  2  0  0  0  0
 18 12  1  0  0  0  0
 19 29  1  1  0  0  0
 19 17  1  0  0  0  0
 20 15  1  0  0  0  0
 21 19  1  0  0  0  0
 22 20  2  0  0  0  0
 22 16  1  0  0  0  0
 23 16  1  0  0  0  0
 23 17  1  0  0  0  0
 24 20  1  0  0  0  0
 25 28  1  0  0  0  0
 27 25  1  0  0  0  0
 28 26  2  0  0  0  0
 28 24  1  0  0  0  0
 29 30  1  0  0  0  0
 30 32  2  0  0  0  0
 30 31  1  0  0  0  0
 33  2  1  0  0  0  0
 34 33  1  0  0  0  0
 35 36  1  0  0  0  0
 35 34  1  0  0  0  0
 36 37  1  0  0  0  0
 37 38  1  0  0  0  0
 38 45  1  0  0  0  0
 39 47  1  0  0  0  0
 39 48  1  1  0  0  0
 41 51  1  6  0  0  0
 41 53  1  0  0  0  0
 41 44  1  0  0  0  0
 44 43  1  6  0  0  0
 44 47  1  0  0  0  0
 44 49  1  0  0  0  0
 45 42  1  6  0  0  0
 45 50  1  0  0  0  0
 45 41  1  0  0  0  0
 46 39  1  0  0  0  0
 47 49  1  0  0  0  0
 47 52  1  1  0  0  0
 49 40  1  1  0  0  0
 49 54  1  0  0  0  0
 50 46  1  0  0  0  0
 53 39  1  0  0  0  0
 54 55  1  0  0  0  0
M  END
>  <MODEL>
1

>  <REMARK>
 VINA RESULT:      -6.9      0.000      0.000
  Name = 
  15 active torsions:
  status: ('A' for Active; 'I' for Inactive)
    1  A    between atoms: N_2  and  C_28
    2  A    between atoms: N_2  and  N_44
    3  A    between atoms: C_8  and  O_22
    4  A    between atoms: C_8  and  C_43
    5  A    between atoms: C_10  and  C_32
    6  A    between atoms: C_11  and  C_38
    7  A    between atoms: C_19  and  C_40
    8  A    between atoms: C_19  and  C_45
    9  A    between atoms: C_20  and  O_22
   10  A    between atoms: C_27  and  C_54
   11  A    between atoms: C_28  and  C_49
   12  A    between atoms: C_32  and  C_39
   13  A    between atoms: N_35  and  C_43
   14  A    between atoms: N_35  and  C_51
   15  A    between atoms: C_51  and  C_54
                            x       y       z     vdW  Elec       q    Type
                         _______ _______ _______ _____ _____    ______ ____

>  <TORSDO>
F 15

$$$$
=
 OpenBabel11052419463D

 55 61  0  0  1  0  0  0  0  0999 V2000
  190.0130  172.2860  143.1980 C   0  0  0  0  0  2  0  0  0  0  0  0
  189.9740  172.2710  140.3140 C   0  0  0  0  0  0  0  0  0  0  0  0
  189.1470  173.0910  140.9650 C   0  0  0  0  0  3  0  0  0  0  0  0
  190.3800  171.0180  142.4330 C   0  0  0  0  0  2  0  0  0  0  0  0
  189.1120  173.1220  142.4010 N   0  0  0  0  0  0  0  0  0  0  0  0
  190.9380  171.3990  141.0650 C   0  0  0  0  0  2  0  0  0  0  0  0
  188.1720  173.9260  143.0590 N   0  0  0  0  0  2  0  0  0  0  0  0
  188.6380  175.3030  142.9700 C   0  0  0  0  0  2  0  0  0  0  0  0
  184.9880  177.9550  145.2300 C   0  0  0  0  0  2  0  0  0  0  0  0
  191.2290  175.7310  144.2620 C   0  0  0  0  0  2  0  0  0  0  0  0
  185.5140  179.0390  147.4010 C   0  0  0  0  0  2  0  0  0  0  0  0
  187.1980  177.4730  146.3760 C   0  0  0  0  0  0  0  0  0  0  0  0
  186.7200  178.1370  147.6380 C   0  0  0  0  0  2  0  0  0  0  0  0
  184.4570  178.2760  146.6220 C   0  0  0  0  0  2  0  0  0  0  0  0
  186.3500  177.3030  145.2630 C   0  0  0  0  0  0  0  0  0  0  0  0
  188.9550  176.2810  145.2890 C   0  0  0  0  0  0  0  0  0  0  0  0
  190.9230  175.4530  146.6400 C   0  0  0  0  0  2  0  0  0  0  0  0
  188.4470  176.9470  146.3600 N   0  0  0  0  0  0  0  0  0  0  0  0
  192.3960  175.2310  146.3440 C   0  0  1  0  0  3  0  0  0  0  0  0
  186.8320  176.6040  144.1400 C   0  0  0  0  0  0  0  0  0  0  0  0
  192.5190  175.1680  144.8250 C   0  0  0  0  0  2  0  0  0  0  0  0
  188.1450  176.0890  144.1470 C   0  0  0  0  0  0  0  0  0  0  0  0
  190.2970  175.7670  145.3710 N   0  0  0  0  0  0  0  0  0  0  0  0
  185.9400  176.3970  142.9470 C   0  0  0  0  0  2  0  0  0  0  0  0
  186.6200  176.7650  140.5420 N   0  0  0  0  0  2  0  0  0  0  0  0
  186.4120  178.5490  142.0380 O   0  0  0  0  0  0  0  0  0  0  0  0
  187.0390  177.6050  139.4320 C   0  0  0  0  0  1  0  0  0  0  0  0
  186.3270  177.3080  141.8300 C   0  0  0  0  0  0  0  0  0  0  0  0
  193.1940  176.4050  146.8890 C   0  0  0  0  0  2  0  0  0  0  0  0
  194.5390  176.4740  146.2490 C   0  0  0  0  0  0  0  0  0  0  0  0
  195.2890  175.4630  146.2490 O   0  0  0  0  0  1  0  0  0  0  0  0
  194.9530  177.6420  145.6220 O   0  0  0  0  0  0  0  0  0  0  0  0
  189.9610  172.2540  138.8260 C   0  0  0  0  0  2  0  0  0  0  0  0
  189.4120  173.5690  138.2940 C   0  0  0  0  0  2  0  0  0  0  0  0
  190.2140  174.0340  137.1710 N   0  0  0  0  0  2  0  0  0  0  0  0
  191.5280  173.4140  137.2540 C   0  0  0  0  0  2  0  0  0  0  0  0
  192.6110  174.4770  137.3450 C   0  0  0  0  0  2  0  0  0  0  0  0
  193.0780  174.5460  138.6680 O   0  0  0  0  0  0  0  0  0  0  0  0
  196.5510  173.5360  140.5440 C   0  0  2  0  0  0  0  0  0  0  0  0
  195.5980  170.7190  141.8620 S   0  0  0  0  0  1  0  0  0  0  0  0
  194.6310  172.8900  139.6640 C   0  0  2  0  0  0  0  0  0  0  0  0
  194.9070  173.8170  137.4510 F   0  0  0  0  0  0  0  0  0  0  0  0
  193.0360  174.0340  141.4740 C   0  0  0  0  0  1  0  0  0  0  0  0
  194.2610  173.1790  141.1370 C   0  0  2  0  0  0  0  0  0  0  0  0
  194.4270  174.1220  138.7210 C   0  0  1  0  0  0  0  0  0  0  0  0
  196.6450  174.8770  139.7890 C   0  0  0  0  0  2  0  0  0  0  0  0
  195.5960  173.6110  141.7470 C   0  0  1  0  0  0  0  0  0  0  0  0
  197.9350  173.1010  140.9820 C   0  0  0  0  0  1  0  0  0  0  0  0
  194.8810  172.3530  142.2760 C   0  0  2  0  0  0  0  0  0  0  0  0
  195.2650  175.3040  139.2520 C   0  0  0  0  0  2  0  0  0  0  0  0
  193.9280  171.7890  139.2090 F   0  0  0  0  0  0  0  0  0  0  0  0
  195.5670  174.8820  142.6030 C   0  0  0  0  0  1  0  0  0  0  0  0
  196.0080  172.5970  139.6510 O   0  0  0  0  0  0  0  0  0  0  0  0
  194.2380  172.4710  143.6570 C   0  0  0  0  0  2  0  0  0  0  0  0
  193.5260  171.3090  143.9520 O   0  0  0  0  0  1  0  0  0  0  0  0
  2  3  2  0  0  0  0
  2  6  1  0  0  0  0
  3  5  1  0  0  0  0
  4  1  1  0  0  0  0
  5  7  1  0  0  0  0
  5  1  1  0  0  0  0
  6  4  1  0  0  0  0
  8  7  1  0  0  0  0
  8 22  1  0  0  0  0
  9 15  1  0  0  0  0
  9 14  1  0  0  0  0
 10 21  1  0  0  0  0
 10 23  1  0  0  0  0
 11 13  1  0  0  0  0
 12 13  1  0  0  0  0
 14 11  1  0  0  0  0
 15 12  2  0  0  0  0
 16 23  1  0  0  0  0
 16 18  2  0  0  0  0
 18 12  1  0  0  0  0
 19 17  1  0  0  0  0
 19 29  1  6  0  0  0
 20 22  2  0  0  0  0
 20 15  1  0  0  0  0
 21 19  1  0  0  0  0
 22 16  1  0  0  0  0
 23 17  1  0  0  0  0
 24 20  1  0  0  0  0
 25 28  1  0  0  0  0
 27 25  1  0  0  0  0
 28 26  2  0  0  0  0
 28 24  1  0  0  0  0
 30 29  1  0  0  0  0
 31 30  1  0  0  0  0
 32 30  2  0  0  0  0
 33  2  1  0  0  0  0
 34 33  1  0  0  0  0
 35 36  1  0  0  0  0
 35 34  1  0  0  0  0
 36 37  1  0  0  0  0
 37 38  1  0  0  0  0
 38 45  1  0  0  0  0
 39 48  1  1  0  0  0
 39 47  1  0  0  0  0
 41 51  1  6  0  0  0
 41 44  1  0  0  0  0
 44 43  1  1  0  0  0
 44 47  1  0  0  0  0
 44 49  1  0  0  0  0
 45 42  1  6  0  0  0
 45 50  1  0  0  0  0
 45 41  1  0  0  0  0
 46 39  1  0  0  0  0
 47 49  1  0  0  0  0
 47 52  1  1  0  0  0
 49 40  1  6  0  0  0
 49 54  1  0  0  0  0
 50 46  1  0  0  0  0
 53 41  1  0  0  0  0
 53 39  1  0  0  0  0
 54 55  1  0  0  0  0
M  END
>  <MODEL>
2

>  <REMARK>
 VINA RESULT:      -6.7      2.081      2.865
  Name = 
  15 active torsions:
  status: ('A' for Active; 'I' for Inactive)
    1  A    between atoms: N_2  and  C_28
    2  A    between atoms: N_2  and  N_44
    3  A    between atoms: C_8  and  O_22
    4  A    between atoms: C_8  and  C_43
    5  A    between atoms: C_10  and  C_32
    6  A    between atoms: C_11  and  C_38
    7  A    between atoms: C_19  and  C_40
    8  A    between atoms: C_19  and  C_45
    9  A    between atoms: C_20  and  O_22
   10  A    between atoms: C_27  and  C_54
   11  A    between atoms: C_28  and  C_49
   12  A    between atoms: C_32  and  C_39
   13  A    between atoms: N_35  and  C_43
   14  A    between atoms: N_35  and  C_51
   15  A    between atoms: C_51  and  C_54
                            x       y       z     vdW  Elec       q    Type
                         _______ _______ _______ _____ _____    ______ ____

>  <TORSDO>
F 15

$$$$
=
 OpenBabel11052419463D

 55 61  0  0  1  0  0  0  0  0999 V2000
  188.6780  173.7880  140.9330 C   0  0  0  0  0  2  0  0  0  0  0  0
  190.2870  171.4570  141.4740 C   0  0  0  0  0  0  0  0  0  0  0  0
  189.7090  172.0910  142.4950 C   0  0  0  0  0  3  0  0  0  0  0  0
  189.8400  173.4290  140.0130 C   0  0  0  0  0  2  0  0  0  0  0  0
  188.9140  173.2680  142.2820 N   0  0  0  0  0  0  0  0  0  0  0  0
  190.0750  171.9220  140.0630 C   0  0  0  0  0  2  0  0  0  0  0  0
  188.3910  173.9650  143.3800 N   0  0  0  0  0  2  0  0  0  0  0  0
  188.5210  175.3870  143.0960 C   0  0  0  0  0  2  0  0  0  0  0  0
  185.0280  178.1370  145.4840 C   0  0  0  0  0  2  0  0  0  0  0  0
  191.1710  175.7580  144.2820 C   0  0  0  0  0  2  0  0  0  0  0  0
  185.6660  179.2180  147.6260 C   0  0  0  0  0  2  0  0  0  0  0  0
  187.2700  177.6070  146.5440 C   0  0  0  0  0  0  0  0  0  0  0  0
  186.8580  178.2870  147.8200 C   0  0  0  0  0  2  0  0  0  0  0  0
  184.5600  178.4770  146.8940 C   0  0  0  0  0  2  0  0  0  0  0  0
  186.3750  177.4520  145.4670 C   0  0  0  0  0  0  0  0  0  0  0  0
  188.9530  176.3670  145.3950 C   0  0  0  0  0  0  0  0  0  0  0  0
  190.9530  175.4970  146.6720 C   0  0  0  0  0  2  0  0  0  0  0  0
  188.5040  177.0500  146.4810 N   0  0  0  0  0  0  0  0  0  0  0  0
  192.4060  175.2390  146.3190 C   0  0  1  0  0  3  0  0  0  0  0  0
  186.7940  176.7370  144.3290 C   0  0  0  0  0  0  0  0  0  0  0  0
  192.4680  175.1660  144.7970 C   0  0  0  0  0  2  0  0  0  0  0  0
  188.0940  176.1900  144.2870 C   0  0  0  0  0  0  0  0  0  0  0  0
  190.2840  175.8210  145.4270 N   0  0  0  0  0  0  0  0  0  0  0  0
  185.8520  176.5460  143.1740 C   0  0  0  0  0  2  0  0  0  0  0  0
  186.3370  176.8560  140.7140 N   0  0  0  0  0  2  0  0  0  0  0  0
  186.4940  178.6350  142.2210 O   0  0  0  0  0  0  0  0  0  0  0  0
  186.7470  177.6510  139.5680 C   0  0  0  0  0  1  0  0  0  0  0  0
  186.2370  177.4160  142.0240 C   0  0  0  0  0  0  0  0  0  0  0  0
  193.2540  176.3950  146.8260 C   0  0  0  0  0  2  0  0  0  0  0  0
  194.5660  176.4400  146.1180 C   0  0  0  0  0  0  0  0  0  0  0  0
  195.3260  175.4370  146.1350 O   0  0  0  0  0  1  0  0  0  0  0  0
  194.9370  177.5770  145.4110 O   0  0  0  0  0  0  0  0  0  0  0  0
  191.1230  170.2540  141.7410 C   0  0  0  0  0  2  0  0  0  0  0  0
  191.8130  170.3890  143.0890 C   0  0  0  0  0  2  0  0  0  0  0  0
  192.9650  169.5000  143.1590 N   0  0  0  0  0  2  0  0  0  0  0  0
  193.4440  169.2590  141.8060 C   0  0  0  0  0  2  0  0  0  0  0  0
  194.8910  169.7040  141.6690 C   0  0  0  0  0  2  0  0  0  0  0  0
  194.9620  171.0960  141.8400 O   0  0  0  0  0  0  0  0  0  0  0  0
  195.0080  174.2950  139.3160 C   0  0  2  0  0  0  0  0  0  0  0  0
  197.8880  175.5490  140.1630 S   0  0  0  0  0  1  0  0  0  0  0  0
  196.1410  172.8500  140.5440 C   0  0  2  0  0  0  0  0  0  0  0  0
  195.3080  170.8030  139.5700 F   0  0  0  0  0  0  0  0  0  0  0  0
  195.3010  173.7110  142.9270 C   0  0  0  0  0  1  0  0  0  0  0  0
  195.8610  174.0050  141.5320 C   0  0  2  0  0  0  0  0  0  0  0  0
  195.0500  171.7280  140.5770 C   0  0  1  0  0  0  0  0  0  0  0  0
  193.7300  173.4440  139.1810 C   0  0  0  0  0  2  0  0  0  0  0  0
  195.0900  175.0110  140.6750 C   0  0  1  0  0  0  0  0  0  0  0  0
  195.0760  175.2930  138.1770 C   0  0  0  0  0  1  0  0  0  0  0  0
  196.4480  175.4050  141.2860 C   0  0  2  0  0  0  0  0  0  0  0  0
  193.6740  172.3580  140.2740 C   0  0  0  0  0  2  0  0  0  0  0  0
  197.4020  172.3300  140.7720 F   0  0  0  0  0  0  0  0  0  0  0  0
  193.8140  175.5890  141.2960 C   0  0  0  0  0  1  0  0  0  0  0  0
  196.1000  173.4130  139.2540 O   0  0  0  0  0  0  0  0  0  0  0  0
  196.4040  176.3970  142.4480 C   0  0  0  0  0  2  0  0  0  0  0  0
  197.6160  176.3770  143.1380 O   0  0  0  0  0  1  0  0  0  0  0  0
  1  5  1  0  0  0  0
  2 33  1  0  0  0  0
  2  3  2  0  0  0  0
  4  6  1  0  0  0  0
  4  1  1  0  0  0  0
  5  3  1  0  0  0  0
  5  7  1  0  0  0  0
  6  2  1  0  0  0  0
  8  7  1  0  0  0  0
  8 22  1  0  0  0  0
  9 14  1  0  0  0  0
 10 21  1  0  0  0  0
 10 23  1  0  0  0  0
 11 13  1  0  0  0  0
 12 13  1  0  0  0  0
 14 11  1  0  0  0  0
 15  9  1  0  0  0  0
 15 12  2  0  0  0  0
 16 23  1  0  0  0  0
 16 18  2  0  0  0  0
 18 12  1  0  0  0  0
 19 17  1  0  0  0  0
 19 29  1  6  0  0  0
 20 15  1  0  0  0  0
 21 19  1  0  0  0  0
 22 20  2  0  0  0  0
 22 16  1  0  0  0  0
 23 17  1  0  0  0  0
 24 20  1  0  0  0  0
 25 28  1  0  0  0  0
 27 25  1  0  0  0  0
 28 26  2  0  0  0  0
 28 24  1  0  0  0  0
 30 31  1  0  0  0  0
 30 29  1  0  0  0  0
 32 30  2  0  0  0  0
 33 34  1  0  0  0  0
 34 35  1  0  0  0  0
 36 35  1  0  0  0  0
 37 36  1  0  0  0  0
 37 38  1  0  0  0  0
 39 48  1  6  0  0  0
 39 47  1  0  0  0  0
 41 45  1  0  0  0  0
 41 51  1  1  0  0  0
 41 44  1  0  0  0  0
 44 43  1  1  0  0  0
 45 42  1  6  0  0  0
 45 38  1  0  0  0  0
 46 39  1  0  0  0  0
 46 50  1  0  0  0  0
 47 49  1  0  0  0  0
 47 52  1  1  0  0  0
 47 44  1  0  0  0  0
 49 40  1  6  0  0  0
 49 44  1  0  0  0  0
 49 54  1  0  0  0  0
 50 45  1  0  0  0  0
 53 39  1  0  0  0  0
 53 41  1  0  0  0  0
 54 55  1  0  0  0  0
M  END
>  <MODEL>
3

>  <REMARK>
 VINA RESULT:      -6.6      2.269      3.545
  Name = 
  15 active torsions:
  status: ('A' for Active; 'I' for Inactive)
    1  A    between atoms: N_2  and  C_28
    2  A    between atoms: N_2  and  N_44
    3  A    between atoms: C_8  and  O_22
    4  A    between atoms: C_8  and  C_43
    5  A    between atoms: C_10  and  C_32
    6  A    between atoms: C_11  and  C_38
    7  A    between atoms: C_19  and  C_40
    8  A    between atoms: C_19  and  C_45
    9  A    between atoms: C_20  and  O_22
   10  A    between atoms: C_27  and  C_54
   11  A    between atoms: C_28  and  C_49
   12  A    between atoms: C_32  and  C_39
   13  A    between atoms: N_35  and  C_43
   14  A    between atoms: N_35  and  C_51
   15  A    between atoms: C_51  and  C_54
                            x       y       z     vdW  Elec       q    Type
                         _______ _______ _______ _____ _____    ______ ____

>  <TORSDO>
F 15

$$$$
=
 OpenBabel11052419463D

 55 61  0  0  1  0  0  0  0  0999 V2000
  188.8970  173.8320  140.3880 C   0  0  0  0  0  2  0  0  0  0  0  0
  190.4920  172.0430  141.9940 C   0  0  0  0  0  0  0  0  0  0  0  0
  189.4900  172.7070  142.5720 C   0  0  0  0  0  3  0  0  0  0  0  0
  190.3580  173.5770  140.0300 C   0  0  0  0  0  2  0  0  0  0  0  0
  188.6790  173.6250  141.8220 N   0  0  0  0  0  0  0  0  0  0  0  0
  190.7640  172.1910  140.5250 C   0  0  0  0  0  2  0  0  0  0  0  0
  187.6900  174.3750  142.4730 N   0  0  0  0  0  2  0  0  0  0  0  0
  188.0820  175.7750  142.3940 C   0  0  0  0  0  2  0  0  0  0  0  0
  185.3550  177.9980  146.0110 C   0  0  0  0  0  2  0  0  0  0  0  0
  190.9500  176.1930  142.8070 C   0  0  0  0  0  2  0  0  0  0  0  0
  186.5570  178.8750  147.9990 C   0  0  0  0  0  2  0  0  0  0  0  0
  187.8250  177.5080  146.3070 C   0  0  0  0  0  0  0  0  0  0  0  0
  187.7830  178.0130  147.7230 C   0  0  0  0  0  2  0  0  0  0  0  0
  185.3100  178.1460  147.5280 C   0  0  0  0  0  2  0  0  0  0  0  0
  186.6590  177.4130  145.5220 C   0  0  0  0  0  0  0  0  0  0  0  0
  189.1370  176.5210  144.5770 C   0  0  0  0  0  0  0  0  0  0  0  0
  191.4510  175.6540  145.1060 C   0  0  0  0  0  2  0  0  0  0  0  0
  189.0050  177.0470  145.8240 N   0  0  0  0  0  0  0  0  0  0  0  0
  192.7450  175.5360  144.3210 C   0  0  1  0  0  3  0  0  0  0  0  0
  186.7500  176.8590  144.2320 C   0  0  0  0  0  0  0  0  0  0  0  0
  192.3600  175.6380  142.8490 C   0  0  0  0  0  2  0  0  0  0  0  0
  187.9970  176.4100  143.7490 C   0  0  0  0  0  0  0  0  0  0  0  0
  190.4360  176.0680  144.1560 N   0  0  0  0  0  0  0  0  0  0  0  0
  185.5170  176.7340  143.3810 C   0  0  0  0  0  2  0  0  0  0  0  0
  184.8040  177.6710  141.1450 N   0  0  0  0  0  2  0  0  0  0  0  0
  185.8920  178.9970  142.7330 O   0  0  0  0  0  0  0  0  0  0  0  0
  184.7170  178.7350  140.1590 C   0  0  0  0  0  1  0  0  0  0  0  0
  185.4160  177.8710  142.4200 C   0  0  0  0  0  0  0  0  0  0  0  0
  193.6650  176.6850  144.7050 C   0  0  0  0  0  2  0  0  0  0  0  0
  195.0840  176.2290  144.7640 C   0  0  0  0  0  0  0  0  0  0  0  0
  195.4070  175.2690  145.5110 O   0  0  0  0  0  1  0  0  0  0  0  0
  196.0450  176.8420  143.9700 O   0  0  0  0  0  0  0  0  0  0  0  0
  191.3230  171.1200  142.8130 C   0  0  0  0  0  2  0  0  0  0  0  0
  191.6520  171.7630  144.1510 C   0  0  0  0  0  2  0  0  0  0  0  0
  193.0600  172.1300  144.2050 N   0  0  0  0  0  2  0  0  0  0  0  0
  193.8020  171.2420  143.3210 C   0  0  0  0  0  2  0  0  0  0  0  0
  194.8590  172.0190  142.5540 C   0  0  0  0  0  2  0  0  0  0  0  0
  194.2670  172.6120  141.4260 O   0  0  0  0  0  0  0  0  0  0  0  0
  196.4990  174.4450  138.5520 C   0  0  2  0  0  0  0  0  0  0  0  0
  194.0800  175.4950  136.6460 S   0  0  0  0  0  1  0  0  0  0  0  0
  194.5630  174.2620  139.6000 C   0  0  2  0  0  0  0  0  0  0  0  0
  195.3310  174.6210  141.8620 F   0  0  0  0  0  0  0  0  0  0  0  0
  193.9310  171.8280  138.7040 C   0  0  0  0  0  1  0  0  0  0  0  0
  194.4280  173.2520  138.4380 C   0  0  2  0  0  0  0  0  0  0  0  0
  195.1170  173.6220  140.9170 C   0  0  1  0  0  0  0  0  0  0  0  0
  197.3580  173.8070  139.6610 C   0  0  0  0  0  2  0  0  0  0  0  0
  195.7640  173.3930  137.7050 C   0  0  1  0  0  0  0  0  0  0  0  0
  197.3690  175.3260  137.6790 C   0  0  0  0  0  1  0  0  0  0  0  0
  194.4490  173.7320  136.9770 C   0  0  2  0  0  0  0  0  0  0  0  0
  196.4860  172.9740  140.6220 C   0  0  0  0  0  2  0  0  0  0  0  0
  193.3510  174.8910  139.8200 F   0  0  0  0  0  0  0  0  0  0  0  0
  196.4800  172.0850  137.3490 C   0  0  0  0  0  1  0  0  0  0  0  0
  195.5110  175.2180  139.1870 O   0  0  0  0  0  0  0  0  0  0  0  0
  193.9930  172.7400  135.9080 C   0  0  0  0  0  2  0  0  0  0  0  0
  193.3880  173.4220  134.8520 O   0  0  0  0  0  1  0  0  0  0  0  0
  1  5  1  0  0  0  0
  2  3  2  0  0  0  0
  2 33  1  0  0  0  0
  4  1  1  0  0  0  0
  4  6  1  0  0  0  0
  5  7  1  0  0  0  0
  5  3  1  0  0  0  0
  6  2  1  0  0  0  0
  8  7  1  0  0  0  0
  8 22  1  0  0  0  0
  9 14  1  0  0  0  0
 10 21  1  0  0  0  0
 10 23  1  0  0  0  0
 12 13  1  0  0  0  0
 13 11  1  0  0  0  0
 14 11  1  0  0  0  0
 15  9  1  0  0  0  0
 15 12  2  0  0  0  0
 16 18  2  0  0  0  0
 18 12  1  0  0  0  0
 19 29  1  1  0  0  0
 19 17  1  0  0  0  0
 20 15  1  0  0  0  0
 21 19  1  0  0  0  0
 22 20  2  0  0  0  0
 22 16  1  0  0  0  0
 23 16  1  0  0  0  0
 23 17  1  0  0  0  0
 24 20  1  0  0  0  0
 25 28  1  0  0  0  0
 27 25  1  0  0  0  0
 28 26  2  0  0  0  0
 28 24  1  0  0  0  0
 29 30  1  0  0  0  0
 30 31  1  0  0  0  0
 32 30  2  0  0  0  0
 33 34  1  0  0  0  0
 34 35  1  0  0  0  0
 36 35  1  0  0  0  0
 37 36  1  0  0  0  0
 38 37  1  0  0  0  0
 39 48  1  6  0  0  0
 39 53  1  0  0  0  0
 39 46  1  0  0  0  0
 41 51  1  1  0  0  0
 41 45  1  0  0  0  0
 44 43  1  1  0  0  0
 44 41  1  0  0  0  0
 45 38  1  0  0  0  0
 45 42  1  1  0  0  0
 46 50  1  0  0  0  0
 47 52  1  6  0  0  0
 47 44  1  0  0  0  0
 47 39  1  0  0  0  0
 49 40  1  6  0  0  0
 49 47  1  0  0  0  0
 49 44  1  0  0  0  0
 50 45  1  0  0  0  0
 53 41  1  0  0  0  0
 54 49  1  0  0  0  0
 55 54  1  0  0  0  0
M  END
>  <MODEL>
4

>  <REMARK>
 VINA RESULT:      -6.5      2.600      4.508
  Name = 
  15 active torsions:
  status: ('A' for Active; 'I' for Inactive)
    1  A    between atoms: N_2  and  C_28
    2  A    between atoms: N_2  and  N_44
    3  A    between atoms: C_8  and  O_22
    4  A    between atoms: C_8  and  C_43
    5  A    between atoms: C_10  and  C_32
    6  A    between atoms: C_11  and  C_38
    7  A    between atoms: C_19  and  C_40
    8  A    between atoms: C_19  and  C_45
    9  A    between atoms: C_20  and  O_22
   10  A    between atoms: C_27  and  C_54
   11  A    between atoms: C_28  and  C_49
   12  A    between atoms: C_32  and  C_39
   13  A    between atoms: N_35  and  C_43
   14  A    between atoms: N_35  and  C_51
   15  A    between atoms: C_51  and  C_54
                            x       y       z     vdW  Elec       q    Type
                         _______ _______ _______ _____ _____    ______ ____

>  <TORSDO>
F 15

$$$$
=
 OpenBabel11052419463D

 55 61  0  0  1  0  0  0  0  0999 V2000
  190.1390  172.3890  142.9630 C   0  0  0  0  0  2  0  0  0  0  0  0
  189.6510  172.3210  140.1210 C   0  0  0  0  0  0  0  0  0  0  0  0
  188.8900  173.1050  140.8870 C   0  0  0  0  0  3  0  0  0  0  0  0
  190.4540  171.1300  142.1610 C   0  0  0  0  0  2  0  0  0  0  0  0
  189.0790  173.1600  142.3100 N   0  0  0  0  0  0  0  0  0  0  0  0
  190.7680  171.5160  140.7190 C   0  0  0  0  0  2  0  0  0  0  0  0
  188.2090  173.9230  143.1000 N   0  0  0  0  0  2  0  0  0  0  0  0
  188.6180  175.3160  142.9790 C   0  0  0  0  0  2  0  0  0  0  0  0
  184.9970  177.9870  145.2640 C   0  0  0  0  0  2  0  0  0  0  0  0
  191.2160  175.7100  144.2690 C   0  0  0  0  0  2  0  0  0  0  0  0
  185.5380  179.0500  147.4420 C   0  0  0  0  0  2  0  0  0  0  0  0
  187.2050  177.4760  146.4020 C   0  0  0  0  0  0  0  0  0  0  0  0
  186.7350  178.1350  147.6700 C   0  0  0  0  0  2  0  0  0  0  0  0
  184.4720  178.3030  146.6600 C   0  0  0  0  0  2  0  0  0  0  0  0
  186.3530  177.3210  145.2900 C   0  0  0  0  0  0  0  0  0  0  0  0
  188.9490  176.2740  145.3030 C   0  0  0  0  0  0  0  0  0  0  0  0
  190.9110  175.4180  146.6460 C   0  0  0  0  0  2  0  0  0  0  0  0
  188.4490  176.9380  146.3800 N   0  0  0  0  0  0  0  0  0  0  0  0
  192.3810  175.1840  146.3450 C   0  0  1  0  0  3  0  0  0  0  0  0
  186.8260  176.6260  144.1610 C   0  0  0  0  0  0  0  0  0  0  0  0
  192.5010  175.1310  144.8250 C   0  0  0  0  0  2  0  0  0  0  0  0
  188.1340  176.0980  144.1620 C   0  0  0  0  0  0  0  0  0  0  0  0
  190.2860  175.7470  145.3800 N   0  0  0  0  0  0  0  0  0  0  0  0
  185.9310  176.4360  142.9690 C   0  0  0  0  0  2  0  0  0  0  0  0
  186.6210  176.7820  140.5630 N   0  0  0  0  0  2  0  0  0  0  0  0
  186.4500  178.5740  142.0530 O   0  0  0  0  0  0  0  0  0  0  0  0
  187.0600  177.6090  139.4510 C   0  0  0  0  0  1  0  0  0  0  0  0
  186.3380  177.3340  141.8490 C   0  0  0  0  0  0  0  0  0  0  0  0
  193.1910  176.3470  146.8970 C   0  0  0  0  0  2  0  0  0  0  0  0
  194.5180  176.4360  146.2210 C   0  0  0  0  0  0  0  0  0  0  0  0
  194.9230  177.5390  145.7710 O   0  0  0  0  0  0  0  0  0  0  0  0
  195.3230  175.3080  146.1160 O   0  0  0  0  0  1  0  0  0  0  0  0
  189.4060  172.2760  138.6540 C   0  0  0  0  0  2  0  0  0  0  0  0
  189.5110  173.6750  138.0650 C   0  0  0  0  0  2  0  0  0  0  0  0
  189.7310  173.6040  136.6270 N   0  0  0  0  0  2  0  0  0  0  0  0
  190.9910  174.2640  136.3200 C   0  0  0  0  0  2  0  0  0  0  0  0
  192.0800  173.2350  136.0600 C   0  0  0  0  0  2  0  0  0  0  0  0
  193.2500  173.6240  136.7320 O   0  0  0  0  0  0  0  0  0  0  0  0
  195.3600  172.1890  139.9090 C   0  0  2  0  0  0  0  0  0  0  0  0
  194.6830  174.5410  142.0530 S   0  0  0  0  0  1  0  0  0  0  0  0
  193.7110  173.4540  139.1620 C   0  0  2  0  0  0  0  0  0  0  0  0
  192.4970  171.7810  137.9130 F   0  0  0  0  0  0  0  0  0  0  0  0
  195.2230  175.2870  137.9470 C   0  0  0  0  0  1  0  0  0  0  0  0
  194.9160  174.4210  139.1730 C   0  0  2  0  0  0  0  0  0  0  0  0
  193.5130  172.7240  137.7920 C   0  0  1  0  0  0  0  0  0  0  0  0
  195.4650  171.2870  138.6630 C   0  0  0  0  0  2  0  0  0  0  0  0
  196.0530  173.5470  139.7050 C   0  0  1  0  0  0  0  0  0  0  0  0
  195.9370  171.4660  141.1100 C   0  0  0  0  0  1  0  0  0  0  0  0
  195.6100  174.7940  140.4930 C   0  0  2  0  0  0  0  0  0  0  0  0
  194.8060  171.9570  137.4420 C   0  0  0  0  0  2  0  0  0  0  0  0
  192.5630  174.1260  139.5410 F   0  0  0  0  0  0  0  0  0  0  0  0
  197.3710  173.6060  138.9250 C   0  0  0  0  0  1  0  0  0  0  0  0
  193.9960  172.4550  140.1130 O   0  0  0  0  0  0  0  0  0  0  0  0
  196.5670  175.9850  140.4700 C   0  0  0  0  0  2  0  0  0  0  0  0
  196.3910  176.7610  141.6150 O   0  0  0  0  0  1  0  0  0  0  0  0
  2  6  1  0  0  0  0
  2  3  2  0  0  0  0
  3  5  1  0  0  0  0
  4  1  1  0  0  0  0
  5  1  1  0  0  0  0
  5  7  1  0  0  0  0
  6  4  1  0  0  0  0
  8  7  1  0  0  0  0
  8 22  1  0  0  0  0
  9 15  1  0  0  0  0
  9 14  1  0  0  0  0
 10 21  1  0  0  0  0
 10 23  1  0  0  0  0
 11 13  1  0  0  0  0
 12 13  1  0  0  0  0
 14 11  1  0  0  0  0
 15 12  2  0  0  0  0
 16 23  1  0  0  0  0
 16 18  2  0  0  0  0
 18 12  1  0  0  0  0
 19 17  1  0  0  0  0
 19 29  1  6  0  0  0
 20 22  2  0  0  0  0
 20 15  1  0  0  0  0
 21 19  1  0  0  0  0
 22 16  1  0  0  0  0
 23 17  1  0  0  0  0
 24 20  1  0  0  0  0
 25 28  1  0  0  0  0
 27 25  1  0  0  0  0
 28 26  2  0  0  0  0
 28 24  1  0  0  0  0
 30 29  1  0  0  0  0
 31 30  2  0  0  0  0
 32 30  1  0  0  0  0
 33  2  1  0  0  0  0
 34 33  1  0  0  0  0
 35 34  1  0  0  0  0
 36 35  1  0  0  0  0
 37 36  1  0  0  0  0
 37 38  1  0  0  0  0
 38 45  1  0  0  0  0
 39 53  1  0  0  0  0
 39 48  1  1  0  0  0
 41 44  1  0  0  0  0
 41 51  1  1  0  0  0
 41 53  1  0  0  0  0
 44 43  1  6  0  0  0
 44 47  1  0  0  0  0
 44 49  1  0  0  0  0
 45 42  1  1  0  0  0
 45 41  1  0  0  0  0
 46 39  1  0  0  0  0
 47 52  1  6  0  0  0
 47 39  1  0  0  0  0
 47 49  1  0  0  0  0
 49 40  1  1  0  0  0
 50 45  1  0  0  0  0
 50 46  1  0  0  0  0
 54 49  1  0  0  0  0
 54 55  1  0  0  0  0
M  END
>  <MODEL>
5

>  <REMARK>
 VINA RESULT:      -6.4      2.716      3.975
  Name = 
  15 active torsions:
  status: ('A' for Active; 'I' for Inactive)
    1  A    between atoms: N_2  and  C_28
    2  A    between atoms: N_2  and  N_44
    3  A    between atoms: C_8  and  O_22
    4  A    between atoms: C_8  and  C_43
    5  A    between atoms: C_10  and  C_32
    6  A    between atoms: C_11  and  C_38
    7  A    between atoms: C_19  and  C_40
    8  A    between atoms: C_19  and  C_45
    9  A    between atoms: C_20  and  O_22
   10  A    between atoms: C_27  and  C_54
   11  A    between atoms: C_28  and  C_49
   12  A    between atoms: C_32  and  C_39
   13  A    between atoms: N_35  and  C_43
   14  A    between atoms: N_35  and  C_51
   15  A    between atoms: C_51  and  C_54
                            x       y       z     vdW  Elec       q    Type
                         _______ _______ _______ _____ _____    ______ ____

>  <TORSDO>
F 15

$$$$
=
 OpenBabel11052419463D

 55 61  0  0  1  0  0  0  0  0999 V2000
  188.8820  176.0090  142.0120 C   0  0  0  0  0  2  0  0  0  0  0  0
  189.4220  174.8000  144.5750 C   0  0  0  0  0  0  0  0  0  0  0  0
  189.8930  174.2120  143.4740 C   0  0  0  0  0  3  0  0  0  0  0  0
  187.9020  176.1910  143.1660 C   0  0  0  0  0  2  0  0  0  0  0  0
  189.6360  174.7620  142.1720 N   0  0  0  0  0  0  0  0  0  0  0  0
  188.6570  176.0890  144.4890 C   0  0  0  0  0  2  0  0  0  0  0  0
  190.0670  174.0780  141.0280 N   0  0  0  0  0  2  0  0  0  0  0  0
  189.3910  172.7880  141.0100 C   0  0  0  0  0  2  0  0  0  0  0  0
  189.9060  170.8100  136.3960 C   0  0  0  0  0  2  0  0  0  0  0  0
  190.7790  171.1810  143.0250 C   0  0  0  0  0  2  0  0  0  0  0  0
  191.5450  168.9690  136.0980 C   0  0  0  0  0  2  0  0  0  0  0  0
  191.4550  170.1820  138.3030 C   0  0  0  0  0  0  0  0  0  0  0  0
  192.2820  169.3250  137.3850 C   0  0  0  0  0  2  0  0  0  0  0  0
  190.9760  170.2330  135.4770 C   0  0  0  0  0  2  0  0  0  0  0  0
  190.3840  170.9600  137.8220 C   0  0  0  0  0  0  0  0  0  0  0  0
  191.1760  171.0590  140.5040 C   0  0  0  0  0  0  0  0  0  0  0  0
  193.0110  170.7470  142.2130 C   0  0  0  0  0  2  0  0  0  0  0  0
  191.8230  170.2710  139.6050 N   0  0  0  0  0  0  0  0  0  0  0  0
  193.0390  170.5870  143.7220 C   0  0  1  0  0  3  0  0  0  0  0  0
  189.6970  171.8020  138.7170 C   0  0  0  0  0  0  0  0  0  0  0  0
  191.6950  171.1010  144.2300 C   0  0  0  0  0  2  0  0  0  0  0  0
  190.0910  171.8540  140.0700 C   0  0  0  0  0  0  0  0  0  0  0  0
  191.6420  171.0760  141.8650 N   0  0  0  0  0  0  0  0  0  0  0  0
  188.5600  172.6530  138.2230 C   0  0  0  0  0  2  0  0  0  0  0  0
  188.1830  174.5350  136.5800 N   0  0  0  0  0  2  0  0  0  0  0  0
  190.2820  174.1490  137.5320 O   0  0  0  0  0  0  0  0  0  0  0  0
  188.6380  175.6510  135.7680 C   0  0  0  0  0  1  0  0  0  0  0  0
  189.0680  173.8180  137.4420 C   0  0  0  0  0  0  0  0  0  0  0  0
  193.2000  169.1130  144.0620 C   0  0  0  0  0  2  0  0  0  0  0  0
  194.4270  168.8900  144.8810 C   0  0  0  0  0  0  0  0  0  0  0  0
  195.4790  168.4620  144.3360 O   0  0  0  0  0  0  0  0  0  0  0  0
  194.4220  169.1860  146.2380 O   0  0  0  0  0  1  0  0  0  0  0  0
  189.6910  174.1840  145.9020 C   0  0  0  0  0  2  0  0  0  0  0  0
  189.5820  175.2340  146.9960 C   0  0  0  0  0  2  0  0  0  0  0  0
  190.8430  175.3470  147.7170 N   0  0  0  0  0  2  0  0  0  0  0  0
  191.6520  176.3720  147.0740 C   0  0  0  0  0  2  0  0  0  0  0  0
  193.0420  175.8370  146.7700 C   0  0  0  0  0  2  0  0  0  0  0  0
  192.9870  175.0480  145.6090 O   0  0  0  0  0  0  0  0  0  0  0  0
  196.1750  175.5720  143.1260 C   0  0  2  0  0  0  0  0  0  0  0  0
  195.7990  172.9210  141.2770 S   0  0  0  0  0  1  0  0  0  0  0  0
  194.1880  174.6700  143.4740 C   0  0  2  0  0  0  0  0  0  0  0  0
  192.9500  176.6830  143.9720 F   0  0  0  0  0  0  0  0  0  0  0  0
  194.9290  172.9700  145.3940 C   0  0  0  0  0  1  0  0  0  0  0  0
  195.1590  173.5970  144.0150 C   0  0  2  0  0  0  0  0  0  0  0  0
  193.7080  175.6800  144.5680 C   0  0  1  0  0  0  0  0  0  0  0  0
  196.0440  176.6910  144.1770 C   0  0  0  0  0  2  0  0  0  0  0  0
  196.5340  174.2170  143.7580 C   0  0  1  0  0  0  0  0  0  0  0  0
  197.2030  175.9700  142.0850 C   0  0  0  0  0  1  0  0  0  0  0  0
  196.1500  172.8910  143.0750 C   0  0  2  0  0  0  0  0  0  0  0  0
  194.9420  176.3580  145.2010 C   0  0  0  0  0  2  0  0  0  0  0  0
  193.1160  174.0630  142.8470 F   0  0  0  0  0  0  0  0  0  0  0  0
  197.5230  174.1760  144.9300 C   0  0  0  0  0  1  0  0  0  0  0  0
  194.9130  175.4190  142.5260 O   0  0  0  0  0  0  0  0  0  0  0  0
  196.8410  171.6340  143.6010 C   0  0  0  0  0  2  0  0  0  0  0  0
  197.3870  170.9110  142.5410 O   0  0  0  0  0  1  0  0  0  0  0  0
  1  5  1  0  0  0  0
  1  4  1  0  0  0  0
  2 33  1  0  0  0  0
  3  2  2  0  0  0  0
  4  6  1  0  0  0  0
  5  3  1  0  0  0  0
  6  2  1  0  0  0  0
  7  5  1  0  0  0  0
  8  7  1  0  0  0  0
  9 15  1  0  0  0  0
 10 21  1  0  0  0  0
 11 13  1  0  0  0  0
 12 18  1  0  0  0  0
 13 12  1  0  0  0  0
 14 11  1  0  0  0  0
 14  9  1  0  0  0  0
 15 12  2  0  0  0  0
 15 20  1  0  0  0  0
 16 23  1  0  0  0  0
 17 19  1  0  0  0  0
 18 16  2  0  0  0  0
 19 29  1  6  0  0  0
 19 21  1  0  0  0  0
 20 22  2  0  0  0  0
 22 16  1  0  0  0  0
 22  8  1  0  0  0  0
 23 17  1  0  0  0  0
 23 10  1  0  0  0  0
 24 20  1  0  0  0  0
 25 28  1  0  0  0  0
 27 25  1  0  0  0  0
 28 26  2  0  0  0  0
 28 24  1  0  0  0  0
 29 30  1  0  0  0  0
 30 32  1  0  0  0  0
 31 30  2  0  0  0  0
 33 34  1  0  0  0  0
 34 35  1  0  0  0  0
 36 35  1  0  0  0  0
 37 36  1  0  0  0  0
 38 37  1  0  0  0  0
 39 48  1  6  0  0  0
 39 47  1  0  0  0  0
 39 46  1  0  0  0  0
 41 51  1  6  0  0  0
 41 44  1  0  0  0  0
 41 45  1  0  0  0  0
 44 43  1  1  0  0  0
 45 42  1  6  0  0  0
 45 50  1  0  0  0  0
 45 38  1  0  0  0  0
 46 50  1  0  0  0  0
 47 44  1  0  0  0  0
 47 52  1  1  0  0  0
 49 40  1  6  0  0  0
 49 54  1  0  0  0  0
 49 47  1  0  0  0  0
 49 44  1  0  0  0  0
 53 39  1  0  0  0  0
 53 41  1  0  0  0  0
 55 54  1  0  0  0  0
M  END
>  <MODEL>
6

>  <REMARK>
 VINA RESULT:      -6.3      2.840      7.285
  Name = 
  15 active torsions:
  status: ('A' for Active; 'I' for Inactive)
    1  A    between atoms: N_2  and  C_28
    2  A    between atoms: N_2  and  N_44
    3  A    between atoms: C_8  and  O_22
    4  A    between atoms: C_8  and  C_43
    5  A    between atoms: C_10  and  C_32
    6  A    between atoms: C_11  and  C_38
    7  A    between atoms: C_19  and  C_40
    8  A    between atoms: C_19  and  C_45
    9  A    between atoms: C_20  and  O_22
   10  A    between atoms: C_27  and  C_54
   11  A    between atoms: C_28  and  C_49
   12  A    between atoms: C_32  and  C_39
   13  A    between atoms: N_35  and  C_43
   14  A    between atoms: N_35  and  C_51
   15  A    between atoms: C_51  and  C_54
                            x       y       z     vdW  Elec       q    Type
                         _______ _______ _______ _____ _____    ______ ____

>  <TORSDO>
F 15

$$$$
=
 OpenBabel11052419463D

 55 61  0  0  1  0  0  0  0  0999 V2000
  190.3300  172.1660  142.2820 C   0  0  0  0  0  2  0  0  0  0  0  0
  189.4900  172.5560  139.5500 C   0  0  0  0  0  0  0  0  0  0  0  0
  188.8860  173.2520  140.5150 C   0  0  0  0  0  3  0  0  0  0  0  0
  190.4550  171.0300  141.2720 C   0  0  0  0  0  2  0  0  0  0  0  0
  189.2520  173.0800  141.8930 N   0  0  0  0  0  0  0  0  0  0  0  0
  190.6140  171.6150  139.8720 C   0  0  0  0  0  2  0  0  0  0  0  0
  188.5420  173.7570  142.8940 N   0  0  0  0  0  2  0  0  0  0  0  0
  188.7510  175.1830  142.6880 C   0  0  0  0  0  2  0  0  0  0  0  0
  185.2040  177.8510  145.0890 C   0  0  0  0  0  2  0  0  0  0  0  0
  191.3760  175.5220  143.9390 C   0  0  0  0  0  2  0  0  0  0  0  0
  185.7950  178.8660  147.2770 C   0  0  0  0  0  2  0  0  0  0  0  0
  187.4250  177.2920  146.1770 C   0  0  0  0  0  0  0  0  0  0  0  0
  186.9850  177.9320  147.4650 C   0  0  0  0  0  2  0  0  0  0  0  0
  184.7060  178.1460  146.4990 C   0  0  0  0  0  2  0  0  0  0  0  0
  186.5520  177.1690  145.0780 C   0  0  0  0  0  0  0  0  0  0  0  0
  189.1340  176.0920  145.0250 C   0  0  0  0  0  0  0  0  0  0  0  0
  191.1100  175.1870  146.3150 C   0  0  0  0  0  2  0  0  0  0  0  0
  188.6620  176.7400  146.1230 N   0  0  0  0  0  0  0  0  0  0  0  0
  192.5710  174.9420  145.9840 C   0  0  1  0  0  3  0  0  0  0  0  0
  186.9960  176.4910  143.9280 C   0  0  0  0  0  0  0  0  0  0  0  0
  192.6630  174.9170  144.4610 C   0  0  0  0  0  2  0  0  0  0  0  0
  188.2980  175.9470  143.8950 C   0  0  0  0  0  0  0  0  0  0  0  0
  190.4660  175.5480  145.0670 N   0  0  0  0  0  0  0  0  0  0  0  0
  186.0780  176.3340  142.7480 C   0  0  0  0  0  2  0  0  0  0  0  0
  186.6000  176.7350  140.3090 N   0  0  0  0  0  2  0  0  0  0  0  0
  186.7300  178.4570  141.8830 O   0  0  0  0  0  0  0  0  0  0  0  0
  187.0260  177.5720  139.1990 C   0  0  0  0  0  1  0  0  0  0  0  0
  186.4790  177.2460  141.6370 C   0  0  0  0  0  0  0  0  0  0  0  0
  193.4050  176.0850  146.5430 C   0  0  0  0  0  2  0  0  0  0  0  0
  194.7240  176.1660  145.8510 C   0  0  0  0  0  0  0  0  0  0  0  0
  195.0580  177.2220  145.2540 O   0  0  0  0  0  0  0  0  0  0  0  0
  195.5990  175.0880  145.8930 O   0  0  0  0  0  1  0  0  0  0  0  0
  189.0630  172.7470  138.1370 C   0  0  0  0  0  2  0  0  0  0  0  0
  188.5550  174.1660  137.9340 C   0  0  0  0  0  2  0  0  0  0  0  0
  188.5770  174.5140  136.5200 N   0  0  0  0  0  2  0  0  0  0  0  0
  189.7120  173.8480  135.8990 C   0  0  0  0  0  2  0  0  0  0  0  0
  190.8700  174.8200  135.7310 C   0  0  0  0  0  2  0  0  0  0  0  0
  192.0800  174.1170  135.8510 O   0  0  0  0  0  0  0  0  0  0  0  0
  195.1060  174.3500  138.5700 C   0  0  2  0  0  0  0  0  0  0  0  0
  197.6170  173.8940  136.5520 S   0  0  0  0  0  1  0  0  0  0  0  0
  194.4440  174.5330  136.4710 C   0  0  2  0  0  0  0  0  0  0  0  0
  192.6790  176.1520  136.7780 F   0  0  0  0  0  0  0  0  0  0  0  0
  193.9190  171.9470  136.0630 C   0  0  0  0  0  1  0  0  0  0  0  0
  194.8520  173.0460  136.5810 C   0  0  2  0  0  0  0  0  0  0  0  0
  192.9280  174.7830  136.7680 C   0  0  1  0  0  0  0  0  0  0  0  0
  193.7130  174.5250  139.2070 C   0  0  0  0  0  2  0  0  0  0  0  0
  195.3250  172.9260  138.0310 C   0  0  1  0  0  0  0  0  0  0  0  0
  196.1760  174.7130  139.5810 C   0  0  0  0  0  1  0  0  0  0  0  0
  196.3090  172.6540  136.8780 C   0  0  2  0  0  0  0  0  0  0  0  0
  192.5990  174.2500  138.1780 C   0  0  0  0  0  2  0  0  0  0  0  0
  194.8000  175.0290  135.2300 F   0  0  0  0  0  0  0  0  0  0  0  0
  194.7780  171.7330  138.8220 C   0  0  0  0  0  1  0  0  0  0  0  0
  195.1680  175.2170  137.4670 O   0  0  0  0  0  0  0  0  0  0  0  0
  196.7010  171.1940  136.6530 C   0  0  0  0  0  2  0  0  0  0  0  0
  197.6900  171.1110  135.6730 O   0  0  0  0  0  1  0  0  0  0  0  0
  2  6  1  0  0  0  0
  2  3  2  0  0  0  0
  3  5  1  0  0  0  0
  4  1  1  0  0  0  0
  5  1  1  0  0  0  0
  5  7  1  0  0  0  0
  6  4  1  0  0  0  0
  8  7  1  0  0  0  0
  8 22  1  0  0  0  0
  9 14  1  0  0  0  0
 10 21  1  0  0  0  0
 10 23  1  0  0  0  0
 11 13  1  0  0  0  0
 12 13  1  0  0  0  0
 14 11  1  0  0  0  0
 15  9  1  0  0  0  0
 15 12  2  0  0  0  0
 16 23  1  0  0  0  0
 16 18  2  0  0  0  0
 18 12  1  0  0  0  0
 19 17  1  0  0  0  0
 19 29  1  6  0  0  0
 20 15  1  0  0  0  0
 21 19  1  0  0  0  0
 22 20  2  0  0  0  0
 22 16  1  0  0  0  0
 23 17  1  0  0  0  0
 24 20  1  0  0  0  0
 25 28  1  0  0  0  0
 27 25  1  0  0  0  0
 28 26  2  0  0  0  0
 28 24  1  0  0  0  0
 30 32  1  0  0  0  0
 30 29  1  0  0  0  0
 31 30  2  0  0  0  0
 33  2  1  0  0  0  0
 34 33  1  0  0  0  0
 35 34  1  0  0  0  0
 36 35  1  0  0  0  0
 37 38  1  0  0  0  0
 37 36  1  0  0  0  0
 38 45  1  0  0  0  0
 39 46  1  0  0  0  0
 39 48  1  1  0  0  0
 41 51  1  6  0  0  0
 41 44  1  0  0  0  0
 41 45  1  0  0  0  0
 41 53  1  0  0  0  0
 44 43  1  6  0  0  0
 44 49  1  0  0  0  0
 44 47  1  0  0  0  0
 45 42  1  6  0  0  0
 45 50  1  0  0  0  0
 47 39  1  0  0  0  0
 47 52  1  1  0  0  0
 49 40  1  6  0  0  0
 49 47  1  0  0  0  0
 50 46  1  0  0  0  0
 53 39  1  0  0  0  0
 54 49  1  0  0  0  0
 55 54  1  0  0  0  0
M  END
>  <MODEL>
7

>  <REMARK>
 VINA RESULT:      -6.1      3.397      4.871
  Name = 
  15 active torsions:
  status: ('A' for Active; 'I' for Inactive)
    1  A    between atoms: N_2  and  C_28
    2  A    between atoms: N_2  and  N_44
    3  A    between atoms: C_8  and  O_22
    4  A    between atoms: C_8  and  C_43
    5  A    between atoms: C_10  and  C_32
    6  A    between atoms: C_11  and  C_38
    7  A    between atoms: C_19  and  C_40
    8  A    between atoms: C_19  and  C_45
    9  A    between atoms: C_20  and  O_22
   10  A    between atoms: C_27  and  C_54
   11  A    between atoms: C_28  and  C_49
   12  A    between atoms: C_32  and  C_39
   13  A    between atoms: N_35  and  C_43
   14  A    between atoms: N_35  and  C_51
   15  A    between atoms: C_51  and  C_54
                            x       y       z     vdW  Elec       q    Type
                         _______ _______ _______ _____ _____    ______ ____

>  <TORSDO>
F 15

$$$$
=
 OpenBabel11052419463D

 55 61  0  0  1  0  0  0  0  0999 V2000
  191.1280  176.6310  143.9520 C   0  0  0  0  0  2  0  0  0  0  0  0
  188.8990  176.1550  142.1840 C   0  0  0  0  0  0  0  0  0  0  0  0
  189.4650  175.1160  142.8020 C   0  0  0  0  0  3  0  0  0  0  0  0
  190.8740  177.5620  142.7710 C   0  0  0  0  0  2  0  0  0  0  0  0
  190.5890  175.2970  143.6770 N   0  0  0  0  0  0  0  0  0  0  0  0
  189.3860  177.5520  142.4310 C   0  0  0  0  0  2  0  0  0  0  0  0
  191.2190  174.1810  144.2440 N   0  0  0  0  0  2  0  0  0  0  0  0
  192.5140  174.0340  143.5950 C   0  0  0  0  0  2  0  0  0  0  0  0
  195.0450  170.4350  146.0660 C   0  0  0  0  0  2  0  0  0  0  0  0
  191.9590  173.2470  140.8310 C   0  0  0  0  0  2  0  0  0  0  0  0
  195.2630  168.2140  144.9790 C   0  0  0  0  0  2  0  0  0  0  0  0
  193.7730  169.9490  143.9270 C   0  0  0  0  0  0  0  0  0  0  0  0
  194.0980  168.4850  144.0350 C   0  0  0  0  0  2  0  0  0  0  0  0
  195.0230  168.9280  146.2970 C   0  0  0  0  0  2  0  0  0  0  0  0
  194.1410  170.8630  144.9340 C   0  0  0  0  0  0  0  0  0  0  0  0
  192.6330  171.6580  142.7150 C   0  0  0  0  0  0  0  0  0  0  0  0
  191.0270  171.0210  140.8710 C   0  0  0  0  0  2  0  0  0  0  0  0
  193.0250  170.3660  142.8760 N   0  0  0  0  0  0  0  0  0  0  0  0
  190.6010  171.6670  139.5650 C   0  0  1  0  0  3  0  0  0  0  0  0
  193.7410  172.2070  144.8140 C   0  0  0  0  0  0  0  0  0  0  0  0
  190.9890  173.1380  139.6720 C   0  0  0  0  0  2  0  0  0  0  0  0
  192.9820  172.6140  143.6960 C   0  0  0  0  0  0  0  0  0  0  0  0
  191.8460  171.9990  141.5590 N   0  0  0  0  0  0  0  0  0  0  0  0
  194.1080  173.1980  145.8830 C   0  0  0  0  0  2  0  0  0  0  0  0
  196.2960  173.5240  144.6630 N   0  0  0  0  0  2  0  0  0  0  0  0
  195.2320  175.2960  145.7520 O   0  0  0  0  0  0  0  0  0  0  0  0
  197.4290  174.3280  144.2340 C   0  0  0  0  0  1  0  0  0  0  0  0
  195.2280  174.0760  145.4320 C   0  0  0  0  0  0  0  0  0  0  0  0
  191.3500  171.0070  138.4170 C   0  0  0  0  0  2  0  0  0  0  0  0
  190.7600  169.6760  138.0960 C   0  0  0  0  0  0  0  0  0  0  0  0
  191.3940  168.6230  138.3690 O   0  0  0  0  0  1  0  0  0  0  0  0
  189.4960  169.5940  137.5250 O   0  0  0  0  0  0  0  0  0  0  0  0
  187.7510  175.9200  141.2670 C   0  0  0  0  0  2  0  0  0  0  0  0
  187.1380  177.2480  140.8500 C   0  0  0  0  0  2  0  0  0  0  0  0
  185.7200  177.2780  141.1830 N   0  0  0  0  0  2  0  0  0  0  0  0
  185.3540  178.6460  141.5180 C   0  0  0  0  0  2  0  0  0  0  0  0
  184.1820  178.6600  142.4860 C   0  0  0  0  0  2  0  0  0  0  0  0
  184.5020  177.8730  143.6050 O   0  0  0  0  0  0  0  0  0  0  0  0
  186.2080  178.6710  147.2170 C   0  0  2  0  0  0  0  0  0  0  0  0
  189.3280  178.2540  146.3910 S   0  0  0  0  0  1  0  0  0  0  0  0
  186.4120  178.5740  145.0200 C   0  0  2  0  0  0  0  0  0  0  0  0
  184.5910  180.0390  144.4140 F   0  0  0  0  0  0  0  0  0  0  0  0
  186.2140  175.9220  144.7870 C   0  0  0  0  0  1  0  0  0  0  0  0
  186.8160  177.1520  145.4720 C   0  0  2  0  0  0  0  0  0  0  0  0
  184.8910  178.7070  144.6800 C   0  0  1  0  0  0  0  0  0  0  0  0
  184.6710  178.7770  147.2450 C   0  0  0  0  0  2  0  0  0  0  0  0
  186.6900  177.2280  146.9950 C   0  0  1  0  0  0  0  0  0  0  0  0
  186.7800  179.2370  148.5030 C   0  0  0  0  0  1  0  0  0  0  0  0
  188.0580  176.9340  146.3520 C   0  0  2  0  0  0  0  0  0  0  0  0
  184.0630  178.2920  145.9140 C   0  0  0  0  0  2  0  0  0  0  0  0
  187.2010  178.9720  143.9560 F   0  0  0  0  0  0  0  0  0  0  0  0
  185.9360  176.0750  147.6680 C   0  0  0  0  0  1  0  0  0  0  0  0
  186.6550  179.4230  146.1170 O   0  0  0  0  0  0  0  0  0  0  0  0
  188.5770  175.5030  146.4890 C   0  0  0  0  0  2  0  0  0  0  0  0
  189.7430  175.4890  147.2530 O   0  0  0  0  0  1  0  0  0  0  0  0
  2  6  1  0  0  0  0
  2  3  2  0  0  0  0
  3  5  1  0  0  0  0
  4  1  1  0  0  0  0
  5  1  1  0  0  0  0
  5  7  1  0  0  0  0
  6  4  1  0  0  0  0
  8 22  1  0  0  0  0
  8  7  1  0  0  0  0
  9 14  1  0  0  0  0
 10 23  1  0  0  0  0
 11 14  1  0  0  0  0
 12 13  1  0  0  0  0
 12 15  1  0  0  0  0
 13 11  1  0  0  0  0
 15  9  1  0  0  0  0
 16 18  1  0  0  0  0
 16 22  2  0  0  0  0
 17 23  1  0  0  0  0
 18 12  2  0  0  0  0
 19 29  1  6  0  0  0
 19 21  1  0  0  0  0
 19 17  1  0  0  0  0
 20 15  2  0  0  0  0
 20 24  1  0  0  0  0
 21 10  1  0  0  0  0
 22 20  1  0  0  0  0
 23 16  1  0  0  0  0
 25 28  1  0  0  0  0
 27 25  1  0  0  0  0
 28 26  2  0  0  0  0
 28 24  1  0  0  0  0
 30 31  1  0  0  0  0
 30 29  1  0  0  0  0
 32 30  2  0  0  0  0
 33  2  1  0  0  0  0
 34 35  1  0  0  0  0
 34 33  1  0  0  0  0
 35 36  1  0  0  0  0
 36 37  1  0  0  0  0
 37 38  1  0  0  0  0
 38 45  1  0  0  0  0
 39 46  1  0  0  0  0
 39 48  1  1  0  0  0
 41 51  1  6  0  0  0
 41 44  1  0  0  0  0
 41 53  1  0  0  0  0
 44 43  1  6  0  0  0
 44 49  1  0  0  0  0
 44 47  1  0  0  0  0
 45 42  1  6  0  0  0
 45 41  1  0  0  0  0
 45 50  1  0  0  0  0
 47 39  1  0  0  0  0
 47 52  1  1  0  0  0
 49 40  1  1  0  0  0
 49 54  1  0  0  0  0
 49 47  1  0  0  0  0
 50 46  1  0  0  0  0
 53 39  1  0  0  0  0
 54 55  1  0  0  0  0
M  END
>  <MODEL>
8

>  <REMARK>
 VINA RESULT:      -6.0      3.755     10.054
  Name = 
  15 active torsions:
  status: ('A' for Active; 'I' for Inactive)
    1  A    between atoms: N_2  and  C_28
    2  A    between atoms: N_2  and  N_44
    3  A    between atoms: C_8  and  O_22
    4  A    between atoms: C_8  and  C_43
    5  A    between atoms: C_10  and  C_32
    6  A    between atoms: C_11  and  C_38
    7  A    between atoms: C_19  and  C_40
    8  A    between atoms: C_19  and  C_45
    9  A    between atoms: C_20  and  O_22
   10  A    between atoms: C_27  and  C_54
   11  A    between atoms: C_28  and  C_49
   12  A    between atoms: C_32  and  C_39
   13  A    between atoms: N_35  and  C_43
   14  A    between atoms: N_35  and  C_51
   15  A    between atoms: C_51  and  C_54
                            x       y       z     vdW  Elec       q    Type
                         _______ _______ _______ _____ _____    ______ ____

>  <TORSDO>
F 15

$$$$
=
 OpenBabel11052419463D

 55 61  0  0  1  0  0  0  0  0999 V2000
  190.1760  175.0050  146.6660 C   0  0  0  0  0  2  0  0  0  0  0  0
  192.7880  176.2270  146.7140 C   0  0  0  0  0  0  0  0  0  0  0  0
  192.4220  175.5320  145.6360 C   0  0  0  0  0  3  0  0  0  0  0  0
  190.9000  175.2140  147.9920 C   0  0  0  0  0  2  0  0  0  0  0  0
  191.1410  174.8870  145.5700 N   0  0  0  0  0  0  0  0  0  0  0  0
  191.8450  176.4060  147.8680 C   0  0  0  0  0  2  0  0  0  0  0  0
  190.8170  174.0900  144.4640 N   0  0  0  0  0  2  0  0  0  0  0  0
  191.3330  174.7580  143.2780 C   0  0  0  0  0  2  0  0  0  0  0  0
  190.9940  172.1500  138.9720 C   0  0  0  0  0  2  0  0  0  0  0  0
  189.2370  176.7920  143.4660 C   0  0  0  0  0  2  0  0  0  0  0  0
  188.9550  172.4540  137.5870 C   0  0  0  0  0  2  0  0  0  0  0  0
  189.0490  173.5040  139.8740 C   0  0  0  0  0  0  0  0  0  0  0  0
  188.1620  173.0250  138.7570 C   0  0  0  0  0  2  0  0  0  0  0  0
  189.9600  171.4400  138.1050 C   0  0  0  0  0  2  0  0  0  0  0  0
  190.3630  173.0210  140.0330 C   0  0  0  0  0  0  0  0  0  0  0  0
  189.2230  174.7960  141.8720 C   0  0  0  0  0  0  0  0  0  0  0  0
  187.1330  175.7340  142.9370 C   0  0  0  0  0  2  0  0  0  0  0  0
  188.5230  174.3470  140.7960 N   0  0  0  0  0  0  0  0  0  0  0  0
  186.8220  176.9800  143.7460 C   0  0  1  0  0  3  0  0  0  0  0  0
  191.1160  173.4480  141.1420 C   0  0  0  0  0  0  0  0  0  0  0  0
  188.1600  177.4900  144.2730 C   0  0  0  0  0  2  0  0  0  0  0  0
  190.5470  174.3440  142.0710 C   0  0  0  0  0  0  0  0  0  0  0  0
  188.5740  175.6960  142.7880 N   0  0  0  0  0  0  0  0  0  0  0  0
  192.5150  172.9350  141.3410 C   0  0  0  0  0  2  0  0  0  0  0  0
  193.5110  170.6440  141.7210 N   0  0  0  0  0  2  0  0  0  0  0  0
  191.5890  171.3420  142.8540 O   0  0  0  0  0  0  0  0  0  0  0  0
  193.5200  169.3240  142.3310 C   0  0  0  0  0  1  0  0  0  0  0  0
  192.5030  171.6090  142.0260 C   0  0  0  0  0  0  0  0  0  0  0  0
  186.1850  178.0180  142.8360 C   0  0  0  0  0  2  0  0  0  0  0  0
  185.2470  178.8900  143.6010 C   0  0  0  0  0  0  0  0  0  0  0  0
  184.1850  178.4090  144.0750 O   0  0  0  0  0  1  0  0  0  0  0  0
  185.5600  180.2260  143.8200 O   0  0  0  0  0  0  0  0  0  0  0  0
  194.1340  176.8600  146.7510 C   0  0  0  0  0  2  0  0  0  0  0  0
  194.7150  176.9320  145.3470 C   0  0  0  0  0  2  0  0  0  0  0  0
  195.4320  175.7040  145.0320 N   0  0  0  0  0  2  0  0  0  0  0  0
  196.1710  175.9070  143.7940 C   0  0  0  0  0  2  0  0  0  0  0  0
  195.5380  175.1140  142.6620 C   0  0  0  0  0  2  0  0  0  0  0  0
  196.5480  174.6520  141.8040 O   0  0  0  0  0  0  0  0  0  0  0  0
  196.7030  175.0600  137.7530 C   0  0  2  0  0  0  0  0  0  0  0  0
  193.8800  173.6250  137.0050 S   0  0  0  0  0  1  0  0  0  0  0  0
  195.4800  174.7830  139.5710 C   0  0  2  0  0  0  0  0  0  0  0  0
  196.2190  176.7170  140.8130 F   0  0  0  0  0  0  0  0  0  0  0  0
  196.3290  172.3240  140.1690 C   0  0  0  0  0  1  0  0  0  0  0  0
  195.8050  173.3340  139.1440 C   0  0  2  0  0  0  0  0  0  0  0  0
  196.5100  175.3760  140.5880 C   0  0  1  0  0  0  0  0  0  0  0  0
  197.9370  175.6520  138.4620 C   0  0  0  0  0  2  0  0  0  0  0  0
  196.6380  173.5280  137.8750 C   0  0  1  0  0  0  0  0  0  0  0  0
  196.7020  175.4830  136.2970 C   0  0  0  0  0  1  0  0  0  0  0  0
  195.2950  172.7790  137.8030 C   0  0  2  0  0  0  0  0  0  0  0  0
  197.9210  175.3140  139.9650 C   0  0  0  0  0  2  0  0  0  0  0  0
  194.1900  174.8500  140.0670 F   0  0  0  0  0  0  0  0  0  0  0  0
  197.9350  172.7150  137.7880 C   0  0  0  0  0  1  0  0  0  0  0  0
  195.5670  175.5690  138.4050 O   0  0  0  0  0  0  0  0  0  0  0  0
  195.3740  171.2670  137.5950 C   0  0  0  0  0  2  0  0  0  0  0  0
  194.1840  170.6660  138.0080 O   0  0  0  0  0  1  0  0  0  0  0  0
  1  4  1  0  0  0  0
  2 33  1  0  0  0  0
  2  6  1  0  0  0  0
  3  2  2  0  0  0  0
  5  3  1  0  0  0  0
  5  1  1  0  0  0  0
  6  4  1  0  0  0  0
  7  5  1  0  0  0  0
  8  7  1  0  0  0  0
  9 15  1  0  0  0  0
 10 21  1  0  0  0  0
 11 14  1  0  0  0  0
 11 13  1  0  0  0  0
 12 15  2  0  0  0  0
 12 18  1  0  0  0  0
 13 12  1  0  0  0  0
 14  9  1  0  0  0  0
 15 20  1  0  0  0  0
 16 22  1  0  0  0  0
 16 23  1  0  0  0  0
 17 19  1  0  0  0  0
 18 16  2  0  0  0  0
 19 29  1  6  0  0  0
 19 21  1  0  0  0  0
 20 24  1  0  0  0  0
 20 22  2  0  0  0  0
 22  8  1  0  0  0  0
 23 17  1  0  0  0  0
 23 10  1  0  0  0  0
 24 28  1  0  0  0  0
 25 28  1  0  0  0  0
 25 27  1  0  0  0  0
 28 26  2  0  0  0  0
 29 30  1  0  0  0  0
 30 32  2  0  0  0  0
 30 31  1  0  0  0  0
 34 33  1  0  0  0  0
 35 34  1  0  0  0  0
 36 35  1  0  0  0  0
 37 36  1  0  0  0  0
 38 37  1  0  0  0  0
 39 48  1  6  0  0  0
 39 47  1  0  0  0  0
 39 53  1  0  0  0  0
 39 46  1  0  0  0  0
 41 51  1  1  0  0  0
 41 45  1  0  0  0  0
 44 41  1  0  0  0  0
 44 43  1  1  0  0  0
 45 42  1  1  0  0  0
 45 38  1  0  0  0  0
 46 50  1  0  0  0  0
 47 52  1  6  0  0  0
 47 44  1  0  0  0  0
 49 40  1  6  0  0  0
 49 47  1  0  0  0  0
 49 44  1  0  0  0  0
 50 45  1  0  0  0  0
 53 41  1  0  0  0  0
 54 49  1  0  0  0  0
 54 55  1  0  0  0  0
M  END
>  <MODEL>
9

>  <REMARK>
 VINA RESULT:      -5.8      3.199      7.611
  Name = 
  15 active torsions:
  status: ('A' for Active; 'I' for Inactive)
    1  A    between atoms: N_2  and  C_28
    2  A    between atoms: N_2  and  N_44
    3  A    between atoms: C_8  and  O_22
    4  A    between atoms: C_8  and  C_43
    5  A    between atoms: C_10  and  C_32
    6  A    between atoms: C_11  and  C_38
    7  A    between atoms: C_19  and  C_40
    8  A    between atoms: C_19  and  C_45
    9  A    between atoms: C_20  and  O_22
   10  A    between atoms: C_27  and  C_54
   11  A    between atoms: C_28  and  C_49
   12  A    between atoms: C_32  and  C_39
   13  A    between atoms: N_35  and  C_43
   14  A    between atoms: N_35  and  C_51
   15  A    between atoms: C_51  and  C_54
                            x       y       z     vdW  Elec       q    Type
                         _______ _______ _______ _____ _____    ______ ____

>  <TORSDO>
F 15

$$$$
