=
 OpenBabel11052419593D

 37 40  0  0  1  0  0  0  0  0999 V2000
  189.6800  174.8860  142.3240 C   0  0  1  0  0  0  0  0  0  0  0  0
  190.3200  173.5660  141.8130 C   0  0  2  0  0  3  0  0  0  0  0  0
  189.5730  171.8260  145.0610 N   0  0  0  0  0  1  0  0  0  0  0  0
  189.9510  172.3840  142.7200 C   0  0  2  0  0  3  0  0  0  0  0  0
  190.4700  172.5460  144.1720 C   0  0  1  0  0  0  0  0  0  0  0  0
  189.4480  174.8560  143.8570 C   0  0  0  0  0  2  0  0  0  0  0  0
  190.5000  174.0260  144.5890 C   0  0  0  0  0  2  0  0  0  0  0  0
  190.2680  171.0390  142.0760 C   0  0  0  0  0  1  0  0  0  0  0  0
  190.5300  175.9540  142.0220 O   0  0  0  0  0  1  0  0  0  0  0  0
  188.3630  175.0610  141.5200 C   0  0  2  0  0  3  0  0  0  0  0  0
  187.6290  176.3690  141.5840 C   0  0  1  0  0  3  0  0  0  0  0  0
  187.2430  175.2550  142.3560 O   0  0  0  0  0  0  0  0  0  0  0  0
  188.2300  177.4450  142.4860 C   0  0  1  0  0  3  0  0  0  0  0  0
  188.7150  178.4980  141.7080 O   0  0  0  0  0  1  0  0  0  0  0  0
  186.5810  178.1150  145.9340 C   0  0  0  0  0  2  0  0  0  0  0  0
  185.9860  178.6520  142.9420 C   0  0  0  0  0  2  0  0  0  0  0  0
  187.4270  177.6670  144.7710 C   0  0  0  0  0  3  0  0  0  0  0  0
  185.5430  179.8120  143.8210 C   0  0  0  0  0  2  0  0  0  0  0  0
  184.3180  177.8600  146.9170 C   0  0  0  0  0  1  0  0  0  0  0  0
  184.6140  179.3330  144.9420 C   0  0  0  0  0  2  0  0  0  0  0  0
  185.0910  178.0520  145.6300 C   0  0  1  0  0  3  0  0  0  0  0  0
  187.2220  177.9560  143.4700 C   0  0  0  0  0  0  0  0  0  0  0  0
  191.9730  173.5380  140.3330 C   0  0  0  0  0  1  0  0  0  0  0  0
  191.7130  173.6750  141.6980 O   0  0  0  0  0  0  0  0  0  0  0  0
  191.8870  171.9800  144.3150 C   0  0  0  0  0  2  0  0  0  0  0  0
  192.7980  172.9810  144.6690 O   0  0  0  0  0  0  0  0  0  0  0  0
  193.8370  172.8540  143.7440 C   0  0  0  0  0  2  0  0  0  0  0  0
  195.0530  173.4560  144.2830 N   0  0  0  0  0  0  0  0  0  0  0  0
  194.5330  175.4800  142.8270 C   0  0  0  0  0  2  0  0  0  0  0  0
  195.0170  174.9190  144.1530 C   0  0  2  0  0  0  0  0  0  0  0  0
  196.4790  176.7790  143.4760 N   0  0  0  0  0  1  0  0  0  0  0  0
  196.0250  175.4400  143.1350 C   0  0  2  0  0  3  0  0  0  0  0  0
  194.8950  175.7050  145.3200 O   0  0  0  0  0  0  0  0  0  0  0  0
  192.9550  175.8990  146.6840 C   0  0  0  0  0  1  0  0  0  0  0  0
  193.5910  176.2130  145.3460 C   0  0  0  0  0  2  0  0  0  0  0  0
  195.2930  173.0310  145.6710 C   0  0  0  0  0  2  0  0  0  0  0  0
  196.7660  172.7860  145.9920 C   0  0  0  0  0  1  0  0  0  0  0  0
  1  9  1  6  0  0  0
  1  6  1  0  0  0  0
  2 24  1  1  0  0  0
  2  1  1  0  0  0  0
  2  4  1  0  0  0  0
  4  8  1  6  0  0  0
  4  5  1  0  0  0  0
  5 25  1  0  0  0  0
  5  7  1  0  0  0  0
  5  3  1  1  0  0  0
  6  7  1  0  0  0  0
 10 11  1  0  0  0  0
 10  1  1  0  0  0  0
 10 12  1  1  0  0  0
 11 12  1  0  0  0  0
 11 13  1  1  0  0  0
 13 14  1  6  0  0  0
 13 22  1  0  0  0  0
 16 22  1  0  0  0  0
 16 18  1  0  0  0  0
 17 15  1  0  0  0  0
 18 20  1  0  0  0  0
 20 21  1  0  0  0  0
 21 15  1  0  0  0  0
 21 19  1  1  0  0  0
 22 17  2  0  0  0  0
 23 24  1  0  0  0  0
 25 26  1  0  0  0  0
 27 28  1  0  0  0  0
 27 26  1  0  0  0  0
 28 36  1  0  0  0  0
 29 32  1  0  0  0  0
 29 30  1  0  0  0  0
 30 28  1  0  0  0  0
 30 33  1  1  0  0  0
 32 31  1  1  0  0  0
 32 30  1  0  0  0  0
 33 35  1  0  0  0  0
 35 34  1  0  0  0  0
 36 37  1  0  0  0  0
M  END
>  <MODEL>
1

>  <REMARK>
 VINA RESULT:      -6.8      0.000      0.000
  Name = 
  12 active torsions:
  status: ('A' for Active; 'I' for Inactive)
    1  A    between atoms: C_1  and  C_20
    2  A    between atoms: C_3  and  C_21
    3  A    between atoms: C_3  and  C_30
    4  A    between atoms: C_5  and  O_23
    5  A    between atoms: C_6  and  O_8
    6  A    between atoms: C_6  and  N_31
    7  A    between atoms: C_7  and  O_27
    8  A    between atoms: C_7  and  N_31
    9  A    between atoms: O_8  and  C_19
   10  A    between atoms: C_10  and  C_26
   11  A    between atoms: C_10  and  O_27
   12  A    between atoms: C_14  and  N_31
                            x       y       z     vdW  Elec       q    Type
                         _______ _______ _______ _____ _____    ______ ____

>  <TORSDO>
F 12

$$$$
=
 OpenBabel11052419593D

 37 40  0  0  1  0  0  0  0  0999 V2000
  192.1550  175.5490  144.9170 C   0  0  1  0  0  0  0  0  0  0  0  0
  191.2880  176.7850  145.2860 C   0  0  2  0  0  3  0  0  0  0  0  0
  189.1090  174.7120  147.5430 N   0  0  0  0  0  1  0  0  0  0  0  0
  190.4050  176.4970  146.5080 C   0  0  2  0  0  3  0  0  0  0  0  0
  189.3880  175.3530  146.2670 C   0  0  1  0  0  0  0  0  0  0  0  0
  191.4790  174.2230  145.3530 C   0  0  0  0  0  2  0  0  0  0  0  0
  189.9540  174.3000  145.2970 C   0  0  0  0  0  2  0  0  0  0  0  0
  189.8070  177.7680  147.1000 C   0  0  0  0  0  1  0  0  0  0  0  0
  192.3440  175.5190  143.5310 O   0  0  0  0  0  1  0  0  0  0  0  0
  193.5320  175.7740  145.5970 C   0  0  2  0  0  3  0  0  0  0  0  0
  194.6500  174.8070  145.3350 C   0  0  1  0  0  3  0  0  0  0  0  0
  193.8620  174.7410  146.5010 O   0  0  0  0  0  0  0  0  0  0  0  0
  194.3300  173.6250  144.4220 C   0  0  1  0  0  3  0  0  0  0  0  0
  194.8980  173.8310  143.1640 O   0  0  0  0  0  1  0  0  0  0  0  0
  194.3090  169.8730  145.4120 C   0  0  0  0  0  2  0  0  0  0  0  0
  196.1570  172.3380  145.7280 C   0  0  0  0  0  2  0  0  0  0  0  0
  194.0040  171.2710  144.9420 C   0  0  0  0  0  3  0  0  0  0  0  0
  196.9540  171.0630  145.4980 C   0  0  0  0  0  2  0  0  0  0  0  0
  194.7720  168.5580  147.4630 C   0  0  0  0  0  1  0  0  0  0  0  0
  196.5700  169.9800  146.5110 C   0  0  0  0  0  2  0  0  0  0  0  0
  195.0610  169.8530  146.7340 C   0  0  1  0  0  3  0  0  0  0  0  0
  194.8270  172.3370  145.0040 C   0  0  0  0  0  0  0  0  0  0  0  0
  191.0690  178.4190  143.8010 C   0  0  0  0  0  1  0  0  0  0  0  0
  190.5030  177.2090  144.2050 O   0  0  0  0  0  0  0  0  0  0  0  0
  188.0820  175.8930  145.6750 C   0  0  0  0  0  2  0  0  0  0  0  0
  187.1510  176.1780  146.6800 O   0  0  0  0  0  0  0  0  0  0  0  0
  186.0210  176.6280  145.9940 C   0  0  0  0  0  2  0  0  0  0  0  0
  186.1510  178.0550  145.7110 N   0  0  0  0  0  0  0  0  0  0  0  0
  185.4260  179.8080  144.0110 C   0  0  0  0  0  2  0  0  0  0  0  0
  185.7380  178.3570  144.3340 C   0  0  2  0  0  0  0  0  0  0  0  0
  183.6920  178.4640  142.9710 N   0  0  0  0  0  1  0  0  0  0  0  0
  184.2880  178.8210  144.2480 C   0  0  2  0  0  3  0  0  0  0  0  0
  186.1440  177.4910  143.2950 O   0  0  0  0  0  0  0  0  0  0  0  0
  187.2420  177.9050  141.2240 C   0  0  0  0  0  1  0  0  0  0  0  0
  187.3060  178.0330  142.7320 C   0  0  0  0  0  2  0  0  0  0  0  0
  185.4200  178.8660  146.6970 C   0  0  0  0  0  2  0  0  0  0  0  0
  186.2920  179.3730  147.8440 C   0  0  0  0  0  1  0  0  0  0  0  0
  1  9  1  6  0  0  0
  1  2  1  0  0  0  0
  1  6  1  0  0  0  0
  1 10  1  0  0  0  0
  2 24  1  6  0  0  0
  2  4  1  0  0  0  0
  4  8  1  6  0  0  0
  5  4  1  0  0  0  0
  5  3  1  1  0  0  0
  7  6  1  0  0  0  0
  7  5  1  0  0  0  0
 10 12  1  1  0  0  0
 11 13  1  6  0  0  0
 11 10  1  0  0  0  0
 11 12  1  0  0  0  0
 13 14  1  6  0  0  0
 13 22  1  0  0  0  0
 15 21  1  0  0  0  0
 17 22  2  0  0  0  0
 17 15  1  0  0  0  0
 18 16  1  0  0  0  0
 18 20  1  0  0  0  0
 20 21  1  0  0  0  0
 21 19  1  6  0  0  0
 22 16  1  0  0  0  0
 23 24  1  0  0  0  0
 25  5  1  0  0  0  0
 25 26  1  0  0  0  0
 27 26  1  0  0  0  0
 28 27  1  0  0  0  0
 28 36  1  0  0  0  0
 29 32  1  0  0  0  0
 29 30  1  0  0  0  0
 30 33  1  6  0  0  0
 30 28  1  0  0  0  0
 32 31  1  6  0  0  0
 32 30  1  0  0  0  0
 34 35  1  0  0  0  0
 35 33  1  0  0  0  0
 36 37  1  0  0  0  0
M  END
>  <MODEL>
2

>  <REMARK>
 VINA RESULT:      -6.3      2.986      9.087
  Name = 
  12 active torsions:
  status: ('A' for Active; 'I' for Inactive)
    1  A    between atoms: C_1  and  C_20
    2  A    between atoms: C_3  and  C_21
    3  A    between atoms: C_3  and  C_30
    4  A    between atoms: C_5  and  O_23
    5  A    between atoms: C_6  and  O_8
    6  A    between atoms: C_6  and  N_31
    7  A    between atoms: C_7  and  O_27
    8  A    between atoms: C_7  and  N_31
    9  A    between atoms: O_8  and  C_19
   10  A    between atoms: C_10  and  C_26
   11  A    between atoms: C_10  and  O_27
   12  A    between atoms: C_14  and  N_31
                            x       y       z     vdW  Elec       q    Type
                         _______ _______ _______ _____ _____    ______ ____

>  <TORSDO>
F 12

$$$$
=
 OpenBabel11052419593D

 37 40  0  0  1  0  0  0  0  0999 V2000
  192.3600  175.0910  145.7970 C   0  0  1  0  0  0  0  0  0  0  0  0
  191.5830  175.8660  144.6960 C   0  0  2  0  0  3  0  0  0  0  0  0
  189.5850  177.7350  147.2760 N   0  0  0  0  0  1  0  0  0  0  0  0
  190.8260  177.0620  145.2900 C   0  0  2  0  0  3  0  0  0  0  0  0
  189.7490  176.6470  146.3240 C   0  0  1  0  0  0  0  0  0  0  0  0
  191.6870  175.2400  147.1860 C   0  0  0  0  0  2  0  0  0  0  0  0
  190.1690  175.3790  147.0870 C   0  0  0  0  0  2  0  0  0  0  0  0
  190.3410  178.0300  144.2160 C   0  0  0  0  0  1  0  0  0  0  0  0
  192.3980  173.7340  145.4620 O   0  0  0  0  0  1  0  0  0  0  0  0
  193.8090  175.6470  145.7680 C   0  0  2  0  0  3  0  0  0  0  0  0
  194.8560  174.9330  144.9620 C   0  0  1  0  0  3  0  0  0  0  0  0
  194.7380  174.7620  146.3560 O   0  0  0  0  0  0  0  0  0  0  0  0
  194.4120  173.6620  144.2410 C   0  0  1  0  0  3  0  0  0  0  0  0
  194.4830  173.8520  142.8600 O   0  0  0  0  0  1  0  0  0  0  0  0
  195.2450  170.1240  145.6010 C   0  0  0  0  0  2  0  0  0  0  0  0
  196.7580  172.6090  144.5380 C   0  0  0  0  0  2  0  0  0  0  0  0
  194.6170  171.4260  145.1760 C   0  0  0  0  0  3  0  0  0  0  0  0
  197.4240  171.3130  144.0980 C   0  0  0  0  0  2  0  0  0  0  0  0
  196.8310  169.1660  147.2500 C   0  0  0  0  0  1  0  0  0  0  0  0
  197.7280  170.4120  145.2990 C   0  0  0  0  0  2  0  0  0  0  0  0
  196.5790  170.3230  146.3070 C   0  0  1  0  0  3  0  0  0  0  0  0
  195.2530  172.4880  144.6420 C   0  0  0  0  0  0  0  0  0  0  0  0
  191.1620  175.0430  142.6790 C   0  0  0  0  0  1  0  0  0  0  0  0
  190.7020  175.0300  143.9970 O   0  0  0  0  0  0  0  0  0  0  0  0
  188.4070  176.3690  145.6370 C   0  0  0  0  0  2  0  0  0  0  0  0
  187.3760  177.1110  146.2220 O   0  0  0  0  0  0  0  0  0  0  0  0
  186.3580  177.1130  145.2660 C   0  0  0  0  0  2  0  0  0  0  0  0
  186.5070  178.2730  144.3910 N   0  0  0  0  0  0  0  0  0  0  0  0
  186.2850  176.4650  142.6100 C   0  0  0  0  0  2  0  0  0  0  0  0
  186.1730  177.9280  143.0020 C   0  0  2  0  0  0  0  0  0  0  0  0
  187.2590  177.7570  140.8000 N   0  0  0  0  0  1  0  0  0  0  0  0
  187.3850  177.4430  142.2140 C   0  0  2  0  0  3  0  0  0  0  0  0
  185.2990  178.7700  142.2810 O   0  0  0  0  0  0  0  0  0  0  0  0
  183.5700  178.2680  140.7240 C   0  0  0  0  0  1  0  0  0  0  0  0
  184.0860  178.0850  142.1360 C   0  0  0  0  0  2  0  0  0  0  0  0
  185.7220  179.4170  144.8790 C   0  0  0  0  0  2  0  0  0  0  0  0
  184.4920  179.0170  145.6920 C   0  0  0  0  0  1  0  0  0  0  0  0
  1  9  1  6  0  0  0
  1  6  1  0  0  0  0
  2 24  1  1  0  0  0
  2  4  1  0  0  0  0
  2  1  1  0  0  0  0
  4  8  1  6  0  0  0
  4  5  1  0  0  0  0
  5  7  1  0  0  0  0
  5  3  1  1  0  0  0
  7  6  1  0  0  0  0
 10  1  1  0  0  0  0
 10 12  1  1  0  0  0
 11 13  1  6  0  0  0
 11 10  1  0  0  0  0
 11 12  1  0  0  0  0
 13 14  1  6  0  0  0
 13 22  1  0  0  0  0
 15 21  1  0  0  0  0
 16 22  1  0  0  0  0
 17 15  1  0  0  0  0
 18 16  1  0  0  0  0
 18 20  1  0  0  0  0
 20 21  1  0  0  0  0
 21 19  1  1  0  0  0
 22 17  2  0  0  0  0
 23 24  1  0  0  0  0
 25 26  1  0  0  0  0
 25  5  1  0  0  0  0
 27 26  1  0  0  0  0
 28 36  1  0  0  0  0
 28 27  1  0  0  0  0
 29 30  1  0  0  0  0
 30 33  1  6  0  0  0
 30 28  1  0  0  0  0
 32 31  1  6  0  0  0
 32 29  1  0  0  0  0
 32 30  1  0  0  0  0
 34 35  1  0  0  0  0
 35 33  1  0  0  0  0
 36 37  1  0  0  0  0
M  END
>  <MODEL>
3

>  <REMARK>
 VINA RESULT:      -6.2      2.929      9.242
  Name = 
  12 active torsions:
  status: ('A' for Active; 'I' for Inactive)
    1  A    between atoms: C_1  and  C_20
    2  A    between atoms: C_3  and  C_21
    3  A    between atoms: C_3  and  C_30
    4  A    between atoms: C_5  and  O_23
    5  A    between atoms: C_6  and  O_8
    6  A    between atoms: C_6  and  N_31
    7  A    between atoms: C_7  and  O_27
    8  A    between atoms: C_7  and  N_31
    9  A    between atoms: O_8  and  C_19
   10  A    between atoms: C_10  and  C_26
   11  A    between atoms: C_10  and  O_27
   12  A    between atoms: C_14  and  N_31
                            x       y       z     vdW  Elec       q    Type
                         _______ _______ _______ _____ _____    ______ ____

>  <TORSDO>
F 12

$$$$
=
 OpenBabel11052419593D

 37 40  0  0  1  0  0  0  0  0999 V2000
  189.7260  174.9040  142.3770 C   0  0  1  0  0  0  0  0  0  0  0  0
  190.4180  173.6170  141.8480 C   0  0  2  0  0  3  0  0  0  0  0  0
  189.5440  171.7360  144.9850 N   0  0  0  0  0  1  0  0  0  0  0  0
  190.0270  172.3940  142.6890 C   0  0  2  0  0  3  0  0  0  0  0  0
  190.4700  172.5070  144.1700 C   0  0  1  0  0  0  0  0  0  0  0  0
  189.4190  174.8090  143.8930 C   0  0  0  0  0  2  0  0  0  0  0  0
  190.4500  173.9700  144.6460 C   0  0  0  0  0  2  0  0  0  0  0  0
  190.4030  171.0820  142.0090 C   0  0  0  0  0  1  0  0  0  0  0  0
  190.5690  175.9990  142.1590 O   0  0  0  0  0  1  0  0  0  0  0  0
  188.4480  175.0870  141.5140 C   0  0  2  0  0  3  0  0  0  0  0  0
  187.7250  176.4030  141.5400 C   0  0  1  0  0  3  0  0  0  0  0  0
  187.2940  175.2970  142.2990 O   0  0  0  0  0  0  0  0  0  0  0  0
  188.2960  177.4780  142.4620 C   0  0  1  0  0  3  0  0  0  0  0  0
  188.7750  178.5470  141.7040 O   0  0  0  0  0  1  0  0  0  0  0  0
  186.5950  178.1000  145.8940 C   0  0  0  0  0  2  0  0  0  0  0  0
  186.0190  178.6290  142.8980 C   0  0  0  0  0  2  0  0  0  0  0  0
  187.4640  177.6750  144.7400 C   0  0  0  0  0  3  0  0  0  0  0  0
  185.5380  179.7770  143.7750 C   0  0  0  0  0  2  0  0  0  0  0  0
  184.3290  177.7880  146.8540 C   0  0  0  0  0  1  0  0  0  0  0  0
  184.6100  179.2730  144.8840 C   0  0  0  0  0  2  0  0  0  0  0  0
  185.1100  178.0010  145.5750 C   0  0  1  0  0  3  0  0  0  0  0  0
  187.2660  177.9620  143.4370 C   0  0  0  0  0  0  0  0  0  0  0  0
  192.1410  173.6920  140.4530 C   0  0  0  0  0  1  0  0  0  0  0  0
  191.8120  173.7560  141.8080 O   0  0  0  0  0  0  0  0  0  0  0  0
  191.8890  171.9610  144.3620 C   0  0  0  0  0  2  0  0  0  0  0  0
  192.6720  172.8420  145.1170 O   0  0  0  0  0  0  0  0  0  0  0  0
  193.8970  172.8840  144.4480 C   0  0  0  0  0  2  0  0  0  0  0  0
  194.9890  172.7500  145.4090 N   0  0  0  0  0  0  0  0  0  0  0  0
  195.3160  170.3320  144.6800 C   0  0  0  0  0  2  0  0  0  0  0  0
  195.9180  171.6890  145.0020 C   0  0  2  0  0  0  0  0  0  0  0  0
  197.3060  169.9230  146.0090 N   0  0  0  0  0  1  0  0  0  0  0  0
  195.9990  170.5600  146.0240 C   0  0  2  0  0  3  0  0  0  0  0  0
  197.1550  172.0490  144.4220 O   0  0  0  0  0  0  0  0  0  0  0  0
  196.9890  173.1050  142.2950 C   0  0  0  0  0  1  0  0  0  0  0  0
  197.0600  171.7930  143.0480 C   0  0  0  0  0  2  0  0  0  0  0  0
  195.6760  174.0340  145.6230 C   0  0  0  0  0  2  0  0  0  0  0  0
  195.0570  175.1970  144.8500 C   0  0  0  0  0  1  0  0  0  0  0  0
  1  9  1  6  0  0  0
  1  6  1  0  0  0  0
  2 24  1  1  0  0  0
  2  1  1  0  0  0  0
  2  4  1  0  0  0  0
  4  8  1  6  0  0  0
  4  5  1  0  0  0  0
  5 25  1  0  0  0  0
  5  7  1  0  0  0  0
  5  3  1  1  0  0  0
  6  7  1  0  0  0  0
 10 11  1  0  0  0  0
 10 12  1  1  0  0  0
 10  1  1  0  0  0  0
 11 12  1  0  0  0  0
 11 13  1  1  0  0  0
 13 14  1  6  0  0  0
 13 22  1  0  0  0  0
 16 22  1  0  0  0  0
 16 18  1  0  0  0  0
 17 15  1  0  0  0  0
 18 20  1  0  0  0  0
 20 21  1  0  0  0  0
 21 15  1  0  0  0  0
 21 19  1  1  0  0  0
 22 17  2  0  0  0  0
 23 24  1  0  0  0  0
 25 26  1  0  0  0  0
 27 26  1  0  0  0  0
 27 28  1  0  0  0  0
 28 36  1  0  0  0  0
 29 30  1  0  0  0  0
 29 32  1  0  0  0  0
 30 33  1  6  0  0  0
 30 28  1  0  0  0  0
 30 32  1  0  0  0  0
 32 31  1  6  0  0  0
 34 35  1  0  0  0  0
 35 33  1  0  0  0  0
 37 36  1  0  0  0  0
M  END
>  <MODEL>
4

>  <REMARK>
 VINA RESULT:      -6.2      1.448      2.559
  Name = 
  12 active torsions:
  status: ('A' for Active; 'I' for Inactive)
    1  A    between atoms: C_1  and  C_20
    2  A    between atoms: C_3  and  C_21
    3  A    between atoms: C_3  and  C_30
    4  A    between atoms: C_5  and  O_23
    5  A    between atoms: C_6  and  O_8
    6  A    between atoms: C_6  and  N_31
    7  A    between atoms: C_7  and  O_27
    8  A    between atoms: C_7  and  N_31
    9  A    between atoms: O_8  and  C_19
   10  A    between atoms: C_10  and  C_26
   11  A    between atoms: C_10  and  O_27
   12  A    between atoms: C_14  and  N_31
                            x       y       z     vdW  Elec       q    Type
                         _______ _______ _______ _____ _____    ______ ____

>  <TORSDO>
F 12

$$$$
=
 OpenBabel11052419593D

 37 40  0  0  1  0  0  0  0  0999 V2000
  191.7160  174.8920  145.1340 C   0  0  1  0  0  0  0  0  0  0  0  0
  193.1690  174.3610  144.9840 C   0  0  2  0  0  3  0  0  0  0  0  0
  193.6910  176.3770  141.8530 N   0  0  0  0  0  1  0  0  0  0  0  0
  193.9600  175.1930  143.9660 C   0  0  2  0  0  3  0  0  0  0  0  0
  193.3620  175.1360  142.5370 C   0  0  1  0  0  0  0  0  0  0  0  0
  191.2250  175.5940  143.8420 C   0  0  0  0  0  2  0  0  0  0  0  0
  191.8320  174.9840  142.5800 C   0  0  0  0  0  2  0  0  0  0  0  0
  195.4590  174.9260  144.0410 C   0  0  0  0  0  1  0  0  0  0  0  0
  190.8630  173.8200  145.4120 O   0  0  0  0  0  1  0  0  0  0  0  0
  191.7340  175.8400  146.3640 C   0  0  2  0  0  3  0  0  0  0  0  0
  190.4640  176.0730  147.1330 C   0  0  1  0  0  3  0  0  0  0  0  0
  190.9370  176.9890  146.1710 O   0  0  0  0  0  0  0  0  0  0  0  0
  189.2130  175.3690  146.6120 C   0  0  1  0  0  3  0  0  0  0  0  0
  188.6950  174.5310  147.6000 O   0  0  0  0  0  1  0  0  0  0  0  0
  186.4820  178.1050  146.9540 C   0  0  0  0  0  2  0  0  0  0  0  0
  187.8310  176.4520  144.7090 C   0  0  0  0  0  2  0  0  0  0  0  0
  187.5220  177.0340  147.1500 C   0  0  0  0  0  3  0  0  0  0  0  0
  187.5400  177.8770  144.2610 C   0  0  0  0  0  2  0  0  0  0  0  0
  184.1890  178.4660  146.0820 C   0  0  0  0  0  1  0  0  0  0  0  0
  186.0650  178.2320  144.4750 C   0  0  0  0  0  2  0  0  0  0  0  0
  185.5130  177.7780  145.8280 C   0  0  1  0  0  3  0  0  0  0  0  0
  188.1730  176.3580  146.1810 C   0  0  0  0  0  0  0  0  0  0  0  0
  194.0010  172.3950  145.5870 C   0  0  0  0  0  1  0  0  0  0  0  0
  193.1910  173.0060  144.6280 O   0  0  0  0  0  0  0  0  0  0  0  0
  193.9370  173.9550  141.7480 C   0  0  0  0  0  2  0  0  0  0  0  0
  192.9600  173.3600  140.9430 O   0  0  0  0  0  0  0  0  0  0  0  0
  193.3540  172.0250  140.8400 C   0  0  0  0  0  2  0  0  0  0  0  0
  192.2650  171.2310  140.2760 N   0  0  0  0  0  0  0  0  0  0  0  0
  192.4220  169.8620  142.4190 C   0  0  0  0  0  2  0  0  0  0  0  0
  191.5650  170.4800  141.3260 C   0  0  2  0  0  0  0  0  0  0  0  0
  190.7730  168.1950  141.7870 N   0  0  0  0  0  1  0  0  0  0  0  0
  191.8850  168.9890  141.2900 C   0  0  2  0  0  3  0  0  0  0  0  0
  190.2140  170.7870  141.6000 O   0  0  0  0  0  0  0  0  0  0  0  0
  189.0080  172.5270  142.6860 C   0  0  0  0  0  1  0  0  0  0  0  0
  190.1950  171.5880  142.7480 C   0  0  0  0  0  2  0  0  0  0  0  0
  191.3460  172.0660  139.4880 C   0  0  0  0  0  2  0  0  0  0  0  0
  190.9450  171.4450  138.1510 C   0  0  0  0  0  1  0  0  0  0  0  0
  1  9  1  1  0  0  0
  1 10  1  0  0  0  0
  2 24  1  6  0  0  0
  2  1  1  0  0  0  0
  4  8  1  6  0  0  0
  4  2  1  0  0  0  0
  5  3  1  6  0  0  0
  5  7  1  0  0  0  0
  5  4  1  0  0  0  0
  6  1  1  0  0  0  0
  7  6  1  0  0  0  0
 10 12  1  6  0  0  0
 10 11  1  0  0  0  0
 11 13  1  6  0  0  0
 12 11  1  0  0  0  0
 13 14  1  1  0  0  0
 15 17  1  0  0  0  0
 16 22  1  0  0  0  0
 18 20  1  0  0  0  0
 18 16  1  0  0  0  0
 20 21  1  0  0  0  0
 21 19  1  1  0  0  0
 21 15  1  0  0  0  0
 22 13  1  0  0  0  0
 22 17  2  0  0  0  0
 24 23  1  0  0  0  0
 25  5  1  0  0  0  0
 26 25  1  0  0  0  0
 27 26  1  0  0  0  0
 28 27  1  0  0  0  0
 28 30  1  0  0  0  0
 30 33  1  1  0  0  0
 30 29  1  0  0  0  0
 32 30  1  0  0  0  0
 32 31  1  1  0  0  0
 32 29  1  0  0  0  0
 33 35  1  0  0  0  0
 34 35  1  0  0  0  0
 36 28  1  0  0  0  0
 37 36  1  0  0  0  0
M  END
>  <MODEL>
5

>  <REMARK>
 VINA RESULT:      -5.9      2.426      5.372
  Name = 
  12 active torsions:
  status: ('A' for Active; 'I' for Inactive)
    1  A    between atoms: C_1  and  C_20
    2  A    between atoms: C_3  and  C_21
    3  A    between atoms: C_3  and  C_30
    4  A    between atoms: C_5  and  O_23
    5  A    between atoms: C_6  and  O_8
    6  A    between atoms: C_6  and  N_31
    7  A    between atoms: C_7  and  O_27
    8  A    between atoms: C_7  and  N_31
    9  A    between atoms: O_8  and  C_19
   10  A    between atoms: C_10  and  C_26
   11  A    between atoms: C_10  and  O_27
   12  A    between atoms: C_14  and  N_31
                            x       y       z     vdW  Elec       q    Type
                         _______ _______ _______ _____ _____    ______ ____

>  <TORSDO>
F 12

$$$$
=
 OpenBabel11052419593D

 37 40  0  0  1  0  0  0  0  0999 V2000
  191.5700  174.9330  145.1350 C   0  0  1  0  0  0  0  0  0  0  0  0
  193.0070  174.3660  144.9590 C   0  0  2  0  0  3  0  0  0  0  0  0
  193.5780  176.4790  141.9020 N   0  0  0  0  0  1  0  0  0  0  0  0
  193.8190  175.2120  143.9690 C   0  0  2  0  0  3  0  0  0  0  0  0
  193.2150  175.2240  142.5410 C   0  0  1  0  0  0  0  0  0  0  0  0
  191.0960  175.6960  143.8710 C   0  0  0  0  0  2  0  0  0  0  0  0
  191.6810  175.1150  142.5850 C   0  0  0  0  0  2  0  0  0  0  0  0
  195.3100  174.8990  144.0280 C   0  0  0  0  0  1  0  0  0  0  0  0
  190.6870  173.8770  145.3770 O   0  0  0  0  0  1  0  0  0  0  0  0
  191.6190  175.8350  146.3980 C   0  0  2  0  0  3  0  0  0  0  0  0
  190.3670  176.0450  147.2020 C   0  0  1  0  0  3  0  0  0  0  0  0
  190.8240  176.9930  146.2640 O   0  0  0  0  0  0  0  0  0  0  0  0
  189.1020  175.3660  146.6820 C   0  0  1  0  0  3  0  0  0  0  0  0
  188.5670  174.5400  147.6720 O   0  0  0  0  0  1  0  0  0  0  0  0
  186.4160  178.1470  147.0220 C   0  0  0  0  0  2  0  0  0  0  0  0
  187.7520  176.4850  144.7770 C   0  0  0  0  0  2  0  0  0  0  0  0
  187.4360  177.0560  147.2190 C   0  0  0  0  0  3  0  0  0  0  0  0
  187.4890  177.9170  144.3360 C   0  0  0  0  0  2  0  0  0  0  0  0
  184.1360  178.5530  146.1370 C   0  0  0  0  0  1  0  0  0  0  0  0
  186.0200  178.2970  144.5420 C   0  0  0  0  0  2  0  0  0  0  0  0
  185.4490  177.8440  145.8870 C   0  0  1  0  0  3  0  0  0  0  0  0
  188.0820  176.3760  146.2500 C   0  0  0  0  0  0  0  0  0  0  0  0
  193.8150  172.3630  145.4640 C   0  0  0  0  0  1  0  0  0  0  0  0
  192.9880  173.0250  144.5540 O   0  0  0  0  0  0  0  0  0  0  0  0
  193.7530  174.0570  141.7080 C   0  0  0  0  0  2  0  0  0  0  0  0
  193.1300  173.9980  140.4570 O   0  0  0  0  0  0  0  0  0  0  0  0
  192.7920  172.6520  140.2950 C   0  0  0  0  0  2  0  0  0  0  0  0
  191.4050  172.4400  140.7010 N   0  0  0  0  0  0  0  0  0  0  0  0
  190.5830  173.4160  138.4970 C   0  0  0  0  0  2  0  0  0  0  0  0
  190.5300  172.3030  139.5290 C   0  0  2  0  0  0  0  0  0  0  0  0
  188.2410  172.8660  138.8210 N   0  0  0  0  0  1  0  0  0  0  0  0
  189.4320  173.3600  139.4940 C   0  0  2  0  0  3  0  0  0  0  0  0
  190.1200  171.0120  139.1300 O   0  0  0  0  0  0  0  0  0  0  0  0
  190.0710  170.0450  136.9560 C   0  0  0  0  0  1  0  0  0  0  0  0
  190.9320  170.6310  138.0540 C   0  0  0  0  0  2  0  0  0  0  0  0
  191.2830  171.2950  141.6170 C   0  0  0  0  0  2  0  0  0  0  0  0
  190.3210  171.5370  142.7780 C   0  0  0  0  0  1  0  0  0  0  0  0
  1  9  1  1  0  0  0
  1 10  1  0  0  0  0
  2 24  1  6  0  0  0
  2  1  1  0  0  0  0
  4  8  1  6  0  0  0
  4  2  1  0  0  0  0
  5  3  1  6  0  0  0
  5  7  1  0  0  0  0
  5  4  1  0  0  0  0
  6  1  1  0  0  0  0
  7  6  1  0  0  0  0
 10 12  1  6  0  0  0
 10 11  1  0  0  0  0
 11 13  1  6  0  0  0
 12 11  1  0  0  0  0
 13 14  1  1  0  0  0
 15 17  1  0  0  0  0
 16 22  1  0  0  0  0
 18 20  1  0  0  0  0
 18 16  1  0  0  0  0
 20 21  1  0  0  0  0
 21 19  1  1  0  0  0
 21 15  1  0  0  0  0
 22 13  1  0  0  0  0
 22 17  2  0  0  0  0
 24 23  1  0  0  0  0
 25  5  1  0  0  0  0
 26 25  1  0  0  0  0
 27 26  1  0  0  0  0
 27 28  1  0  0  0  0
 28 36  1  0  0  0  0
 29 32  1  0  0  0  0
 29 30  1  0  0  0  0
 30 33  1  6  0  0  0
 30 28  1  0  0  0  0
 32 31  1  6  0  0  0
 32 30  1  0  0  0  0
 34 35  1  0  0  0  0
 35 33  1  0  0  0  0
 36 37  1  0  0  0  0
M  END
>  <MODEL>
6

>  <REMARK>
 VINA RESULT:      -5.8      2.681      5.643
  Name = 
  12 active torsions:
  status: ('A' for Active; 'I' for Inactive)
    1  A    between atoms: C_1  and  C_20
    2  A    between atoms: C_3  and  C_21
    3  A    between atoms: C_3  and  C_30
    4  A    between atoms: C_5  and  O_23
    5  A    between atoms: C_6  and  O_8
    6  A    between atoms: C_6  and  N_31
    7  A    between atoms: C_7  and  O_27
    8  A    between atoms: C_7  and  N_31
    9  A    between atoms: O_8  and  C_19
   10  A    between atoms: C_10  and  C_26
   11  A    between atoms: C_10  and  O_27
   12  A    between atoms: C_14  and  N_31
                            x       y       z     vdW  Elec       q    Type
                         _______ _______ _______ _____ _____    ______ ____

>  <TORSDO>
F 12

$$$$
=
 OpenBabel11052419593D

 37 40  0  0  1  0  0  0  0  0999 V2000
  192.2820  175.6390  144.7310 C   0  0  1  0  0  0  0  0  0  0  0  0
  191.4050  176.8200  145.2320 C   0  0  2  0  0  3  0  0  0  0  0  0
  189.2820  174.5000  147.2950 N   0  0  0  0  0  1  0  0  0  0  0  0
  190.5410  176.3980  146.4290 C   0  0  2  0  0  3  0  0  0  0  0  0
  189.5360  175.2690  146.0860 C   0  0  1  0  0  0  0  0  0  0  0  0
  191.6290  174.2670  145.0400 C   0  0  0  0  0  2  0  0  0  0  0  0
  190.1040  174.3270  145.0100 C   0  0  0  0  0  2  0  0  0  0  0  0
  189.9340  177.5940  147.1530 C   0  0  0  0  0  1  0  0  0  0  0  0
  192.4540  175.7510  143.3480 O   0  0  0  0  0  1  0  0  0  0  0  0
  193.6650  175.8150  145.4150 C   0  0  2  0  0  3  0  0  0  0  0  0
  194.7240  174.7690  145.2150 C   0  0  1  0  0  3  0  0  0  0  0  0
  193.9230  174.8120  146.3740 O   0  0  0  0  0  0  0  0  0  0  0  0
  194.3390  173.5630  144.3600 C   0  0  1  0  0  3  0  0  0  0  0  0
  194.8540  173.7130  143.0710 O   0  0  0  0  0  1  0  0  0  0  0  0
  194.3280  169.8230  145.3950 C   0  0  0  0  0  2  0  0  0  0  0  0
  196.1540  172.3040  145.7100 C   0  0  0  0  0  2  0  0  0  0  0  0
  194.0210  171.2130  144.9030 C   0  0  0  0  0  3  0  0  0  0  0  0
  196.9630  171.0310  145.5070 C   0  0  0  0  0  2  0  0  0  0  0  0
  194.7680  168.5370  147.4690 C   0  0  0  0  0  1  0  0  0  0  0  0
  196.5710  169.9590  146.5270 C   0  0  0  0  0  2  0  0  0  0  0  0
  195.0600  169.8240  146.7290 C   0  0  1  0  0  3  0  0  0  0  0  0
  194.8360  172.2860  144.9660 C   0  0  0  0  0  0  0  0  0  0  0  0
  191.1460  178.5900  143.9210 C   0  0  0  0  0  1  0  0  0  0  0  0
  190.6000  177.3380  144.2090 O   0  0  0  0  0  0  0  0  0  0  0  0
  188.2160  175.8480  145.5670 C   0  0  0  0  0  2  0  0  0  0  0  0
  188.1620  175.8120  144.1690 O   0  0  0  0  0  0  0  0  0  0  0  0
  186.7990  175.7900  143.8700 C   0  0  0  0  0  2  0  0  0  0  0  0
  186.4420  176.9850  143.1080 N   0  0  0  0  0  0  0  0  0  0  0  0
  184.3010  178.3220  143.4460 C   0  0  0  0  0  2  0  0  0  0  0  0
  185.6830  177.9290  143.9390 C   0  0  2  0  0  0  0  0  0  0  0  0
  185.3790  180.3550  144.2200 N   0  0  0  0  0  1  0  0  0  0  0  0
  185.4750  179.2750  143.2520 C   0  0  2  0  0  3  0  0  0  0  0  0
  185.9710  178.0090  145.3190 O   0  0  0  0  0  0  0  0  0  0  0  0
  184.5580  178.3940  147.1950 C   0  0  0  0  0  1  0  0  0  0  0  0
  184.8590  177.5060  146.0060 C   0  0  0  0  0  2  0  0  0  0  0  0
  187.6290  177.6110  142.5050 C   0  0  0  0  0  2  0  0  0  0  0  0
  187.7330  177.4030  140.9960 C   0  0  0  0  0  1  0  0  0  0  0  0
  1  9  1  6  0  0  0
  1  6  1  0  0  0  0
  1  2  1  0  0  0  0
  1 10  1  0  0  0  0
  2 24  1  6  0  0  0
  2  4  1  0  0  0  0
  4  8  1  6  0  0  0
  5  4  1  0  0  0  0
  5  3  1  1  0  0  0
  7  6  1  0  0  0  0
  7  5  1  0  0  0  0
 10 12  1  1  0  0  0
 11 13  1  6  0  0  0
 11 10  1  0  0  0  0
 11 12  1  0  0  0  0
 13 14  1  6  0  0  0
 13 22  1  0  0  0  0
 15 21  1  0  0  0  0
 17 22  2  0  0  0  0
 17 15  1  0  0  0  0
 18 16  1  0  0  0  0
 18 20  1  0  0  0  0
 20 21  1  0  0  0  0
 21 19  1  6  0  0  0
 22 16  1  0  0  0  0
 23 24  1  0  0  0  0
 25  5  1  0  0  0  0
 26 25  1  0  0  0  0
 27 26  1  0  0  0  0
 28 27  1  0  0  0  0
 28 30  1  0  0  0  0
 29 30  1  0  0  0  0
 30 33  1  1  0  0  0
 32 29  1  0  0  0  0
 32 30  1  0  0  0  0
 32 31  1  1  0  0  0
 33 35  1  0  0  0  0
 35 34  1  0  0  0  0
 36 28  1  0  0  0  0
 37 36  1  0  0  0  0
M  END
>  <MODEL>
7

>  <REMARK>
 VINA RESULT:      -5.6      2.926      8.889
  Name = 
  12 active torsions:
  status: ('A' for Active; 'I' for Inactive)
    1  A    between atoms: C_1  and  C_20
    2  A    between atoms: C_3  and  C_21
    3  A    between atoms: C_3  and  C_30
    4  A    between atoms: C_5  and  O_23
    5  A    between atoms: C_6  and  O_8
    6  A    between atoms: C_6  and  N_31
    7  A    between atoms: C_7  and  O_27
    8  A    between atoms: C_7  and  N_31
    9  A    between atoms: O_8  and  C_19
   10  A    between atoms: C_10  and  C_26
   11  A    between atoms: C_10  and  O_27
   12  A    between atoms: C_14  and  N_31
                            x       y       z     vdW  Elec       q    Type
                         _______ _______ _______ _____ _____    ______ ____

>  <TORSDO>
F 12

$$$$
=
 OpenBabel11052419593D

 37 40  0  0  1  0  0  0  0  0999 V2000
  191.1230  174.6970  144.5030 C   0  0  1  0  0  0  0  0  0  0  0  0
  192.2050  174.4160  143.4220 C   0  0  2  0  0  3  0  0  0  0  0  0
  189.5950  174.1740  140.7260 N   0  0  0  0  0  1  0  0  0  0  0  0
  191.6280  174.5720  142.0080 C   0  0  2  0  0  3  0  0  0  0  0  0
  190.4870  173.5690  141.7030 C   0  0  1  0  0  0  0  0  0  0  0  0
  189.6970  174.3860  143.9810 C   0  0  0  0  0  2  0  0  0  0  0  0
  189.6820  173.2390  142.9720 C   0  0  0  0  0  2  0  0  0  0  0  0
  192.7180  174.6410  140.9440 C   0  0  0  0  0  1  0  0  0  0  0  0
  191.3740  173.8970  145.6210 O   0  0  0  0  0  1  0  0  0  0  0  0
  191.3040  176.1850  144.9100 C   0  0  2  0  0  3  0  0  0  0  0  0
  190.2510  176.8510  145.7490 C   0  0  1  0  0  3  0  0  0  0  0  0
  190.3130  177.0210  144.3510 O   0  0  0  0  0  0  0  0  0  0  0  0
  189.0350  176.0040  146.1170 C   0  0  1  0  0  3  0  0  0  0  0  0
  189.2000  175.4680  147.3950 O   0  0  0  0  0  1  0  0  0  0  0  0
  185.6480  177.2980  144.7350 C   0  0  0  0  0  2  0  0  0  0  0  0
  187.5250  177.8430  147.1360 C   0  0  0  0  0  2  0  0  0  0  0  0
  186.9790  176.6400  144.9820 C   0  0  0  0  0  3  0  0  0  0  0  0
  186.0590  177.9400  147.5340 C   0  0  0  0  0  2  0  0  0  0  0  0
  184.6090  179.5130  144.3220 C   0  0  0  0  0  1  0  0  0  0  0  0
  185.3050  178.9190  146.6290 C   0  0  0  0  0  2  0  0  0  0  0  0
  185.6370  178.7640  145.1430 C   0  0  1  0  0  3  0  0  0  0  0  0
  187.7730  176.8100  146.0580 C   0  0  0  0  0  0  0  0  0  0  0  0
  194.1230  173.3900  143.8540 C   0  0  0  0  0  1  0  0  0  0  0  0
  192.7760  173.1460  143.5790 O   0  0  0  0  0  0  0  0  0  0  0  0
  191.0440  172.2580  141.1380 C   0  0  0  0  0  2  0  0  0  0  0  0
  190.1150  171.6330  140.2990 O   0  0  0  0  0  0  0  0  0  0  0  0
  190.8510  171.2610  139.1730 C   0  0  0  0  0  2  0  0  0  0  0  0
  190.0250  171.3980  137.9760 N   0  0  0  0  0  0  0  0  0  0  0  0
  191.1720  173.6300  137.5390 C   0  0  0  0  0  2  0  0  0  0  0  0
  190.6530  172.3060  137.0070 C   0  0  2  0  0  0  0  0  0  0  0  0
  190.0320  174.1070  135.4480 N   0  0  0  0  0  1  0  0  0  0  0  0
  189.8440  173.5800  136.7910 C   0  0  2  0  0  3  0  0  0  0  0  0
  191.2240  171.7630  135.8340 O   0  0  0  0  0  0  0  0  0  0  0  0
  193.2160  170.5430  136.2920 C   0  0  0  0  0  1  0  0  0  0  0  0
  192.6140  171.8900  135.9510 C   0  0  0  0  0  2  0  0  0  0  0  0
  189.7150  170.0870  137.3850 C   0  0  0  0  0  2  0  0  0  0  0  0
  190.3550  168.9140  138.1240 C   0  0  0  0  0  1  0  0  0  0  0  0
  1 10  1  0  0  0  0
  1  9  1  1  0  0  0
  2 24  1  6  0  0  0
  2  1  1  0  0  0  0
  4  8  1  6  0  0  0
  4  2  1  0  0  0  0
  5  3  1  6  0  0  0
  5  4  1  0  0  0  0
  5  7  1  0  0  0  0
  6  1  1  0  0  0  0
  7  6  1  0  0  0  0
 10 12  1  6  0  0  0
 10 11  1  0  0  0  0
 11 13  1  6  0  0  0
 12 11  1  0  0  0  0
 13 14  1  1  0  0  0
 15 17  1  0  0  0  0
 15 21  1  0  0  0  0
 16 18  1  0  0  0  0
 17 22  2  0  0  0  0
 20 18  1  0  0  0  0
 21 19  1  6  0  0  0
 21 20  1  0  0  0  0
 22 13  1  0  0  0  0
 22 16  1  0  0  0  0
 24 23  1  0  0  0  0
 25  5  1  0  0  0  0
 26 25  1  0  0  0  0
 27 26  1  0  0  0  0
 28 27  1  0  0  0  0
 30 33  1  6  0  0  0
 30 29  1  0  0  0  0
 30 28  1  0  0  0  0
 32 31  1  6  0  0  0
 32 30  1  0  0  0  0
 32 29  1  0  0  0  0
 33 35  1  0  0  0  0
 35 34  1  0  0  0  0
 36 28  1  0  0  0  0
 36 37  1  0  0  0  0
M  END
>  <MODEL>
8

>  <REMARK>
 VINA RESULT:      -5.5      3.475      6.036
  Name = 
  12 active torsions:
  status: ('A' for Active; 'I' for Inactive)
    1  A    between atoms: C_1  and  C_20
    2  A    between atoms: C_3  and  C_21
    3  A    between atoms: C_3  and  C_30
    4  A    between atoms: C_5  and  O_23
    5  A    between atoms: C_6  and  O_8
    6  A    between atoms: C_6  and  N_31
    7  A    between atoms: C_7  and  O_27
    8  A    between atoms: C_7  and  N_31
    9  A    between atoms: O_8  and  C_19
   10  A    between atoms: C_10  and  C_26
   11  A    between atoms: C_10  and  O_27
   12  A    between atoms: C_14  and  N_31
                            x       y       z     vdW  Elec       q    Type
                         _______ _______ _______ _____ _____    ______ ____

>  <TORSDO>
F 12

$$$$
=
 OpenBabel11052419593D

 37 40  0  0  1  0  0  0  0  0999 V2000
  189.4660  174.0860  142.5740 C   0  0  1  0  0  0  0  0  0  0  0  0
  190.7930  174.5090  141.8840 C   0  0  2  0  0  3  0  0  0  0  0  0
  191.5910  170.9420  141.0020 N   0  0  0  0  0  1  0  0  0  0  0  0
  191.3610  173.3680  141.0300 C   0  0  2  0  0  3  0  0  0  0  0  0
  191.7240  172.1090  141.8590 C   0  0  1  0  0  0  0  0  0  0  0  0
  189.4050  172.5550  142.8090 C   0  0  0  0  0  2  0  0  0  0  0  0
  190.7830  171.9480  143.0660 C   0  0  0  0  0  2  0  0  0  0  0  0
  192.4560  173.8440  140.0820 C   0  0  0  0  0  1  0  0  0  0  0  0
  189.3660  174.7330  143.8100 O   0  0  0  0  0  1  0  0  0  0  0  0
  188.3250  174.6000  141.6550 C   0  0  2  0  0  3  0  0  0  0  0  0
  187.8380  176.0130  141.8040 C   0  0  1  0  0  3  0  0  0  0  0  0
  187.1550  174.9210  142.3760 O   0  0  0  0  0  0  0  0  0  0  0  0
  188.4960  176.8480  142.9000 C   0  0  1  0  0  3  0  0  0  0  0  0
  189.3900  177.7570  142.3310 O   0  0  0  0  0  1  0  0  0  0  0  0
  186.7020  178.1860  146.0700 C   0  0  0  0  0  2  0  0  0  0  0  0
  186.3250  178.2540  142.9970 C   0  0  0  0  0  2  0  0  0  0  0  0
  187.5790  177.4980  145.0570 C   0  0  0  0  0  3  0  0  0  0  0  0
  185.9180  179.5700  143.6430 C   0  0  0  0  0  2  0  0  0  0  0  0
  184.3730  178.2430  146.9210 C   0  0  0  0  0  1  0  0  0  0  0  0
  184.8920  179.3440  144.7590 C   0  0  0  0  0  2  0  0  0  0  0  0
  185.2320  178.1670  145.6770 C   0  0  1  0  0  3  0  0  0  0  0  0
  187.4730  177.5780  143.7160 C   0  0  0  0  0  0  0  0  0  0  0  0
  192.1350  176.2070  142.3700 C   0  0  0  0  0  1  0  0  0  0  0  0
  191.7470  174.9420  142.8150 O   0  0  0  0  0  0  0  0  0  0  0  0
  193.1620  172.1920  142.3820 C   0  0  0  0  0  2  0  0  0  0  0  0
  193.3410  171.3720  143.5010 O   0  0  0  0  0  0  0  0  0  0  0  0
  194.6510  170.9020  143.3860 C   0  0  0  0  0  2  0  0  0  0  0  0
  195.3670  171.1260  144.6400 N   0  0  0  0  0  0  0  0  0  0  0  0
  196.3780  173.1650  143.4970 C   0  0  0  0  0  2  0  0  0  0  0  0
  195.8090  172.5230  144.7500 C   0  0  2  0  0  0  0  0  0  0  0  0
  197.8200  173.8130  145.3400 N   0  0  0  0  0  1  0  0  0  0  0  0
  197.3180  172.6720  144.5910 C   0  0  2  0  0  3  0  0  0  0  0  0
  195.2360  173.3430  145.7460 O   0  0  0  0  0  0  0  0  0  0  0  0
  193.1540  174.4810  145.9370 C   0  0  0  0  0  1  0  0  0  0  0  0
  194.3960  174.2580  145.1000 C   0  0  0  0  0  2  0  0  0  0  0  0
  194.5630  170.7090  145.7990 C   0  0  0  0  0  2  0  0  0  0  0  0
  194.9510  169.3400  146.3550 C   0  0  0  0  0  1  0  0  0  0  0  0
  1  6  1  0  0  0  0
  1  9  1  1  0  0  0
  2  1  1  0  0  0  0
  2 24  1  1  0  0  0
  4  8  1  1  0  0  0
  4  5  1  0  0  0  0
  4  2  1  0  0  0  0
  5  3  1  6  0  0  0
  5 25  1  0  0  0  0
  5  7  1  0  0  0  0
  6  7  1  0  0  0  0
 10 11  1  0  0  0  0
 10 12  1  1  0  0  0
 10  1  1  0  0  0  0
 11 12  1  0  0  0  0
 11 13  1  1  0  0  0
 13 14  1  6  0  0  0
 13 22  1  0  0  0  0
 16 18  1  0  0  0  0
 16 22  1  0  0  0  0
 17 15  1  0  0  0  0
 18 20  1  0  0  0  0
 20 21  1  0  0  0  0
 21 15  1  0  0  0  0
 21 19  1  1  0  0  0
 22 17  2  0  0  0  0
 23 24  1  0  0  0  0
 25 26  1  0  0  0  0
 27 26  1  0  0  0  0
 27 28  1  0  0  0  0
 28 30  1  0  0  0  0
 28 36  1  0  0  0  0
 29 32  1  0  0  0  0
 29 30  1  0  0  0  0
 30 33  1  1  0  0  0
 32 30  1  0  0  0  0
 32 31  1  1  0  0  0
 35 33  1  0  0  0  0
 35 34  1  0  0  0  0
 36 37  1  0  0  0  0
M  END
>  <MODEL>
9

>  <REMARK>
 VINA RESULT:      -5.4      1.754      2.239
  Name = 
  12 active torsions:
  status: ('A' for Active; 'I' for Inactive)
    1  A    between atoms: C_1  and  C_20
    2  A    between atoms: C_3  and  C_21
    3  A    between atoms: C_3  and  C_30
    4  A    between atoms: C_5  and  O_23
    5  A    between atoms: C_6  and  O_8
    6  A    between atoms: C_6  and  N_31
    7  A    between atoms: C_7  and  O_27
    8  A    between atoms: C_7  and  N_31
    9  A    between atoms: O_8  and  C_19
   10  A    between atoms: C_10  and  C_26
   11  A    between atoms: C_10  and  O_27
   12  A    between atoms: C_14  and  N_31
                            x       y       z     vdW  Elec       q    Type
                         _______ _______ _______ _____ _____    ______ ____

>  <TORSDO>
F 12

$$$$
