=
 OpenBabel11052418283D

 27 31  0  0  1  0  0  0  0  0999 V2000
  186.3970  179.0520  142.8550 O   0  0  0  0  0  0  0  0  0  0  0  0
  184.9070  177.8390  140.0190 C   0  0  0  0  0  3  0  0  0  0  0  0
  183.6740  178.2430  140.3460 C   0  0  0  0  0  3  0  0  0  0  0  0
  186.5260  177.8470  143.5840 C   0  0  2  0  0  0  0  0  0  0  0  0
  185.5690  177.9800  142.4530 C   0  0  1  0  0  0  0  0  0  0  0  0
  187.1830  177.8550  140.6370 F   0  0  0  0  0  0  0  0  0  0  0  0
  183.2520  178.3910  141.7510 C   0  0  0  0  0  3  0  0  0  0  0  0
  184.1240  178.2590  142.7500 C   0  0  0  0  0  3  0  0  0  0  0  0
  185.9280  177.4430  141.0520 C   0  0  2  0  0  3  0  0  0  0  0  0
  185.2350  178.0590  147.6830 C   0  0  0  0  0  3  0  0  0  0  0  0
  186.0490  177.9330  145.0060 C   0  0  0  0  0  0  0  0  0  0  0  0
  185.6760  176.7660  145.6840 C   0  0  0  0  0  3  0  0  0  0  0  0
  185.2670  176.8300  147.0190 C   0  0  0  0  0  3  0  0  0  0  0  0
  185.6170  179.2260  147.0130 C   0  0  0  0  0  3  0  0  0  0  0  0
  186.0270  179.1640  145.6790 C   0  0  0  0  0  3  0  0  0  0  0  0
  187.7820  177.1500  143.3100 N   0  0  0  0  0  2  0  0  0  0  0  0
  189.9100  178.1090  142.5900 C   0  0  0  0  0  3  0  0  0  0  0  0
  190.0660  176.3630  146.9850 C   0  0  0  0  0  3  0  0  0  0  0  0
  192.2180  175.3760  147.4740 O   0  0  0  0  0  1  0  0  0  0  0  0
  188.8950  177.9900  143.7360 C   0  0  2  0  0  3  0  0  0  0  0  0
  191.8090  176.3330  145.2850 C   0  0  0  0  0  0  0  0  0  0  0  0
  193.0970  176.0040  144.8740 O   0  0  0  0  0  1  0  0  0  0  0  0
  190.9280  176.9820  144.4140 C   0  0  0  0  0  0  0  0  0  0  0  0
  191.3690  176.0220  146.5820 C   0  0  0  0  0  0  0  0  0  0  0  0
  189.6560  177.3080  144.8090 C   0  0  0  0  0  0  0  0  0  0  0  0
  191.2010  177.4000  143.0230 C   0  0  0  0  0  3  0  0  0  0  0  0
  189.1980  177.0120  146.0950 C   0  0  0  0  0  3  0  0  0  0  0  0
  1  4  1  0  0  0  0
  2  3  2  0  0  0  0
  2  9  1  0  0  0  0
  3  7  1  0  0  0  0
  4 16  1  6  0  0  0
  4 11  1  0  0  0  0
  5  8  1  1  0  0  0
  5  1  1  0  0  0  0
  5  4  1  0  0  0  0
  7  8  2  0  0  0  0
  9  6  1  6  0  0  0
  9  5  1  0  0  0  0
 11 15  2  0  0  0  0
 11 12  1  0  0  0  0
 12 13  2  0  0  0  0
 13 10  1  0  0  0  0
 14 10  2  0  0  0  0
 15 14  1  0  0  0  0
 17 26  2  0  0  0  0
 17 20  1  0  0  0  0
 20 16  1  6  0  0  0
 20 25  1  0  0  0  0
 21 24  2  0  0  0  0
 22 21  1  0  0  0  0
 23 25  2  0  0  0  0
 23 21  1  0  0  0  0
 24 18  1  0  0  0  0
 24 19  1  0  0  0  0
 25 27  1  0  0  0  0
 26 23  1  0  0  0  0
 27 18  2  0  0  0  0
M  END
>  <MODEL>
1

>  <REMARK>
 VINA RESULT:      -8.4      0.000      0.000
  Name = 
  3 active torsions:
  status: ('A' for Active; 'I' for Inactive)
    1  A    between atoms: N_2  and  C_6
    2  A    between atoms: N_2  and  C_15
    3  A    between atoms: C_9  and  C_15
                            x       y       z     vdW  Elec       q    Type
                         _______ _______ _______ _____ _____    ______ ____

>  <TORSDO>
F 3

$$$$
=
 OpenBabel11052418283D

 27 31  0  0  1  0  0  0  0  0999 V2000
  187.6720  177.9510  144.6210 O   0  0  0  0  0  0  0  0  0  0  0  0
  184.3320  178.4200  145.2250 C   0  0  0  0  0  3  0  0  0  0  0  0
  184.5060  179.0430  146.3960 C   0  0  0  0  0  3  0  0  0  0  0  0
  187.7850  176.5880  144.9800 C   0  0  2  0  0  0  0  0  0  0  0  0
  186.6460  177.4280  145.4400 C   0  0  1  0  0  0  0  0  0  0  0  0
  185.4080  177.4820  143.3460 F   0  0  0  0  0  0  0  0  0  0  0  0
  185.6820  178.7830  147.2470 C   0  0  0  0  0  3  0  0  0  0  0  0
  186.6880  178.0200  146.8190 C   0  0  0  0  0  3  0  0  0  0  0  0
  185.2830  177.3670  144.7210 C   0  0  2  0  0  3  0  0  0  0  0  0
  191.0990  175.6550  147.5610 C   0  0  0  0  0  3  0  0  0  0  0  0
  188.9340  176.2860  145.8990 C   0  0  0  0  0  0  0  0  0  0  0  0
  188.8620  175.1840  146.7600 C   0  0  0  0  0  3  0  0  0  0  0  0
  189.9420  174.8720  147.5910 C   0  0  0  0  0  3  0  0  0  0  0  0
  191.1780  176.7510  146.6960 C   0  0  0  0  0  3  0  0  0  0  0  0
  190.1010  177.0640  145.8630 C   0  0  0  0  0  3  0  0  0  0  0  0
  187.5300  175.6840  143.8600 N   0  0  0  0  0  2  0  0  0  0  0  0
  188.2850  176.0730  141.5710 C   0  0  0  0  0  3  0  0  0  0  0  0
  190.1270  172.1550  143.4790 C   0  0  0  0  0  3  0  0  0  0  0  0
  190.3890  170.4020  141.8350 O   0  0  0  0  0  1  0  0  0  0  0  0
  188.6990  175.6610  142.9900 C   0  0  2  0  0  3  0  0  0  0  0  0
  189.4380  172.5330  141.1740 C   0  0  0  0  0  0  0  0  0  0  0  0
  189.2950  172.0890  139.8640 O   0  0  0  0  0  1  0  0  0  0  0  0
  189.0420  173.8230  141.5370 C   0  0  0  0  0  0  0  0  0  0  0  0
  189.9850  171.6930  142.1590 C   0  0  0  0  0  0  0  0  0  0  0  0
  189.1770  174.2690  142.8270 C   0  0  0  0  0  0  0  0  0  0  0  0
  188.4570  174.8540  140.6530 C   0  0  0  0  0  3  0  0  0  0  0  0
  189.7220  173.4530  143.8210 C   0  0  0  0  0  3  0  0  0  0  0  0
  1  4  1  0  0  0  0
  1  5  1  0  0  0  0
  2  3  2  0  0  0  0
  3  7  1  0  0  0  0
  4 16  1  6  0  0  0
  4  5  1  0  0  0  0
  4 11  1  0  0  0  0
  5  8  1  1  0  0  0
  8  7  2  0  0  0  0
  9  6  1  6  0  0  0
  9  2  1  0  0  0  0
  9  5  1  0  0  0  0
 10 13  1  0  0  0  0
 11 12  1  0  0  0  0
 12 13  2  0  0  0  0
 14 10  2  0  0  0  0
 15 11  2  0  0  0  0
 15 14  1  0  0  0  0
 17 20  1  0  0  0  0
 18 27  1  0  0  0  0
 19 24  1  0  0  0  0
 20 16  1  1  0  0  0
 21 23  2  0  0  0  0
 21 24  1  0  0  0  0
 22 21  1  0  0  0  0
 23 25  1  0  0  0  0
 24 18  2  0  0  0  0
 25 20  1  0  0  0  0
 25 27  2  0  0  0  0
 26 23  1  0  0  0  0
 26 17  2  0  0  0  0
M  END
>  <MODEL>
2

>  <REMARK>
 VINA RESULT:      -7.8      3.362      4.840
  Name = 
  3 active torsions:
  status: ('A' for Active; 'I' for Inactive)
    1  A    between atoms: N_2  and  C_6
    2  A    between atoms: N_2  and  C_15
    3  A    between atoms: C_9  and  C_15
                            x       y       z     vdW  Elec       q    Type
                         _______ _______ _______ _____ _____    ______ ____

>  <TORSDO>
F 3

$$$$
=
 OpenBabel11052418283D

 27 31  0  0  1  0  0  0  0  0999 V2000
  187.5000  178.1410  144.7610 O   0  0  0  0  0  0  0  0  0  0  0  0
  184.3290  178.2830  146.0490 C   0  0  0  0  0  3  0  0  0  0  0  0
  184.7110  178.6670  147.2720 C   0  0  0  0  0  3  0  0  0  0  0  0
  187.7060  176.7430  144.8020 C   0  0  2  0  0  0  0  0  0  0  0  0
  186.6600  177.4050  145.6260 C   0  0  1  0  0  0  0  0  0  0  0  0
  185.0440  177.8050  143.8520 F   0  0  0  0  0  0  0  0  0  0  0  0
  186.0320  178.3120  147.8210 C   0  0  0  0  0  3  0  0  0  0  0  0
  186.9530  177.7100  147.0670 C   0  0  0  0  0  3  0  0  0  0  0  0
  185.1860  177.4090  145.1720 C   0  0  2  0  0  3  0  0  0  0  0  0
  191.4680  175.5060  146.4840 C   0  0  0  0  0  3  0  0  0  0  0  0
  189.0160  176.3310  145.4120 C   0  0  0  0  0  0  0  0  0  0  0  0
  189.1200  175.0940  146.0600 C   0  0  0  0  0  3  0  0  0  0  0  0
  190.3440  174.6850  146.5980 C   0  0  0  0  0  3  0  0  0  0  0  0
  191.3710  176.7380  145.8290 C   0  0  0  0  0  3  0  0  0  0  0  0
  190.1490  177.1480  145.2900 C   0  0  0  0  0  3  0  0  0  0  0  0
  187.2600  176.0680  143.5840 N   0  0  0  0  0  2  0  0  0  0  0  0
  187.4370  177.0870  141.3720 C   0  0  0  0  0  3  0  0  0  0  0  0
  189.7990  173.0020  141.7150 C   0  0  0  0  0  3  0  0  0  0  0  0
  189.7160  171.7490  139.6490 O   0  0  0  0  0  1  0  0  0  0  0  0
  188.1890  176.3720  142.5030 C   0  0  2  0  0  3  0  0  0  0  0  0
  188.5700  173.8810  139.8050 C   0  0  0  0  0  0  0  0  0  0  0  0
  188.1340  173.7690  138.4900 O   0  0  0  0  0  1  0  0  0  0  0  0
  188.2330  174.9970  140.5760 C   0  0  0  0  0  0  0  0  0  0  0  0
  189.3620  172.8740  140.3850 C   0  0  0  0  0  0  0  0  0  0  0  0
  188.6560  175.1150  141.8750 C   0  0  0  0  0  0  0  0  0  0  0  0
  187.4230  176.1580  140.1500 C   0  0  0  0  0  3  0  0  0  0  0  0
  189.4470  174.1290  142.4700 C   0  0  0  0  0  3  0  0  0  0  0  0
  1  4  1  0  0  0  0
  1  5  1  0  0  0  0
  2  3  2  0  0  0  0
  3  7  1  0  0  0  0
  4 16  1  6  0  0  0
  4 11  1  0  0  0  0
  4  5  1  0  0  0  0
  5  8  1  1  0  0  0
  8  7  2  0  0  0  0
  9  6  1  6  0  0  0
  9  5  1  0  0  0  0
  9  2  1  0  0  0  0
 10 13  1  0  0  0  0
 11 12  1  0  0  0  0
 12 13  2  0  0  0  0
 14 10  2  0  0  0  0
 15 11  2  0  0  0  0
 15 14  1  0  0  0  0
 17 20  1  0  0  0  0
 18 27  1  0  0  0  0
 19 24  1  0  0  0  0
 20 16  1  1  0  0  0
 21 24  1  0  0  0  0
 21 23  2  0  0  0  0
 22 21  1  0  0  0  0
 23 25  1  0  0  0  0
 24 18  2  0  0  0  0
 25 27  2  0  0  0  0
 25 20  1  0  0  0  0
 26 23  1  0  0  0  0
 26 17  2  0  0  0  0
M  END
>  <MODEL>
3

>  <REMARK>
 VINA RESULT:      -7.7      3.194      5.329
  Name = 
  3 active torsions:
  status: ('A' for Active; 'I' for Inactive)
    1  A    between atoms: N_2  and  C_6
    2  A    between atoms: N_2  and  C_15
    3  A    between atoms: C_9  and  C_15
                            x       y       z     vdW  Elec       q    Type
                         _______ _______ _______ _____ _____    ______ ____

>  <TORSDO>
F 3

$$$$
=
 OpenBabel11052418283D

 27 31  0  0  1  0  0  0  0  0999 V2000
  187.0110  176.3870  145.7640 O   0  0  0  0  0  0  0  0  0  0  0  0
  185.3320  178.7120  147.6380 C   0  0  0  0  0  3  0  0  0  0  0  0
  184.2090  178.6660  146.9120 C   0  0  0  0  0  3  0  0  0  0  0  0
  187.8320  177.2500  145.0020 C   0  0  2  0  0  0  0  0  0  0  0  0
  186.6030  177.7370  145.6830 C   0  0  1  0  0  0  0  0  0  0  0  0
  187.4800  177.7880  147.9520 F   0  0  0  0  0  0  0  0  0  0  0  0
  184.2230  178.3080  145.4820 C   0  0  0  0  0  3  0  0  0  0  0  0
  185.3370  177.8830  144.8880 C   0  0  0  0  0  3  0  0  0  0  0  0
  186.6920  178.4680  147.0380 C   0  0  2  0  0  3  0  0  0  0  0  0
  187.7330  176.4080  140.7840 C   0  0  0  0  0  3  0  0  0  0  0  0
  187.8280  176.9620  143.5270 C   0  0  0  0  0  0  0  0  0  0  0  0
  187.7230  175.6400  143.0800 C   0  0  0  0  0  3  0  0  0  0  0  0
  187.6800  175.3640  141.7100 C   0  0  0  0  0  3  0  0  0  0  0  0
  187.8270  177.7320  141.2260 C   0  0  0  0  0  3  0  0  0  0  0  0
  187.8700  178.0090  142.5950 C   0  0  0  0  0  3  0  0  0  0  0  0
  189.1090  177.5410  145.6530 N   0  0  0  0  0  2  0  0  0  0  0  0
  190.1990  176.1790  147.3610 C   0  0  0  0  0  3  0  0  0  0  0  0
  192.6630  176.3990  143.3280 C   0  0  0  0  0  3  0  0  0  0  0  0
  195.0450  176.4160  143.7400 O   0  0  0  0  0  1  0  0  0  0  0  0
  189.8240  176.2910  145.8770 C   0  0  2  0  0  3  0  0  0  0  0  0
  193.5060  176.3390  145.6120 C   0  0  0  0  0  0  0  0  0  0  0  0
  194.5650  176.3220  146.5130 O   0  0  0  0  0  1  0  0  0  0  0  0
  192.1840  176.3110  146.0660 C   0  0  0  0  0  0  0  0  0  0  0  0
  193.7430  176.3850  144.2280 C   0  0  0  0  0  0  0  0  0  0  0  0
  191.1330  176.3300  145.1860 C   0  0  0  0  0  0  0  0  0  0  0  0
  191.7290  176.2530  147.4710 C   0  0  0  0  0  3  0  0  0  0  0  0
  191.3450  176.3710  143.8060 C   0  0  0  0  0  3  0  0  0  0  0  0
  3  2  2  0  0  0  0
  4 16  1  1  0  0  0
  4  5  1  0  0  0  0
  4  1  1  0  0  0  0
  5  8  1  6  0  0  0
  5  1  1  0  0  0  0
  5  9  1  0  0  0  0
  7  3  1  0  0  0  0
  8  7  2  0  0  0  0
  9  2  1  0  0  0  0
  9  6  1  1  0  0  0
 10 14  2  0  0  0  0
 10 13  1  0  0  0  0
 11  4  1  0  0  0  0
 12 11  1  0  0  0  0
 13 12  2  0  0  0  0
 14 15  1  0  0  0  0
 15 11  2  0  0  0  0
 17 26  2  0  0  0  0
 18 27  2  0  0  0  0
 18 24  1  0  0  0  0
 19 24  1  0  0  0  0
 20 16  1  1  0  0  0
 20 17  1  0  0  0  0
 21 23  1  0  0  0  0
 21 22  1  0  0  0  0
 23 26  1  0  0  0  0
 24 21  2  0  0  0  0
 25 20  1  0  0  0  0
 25 23  2  0  0  0  0
 27 25  1  0  0  0  0
M  END
>  <MODEL>
4

>  <REMARK>
 VINA RESULT:      -7.6      2.533      4.541
  Name = 
  3 active torsions:
  status: ('A' for Active; 'I' for Inactive)
    1  A    between atoms: N_2  and  C_6
    2  A    between atoms: N_2  and  C_15
    3  A    between atoms: C_9  and  C_15
                            x       y       z     vdW  Elec       q    Type
                         _______ _______ _______ _____ _____    ______ ____

>  <TORSDO>
F 3

$$$$
=
 OpenBabel11052418283D

 27 31  0  0  1  0  0  0  0  0999 V2000
  192.4360  175.6410  143.3810 O   0  0  0  0  0  0  0  0  0  0  0  0
  194.5030  176.4250  145.9980 C   0  0  0  0  0  3  0  0  0  0  0  0
  195.1450  175.2520  146.0020 C   0  0  0  0  0  3  0  0  0  0  0  0
  191.2540  175.3450  144.0980 C   0  0  2  0  0  0  0  0  0  0  0  0
  192.5890  175.3430  144.7530 C   0  0  1  0  0  0  0  0  0  0  0  0
  192.8910  177.7520  144.9000 F   0  0  0  0  0  0  0  0  0  0  0  0
  194.5000  174.0120  145.5320 C   0  0  0  0  0  3  0  0  0  0  0  0
  193.2990  174.0350  144.9560 C   0  0  0  0  0  3  0  0  0  0  0  0
  193.0630  176.5570  145.5780 C   0  0  2  0  0  3  0  0  0  0  0  0
  189.4470  171.6170  142.9370 C   0  0  0  0  0  3  0  0  0  0  0  0
  190.5950  174.0560  143.6950 C   0  0  0  0  0  0  0  0  0  0  0  0
  190.6510  173.6370  142.3600 C   0  0  0  0  0  3  0  0  0  0  0  0
  190.0740  172.4210  141.9820 C   0  0  0  0  0  3  0  0  0  0  0  0
  189.3980  172.0270  144.2740 C   0  0  0  0  0  3  0  0  0  0  0  0
  189.9750  173.2420  144.6530 C   0  0  0  0  0  3  0  0  0  0  0  0
  190.4120  176.5210  144.3150 N   0  0  0  0  0  2  0  0  0  0  0  0
  188.9500  177.0320  142.4270 C   0  0  0  0  0  3  0  0  0  0  0  0
  186.7110  177.1910  146.5920 C   0  0  0  0  0  3  0  0  0  0  0  0
  185.0240  178.9220  146.6310 O   0  0  0  0  0  1  0  0  0  0  0  0
  189.0910  176.2720  143.7530 C   0  0  2  0  0  3  0  0  0  0  0  0
  186.3710  178.6070  144.6400 C   0  0  0  0  0  0  0  0  0  0  0  0
  185.7060  179.6440  143.9960 O   0  0  0  0  0  1  0  0  0  0  0  0
  187.3910  177.9030  143.9920 C   0  0  0  0  0  0  0  0  0  0  0  0
  186.0320  178.2440  145.9550 C   0  0  0  0  0  0  0  0  0  0  0  0
  188.0550  176.8800  144.6190 C   0  0  0  0  0  0  0  0  0  0  0  0
  187.8860  178.1230  142.6160 C   0  0  0  0  0  3  0  0  0  0  0  0
  187.7310  176.4990  145.9240 C   0  0  0  0  0  3  0  0  0  0  0  0
  1  4  1  0  0  0  0
  1  5  1  0  0  0  0
  2  3  2  0  0  0  0
  4 16  1  1  0  0  0
  4  5  1  0  0  0  0
  5  8  1  1  0  0  0
  5  9  1  0  0  0  0
  7  3  1  0  0  0  0
  8  7  2  0  0  0  0
  9  6  1  6  0  0  0
  9  2  1  0  0  0  0
 10 14  1  0  0  0  0
 11  4  1  0  0  0  0
 11 15  1  0  0  0  0
 12 11  2  0  0  0  0
 13 12  1  0  0  0  0
 13 10  2  0  0  0  0
 14 15  2  0  0  0  0
 17 26  2  0  0  0  0
 17 20  1  0  0  0  0
 20 16  1  1  0  0  0
 20 25  1  0  0  0  0
 21 24  2  0  0  0  0
 22 21  1  0  0  0  0
 23 25  2  0  0  0  0
 23 21  1  0  0  0  0
 24 18  1  0  0  0  0
 24 19  1  0  0  0  0
 25 27  1  0  0  0  0
 26 23  1  0  0  0  0
 27 18  2  0  0  0  0
M  END
>  <MODEL>
5

>  <REMARK>
 VINA RESULT:      -7.1      3.144      7.322
  Name = 
  3 active torsions:
  status: ('A' for Active; 'I' for Inactive)
    1  A    between atoms: N_2  and  C_6
    2  A    between atoms: N_2  and  C_15
    3  A    between atoms: C_9  and  C_15
                            x       y       z     vdW  Elec       q    Type
                         _______ _______ _______ _____ _____    ______ ____

>  <TORSDO>
F 3

$$$$
=
 OpenBabel11052418283D

 27 31  0  0  1  0  0  0  0  0999 V2000
  191.9130  175.9540  142.9500 O   0  0  0  0  0  0  0  0  0  0  0  0
  192.6150  176.4650  146.2640 C   0  0  0  0  0  3  0  0  0  0  0  0
  193.0790  175.2300  146.4830 C   0  0  0  0  0  3  0  0  0  0  0  0
  190.5130  175.7740  143.0330 C   0  0  2  0  0  0  0  0  0  0  0  0
  191.3950  175.6160  144.2200 C   0  0  1  0  0  0  0  0  0  0  0  0
  191.8050  177.9770  144.6440 F   0  0  0  0  0  0  0  0  0  0  0  0
  192.6150  174.0750  145.6920 C   0  0  0  0  0  3  0  0  0  0  0  0
  191.8180  174.2370  144.6370 C   0  0  0  0  0  3  0  0  0  0  0  0
  191.5430  176.7580  145.2470 C   0  0  2  0  0  3  0  0  0  0  0  0
  189.1210  172.2810  140.9410 C   0  0  0  0  0  3  0  0  0  0  0  0
  190.0030  174.5700  142.2930 C   0  0  0  0  0  0  0  0  0  0  0  0
  190.6340  174.1640  141.1100 C   0  0  0  0  0  3  0  0  0  0  0  0
  190.1910  173.0240  140.4350 C   0  0  0  0  0  3  0  0  0  0  0  0
  188.4940  172.6770  142.1270 C   0  0  0  0  0  3  0  0  0  0  0  0
  188.9370  173.8170  142.8040 C   0  0  0  0  0  3  0  0  0  0  0  0
  189.7720  177.0290  142.9210 N   0  0  0  0  0  2  0  0  0  0  0  0
  187.7760  177.5460  141.6130 C   0  0  0  0  0  3  0  0  0  0  0  0
  186.9380  177.3750  146.2660 C   0  0  0  0  0  3  0  0  0  0  0  0
  185.2810  179.0040  146.9320 O   0  0  0  0  0  1  0  0  0  0  0  0
  188.3520  176.7320  142.7790 C   0  0  2  0  0  3  0  0  0  0  0  0
  185.9540  178.8620  144.6080 C   0  0  0  0  0  0  0  0  0  0  0  0
  185.0810  179.8900  144.2680 O   0  0  0  0  0  1  0  0  0  0  0  0
  186.7480  178.2500  143.6330 C   0  0  0  0  0  0  0  0  0  0  0  0
  186.0540  178.4170  145.9370 C   0  0  0  0  0  0  0  0  0  0  0  0
  187.6130  177.2370  143.9590 C   0  0  0  0  0  0  0  0  0  0  0  0
  186.7820  178.5650  142.1890 C   0  0  0  0  0  3  0  0  0  0  0  0
  187.7260  176.7760  145.2730 C   0  0  0  0  0  3  0  0  0  0  0  0
  1  4  1  0  0  0  0
  1  5  1  0  0  0  0
  2  3  2  0  0  0  0
  4 16  1  6  0  0  0
  4  5  1  0  0  0  0
  5  8  1  1  0  0  0
  5  9  1  0  0  0  0
  7  3  1  0  0  0  0
  8  7  2  0  0  0  0
  9  6  1  6  0  0  0
  9  2  1  0  0  0  0
 10 14  1  0  0  0  0
 11 15  1  0  0  0  0
 11  4  1  0  0  0  0
 12 11  2  0  0  0  0
 13 10  2  0  0  0  0
 13 12  1  0  0  0  0
 14 15  2  0  0  0  0
 17 26  2  0  0  0  0
 17 20  1  0  0  0  0
 20 16  1  1  0  0  0
 20 25  1  0  0  0  0
 21 24  2  0  0  0  0
 22 21  1  0  0  0  0
 23 25  2  0  0  0  0
 23 21  1  0  0  0  0
 24 18  1  0  0  0  0
 24 19  1  0  0  0  0
 25 27  1  0  0  0  0
 26 23  1  0  0  0  0
 27 18  2  0  0  0  0
M  END
>  <MODEL>
6

>  <REMARK>
 VINA RESULT:      -6.9      2.979      6.937
  Name = 
  3 active torsions:
  status: ('A' for Active; 'I' for Inactive)
    1  A    between atoms: N_2  and  C_6
    2  A    between atoms: N_2  and  C_15
    3  A    between atoms: C_9  and  C_15
                            x       y       z     vdW  Elec       q    Type
                         _______ _______ _______ _____ _____    ______ ____

>  <TORSDO>
F 3

$$$$
=
 OpenBabel11052418283D

 27 31  0  0  1  0  0  0  0  0999 V2000
  188.2370  175.6750  145.9050 O   0  0  0  0  0  0  0  0  0  0  0  0
  186.6020  178.1360  147.6380 C   0  0  0  0  0  3  0  0  0  0  0  0
  185.3850  177.8190  147.1820 C   0  0  0  0  0  3  0  0  0  0  0  0
  188.7690  176.4490  144.8470 C   0  0  2  0  0  0  0  0  0  0  0  0
  187.6260  176.9270  145.6700 C   0  0  1  0  0  0  0  0  0  0  0  0
  188.8840  177.5380  147.6610 F   0  0  0  0  0  0  0  0  0  0  0  0
  185.1910  177.1800  145.8670 C   0  0  0  0  0  3  0  0  0  0  0  0
  186.2300  176.7660  145.1410 C   0  0  0  0  0  3  0  0  0  0  0  0
  187.8510  177.9260  146.8240 C   0  0  2  0  0  3  0  0  0  0  0  0
  188.1910  174.8020  140.9140 C   0  0  0  0  0  3  0  0  0  0  0  0
  188.5390  175.8660  143.4820 C   0  0  0  0  0  0  0  0  0  0  0  0
  188.3520  176.7180  142.3860 C   0  0  0  0  0  3  0  0  0  0  0  0
  188.1760  176.1860  141.1060 C   0  0  0  0  0  3  0  0  0  0  0  0
  188.3870  173.9470  142.0030 C   0  0  0  0  0  3  0  0  0  0  0  0
  188.5650  174.4780  143.2840 C   0  0  0  0  0  3  0  0  0  0  0  0
  190.0850  177.0050  145.1560 N   0  0  0  0  0  2  0  0  0  0  0  0
  191.7180  176.1660  146.7660 C   0  0  0  0  0  3  0  0  0  0  0  0
  193.1680  175.7490  142.2820 C   0  0  0  0  0  3  0  0  0  0  0  0
  195.5510  176.0960  142.0810 O   0  0  0  0  0  1  0  0  0  0  0  0
  191.0120  175.9120  145.4270 C   0  0  2  0  0  3  0  0  0  0  0  0
  194.4940  176.2740  144.2550 C   0  0  0  0  0  0  0  0  0  0  0  0
  195.7170  176.5600  144.8530 O   0  0  0  0  0  1  0  0  0  0  0  0
  193.3250  176.2120  145.0190 C   0  0  0  0  0  0  0  0  0  0  0  0
  194.4100  176.0410  142.8720 C   0  0  0  0  0  0  0  0  0  0  0  0
  192.1140  175.9330  144.4390 C   0  0  0  0  0  0  0  0  0  0  0  0
  193.2060  176.4160  146.4780 C   0  0  0  0  0  3  0  0  0  0  0  0
  192.0070  175.6920  143.0670 C   0  0  0  0  0  3  0  0  0  0  0  0
  3  2  2  0  0  0  0
  4 16  1  1  0  0  0
  4  5  1  0  0  0  0
  4  1  1  0  0  0  0
  5  8  1  6  0  0  0
  5  1  1  0  0  0  0
  5  9  1  0  0  0  0
  7  3  1  0  0  0  0
  8  7  2  0  0  0  0
  9  2  1  0  0  0  0
  9  6  1  1  0  0  0
 10 13  2  0  0  0  0
 10 14  1  0  0  0  0
 11  4  1  0  0  0  0
 12 11  2  0  0  0  0
 13 12  1  0  0  0  0
 14 15  2  0  0  0  0
 15 11  1  0  0  0  0
 18 24  2  0  0  0  0
 18 27  1  0  0  0  0
 19 24  1  0  0  0  0
 20 16  1  6  0  0  0
 20 17  1  0  0  0  0
 21 22  1  0  0  0  0
 21 23  2  0  0  0  0
 23 26  1  0  0  0  0
 24 21  1  0  0  0  0
 25 23  1  0  0  0  0
 25 20  1  0  0  0  0
 26 17  2  0  0  0  0
 27 25  2  0  0  0  0
M  END
>  <MODEL>
7

>  <REMARK>
 VINA RESULT:      -6.9      2.950      5.180
  Name = 
  3 active torsions:
  status: ('A' for Active; 'I' for Inactive)
    1  A    between atoms: N_2  and  C_6
    2  A    between atoms: N_2  and  C_15
    3  A    between atoms: C_9  and  C_15
                            x       y       z     vdW  Elec       q    Type
                         _______ _______ _______ _____ _____    ______ ____

>  <TORSDO>
F 3

$$$$
=
 OpenBabel11052418283D

 27 31  0  0  1  0  0  0  0  0999 V2000
  188.9490  175.0150  145.3930 O   0  0  0  0  0  0  0  0  0  0  0  0
  191.7620  175.5850  147.2630 C   0  0  0  0  0  3  0  0  0  0  0  0
  191.2530  176.6210  147.9380 C   0  0  0  0  0  3  0  0  0  0  0  0
  189.3520  175.6120  144.1760 C   0  0  2  0  0  0  0  0  0  0  0  0
  190.0200  175.9330  145.4660 C   0  0  1  0  0  0  0  0  0  0  0  0
  191.3180  173.8870  145.6850 F   0  0  0  0  0  0  0  0  0  0  0  0
  190.2040  177.4830  147.3620 C   0  0  0  0  0  3  0  0  0  0  0  0
  189.6250  177.1820  146.2000 C   0  0  0  0  0  3  0  0  0  0  0  0
  191.3550  175.2620  145.8490 C   0  0  2  0  0  3  0  0  0  0  0  0
  186.4530  178.2510  142.4050 C   0  0  0  0  0  3  0  0  0  0  0  0
  188.3390  176.5490  143.5840 C   0  0  0  0  0  0  0  0  0  0  0  0
  188.7430  177.5000  142.6380 C   0  0  0  0  0  3  0  0  0  0  0  0
  187.8010  178.3510  142.0530 C   0  0  0  0  0  3  0  0  0  0  0  0
  186.0430  177.2970  143.3410 C   0  0  0  0  0  3  0  0  0  0  0  0
  186.9830  176.4440  143.9270 C   0  0  0  0  0  3  0  0  0  0  0  0
  190.0430  174.6790  143.2880 N   0  0  0  0  0  2  0  0  0  0  0  0
  189.7370  172.2560  143.3310 C   0  0  0  0  0  3  0  0  0  0  0  0
  188.4690  174.2020  139.2090 C   0  0  0  0  0  3  0  0  0  0  0  0
  188.9800  172.7510  137.3450 O   0  0  0  0  0  1  0  0  0  0  0  0
  189.1290  173.6050  142.9210 C   0  0  2  0  0  3  0  0  0  0  0  0
  189.5390  172.0500  139.5970 C   0  0  0  0  0  0  0  0  0  0  0  0
  190.0620  170.8530  139.1210 O   0  0  0  0  0  1  0  0  0  0  0  0
  189.5410  172.3330  140.9660 C   0  0  0  0  0  0  0  0  0  0  0  0
  188.9970  172.9980  138.7130 C   0  0  0  0  0  0  0  0  0  0  0  0
  189.0300  173.5110  141.4460 C   0  0  0  0  0  0  0  0  0  0  0  0
  190.0530  171.4690  142.0510 C   0  0  0  0  0  3  0  0  0  0  0  0
  188.4820  174.4660  140.5860 C   0  0  0  0  0  3  0  0  0  0  0  0
  1  5  1  0  0  0  0
  2  3  2  0  0  0  0
  4 16  1  6  0  0  0
  4  1  1  0  0  0  0
  4  5  1  0  0  0  0
  5  9  1  0  0  0  0
  5  8  1  1  0  0  0
  7  3  1  0  0  0  0
  8  7  2  0  0  0  0
  9  6  1  1  0  0  0
  9  2  1  0  0  0  0
 10 14  1  0  0  0  0
 11 15  1  0  0  0  0
 11  4  1  0  0  0  0
 12 11  2  0  0  0  0
 13 10  2  0  0  0  0
 13 12  1  0  0  0  0
 14 15  2  0  0  0  0
 18 27  1  0  0  0  0
 19 24  1  0  0  0  0
 20 16  1  6  0  0  0
 20 17  1  0  0  0  0
 21 23  2  0  0  0  0
 22 21  1  0  0  0  0
 23 25  1  0  0  0  0
 23 26  1  0  0  0  0
 24 18  2  0  0  0  0
 24 21  1  0  0  0  0
 25 20  1  0  0  0  0
 26 17  2  0  0  0  0
 27 25  2  0  0  0  0
M  END
>  <MODEL>
8

>  <REMARK>
 VINA RESULT:      -6.8      4.305      6.801
  Name = 
  3 active torsions:
  status: ('A' for Active; 'I' for Inactive)
    1  A    between atoms: N_2  and  C_6
    2  A    between atoms: N_2  and  C_15
    3  A    between atoms: C_9  and  C_15
                            x       y       z     vdW  Elec       q    Type
                         _______ _______ _______ _____ _____    ______ ____

>  <TORSDO>
F 3

$$$$
=
 OpenBabel11052418283D

 27 31  0  0  1  0  0  0  0  0999 V2000
  188.8400  176.9520  143.2270 O   0  0  0  0  0  0  0  0  0  0  0  0
  185.5550  177.7410  142.6590 C   0  0  0  0  0  3  0  0  0  0  0  0
  185.4970  178.7020  143.5890 C   0  0  0  0  0  3  0  0  0  0  0  0
  188.6680  175.7760  143.9930 C   0  0  2  0  0  0  0  0  0  0  0  0
  187.5740  176.7690  143.8270 C   0  0  1  0  0  0  0  0  0  0  0  0
  186.9480  176.1960  141.5470 F   0  0  0  0  0  0  0  0  0  0  0  0
  186.3620  178.6800  144.7830 C   0  0  0  0  0  3  0  0  0  0  0  0
  187.3310  177.7750  144.9160 C   0  0  0  0  0  3  0  0  0  0  0  0
  186.4520  176.5400  142.7940 C   0  0  2  0  0  3  0  0  0  0  0  0
  190.9740  175.7460  147.6250 C   0  0  0  0  0  3  0  0  0  0  0  0
  189.4830  175.7370  145.2540 C   0  0  0  0  0  0  0  0  0  0  0  0
  190.6550  176.4970  145.3450 C   0  0  0  0  0  3  0  0  0  0  0  0
  191.4010  176.4980  146.5280 C   0  0  0  0  0  3  0  0  0  0  0  0
  189.7990  174.9930  147.5420 C   0  0  0  0  0  3  0  0  0  0  0  0
  189.0520  174.9910  146.3610 C   0  0  0  0  0  3  0  0  0  0  0  0
  188.5960  174.5690  143.1710 N   0  0  0  0  0  2  0  0  0  0  0  0
  189.4680  174.1870  140.9230 C   0  0  0  0  0  3  0  0  0  0  0  0
  191.8130  171.7710  144.2460 C   0  0  0  0  0  3  0  0  0  0  0  0
  192.5340  169.6110  143.4340 O   0  0  0  0  0  1  0  0  0  0  0  0
  189.8230  174.4490  142.3930 C   0  0  2  0  0  3  0  0  0  0  0  0
  191.2750  171.0800  141.9730 C   0  0  0  0  0  0  0  0  0  0  0  0
  191.3320  170.1460  140.9450 O   0  0  0  0  0  1  0  0  0  0  0  0
  190.6210  172.3020  141.7910 C   0  0  0  0  0  0  0  0  0  0  0  0
  191.8760  170.8150  143.2160 C   0  0  0  0  0  0  0  0  0  0  0  0
  190.5570  173.2290  142.8000 C   0  0  0  0  0  0  0  0  0  0  0  0
  189.9400  172.7700  140.5650 C   0  0  0  0  0  3  0  0  0  0  0  0
  191.1510  172.9890  144.0410 C   0  0  0  0  0  3  0  0  0  0  0  0
  1  5  1  0  0  0  0
  1  4  1  0  0  0  0
  2  9  1  0  0  0  0
  2  3  2  0  0  0  0
  3  7  1  0  0  0  0
  4 16  1  6  0  0  0
  4 11  1  0  0  0  0
  5  4  1  0  0  0  0
  5  8  1  1  0  0  0
  7  8  2  0  0  0  0
  9  6  1  6  0  0  0
  9  5  1  0  0  0  0
 11 12  2  0  0  0  0
 11 15  1  0  0  0  0
 12 13  1  0  0  0  0
 13 10  2  0  0  0  0
 14 10  1  0  0  0  0
 15 14  2  0  0  0  0
 17 20  1  0  0  0  0
 20 25  1  0  0  0  0
 20 16  1  1  0  0  0
 21 24  1  0  0  0  0
 22 21  1  0  0  0  0
 23 21  2  0  0  0  0
 23 25  1  0  0  0  0
 24 19  1  0  0  0  0
 24 18  2  0  0  0  0
 25 27  2  0  0  0  0
 26 17  2  0  0  0  0
 26 23  1  0  0  0  0
 27 18  1  0  0  0  0
M  END
>  <MODEL>
9

>  <REMARK>
 VINA RESULT:      -6.8      3.613      4.820
  Name = 
  3 active torsions:
  status: ('A' for Active; 'I' for Inactive)
    1  A    between atoms: N_2  and  C_6
    2  A    between atoms: N_2  and  C_15
    3  A    between atoms: C_9  and  C_15
                            x       y       z     vdW  Elec       q    Type
                         _______ _______ _______ _____ _____    ______ ____

>  <TORSDO>
F 3

$$$$
