=
 OpenBabel11052417473D

 31 34  0  0  1  0  0  0  0  0999 V2000
  188.5550  173.8890  142.2860 C   0  0  1  0  0  3  0  0  0  0  0  0
  190.5260  175.1900  145.3190 C   0  0  2  0  0  3  0  0  0  0  0  0
  192.0200  175.4700  145.1750 C   0  0  0  0  0  0  0  0  0  0  0  0
  192.0410  175.6560  142.3570 Cl  0  0  0  0  0  0  0  0  0  0  0  0
  189.6520  175.1180  144.0990 C   0  0  0  0  0  0  0  0  0  0  0  0
  188.7030  175.1280  141.3990 C   0  0  0  0  0  2  0  0  0  0  0  0
  192.7460  175.6510  143.9640 C   0  0  0  0  0  0  0  0  0  0  0  0
  189.4910  177.4900  145.8560 C   0  0  2  0  0  3  0  0  0  0  0  0
  188.8260  172.6400  141.4740 C   0  0  0  0  0  1  0  0  0  0  0  0
  191.9840  175.3840  147.6880 C   0  0  0  0  0  2  0  0  0  0  0  0
  194.1270  175.8640  144.0120 C   0  0  0  0  0  3  0  0  0  0  0  0
  189.3130  177.5900  144.3310 C   0  0  0  0  0  2  0  0  0  0  0  0
  189.8790  176.0960  146.3920 C   0  0  2  0  0  3  0  0  0  0  0  0
  189.5120  173.9630  143.4390 C   0  0  0  0  0  3  0  0  0  0  0  0
  194.8060  175.9070  145.2290 C   0  0  0  0  0  3  0  0  0  0  0  0
  188.7870  176.2980  143.7110 C   0  0  1  0  0  3  0  0  0  0  0  0
  188.6500  176.4530  142.1870 C   0  0  0  0  0  2  0  0  0  0  0  0
  190.7250  176.2540  147.6710 C   0  0  0  0  0  2  0  0  0  0  0  0
  192.7260  175.5340  146.3960 C   0  0  0  0  0  0  0  0  0  0  0  0
  194.1050  175.7440  146.4200 C   0  0  0  0  0  3  0  0  0  0  0  0
  187.0690  176.0530  146.6030 O   0  0  0  0  0  0  0  0  0  0  0  0
  187.1500  177.2780  146.8820 C   0  0  0  0  0  0  0  0  0  0  0  0
  188.3300  178.0270  146.5600 N   0  0  0  0  0  2  0  0  0  0  0  0
  186.2890  179.4240  147.7500 C   0  0  0  0  0  1  0  0  0  0  0  0
  186.0010  177.9470  147.5590 C   0  0  1  0  0  3  0  0  0  0  0  0
  184.4820  177.7250  146.5840 S   0  0  0  0  0  0  0  0  0  0  0  0
  184.9730  178.9650  145.3520 C   0  0  0  0  0  2  0  0  0  0  0  0
  184.1160  178.2450  143.0870 C   0  0  0  0  0  0  0  0  0  0  0  0
  185.2830  177.3440  142.8680 C   0  0  0  0  0  1  0  0  0  0  0  0
  183.2290  178.3300  142.1990 O   0  0  0  0  0  0  0  0  0  0  0  0
  183.9880  179.0130  144.2840 N   0  0  0  0  0  2  0  0  0  0  0  0
  1  9  1  6  0  0  0
  1 14  1  0  0  0  0
  2  5  1  6  0  0  0
  2 13  1  0  0  0  0
  3  2  1  0  0  0  0
  3 19  1  0  0  0  0
  4  7  1  0  0  0  0
  6 17  1  0  0  0  0
  6  1  1  0  0  0  0
  7 11  1  0  0  0  0
  7  3  2  0  0  0  0
  8 13  1  0  0  0  0
  8 23  1  1  0  0  0
 11 15  2  0  0  0  0
 12  8  1  0  0  0  0
 13 18  1  1  0  0  0
 14  5  2  0  0  0  0
 15 20  1  0  0  0  0
 16 17  1  6  0  0  0
 16  5  1  0  0  0  0
 16 12  1  0  0  0  0
 18 10  1  0  0  0  0
 19 20  2  0  0  0  0
 19 10  1  0  0  0  0
 21 22  2  0  0  0  0
 22 25  1  0  0  0  0
 23 22  1  0  0  0  0
 25 24  1  6  0  0  0
 26 25  1  0  0  0  0
 27 26  1  0  0  0  0
 28 31  1  0  0  0  0
 29 28  1  0  0  0  0
 30 28  2  0  0  0  0
 31 27  1  0  0  0  0
M  END
>  <MODEL>
1

>  <REMARK>
 VINA RESULT:      -8.1      0.000      0.000
  Name = 
  5 active torsions:
  status: ('A' for Active; 'I' for Inactive)
    1  A    between atoms: S_6  and  C_19
    2  A    between atoms: S_6  and  C_22
    3  A    between atoms: C_9  and  C_22
    4  A    between atoms: C_15  and  N_23
    5  A    between atoms: C_19  and  N_24
                            x       y       z     vdW  Elec       q    Type
                         _______ _______ _______ _____ _____    ______ ____

>  <TORSDO>
F 5

$$$$
=
 OpenBabel11052417473D

 31 34  0  0  1  0  0  0  0  0999 V2000
  189.1670  172.9110  142.7610 C   0  0  1  0  0  3  0  0  0  0  0  0
  190.4210  175.3760  145.4330 C   0  0  2  0  0  3  0  0  0  0  0  0
  191.8950  175.7730  145.4500 C   0  0  0  0  0  0  0  0  0  0  0  0
  192.4610  175.0160  142.7890 Cl  0  0  0  0  0  0  0  0  0  0  0  0
  189.8110  174.7970  144.1870 C   0  0  0  0  0  0  0  0  0  0  0  0
  189.4160  173.7950  141.5360 C   0  0  0  0  0  2  0  0  0  0  0  0
  192.8340  175.6300  144.3900 C   0  0  0  0  0  0  0  0  0  0  0  0
  189.1680  177.5780  144.9550 C   0  0  2  0  0  3  0  0  0  0  0  0
  189.6660  171.5080  142.4920 C   0  0  0  0  0  1  0  0  0  0  0  0
  191.3680  176.5210  147.7930 C   0  0  0  0  0  2  0  0  0  0  0  0
  194.1640  176.0150  144.5890 C   0  0  0  0  0  3  0  0  0  0  0  0
  189.2890  177.1440  143.4850 C   0  0  0  0  0  2  0  0  0  0  0  0
  189.5230  176.5000  146.0000 C   0  0  2  0  0  3  0  0  0  0  0  0
  189.8710  173.4800  143.9580 C   0  0  0  0  0  3  0  0  0  0  0  0
  194.5850  176.5410  145.8090 C   0  0  0  0  0  3  0  0  0  0  0  0
  188.9730  175.6660  143.2750 C   0  0  1  0  0  3  0  0  0  0  0  0
  189.1300  175.2890  141.7930 C   0  0  0  0  0  2  0  0  0  0  0  0
  190.0880  177.1750  147.2650 C   0  0  0  0  0  2  0  0  0  0  0  0
  192.3410  176.3240  146.6710 C   0  0  0  0  0  0  0  0  0  0  0  0
  193.6730  176.6970  146.8480 C   0  0  0  0  0  3  0  0  0  0  0  0
  186.7620  176.1990  145.8480 O   0  0  0  0  0  0  0  0  0  0  0  0
  186.7000  177.4390  145.6410 C   0  0  0  0  0  0  0  0  0  0  0  0
  187.8620  178.1710  145.2250 N   0  0  0  0  0  2  0  0  0  0  0  0
  185.3200  178.7210  147.2400 C   0  0  0  0  0  1  0  0  0  0  0  0
  185.4020  178.1450  145.8380 C   0  0  1  0  0  3  0  0  0  0  0  0
  185.2130  179.4690  144.6050 S   0  0  0  0  0  0  0  0  0  0  0  0
  184.5310  178.3420  143.3550 C   0  0  0  0  0  2  0  0  0  0  0  0
  185.1780  178.0950  140.9240 C   0  0  0  0  0  0  0  0  0  0  0  0
  183.7770  178.3170  140.4690 C   0  0  0  0  0  1  0  0  0  0  0  0
  186.0780  177.8910  140.0690 O   0  0  0  0  0  0  0  0  0  0  0  0
  185.5180  178.1120  142.3120 N   0  0  0  0  0  2  0  0  0  0  0  0
  1  9  1  6  0  0  0
  1 14  1  0  0  0  0
  2  5  1  6  0  0  0
  2  3  1  0  0  0  0
  2 13  1  0  0  0  0
  3 19  1  0  0  0  0
  4  7  1  0  0  0  0
  6 17  1  0  0  0  0
  6  1  1  0  0  0  0
  7 11  1  0  0  0  0
  7  3  2  0  0  0  0
  8 23  1  1  0  0  0
  8 13  1  0  0  0  0
 11 15  2  0  0  0  0
 12  8  1  0  0  0  0
 13 18  1  1  0  0  0
 14  5  2  0  0  0  0
 15 20  1  0  0  0  0
 16 17  1  6  0  0  0
 16 12  1  0  0  0  0
 16  5  1  0  0  0  0
 18 10  1  0  0  0  0
 19 20  2  0  0  0  0
 19 10  1  0  0  0  0
 22 25  1  0  0  0  0
 22 21  2  0  0  0  0
 23 22  1  0  0  0  0
 25 24  1  1  0  0  0
 26 25  1  0  0  0  0
 27 26  1  0  0  0  0
 28 31  1  0  0  0  0
 29 28  1  0  0  0  0
 30 28  2  0  0  0  0
 31 27  1  0  0  0  0
M  END
>  <MODEL>
2

>  <REMARK>
 VINA RESULT:      -8.1      1.409      1.567
  Name = 
  5 active torsions:
  status: ('A' for Active; 'I' for Inactive)
    1  A    between atoms: S_6  and  C_19
    2  A    between atoms: S_6  and  C_22
    3  A    between atoms: C_9  and  C_22
    4  A    between atoms: C_15  and  N_23
    5  A    between atoms: C_19  and  N_24
                            x       y       z     vdW  Elec       q    Type
                         _______ _______ _______ _____ _____    ______ ____

>  <TORSDO>
F 5

$$$$
=
 OpenBabel11052417473D

 31 34  0  0  1  0  0  0  0  0999 V2000
  190.2490  171.2030  141.8310 C   0  0  1  0  0  3  0  0  0  0  0  0
  189.8800  173.9790  144.4660 C   0  0  2  0  0  3  0  0  0  0  0  0
  191.1190  174.4730  145.2080 C   0  0  0  0  0  0  0  0  0  0  0  0
  193.0120  173.5160  143.3440 Cl  0  0  0  0  0  0  0  0  0  0  0  0
  190.0250  173.2500  143.1590 C   0  0  0  0  0  0  0  0  0  0  0  0
  191.0990  171.9870  140.8270 C   0  0  0  0  0  2  0  0  0  0  0  0
  192.4780  174.2970  144.8220 C   0  0  0  0  0  0  0  0  0  0  0  0
  189.0500  176.0400  143.1580 C   0  0  2  0  0  3  0  0  0  0  0  0
  190.8250  169.8170  142.0230 C   0  0  0  0  0  1  0  0  0  0  0  0
  189.4270  175.3940  146.8250 C   0  0  0  0  0  2  0  0  0  0  0  0
  193.4980  174.7860  145.6440 C   0  0  0  0  0  3  0  0  0  0  0  0
  189.9350  175.4830  142.0290 C   0  0  0  0  0  2  0  0  0  0  0  0
  188.8090  175.0880  144.3470 C   0  0  2  0  0  3  0  0  0  0  0  0
  190.2080  171.9250  143.1460 C   0  0  0  0  0  3  0  0  0  0  0  0
  193.2060  175.4470  146.8350 C   0  0  0  0  0  3  0  0  0  0  0  0
  189.7890  173.9740  141.8520 C   0  0  1  0  0  3  0  0  0  0  0  0
  190.7090  173.4760  140.7260 C   0  0  0  0  0  2  0  0  0  0  0  0
  188.6140  175.9110  145.6350 C   0  0  0  0  0  2  0  0  0  0  0  0
  190.8470  175.1620  146.4100 C   0  0  0  0  0  0  0  0  0  0  0  0
  191.8820  175.6370  147.2170 C   0  0  0  0  0  3  0  0  0  0  0  0
  188.6690  178.5070  141.6550 O   0  0  0  0  0  0  0  0  0  0  0  0
  187.6590  177.8040  141.9190 C   0  0  0  0  0  0  0  0  0  0  0  0
  187.7940  176.5670  142.6340 N   0  0  0  0  0  2  0  0  0  0  0  0
  185.9540  177.6470  140.1390 C   0  0  0  0  0  1  0  0  0  0  0  0
  186.3140  178.2690  141.4760 C   0  0  1  0  0  3  0  0  0  0  0  0
  185.0590  177.8440  142.7230 S   0  0  0  0  0  0  0  0  0  0  0  0
  185.4320  179.3030  143.7370 C   0  0  0  0  0  2  0  0  0  0  0  0
  185.6300  178.5340  146.1360 C   0  0  0  0  0  0  0  0  0  0  0  0
  184.1510  178.5280  146.3170 C   0  0  0  0  0  1  0  0  0  0  0  0
  186.3690  178.2020  147.0990 O   0  0  0  0  0  0  0  0  0  0  0  0
  186.2230  178.9080  144.8920 N   0  0  0  0  0  2  0  0  0  0  0  0
  1  9  1  1  0  0  0
  1 14  1  0  0  0  0
  2  5  1  6  0  0  0
  2  3  1  0  0  0  0
  3 19  1  0  0  0  0
  4  7  1  0  0  0  0
  6  1  1  0  0  0  0
  7  3  2  0  0  0  0
  7 11  1  0  0  0  0
  8 23  1  6  0  0  0
  8 13  1  0  0  0  0
 11 15  2  0  0  0  0
 12  8  1  0  0  0  0
 13  2  1  0  0  0  0
 13 18  1  1  0  0  0
 14  5  2  0  0  0  0
 15 20  1  0  0  0  0
 16 17  1  6  0  0  0
 16 12  1  0  0  0  0
 16  5  1  0  0  0  0
 17  6  1  0  0  0  0
 18 10  1  0  0  0  0
 19 10  1  0  0  0  0
 19 20  2  0  0  0  0
 21 22  2  0  0  0  0
 22 23  1  0  0  0  0
 25 24  1  6  0  0  0
 25 22  1  0  0  0  0
 25 26  1  0  0  0  0
 26 27  1  0  0  0  0
 27 31  1  0  0  0  0
 28 29  1  0  0  0  0
 28 30  2  0  0  0  0
 31 28  1  0  0  0  0
M  END
>  <MODEL>
3

>  <REMARK>
 VINA RESULT:      -7.8      2.195      3.616
  Name = 
  5 active torsions:
  status: ('A' for Active; 'I' for Inactive)
    1  A    between atoms: S_6  and  C_19
    2  A    between atoms: S_6  and  C_22
    3  A    between atoms: C_9  and  C_22
    4  A    between atoms: C_15  and  N_23
    5  A    between atoms: C_19  and  N_24
                            x       y       z     vdW  Elec       q    Type
                         _______ _______ _______ _____ _____    ______ ____

>  <TORSDO>
F 5

$$$$
=
 OpenBabel11052417473D

 31 34  0  0  1  0  0  0  0  0999 V2000
  193.2690  176.9640  145.4330 C   0  0  1  0  0  3  0  0  0  0  0  0
  190.3070  175.7230  143.3190 C   0  0  2  0  0  3  0  0  0  0  0  0
  190.1900  174.2340  142.9990 C   0  0  0  0  0  0  0  0  0  0  0  0
  191.8830  173.3270  145.0690 Cl  0  0  0  0  0  0  0  0  0  0  0  0
  191.1560  176.1810  144.4720 C   0  0  0  0  0  0  0  0  0  0  0  0
  192.9050  176.2450  146.7350 C   0  0  0  0  0  2  0  0  0  0  0  0
  190.8410  173.1600  143.6670 C   0  0  0  0  0  0  0  0  0  0  0  0
  188.2110  176.2440  144.7270 C   0  0  2  0  0  3  0  0  0  0  0  0
  194.7450  176.7930  145.1470 C   0  0  0  0  0  1  0  0  0  0  0  0
  188.6190  175.0400  141.2070 C   0  0  0  0  0  2  0  0  0  0  0  0
  190.6490  171.8490  143.2170 C   0  0  0  0  0  3  0  0  0  0  0  0
  189.1280  175.9270  145.9210 C   0  0  0  0  0  2  0  0  0  0  0  0
  188.9200  176.4050  143.3660 C   0  0  2  0  0  3  0  0  0  0  0  0
  192.4620  176.4100  144.2960 C   0  0  0  0  0  3  0  0  0  0  0  0
  189.8260  171.5780  142.1260 C   0  0  0  0  0  3  0  0  0  0  0  0
  190.5120  176.5570  145.7890 C   0  0  1  0  0  3  0  0  0  0  0  0
  191.3860  176.1890  146.9990 C   0  0  0  0  0  2  0  0  0  0  0  0
  187.9690  175.9690  142.2350 C   0  0  0  0  0  2  0  0  0  0  0  0
  189.3470  173.9330  141.9070 C   0  0  0  0  0  0  0  0  0  0  0  0
  189.1730  172.6190  141.4730 C   0  0  0  0  0  3  0  0  0  0  0  0
  186.2530  176.4670  146.8730 O   0  0  0  0  0  0  0  0  0  0  0  0
  186.3780  177.4310  146.0730 C   0  0  0  0  0  0  0  0  0  0  0  0
  187.3450  177.3830  145.0140 N   0  0  0  0  0  2  0  0  0  0  0  0
  185.9550  179.4430  147.4410 C   0  0  0  0  0  1  0  0  0  0  0  0
  185.5090  178.6310  146.2390 C   0  0  1  0  0  3  0  0  0  0  0  0
  185.5570  179.6550  144.7370 S   0  0  0  0  0  0  0  0  0  0  0  0
  184.4320  178.5540  143.8310 C   0  0  0  0  0  2  0  0  0  0  0  0
  184.0700  178.2130  141.3540 C   0  0  0  0  0  0  0  0  0  0  0  0
  182.5890  178.2960  141.5000 C   0  0  0  0  0  1  0  0  0  0  0  0
  184.5660  178.0290  140.2120 O   0  0  0  0  0  0  0  0  0  0  0  0
  184.9340  178.3400  142.4840 N   0  0  0  0  0  2  0  0  0  0  0  0
  1  9  1  6  0  0  0
  1  6  1  0  0  0  0
  2  3  1  1  0  0  0
  2 13  1  0  0  0  0
  2  5  1  0  0  0  0
  3  7  1  0  0  0  0
  5 16  1  0  0  0  0
  6 17  1  0  0  0  0
  7  4  1  0  0  0  0
  8 23  1  1  0  0  0
  8 12  1  0  0  0  0
 10 19  1  0  0  0  0
 10 18  1  0  0  0  0
 11  7  2  0  0  0  0
 13 18  1  6  0  0  0
 13  8  1  0  0  0  0
 14  5  2  0  0  0  0
 14  1  1  0  0  0  0
 15 11  1  0  0  0  0
 16 12  1  1  0  0  0
 16 17  1  0  0  0  0
 19  3  2  0  0  0  0
 20 19  1  0  0  0  0
 20 15  2  0  0  0  0
 22 25  1  0  0  0  0
 22 21  2  0  0  0  0
 23 22  1  0  0  0  0
 25 24  1  1  0  0  0
 26 25  1  0  0  0  0
 27 26  1  0  0  0  0
 28 29  1  0  0  0  0
 28 31  1  0  0  0  0
 30 28  2  0  0  0  0
 31 27  1  0  0  0  0
M  END
>  <MODEL>
4

>  <REMARK>
 VINA RESULT:      -7.7      1.539      4.314
  Name = 
  5 active torsions:
  status: ('A' for Active; 'I' for Inactive)
    1  A    between atoms: S_6  and  C_19
    2  A    between atoms: S_6  and  C_22
    3  A    between atoms: C_9  and  C_22
    4  A    between atoms: C_15  and  N_23
    5  A    between atoms: C_19  and  N_24
                            x       y       z     vdW  Elec       q    Type
                         _______ _______ _______ _____ _____    ______ ____

>  <TORSDO>
F 5

$$$$
=
 OpenBabel11052417473D

 31 34  0  0  1  0  0  0  0  0999 V2000
  195.5430  170.3240  146.0640 C   0  0  1  0  0  3  0  0  0  0  0  0
  195.0130  174.0540  145.2940 C   0  0  2  0  0  3  0  0  0  0  0  0
  195.7190  174.6750  144.0900 C   0  0  0  0  0  0  0  0  0  0  0  0
  196.2340  172.2520  142.7350 Cl  0  0  0  0  0  0  0  0  0  0  0  0
  194.8300  172.5640  145.3730 C   0  0  0  0  0  0  0  0  0  0  0  0
  194.8790  169.7600  144.8060 C   0  0  0  0  0  2  0  0  0  0  0  0
  196.2880  173.9880  142.9820 C   0  0  0  0  0  0  0  0  0  0  0  0
  192.5020  174.2770  144.7530 C   0  0  2  0  0  3  0  0  0  0  0  0
  196.8530  169.6100  146.3200 C   0  0  0  0  0  1  0  0  0  0  0  0
  195.1860  176.8370  145.2610 C   0  0  0  0  0  2  0  0  0  0  0  0
  196.9330  174.7160  141.9760 C   0  0  0  0  0  3  0  0  0  0  0  0
  192.6700  172.8760  144.1430 C   0  0  0  0  0  2  0  0  0  0  0  0
  193.6840  174.7770  145.6100 C   0  0  2  0  0  3  0  0  0  0  0  0
  195.7890  171.7950  145.9020 C   0  0  0  0  0  3  0  0  0  0  0  0
  197.0250  176.1050  142.0410 C   0  0  0  0  0  3  0  0  0  0  0  0
  193.4960  171.9410  145.0220 C   0  0  1  0  0  3  0  0  0  0  0  0
  193.6440  170.5660  144.3520 C   0  0  0  0  0  2  0  0  0  0  0  0
  193.7710  176.3140  145.5210 C   0  0  0  0  0  2  0  0  0  0  0  0
  195.8080  176.0830  144.1250 C   0  0  0  0  0  0  0  0  0  0  0  0
  196.4600  176.7880  143.1130 C   0  0  0  0  0  3  0  0  0  0  0  0
  190.3240  176.1290  144.1930 O   0  0  0  0  0  0  0  0  0  0  0  0
  190.2060  175.3420  145.1680 C   0  0  0  0  0  0  0  0  0  0  0  0
  191.2370  174.3930  145.4720 N   0  0  0  0  0  2  0  0  0  0  0  0
  189.1590  174.5940  147.2760 C   0  0  0  0  0  1  0  0  0  0  0  0
  188.9750  175.4040  146.0060 C   0  0  1  0  0  3  0  0  0  0  0  0
  188.5790  177.1310  146.4170 S   0  0  0  0  0  0  0  0  0  0  0  0
  186.9880  177.0770  145.5430 C   0  0  0  0  0  2  0  0  0  0  0  0
  185.5620  179.0680  144.9190 C   0  0  0  0  0  0  0  0  0  0  0  0
  184.4290  178.5940  145.7640 C   0  0  0  0  0  1  0  0  0  0  0  0
  185.4420  180.1430  144.2750 O   0  0  0  0  0  0  0  0  0  0  0  0
  186.7790  178.3260  144.8280 N   0  0  0  0  0  2  0  0  0  0  0  0
  1  9  1  6  0  0  0
  2  3  1  6  0  0  0
  2  5  1  0  0  0  0
  2 13  1  0  0  0  0
  3 19  1  0  0  0  0
  4  7  1  0  0  0  0
  5 14  2  0  0  0  0
  6  1  1  0  0  0  0
  7  3  2  0  0  0  0
  8 23  1  1  0  0  0
  8 13  1  0  0  0  0
 10 18  1  0  0  0  0
 11 15  2  0  0  0  0
 11  7  1  0  0  0  0
 12  8  1  0  0  0  0
 13 18  1  6  0  0  0
 14  1  1  0  0  0  0
 15 20  1  0  0  0  0
 16 12  1  6  0  0  0
 16  5  1  0  0  0  0
 17  6  1  0  0  0  0
 17 16  1  0  0  0  0
 19 10  1  0  0  0  0
 20 19  2  0  0  0  0
 21 22  2  0  0  0  0
 22 23  1  0  0  0  0
 22 25  1  0  0  0  0
 25 26  1  0  0  0  0
 25 24  1  1  0  0  0
 27 26  1  0  0  0  0
 28 29  1  0  0  0  0
 30 28  2  0  0  0  0
 31 28  1  0  0  0  0
 31 27  1  0  0  0  0
M  END
>  <MODEL>
5

>  <REMARK>
 VINA RESULT:      -7.3      3.419      5.261
  Name = 
  5 active torsions:
  status: ('A' for Active; 'I' for Inactive)
    1  A    between atoms: S_6  and  C_19
    2  A    between atoms: S_6  and  C_22
    3  A    between atoms: C_9  and  C_22
    4  A    between atoms: C_15  and  N_23
    5  A    between atoms: C_19  and  N_24
                            x       y       z     vdW  Elec       q    Type
                         _______ _______ _______ _____ _____    ______ ____

>  <TORSDO>
F 5

$$$$
=
 OpenBabel11052417473D

 31 34  0  0  1  0  0  0  0  0999 V2000
  187.1170  177.8210  142.3280 C   0  0  1  0  0  3  0  0  0  0  0  0
  190.5650  176.5960  143.5090 C   0  0  2  0  0  3  0  0  0  0  0  0
  190.7840  176.2980  144.9910 C   0  0  0  0  0  0  0  0  0  0  0  0
  188.0560  176.0250  145.6700 Cl  0  0  0  0  0  0  0  0  0  0  0  0
  189.1710  176.6380  142.9480 C   0  0  0  0  0  0  0  0  0  0  0  0
  186.3250  176.5540  142.6610 C   0  0  0  0  0  2  0  0  0  0  0  0
  189.7830  176.0730  145.9780 C   0  0  0  0  0  0  0  0  0  0  0  0
  190.9060  174.3230  142.3400 C   0  0  2  0  0  3  0  0  0  0  0  0
  186.3570  179.0420  142.8030 C   0  0  0  0  0  1  0  0  0  0  0  0
  193.2150  176.4620  144.3660 C   0  0  0  0  0  2  0  0  0  0  0  0
  190.1620  175.8490  147.3060 C   0  0  0  0  0  3  0  0  0  0  0  0
  189.3860  174.1780  142.5240 C   0  0  0  0  0  2  0  0  0  0  0  0
  191.4800  175.7290  142.6140 C   0  0  2  0  0  3  0  0  0  0  0  0
  188.4650  177.7740  142.9860 C   0  0  0  0  0  3  0  0  0  0  0  0
  191.5040  175.8380  147.6780 C   0  0  0  0  0  3  0  0  0  0  0  0
  188.6230  175.4550  142.1800 C   0  0  1  0  0  3  0  0  0  0  0  0
  187.1150  175.2540  142.4020 C   0  0  0  0  0  2  0  0  0  0  0  0
  192.9260  175.6030  143.1320 C   0  0  0  0  0  2  0  0  0  0  0  0
  192.1380  176.2650  145.3890 C   0  0  0  0  0  0  0  0  0  0  0  0
  192.4920  176.0440  146.7200 C   0  0  0  0  0  3  0  0  0  0  0  0
  191.6510  171.5870  141.6720 O   0  0  0  0  0  0  0  0  0  0  0  0
  191.7120  172.4630  140.7690 C   0  0  0  0  0  0  0  0  0  0  0  0
  191.3310  173.8190  141.0380 N   0  0  0  0  0  2  0  0  0  0  0  0
  191.3480  170.9220  138.8730 C   0  0  0  0  0  1  0  0  0  0  0  0
  192.1810  172.0720  139.4090 C   0  0  1  0  0  3  0  0  0  0  0  0
  192.0850  173.4940  138.2790 S   0  0  0  0  0  0  0  0  0  0  0  0
  190.5450  172.9090  137.5150 C   0  0  0  0  0  2  0  0  0  0  0  0
  188.4260  173.9620  138.4000 C   0  0  0  0  0  0  0  0  0  0  0  0
  188.2000  172.8410  139.3560 C   0  0  0  0  0  1  0  0  0  0  0  0
  187.6040  174.9150  138.3630 O   0  0  0  0  0  0  0  0  0  0  0  0
  189.5560  173.9750  137.5270 N   0  0  0  0  0  2  0  0  0  0  0  0
  1  6  1  0  0  0  0
  1  9  1  1  0  0  0
  1 14  1  0  0  0  0
  2  5  1  6  0  0  0
  2  3  1  0  0  0  0
  3 19  2  0  0  0  0
  3  7  1  0  0  0  0
  4  7  1  0  0  0  0
  5 14  2  0  0  0  0
  7 11  2  0  0  0  0
  8 23  1  6  0  0  0
  8 12  1  0  0  0  0
  8 13  1  0  0  0  0
 10 19  1  0  0  0  0
 11 15  1  0  0  0  0
 13 18  1  1  0  0  0
 13  2  1  0  0  0  0
 16 17  1  1  0  0  0
 16 12  1  0  0  0  0
 16  5  1  0  0  0  0
 17  6  1  0  0  0  0
 18 10  1  0  0  0  0
 19 20  1  0  0  0  0
 20 15  2  0  0  0  0
 22 23  1  0  0  0  0
 22 21  2  0  0  0  0
 25 24  1  6  0  0  0
 25 22  1  0  0  0  0
 26 25  1  0  0  0  0
 27 31  1  0  0  0  0
 27 26  1  0  0  0  0
 28 29  1  0  0  0  0
 30 28  2  0  0  0  0
 31 28  1  0  0  0  0
M  END
>  <MODEL>
6

>  <REMARK>
 VINA RESULT:      -7.3      4.202      6.562
  Name = 
  5 active torsions:
  status: ('A' for Active; 'I' for Inactive)
    1  A    between atoms: S_6  and  C_19
    2  A    between atoms: S_6  and  C_22
    3  A    between atoms: C_9  and  C_22
    4  A    between atoms: C_15  and  N_23
    5  A    between atoms: C_19  and  N_24
                            x       y       z     vdW  Elec       q    Type
                         _______ _______ _______ _____ _____    ______ ____

>  <TORSDO>
F 5

$$$$
=
 OpenBabel11052417473D

 31 34  0  0  1  0  0  0  0  0999 V2000
  196.8440  175.6120  141.2640 C   0  0  1  0  0  3  0  0  0  0  0  0
  194.4830  173.5620  143.5010 C   0  0  2  0  0  3  0  0  0  0  0  0
  195.0740  172.5450  144.4760 C   0  0  0  0  0  0  0  0  0  0  0  0
  197.6830  173.6230  144.5230 Cl  0  0  0  0  0  0  0  0  0  0  0  0
  195.3430  174.6670  142.9530 C   0  0  0  0  0  0  0  0  0  0  0  0
  197.5460  176.3980  142.3750 C   0  0  0  0  0  2  0  0  0  0  0  0
  196.4180  172.4790  144.9370 C   0  0  0  0  0  0  0  0  0  0  0  0
  193.3160  175.2950  145.0120 C   0  0  2  0  0  3  0  0  0  0  0  0
  197.8670  175.0910  140.2770 C   0  0  0  0  0  1  0  0  0  0  0  0
  192.7280  171.6350  144.4940 C   0  0  0  0  0  2  0  0  0  0  0  0
  196.8000  171.4520  145.8070 C   0  0  0  0  0  3  0  0  0  0  0  0
  194.6660  176.0300  144.9430 C   0  0  0  0  0  2  0  0  0  0  0  0
  193.1410  174.1290  144.0170 C   0  0  2  0  0  3  0  0  0  0  0  0
  196.0740  174.4660  141.8520 C   0  0  0  0  0  3  0  0  0  0  0  0
  195.8840  170.4930  146.2320 C   0  0  0  0  0  3  0  0  0  0  0  0
  195.2530  176.0610  143.5350 C   0  0  1  0  0  3  0  0  0  0  0  0
  196.6070  176.7890  143.5340 C   0  0  0  0  0  2  0  0  0  0  0  0
  192.2050  173.0680  144.6270 C   0  0  0  0  0  2  0  0  0  0  0  0
  194.1590  171.5720  144.9330 C   0  0  0  0  0  0  0  0  0  0  0  0
  194.5640  170.5540  145.7970 C   0  0  0  0  0  3  0  0  0  0  0  0
  191.1660  175.6270  146.9490 O   0  0  0  0  0  0  0  0  0  0  0  0
  191.1520  176.3380  145.9100 C   0  0  0  0  0  0  0  0  0  0  0  0
  192.2000  176.2330  144.9360 N   0  0  0  0  0  2  0  0  0  0  0  0
  189.9320  177.6850  144.2380 C   0  0  0  0  0  1  0  0  0  0  0  0
  190.0310  177.2980  145.7020 C   0  0  1  0  0  3  0  0  0  0  0  0
  188.4630  176.5660  146.2640 S   0  0  0  0  0  0  0  0  0  0  0  0
  187.4590  177.7350  145.3020 C   0  0  0  0  0  2  0  0  0  0  0  0
  185.1640  178.7860  145.4280 C   0  0  0  0  0  0  0  0  0  0  0  0
  185.4500  179.6850  144.2730 C   0  0  0  0  0  1  0  0  0  0  0  0
  184.0410  178.8460  145.9920 O   0  0  0  0  0  0  0  0  0  0  0  0
  186.1410  177.8590  145.9040 N   0  0  0  0  0  2  0  0  0  0  0  0
  1  9  1  6  0  0  0
  1 14  1  0  0  0  0
  1  6  1  0  0  0  0
  2  5  1  1  0  0  0
  2 13  1  0  0  0  0
  2  3  1  0  0  0  0
  3 19  2  0  0  0  0
  3  7  1  0  0  0  0
  4  7  1  0  0  0  0
  5 16  1  0  0  0  0
  6 17  1  0  0  0  0
  7 11  2  0  0  0  0
  8 23  1  6  0  0  0
 10 18  1  0  0  0  0
 10 19  1  0  0  0  0
 11 15  1  0  0  0  0
 12  8  1  0  0  0  0
 13 18  1  1  0  0  0
 13  8  1  0  0  0  0
 14  5  2  0  0  0  0
 16 17  1  1  0  0  0
 16 12  1  0  0  0  0
 19 20  1  0  0  0  0
 20 15  2  0  0  0  0
 22 21  2  0  0  0  0
 23 22  1  0  0  0  0
 25 24  1  6  0  0  0
 25 22  1  0  0  0  0
 25 26  1  0  0  0  0
 27 31  1  0  0  0  0
 27 26  1  0  0  0  0
 28 31  1  0  0  0  0
 28 30  2  0  0  0  0
 29 28  1  0  0  0  0
M  END
>  <MODEL>
7

>  <REMARK>
 VINA RESULT:      -7.0      3.430      5.475
  Name = 
  5 active torsions:
  status: ('A' for Active; 'I' for Inactive)
    1  A    between atoms: S_6  and  C_19
    2  A    between atoms: S_6  and  C_22
    3  A    between atoms: C_9  and  C_22
    4  A    between atoms: C_15  and  N_23
    5  A    between atoms: C_19  and  N_24
                            x       y       z     vdW  Elec       q    Type
                         _______ _______ _______ _____ _____    ______ ____

>  <TORSDO>
F 5

$$$$
=
 OpenBabel11052417473D

 31 34  0  0  1  0  0  0  0  0999 V2000
  186.1670  178.5940  143.6970 C   0  0  1  0  0  3  0  0  0  0  0  0
  189.6470  176.9680  143.8490 C   0  0  2  0  0  3  0  0  0  0  0  0
  190.1590  176.4220  145.1800 C   0  0  0  0  0  0  0  0  0  0  0  0
  187.6390  176.2280  146.4380 Cl  0  0  0  0  0  0  0  0  0  0  0  0
  188.1750  177.1930  143.6430 C   0  0  0  0  0  0  0  0  0  0  0  0
  185.3440  177.3460  144.0260 C   0  0  0  0  0  2  0  0  0  0  0  0
  189.3860  176.1100  146.3330 C   0  0  0  0  0  0  0  0  0  0  0  0
  189.4860  174.8940  142.3250 C   0  0  2  0  0  3  0  0  0  0  0  0
  185.6600  179.7710  144.5040 C   0  0  0  0  0  1  0  0  0  0  0  0
  192.3940  176.5210  144.0290 C   0  0  0  0  0  2  0  0  0  0  0  0
  190.0260  175.6520  147.4900 C   0  0  0  0  0  3  0  0  0  0  0  0
  188.0380  174.8240  142.8400 C   0  0  0  0  0  2  0  0  0  0  0  0
  190.2470  176.1960  142.6510 C   0  0  2  0  0  3  0  0  0  0  0  0
  187.6150  178.3520  144.0050 C   0  0  0  0  0  3  0  0  0  0  0  0
  191.4100  175.4910  147.5300 C   0  0  0  0  0  3  0  0  0  0  0  0
  187.3520  176.1870  142.8680 C   0  0  1  0  0  3  0  0  0  0  0  0
  185.9190  176.0550  143.4090 C   0  0  0  0  0  2  0  0  0  0  0  0
  191.7510  175.8920  142.7900 C   0  0  0  0  0  2  0  0  0  0  0  0
  191.5580  176.2360  145.2390 C   0  0  0  0  0  0  0  0  0  0  0  0
  192.1740  175.7810  146.4040 C   0  0  0  0  0  3  0  0  0  0  0  0
  190.0050  172.2890  141.1280 O   0  0  0  0  0  0  0  0  0  0  0  0
  189.8410  173.2780  140.3650 C   0  0  0  0  0  0  0  0  0  0  0  0
  189.5560  174.5770  140.9020 N   0  0  0  0  0  2  0  0  0  0  0  0
  188.9040  173.9300  138.1750 C   0  0  0  0  0  1  0  0  0  0  0  0
  189.9400  173.0820  138.8910 C   0  0  1  0  0  3  0  0  0  0  0  0
  191.6100  173.5110  138.3110 S   0  0  0  0  0  0  0  0  0  0  0  0
  191.0640  173.7270  136.5920 C   0  0  0  0  0  2  0  0  0  0  0  0
  190.9550  171.5970  135.2350 C   0  0  0  0  0  0  0  0  0  0  0  0
  189.5080  171.4110  135.5360 C   0  0  0  0  0  1  0  0  0  0  0  0
  191.5470  170.7540  134.5130 O   0  0  0  0  0  0  0  0  0  0  0  0
  191.6820  172.7140  135.7510 N   0  0  0  0  0  2  0  0  0  0  0  0
  1 14  1  0  0  0  0
  1  6  1  0  0  0  0
  1  9  1  1  0  0  0
  2  5  1  1  0  0  0
  2  3  1  0  0  0  0
  3 19  2  0  0  0  0
  3  7  1  0  0  0  0
  5 14  2  0  0  0  0
  7  4  1  0  0  0  0
  7 11  2  0  0  0  0
  8 23  1  6  0  0  0
  8 13  1  0  0  0  0
  8 12  1  0  0  0  0
 10 19  1  0  0  0  0
 11 15  1  0  0  0  0
 13 18  1  1  0  0  0
 13  2  1  0  0  0  0
 16 12  1  1  0  0  0
 16 17  1  0  0  0  0
 16  5  1  0  0  0  0
 17  6  1  0  0  0  0
 18 10  1  0  0  0  0
 19 20  1  0  0  0  0
 20 15  2  0  0  0  0
 22 23  1  0  0  0  0
 22 21  2  0  0  0  0
 25 24  1  6  0  0  0
 25 22  1  0  0  0  0
 26 25  1  0  0  0  0
 27 26  1  0  0  0  0
 28 29  1  0  0  0  0
 28 31  1  0  0  0  0
 30 28  2  0  0  0  0
 31 27  1  0  0  0  0
M  END
>  <MODEL>
8

>  <REMARK>
 VINA RESULT:      -6.9      5.009      7.336
  Name = 
  5 active torsions:
  status: ('A' for Active; 'I' for Inactive)
    1  A    between atoms: S_6  and  C_19
    2  A    between atoms: S_6  and  C_22
    3  A    between atoms: C_9  and  C_22
    4  A    between atoms: C_15  and  N_23
    5  A    between atoms: C_19  and  N_24
                            x       y       z     vdW  Elec       q    Type
                         _______ _______ _______ _____ _____    ______ ____

>  <TORSDO>
F 5

$$$$
=
 OpenBabel11052417473D

 31 34  0  0  1  0  0  0  0  0999 V2000
  186.4400  178.4160  143.3860 C   0  0  1  0  0  3  0  0  0  0  0  0
  189.9290  176.8790  143.8870 C   0  0  2  0  0  3  0  0  0  0  0  0
  190.3250  176.3590  145.2670 C   0  0  0  0  0  0  0  0  0  0  0  0
  187.7010  176.1130  146.2820 Cl  0  0  0  0  0  0  0  0  0  0  0  0
  188.4780  177.0650  143.5390 C   0  0  0  0  0  0  0  0  0  0  0  0
  185.6200  177.1500  143.6500 C   0  0  0  0  0  2  0  0  0  0  0  0
  189.4530  176.0390  146.3450 C   0  0  0  0  0  0  0  0  0  0  0  0
  189.9640  174.7870  142.3790 C   0  0  2  0  0  3  0  0  0  0  0  0
  185.8310  179.5870  144.1260 C   0  0  0  0  0  1  0  0  0  0  0  0
  192.6560  176.5040  144.3330 C   0  0  0  0  0  2  0  0  0  0  0  0
  189.9910  175.6070  147.5620 C   0  0  0  0  0  3  0  0  0  0  0  0
  188.4760  174.6850  142.7550 C   0  0  0  0  0  2  0  0  0  0  0  0
  190.6590  176.1120  142.7600 C   0  0  2  0  0  3  0  0  0  0  0  0
  187.8590  178.2130  143.8320 C   0  0  0  0  0  3  0  0  0  0  0  0
  191.3670  175.4820  147.7360 C   0  0  0  0  0  3  0  0  0  0  0  0
  187.7580  176.0310  142.7020 C   0  0  1  0  0  3  0  0  0  0  0  0
  186.2830  175.8680  143.1050 C   0  0  0  0  0  2  0  0  0  0  0  0
  192.1500  175.8470  143.0460 C   0  0  0  0  0  2  0  0  0  0  0  0
  191.7150  176.2090  145.4610 C   0  0  0  0  0  0  0  0  0  0  0  0
  192.2290  175.7810  146.6850 C   0  0  0  0  0  3  0  0  0  0  0  0
  190.0360  172.1310  141.1850 O   0  0  0  0  0  0  0  0  0  0  0  0
  190.2280  173.1280  140.4410 C   0  0  0  0  0  0  0  0  0  0  0  0
  190.1780  174.4590  140.9730 N   0  0  0  0  0  2  0  0  0  0  0  0
  189.3950  173.5060  138.1470 C   0  0  0  0  0  1  0  0  0  0  0  0
  190.5060  172.9110  138.9930 C   0  0  1  0  0  3  0  0  0  0  0  0
  192.1040  173.6540  138.5410 S   0  0  0  0  0  0  0  0  0  0  0  0
  193.0470  172.4880  139.5660 C   0  0  0  0  0  2  0  0  0  0  0  0
  194.1960  173.1350  141.7220 C   0  0  0  0  0  0  0  0  0  0  0  0
  193.2570  172.3130  142.5360 C   0  0  0  0  0  1  0  0  0  0  0  0
  195.1100  173.7790  142.2990 O   0  0  0  0  0  0  0  0  0  0  0  0
  194.0780  173.2050  140.3000 N   0  0  0  0  0  2  0  0  0  0  0  0
  1  6  1  0  0  0  0
  1 14  1  0  0  0  0
  1  9  1  1  0  0  0
  2  5  1  6  0  0  0
  2  3  1  0  0  0  0
  3 19  2  0  0  0  0
  3  7  1  0  0  0  0
  4  7  1  0  0  0  0
  5 14  2  0  0  0  0
  7 11  2  0  0  0  0
  8 23  1  6  0  0  0
  8 12  1  0  0  0  0
  8 13  1  0  0  0  0
 10 19  1  0  0  0  0
 11 15  1  0  0  0  0
 13 18  1  1  0  0  0
 13  2  1  0  0  0  0
 16 12  1  1  0  0  0
 16 17  1  0  0  0  0
 16  5  1  0  0  0  0
 17  6  1  0  0  0  0
 18 10  1  0  0  0  0
 19 20  1  0  0  0  0
 20 15  2  0  0  0  0
 22 23  1  0  0  0  0
 22 21  2  0  0  0  0
 25 24  1  6  0  0  0
 25 22  1  0  0  0  0
 26 25  1  0  0  0  0
 26 27  1  0  0  0  0
 27 31  1  0  0  0  0
 28 30  2  0  0  0  0
 28 29  1  0  0  0  0
 31 28  1  0  0  0  0
M  END
>  <MODEL>
9

>  <REMARK>
 VINA RESULT:      -6.9      4.245      7.132
  Name = 
  5 active torsions:
  status: ('A' for Active; 'I' for Inactive)
    1  A    between atoms: S_6  and  C_19
    2  A    between atoms: S_6  and  C_22
    3  A    between atoms: C_9  and  C_22
    4  A    between atoms: C_15  and  N_23
    5  A    between atoms: C_19  and  N_24
                            x       y       z     vdW  Elec       q    Type
                         _______ _______ _______ _____ _____    ______ ____

>  <TORSDO>
F 5

$$$$
