=
 OpenBabel11052419013D

 34 37  0  0  1  0  0  0  0  0999 V2000
  190.2940  173.0580  140.7580 N   0  0  0  0  0  0  0  0  0  0  0  0
  189.4170  175.0500  142.0470 C   0  0  2  0  0  3  0  0  0  0  0  0
  188.7830  176.8530  143.6040 C   0  0  0  0  0  0  0  0  0  0  0  0
  187.0620  175.9620  141.9800 C   0  0  0  0  0  2  0  0  0  0  0  0
  189.0790  173.7550  141.2620 C   0  0  2  0  0  3  0  0  0  0  0  0
  186.0290  176.7260  142.7980 C   0  0  0  0  0  2  0  0  0  0  0  0
  188.0030  177.9150  143.8360 C   0  0  0  0  0  3  0  0  0  0  0  0
  190.6930  174.8230  142.8670 C   0  0  2  0  0  3  0  0  0  0  0  0
  191.4250  173.9750  140.5660 C   0  0  0  0  0  2  0  0  0  0  0  0
  190.0880  176.8110  144.1890 N   0  0  0  0  0  0  0  0  0  0  0  0
  190.9850  175.9100  143.9000 C   0  0  0  0  0  0  0  0  0  0  0  0
  186.6320  178.0650  143.2330 C   0  0  2  0  0  3  0  0  0  0  0  0
  188.2700  175.6390  142.8660 C   0  0  1  0  0  3  0  0  0  0  0  0
  191.8630  174.6170  141.8920 C   0  0  0  0  0  2  0  0  0  0  0  0
  194.2020  177.0000  145.5850 C   0  0  0  0  0  0  0  0  0  0  0  0
  194.5420  175.8500  146.3050 C   0  0  0  0  0  3  0  0  0  0  0  0
  192.2300  175.8710  144.7070 C   0  0  0  0  0  0  0  0  0  0  0  0
  193.7370  174.7100  146.2270 C   0  0  0  0  0  3  0  0  0  0  0  0
  193.0530  177.0100  144.7890 C   0  0  0  0  0  3  0  0  0  0  0  0
  192.5840  174.7230  145.4380 C   0  0  0  0  0  3  0  0  0  0  0  0
  194.9780  178.1100  145.6680 F   0  0  0  0  0  0  0  0  0  0  0  0
  190.0480  172.3890  139.4680 C   0  0  0  0  0  3  0  0  0  0  0  0
  189.8020  173.3990  138.3570 C   0  0  0  0  0  1  0  0  0  0  0  0
  191.1430  171.4000  139.0690 C   0  0  0  0  0  1  0  0  0  0  0  0
  188.1970  172.7840  142.0650 C   0  0  0  0  0  2  0  0  0  0  0  0
  189.0070  171.9000  143.0020 C   0  0  0  0  0  1  0  0  0  0  0  0
  185.6170  180.1810  143.7770 O   0  0  0  0  0  1  0  0  0  0  0  0
  185.7140  178.8460  144.1760 C   0  0  2  0  0  3  0  0  0  0  0  0
  186.2000  178.7820  145.5510 N   0  0  0  0  0  2  0  0  0  0  0  0
  185.2090  178.0790  146.3580 C   0  0  0  0  0  3  0  0  0  0  0  0
  185.5310  176.5920  146.3980 C   0  0  0  0  0  2  0  0  0  0  0  0
  186.8500  176.3850  146.8220 O   0  0  0  0  0  1  0  0  0  0  0  0
  185.1530  178.6610  147.7660 C   0  0  0  0  0  2  0  0  0  0  0  0
  186.0570  179.7220  147.8700 O   0  0  0  0  0  1  0  0  0  0  0  0
  1  5  1  0  0  0  0
  2 13  1  0  0  0  0
  2  8  1  0  0  0  0
  3  7  2  0  0  0  0
  3 10  1  0  0  0  0
  4  6  1  0  0  0  0
  4 13  1  0  0  0  0
  5  2  1  0  0  0  0
  5 25  1  0  0  0  0
  6 12  1  0  0  0  0
  8 11  1  0  0  0  0
  9  1  1  0  0  0  0
  9 14  1  0  0  0  0
 11 10  2  0  0  0  0
 11 17  1  0  0  0  0
 12  7  1  0  0  0  0
 12 28  1  0  0  0  0
 13  3  1  0  0  0  0
 14  8  1  0  0  0  0
 15 21  1  0  0  0  0
 15 16  1  0  0  0  0
 17 19  1  0  0  0  0
 17 20  2  0  0  0  0
 18 16  2  0  0  0  0
 19 15  2  0  0  0  0
 20 18  1  0  0  0  0
 22  1  1  0  0  0  0
 23 22  1  0  0  0  0
 24 22  1  0  0  0  0
 25 26  1  0  0  0  0
 27 28  1  0  0  0  0
 28 29  1  0  0  0  0
 29 30  1  0  0  0  0
 30 31  1  0  0  0  0
 30 33  1  0  0  0  0
 31 32  1  0  0  0  0
 33 34  1  0  0  0  0
M  END
>  <MODEL>
1

>  <REMARK>
 VINA RESULT:      -7.3      0.000      0.000
  Name = 
  8 active torsions:
  status: ('A' for Active; 'I' for Inactive)
    1  A    between atoms: N_1  and  C_6
    2  A    between atoms: C_2  and  C_15
    3  A    between atoms: C_11  and  CA_20
    4  A    between atoms: C_12  and  C_28
    5  A    between atoms: N_13  and  CA_20
    6  A    between atoms: N_13  and  C_33
    7  A    between atoms: CB_14  and  CA_20
    8  A    between atoms: C_29  and  C_33
                            x       y       z     vdW  Elec       q    Type
                         _______ _______ _______ _____ _____    ______ ____

>  <TORSDO>
F 8

$$$$
=
 OpenBabel11052419013D

 34 37  0  0  1  0  0  0  0  0999 V2000
  185.7340  177.5910  143.8250 N   0  0  0  0  0  0  0  0  0  0  0  0
  188.1510  176.8890  144.0790 C   0  0  2  0  0  3  0  0  0  0  0  0
  190.3920  175.8650  144.1560 C   0  0  0  0  0  0  0  0  0  0  0  0
  189.6440  177.3440  146.0660 C   0  0  0  0  0  2  0  0  0  0  0  0
  186.8490  177.3600  144.7820 C   0  0  2  0  0  3  0  0  0  0  0  0
  190.8490  176.8110  146.8290 C   0  0  0  0  0  2  0  0  0  0  0  0
  191.6530  175.9540  144.5920 C   0  0  0  0  0  3  0  0  0  0  0  0
  187.7860  175.9500  142.9230 C   0  0  2  0  0  3  0  0  0  0  0  0
  186.2140  177.9180  142.4760 C   0  0  0  0  0  2  0  0  0  0  0  0
  190.1310  175.1960  142.9190 N   0  0  0  0  0  0  0  0  0  0  0  0
  188.9710  175.1920  142.3240 C   0  0  0  0  0  0  0  0  0  0  0  0
  192.0280  176.6720  145.8600 C   0  0  2  0  0  3  0  0  0  0  0  0
  189.2270  176.3220  145.0020 C   0  0  1  0  0  3  0  0  0  0  0  0
  187.0190  176.7600  141.8660 C   0  0  0  0  0  2  0  0  0  0  0  0
  188.1640  174.0390  138.8040 C   0  0  0  0  0  0  0  0  0  0  0  0
  188.5190  172.6870  138.8660 C   0  0  0  0  0  3  0  0  0  0  0  0
  188.7870  174.3130  141.1430 C   0  0  0  0  0  0  0  0  0  0  0  0
  189.0010  172.1430  140.0600 C   0  0  0  0  0  3  0  0  0  0  0  0
  188.2960  174.8470  139.9370 C   0  0  0  0  0  3  0  0  0  0  0  0
  189.1410  172.9530  141.1890 C   0  0  0  0  0  3  0  0  0  0  0  0
  187.7050  174.5700  137.6430 F   0  0  0  0  0  0  0  0  0  0  0  0
  184.8580  178.6950  144.2580 C   0  0  0  0  0  3  0  0  0  0  0  0
  185.5940  180.0260  144.2410 C   0  0  0  0  0  1  0  0  0  0  0  0
  183.5510  178.7880  143.4730 C   0  0  0  0  0  1  0  0  0  0  0  0
  186.4030  176.4100  145.9070 C   0  0  0  0  0  2  0  0  0  0  0  0
  186.1720  177.1360  147.2240 C   0  0  0  0  0  1  0  0  0  0  0  0
  194.2090  176.9740  146.8370 O   0  0  0  0  0  1  0  0  0  0  0  0
  193.2480  176.0150  146.5080 C   0  0  2  0  0  3  0  0  0  0  0  0
  193.8380  175.0170  145.6210 N   0  0  0  0  0  2  0  0  0  0  0  0
  195.2500  175.3350  145.4420 C   0  0  0  0  0  3  0  0  0  0  0  0
  196.1090  174.1700  145.9160 C   0  0  0  0  0  2  0  0  0  0  0  0
  197.3810  174.2260  145.3300 O   0  0  0  0  0  1  0  0  0  0  0  0
  195.5440  175.6690  143.9840 C   0  0  0  0  0  2  0  0  0  0  0  0
  196.1130  176.9420  143.9010 O   0  0  0  0  0  1  0  0  0  0  0  0
  1 22  1  0  0  0  0
  1  5  1  0  0  0  0
  2  5  1  0  0  0  0
  2 13  1  0  0  0  0
  3  7  2  0  0  0  0
  3 13  1  0  0  0  0
  4  6  1  0  0  0  0
  5 25  1  0  0  0  0
  7 12  1  0  0  0  0
  8  2  1  0  0  0  0
  9  1  1  0  0  0  0
 10  3  1  0  0  0  0
 11 10  2  0  0  0  0
 11  8  1  0  0  0  0
 12 28  1  0  0  0  0
 12  6  1  0  0  0  0
 13  4  1  0  0  0  0
 14  9  1  0  0  0  0
 14  8  1  0  0  0  0
 15 16  2  0  0  0  0
 15 19  1  0  0  0  0
 16 18  1  0  0  0  0
 17 20  1  0  0  0  0
 17 11  1  0  0  0  0
 18 20  2  0  0  0  0
 19 17  2  0  0  0  0
 21 15  1  0  0  0  0
 23 22  1  0  0  0  0
 24 22  1  0  0  0  0
 25 26  1  0  0  0  0
 28 27  1  0  0  0  0
 29 28  1  0  0  0  0
 30 29  1  0  0  0  0
 30 31  1  0  0  0  0
 32 31  1  0  0  0  0
 33 30  1  0  0  0  0
 34 33  1  0  0  0  0
M  END
>  <MODEL>
2

>  <REMARK>
 VINA RESULT:      -6.9      3.781      7.775
  Name = 
  8 active torsions:
  status: ('A' for Active; 'I' for Inactive)
    1  A    between atoms: N_1  and  C_6
    2  A    between atoms: C_2  and  C_15
    3  A    between atoms: C_11  and  CA_20
    4  A    between atoms: C_12  and  C_28
    5  A    between atoms: N_13  and  CA_20
    6  A    between atoms: N_13  and  C_33
    7  A    between atoms: CB_14  and  CA_20
    8  A    between atoms: C_29  and  C_33
                            x       y       z     vdW  Elec       q    Type
                         _______ _______ _______ _____ _____    ______ ____

>  <TORSDO>
F 8

$$$$
=
 OpenBabel11052419013D

 34 37  0  0  1  0  0  0  0  0999 V2000
  191.8930  175.7660  145.5090 N   0  0  0  0  0  0  0  0  0  0  0  0
  190.3900  175.4750  143.4950 C   0  0  2  0  0  3  0  0  0  0  0  0
  188.6260  175.2130  141.7920 C   0  0  0  0  0  0  0  0  0  0  0  0
  190.7910  173.9310  141.5350 C   0  0  0  0  0  2  0  0  0  0  0  0
  191.5370  174.8890  144.3610 C   0  0  2  0  0  3  0  0  0  0  0  0
  190.0810  173.1300  140.4530 C   0  0  0  0  0  2  0  0  0  0  0  0
  188.3280  174.9490  140.5160 C   0  0  0  0  0  3  0  0  0  0  0  0
  189.3720  176.1650  144.4110 C   0  0  2  0  0  3  0  0  0  0  0  0
  191.5640  177.1750  145.2580 C   0  0  0  0  0  2  0  0  0  0  0  0
  187.7740  176.0870  142.5380 N   0  0  0  0  0  0  0  0  0  0  0  0
  188.0560  176.5380  143.7280 C   0  0  0  0  0  0  0  0  0  0  0  0
  189.1860  174.0730  139.6430 C   0  0  2  0  0  3  0  0  0  0  0  0
  189.7510  174.5010  142.5060 C   0  0  1  0  0  3  0  0  0  0  0  0
  190.0530  177.3780  145.0630 C   0  0  0  0  0  2  0  0  0  0  0  0
  185.5770  179.2490  144.6640 C   0  0  0  0  0  0  0  0  0  0  0  0
  184.9620  178.6880  145.7880 C   0  0  0  0  0  3  0  0  0  0  0  0
  187.0100  177.2890  144.4640 C   0  0  0  0  0  0  0  0  0  0  0  0
  185.3670  177.4350  146.2560 C   0  0  0  0  0  3  0  0  0  0  0  0
  186.5970  178.5550  144.0070 C   0  0  0  0  0  3  0  0  0  0  0  0
  186.3800  176.7370  145.5930 C   0  0  0  0  0  3  0  0  0  0  0  0
  185.1780  180.4620  144.2040 F   0  0  0  0  0  0  0  0  0  0  0  0
  193.3300  175.7010  145.8280 C   0  0  0  0  0  3  0  0  0  0  0  0
  194.1810  175.7690  144.5680 C   0  0  0  0  0  1  0  0  0  0  0  0
  193.7840  176.7450  146.8460 C   0  0  0  0  0  1  0  0  0  0  0  0
  191.2470  173.4590  144.8470 C   0  0  0  0  0  2  0  0  0  0  0  0
  192.3630  172.4860  144.4980 C   0  0  0  0  0  1  0  0  0  0  0  0
  187.7690  172.1820  139.1770 O   0  0  0  0  0  1  0  0  0  0  0  0
  188.3270  173.3330  138.6160 C   0  0  2  0  0  3  0  0  0  0  0  0
  189.1120  172.9720  137.4400 N   0  0  0  0  0  2  0  0  0  0  0  0
  189.7020  174.1870  136.8880 C   0  0  0  0  0  3  0  0  0  0  0  0
  191.1980  173.9910  136.6820 C   0  0  0  0  0  2  0  0  0  0  0  0
  191.7550  175.1030  136.0360 O   0  0  0  0  0  1  0  0  0  0  0  0
  189.0190  174.5680  135.5800 C   0  0  0  0  0  2  0  0  0  0  0  0
  188.2860  175.7430  135.7600 O   0  0  0  0  0  1  0  0  0  0  0  0
  1 22  1  0  0  0  0
  2  5  1  0  0  0  0
  2  8  1  0  0  0  0
  3 13  1  0  0  0  0
  3 10  1  0  0  0  0
  4 13  1  0  0  0  0
  5 25  1  0  0  0  0
  5  1  1  0  0  0  0
  6  4  1  0  0  0  0
  7  3  2  0  0  0  0
  8 14  1  0  0  0  0
  9  1  1  0  0  0  0
 10 11  2  0  0  0  0
 11  8  1  0  0  0  0
 11 17  1  0  0  0  0
 12  6  1  0  0  0  0
 12  7  1  0  0  0  0
 13  2  1  0  0  0  0
 14  9  1  0  0  0  0
 15 16  1  0  0  0  0
 16 18  2  0  0  0  0
 17 20  2  0  0  0  0
 19 17  1  0  0  0  0
 19 15  2  0  0  0  0
 20 18  1  0  0  0  0
 21 15  1  0  0  0  0
 22 24  1  0  0  0  0
 23 22  1  0  0  0  0
 26 25  1  0  0  0  0
 28 27  1  0  0  0  0
 28 12  1  0  0  0  0
 29 28  1  0  0  0  0
 30 29  1  0  0  0  0
 31 30  1  0  0  0  0
 32 31  1  0  0  0  0
 33 34  1  0  0  0  0
 33 30  1  0  0  0  0
M  END
>  <MODEL>
3

>  <REMARK>
 VINA RESULT:      -6.8      3.839      7.655
  Name = 
  8 active torsions:
  status: ('A' for Active; 'I' for Inactive)
    1  A    between atoms: N_1  and  C_6
    2  A    between atoms: C_2  and  C_15
    3  A    between atoms: C_11  and  CA_20
    4  A    between atoms: C_12  and  C_28
    5  A    between atoms: N_13  and  CA_20
    6  A    between atoms: N_13  and  C_33
    7  A    between atoms: CB_14  and  CA_20
    8  A    between atoms: C_29  and  C_33
                            x       y       z     vdW  Elec       q    Type
                         _______ _______ _______ _____ _____    ______ ____

>  <TORSDO>
F 8

$$$$
=
 OpenBabel11052419013D

 34 37  0  0  1  0  0  0  0  0999 V2000
  187.7530  177.5490  145.7160 N   0  0  0  0  0  0  0  0  0  0  0  0
  188.6740  176.0880  143.8690 C   0  0  2  0  0  3  0  0  0  0  0  0
  189.9200  174.8390  142.1460 C   0  0  0  0  0  0  0  0  0  0  0  0
  187.5320  175.5320  141.6850 C   0  0  0  0  0  2  0  0  0  0  0  0
  187.6510  177.1810  144.2790 C   0  0  2  0  0  3  0  0  0  0  0  0
  187.7990  175.1510  140.2350 C   0  0  0  0  0  2  0  0  0  0  0  0
  189.8650  173.9910  141.1130 C   0  0  0  0  0  3  0  0  0  0  0  0
  189.9930  176.3290  144.6140 C   0  0  2  0  0  3  0  0  0  0  0  0
  188.3060  176.4630  146.5340 C   0  0  0  0  0  2  0  0  0  0  0  0
  191.0810  174.8400  142.9820 N   0  0  0  0  0  0  0  0  0  0  0  0
  191.1720  175.5030  144.1000 C   0  0  0  0  0  0  0  0  0  0  0  0
  188.6700  173.8910  140.2040 C   0  0  2  0  0  3  0  0  0  0  0  0
  188.8580  175.8900  142.3650 C   0  0  1  0  0  3  0  0  0  0  0  0
  189.7440  176.1160  146.1160 C   0  0  0  0  0  2  0  0  0  0  0  0
  194.3250  176.8830  145.6890 C   0  0  0  0  0  0  0  0  0  0  0  0
  194.9410  175.7140  146.1470 C   0  0  0  0  0  3  0  0  0  0  0  0
  192.4900  175.5650  144.7790 C   0  0  0  0  0  0  0  0  0  0  0  0
  194.3420  174.4720  145.9200 C   0  0  0  0  0  3  0  0  0  0  0  0
  193.1070  176.8090  145.0070 C   0  0  0  0  0  3  0  0  0  0  0  0
  193.1200  174.3990  145.2470 C   0  0  0  0  0  3  0  0  0  0  0  0
  194.9020  178.0900  145.9170 F   0  0  0  0  0  0  0  0  0  0  0  0
  186.4410  177.9040  146.2880 C   0  0  0  0  0  3  0  0  0  0  0  0
  185.4360  176.7750  146.1090 C   0  0  0  0  0  1  0  0  0  0  0  0
  186.5040  178.3470  147.7480 C   0  0  0  0  0  1  0  0  0  0  0  0
  187.7340  178.4360  143.3940 C   0  0  0  0  0  2  0  0  0  0  0  0
  186.3910  178.8110  142.7860 C   0  0  0  0  0  1  0  0  0  0  0  0
  188.2670  174.1010  137.8380 O   0  0  0  0  0  1  0  0  0  0  0  0
  189.1040  173.5090  138.7880 C   0  0  2  0  0  3  0  0  0  0  0  0
  189.0950  172.0600  138.6110 N   0  0  0  0  0  2  0  0  0  0  0  0
  190.3520  171.6630  137.9880 C   0  0  0  0  0  3  0  0  0  0  0  0
  191.2870  171.0720  139.0330 C   0  0  0  0  0  2  0  0  0  0  0  0
  190.5540  170.5120  140.0890 O   0  0  0  0  0  1  0  0  0  0  0  0
  190.1010  170.6690  136.8600 C   0  0  0  0  0  2  0  0  0  0  0  0
  189.3610  171.2860  135.8480 O   0  0  0  0  0  1  0  0  0  0  0  0
  1 22  1  0  0  0  0
  1  9  1  0  0  0  0
  2  5  1  0  0  0  0
  2  8  1  0  0  0  0
  3 13  1  0  0  0  0
  3 10  1  0  0  0  0
  4 13  1  0  0  0  0
  5  1  1  0  0  0  0
  6  4  1  0  0  0  0
  7  3  2  0  0  0  0
  8 14  1  0  0  0  0
 10 11  2  0  0  0  0
 11  8  1  0  0  0  0
 11 17  1  0  0  0  0
 12  6  1  0  0  0  0
 12  7  1  0  0  0  0
 13  2  1  0  0  0  0
 14  9  1  0  0  0  0
 15 21  1  0  0  0  0
 15 16  1  0  0  0  0
 17 19  1  0  0  0  0
 17 20  2  0  0  0  0
 18 16  2  0  0  0  0
 19 15  2  0  0  0  0
 20 18  1  0  0  0  0
 22 24  1  0  0  0  0
 23 22  1  0  0  0  0
 25  5  1  0  0  0  0
 26 25  1  0  0  0  0
 27 28  1  0  0  0  0
 28 12  1  0  0  0  0
 29 28  1  0  0  0  0
 30 29  1  0  0  0  0
 30 31  1  0  0  0  0
 31 32  1  0  0  0  0
 33 30  1  0  0  0  0
 34 33  1  0  0  0  0
M  END
>  <MODEL>
4

>  <REMARK>
 VINA RESULT:      -6.7      3.360      7.059
  Name = 
  8 active torsions:
  status: ('A' for Active; 'I' for Inactive)
    1  A    between atoms: N_1  and  C_6
    2  A    between atoms: C_2  and  C_15
    3  A    between atoms: C_11  and  CA_20
    4  A    between atoms: C_12  and  C_28
    5  A    between atoms: N_13  and  CA_20
    6  A    between atoms: N_13  and  C_33
    7  A    between atoms: CB_14  and  CA_20
    8  A    between atoms: C_29  and  C_33
                            x       y       z     vdW  Elec       q    Type
                         _______ _______ _______ _____ _____    ______ ____

>  <TORSDO>
F 8

$$$$
=
 OpenBabel11052419013D

 34 37  0  0  1  0  0  0  0  0999 V2000
  187.6560  177.0660  146.3650 N   0  0  0  0  0  0  0  0  0  0  0  0
  188.5430  175.9190  144.2920 C   0  0  2  0  0  3  0  0  0  0  0  0
  189.7500  174.9820  142.3570 C   0  0  0  0  0  0  0  0  0  0  0  0
  187.3140  175.6130  142.1050 C   0  0  0  0  0  2  0  0  0  0  0  0
  187.4970  176.8940  144.8960 C   0  0  2  0  0  3  0  0  0  0  0  0
  187.5220  175.4490  140.6060 C   0  0  0  0  0  2  0  0  0  0  0  0
  189.6780  174.2820  141.2190 C   0  0  0  0  0  3  0  0  0  0  0  0
  189.8870  176.1200  145.0030 C   0  0  2  0  0  3  0  0  0  0  0  0
  188.2970  175.9060  146.9970 C   0  0  0  0  0  2  0  0  0  0  0  0
  190.9520  174.9260  143.1310 N   0  0  0  0  0  0  0  0  0  0  0  0
  191.0720  175.4320  144.3260 C   0  0  0  0  0  0  0  0  0  0  0  0
  188.4430  174.2500  140.3600 C   0  0  2  0  0  3  0  0  0  0  0  0
  188.6570  175.9400  142.7690 C   0  0  1  0  0  3  0  0  0  0  0  0
  189.7250  175.6910  146.4700 C   0  0  0  0  0  2  0  0  0  0  0  0
  194.3020  176.7430  145.8160 C   0  0  0  0  0  0  0  0  0  0  0  0
  194.9300  175.5570  146.2070 C   0  0  0  0  0  3  0  0  0  0  0  0
  192.4190  175.4660  144.9460 C   0  0  0  0  0  0  0  0  0  0  0  0
  194.3130  174.3250  145.9680 C   0  0  0  0  0  3  0  0  0  0  0  0
  193.0540  176.6980  145.1870 C   0  0  0  0  0  3  0  0  0  0  0  0
  193.0610  174.2810  145.3480 C   0  0  0  0  0  3  0  0  0  0  0  0
  194.8960  177.9390  146.0560 F   0  0  0  0  0  0  0  0  0  0  0  0
  186.3620  177.2730  147.0390 C   0  0  0  0  0  3  0  0  0  0  0  0
  186.1140  178.7480  147.3200 C   0  0  0  0  0  1  0  0  0  0  0  0
  185.1760  176.6550  146.3000 C   0  0  0  0  0  1  0  0  0  0  0  0
  187.4810  178.2620  144.1930 C   0  0  0  0  0  2  0  0  0  0  0  0
  186.1220  178.5930  143.5930 C   0  0  0  0  0  1  0  0  0  0  0  0
  187.8550  174.6740  138.0630 O   0  0  0  0  0  1  0  0  0  0  0  0
  188.8190  174.0880  138.8860 C   0  0  2  0  0  3  0  0  0  0  0  0
  188.9680  172.6780  138.5360 N   0  0  0  0  0  2  0  0  0  0  0  0
  190.1180  172.5420  137.6490 C   0  0  0  0  0  3  0  0  0  0  0  0
  189.6540  172.4920  136.2000 C   0  0  0  0  0  2  0  0  0  0  0  0
  189.3100  171.1820  135.8390 O   0  0  0  0  0  1  0  0  0  0  0  0
  191.1010  173.6870  137.8650 C   0  0  0  0  0  2  0  0  0  0  0  0
  191.5050  174.1970  136.6280 O   0  0  0  0  0  1  0  0  0  0  0  0
  1  9  1  0  0  0  0
  1 22  1  0  0  0  0
  2  5  1  0  0  0  0
  2  8  1  0  0  0  0
  3 13  1  0  0  0  0
  3 10  1  0  0  0  0
  4 13  1  0  0  0  0
  5  1  1  0  0  0  0
  6  4  1  0  0  0  0
  7  3  2  0  0  0  0
  8 14  1  0  0  0  0
 10 11  2  0  0  0  0
 11 17  1  0  0  0  0
 11  8  1  0  0  0  0
 12  6  1  0  0  0  0
 12  7  1  0  0  0  0
 13  2  1  0  0  0  0
 14  9  1  0  0  0  0
 15 21  1  0  0  0  0
 15 16  1  0  0  0  0
 17 19  1  0  0  0  0
 17 20  2  0  0  0  0
 18 16  2  0  0  0  0
 19 15  2  0  0  0  0
 20 18  1  0  0  0  0
 22 23  1  0  0  0  0
 24 22  1  0  0  0  0
 25  5  1  0  0  0  0
 26 25  1  0  0  0  0
 27 28  1  0  0  0  0
 28 12  1  0  0  0  0
 29 28  1  0  0  0  0
 30 33  1  0  0  0  0
 30 29  1  0  0  0  0
 31 30  1  0  0  0  0
 32 31  1  0  0  0  0
 34 33  1  0  0  0  0
M  END
>  <MODEL>
5

>  <REMARK>
 VINA RESULT:      -6.6      3.457      6.982
  Name = 
  8 active torsions:
  status: ('A' for Active; 'I' for Inactive)
    1  A    between atoms: N_1  and  C_6
    2  A    between atoms: C_2  and  C_15
    3  A    between atoms: C_11  and  CA_20
    4  A    between atoms: C_12  and  C_28
    5  A    between atoms: N_13  and  CA_20
    6  A    between atoms: N_13  and  C_33
    7  A    between atoms: CB_14  and  CA_20
    8  A    between atoms: C_29  and  C_33
                            x       y       z     vdW  Elec       q    Type
                         _______ _______ _______ _____ _____    ______ ____

>  <TORSDO>
F 8

$$$$
=
 OpenBabel11052419013D

 34 37  0  0  1  0  0  0  0  0999 V2000
  187.7280  177.5430  145.7200 N   0  0  0  0  0  0  0  0  0  0  0  0
  188.6550  176.0450  143.9050 C   0  0  2  0  0  3  0  0  0  0  0  0
  189.9050  174.7640  142.2100 C   0  0  0  0  0  0  0  0  0  0  0  0
  187.5160  175.4400  141.7320 C   0  0  0  0  0  2  0  0  0  0  0  0
  187.6280  177.1440  144.2900 C   0  0  2  0  0  3  0  0  0  0  0  0
  187.7860  175.0300  140.2910 C   0  0  0  0  0  2  0  0  0  0  0  0
  189.8530  173.8930  141.1960 C   0  0  0  0  0  3  0  0  0  0  0  0
  189.9720  176.3050  144.6460 C   0  0  2  0  0  3  0  0  0  0  0  0
  188.2830  176.4760  146.5610 C   0  0  0  0  0  2  0  0  0  0  0  0
  191.0660  174.7850  143.0470 N   0  0  0  0  0  0  0  0  0  0  0  0
  191.1540  175.4720  144.1510 C   0  0  0  0  0  0  0  0  0  0  0  0
  188.6600  173.7720  140.2880 C   0  0  2  0  0  3  0  0  0  0  0  0
  188.8400  175.8170  142.4060 C   0  0  1  0  0  3  0  0  0  0  0  0
  189.7220  176.1240  146.1520 C   0  0  0  0  0  2  0  0  0  0  0  0
  194.3420  176.8870  145.6370 C   0  0  0  0  0  0  0  0  0  0  0  0
  194.9210  175.7420  146.1940 C   0  0  0  0  0  3  0  0  0  0  0  0
  192.4710  175.5520  144.8290 C   0  0  0  0  0  0  0  0  0  0  0  0
  194.2850  174.5040  146.0690 C   0  0  0  0  0  3  0  0  0  0  0  0
  193.1240  176.7920  144.9570 C   0  0  0  0  0  3  0  0  0  0  0  0
  193.0640  174.4100  145.3970 C   0  0  0  0  0  3  0  0  0  0  0  0
  194.9540  178.0910  145.7660 F   0  0  0  0  0  0  0  0  0  0  0  0
  186.4150  177.9070  146.2820 C   0  0  0  0  0  3  0  0  0  0  0  0
  185.4020  176.7870  146.0930 C   0  0  0  0  0  1  0  0  0  0  0  0
  186.4700  178.3450  147.7450 C   0  0  0  0  0  1  0  0  0  0  0  0
  187.7090  178.3810  143.3800 C   0  0  0  0  0  2  0  0  0  0  0  0
  186.3690  178.7290  142.7500 C   0  0  0  0  0  1  0  0  0  0  0  0
  188.1800  173.8140  137.9270 O   0  0  0  0  0  1  0  0  0  0  0  0
  189.0960  173.3600  138.8800 C   0  0  2  0  0  3  0  0  0  0  0  0
  189.2310  171.9110  138.7770 N   0  0  0  0  0  2  0  0  0  0  0  0
  190.5920  171.6030  138.3530 C   0  0  0  0  0  3  0  0  0  0  0  0
  191.3040  172.8780  137.9260 C   0  0  0  0  0  2  0  0  0  0  0  0
  191.7440  172.7760  136.5990 O   0  0  0  0  0  1  0  0  0  0  0  0
  191.3560  170.9020  139.4700 C   0  0  0  0  0  2  0  0  0  0  0  0
  192.5620  171.5690  139.7030 O   0  0  0  0  0  1  0  0  0  0  0  0
  1 22  1  0  0  0  0
  1  9  1  0  0  0  0
  2  5  1  0  0  0  0
  2  8  1  0  0  0  0
  3 13  1  0  0  0  0
  3 10  1  0  0  0  0
  4 13  1  0  0  0  0
  5  1  1  0  0  0  0
  6  4  1  0  0  0  0
  7  3  2  0  0  0  0
  8 14  1  0  0  0  0
 10 11  2  0  0  0  0
 11  8  1  0  0  0  0
 11 17  1  0  0  0  0
 12  6  1  0  0  0  0
 12  7  1  0  0  0  0
 13  2  1  0  0  0  0
 14  9  1  0  0  0  0
 15 21  1  0  0  0  0
 15 16  1  0  0  0  0
 17 19  1  0  0  0  0
 17 20  2  0  0  0  0
 18 16  2  0  0  0  0
 19 15  2  0  0  0  0
 20 18  1  0  0  0  0
 22 24  1  0  0  0  0
 23 22  1  0  0  0  0
 25  5  1  0  0  0  0
 26 25  1  0  0  0  0
 27 28  1  0  0  0  0
 28 12  1  0  0  0  0
 29 28  1  0  0  0  0
 30 29  1  0  0  0  0
 30 33  1  0  0  0  0
 31 30  1  0  0  0  0
 32 31  1  0  0  0  0
 33 34  1  0  0  0  0
M  END
>  <MODEL>
6

>  <REMARK>
 VINA RESULT:      -6.5      3.353      6.973
  Name = 
  8 active torsions:
  status: ('A' for Active; 'I' for Inactive)
    1  A    between atoms: N_1  and  C_6
    2  A    between atoms: C_2  and  C_15
    3  A    between atoms: C_11  and  CA_20
    4  A    between atoms: C_12  and  C_28
    5  A    between atoms: N_13  and  CA_20
    6  A    between atoms: N_13  and  C_33
    7  A    between atoms: CB_14  and  CA_20
    8  A    between atoms: C_29  and  C_33
                            x       y       z     vdW  Elec       q    Type
                         _______ _______ _______ _____ _____    ______ ____

>  <TORSDO>
F 8

$$$$
=
 OpenBabel11052419013D

 34 37  0  0  1  0  0  0  0  0999 V2000
  194.4210  174.0490  144.5460 N   0  0  0  0  0  0  0  0  0  0  0  0
  191.9990  174.7680  144.6630 C   0  0  2  0  0  3  0  0  0  0  0  0
  189.6630  175.5050  144.3830 C   0  0  0  0  0  0  0  0  0  0  0  0
  190.9610  176.2630  146.4160 C   0  0  0  0  0  2  0  0  0  0  0  0
  193.4610  175.0340  145.1110 C   0  0  2  0  0  3  0  0  0  0  0  0
  189.8300  177.2540  146.6550 C   0  0  0  0  0  2  0  0  0  0  0  0
  188.5270  175.8870  144.9760 C   0  0  0  0  0  3  0  0  0  0  0  0
  191.9990  174.2910  143.2060 C   0  0  2  0  0  3  0  0  0  0  0  0
  193.7830  172.7660  144.2260 C   0  0  0  0  0  2  0  0  0  0  0  0
  189.5950  174.8180  143.1300 N   0  0  0  0  0  0  0  0  0  0  0  0
  190.6200  174.2620  142.5480 C   0  0  0  0  0  0  0  0  0  0  0  0
  188.4980  176.5790  146.3120 C   0  0  2  0  0  3  0  0  0  0  0  0
  191.0140  175.9050  144.9270 C   0  0  1  0  0  3  0  0  0  0  0  0
  192.7020  172.9260  143.1450 C   0  0  0  0  0  2  0  0  0  0  0  0
  189.0260  172.7750  139.4470 C   0  0  0  0  0  0  0  0  0  0  0  0
  190.0830  172.8350  138.5330 C   0  0  0  0  0  3  0  0  0  0  0  0
  190.4520  173.7400  141.1690 C   0  0  0  0  0  0  0  0  0  0  0  0
  191.3240  173.3400  138.9310 C   0  0  0  0  0  3  0  0  0  0  0  0
  189.2090  173.2230  140.7580 C   0  0  0  0  0  3  0  0  0  0  0  0
  191.5050  173.7970  140.2390 C   0  0  0  0  0  3  0  0  0  0  0  0
  187.8180  172.2930  139.0580 F   0  0  0  0  0  0  0  0  0  0  0  0
  195.5310  173.7670  145.4740 C   0  0  0  0  0  3  0  0  0  0  0  0
  195.6470  172.2770  145.7620 C   0  0  0  0  0  1  0  0  0  0  0  0
  196.8740  174.3380  145.0200 C   0  0  0  0  0  1  0  0  0  0  0  0
  193.9250  176.4700  144.8110 C   0  0  0  0  0  2  0  0  0  0  0  0
  194.5390  177.1500  146.0250 C   0  0  0  0  0  1  0  0  0  0  0  0
  186.6810  177.4450  147.6340 O   0  0  0  0  0  1  0  0  0  0  0  0
  187.3120  177.5420  146.3920 C   0  0  2  0  0  3  0  0  0  0  0  0
  186.3470  177.2720  145.3310 N   0  0  0  0  0  2  0  0  0  0  0  0
  185.9500  178.5410  144.7330 C   0  0  0  0  0  3  0  0  0  0  0  0
  186.4330  178.6110  143.2910 C   0  0  0  0  0  2  0  0  0  0  0  0
  186.2160  177.3880  142.6410 O   0  0  0  0  0  1  0  0  0  0  0  0
  184.4380  178.7210  144.8090 C   0  0  0  0  0  2  0  0  0  0  0  0
  184.0470  178.8380  146.1450 O   0  0  0  0  0  1  0  0  0  0  0  0
  1  5  1  0  0  0  0
  1 22  1  0  0  0  0
  2 13  1  0  0  0  0
  2  5  1  0  0  0  0
  3 13  1  0  0  0  0
  3  7  2  0  0  0  0
  4  6  1  0  0  0  0
  7 12  1  0  0  0  0
  8  2  1  0  0  0  0
  9  1  1  0  0  0  0
 10  3  1  0  0  0  0
 11 10  2  0  0  0  0
 11  8  1  0  0  0  0
 12 28  1  0  0  0  0
 12  6  1  0  0  0  0
 13  4  1  0  0  0  0
 14  8  1  0  0  0  0
 14  9  1  0  0  0  0
 15 19  1  0  0  0  0
 16 18  1  0  0  0  0
 16 15  2  0  0  0  0
 17 11  1  0  0  0  0
 18 20  2  0  0  0  0
 19 17  2  0  0  0  0
 20 17  1  0  0  0  0
 21 15  1  0  0  0  0
 22 23  1  0  0  0  0
 24 22  1  0  0  0  0
 25  5  1  0  0  0  0
 25 26  1  0  0  0  0
 28 27  1  0  0  0  0
 29 28  1  0  0  0  0
 30 33  1  0  0  0  0
 30 29  1  0  0  0  0
 31 30  1  0  0  0  0
 32 31  1  0  0  0  0
 33 34  1  0  0  0  0
M  END
>  <MODEL>
7

>  <REMARK>
 VINA RESULT:      -6.3      2.794      5.742
  Name = 
  8 active torsions:
  status: ('A' for Active; 'I' for Inactive)
    1  A    between atoms: N_1  and  C_6
    2  A    between atoms: C_2  and  C_15
    3  A    between atoms: C_11  and  CA_20
    4  A    between atoms: C_12  and  C_28
    5  A    between atoms: N_13  and  CA_20
    6  A    between atoms: N_13  and  C_33
    7  A    between atoms: CB_14  and  CA_20
    8  A    between atoms: C_29  and  C_33
                            x       y       z     vdW  Elec       q    Type
                         _______ _______ _______ _____ _____    ______ ____

>  <TORSDO>
F 8

$$$$
=
 OpenBabel11052419013D

 34 37  0  0  1  0  0  0  0  0999 V2000
  187.6280  177.2360  145.1570 N   0  0  0  0  0  0  0  0  0  0  0  0
  188.7640  175.7170  143.4840 C   0  0  2  0  0  3  0  0  0  0  0  0
  190.2010  174.4380  141.9420 C   0  0  0  0  0  0  0  0  0  0  0  0
  187.8150  174.9430  141.2740 C   0  0  0  0  0  2  0  0  0  0  0  0
  187.6510  176.7670  143.7460 C   0  0  2  0  0  3  0  0  0  0  0  0
  188.2070  174.4840  139.8760 C   0  0  0  0  0  2  0  0  0  0  0  0
  190.2710  173.5210  140.9710 C   0  0  0  0  0  3  0  0  0  0  0  0
  190.0090  176.0920  144.2970 C   0  0  2  0  0  3  0  0  0  0  0  0
  188.1860  176.2450  146.0850 C   0  0  0  0  0  2  0  0  0  0  0  0
  191.2980  174.5700  142.8510 N   0  0  0  0  0  0  0  0  0  0  0  0
  191.2690  175.3110  143.9230 C   0  0  0  0  0  0  0  0  0  0  0  0
  189.1520  173.2840  139.9940 C   0  0  2  0  0  3  0  0  0  0  0  0
  189.0650  175.4310  142.0140 C   0  0  1  0  0  3  0  0  0  0  0  0
  189.6670  175.9640  145.7900 C   0  0  0  0  0  2  0  0  0  0  0  0
  194.2410  176.9900  145.5730 C   0  0  0  0  0  0  0  0  0  0  0  0
  194.8640  175.9050  146.1960 C   0  0  0  0  0  3  0  0  0  0  0  0
  192.5300  175.5030  144.6820 C   0  0  0  0  0  0  0  0  0  0  0  0
  194.3310  174.6190  146.0620 C   0  0  0  0  0  3  0  0  0  0  0  0
  193.0810  176.7910  144.8190 C   0  0  0  0  0  3  0  0  0  0  0  0
  193.1660  174.4210  145.3160 C   0  0  0  0  0  3  0  0  0  0  0  0
  194.7530  178.2400  145.7100 F   0  0  0  0  0  0  0  0  0  0  0  0
  186.2600  177.5430  145.6120 C   0  0  0  0  0  3  0  0  0  0  0  0
  185.9370  176.8280  146.9160 C   0  0  0  0  0  1  0  0  0  0  0  0
  185.9700  179.0380  145.7280 C   0  0  0  0  0  1  0  0  0  0  0  0
  187.7220  177.9630  142.7820 C   0  0  0  0  0  2  0  0  0  0  0  0
  186.4010  178.2190  142.0720 C   0  0  0  0  0  1  0  0  0  0  0  0
  189.3130  171.5270  138.3530 O   0  0  0  0  0  1  0  0  0  0  0  0
  189.7070  172.8360  138.6400 C   0  0  2  0  0  3  0  0  0  0  0  0
  191.1640  172.9240  138.6180 N   0  0  0  0  0  2  0  0  0  0  0  0
  191.5670  173.6040  137.3930 C   0  0  0  0  0  3  0  0  0  0  0  0
  192.7440  174.5280  137.6740 C   0  0  0  0  0  2  0  0  0  0  0  0
  193.2780  174.2720  138.9450 O   0  0  0  0  0  1  0  0  0  0  0  0
  191.9180  172.5930  136.3080 C   0  0  0  0  0  2  0  0  0  0  0  0
  190.9290  172.6030  135.3210 O   0  0  0  0  0  1  0  0  0  0  0  0
  1 22  1  0  0  0  0
  1  9  1  0  0  0  0
  2  5  1  0  0  0  0
  2  8  1  0  0  0  0
  3 13  1  0  0  0  0
  3 10  1  0  0  0  0
  4 13  1  0  0  0  0
  5  1  1  0  0  0  0
  6 12  1  0  0  0  0
  6  4  1  0  0  0  0
  7  3  2  0  0  0  0
  8 14  1  0  0  0  0
 10 11  2  0  0  0  0
 11  8  1  0  0  0  0
 11 17  1  0  0  0  0
 12  7  1  0  0  0  0
 13  2  1  0  0  0  0
 14  9  1  0  0  0  0
 15 21  1  0  0  0  0
 15 16  1  0  0  0  0
 17 19  1  0  0  0  0
 17 20  2  0  0  0  0
 18 16  2  0  0  0  0
 19 15  2  0  0  0  0
 20 18  1  0  0  0  0
 22 24  1  0  0  0  0
 22 23  1  0  0  0  0
 25  5  1  0  0  0  0
 26 25  1  0  0  0  0
 27 28  1  0  0  0  0
 28 12  1  0  0  0  0
 29 28  1  0  0  0  0
 30 31  1  0  0  0  0
 30 29  1  0  0  0  0
 31 32  1  0  0  0  0
 33 30  1  0  0  0  0
 34 33  1  0  0  0  0
M  END
>  <MODEL>
8

>  <REMARK>
 VINA RESULT:      -6.3      3.617      7.213
  Name = 
  8 active torsions:
  status: ('A' for Active; 'I' for Inactive)
    1  A    between atoms: N_1  and  C_6
    2  A    between atoms: C_2  and  C_15
    3  A    between atoms: C_11  and  CA_20
    4  A    between atoms: C_12  and  C_28
    5  A    between atoms: N_13  and  CA_20
    6  A    between atoms: N_13  and  C_33
    7  A    between atoms: CB_14  and  CA_20
    8  A    between atoms: C_29  and  C_33
                            x       y       z     vdW  Elec       q    Type
                         _______ _______ _______ _____ _____    ______ ____

>  <TORSDO>
F 8

$$$$
=
 OpenBabel11052419013D

 34 37  0  0  1  0  0  0  0  0999 V2000
  187.5620  176.4860  144.2880 N   0  0  0  0  0  0  0  0  0  0  0  0
  189.9900  176.1340  143.6730 C   0  0  2  0  0  3  0  0  0  0  0  0
  192.2350  175.4450  142.9220 C   0  0  0  0  0  0  0  0  0  0  0  0
  191.9980  176.7290  145.0870 C   0  0  0  0  0  2  0  0  0  0  0  0
  188.9550  176.3840  144.8020 C   0  0  2  0  0  3  0  0  0  0  0  0
  193.4470  176.3500  145.3640 C   0  0  0  0  0  2  0  0  0  0  0  0
  193.5480  175.7010  142.9240 C   0  0  0  0  0  3  0  0  0  0  0  0
  189.3780  175.1940  142.6280 C   0  0  2  0  0  3  0  0  0  0  0  0
  187.5130  176.9280  142.8890 C   0  0  0  0  0  2  0  0  0  0  0  0
  191.6570  174.7900  141.7890 N   0  0  0  0  0  0  0  0  0  0  0  0
  190.3750  174.6390  141.6110 C   0  0  0  0  0  0  0  0  0  0  0  0
  194.2360  176.4190  144.0530 C   0  0  2  0  0  3  0  0  0  0  0  0
  191.3770  175.6970  144.1400 C   0  0  1  0  0  3  0  0  0  0  0  0
  188.2040  175.9210  141.9540 C   0  0  0  0  0  2  0  0  0  0  0  0
  190.4020  172.5640  138.4400 C   0  0  0  0  0  0  0  0  0  0  0  0
  189.0860  172.0920  138.4040 C   0  0  0  0  0  3  0  0  0  0  0  0
  189.9140  173.7860  140.4890 C   0  0  0  0  0  0  0  0  0  0  0  0
  188.1810  172.4670  139.4010 C   0  0  0  0  0  3  0  0  0  0  0  0
  190.8130  173.4070  139.4750 C   0  0  0  0  0  3  0  0  0  0  0  0
  188.5940  173.3020  140.4410 C   0  0  0  0  0  3  0  0  0  0  0  0
  191.2840  172.1930  137.4770 F   0  0  0  0  0  0  0  0  0  0  0  0
  186.7530  177.4340  145.0760 C   0  0  0  0  0  3  0  0  0  0  0  0
  186.3080  178.6180  144.2300 C   0  0  0  0  0  1  0  0  0  0  0  0
  185.5600  176.7900  145.7790 C   0  0  0  0  0  1  0  0  0  0  0  0
  189.0370  175.3400  145.9290 C   0  0  0  0  0  2  0  0  0  0  0  0
  189.3250  175.9670  147.2840 C   0  0  0  0  0  1  0  0  0  0  0  0
  196.5800  176.8850  143.7510 O   0  0  0  0  0  1  0  0  0  0  0  0
  195.6760  175.9230  144.2060 C   0  0  2  0  0  3  0  0  0  0  0  0
  195.8800  174.6760  143.4750 N   0  0  0  0  0  2  0  0  0  0  0  0
  195.9890  173.5880  144.4390 C   0  0  0  0  0  3  0  0  0  0  0  0
  196.2170  174.1510  145.8350 C   0  0  0  0  0  2  0  0  0  0  0  0
  197.1920  173.4070  146.5130 O   0  0  0  0  0  1  0  0  0  0  0  0
  194.7420  172.7130  144.4040 C   0  0  0  0  0  2  0  0  0  0  0  0
  193.9670  172.9570  145.5410 O   0  0  0  0  0  1  0  0  0  0  0  0
  1  5  1  0  0  0  0
  1 22  1  0  0  0  0
  2 13  1  0  0  0  0
  2  5  1  0  0  0  0
  3  7  2  0  0  0  0
  3 13  1  0  0  0  0
  4  6  1  0  0  0  0
  5 25  1  0  0  0  0
  7 12  1  0  0  0  0
  8  2  1  0  0  0  0
  9  1  1  0  0  0  0
 10  3  1  0  0  0  0
 11 10  2  0  0  0  0
 11  8  1  0  0  0  0
 12 28  1  0  0  0  0
 12  6  1  0  0  0  0
 13  4  1  0  0  0  0
 14  8  1  0  0  0  0
 14  9  1  0  0  0  0
 15 19  1  0  0  0  0
 16 15  2  0  0  0  0
 16 18  1  0  0  0  0
 17 11  1  0  0  0  0
 18 20  2  0  0  0  0
 19 17  2  0  0  0  0
 20 17  1  0  0  0  0
 21 15  1  0  0  0  0
 22 24  1  0  0  0  0
 23 22  1  0  0  0  0
 25 26  1  0  0  0  0
 27 28  1  0  0  0  0
 29 28  1  0  0  0  0
 29 30  1  0  0  0  0
 30 31  1  0  0  0  0
 31 32  1  0  0  0  0
 33 30  1  0  0  0  0
 33 34  1  0  0  0  0
M  END
>  <MODEL>
9

>  <REMARK>
 VINA RESULT:      -6.0      3.969      7.922
  Name = 
  8 active torsions:
  status: ('A' for Active; 'I' for Inactive)
    1  A    between atoms: N_1  and  C_6
    2  A    between atoms: C_2  and  C_15
    3  A    between atoms: C_11  and  CA_20
    4  A    between atoms: C_12  and  C_28
    5  A    between atoms: N_13  and  CA_20
    6  A    between atoms: N_13  and  C_33
    7  A    between atoms: CB_14  and  CA_20
    8  A    between atoms: C_29  and  C_33
                            x       y       z     vdW  Elec       q    Type
                         _______ _______ _______ _____ _____    ______ ____

>  <TORSDO>
F 8

$$$$
