=
 OpenBabel11052418463D

 34 39  0  0  1  0  0  0  0  0999 V2000
  188.6890  174.7270  141.3700 C   0  0  0  0  0  0  0  0  0  0  0  0
  190.6140  173.6160  142.3530 C   0  0  0  0  0  3  0  0  0  0  0  0
  189.0070  174.8330  143.8820 C   0  0  2  0  0  3  0  0  0  0  0  0
  189.5320  175.4110  146.2690 N   0  0  1  0  0  0  0  0  0  0  0  0
  190.2360  173.4950  139.9670 C   0  0  0  0  0  3  0  0  0  0  0  0
  190.9960  173.1600  141.0890 C   0  0  0  0  0  3  0  0  0  0  0  0
  191.1690  176.0250  144.6930 C   0  0  0  0  0  0  0  0  0  0  0  0
  189.4810  174.4310  142.5050 C   0  0  0  0  0  0  0  0  0  0  0  0
  190.6880  175.9650  146.9850 C   0  0  0  0  0  2  0  0  0  0  0  0
  189.0850  174.2750  140.1070 C   0  0  0  0  0  3  0  0  0  0  0  0
  187.9980  175.9690  143.8690 C   0  0  2  0  0  3  0  0  0  0  0  0
  187.4570  175.5890  141.4720 C   0  0  0  0  0  2  0  0  0  0  0  0
  191.6510  176.2720  143.5980 O   0  0  0  0  0  0  0  0  0  0  0  0
  188.6340  176.5000  146.1430 N   0  0  0  0  0  2  0  0  0  0  0  0
  187.4960  176.1410  145.2980 C   0  0  1  0  0  3  0  0  0  0  0  0
  191.6000  176.6510  145.9610 C   0  0  1  0  0  3  0  0  0  0  0  0
  190.0930  175.0380  144.9550 C   0  0  2  0  0  3  0  0  0  0  0  0
  186.8850  175.6180  142.8880 C   0  0  0  0  0  2  0  0  0  0  0  0
  185.5790  179.3940  144.8030 C   0  0  0  0  0  0  0  0  0  0  0  0
  184.4670  179.1760  145.6210 C   0  0  0  0  0  3  0  0  0  0  0  0
  186.4480  177.2080  145.4000 C   0  0  0  0  0  0  0  0  0  0  0  0
  184.3450  177.9780  146.3310 C   0  0  0  0  0  3  0  0  0  0  0  0
  186.5690  178.4120  144.6910 C   0  0  0  0  0  3  0  0  0  0  0  0
  185.3350  176.9960  146.2210 C   0  0  0  0  0  3  0  0  0  0  0  0
  185.6970  180.5550  144.1150 F   0  0  0  0  0  0  0  0  0  0  0  0
  193.0680  176.3680  146.2710 C   0  0  0  0  0  2  0  0  0  0  0  0
  193.8950  176.7950  145.2260 O   0  0  0  0  0  0  0  0  0  0  0  0
  196.3460  177.4680  143.9180 F   0  0  0  0  0  0  0  0  0  0  0  0
  195.0680  176.0430  145.3570 C   0  0  2  0  0  3  0  0  0  0  0  0
  195.9240  176.1630  144.0930 C   0  0  1  0  0  3  0  0  0  0  0  0
  194.3130  174.0800  143.0280 S   0  0  0  0  0  0  0  0  0  0  0  0
  195.0790  173.5910  144.6090 C   0  0  0  0  0  2  0  0  0  0  0  0
  194.7150  174.5900  145.7050 C   0  0  0  0  0  2  0  0  0  0  0  0
  195.1770  175.6930  142.8420 C   0  0  0  0  0  2  0  0  0  0  0  0
  1 12  1  0  0  0  0
  1  8  1  0  0  0  0
  2  8  2  0  0  0  0
  3  8  1  6  0  0  0
  3 17  1  0  0  0  0
  4  9  1  1  0  0  0
  5 10  1  0  0  0  0
  5  6  2  0  0  0  0
  6  2  1  0  0  0  0
  7 16  1  0  0  0  0
 10  1  2  0  0  0  0
 11 18  1  6  0  0  0
 11  3  1  0  0  0  0
 11 15  1  0  0  0  0
 12 18  1  0  0  0  0
 13  7  2  0  0  0  0
 14  4  1  0  0  0  0
 15 21  1  6  0  0  0
 15 14  1  0  0  0  0
 16 26  1  1  0  0  0
 16  9  1  0  0  0  0
 17  7  1  6  0  0  0
 17  4  1  0  0  0  0
 19 20  1  0  0  0  0
 20 22  2  0  0  0  0
 21 24  2  0  0  0  0
 23 19  2  0  0  0  0
 23 21  1  0  0  0  0
 24 22  1  0  0  0  0
 25 19  1  0  0  0  0
 27 26  1  0  0  0  0
 29 27  1  6  0  0  0
 29 33  1  0  0  0  0
 30 28  1  6  0  0  0
 30 29  1  0  0  0  0
 31 32  1  0  0  0  0
 32 33  1  0  0  0  0
 34 31  1  0  0  0  0
 34 30  1  0  0  0  0
M  END
>  <MODEL>
1

>  <REMARK>
 VINA RESULT:      -8.9      0.000      0.000
  Name = 
  4 active torsions:
  status: ('A' for Active; 'I' for Inactive)
    1  A    between atoms: O_3  and  C_13
    2  A    between atoms: O_3  and  C_17
    3  A    between atoms: C_12  and  C_28
    4  A    between atoms: C_17  and  C_29
                            x       y       z     vdW  Elec       q    Type
                         _______ _______ _______ _____ _____    ______ ____

>  <TORSDO>
F 4

$$$$
=
 OpenBabel11052418463D

 34 39  0  0  1  0  0  0  0  0999 V2000
  191.2360  176.3340  146.1710 C   0  0  0  0  0  0  0  0  0  0  0  0
  192.3100  175.2960  144.2530 C   0  0  0  0  0  3  0  0  0  0  0  0
  190.0900  176.4620  143.9130 C   0  0  2  0  0  3  0  0  0  0  0  0
  188.6760  176.1800  141.8580 N   0  0  1  0  0  0  0  0  0  0  0  0
  193.3910  175.2500  146.4170 C   0  0  0  0  0  3  0  0  0  0  0  0
  193.3900  174.9270  145.0580 C   0  0  0  0  0  3  0  0  0  0  0  0
  189.4060  174.1840  142.8680 C   0  0  0  0  0  0  0  0  0  0  0  0
  191.2080  175.9690  144.8040 C   0  0  0  0  0  0  0  0  0  0  0  0
  188.2490  175.0490  141.0250 C   0  0  0  0  0  2  0  0  0  0  0  0
  192.3170  175.9520  146.9710 C   0  0  0  0  0  3  0  0  0  0  0  0
  188.8360  176.8570  144.6760 C   0  0  2  0  0  3  0  0  0  0  0  0
  190.0860  177.0650  146.8150 C   0  0  0  0  0  2  0  0  0  0  0  0
  189.8570  173.4520  143.7370 O   0  0  0  0  0  0  0  0  0  0  0  0
  187.5480  176.4760  142.6620 N   0  0  0  0  0  2  0  0  0  0  0  0
  187.8780  177.4840  143.6700 C   0  0  1  0  0  3  0  0  0  0  0  0
  188.4370  173.7610  141.8350 C   0  0  1  0  0  3  0  0  0  0  0  0
  189.7670  175.6090  142.6720 C   0  0  2  0  0  3  0  0  0  0  0  0
  189.2310  177.8140  145.7950 C   0  0  0  0  0  2  0  0  0  0  0  0
  184.7900  177.6620  145.8920 C   0  0  0  0  0  0  0  0  0  0  0  0
  184.2590  178.8980  145.5120 C   0  0  0  0  0  3  0  0  0  0  0  0
  186.6160  177.9640  144.3220 C   0  0  0  0  0  0  0  0  0  0  0  0
  184.9010  179.6660  144.5380 C   0  0  0  0  0  3  0  0  0  0  0  0
  185.9670  177.1940  145.2990 C   0  0  0  0  0  3  0  0  0  0  0  0
  186.0780  179.1990  143.9420 C   0  0  0  0  0  3  0  0  0  0  0  0
  184.1670  176.9180  146.8370 F   0  0  0  0  0  0  0  0  0  0  0  0
  188.9900  172.6450  140.9510 C   0  0  0  0  0  2  0  0  0  0  0  0
  189.3140  173.1250  139.6760 O   0  0  0  0  0  0  0  0  0  0  0  0
  190.8650  173.9880  137.4370 F   0  0  0  0  0  0  0  0  0  0  0  0
  190.6410  172.7350  139.4650 C   0  0  2  0  0  3  0  0  0  0  0  0
  190.9590  172.7140  137.9660 C   0  0  1  0  0  3  0  0  0  0  0  0
  189.8390  170.1030  137.9520 S   0  0  0  0  0  0  0  0  0  0  0  0
  191.1870  170.2470  139.1730 C   0  0  0  0  0  2  0  0  0  0  0  0
  190.8980  171.3840  140.1500 C   0  0  0  0  0  2  0  0  0  0  0  0
  190.0380  171.7670  137.1930 C   0  0  0  0  0  2  0  0  0  0  0  0
  1 12  1  0  0  0  0
  1 10  1  0  0  0  0
  2  8  1  0  0  0  0
  2  6  2  0  0  0  0
  3 11  1  0  0  0  0
  3  8  1  1  0  0  0
  4  9  1  6  0  0  0
  4 14  1  0  0  0  0
  4 17  1  0  0  0  0
  5 10  2  0  0  0  0
  6  5  1  0  0  0  0
  7 13  2  0  0  0  0
  8  1  2  0  0  0  0
  9 16  1  0  0  0  0
 11 18  1  1  0  0  0
 14 15  1  0  0  0  0
 15 21  1  1  0  0  0
 15 11  1  0  0  0  0
 16 26  1  6  0  0  0
 16  7  1  0  0  0  0
 17  7  1  1  0  0  0
 17  3  1  0  0  0  0
 18 12  1  0  0  0  0
 19 25  1  0  0  0  0
 20 19  1  0  0  0  0
 21 23  1  0  0  0  0
 22 20  2  0  0  0  0
 23 19  2  0  0  0  0
 24 21  2  0  0  0  0
 24 22  1  0  0  0  0
 27 26  1  0  0  0  0
 29 27  1  6  0  0  0
 29 33  1  0  0  0  0
 30 28  1  6  0  0  0
 30 29  1  0  0  0  0
 31 32  1  0  0  0  0
 32 33  1  0  0  0  0
 34 31  1  0  0  0  0
 34 30  1  0  0  0  0
M  END
>  <MODEL>
2

>  <REMARK>
 VINA RESULT:      -8.8      3.001      5.532
  Name = 
  4 active torsions:
  status: ('A' for Active; 'I' for Inactive)
    1  A    between atoms: O_3  and  C_13
    2  A    between atoms: O_3  and  C_17
    3  A    between atoms: C_12  and  C_28
    4  A    between atoms: C_17  and  C_29
                            x       y       z     vdW  Elec       q    Type
                         _______ _______ _______ _____ _____    ______ ____

>  <TORSDO>
F 4

$$$$
=
 OpenBabel11052418463D

 34 39  0  0  1  0  0  0  0  0999 V2000
  188.7530  174.5660  141.0560 C   0  0  0  0  0  0  0  0  0  0  0  0
  190.8800  173.6580  141.8040 C   0  0  0  0  0  3  0  0  0  0  0  0
  189.4200  174.8620  143.4830 C   0  0  2  0  0  3  0  0  0  0  0  0
  190.2350  175.6330  145.7290 N   0  0  1  0  0  0  0  0  0  0  0  0
  190.1730  173.3510  139.5110 C   0  0  0  0  0  3  0  0  0  0  0  0
  191.1110  173.1450  140.5250 C   0  0  0  0  0  3  0  0  0  0  0  0
  191.5760  176.2510  143.8960 C   0  0  0  0  0  0  0  0  0  0  0  0
  189.7210  174.4010  142.0750 C   0  0  0  0  0  0  0  0  0  0  0  0
  191.4360  176.3130  146.2330 C   0  0  0  0  0  2  0  0  0  0  0  0
  188.9970  174.0580  139.7760 C   0  0  0  0  0  3  0  0  0  0  0  0
  188.3340  175.9230  143.5560 C   0  0  2  0  0  3  0  0  0  0  0  0
  187.4850  175.3460  141.2900 C   0  0  0  0  0  2  0  0  0  0  0  0
  191.8760  176.4560  142.7300 O   0  0  0  0  0  0  0  0  0  0  0  0
  189.2470  176.6480  145.6770 N   0  0  0  0  0  2  0  0  0  0  0  0
  188.0300  176.1550  145.0310 C   0  0  1  0  0  3  0  0  0  0  0  0
  192.1350  176.9890  145.0490 C   0  0  1  0  0  3  0  0  0  0  0  0
  190.6290  175.2130  144.3700 C   0  0  2  0  0  3  0  0  0  0  0  0
  187.1220  175.4300  142.7720 C   0  0  0  0  0  2  0  0  0  0  0  0
  185.8120  179.2260  144.6390 C   0  0  0  0  0  0  0  0  0  0  0  0
  184.8530  178.9900  145.6280 C   0  0  0  0  0  3  0  0  0  0  0  0
  186.9280  177.1520  145.2270 C   0  0  0  0  0  0  0  0  0  0  0  0
  184.9310  177.8410  146.4180 C   0  0  0  0  0  3  0  0  0  0  0  0
  186.8490  178.3090  144.4370 C   0  0  0  0  0  3  0  0  0  0  0  0
  185.9680  176.9230  146.2180 C   0  0  0  0  0  3  0  0  0  0  0  0
  185.7360  180.3410  143.8730 F   0  0  0  0  0  0  0  0  0  0  0  0
  193.6500  176.8280  145.1540 C   0  0  0  0  0  2  0  0  0  0  0  0
  193.9990  175.4970  145.4090 O   0  0  0  0  0  0  0  0  0  0  0  0
  193.3120  173.1690  143.8990 F   0  0  0  0  0  0  0  0  0  0  0  0
  194.7050  175.0800  144.2760 C   0  0  2  0  0  3  0  0  0  0  0  0
  194.6200  173.5580  144.1220 C   0  0  1  0  0  3  0  0  0  0  0  0
  196.8030  173.4380  145.9360 S   0  0  0  0  0  0  0  0  0  0  0  0
  197.1890  174.4840  144.4920 C   0  0  0  0  0  2  0  0  0  0  0  0
  196.1510  175.5940  144.3490 C   0  0  0  0  0  2  0  0  0  0  0  0
  195.1740  172.8230  145.3450 C   0  0  0  0  0  2  0  0  0  0  0  0
  1 12  1  0  0  0  0
  1  8  1  0  0  0  0
  2  8  2  0  0  0  0
  3  8  1  6  0  0  0
  3 11  1  0  0  0  0
  3 17  1  0  0  0  0
  4  9  1  6  0  0  0
  5 10  1  0  0  0  0
  5  6  2  0  0  0  0
  6  2  1  0  0  0  0
  7 16  1  0  0  0  0
 10  1  2  0  0  0  0
 11 18  1  6  0  0  0
 11 15  1  0  0  0  0
 12 18  1  0  0  0  0
 13  7  2  0  0  0  0
 14  4  1  0  0  0  0
 15 21  1  6  0  0  0
 15 14  1  0  0  0  0
 16 26  1  1  0  0  0
 16  9  1  0  0  0  0
 17  7  1  6  0  0  0
 17  4  1  0  0  0  0
 19 20  1  0  0  0  0
 20 22  2  0  0  0  0
 21 24  2  0  0  0  0
 23 19  2  0  0  0  0
 23 21  1  0  0  0  0
 24 22  1  0  0  0  0
 25 19  1  0  0  0  0
 26 27  1  0  0  0  0
 29 33  1  0  0  0  0
 29 27  1  1  0  0  0
 30 28  1  1  0  0  0
 30 29  1  0  0  0  0
 30 34  1  0  0  0  0
 32 31  1  0  0  0  0
 33 32  1  0  0  0  0
 34 31  1  0  0  0  0
M  END
>  <MODEL>
3

>  <REMARK>
 VINA RESULT:      -8.7      1.378      1.646
  Name = 
  4 active torsions:
  status: ('A' for Active; 'I' for Inactive)
    1  A    between atoms: O_3  and  C_13
    2  A    between atoms: O_3  and  C_17
    3  A    between atoms: C_12  and  C_28
    4  A    between atoms: C_17  and  C_29
                            x       y       z     vdW  Elec       q    Type
                         _______ _______ _______ _____ _____    ______ ____

>  <TORSDO>
F 4

$$$$
=
 OpenBabel11052418463D

 34 39  0  0  1  0  0  0  0  0999 V2000
  191.2340  176.3490  146.1130 C   0  0  0  0  0  0  0  0  0  0  0  0
  192.3150  175.3070  144.2020 C   0  0  0  0  0  3  0  0  0  0  0  0
  190.0930  176.4650  143.8520 C   0  0  2  0  0  3  0  0  0  0  0  0
  188.6850  176.1730  141.7940 N   0  0  1  0  0  0  0  0  0  0  0  0
  193.3910  175.2720  146.3690 C   0  0  0  0  0  3  0  0  0  0  0  0
  193.3950  174.9440  145.0110 C   0  0  0  0  0  3  0  0  0  0  0  0
  189.4190  174.1820  142.8140 C   0  0  0  0  0  0  0  0  0  0  0  0
  191.2100  175.9790  144.7470 C   0  0  0  0  0  0  0  0  0  0  0  0
  188.2640  175.0370  140.9640 C   0  0  0  0  0  2  0  0  0  0  0  0
  192.3140  175.9730  146.9170 C   0  0  0  0  0  3  0  0  0  0  0  0
  188.8370  176.8600  144.6100 C   0  0  2  0  0  3  0  0  0  0  0  0
  190.0810  177.0790  146.7520 C   0  0  0  0  0  2  0  0  0  0  0  0
  189.8690  173.4550  143.6860 O   0  0  0  0  0  0  0  0  0  0  0  0
  187.5540  176.4680  142.5950 N   0  0  0  0  0  2  0  0  0  0  0  0
  187.8790  177.4810  143.6000 C   0  0  1  0  0  3  0  0  0  0  0  0
  188.4540  173.7530  141.7790 C   0  0  1  0  0  3  0  0  0  0  0  0
  189.7750  175.6070  142.6130 C   0  0  2  0  0  3  0  0  0  0  0  0
  189.2250  177.8220  145.7270 C   0  0  0  0  0  2  0  0  0  0  0  0
  184.7940  177.6650  145.8260 C   0  0  0  0  0  0  0  0  0  0  0  0
  184.2510  178.8900  145.4280 C   0  0  0  0  0  3  0  0  0  0  0  0
  186.6140  177.9590  144.2470 C   0  0  0  0  0  0  0  0  0  0  0  0
  184.8840  179.6480  144.4400 C   0  0  0  0  0  3  0  0  0  0  0  0
  185.9740  177.1990  145.2370 C   0  0  0  0  0  3  0  0  0  0  0  0
  186.0650  179.1830  143.8500 C   0  0  0  0  0  3  0  0  0  0  0  0
  184.1790  176.9300  146.7830 F   0  0  0  0  0  0  0  0  0  0  0  0
  189.0120  172.6350  140.9010 C   0  0  0  0  0  2  0  0  0  0  0  0
  189.9330  173.1360  139.9730 O   0  0  0  0  0  0  0  0  0  0  0  0
  192.3240  174.3930  140.9070 F   0  0  0  0  0  0  0  0  0  0  0  0
  191.1200  172.4390  140.2240 C   0  0  2  0  0  3  0  0  0  0  0  0
  192.3320  173.3490  140.0000 C   0  0  1  0  0  3  0  0  0  0  0  0
  192.1140  172.6550  137.2540 S   0  0  0  0  0  0  0  0  0  0  0  0
  192.2630  171.1740  138.3090 C   0  0  0  0  0  2  0  0  0  0  0  0
  191.1630  171.1650  139.3680 C   0  0  0  0  0  2  0  0  0  0  0  0
  192.3810  173.9060  138.5750 C   0  0  0  0  0  2  0  0  0  0  0  0
  1 12  1  0  0  0  0
  1 10  1  0  0  0  0
  2  8  1  0  0  0  0
  2  6  2  0  0  0  0
  3 11  1  0  0  0  0
  3  8  1  1  0  0  0
  4  9  1  6  0  0  0
  4 14  1  0  0  0  0
  4 17  1  0  0  0  0
  5 10  2  0  0  0  0
  6  5  1  0  0  0  0
  7 13  2  0  0  0  0
  8  1  2  0  0  0  0
  9 16  1  0  0  0  0
 11 18  1  1  0  0  0
 14 15  1  0  0  0  0
 15 21  1  1  0  0  0
 15 11  1  0  0  0  0
 16 26  1  6  0  0  0
 16  7  1  0  0  0  0
 17  7  1  1  0  0  0
 17  3  1  0  0  0  0
 18 12  1  0  0  0  0
 19 25  1  0  0  0  0
 20 19  1  0  0  0  0
 21 23  1  0  0  0  0
 22 20  2  0  0  0  0
 23 19  2  0  0  0  0
 24 21  2  0  0  0  0
 24 22  1  0  0  0  0
 27 26  1  0  0  0  0
 29 27  1  6  0  0  0
 30 29  1  0  0  0  0
 30 28  1  1  0  0  0
 31 32  1  0  0  0  0
 31 34  1  0  0  0  0
 32 33  1  0  0  0  0
 33 29  1  0  0  0  0
 34 30  1  0  0  0  0
M  END
>  <MODEL>
4

>  <REMARK>
 VINA RESULT:      -8.7      2.590      5.075
  Name = 
  4 active torsions:
  status: ('A' for Active; 'I' for Inactive)
    1  A    between atoms: O_3  and  C_13
    2  A    between atoms: O_3  and  C_17
    3  A    between atoms: C_12  and  C_28
    4  A    between atoms: C_17  and  C_29
                            x       y       z     vdW  Elec       q    Type
                         _______ _______ _______ _____ _____    ______ ____

>  <TORSDO>
F 4

$$$$
=
 OpenBabel11052418463D

 34 39  0  0  1  0  0  0  0  0999 V2000
  191.4790  176.2580  146.0860 C   0  0  0  0  0  0  0  0  0  0  0  0
  192.4840  175.3320  144.0750 C   0  0  0  0  0  3  0  0  0  0  0  0
  190.2090  176.4250  143.8980 C   0  0  2  0  0  3  0  0  0  0  0  0
  188.6970  176.1660  141.9110 N   0  0  1  0  0  0  0  0  0  0  0  0
  193.6820  175.2480  146.1760 C   0  0  0  0  0  3  0  0  0  0  0  0
  193.6190  174.9760  144.8080 C   0  0  0  0  0  3  0  0  0  0  0  0
  189.5520  174.1630  142.8030 C   0  0  0  0  0  0  0  0  0  0  0  0
  191.3900  175.9420  144.7090 C   0  0  0  0  0  0  0  0  0  0  0  0
  188.2660  175.0500  141.0580 C   0  0  0  0  0  2  0  0  0  0  0  0
  192.6150  175.8880  146.8120 C   0  0  0  0  0  3  0  0  0  0  0  0
  188.9850  176.7440  144.7410 C   0  0  2  0  0  3  0  0  0  0  0  0
  190.3410  176.9200  146.8170 C   0  0  0  0  0  2  0  0  0  0  0  0
  190.0750  173.4170  143.6180 O   0  0  0  0  0  0  0  0  0  0  0  0
  187.6040  176.3890  142.7840 N   0  0  0  0  0  2  0  0  0  0  0  0
  187.9510  177.3710  143.8110 C   0  0  1  0  0  3  0  0  0  0  0  0
  188.5440  173.7420  141.8060 C   0  0  1  0  0  3  0  0  0  0  0  0
  189.8500  175.6070  142.6440 C   0  0  2  0  0  3  0  0  0  0  0  0
  189.4050  177.6730  145.8740 C   0  0  0  0  0  2  0  0  0  0  0  0
  184.8980  177.2910  146.0860 C   0  0  0  0  0  0  0  0  0  0  0  0
  184.3920  178.5800  145.9000 C   0  0  0  0  0  3  0  0  0  0  0  0
  186.7100  177.7780  144.5470 C   0  0  0  0  0  0  0  0  0  0  0  0
  185.0400  179.4680  145.0370 C   0  0  0  0  0  3  0  0  0  0  0  0
  186.0560  176.8880  145.4120 C   0  0  0  0  0  3  0  0  0  0  0  0
  186.1980  179.0670  144.3610 C   0  0  0  0  0  3  0  0  0  0  0  0
  184.2690  176.4310  146.9230 F   0  0  0  0  0  0  0  0  0  0  0  0
  189.0890  172.6800  140.8530 C   0  0  0  0  0  2  0  0  0  0  0  0
  189.7880  173.2680  139.7910 O   0  0  0  0  0  0  0  0  0  0  0  0
  190.8720  170.8010  138.8410 F   0  0  0  0  0  0  0  0  0  0  0  0
  189.3240  172.6170  138.6430 C   0  0  2  0  0  3  0  0  0  0  0  0
  190.4530  171.8100  137.9930 C   0  0  1  0  0  3  0  0  0  0  0  0
  191.2030  174.2360  136.7190 S   0  0  0  0  0  0  0  0  0  0  0  0
  189.4620  173.8120  136.3790 C   0  0  0  0  0  2  0  0  0  0  0  0
  188.6940  173.6400  137.6870 C   0  0  0  0  0  2  0  0  0  0  0  0
  191.6460  172.6900  137.6120 C   0  0  0  0  0  2  0  0  0  0  0  0
  1 10  1  0  0  0  0
  1 12  1  0  0  0  0
  2  8  1  0  0  0  0
  2  6  2  0  0  0  0
  3  8  1  1  0  0  0
  3 11  1  0  0  0  0
  4  9  1  6  0  0  0
  4 17  1  0  0  0  0
  4 14  1  0  0  0  0
  5 10  2  0  0  0  0
  6  5  1  0  0  0  0
  7 13  2  0  0  0  0
  8  1  2  0  0  0  0
  9 16  1  0  0  0  0
 11 18  1  1  0  0  0
 14 15  1  0  0  0  0
 15 21  1  1  0  0  0
 15 11  1  0  0  0  0
 16 26  1  6  0  0  0
 16  7  1  0  0  0  0
 17  7  1  1  0  0  0
 17  3  1  0  0  0  0
 18 12  1  0  0  0  0
 19 25  1  0  0  0  0
 20 19  1  0  0  0  0
 21 23  1  0  0  0  0
 22 20  2  0  0  0  0
 23 19  2  0  0  0  0
 24 21  2  0  0  0  0
 24 22  1  0  0  0  0
 27 26  1  0  0  0  0
 29 27  1  1  0  0  0
 30 29  1  0  0  0  0
 30 28  1  1  0  0  0
 31 34  1  0  0  0  0
 32 31  1  0  0  0  0
 32 33  1  0  0  0  0
 33 29  1  0  0  0  0
 34 30  1  0  0  0  0
M  END
>  <MODEL>
5

>  <REMARK>
 VINA RESULT:      -8.7      3.028      5.785
  Name = 
  4 active torsions:
  status: ('A' for Active; 'I' for Inactive)
    1  A    between atoms: O_3  and  C_13
    2  A    between atoms: O_3  and  C_17
    3  A    between atoms: C_12  and  C_28
    4  A    between atoms: C_17  and  C_29
                            x       y       z     vdW  Elec       q    Type
                         _______ _______ _______ _____ _____    ______ ____

>  <TORSDO>
F 4

$$$$
=
 OpenBabel11052418463D

 34 39  0  0  1  0  0  0  0  0999 V2000
  190.9450  173.2640  140.8540 C   0  0  0  0  0  0  0  0  0  0  0  0
  188.9410  174.5470  141.3510 C   0  0  0  0  0  3  0  0  0  0  0  0
  191.1240  175.2500  142.4200 C   0  0  2  0  0  3  0  0  0  0  0  0
  191.2710  176.8510  144.3480 N   0  0  1  0  0  0  0  0  0  0  0  0
  188.8330  172.6780  139.8180 C   0  0  0  0  0  3  0  0  0  0  0  0
  188.2050  173.7310  140.4880 C   0  0  0  0  0  3  0  0  0  0  0  0
  189.7450  175.0790  144.6150 C   0  0  0  0  0  0  0  0  0  0  0  0
  190.3050  174.3030  141.5720 C   0  0  0  0  0  0  0  0  0  0  0  0
  190.5500  177.0380  145.6140 C   0  0  0  0  0  2  0  0  0  0  0  0
  190.1980  172.4470  140.0000 C   0  0  0  0  0  3  0  0  0  0  0  0
  192.4690  174.6810  142.8380 C   0  0  2  0  0  3  0  0  0  0  0  0
  192.4090  172.9620  141.0430 C   0  0  0  0  0  2  0  0  0  0  0  0
  189.2130  174.0000  144.4020 O   0  0  0  0  0  0  0  0  0  0  0  0
  192.4780  176.2070  144.7170 N   0  0  0  0  0  2  0  0  0  0  0  0
  193.2340  175.8020  143.5330 C   0  0  1  0  0  3  0  0  0  0  0  0
  189.8050  175.7380  145.9370 C   0  0  1  0  0  3  0  0  0  0  0  0
  190.3950  175.9330  143.5930 C   0  0  2  0  0  3  0  0  0  0  0  0
  193.1820  174.1580  141.5960 C   0  0  0  0  0  2  0  0  0  0  0  0
  196.0860  174.0380  145.3370 C   0  0  0  0  0  0  0  0  0  0  0  0
  197.1950  174.5920  144.6910 C   0  0  0  0  0  3  0  0  0  0  0  0
  194.6090  175.3690  143.9470 C   0  0  0  0  0  0  0  0  0  0  0  0
  197.0130  175.5350  143.6760 C   0  0  0  0  0  3  0  0  0  0  0  0
  194.7950  174.4240  144.9670 C   0  0  0  0  0  3  0  0  0  0  0  0
  195.7210  175.9240  143.3050 C   0  0  0  0  0  3  0  0  0  0  0  0
  196.2630  173.1240  146.3210 F   0  0  0  0  0  0  0  0  0  0  0  0
  188.4150  176.0370  146.4940 C   0  0  0  0  0  2  0  0  0  0  0  0
  187.8080  177.0870  145.7950 O   0  0  0  0  0  0  0  0  0  0  0  0
  186.8180  175.9050  143.3880 F   0  0  0  0  0  0  0  0  0  0  0  0
  186.4770  176.6910  145.6240 C   0  0  2  0  0  3  0  0  0  0  0  0
  186.0750  176.7890  144.1490 C   0  0  1  0  0  3  0  0  0  0  0  0
  185.5420  179.5310  144.6660 S   0  0  0  0  0  0  0  0  0  0  0  0
  184.6130  178.4430  145.7980 C   0  0  0  0  0  2  0  0  0  0  0  0
  185.5690  177.5180  146.5470 C   0  0  0  0  0  2  0  0  0  0  0  0
  186.2410  178.2070  143.5980 C   0  0  0  0  0  2  0  0  0  0  0  0
  1 12  1  0  0  0  0
  1  8  1  0  0  0  0
  2  8  2  0  0  0  0
  3  8  1  1  0  0  0
  3 11  1  0  0  0  0
  3 17  1  0  0  0  0
  4 14  1  0  0  0  0
  4  9  1  1  0  0  0
  5 10  1  0  0  0  0
  5  6  2  0  0  0  0
  6  2  1  0  0  0  0
  7 16  1  0  0  0  0
  9 16  1  0  0  0  0
 10  1  2  0  0  0  0
 11 18  1  6  0  0  0
 11 15  1  0  0  0  0
 12 18  1  0  0  0  0
 13  7  2  0  0  0  0
 15 21  1  1  0  0  0
 15 14  1  0  0  0  0
 16 26  1  6  0  0  0
 17  4  1  0  0  0  0
 17  7  1  1  0  0  0
 19 25  1  0  0  0  0
 20 19  2  0  0  0  0
 21 23  2  0  0  0  0
 22 20  1  0  0  0  0
 23 19  1  0  0  0  0
 24 22  2  0  0  0  0
 24 21  1  0  0  0  0
 27 26  1  0  0  0  0
 29 27  1  6  0  0  0
 29 33  1  0  0  0  0
 30 28  1  6  0  0  0
 30 29  1  0  0  0  0
 31 32  1  0  0  0  0
 32 33  1  0  0  0  0
 34 30  1  0  0  0  0
 34 31  1  0  0  0  0
M  END
>  <MODEL>
6

>  <REMARK>
 VINA RESULT:      -8.0      2.775      7.495
  Name = 
  4 active torsions:
  status: ('A' for Active; 'I' for Inactive)
    1  A    between atoms: O_3  and  C_13
    2  A    between atoms: O_3  and  C_17
    3  A    between atoms: C_12  and  C_28
    4  A    between atoms: C_17  and  C_29
                            x       y       z     vdW  Elec       q    Type
                         _______ _______ _______ _____ _____    ______ ____

>  <TORSDO>
F 4

$$$$
=
 OpenBabel11052418463D

 34 39  0  0  1  0  0  0  0  0999 V2000
  184.9430  178.2040  144.8020 C   0  0  0  0  0  0  0  0  0  0  0  0
  186.6820  178.5930  146.4560 C   0  0  0  0  0  3  0  0  0  0  0  0
  187.3690  178.0750  144.0760 C   0  0  2  0  0  3  0  0  0  0  0  0
  189.7030  177.4280  143.4160 N   0  0  1  0  0  0  0  0  0  0  0  0
  184.3520  178.7610  147.0870 C   0  0  0  0  0  3  0  0  0  0  0  0
  185.7050  178.8410  147.4240 C   0  0  0  0  0  3  0  0  0  0  0  0
  188.7870  176.2220  145.2180 C   0  0  0  0  0  0  0  0  0  0  0  0
  186.3160  178.2380  145.1480 C   0  0  0  0  0  0  0  0  0  0  0  0
  190.7320  176.5240  143.9470 C   0  0  0  0  0  2  0  0  0  0  0  0
  183.9730  178.4450  145.7800 C   0  0  0  0  0  3  0  0  0  0  0  0
  186.8610  177.3710  142.8290 C   0  0  2  0  0  3  0  0  0  0  0  0
  184.4900  177.8390  143.4120 C   0  0  0  0  0  2  0  0  0  0  0  0
  187.9290  175.7840  145.9680 O   0  0  0  0  0  0  0  0  0  0  0  0
  189.1390  176.7250  142.3230 N   0  0  0  0  0  2  0  0  0  0  0  0
  187.9770  177.4360  141.7920 C   0  0  1  0  0  3  0  0  0  0  0  0
  190.0500  175.5260  144.8890 C   0  0  1  0  0  3  0  0  0  0  0  0
  188.7380  177.5340  144.5280 C   0  0  2  0  0  3  0  0  0  0  0  0
  185.5830  178.0620  142.3680 C   0  0  0  0  0  2  0  0  0  0  0  0
  187.6100  174.9700  138.9130 C   0  0  0  0  0  0  0  0  0  0  0  0
  186.7850  175.6920  138.0460 C   0  0  0  0  0  3  0  0  0  0  0  0
  187.5690  176.8150  140.4900 C   0  0  0  0  0  0  0  0  0  0  0  0
  186.3530  176.9740  138.3970 C   0  0  0  0  0  3  0  0  0  0  0  0
  188.0030  175.5290  140.1330 C   0  0  0  0  0  3  0  0  0  0  0  0
  186.7450  177.5350  139.6170 C   0  0  0  0  0  3  0  0  0  0  0  0
  188.0290  173.7280  138.5720 F   0  0  0  0  0  0  0  0  0  0  0  0
  190.9090  175.2800  146.1270 C   0  0  0  0  0  2  0  0  0  0  0  0
  191.9460  176.2170  146.2150 O   0  0  0  0  0  0  0  0  0  0  0  0
  194.3210  177.4460  147.2240 F   0  0  0  0  0  0  0  0  0  0  0  0
  193.0570  175.4920  146.6610 C   0  0  2  0  0  3  0  0  0  0  0  0
  194.3420  176.3000  146.4510 C   0  0  1  0  0  3  0  0  0  0  0  0
  194.3270  175.2860  143.7970 S   0  0  0  0  0  0  0  0  0  0  0  0
  194.2810  173.9400  145.0280 C   0  0  0  0  0  2  0  0  0  0  0  0
  193.0920  174.1220  145.9680 C   0  0  0  0  0  2  0  0  0  0  0  0
  194.5560  176.6740  144.9820 C   0  0  0  0  0  2  0  0  0  0  0  0
  1  8  2  0  0  0  0
  1 10  1  0  0  0  0
  2  6  2  0  0  0  0
  3 17  1  0  0  0  0
  3  8  1  1  0  0  0
  4  9  1  1  0  0  0
  4 17  1  0  0  0  0
  5  6  1  0  0  0  0
  7 13  2  0  0  0  0
  8  2  1  0  0  0  0
  9 16  1  0  0  0  0
 10  5  2  0  0  0  0
 11 18  1  6  0  0  0
 11  3  1  0  0  0  0
 12  1  1  0  0  0  0
 14  4  1  0  0  0  0
 15 21  1  6  0  0  0
 15 14  1  0  0  0  0
 15 11  1  0  0  0  0
 16  7  1  0  0  0  0
 16 26  1  1  0  0  0
 17  7  1  6  0  0  0
 18 12  1  0  0  0  0
 19 23  1  0  0  0  0
 20 22  1  0  0  0  0
 20 19  2  0  0  0  0
 22 24  2  0  0  0  0
 23 21  2  0  0  0  0
 24 21  1  0  0  0  0
 25 19  1  0  0  0  0
 26 27  1  0  0  0  0
 29 27  1  6  0  0  0
 30 29  1  0  0  0  0
 30 28  1  1  0  0  0
 31 34  1  0  0  0  0
 31 32  1  0  0  0  0
 32 33  1  0  0  0  0
 33 29  1  0  0  0  0
 34 30  1  0  0  0  0
M  END
>  <MODEL>
7

>  <REMARK>
 VINA RESULT:      -8.0      2.630      5.388
  Name = 
  4 active torsions:
  status: ('A' for Active; 'I' for Inactive)
    1  A    between atoms: O_3  and  C_13
    2  A    between atoms: O_3  and  C_17
    3  A    between atoms: C_12  and  C_28
    4  A    between atoms: C_17  and  C_29
                            x       y       z     vdW  Elec       q    Type
                         _______ _______ _______ _____ _____    ______ ____

>  <TORSDO>
F 4

$$$$
=
 OpenBabel11052418463D

 34 39  0  0  1  0  0  0  0  0999 V2000
  191.8920  174.4150  145.3490 C   0  0  0  0  0  0  0  0  0  0  0  0
  189.9040  175.5030  146.2300 C   0  0  0  0  0  3  0  0  0  0  0  0
  189.7640  174.3700  143.9720 C   0  0  2  0  0  3  0  0  0  0  0  0
  187.8780  174.7310  142.3540 N   0  0  1  0  0  0  0  0  0  0  0  0
  191.9430  175.4690  147.5330 C   0  0  0  0  0  3  0  0  0  0  0  0
  190.6020  175.8340  147.3940 C   0  0  0  0  0  3  0  0  0  0  0  0
  188.8670  176.6870  143.2130 C   0  0  0  0  0  0  0  0  0  0  0  0
  190.5470  174.8240  145.1830 C   0  0  0  0  0  0  0  0  0  0  0  0
  187.1290  175.8930  141.8570 C   0  0  0  0  0  2  0  0  0  0  0  0
  192.5850  174.7600  146.5130 C   0  0  0  0  0  3  0  0  0  0  0  0
  190.6420  173.9640  142.8000 C   0  0  2  0  0  3  0  0  0  0  0  0
  192.6300  173.6760  144.2640 C   0  0  0  0  0  2  0  0  0  0  0  0
  189.7050  177.3860  143.7620 O   0  0  0  0  0  0  0  0  0  0  0  0
  188.7870  174.4210  141.3120 N   0  0  0  0  0  2  0  0  0  0  0  0
  189.7230  173.3790  141.7330 C   0  0  1  0  0  3  0  0  0  0  0  0
  187.9540  177.1520  142.1470 C   0  0  1  0  0  3  0  0  0  0  0  0
  188.5900  175.2660  143.5320 C   0  0  2  0  0  3  0  0  0  0  0  0
  191.6840  172.9680  143.2960 C   0  0  0  0  0  2  0  0  0  0  0  0
  191.1450  171.1180  139.0180 C   0  0  0  0  0  0  0  0  0  0  0  0
  191.9400  172.0210  138.3070 C   0  0  0  0  0  3  0  0  0  0  0  0
  190.4890  172.8910  140.5400 C   0  0  0  0  0  0  0  0  0  0  0  0
  192.0140  173.3560  138.7120 C   0  0  0  0  0  3  0  0  0  0  0  0
  190.4200  171.5500  140.1330 C   0  0  0  0  0  3  0  0  0  0  0  0
  191.2900  173.7910  139.8280 C   0  0  0  0  0  3  0  0  0  0  0  0
  191.0740  169.8230  138.6250 F   0  0  0  0  0  0  0  0  0  0  0  0
  187.0520  178.2900  142.6190 C   0  0  0  0  0  2  0  0  0  0  0  0
  186.9670  178.3190  144.0170 O   0  0  0  0  0  0  0  0  0  0  0  0
  184.8800  180.2560  144.2630 F   0  0  0  0  0  0  0  0  0  0  0  0
  185.6400  177.9860  144.3090 C   0  0  2  0  0  3  0  0  0  0  0  0
  184.9550  179.1300  145.0630 C   0  0  1  0  0  3  0  0  0  0  0  0
  186.1020  178.0220  147.4140 S   0  0  0  0  0  0  0  0  0  0  0  0
  185.1020  176.7910  146.5130 C   0  0  0  0  0  2  0  0  0  0  0  0
  185.5980  176.6550  145.0750 C   0  0  0  0  0  2  0  0  0  0  0  0
  185.6750  179.4740  146.3690 C   0  0  0  0  0  2  0  0  0  0  0  0
  1 10  1  0  0  0  0
  2  6  2  0  0  0  0
  3  8  1  1  0  0  0
  4  9  1  6  0  0  0
  4 17  1  0  0  0  0
  6  5  1  0  0  0  0
  7 13  2  0  0  0  0
  8  1  2  0  0  0  0
  8  2  1  0  0  0  0
  9 16  1  0  0  0  0
 10  5  2  0  0  0  0
 11 18  1  1  0  0  0
 11  3  1  0  0  0  0
 12  1  1  0  0  0  0
 14 15  1  0  0  0  0
 14  4  1  0  0  0  0
 15 21  1  6  0  0  0
 15 11  1  0  0  0  0
 16 26  1  1  0  0  0
 16  7  1  0  0  0  0
 17  7  1  6  0  0  0
 17  3  1  0  0  0  0
 18 12  1  0  0  0  0
 19 23  1  0  0  0  0
 20 22  1  0  0  0  0
 20 19  2  0  0  0  0
 22 24  2  0  0  0  0
 23 21  2  0  0  0  0
 24 21  1  0  0  0  0
 25 19  1  0  0  0  0
 26 27  1  0  0  0  0
 29 27  1  1  0  0  0
 29 30  1  0  0  0  0
 29 33  1  0  0  0  0
 30 28  1  6  0  0  0
 30 34  1  0  0  0  0
 32 31  1  0  0  0  0
 33 32  1  0  0  0  0
 34 31  1  0  0  0  0
M  END
>  <MODEL>
8

>  <REMARK>
 VINA RESULT:      -7.8      3.258      8.004
  Name = 
  4 active torsions:
  status: ('A' for Active; 'I' for Inactive)
    1  A    between atoms: O_3  and  C_13
    2  A    between atoms: O_3  and  C_17
    3  A    between atoms: C_12  and  C_28
    4  A    between atoms: C_17  and  C_29
                            x       y       z     vdW  Elec       q    Type
                         _______ _______ _______ _____ _____    ______ ____

>  <TORSDO>
F 4

$$$$
=
 OpenBabel11052418463D

 34 39  0  0  1  0  0  0  0  0999 V2000
  193.3500  174.5850  144.5430 C   0  0  0  0  0  0  0  0  0  0  0  0
  191.6100  175.8020  145.7260 C   0  0  0  0  0  3  0  0  0  0  0  0
  190.9350  174.2430  143.8510 C   0  0  2  0  0  3  0  0  0  0  0  0
  188.6600  174.2530  142.7890 N   0  0  1  0  0  0  0  0  0  0  0  0
  193.9240  176.0520  146.3860 C   0  0  0  0  0  3  0  0  0  0  0  0
  192.5750  176.3670  146.5640 C   0  0  0  0  0  3  0  0  0  0  0  0
  189.7120  176.3520  142.9540 C   0  0  0  0  0  0  0  0  0  0  0  0
  191.9860  174.9370  144.6870 C   0  0  0  0  0  0  0  0  0  0  0  0
  187.7280  175.2840  142.3140 C   0  0  0  0  0  2  0  0  0  0  0  0
  194.3090  175.1630  145.3800 C   0  0  0  0  0  3  0  0  0  0  0  0
  191.4850  173.6220  142.5770 C   0  0  2  0  0  3  0  0  0  0  0  0
  193.8130  173.6540  143.4520 C   0  0  0  0  0  2  0  0  0  0  0  0
  190.6190  177.1560  143.1050 O   0  0  0  0  0  0  0  0  0  0  0  0
  189.2690  173.7530  141.6120 N   0  0  0  0  0  2  0  0  0  0  0  0
  190.3520  172.8260  141.9400 C   0  0  1  0  0  3  0  0  0  0  0  0
  188.5140  176.5850  142.1200 C   0  0  1  0  0  3  0  0  0  0  0  0
  189.6290  175.0190  143.5980 C   0  0  2  0  0  3  0  0  0  0  0  0
  192.6870  172.7570  142.9390 C   0  0  0  0  0  2  0  0  0  0  0  0
  191.5720  172.1590  138.3950 C   0  0  0  0  0  0  0  0  0  0  0  0
  191.6130  170.7620  138.3850 C   0  0  0  0  0  3  0  0  0  0  0  0
  190.7950  172.1210  140.6940 C   0  0  0  0  0  0  0  0  0  0  0  0
  191.2430  170.0430  139.5250 C   0  0  0  0  0  3  0  0  0  0  0  0
  191.1640  172.8390  139.5460 C   0  0  0  0  0  3  0  0  0  0  0  0
  190.8340  170.7220  140.6780 C   0  0  0  0  0  3  0  0  0  0  0  0
  191.9310  172.8550  137.2890 F   0  0  0  0  0  0  0  0  0  0  0  0
  187.7010  177.7840  142.6040 C   0  0  0  0  0  2  0  0  0  0  0  0
  186.8330  177.4180  143.6410 O   0  0  0  0  0  0  0  0  0  0  0  0
  188.7810  177.4560  145.7320 F   0  0  0  0  0  0  0  0  0  0  0  0
  186.9320  178.4490  144.5810 C   0  0  2  0  0  3  0  0  0  0  0  0
  187.4880  177.9150  145.9050 C   0  0  1  0  0  3  0  0  0  0  0  0
  184.8160  177.1650  146.5130 S   0  0  0  0  0  0  0  0  0  0  0  0
  184.9390  178.9420  146.1180 C   0  0  0  0  0  2  0  0  0  0  0  0
  185.5670  179.1360  144.7400 C   0  0  0  0  0  2  0  0  0  0  0  0
  186.6190  176.7990  146.4880 C   0  0  0  0  0  2  0  0  0  0  0  0
  1  8  2  0  0  0  0
  1 10  1  0  0  0  0
  2  6  2  0  0  0  0
  3  8  1  6  0  0  0
  4  9  1  6  0  0  0
  4 17  1  0  0  0  0
  5  6  1  0  0  0  0
  7 13  2  0  0  0  0
  8  2  1  0  0  0  0
 10  5  2  0  0  0  0
 11 18  1  1  0  0  0
 11  3  1  0  0  0  0
 12  1  1  0  0  0  0
 14 15  1  0  0  0  0
 14  4  1  0  0  0  0
 15 21  1  6  0  0  0
 15 11  1  0  0  0  0
 16  9  1  0  0  0  0
 16 26  1  1  0  0  0
 16  7  1  0  0  0  0
 17  7  1  6  0  0  0
 17  3  1  0  0  0  0
 18 12  1  0  0  0  0
 19 23  1  0  0  0  0
 20 19  2  0  0  0  0
 20 22  1  0  0  0  0
 22 24  2  0  0  0  0
 23 21  2  0  0  0  0
 24 21  1  0  0  0  0
 25 19  1  0  0  0  0
 26 27  1  0  0  0  0
 29 27  1  6  0  0  0
 29 33  1  0  0  0  0
 29 30  1  0  0  0  0
 30 28  1  6  0  0  0
 30 34  1  0  0  0  0
 32 31  1  0  0  0  0
 33 32  1  0  0  0  0
 34 31  1  0  0  0  0
M  END
>  <MODEL>
9

>  <REMARK>
 VINA RESULT:      -7.7      3.251      7.800
  Name = 
  4 active torsions:
  status: ('A' for Active; 'I' for Inactive)
    1  A    between atoms: O_3  and  C_13
    2  A    between atoms: O_3  and  C_17
    3  A    between atoms: C_12  and  C_28
    4  A    between atoms: C_17  and  C_29
                            x       y       z     vdW  Elec       q    Type
                         _______ _______ _______ _____ _____    ______ ____

>  <TORSDO>
F 4

$$$$
