=
 OpenBabel11052419563D

 37 41  0  0  1  0  0  0  0  0999 V2000
  187.1320  177.9620  145.7590 C   0  0  0  0  0  0  0  0  0  0  0  0
  188.6260  176.5720  147.0060 O   0  0  0  0  0  0  0  0  0  0  0  0
  187.7410  177.5430  144.4370 C   0  0  2  0  0  3  0  0  0  0  0  0
  188.0440  177.8510  146.9700 C   0  0  2  0  0  3  0  0  0  0  0  0
  186.6740  177.2330  143.3930 C   0  0  0  0  0  2  0  0  0  0  0  0
  187.3190  178.1060  148.2880 C   0  0  0  0  0  2  0  0  0  0  0  0
  189.5110  176.4890  145.9150 C   0  0  2  0  0  3  0  0  0  0  0  0
  185.9390  178.6100  145.8120 C   0  0  0  0  0  0  0  0  0  0  0  0
  186.4410  179.3390  148.1660 C   0  0  0  0  0  2  0  0  0  0  0  0
  185.3610  179.0740  147.1250 C   0  0  0  0  0  2  0  0  0  0  0  0
  188.7130  176.3650  144.5990 C   0  0  2  0  0  3  0  0  0  0  0  0
  185.7360  178.4270  143.2890 C   0  0  2  0  0  3  0  0  0  0  0  0
  185.0150  178.6540  144.6180 C   0  0  0  0  0  2  0  0  0  0  0  0
  190.7740  177.2560  143.3630 C   0  0  0  0  0  2  0  0  0  0  0  0
  192.0630  176.6880  143.9360 C   0  0  0  0  0  2  0  0  0  0  0  0
  192.4290  174.6690  142.4910 N   0  0  0  0  0  0  0  0  0  0  0  0
  192.8650  176.0390  142.8070 C   0  0  2  0  0  3  0  0  0  0  0  0
  191.0600  174.6520  141.9550 C   0  0  0  0  0  2  0  0  0  0  0  0
  189.9770  174.7880  143.0380 C   0  0  1  0  0  3  0  0  0  0  0  0
  192.5710  173.7630  143.6320 C   0  0  0  0  0  1  0  0  0  0  0  0
  189.6120  176.2480  143.3530 C   0  0  1  0  0  3  0  0  0  0  0  0
  188.2280  174.5620  141.2750 C   0  0  0  0  0  1  0  0  0  0  0  0
  188.7300  174.0310  142.6040 C   0  0  0  0  0  2  0  0  0  0  0  0
  194.6130  176.5380  144.5200 C   0  0  0  0  0  1  0  0  0  0  0  0
  194.3610  176.0810  143.0970 C   0  0  0  0  0  2  0  0  0  0  0  0
  185.2350  177.9550  140.8890 C   0  0  0  0  0  3  0  0  0  0  0  0
  184.7590  178.2480  142.1720 C   0  0  0  0  0  0  0  0  0  0  0  0
  183.3760  178.3660  142.3870 C   0  0  0  0  0  3  0  0  0  0  0  0
  181.0200  178.3200  141.5600 C   0  0  0  0  0  1  0  0  0  0  0  0
  182.9650  177.9010  140.0480 C   0  0  0  0  0  3  0  0  0  0  0  0
  182.4830  178.1930  141.3270 C   0  0  0  0  0  0  0  0  0  0  0  0
  184.3400  177.7830  139.8290 C   0  0  0  0  0  3  0  0  0  0  0  0
  190.3580  175.3620  146.0880 O   0  0  0  0  0  0  0  0  0  0  0  0
  191.3610  175.3390  147.0570 C   0  0  0  0  0  0  0  0  0  0  0  0
  192.4660  174.7980  146.7860 O   0  0  0  0  0  0  0  0  0  0  0  0
  191.1420  175.9160  148.3110 O   0  0  0  0  0  0  0  0  0  0  0  0
  191.6470  177.1990  148.6440 C   0  0  0  0  0  1  0  0  0  0  0  0
  1  8  2  0  0  0  0
  1  4  1  0  0  0  0
  3  5  1  6  0  0  0
  3 11  1  0  0  0  0
  3  1  1  0  0  0  0
  4  2  1  0  0  0  0
  4  6  1  1  0  0  0
  7 33  1  1  0  0  0
  7  2  1  0  0  0  0
  8 10  1  0  0  0  0
  9  6  1  0  0  0  0
 10  9  1  0  0  0  0
 11 21  1  6  0  0  0
 11  7  1  0  0  0  0
 12 27  1  6  0  0  0
 12  5  1  0  0  0  0
 12 13  1  0  0  0  0
 13  8  1  0  0  0  0
 14 15  1  0  0  0  0
 16 17  1  0  0  0  0
 16 20  1  0  0  0  0
 17 25  1  1  0  0  0
 17 15  1  0  0  0  0
 18 16  1  0  0  0  0
 18 19  1  0  0  0  0
 19 23  1  6  0  0  0
 19 21  1  0  0  0  0
 21 14  1  1  0  0  0
 22 23  1  0  0  0  0
 25 24  1  0  0  0  0
 26 27  1  0  0  0  0
 27 28  2  0  0  0  0
 30 31  2  0  0  0  0
 31 29  1  0  0  0  0
 31 28  1  0  0  0  0
 32 30  1  0  0  0  0
 32 26  2  0  0  0  0
 33 34  1  0  0  0  0
 34 36  1  0  0  0  0
 35 34  2  0  0  0  0
 36 37  1  0  0  0  0
M  END
>  <MODEL>
1

>  <REMARK>
 VINA RESULT:      -7.8      0.000      0.000
  Name = 
  7 active torsions:
  status: ('A' for Active; 'I' for Inactive)
    1  A    between atoms: O_3  and  C_21
    2  A    between atoms: C_6  and  C_31
    3  A    between atoms: C_17  and  C_23
    4  A    between atoms: C_20  and  O_25
    5  A    between atoms: C_21  and  O_25
    6  A    between atoms: C_27  and  C_33
    7  A    between atoms: C_29  and  C_36
                            x       y       z     vdW  Elec       q    Type
                         _______ _______ _______ _____ _____    ______ ____

>  <TORSDO>
F 7

$$$$
=
 OpenBabel11052419563D

 37 41  0  0  1  0  0  0  0  0999 V2000
  190.5560  174.2930  141.7900 C   0  0  0  0  0  0  0  0  0  0  0  0
  192.7170  174.2360  140.7690 O   0  0  0  0  0  0  0  0  0  0  0  0
  191.1410  174.4910  143.1730 C   0  0  2  0  0  3  0  0  0  0  0  0
  191.4620  173.6050  140.7830 C   0  0  2  0  0  3  0  0  0  0  0  0
  190.3990  175.5690  143.9550 C   0  0  0  0  0  2  0  0  0  0  0  0
  190.8890  173.6050  139.3680 C   0  0  0  0  0  2  0  0  0  0  0  0
  193.3300  173.9650  142.0070 C   0  0  2  0  0  3  0  0  0  0  0  0
  189.2350  174.5040  141.5460 C   0  0  0  0  0  0  0  0  0  0  0  0
  189.4250  173.2030  139.4020 C   0  0  0  0  0  2  0  0  0  0  0  0
  188.6440  174.2540  140.1820 C   0  0  0  0  0  2  0  0  0  0  0  0
  192.6480  174.7850  143.1230 C   0  0  2  0  0  3  0  0  0  0  0  0
  188.9150  175.2310  143.9560 C   0  0  2  0  0  3  0  0  0  0  0  0
  188.3640  175.2480  142.5300 C   0  0  0  0  0  2  0  0  0  0  0  0
  193.4500  173.0690  144.8490 C   0  0  0  0  0  2  0  0  0  0  0  0
  194.8290  172.5290  144.5060 C   0  0  0  0  0  2  0  0  0  0  0  0
  196.3290  174.0820  145.7830 N   0  0  0  0  0  0  0  0  0  0  0  0
  195.7540  172.7290  145.7070 C   0  0  2  0  0  3  0  0  0  0  0  0
  195.2890  175.0950  146.0140 C   0  0  0  0  0  2  0  0  0  0  0  0
  194.5000  175.4610  144.7470 C   0  0  1  0  0  3  0  0  0  0  0  0
  197.1450  174.4070  144.6110 C   0  0  0  0  0  1  0  0  0  0  0  0
  193.2760  174.5600  144.5120 C   0  0  1  0  0  3  0  0  0  0  0  0
  194.5550  177.5460  146.1140 C   0  0  0  0  0  1  0  0  0  0  0  0
  194.0560  176.9140  144.8280 C   0  0  0  0  0  2  0  0  0  0  0  0
  196.2640  170.3150  146.0980 C   0  0  0  0  0  1  0  0  0  0  0  0
  196.8490  171.6690  145.7450 C   0  0  0  0  0  2  0  0  0  0  0  0
  188.2030  175.9910  146.2260 C   0  0  0  0  0  3  0  0  0  0  0  0
  188.1510  176.1660  144.8380 C   0  0  0  0  0  0  0  0  0  0  0  0
  187.3870  177.2140  144.3000 C   0  0  0  0  0  3  0  0  0  0  0  0
  185.8750  179.1830  144.5710 C   0  0  0  0  0  1  0  0  0  0  0  0
  186.7380  177.8960  146.5300 C   0  0  0  0  0  3  0  0  0  0  0  0
  186.6830  178.0760  145.1450 C   0  0  0  0  0  0  0  0  0  0  0  0
  187.4970  176.8540  147.0700 C   0  0  0  0  0  3  0  0  0  0  0  0
  194.7100  174.2930  141.9240 O   0  0  0  0  0  0  0  0  0  0  0  0
  195.1800  175.2800  141.0580 C   0  0  0  0  0  0  0  0  0  0  0  0
  195.0720  176.4910  141.3900 O   0  0  0  0  0  0  0  0  0  0  0  0
  195.7680  174.9280  139.8410 O   0  0  0  0  0  0  0  0  0  0  0  0
  197.0780  175.3450  139.4930 C   0  0  0  0  0  1  0  0  0  0  0  0
  1  3  1  0  0  0  0
  2  4  1  0  0  0  0
  2  7  1  0  0  0  0
  3  5  1  6  0  0  0
  4  6  1  6  0  0  0
  4  1  1  0  0  0  0
  5 12  1  0  0  0  0
  6  9  1  0  0  0  0
  7 33  1  6  0  0  0
  7 11  1  0  0  0  0
  8  1  2  0  0  0  0
  8 13  1  0  0  0  0
  9 10  1  0  0  0  0
 10  8  1  0  0  0  0
 11  3  1  0  0  0  0
 11 21  1  1  0  0  0
 12 27  1  1  0  0  0
 13 12  1  0  0  0  0
 15 14  1  0  0  0  0
 15 17  1  0  0  0  0
 16 18  1  0  0  0  0
 17 25  1  6  0  0  0
 17 16  1  0  0  0  0
 19 23  1  1  0  0  0
 19 18  1  0  0  0  0
 20 16  1  0  0  0  0
 21 19  1  0  0  0  0
 21 14  1  6  0  0  0
 23 22  1  0  0  0  0
 25 24  1  0  0  0  0
 26 32  1  0  0  0  0
 27 26  2  0  0  0  0
 28 27  1  0  0  0  0
 28 31  2  0  0  0  0
 29 31  1  0  0  0  0
 30 32  2  0  0  0  0
 31 30  1  0  0  0  0
 34 35  2  0  0  0  0
 34 33  1  0  0  0  0
 36 34  1  0  0  0  0
 37 36  1  0  0  0  0
M  END
>  <MODEL>
2

>  <REMARK>
 VINA RESULT:      -7.6      3.386      6.740
  Name = 
  7 active torsions:
  status: ('A' for Active; 'I' for Inactive)
    1  A    between atoms: O_3  and  C_21
    2  A    between atoms: C_6  and  C_31
    3  A    between atoms: C_17  and  C_23
    4  A    between atoms: C_20  and  O_25
    5  A    between atoms: C_21  and  O_25
    6  A    between atoms: C_27  and  C_33
    7  A    between atoms: C_29  and  C_36
                            x       y       z     vdW  Elec       q    Type
                         _______ _______ _______ _____ _____    ______ ____

>  <TORSDO>
F 7

$$$$
=
 OpenBabel11052419563D

 37 41  0  0  1  0  0  0  0  0999 V2000
  190.7480  176.5100  145.4480 C   0  0  0  0  0  0  0  0  0  0  0  0
  192.2660  174.7700  146.0680 O   0  0  0  0  0  0  0  0  0  0  0  0
  190.9960  176.2910  143.9700 C   0  0  2  0  0  3  0  0  0  0  0  0
  191.8720  176.0830  146.3760 C   0  0  2  0  0  3  0  0  0  0  0  0
  189.6990  176.2910  143.1690 C   0  0  0  0  0  2  0  0  0  0  0  0
  191.4870  176.1530  147.8520 C   0  0  0  0  0  2  0  0  0  0  0  0
  192.8770  174.8080  144.8010 C   0  0  2  0  0  3  0  0  0  0  0  0
  189.6940  177.2500  145.8840 C   0  0  0  0  0  0  0  0  0  0  0  0
  190.7830  177.4680  148.1400 C   0  0  0  0  0  2  0  0  0  0  0  0
  189.4800  177.5120  147.3530 C   0  0  0  0  0  2  0  0  0  0  0  0
  191.8080  175.0140  143.7060 C   0  0  2  0  0  3  0  0  0  0  0  0
  188.9350  177.5690  143.4840 C   0  0  2  0  0  3  0  0  0  0  0  0
  188.5530  177.6100  144.9640 C   0  0  0  0  0  2  0  0  0  0  0  0
  193.4990  176.1070  142.1210 C   0  0  0  0  0  2  0  0  0  0  0  0
  194.9010  175.5560  142.3270 C   0  0  0  0  0  2  0  0  0  0  0  0
  194.9780  173.6880  140.6540 N   0  0  0  0  0  0  0  0  0  0  0  0
  195.4370  175.0460  140.9880 C   0  0  2  0  0  3  0  0  0  0  0  0
  193.5230  173.6490  140.4460 C   0  0  0  0  0  2  0  0  0  0  0  0
  192.7180  173.6390  141.7560 C   0  0  1  0  0  3  0  0  0  0  0  0
  195.4070  172.6960  141.6420 C   0  0  0  0  0  1  0  0  0  0  0  0
  192.3960  175.0470  142.2820 C   0  0  1  0  0  3  0  0  0  0  0  0
  190.5290  173.5820  140.5620 C   0  0  0  0  0  1  0  0  0  0  0  0
  191.4260  172.8620  141.5510 C   0  0  0  0  0  2  0  0  0  0  0  0
  197.5010  175.7550  142.2040 C   0  0  0  0  0  1  0  0  0  0  0  0
  196.9570  175.1360  140.9300 C   0  0  0  0  0  2  0  0  0  0  0  0
  187.8660  177.5660  141.2270 C   0  0  0  0  0  3  0  0  0  0  0  0
  187.7270  177.7020  142.6130 C   0  0  0  0  0  0  0  0  0  0  0  0
  186.4590  177.9570  143.1600 C   0  0  0  0  0  3  0  0  0  0  0  0
  184.0050  178.3460  142.9090 C   0  0  0  0  0  1  0  0  0  0  0  0
  185.4900  177.9390  140.9420 C   0  0  0  0  0  3  0  0  0  0  0  0
  185.3450  178.0750  142.3250 C   0  0  0  0  0  0  0  0  0  0  0  0
  186.7510  177.6850  140.3930 C   0  0  0  0  0  3  0  0  0  0  0  0
  193.5780  173.5910  144.5850 O   0  0  0  0  0  0  0  0  0  0  0  0
  194.6700  173.2230  145.3700 C   0  0  0  0  0  0  0  0  0  0  0  0
  194.7940  172.0220  145.7270 O   0  0  0  0  0  0  0  0  0  0  0  0
  195.6180  174.1770  145.7490 O   0  0  0  0  0  0  0  0  0  0  0  0
  197.0050  173.9900  145.5170 C   0  0  0  0  0  1  0  0  0  0  0  0
  1  8  2  0  0  0  0
  1  4  1  0  0  0  0
  2  4  1  0  0  0  0
  3  5  1  6  0  0  0
  3  1  1  0  0  0  0
  4  6  1  1  0  0  0
  5 12  1  0  0  0  0
  6  9  1  0  0  0  0
  7 33  1  6  0  0  0
  7  2  1  0  0  0  0
  8 10  1  0  0  0  0
 10  9  1  0  0  0  0
 11 21  1  6  0  0  0
 11  3  1  0  0  0  0
 11  7  1  0  0  0  0
 12 27  1  6  0  0  0
 12 13  1  0  0  0  0
 13  8  1  0  0  0  0
 14 15  1  0  0  0  0
 16 17  1  0  0  0  0
 16 20  1  0  0  0  0
 17 25  1  1  0  0  0
 17 15  1  0  0  0  0
 18 16  1  0  0  0  0
 18 19  1  0  0  0  0
 19 23  1  6  0  0  0
 19 21  1  0  0  0  0
 21 14  1  1  0  0  0
 22 23  1  0  0  0  0
 25 24  1  0  0  0  0
 26 27  1  0  0  0  0
 27 28  2  0  0  0  0
 30 31  2  0  0  0  0
 31 29  1  0  0  0  0
 31 28  1  0  0  0  0
 32 30  1  0  0  0  0
 32 26  2  0  0  0  0
 33 34  1  0  0  0  0
 34 35  2  0  0  0  0
 34 36  1  0  0  0  0
 37 36  1  0  0  0  0
M  END
>  <MODEL>
3

>  <REMARK>
 VINA RESULT:      -7.5      2.091      3.756
  Name = 
  7 active torsions:
  status: ('A' for Active; 'I' for Inactive)
    1  A    between atoms: O_3  and  C_21
    2  A    between atoms: C_6  and  C_31
    3  A    between atoms: C_17  and  C_23
    4  A    between atoms: C_20  and  O_25
    5  A    between atoms: C_21  and  O_25
    6  A    between atoms: C_27  and  C_33
    7  A    between atoms: C_29  and  C_36
                            x       y       z     vdW  Elec       q    Type
                         _______ _______ _______ _____ _____    ______ ____

>  <TORSDO>
F 7

$$$$
=
 OpenBabel11052419563D

 37 41  0  0  1  0  0  0  0  0999 V2000
  187.3340  176.7750  142.5020 C   0  0  0  0  0  0  0  0  0  0  0  0
  186.3180  177.3550  144.5870 O   0  0  0  0  0  0  0  0  0  0  0  0
  188.4910  176.0750  143.1840 C   0  0  2  0  0  3  0  0  0  0  0  0
  186.6450  177.8570  143.3160 C   0  0  2  0  0  3  0  0  0  0  0  0
  188.8110  174.7360  142.5300 C   0  0  0  0  0  2  0  0  0  0  0  0
  185.3780  178.3890  142.6500 C   0  0  0  0  0  2  0  0  0  0  0  0
  187.5290  177.1440  145.2720 C   0  0  2  0  0  3  0  0  0  0  0  0
  187.0910  176.6060  141.1750 C   0  0  0  0  0  0  0  0  0  0  0  0
  185.6420  178.6610  141.1800 C   0  0  0  0  0  2  0  0  0  0  0  0
  185.9730  177.3450  140.4860 C   0  0  0  0  0  2  0  0  0  0  0  0
  188.2540  175.9100  144.6930 C   0  0  2  0  0  3  0  0  0  0  0  0
  189.0200  174.9620  141.0400 C   0  0  2  0  0  3  0  0  0  0  0  0
  187.7350  175.4840  140.3960 C   0  0  0  0  0  2  0  0  0  0  0  0
  189.7210  174.1130  145.7830 C   0  0  0  0  0  2  0  0  0  0  0  0
  190.4680  173.2920  144.7450 C   0  0  0  0  0  2  0  0  0  0  0  0
  192.6380  174.5380  144.5590 N   0  0  0  0  0  0  0  0  0  0  0  0
  191.9640  173.3310  145.0630 C   0  0  2  0  0  3  0  0  0  0  0  0
  192.1420  175.7490  145.2300 C   0  0  0  0  0  2  0  0  0  0  0  0
  190.7870  176.2350  144.6900 C   0  0  1  0  0  3  0  0  0  0  0  0
  192.5530  174.6570  143.1030 C   0  0  0  0  0  1  0  0  0  0  0  0
  189.5840  175.5980  145.4060 C   0  0  1  0  0  3  0  0  0  0  0  0
  191.2660  178.4050  143.5580 C   0  0  0  0  0  1  0  0  0  0  0  0
  190.7090  177.7500  144.8080 C   0  0  0  0  0  2  0  0  0  0  0  0
  193.9980  171.8970  145.2770 C   0  0  0  0  0  1  0  0  0  0  0  0
  192.6670  172.0700  144.5730 C   0  0  0  0  0  2  0  0  0  0  0  0
  189.4290  173.6250  138.9710 C   0  0  0  0  0  3  0  0  0  0  0  0
  189.4880  173.7120  140.3670 C   0  0  0  0  0  0  0  0  0  0  0  0
  189.9860  172.6280  141.1080 C   0  0  0  0  0  3  0  0  0  0  0  0
  190.9450  170.3260  141.2440 C   0  0  0  0  0  1  0  0  0  0  0  0
  190.3570  171.3900  139.0610 C   0  0  0  0  0  3  0  0  0  0  0  0
  190.4190  171.4710  140.4550 C   0  0  0  0  0  0  0  0  0  0  0  0
  189.8620  172.4670  138.3190 C   0  0  0  0  0  3  0  0  0  0  0  0
  187.2540  176.9540  146.6540 O   0  0  0  0  0  0  0  0  0  0  0  0
  186.3830  177.7890  147.3510 C   0  0  0  0  0  0  0  0  0  0  0  0
  186.8570  178.7040  148.0760 O   0  0  0  0  0  0  0  0  0  0  0  0
  185.0010  177.6160  147.2400 O   0  0  0  0  0  0  0  0  0  0  0  0
  184.1770  178.5640  146.5810 C   0  0  0  0  0  1  0  0  0  0  0  0
  1  3  1  0  0  0  0
  1  4  1  0  0  0  0
  2  7  1  0  0  0  0
  3  5  1  6  0  0  0
  3 11  1  0  0  0  0
  4  6  1  6  0  0  0
  4  2  1  0  0  0  0
  7 33  1  1  0  0  0
  8  1  2  0  0  0  0
  9  6  1  0  0  0  0
 10  8  1  0  0  0  0
 10  9  1  0  0  0  0
 11  7  1  0  0  0  0
 11 21  1  1  0  0  0
 12 27  1  6  0  0  0
 12  5  1  0  0  0  0
 13 12  1  0  0  0  0
 13  8  1  0  0  0  0
 15 17  1  0  0  0  0
 15 14  1  0  0  0  0
 16 17  1  0  0  0  0
 16 18  1  0  0  0  0
 17 25  1  6  0  0  0
 19 23  1  1  0  0  0
 19 18  1  0  0  0  0
 19 21  1  0  0  0  0
 20 16  1  0  0  0  0
 21 14  1  6  0  0  0
 22 23  1  0  0  0  0
 25 24  1  0  0  0  0
 26 27  1  0  0  0  0
 27 28  2  0  0  0  0
 30 31  2  0  0  0  0
 31 28  1  0  0  0  0
 31 29  1  0  0  0  0
 32 26  2  0  0  0  0
 32 30  1  0  0  0  0
 33 34  1  0  0  0  0
 34 35  2  0  0  0  0
 36 34  1  0  0  0  0
 37 36  1  0  0  0  0
M  END
>  <MODEL>
4

>  <REMARK>
 VINA RESULT:      -7.5      2.236      5.795
  Name = 
  7 active torsions:
  status: ('A' for Active; 'I' for Inactive)
    1  A    between atoms: O_3  and  C_21
    2  A    between atoms: C_6  and  C_31
    3  A    between atoms: C_17  and  C_23
    4  A    between atoms: C_20  and  O_25
    5  A    between atoms: C_21  and  O_25
    6  A    between atoms: C_27  and  C_33
    7  A    between atoms: C_29  and  C_36
                            x       y       z     vdW  Elec       q    Type
                         _______ _______ _______ _____ _____    ______ ____

>  <TORSDO>
F 7

$$$$
=
 OpenBabel11052419563D

 37 41  0  0  1  0  0  0  0  0999 V2000
  187.3760  176.6560  142.3550 C   0  0  0  0  0  0  0  0  0  0  0  0
  186.2530  177.2140  144.3910 O   0  0  0  0  0  0  0  0  0  0  0  0
  188.5290  176.0050  143.0920 C   0  0  2  0  0  3  0  0  0  0  0  0
  186.6130  177.7180  143.1300 C   0  0  2  0  0  3  0  0  0  0  0  0
  188.9250  174.6740  142.4640 C   0  0  0  0  0  2  0  0  0  0  0  0
  185.3570  178.1970  142.4070 C   0  0  0  0  0  2  0  0  0  0  0  0
  187.4410  177.0540  145.1280 C   0  0  2  0  0  3  0  0  0  0  0  0
  187.1950  176.4670  141.0210 C   0  0  0  0  0  0  0  0  0  0  0  0
  185.6720  178.4670  140.9460 C   0  0  0  0  0  2  0  0  0  0  0  0
  186.0800  177.1580  140.2800 C   0  0  0  0  0  2  0  0  0  0  0  0
  188.2350  175.8440  144.5910 C   0  0  2  0  0  3  0  0  0  0  0  0
  189.1870  174.8950  140.9820 C   0  0  2  0  0  3  0  0  0  0  0  0
  187.9120  175.3630  140.2810 C   0  0  0  0  0  2  0  0  0  0  0  0
  189.7300  174.1080  145.7400 C   0  0  0  0  0  2  0  0  0  0  0  0
  190.5580  173.3250  144.7350 C   0  0  0  0  0  2  0  0  0  0  0  0
  192.6770  174.6660  144.6480 N   0  0  0  0  0  0  0  0  0  0  0  0
  192.0350  173.4280  145.1190 C   0  0  2  0  0  3  0  0  0  0  0  0
  192.1000  175.8510  145.2980 C   0  0  0  0  0  2  0  0  0  0  0  0
  190.7490  176.2790  144.7000 C   0  0  1  0  0  3  0  0  0  0  0  0
  192.6510  174.7870  143.1890 C   0  0  0  0  0  1  0  0  0  0  0  0
  189.5450  175.5870  145.3610 C   0  0  1  0  0  3  0  0  0  0  0  0
  191.2420  178.4770  143.6280 C   0  0  0  0  0  1  0  0  0  0  0  0
  190.5990  177.7890  144.8180 C   0  0  0  0  0  2  0  0  0  0  0  0
  191.8820  171.1930  144.0120 C   0  0  0  0  0  1  0  0  0  0  0  0
  192.8140  172.2010  144.6570 C   0  0  0  0  0  2  0  0  0  0  0  0
  190.0200  172.5470  141.1400 C   0  0  0  0  0  3  0  0  0  0  0  0
  189.7290  173.6580  140.3410 C   0  0  0  0  0  0  0  0  0  0  0  0
  189.9490  173.5920  138.9560 C   0  0  0  0  0  3  0  0  0  0  0  0
  190.6870  172.3590  136.9130 C   0  0  0  0  0  1  0  0  0  0  0  0
  190.7440  171.3170  139.1830 C   0  0  0  0  0  3  0  0  0  0  0  0
  190.4560  172.4240  138.3800 C   0  0  0  0  0  0  0  0  0  0  0  0
  190.5270  171.3790  140.5630 C   0  0  0  0  0  3  0  0  0  0  0  0
  187.1170  176.8650  146.4980 O   0  0  0  0  0  0  0  0  0  0  0  0
  186.2880  177.7500  147.1860 C   0  0  0  0  0  0  0  0  0  0  0  0
  186.8040  178.6160  147.9410 O   0  0  0  0  0  0  0  0  0  0  0  0
  184.9010  177.6800  147.0320 O   0  0  0  0  0  0  0  0  0  0  0  0
  184.1690  178.6900  146.3580 C   0  0  0  0  0  1  0  0  0  0  0  0
  1  3  1  0  0  0  0
  1  4  1  0  0  0  0
  2  7  1  0  0  0  0
  3  5  1  6  0  0  0
  3 11  1  0  0  0  0
  4  6  1  6  0  0  0
  4  2  1  0  0  0  0
  7 33  1  1  0  0  0
  8  1  2  0  0  0  0
  9  6  1  0  0  0  0
 10  9  1  0  0  0  0
 10  8  1  0  0  0  0
 11  7  1  0  0  0  0
 11 21  1  1  0  0  0
 12 27  1  6  0  0  0
 12  5  1  0  0  0  0
 13 12  1  0  0  0  0
 13  8  1  0  0  0  0
 15 17  1  0  0  0  0
 15 14  1  0  0  0  0
 16 17  1  0  0  0  0
 16 18  1  0  0  0  0
 17 25  1  6  0  0  0
 19 23  1  1  0  0  0
 19 18  1  0  0  0  0
 19 21  1  0  0  0  0
 20 16  1  0  0  0  0
 21 14  1  6  0  0  0
 22 23  1  0  0  0  0
 24 25  1  0  0  0  0
 27 26  2  0  0  0  0
 28 27  1  0  0  0  0
 29 31  1  0  0  0  0
 30 32  2  0  0  0  0
 31 28  2  0  0  0  0
 31 30  1  0  0  0  0
 32 26  1  0  0  0  0
 33 34  1  0  0  0  0
 34 35  2  0  0  0  0
 36 34  1  0  0  0  0
 37 36  1  0  0  0  0
M  END
>  <MODEL>
5

>  <REMARK>
 VINA RESULT:      -7.4      2.318      5.944
  Name = 
  7 active torsions:
  status: ('A' for Active; 'I' for Inactive)
    1  A    between atoms: O_3  and  C_21
    2  A    between atoms: C_6  and  C_31
    3  A    between atoms: C_17  and  C_23
    4  A    between atoms: C_20  and  O_25
    5  A    between atoms: C_21  and  O_25
    6  A    between atoms: C_27  and  C_33
    7  A    between atoms: C_29  and  C_36
                            x       y       z     vdW  Elec       q    Type
                         _______ _______ _______ _____ _____    ______ ____

>  <TORSDO>
F 7

$$$$
=
 OpenBabel11052419563D

 37 41  0  0  1  0  0  0  0  0999 V2000
  190.2030  174.4240  141.3460 C   0  0  0  0  0  0  0  0  0  0  0  0
  192.4640  174.4850  140.5720 O   0  0  0  0  0  0  0  0  0  0  0  0
  190.5920  174.9160  142.7250 C   0  0  2  0  0  3  0  0  0  0  0  0
  191.2950  173.7070  140.5690 C   0  0  2  0  0  3  0  0  0  0  0  0
  189.6450  175.9990  143.2300 C   0  0  0  0  0  2  0  0  0  0  0  0
  190.9000  173.4060  139.1260 C   0  0  0  0  0  2  0  0  0  0  0  0
  192.9500  174.4980  141.8930 C   0  0  2  0  0  3  0  0  0  0  0  0
  188.9060  174.4190  140.9380 C   0  0  0  0  0  0  0  0  0  0  0  0
  189.4960  172.8280  139.0830 C   0  0  0  0  0  2  0  0  0  0  0  0
  188.5150  173.8790  139.5870 C   0  0  0  0  0  2  0  0  0  0  0  0
  192.0520  175.3910  142.7760 C   0  0  2  0  0  3  0  0  0  0  0  0
  188.2190  175.4750  143.1410 C   0  0  2  0  0  3  0  0  0  0  0  0
  187.8460  175.1920  141.6860 C   0  0  0  0  0  2  0  0  0  0  0  0
  192.4390  176.9000  144.8110 C   0  0  0  0  0  2  0  0  0  0  0  0
  191.1480  177.1670  145.5670 C   0  0  0  0  0  2  0  0  0  0  0  0
  191.1610  175.3380  147.2840 N   0  0  0  0  0  0  0  0  0  0  0  0
  191.3400  176.7770  147.0330 C   0  0  2  0  0  3  0  0  0  0  0  0
  192.1970  174.5430  146.6090 C   0  0  0  0  0  2  0  0  0  0  0  0
  191.9370  174.3510  145.1050 C   0  0  1  0  0  3  0  0  0  0  0  0
  189.8160  174.8740  146.9370 C   0  0  0  0  0  1  0  0  0  0  0  0
  192.5290  175.4750  144.2380 C   0  0  1  0  0  3  0  0  0  0  0  0
  193.8120  172.7280  145.3740 C   0  0  0  0  0  1  0  0  0  0  0  0
  192.5030  173.0100  144.6600 C   0  0  0  0  0  2  0  0  0  0  0  0
  191.1860  177.9850  149.2140 C   0  0  0  0  0  1  0  0  0  0  0  0
  190.4440  177.6040  147.9480 C   0  0  0  0  0  2  0  0  0  0  0  0
  187.4790  176.8690  145.0770 C   0  0  0  0  0  3  0  0  0  0  0  0
  187.2550  176.4320  143.7660 C   0  0  0  0  0  0  0  0  0  0  0  0
  186.1340  176.9010  143.0620 C   0  0  0  0  0  3  0  0  0  0  0  0
  184.0630  178.2890  142.9190 C   0  0  0  0  0  1  0  0  0  0  0  0
  185.4770  178.2280  144.9780 C   0  0  0  0  0  3  0  0  0  0  0  0
  185.2480  177.7960  143.6680 C   0  0  0  0  0  0  0  0  0  0  0  0
  186.5920  177.7640  145.6820 C   0  0  0  0  0  3  0  0  0  0  0  0
  194.2850  174.9850  141.8930 O   0  0  0  0  0  0  0  0  0  0  0  0
  195.3490  174.2120  142.3570 C   0  0  0  0  0  0  0  0  0  0  0  0
  195.3600  172.9750  142.1180 O   0  0  0  0  0  0  0  0  0  0  0  0
  196.3920  174.8060  143.0710 O   0  0  0  0  0  0  0  0  0  0  0  0
  196.3180  176.1460  143.5300 C   0  0  0  0  0  1  0  0  0  0  0  0
  1  3  1  0  0  0  0
  2  7  1  0  0  0  0
  3 11  1  0  0  0  0
  3  5  1  6  0  0  0
  4  6  1  6  0  0  0
  4  2  1  0  0  0  0
  4  1  1  0  0  0  0
  7 33  1  6  0  0  0
  7 11  1  0  0  0  0
  8  1  2  0  0  0  0
  8 13  1  0  0  0  0
  9  6  1  0  0  0  0
  9 10  1  0  0  0  0
 10  8  1  0  0  0  0
 11 21  1  1  0  0  0
 12  5  1  0  0  0  0
 12 27  1  6  0  0  0
 13 12  1  0  0  0  0
 14 15  1  0  0  0  0
 15 17  1  0  0  0  0
 17 16  1  0  0  0  0
 17 25  1  1  0  0  0
 18 16  1  0  0  0  0
 19 23  1  6  0  0  0
 19 18  1  0  0  0  0
 20 16  1  0  0  0  0
 21 14  1  1  0  0  0
 21 19  1  0  0  0  0
 23 22  1  0  0  0  0
 25 24  1  0  0  0  0
 26 32  1  0  0  0  0
 27 26  2  0  0  0  0
 28 31  2  0  0  0  0
 28 27  1  0  0  0  0
 29 31  1  0  0  0  0
 30 32  2  0  0  0  0
 31 30  1  0  0  0  0
 33 34  1  0  0  0  0
 34 36  1  0  0  0  0
 35 34  2  0  0  0  0
 36 37  1  0  0  0  0
M  END
>  <MODEL>
6

>  <REMARK>
 VINA RESULT:      -7.3      2.836      5.932
  Name = 
  7 active torsions:
  status: ('A' for Active; 'I' for Inactive)
    1  A    between atoms: O_3  and  C_21
    2  A    between atoms: C_6  and  C_31
    3  A    between atoms: C_17  and  C_23
    4  A    between atoms: C_20  and  O_25
    5  A    between atoms: C_21  and  O_25
    6  A    between atoms: C_27  and  C_33
    7  A    between atoms: C_29  and  C_36
                            x       y       z     vdW  Elec       q    Type
                         _______ _______ _______ _____ _____    ______ ____

>  <TORSDO>
F 7

$$$$
=
 OpenBabel11052419563D

 37 41  0  0  1  0  0  0  0  0999 V2000
  192.3690  175.4590  144.9500 C   0  0  0  0  0  0  0  0  0  0  0  0
  193.6640  173.4880  144.5530 O   0  0  0  0  0  0  0  0  0  0  0  0
  191.4070  175.1330  143.8260 C   0  0  2  0  0  3  0  0  0  0  0  0
  193.7610  174.8640  144.8190 C   0  0  2  0  0  3  0  0  0  0  0  0
  189.9560  175.3460  144.2400 C   0  0  0  0  0  2  0  0  0  0  0  0
  194.6170  175.0710  146.0660 C   0  0  0  0  0  2  0  0  0  0  0  0
  193.1230  173.3540  143.2610 C   0  0  2  0  0  3  0  0  0  0  0  0
  192.0730  176.4050  145.8790 C   0  0  0  0  0  0  0  0  0  0  0  0
  194.4960  176.5070  146.5450 C   0  0  0  0  0  2  0  0  0  0  0  0
  193.0540  176.7660  146.9650 C   0  0  0  0  0  2  0  0  0  0  0  0
  191.6220  173.7130  143.2780 C   0  0  2  0  0  3  0  0  0  0  0  0
  189.8100  176.7590  144.7860 C   0  0  2  0  0  3  0  0  0  0  0  0
  190.6680  176.9360  146.0390 C   0  0  0  0  0  2  0  0  0  0  0  0
  191.7990  174.1570  140.7610 C   0  0  0  0  0  2  0  0  0  0  0  0
  192.6730  173.1250  140.0670 C   0  0  0  0  0  2  0  0  0  0  0  0
  190.9870  171.4100  139.3520 N   0  0  0  0  0  0  0  0  0  0  0  0
  191.8840  172.4940  138.9190 C   0  0  2  0  0  3  0  0  0  0  0  0
  189.9200  171.9140  140.2290 C   0  0  0  0  0  2  0  0  0  0  0  0
  190.3820  172.1600  141.6750 C   0  0  1  0  0  3  0  0  0  0  0  0
  191.7140  170.3010  139.9720 C   0  0  0  0  0  1  0  0  0  0  0  0
  190.9480  173.5720  141.9000 C   0  0  1  0  0  3  0  0  0  0  0  0
  188.0020  172.7080  142.1830 C   0  0  0  0  0  1  0  0  0  0  0  0
  189.2190  171.9170  142.6260 C   0  0  0  0  0  2  0  0  0  0  0  0
  194.0150  172.9360  137.6930 C   0  0  0  0  0  1  0  0  0  0  0  0
  192.8100  172.0230  137.8040 C   0  0  0  0  0  2  0  0  0  0  0  0
  187.7350  176.4600  146.1420 C   0  0  0  0  0  3  0  0  0  0  0  0
  188.3780  177.0830  145.0660 C   0  0  0  0  0  0  0  0  0  0  0  0
  187.6690  177.9990  144.2720 C   0  0  0  0  0  3  0  0  0  0  0  0
  185.5850  179.2560  143.7120 C   0  0  0  0  0  1  0  0  0  0  0  0
  185.6950  177.6600  145.6320 C   0  0  0  0  0  3  0  0  0  0  0  0
  186.3310  178.2850  144.5560 C   0  0  0  0  0  0  0  0  0  0  0  0
  186.3970  176.7470  146.4240 C   0  0  0  0  0  3  0  0  0  0  0  0
  193.3070  172.0170  142.8160 O   0  0  0  0  0  0  0  0  0  0  0  0
  193.3920  170.9510  143.7110 C   0  0  0  0  0  0  0  0  0  0  0  0
  192.3340  170.3830  144.0930 O   0  0  0  0  0  0  0  0  0  0  0  0
  194.6370  170.5150  144.1710 O   0  0  0  0  0  0  0  0  0  0  0  0
  194.8220  170.0370  145.4940 C   0  0  0  0  0  1  0  0  0  0  0  0
  1  8  2  0  0  0  0
  2  4  1  0  0  0  0
  3  5  1  1  0  0  0
  3  1  1  0  0  0  0
  4  1  1  0  0  0  0
  4  6  1  1  0  0  0
  5 12  1  0  0  0  0
  6  9  1  0  0  0  0
  7 33  1  1  0  0  0
  7 11  1  0  0  0  0
  7  2  1  0  0  0  0
  8 13  1  0  0  0  0
  8 10  1  0  0  0  0
  9 10  1  0  0  0  0
 11 21  1  6  0  0  0
 11  3  1  0  0  0  0
 12 27  1  1  0  0  0
 12 13  1  0  0  0  0
 15 14  1  0  0  0  0
 16 20  1  0  0  0  0
 16 18  1  0  0  0  0
 17 25  1  6  0  0  0
 17 16  1  0  0  0  0
 17 15  1  0  0  0  0
 18 19  1  0  0  0  0
 19 21  1  0  0  0  0
 19 23  1  1  0  0  0
 21 14  1  6  0  0  0
 22 23  1  0  0  0  0
 24 25  1  0  0  0  0
 26 32  1  0  0  0  0
 27 26  2  0  0  0  0
 28 31  2  0  0  0  0
 28 27  1  0  0  0  0
 29 31  1  0  0  0  0
 30 32  2  0  0  0  0
 31 30  1  0  0  0  0
 33 34  1  0  0  0  0
 34 35  2  0  0  0  0
 34 36  1  0  0  0  0
 36 37  1  0  0  0  0
M  END
>  <MODEL>
7

>  <REMARK>
 VINA RESULT:      -7.2      2.923      5.752
  Name = 
  7 active torsions:
  status: ('A' for Active; 'I' for Inactive)
    1  A    between atoms: O_3  and  C_21
    2  A    between atoms: C_6  and  C_31
    3  A    between atoms: C_17  and  C_23
    4  A    between atoms: C_20  and  O_25
    5  A    between atoms: C_21  and  O_25
    6  A    between atoms: C_27  and  C_33
    7  A    between atoms: C_29  and  C_36
                            x       y       z     vdW  Elec       q    Type
                         _______ _______ _______ _____ _____    ______ ____

>  <TORSDO>
F 7

$$$$
=
 OpenBabel11052419563D

 37 41  0  0  1  0  0  0  0  0999 V2000
  190.7240  175.7050  145.2600 C   0  0  0  0  0  0  0  0  0  0  0  0
  189.2650  176.8770  143.7720 O   0  0  0  0  0  0  0  0  0  0  0  0
  191.0810  174.6770  144.2060 C   0  0  2  0  0  3  0  0  0  0  0  0
  189.3790  176.3900  145.0840 C   0  0  2  0  0  3  0  0  0  0  0  0
  192.5780  174.3940  144.1710 C   0  0  0  0  0  2  0  0  0  0  0  0
  189.1630  177.5410  146.0630 C   0  0  0  0  0  2  0  0  0  0  0  0
  189.1820  175.7590  142.9210 C   0  0  2  0  0  3  0  0  0  0  0  0
  191.4520  175.8280  146.4010 C   0  0  0  0  0  0  0  0  0  0  0  0
  189.5700  177.1130  147.4630 C   0  0  0  0  0  2  0  0  0  0  0  0
  191.0640  176.8140  147.4720 C   0  0  0  0  0  2  0  0  0  0  0  0
  190.5610  175.0740  142.8160 C   0  0  2  0  0  3  0  0  0  0  0  0
  193.0340  174.0230  145.5750 C   0  0  2  0  0  3  0  0  0  0  0  0
  192.8170  175.1950  146.5320 C   0  0  0  0  0  2  0  0  0  0  0  0
  191.7750  173.8190  140.9400 C   0  0  0  0  0  2  0  0  0  0  0  0
  192.9360  172.9950  141.4730 C   0  0  0  0  0  2  0  0  0  0  0  0
  191.8540  170.7660  141.8690 N   0  0  0  0  0  0  0  0  0  0  0  0
  192.7680  171.5450  141.0170 C   0  0  2  0  0  3  0  0  0  0  0  0
  190.4790  171.2810  141.7930 C   0  0  0  0  0  2  0  0  0  0  0  0
  190.2520  172.5450  142.6400 C   0  0  1  0  0  3  0  0  0  0  0  0
  192.3200  170.6810  143.2540 C   0  0  0  0  0  1  0  0  0  0  0  0
  190.5610  173.8470  141.8830 C   0  0  1  0  0  3  0  0  0  0  0  0
  187.8540  172.6650  141.9650 C   0  0  0  0  0  1  0  0  0  0  0  0
  188.8140  172.5700  143.1360 C   0  0  0  0  0  2  0  0  0  0  0  0
  195.2200  171.7090  141.4650 C   0  0  0  0  0  1  0  0  0  0  0  0
  194.1160  170.8460  140.8840 C   0  0  0  0  0  2  0  0  0  0  0  0
  195.4740  174.5520  145.5440 C   0  0  0  0  0  3  0  0  0  0  0  0
  194.4630  173.5840  145.5780 C   0  0  0  0  0  0  0  0  0  0  0  0
  194.8080  172.2240  145.6170 C   0  0  0  0  0  3  0  0  0  0  0  0
  196.5110  170.3980  145.6600 C   0  0  0  0  0  1  0  0  0  0  0  0
  197.1560  172.8100  145.5850 C   0  0  0  0  0  3  0  0  0  0  0  0
  196.1510  171.8390  145.6200 C   0  0  0  0  0  0  0  0  0  0  0  0
  196.8180  174.1660  145.5470 C   0  0  0  0  0  3  0  0  0  0  0  0
  188.7400  176.1820  141.6380 O   0  0  0  0  0  0  0  0  0  0  0  0
  187.3930  176.4200  141.3660 C   0  0  0  0  0  0  0  0  0  0  0  0
  187.0660  176.8810  140.2410 O   0  0  0  0  0  0  0  0  0  0  0  0
  186.4210  176.1430  142.3300 O   0  0  0  0  0  0  0  0  0  0  0  0
  185.6730  177.1710  142.9590 C   0  0  0  0  0  1  0  0  0  0  0  0
  1  8  2  0  0  0  0
  2  4  1  0  0  0  0
  3  5  1  6  0  0  0
  3  1  1  0  0  0  0
  4  1  1  0  0  0  0
  4  6  1  1  0  0  0
  5 12  1  0  0  0  0
  6  9  1  0  0  0  0
  7 33  1  6  0  0  0
  7  2  1  0  0  0  0
  8 13  1  0  0  0  0
  8 10  1  0  0  0  0
  9 10  1  0  0  0  0
 11 21  1  6  0  0  0
 11  7  1  0  0  0  0
 11  3  1  0  0  0  0
 12 27  1  6  0  0  0
 12 13  1  0  0  0  0
 14 15  1  0  0  0  0
 16 20  1  0  0  0  0
 17 25  1  1  0  0  0
 17 15  1  0  0  0  0
 17 16  1  0  0  0  0
 18 16  1  0  0  0  0
 18 19  1  0  0  0  0
 19 23  1  6  0  0  0
 21 14  1  1  0  0  0
 21 19  1  0  0  0  0
 22 23  1  0  0  0  0
 25 24  1  0  0  0  0
 26 32  2  0  0  0  0
 26 27  1  0  0  0  0
 27 28  2  0  0  0  0
 28 31  1  0  0  0  0
 30 31  2  0  0  0  0
 31 29  1  0  0  0  0
 32 30  1  0  0  0  0
 34 33  1  0  0  0  0
 34 36  1  0  0  0  0
 35 34  2  0  0  0  0
 36 37  1  0  0  0  0
M  END
>  <MODEL>
8

>  <REMARK>
 VINA RESULT:      -7.1      3.043      7.888
  Name = 
  7 active torsions:
  status: ('A' for Active; 'I' for Inactive)
    1  A    between atoms: O_3  and  C_21
    2  A    between atoms: C_6  and  C_31
    3  A    between atoms: C_17  and  C_23
    4  A    between atoms: C_20  and  O_25
    5  A    between atoms: C_21  and  O_25
    6  A    between atoms: C_27  and  C_33
    7  A    between atoms: C_29  and  C_36
                            x       y       z     vdW  Elec       q    Type
                         _______ _______ _______ _____ _____    ______ ____

>  <TORSDO>
F 7

$$$$
=
 OpenBabel11052419563D

 37 41  0  0  1  0  0  0  0  0999 V2000
  187.8230  176.2630  143.8840 C   0  0  0  0  0  0  0  0  0  0  0  0
  187.8910  176.1310  146.2710 O   0  0  0  0  0  0  0  0  0  0  0  0
  189.1850  175.6150  143.7430 C   0  0  2  0  0  3  0  0  0  0  0  0
  187.5670  176.9800  145.2000 C   0  0  2  0  0  3  0  0  0  0  0  0
  189.1990  174.5520  142.6510 C   0  0  0  0  0  2  0  0  0  0  0  0
  186.1210  177.4450  145.3530 C   0  0  0  0  0  2  0  0  0  0  0  0
  189.2880  175.9580  146.2540 C   0  0  2  0  0  3  0  0  0  0  0  0
  186.9900  176.3920  142.8180 C   0  0  0  0  0  0  0  0  0  0  0  0
  185.6540  178.1150  144.0720 C   0  0  0  0  0  2  0  0  0  0  0  0
  185.6580  177.0850  142.9490 C   0  0  0  0  0  2  0  0  0  0  0  0
  189.6910  175.0430  145.0770 C   0  0  2  0  0  3  0  0  0  0  0  0
  188.6750  175.1730  141.3640 C   0  0  2  0  0  3  0  0  0  0  0  0
  187.2240  175.6200  141.5410 C   0  0  0  0  0  2  0  0  0  0  0  0
  191.5500  173.2960  144.8360 C   0  0  0  0  0  2  0  0  0  0  0  0
  191.7420  172.8740  143.3890 C   0  0  0  0  0  2  0  0  0  0  0  0
  193.5290  174.4580  142.6190 N   0  0  0  0  0  0  0  0  0  0  0  0
  193.2080  173.0740  143.0030 C   0  0  2  0  0  3  0  0  0  0  0  0
  193.3740  175.3800  143.7530 C   0  0  0  0  0  2  0  0  0  0  0  0
  191.9110  175.7580  144.0380 C   0  0  1  0  0  3  0  0  0  0  0  0
  192.7630  174.9050  141.4540 C   0  0  0  0  0  1  0  0  0  0  0  0
  191.2080  174.7870  145.0000 C   0  0  1  0  0  3  0  0  0  0  0  0
  191.3060  178.1320  143.5660 C   0  0  0  0  0  1  0  0  0  0  0  0
  191.8530  177.1690  144.6040 C   0  0  0  0  0  2  0  0  0  0  0  0
  192.9800  170.7430  142.1330 C   0  0  0  0  0  1  0  0  0  0  0  0
  193.6330  172.0940  141.9150 C   0  0  0  0  0  2  0  0  0  0  0  0
  188.1860  174.5330  139.0010 C   0  0  0  0  0  3  0  0  0  0  0  0
  188.8080  174.2250  140.2160 C   0  0  0  0  0  0  0  0  0  0  0  0
  189.5460  173.0360  140.3350 C   0  0  0  0  0  3  0  0  0  0  0  0
  190.4370  170.9080  139.3780 C   0  0  0  0  0  1  0  0  0  0  0  0
  189.0320  172.4780  138.0360 C   0  0  0  0  0  3  0  0  0  0  0  0
  189.6560  172.1660  139.2470 C   0  0  0  0  0  0  0  0  0  0  0  0
  188.2960  173.6610  137.9130 C   0  0  0  0  0  3  0  0  0  0  0  0
  189.7010  175.3870  147.4880 O   0  0  0  0  0  0  0  0  0  0  0  0
  190.8540  175.8140  148.1450 C   0  0  0  0  0  0  0  0  0  0  0  0
  191.5640  174.9700  148.7520 O   0  0  0  0  0  0  0  0  0  0  0  0
  191.2180  177.1630  148.1230 O   0  0  0  0  0  0  0  0  0  0  0  0
  191.5630  177.8660  149.3060 C   0  0  0  0  0  1  0  0  0  0  0  0
  1  4  1  0  0  0  0
  3  5  1  6  0  0  0
  3  1  1  0  0  0  0
  3 11  1  0  0  0  0
  4  6  1  1  0  0  0
  4  2  1  0  0  0  0
  7  2  1  0  0  0  0
  7 33  1  1  0  0  0
  8 10  1  0  0  0  0
  8  1  2  0  0  0  0
  9  6  1  0  0  0  0
 10  9  1  0  0  0  0
 11 21  1  6  0  0  0
 11  7  1  0  0  0  0
 12 27  1  6  0  0  0
 12 13  1  0  0  0  0
 12  5  1  0  0  0  0
 13  8  1  0  0  0  0
 15 14  1  0  0  0  0
 16 17  1  0  0  0  0
 16 18  1  0  0  0  0
 17 25  1  6  0  0  0
 17 15  1  0  0  0  0
 18 19  1  0  0  0  0
 19 23  1  1  0  0  0
 19 21  1  0  0  0  0
 20 16  1  0  0  0  0
 21 14  1  6  0  0  0
 22 23  1  0  0  0  0
 25 24  1  0  0  0  0
 26 27  1  0  0  0  0
 27 28  2  0  0  0  0
 30 31  2  0  0  0  0
 31 29  1  0  0  0  0
 31 28  1  0  0  0  0
 32 30  1  0  0  0  0
 32 26  2  0  0  0  0
 33 34  1  0  0  0  0
 34 35  2  0  0  0  0
 36 34  1  0  0  0  0
 36 37  1  0  0  0  0
M  END
>  <MODEL>
9

>  <REMARK>
 VINA RESULT:      -7.0      2.032      4.709
  Name = 
  7 active torsions:
  status: ('A' for Active; 'I' for Inactive)
    1  A    between atoms: O_3  and  C_21
    2  A    between atoms: C_6  and  C_31
    3  A    between atoms: C_17  and  C_23
    4  A    between atoms: C_20  and  O_25
    5  A    between atoms: C_21  and  O_25
    6  A    between atoms: C_27  and  C_33
    7  A    between atoms: C_29  and  C_36
                            x       y       z     vdW  Elec       q    Type
                         _______ _______ _______ _____ _____    ______ ____

>  <TORSDO>
F 7

$$$$
