=
 OpenBabel11052420013D

 37 41  0  0  1  0  0  0  0  0999 V2000
  185.6460  177.1840  142.2200 C   0  0  0  0  0  2  0  0  0  0  0  0
  188.3060  176.9130  145.9130 C   0  0  0  0  0  2  0  0  0  0  0  0
  191.9100  174.5900  146.4510 C   0  0  0  0  0  2  0  0  0  0  0  0
  186.2060  176.8070  144.6420 C   0  0  2  0  0  3  0  0  0  0  0  0
  189.5800  176.1410  145.7630 C   0  0  2  0  0  0  0  0  0  0  0  0
  187.6770  176.9820  144.5910 N   0  0  2  0  0  0  0  0  0  0  0  0
  190.9010  176.8290  146.1320 C   0  0  0  0  0  2  0  0  0  0  0  0
  188.2170  175.9100  143.8380 N   0  0  1  0  0  0  0  0  0  0  0  0
  188.3230  178.0590  142.0590 S   0  0  0  0  0  0  0  0  0  0  0  0
  188.3850  176.2630  142.4190 C   0  0  0  0  0  2  0  0  0  0  0  0
  190.7950  173.8580  145.6950 C   0  0  1  0  0  3  0  0  0  0  0  0
  189.5510  175.6420  144.3530 C   0  0  2  0  0  3  0  0  0  0  0  0
  185.5240  177.7290  143.6330 C   0  0  0  0  0  2  0  0  0  0  0  0
  192.1240  175.9710  145.8570 C   0  0  1  0  0  3  0  0  0  0  0  0
  186.6230  178.0070  141.3790 C   0  0  0  0  0  2  0  0  0  0  0  0
  189.4740  174.6370  145.5030 C   0  0  2  0  0  3  0  0  0  0  0  0
  185.5650  177.0350  146.0210 C   0  0  0  0  0  2  0  0  0  0  0  0
  185.0340  178.3480  146.1200 O   0  0  0  0  0  0  0  0  0  0  0  0
  185.2910  179.1100  147.2320 N   0  0  0  0  0  2  0  0  0  0  0  0
  186.3560  178.9540  147.8620 O   0  0  0  0  0  1  0  0  0  0  0  0
  191.2640  173.0900  144.4500 C   0  0  2  0  0  3  0  0  0  0  0  0
  189.3070  172.1080  142.7860 S   0  0  0  0  0  1  0  0  0  0  0  0
  190.3680  171.8790  144.2440 C   0  0  0  0  0  2  0  0  0  0  0  0
  192.5970  172.6780  144.5840 O   0  0  0  0  0  0  0  0  0  0  0  0
  192.6110  171.3370  144.1910 C   0  0  0  0  0  2  0  0  0  0  0  0
  193.8850  170.6930  144.6270 C   0  0  0  0  0  3  0  0  0  0  0  0
  194.6860  171.2970  145.5040 C   0  0  0  0  0  3  0  0  0  0  0  0
  195.6860  169.4440  146.7990 C   0  0  0  0  0  1  0  0  0  0  0  0
  195.9660  170.6600  145.9350 C   0  0  0  0  0  2  0  0  0  0  0  0
  193.3510  176.6370  146.4600 C   0  0  0  0  0  2  0  0  0  0  0  0
  194.2280  176.4830  144.0930 C   0  0  0  0  0  2  0  0  0  0  0  0
  194.5880  176.4250  145.5970 C   0  0  2  0  0  3  0  0  0  0  0  0
  195.2790  175.1220  146.0300 C   0  0  0  0  0  2  0  0  0  0  0  0
  197.7660  173.9580  145.3460 Cl  0  0  0  0  0  0  0  0  0  0  0  0
  195.7510  174.5750  143.6830 C   0  0  0  0  0  3  0  0  0  0  0  0
  196.1730  174.5740  144.9500 C   0  0  0  0  0  0  0  0  0  0  0  0
  194.3990  175.1400  143.3710 C   0  0  0  0  0  2  0  0  0  0  0  0
  1 13  1  0  0  0  0
  4 17  1  1  0  0  0
  5  2  1  1  0  0  0
  5  7  1  0  0  0  0
  6  4  1  0  0  0  0
  6  2  1  1  0  0  0
  8 10  1  6  0  0  0
  8 12  1  0  0  0  0
  8  6  1  0  0  0  0
  9 10  1  0  0  0  0
 11 21  1  6  0  0  0
 11  3  1  0  0  0  0
 12 16  1  0  0  0  0
 12  5  1  0  0  0  0
 13  4  1  0  0  0  0
 14  7  1  0  0  0  0
 14  3  1  0  0  0  0
 14 30  1  0  0  0  0
 15  9  1  0  0  0  0
 15  1  1  0  0  0  0
 16 11  1  0  0  0  0
 16  5  1  0  0  0  0
 17 18  1  0  0  0  0
 18 19  1  0  0  0  0
 19 20  1  0  0  0  0
 21 24  1  0  0  0  0
 22 23  1  0  0  0  0
 23 21  1  0  0  0  0
 25 24  1  0  0  0  0
 25 26  1  0  0  0  0
 26 27  2  0  0  0  0
 27 29  1  0  0  0  0
 29 28  1  0  0  0  0
 31 32  1  0  0  0  0
 32 33  1  0  0  0  0
 32 30  1  0  0  0  0
 35 36  2  0  0  0  0
 36 34  1  0  0  0  0
 36 33  1  0  0  0  0
 37 35  1  0  0  0  0
 37 31  1  0  0  0  0
M  END
>  <MODEL>
1

>  <REMARK>
 VINA RESULT:      -7.0      0.000      0.000
  Name = 
  11 active torsions:
  status: ('A' for Active; 'I' for Inactive)
    1  A    between atoms: C_1  and  C_17
    2  A    between atoms: C_5  and  C_23
    3  A    between atoms: C_6  and  C_37
    4  A    between atoms: C_9  and  C_16
    5  A    between atoms: C_16  and  O_24
    6  A    between atoms: C_17  and  O_26
    7  A    between atoms: N_22  and  O_24
    8  A    between atoms: O_26  and  C_33
    9  A    between atoms: C_27  and  C_33
   10  A    between atoms: C_31  and  C_37
   11  A    between atoms: C_33  and  C_34
                            x       y       z     vdW  Elec       q    Type
                         _______ _______ _______ _____ _____    ______ ____

>  <TORSDO>
F 11

$$$$
=
 OpenBabel11052420013D

 37 41  0  0  1  0  0  0  0  0999 V2000
  185.5250  177.4470  142.4200 C   0  0  0  0  0  2  0  0  0  0  0  0
  189.0150  177.5280  145.3520 C   0  0  0  0  0  2  0  0  0  0  0  0
  192.3070  174.7470  145.6720 C   0  0  0  0  0  2  0  0  0  0  0  0
  186.6570  177.5350  144.6630 C   0  0  2  0  0  3  0  0  0  0  0  0
  190.0950  176.5130  145.1330 C   0  0  2  0  0  0  0  0  0  0  0  0
  188.0710  177.4100  144.2360 N   0  0  2  0  0  0  0  0  0  0  0  0
  191.5430  177.0030  144.9940 C   0  0  0  0  0  2  0  0  0  0  0  0
  188.2500  176.1110  143.7000 N   0  0  1  0  0  0  0  0  0  0  0  0
  188.1510  177.7330  141.4300 S   0  0  0  0  0  0  0  0  0  0  0  0
  188.0780  176.0900  142.2380 C   0  0  0  0  0  2  0  0  0  0  0  0
  190.9470  174.0870  145.4120 C   0  0  1  0  0  3  0  0  0  0  0  0
  189.6280  175.7190  143.9540 C   0  0  2  0  0  3  0  0  0  0  0  0
  185.8540  178.3140  143.6220 C   0  0  0  0  0  2  0  0  0  0  0  0
  192.5290  175.8880  144.6940 C   0  0  1  0  0  3  0  0  0  0  0  0
  186.3390  177.8520  141.1900 C   0  0  0  0  0  2  0  0  0  0  0  0
  189.7330  175.0390  145.3190 C   0  0  2  0  0  3  0  0  0  0  0  0
  186.4400  178.1920  146.0370 C   0  0  0  0  0  2  0  0  0  0  0  0
  185.4410  177.5040  146.7730 O   0  0  0  0  0  0  0  0  0  0  0  0
  184.1840  178.0420  146.8910 N   0  0  0  0  0  2  0  0  0  0  0  0
  183.8170  178.9440  146.1130 O   0  0  0  0  0  1  0  0  0  0  0  0
  190.9670  172.9790  144.3490 C   0  0  2  0  0  3  0  0  0  0  0  0
  188.9220  172.2070  142.6790 S   0  0  0  0  0  1  0  0  0  0  0  0
  189.6270  172.2590  144.3530 C   0  0  0  0  0  2  0  0  0  0  0  0
  192.0000  172.0630  144.5930 O   0  0  0  0  0  0  0  0  0  0  0  0
  192.7110  171.9810  143.3930 C   0  0  0  0  0  2  0  0  0  0  0  0
  194.1530  171.7150  143.6740 C   0  0  0  0  0  3  0  0  0  0  0  0
  194.7120  172.1340  144.8090 C   0  0  0  0  0  3  0  0  0  0  0  0
  196.7210  172.9710  145.9800 C   0  0  0  0  0  1  0  0  0  0  0  0
  196.1550  171.8790  145.0900 C   0  0  0  0  0  2  0  0  0  0  0  0
  193.9460  176.4280  144.8020 C   0  0  0  0  0  2  0  0  0  0  0  0
  196.3060  176.2890  143.9040 C   0  0  0  0  0  2  0  0  0  0  0  0
  194.9330  175.5830  144.0070 C   0  0  2  0  0  3  0  0  0  0  0  0
  194.3040  175.2280  142.6500 C   0  0  0  0  0  2  0  0  0  0  0  0
  195.0960  173.4760  140.5740 Cl  0  0  0  0  0  0  0  0  0  0  0  0
  196.4670  175.5730  141.5400 C   0  0  0  0  0  3  0  0  0  0  0  0
  195.3440  174.8560  141.6280 C   0  0  0  0  0  0  0  0  0  0  0  0
  196.6650  176.7250  142.4770 C   0  0  0  0  0  2  0  0  0  0  0  0
  1 13  1  0  0  0  0
  4 17  1  1  0  0  0
  5  7  1  1  0  0  0
  5 16  1  0  0  0  0
  5  2  1  0  0  0  0
  6  4  1  0  0  0  0
  6  2  1  1  0  0  0
  8 10  1  6  0  0  0
  8 12  1  0  0  0  0
  8  6  1  0  0  0  0
  9 10  1  0  0  0  0
 11 21  1  6  0  0  0
 11  3  1  0  0  0  0
 12  5  1  0  0  0  0
 12 16  1  0  0  0  0
 13  4  1  0  0  0  0
 14 30  1  0  0  0  0
 14  7  1  0  0  0  0
 14  3  1  0  0  0  0
 15  9  1  0  0  0  0
 15  1  1  0  0  0  0
 16 11  1  0  0  0  0
 17 18  1  0  0  0  0
 18 19  1  0  0  0  0
 20 19  1  0  0  0  0
 21 23  1  0  0  0  0
 21 24  1  0  0  0  0
 22 23  1  0  0  0  0
 25 26  1  0  0  0  0
 25 24  1  0  0  0  0
 26 27  2  0  0  0  0
 27 29  1  0  0  0  0
 29 28  1  0  0  0  0
 31 32  1  0  0  0  0
 32 30  1  0  0  0  0
 33 32  1  0  0  0  0
 34 36  1  0  0  0  0
 35 36  2  0  0  0  0
 35 37  1  0  0  0  0
 36 33  1  0  0  0  0
 37 31  1  0  0  0  0
M  END
>  <MODEL>
2

>  <REMARK>
 VINA RESULT:      -6.7      1.486      1.852
  Name = 
  11 active torsions:
  status: ('A' for Active; 'I' for Inactive)
    1  A    between atoms: C_1  and  C_17
    2  A    between atoms: C_5  and  C_23
    3  A    between atoms: C_6  and  C_37
    4  A    between atoms: C_9  and  C_16
    5  A    between atoms: C_16  and  O_24
    6  A    between atoms: C_17  and  O_26
    7  A    between atoms: N_22  and  O_24
    8  A    between atoms: O_26  and  C_33
    9  A    between atoms: C_27  and  C_33
   10  A    between atoms: C_31  and  C_37
   11  A    between atoms: C_33  and  C_34
                            x       y       z     vdW  Elec       q    Type
                         _______ _______ _______ _____ _____    ______ ____

>  <TORSDO>
F 11

$$$$
=
 OpenBabel11052420013D

 37 41  0  0  1  0  0  0  0  0999 V2000
  197.0360  173.7640  144.3430 C   0  0  0  0  0  2  0  0  0  0  0  0
  193.9170  176.4020  142.3180 C   0  0  0  0  0  2  0  0  0  0  0  0
  189.6270  175.8960  142.2410 C   0  0  0  0  0  2  0  0  0  0  0  0
  195.9430  175.0200  142.4580 C   0  0  2  0  0  3  0  0  0  0  0  0
  192.4830  176.0650  142.5850 C   0  0  2  0  0  0  0  0  0  0  0  0
  194.7380  175.5230  143.1570 N   0  0  2  0  0  0  0  0  0  0  0  0
  191.5600  177.1650  143.1250 C   0  0  0  0  0  2  0  0  0  0  0  0
  193.9240  174.4090  143.4780 N   0  0  1  0  0  0  0  0  0  0  0  0
  195.0990  175.0700  145.9230 S   0  0  0  0  0  0  0  0  0  0  0  0
  194.1860  173.9090  144.8380 C   0  0  0  0  0  2  0  0  0  0  0  0
  190.4180  174.5930  142.0700 C   0  0  1  0  0  3  0  0  0  0  0  0
  192.5400  174.8600  143.4700 C   0  0  2  0  0  3  0  0  0  0  0  0
  197.1310  174.9650  143.4180 C   0  0  0  0  0  2  0  0  0  0  0  0
  190.1550  176.6770  143.4310 C   0  0  1  0  0  3  0  0  0  0  0  0
  196.6920  174.1780  145.7740 C   0  0  0  0  0  2  0  0  0  0  0  0
  191.9580  174.7260  142.0620 C   0  0  2  0  0  3  0  0  0  0  0  0
  196.3610  175.8170  141.2110 C   0  0  0  0  0  2  0  0  0  0  0  0
  196.4440  174.9700  140.0750 O   0  0  0  0  0  0  0  0  0  0  0  0
  195.6610  175.2190  138.9760 N   0  0  0  0  0  2  0  0  0  0  0  0
  194.4190  175.1780  139.0740 O   0  0  0  0  0  1  0  0  0  0  0  0
  189.8890  173.4110  142.8960 C   0  0  2  0  0  3  0  0  0  0  0  0
  190.0560  171.9070  140.5980 S   0  0  0  0  0  1  0  0  0  0  0  0
  189.0610  172.5060  141.9960 C   0  0  0  0  0  2  0  0  0  0  0  0
  189.1090  173.8550  143.9720 O   0  0  0  0  0  0  0  0  0  0  0  0
  189.7040  173.3060  145.1110 C   0  0  0  0  0  2  0  0  0  0  0  0
  189.7750  174.3330  146.1910 C   0  0  0  0  0  3  0  0  0  0  0  0
  190.9450  174.8580  146.5550 C   0  0  0  0  0  3  0  0  0  0  0  0
  190.2960  177.1450  147.2290 C   0  0  0  0  0  1  0  0  0  0  0  0
  191.0210  175.8780  147.6420 C   0  0  0  0  0  2  0  0  0  0  0  0
  189.2640  177.8700  143.7370 C   0  0  0  0  0  2  0  0  0  0  0  0
  186.9640  178.3030  142.7780 C   0  0  0  0  0  2  0  0  0  0  0  0
  187.7930  177.4750  143.7890 C   0  0  2  0  0  3  0  0  0  0  0  0
  187.3010  177.5780  145.2420 C   0  0  0  0  0  2  0  0  0  0  0  0
  184.8940  176.7920  146.5060 Cl  0  0  0  0  0  0  0  0  0  0  0  0
  185.1680  178.5180  144.4680 C   0  0  0  0  0  3  0  0  0  0  0  0
  185.8030  177.7100  145.3200 C   0  0  0  0  0  0  0  0  0  0  0  0
  185.9690  179.2620  143.4430 C   0  0  0  0  0  2  0  0  0  0  0  0
  1 15  1  0  0  0  0
  3 14  1  0  0  0  0
  4 17  1  6  0  0  0
  4  6  1  0  0  0  0
  4 13  1  0  0  0  0
  5  2  1  6  0  0  0
  5  7  1  0  0  0  0
  5 12  1  0  0  0  0
  6  2  1  6  0  0  0
  6  8  1  0  0  0  0
  7 14  1  0  0  0  0
  8 10  1  1  0  0  0
 10  9  1  0  0  0  0
 11  3  1  0  0  0  0
 11 21  1  1  0  0  0
 12  8  1  0  0  0  0
 13  1  1  0  0  0  0
 14 30  1  0  0  0  0
 15  9  1  0  0  0  0
 16 11  1  0  0  0  0
 16  5  1  0  0  0  0
 16 12  1  0  0  0  0
 18 17  1  0  0  0  0
 19 20  1  0  0  0  0
 19 18  1  0  0  0  0
 21 24  1  0  0  0  0
 22 23  1  0  0  0  0
 23 21  1  0  0  0  0
 24 25  1  0  0  0  0
 25 26  1  0  0  0  0
 26 27  2  0  0  0  0
 27 29  1  0  0  0  0
 28 29  1  0  0  0  0
 30 32  1  0  0  0  0
 31 37  1  0  0  0  0
 31 32  1  0  0  0  0
 32 33  1  0  0  0  0
 33 36  1  0  0  0  0
 35 36  2  0  0  0  0
 36 34  1  0  0  0  0
 37 35  1  0  0  0  0
M  END
>  <MODEL>
3

>  <REMARK>
 VINA RESULT:      -6.6      4.173      8.232
  Name = 
  11 active torsions:
  status: ('A' for Active; 'I' for Inactive)
    1  A    between atoms: C_1  and  C_17
    2  A    between atoms: C_5  and  C_23
    3  A    between atoms: C_6  and  C_37
    4  A    between atoms: C_9  and  C_16
    5  A    between atoms: C_16  and  O_24
    6  A    between atoms: C_17  and  O_26
    7  A    between atoms: N_22  and  O_24
    8  A    between atoms: O_26  and  C_33
    9  A    between atoms: C_27  and  C_33
   10  A    between atoms: C_31  and  C_37
   11  A    between atoms: C_33  and  C_34
                            x       y       z     vdW  Elec       q    Type
                         _______ _______ _______ _____ _____    ______ ____

>  <TORSDO>
F 11

$$$$
=
 OpenBabel11052420013D

 37 41  0  0  1  0  0  0  0  0999 V2000
  191.3430  171.3050  139.4750 C   0  0  0  0  0  2  0  0  0  0  0  0
  190.5740  171.8530  143.9350 C   0  0  0  0  0  2  0  0  0  0  0  0
  190.9290  175.4580  146.2900 C   0  0  0  0  0  2  0  0  0  0  0  0
  191.5780  170.8400  141.9350 C   0  0  2  0  0  3  0  0  0  0  0  0
  190.6320  173.2560  144.4560 C   0  0  2  0  0  0  0  0  0  0  0  0
  190.7200  171.9190  142.4780 N   0  0  2  0  0  0  0  0  0  0  0  0
  189.4260  173.8000  145.2320 C   0  0  0  0  0  2  0  0  0  0  0  0
  191.3490  173.1580  142.1990 N   0  0  1  0  0  0  0  0  0  0  0  0
  189.2890  173.0470  140.3170 S   0  0  0  0  0  0  0  0  0  0  0  0
  190.8590  173.7550  140.9450 C   0  0  0  0  0  2  0  0  0  0  0  0
  192.0490  175.2650  145.2600 C   0  0  1  0  0  3  0  0  0  0  0  0
  190.9840  174.0840  143.2600 C   0  0  2  0  0  3  0  0  0  0  0  0
  191.0240  170.3390  140.6020 C   0  0  0  0  0  2  0  0  0  0  0  0
  189.5750  175.2570  145.6330 C   0  0  1  0  0  3  0  0  0  0  0  0
  190.0970  172.0570  139.0040 C   0  0  0  0  0  2  0  0  0  0  0  0
  191.9820  173.9740  144.4130 C   0  0  2  0  0  3  0  0  0  0  0  0
  191.7810  169.6310  142.8630 C   0  0  0  0  0  2  0  0  0  0  0  0
  193.1390  169.5240  143.2630 O   0  0  0  0  0  0  0  0  0  0  0  0
  193.4780  169.6620  144.5850 N   0  0  0  0  0  2  0  0  0  0  0  0
  193.6040  168.6520  145.3050 O   0  0  0  0  0  1  0  0  0  0  0  0
  192.4100  176.5280  144.4640 C   0  0  2  0  0  3  0  0  0  0  0  0
  194.3480  176.4500  146.4150 S   0  0  0  0  0  1  0  0  0  0  0  0
  193.8700  176.8750  144.7140 C   0  0  0  0  0  2  0  0  0  0  0  0
  191.5950  177.6060  144.8310 O   0  0  0  0  0  0  0  0  0  0  0  0
  191.1970  178.1950  143.6270 C   0  0  0  0  0  2  0  0  0  0  0  0
  189.7380  177.9670  143.4090 C   0  0  0  0  0  3  0  0  0  0  0  0
  189.3130  177.1930  142.4120 C   0  0  0  0  0  3  0  0  0  0  0  0
  187.4880  175.5270  142.4730 C   0  0  0  0  0  1  0  0  0  0  0  0
  187.8540  176.9710  142.1840 C   0  0  0  0  0  2  0  0  0  0  0  0
  188.4490  175.6340  146.5830 C   0  0  0  0  0  2  0  0  0  0  0  0
  187.7740  177.9530  147.3350 C   0  0  0  0  0  2  0  0  0  0  0  0
  187.7760  176.9360  146.1680 C   0  0  2  0  0  3  0  0  0  0  0  0
  186.3790  176.6180  145.6080 C   0  0  0  0  0  2  0  0  0  0  0  0
  184.4430  178.2000  144.2840 Cl  0  0  0  0  0  0  0  0  0  0  0  0
  185.4600  178.5960  146.7370 C   0  0  0  0  0  3  0  0  0  0  0  0
  185.4690  177.8160  145.6530 C   0  0  0  0  0  0  0  0  0  0  0  0
  186.3730  178.2600  147.8770 C   0  0  0  0  0  2  0  0  0  0  0  0
  1 13  1  0  0  0  0
  4  6  1  0  0  0  0
  4 17  1  1  0  0  0
  5  2  1  6  0  0  0
  5  7  1  0  0  0  0
  6  2  1  1  0  0  0
  7 14  1  0  0  0  0
  8 10  1  6  0  0  0
  8  6  1  0  0  0  0
  8 12  1  0  0  0  0
  9 10  1  0  0  0  0
 11 21  1  6  0  0  0
 11  3  1  0  0  0  0
 12 16  1  0  0  0  0
 12  5  1  0  0  0  0
 13  4  1  0  0  0  0
 14  3  1  0  0  0  0
 14 30  1  0  0  0  0
 15  1  1  0  0  0  0
 15  9  1  0  0  0  0
 16  5  1  0  0  0  0
 16 11  1  0  0  0  0
 17 18  1  0  0  0  0
 18 19  1  0  0  0  0
 19 20  1  0  0  0  0
 21 23  1  0  0  0  0
 21 24  1  0  0  0  0
 23 22  1  0  0  0  0
 25 24  1  0  0  0  0
 26 25  1  0  0  0  0
 27 26  2  0  0  0  0
 29 27  1  0  0  0  0
 29 28  1  0  0  0  0
 31 37  1  0  0  0  0
 32 30  1  0  0  0  0
 32 31  1  0  0  0  0
 33 36  1  0  0  0  0
 33 32  1  0  0  0  0
 34 36  1  0  0  0  0
 35 37  1  0  0  0  0
 36 35  2  0  0  0  0
M  END
>  <MODEL>
4

>  <REMARK>
 VINA RESULT:      -6.5      4.128      8.038
  Name = 
  11 active torsions:
  status: ('A' for Active; 'I' for Inactive)
    1  A    between atoms: C_1  and  C_17
    2  A    between atoms: C_5  and  C_23
    3  A    between atoms: C_6  and  C_37
    4  A    between atoms: C_9  and  C_16
    5  A    between atoms: C_16  and  O_24
    6  A    between atoms: C_17  and  O_26
    7  A    between atoms: N_22  and  O_24
    8  A    between atoms: O_26  and  C_33
    9  A    between atoms: C_27  and  C_33
   10  A    between atoms: C_31  and  C_37
   11  A    between atoms: C_33  and  C_34
                            x       y       z     vdW  Elec       q    Type
                         _______ _______ _______ _____ _____    ______ ____

>  <TORSDO>
F 11

$$$$
=
 OpenBabel11052420013D

 37 41  0  0  1  0  0  0  0  0999 V2000
  185.2830  179.3030  145.7070 C   0  0  0  0  0  2  0  0  0  0  0  0
  186.3740  176.1790  142.5720 C   0  0  0  0  0  2  0  0  0  0  0  0
  190.1830  174.2400  141.9370 C   0  0  0  0  0  2  0  0  0  0  0  0
  185.5010  178.3180  143.4040 C   0  0  2  0  0  3  0  0  0  0  0  0
  187.7380  175.5690  142.6820 C   0  0  2  0  0  0  0  0  0  0  0  0
  186.1860  177.0480  143.7370 N   0  0  2  0  0  0  0  0  0  0  0  0
  187.8530  174.0410  142.7510 C   0  0  0  0  0  2  0  0  0  0  0  0
  187.4840  177.3650  144.2080 N   0  0  1  0  0  0  0  0  0  0  0  0
  186.0920  176.7330  146.5440 S   0  0  0  0  0  0  0  0  0  0  0  0
  187.5280  177.4720  145.6760 C   0  0  0  0  0  2  0  0  0  0  0  0
  190.2830  175.7370  142.2530 C   0  0  1  0  0  3  0  0  0  0  0  0
  188.3610  176.2590  143.8550 C   0  0  2  0  0  3  0  0  0  0  0  0
  184.5370  178.7130  144.5230 C   0  0  0  0  0  2  0  0  0  0  0  0
  189.2780  173.5520  142.9440 C   0  0  1  0  0  3  0  0  0  0  0  0
  185.2990  178.3460  146.9000 C   0  0  0  0  0  2  0  0  0  0  0  0
  188.9440  176.4820  142.4590 C   0  0  2  0  0  3  0  0  0  0  0  0
  184.7280  178.3200  142.0740 C   0  0  0  0  0  2  0  0  0  0  0  0
  183.3290  178.2450  142.3030 O   0  0  0  0  0  0  0  0  0  0  0  0
  182.4630  178.1790  141.2410 N   0  0  0  0  0  2  0  0  0  0  0  0
  182.8810  177.8430  140.1160 O   0  0  0  0  0  1  0  0  0  0  0  0
  191.3760  176.1060  143.2670 C   0  0  2  0  0  3  0  0  0  0  0  0
  191.2730  178.7370  144.0600 S   0  0  0  0  0  1  0  0  0  0  0  0
  191.9310  177.4800  142.9250 C   0  0  0  0  0  2  0  0  0  0  0  0
  192.4100  175.1600  143.2610 O   0  0  0  0  0  0  0  0  0  0  0  0
  192.8110  175.0430  144.5940 C   0  0  0  0  0  2  0  0  0  0  0  0
  191.6160  174.8740  145.4720 C   0  0  0  0  0  3  0  0  0  0  0  0
  191.6020  175.3780  146.7060 C   0  0  0  0  0  3  0  0  0  0  0  0
  189.3180  174.4480  146.8590 C   0  0  0  0  0  1  0  0  0  0  0  0
  190.4130  175.2020  147.5900 C   0  0  0  0  0  2  0  0  0  0  0  0
  189.3200  172.0430  142.7710 C   0  0  0  0  0  2  0  0  0  0  0  0
  190.6660  170.3910  141.4080 C   0  0  0  0  0  2  0  0  0  0  0  0
  190.7220  171.5540  142.4280 C   0  0  2  0  0  3  0  0  0  0  0  0
  191.4640  171.2150  143.7310 C   0  0  0  0  0  2  0  0  0  0  0  0
  194.1580  170.5490  144.2800 Cl  0  0  0  0  0  0  0  0  0  0  0  0
  192.4590  169.2380  142.6670 C   0  0  0  0  0  3  0  0  0  0  0  0
  192.6150  170.2750  143.4940 C   0  0  0  0  0  0  0  0  0  0  0  0
  191.1390  169.0500  141.9830 C   0  0  0  0  0  2  0  0  0  0  0  0
  1 15  1  0  0  0  0
  3 11  1  0  0  0  0
  3 14  1  0  0  0  0
  4 17  1  6  0  0  0
  4  6  1  0  0  0  0
  4 13  1  0  0  0  0
  5  2  1  6  0  0  0
  5  7  1  0  0  0  0
  5 12  1  0  0  0  0
  6  2  1  6  0  0  0
  6  8  1  0  0  0  0
  7 14  1  0  0  0  0
  8 10  1  1  0  0  0
  9 15  1  0  0  0  0
 10  9  1  0  0  0  0
 11 16  1  0  0  0  0
 11 21  1  1  0  0  0
 12  8  1  0  0  0  0
 13  1  1  0  0  0  0
 16  5  1  0  0  0  0
 16 12  1  0  0  0  0
 17 18  1  0  0  0  0
 19 18  1  0  0  0  0
 20 19  1  0  0  0  0
 23 21  1  0  0  0  0
 23 22  1  0  0  0  0
 24 21  1  0  0  0  0
 24 25  1  0  0  0  0
 25 26  1  0  0  0  0
 26 27  2  0  0  0  0
 27 29  1  0  0  0  0
 28 29  1  0  0  0  0
 30 14  1  0  0  0  0
 31 37  1  0  0  0  0
 31 32  1  0  0  0  0
 32 30  1  0  0  0  0
 32 33  1  0  0  0  0
 35 36  2  0  0  0  0
 36 33  1  0  0  0  0
 36 34  1  0  0  0  0
 37 35  1  0  0  0  0
M  END
>  <MODEL>
5

>  <REMARK>
 VINA RESULT:      -6.5      2.877      5.245
  Name = 
  11 active torsions:
  status: ('A' for Active; 'I' for Inactive)
    1  A    between atoms: C_1  and  C_17
    2  A    between atoms: C_5  and  C_23
    3  A    between atoms: C_6  and  C_37
    4  A    between atoms: C_9  and  C_16
    5  A    between atoms: C_16  and  O_24
    6  A    between atoms: C_17  and  O_26
    7  A    between atoms: N_22  and  O_24
    8  A    between atoms: O_26  and  C_33
    9  A    between atoms: C_27  and  C_33
   10  A    between atoms: C_31  and  C_37
   11  A    between atoms: C_33  and  C_34
                            x       y       z     vdW  Elec       q    Type
                         _______ _______ _______ _____ _____    ______ ____

>  <TORSDO>
F 11

$$$$
=
 OpenBabel11052420013D

 37 41  0  0  1  0  0  0  0  0999 V2000
  185.9330  179.1810  145.0960 C   0  0  0  0  0  2  0  0  0  0  0  0
  187.4890  175.5370  142.8400 C   0  0  0  0  0  2  0  0  0  0  0  0
  191.5450  174.0640  142.6060 C   0  0  0  0  0  2  0  0  0  0  0  0
  186.3070  177.6720  143.1190 C   0  0  2  0  0  3  0  0  0  0  0  0
  188.9260  175.1780  143.0610 C   0  0  2  0  0  0  0  0  0  0  0  0
  187.1690  176.6430  143.7470 N   0  0  2  0  0  0  0  0  0  0  0  0
  189.2640  173.7530  143.5180 C   0  0  0  0  0  2  0  0  0  0  0  0
  188.4040  177.2540  144.0790 N   0  0  1  0  0  0  0  0  0  0  0  0
  187.1040  177.0600  146.5420 S   0  0  0  0  0  0  0  0  0  0  0  0
  188.4210  177.7440  145.4670 C   0  0  0  0  0  2  0  0  0  0  0  0
  191.4220  175.5900  142.5210 C   0  0  1  0  0  3  0  0  0  0  0  0
  189.4350  176.2310  143.9950 C   0  0  2  0  0  3  0  0  0  0  0  0
  185.2890  178.2020  144.1280 C   0  0  0  0  0  2  0  0  0  0  0  0
  190.7430  173.5400  143.7860 C   0  0  1  0  0  3  0  0  0  0  0  0
  186.0810  178.5790  146.4940 C   0  0  0  0  0  2  0  0  0  0  0  0
  189.9880  176.1640  142.5710 C   0  0  2  0  0  3  0  0  0  0  0  0
  185.5510  177.2170  141.8600 C   0  0  0  0  0  2  0  0  0  0  0  0
  185.1540  178.3330  141.0780 O   0  0  0  0  0  0  0  0  0  0  0  0
  183.9060  178.3630  140.5080 N   0  0  0  0  0  2  0  0  0  0  0  0
  182.8950  178.1870  141.2150 O   0  0  0  0  0  1  0  0  0  0  0  0
  192.4430  176.3620  143.3700 C   0  0  2  0  0  3  0  0  0  0  0  0
  194.6410  176.0370  141.7480 S   0  0  0  0  0  1  0  0  0  0  0  0
  193.3750  177.1360  142.4500 C   0  0  0  0  0  2  0  0  0  0  0  0
  193.1870  175.4930  144.1790 O   0  0  0  0  0  0  0  0  0  0  0  0
  193.5360  176.2430  145.3050 C   0  0  0  0  0  2  0  0  0  0  0  0
  192.3540  176.3900  146.2040 C   0  0  0  0  0  3  0  0  0  0  0  0
  191.7760  175.3180  146.7470 C   0  0  0  0  0  3  0  0  0  0  0  0
  189.4730  174.5350  147.1840 C   0  0  0  0  0  1  0  0  0  0  0  0
  190.5870  175.4600  147.6380 C   0  0  0  0  0  2  0  0  0  0  0  0
  191.0070  172.0600  144.0070 C   0  0  0  0  0  2  0  0  0  0  0  0
  192.6790  170.2220  143.5350 C   0  0  0  0  0  2  0  0  0  0  0  0
  192.4850  171.7230  143.8600 C   0  0  2  0  0  3  0  0  0  0  0  0
  193.2310  172.1960  145.1180 C   0  0  0  0  0  2  0  0  0  0  0  0
  195.9810  172.3700  145.7600 Cl  0  0  0  0  0  0  0  0  0  0  0  0
  194.6080  170.1640  145.0850 C   0  0  0  0  0  3  0  0  0  0  0  0
  194.5420  171.4800  145.2980 C   0  0  0  0  0  0  0  0  0  0  0  0
  193.3690  169.4370  144.6570 C   0  0  0  0  0  2  0  0  0  0  0  0
  1 15  1  0  0  0  0
  3 14  1  0  0  0  0
  4 17  1  6  0  0  0
  4  6  1  0  0  0  0
  4 13  1  0  0  0  0
  5  2  1  6  0  0  0
  5  7  1  0  0  0  0
  5 12  1  0  0  0  0
  6  2  1  6  0  0  0
  6  8  1  0  0  0  0
  7 14  1  0  0  0  0
  8 10  1  1  0  0  0
 10  9  1  0  0  0  0
 11 16  1  0  0  0  0
 11  3  1  0  0  0  0
 11 21  1  1  0  0  0
 12  8  1  0  0  0  0
 13  1  1  0  0  0  0
 14 30  1  0  0  0  0
 15  9  1  0  0  0  0
 16  5  1  0  0  0  0
 16 12  1  0  0  0  0
 18 17  1  0  0  0  0
 19 18  1  0  0  0  0
 19 20  1  0  0  0  0
 21 24  1  0  0  0  0
 22 23  1  0  0  0  0
 23 21  1  0  0  0  0
 24 25  1  0  0  0  0
 25 26  1  0  0  0  0
 26 27  2  0  0  0  0
 27 29  1  0  0  0  0
 28 29  1  0  0  0  0
 31 32  1  0  0  0  0
 31 37  1  0  0  0  0
 32 30  1  0  0  0  0
 32 33  1  0  0  0  0
 33 36  1  0  0  0  0
 35 36  2  0  0  0  0
 36 34  1  0  0  0  0
 37 35  1  0  0  0  0
M  END
>  <MODEL>
6

>  <REMARK>
 VINA RESULT:      -6.3      2.586      4.732
  Name = 
  11 active torsions:
  status: ('A' for Active; 'I' for Inactive)
    1  A    between atoms: C_1  and  C_17
    2  A    between atoms: C_5  and  C_23
    3  A    between atoms: C_6  and  C_37
    4  A    between atoms: C_9  and  C_16
    5  A    between atoms: C_16  and  O_24
    6  A    between atoms: C_17  and  O_26
    7  A    between atoms: N_22  and  O_24
    8  A    between atoms: O_26  and  C_33
    9  A    between atoms: C_27  and  C_33
   10  A    between atoms: C_31  and  C_37
   11  A    between atoms: C_33  and  C_34
                            x       y       z     vdW  Elec       q    Type
                         _______ _______ _______ _____ _____    ______ ____

>  <TORSDO>
F 11

$$$$
=
 OpenBabel11052420013D

 37 41  0  0  1  0  0  0  0  0999 V2000
  185.4110  177.4570  142.7340 C   0  0  0  0  0  2  0  0  0  0  0  0
  188.2790  177.0130  146.2500 C   0  0  0  0  0  2  0  0  0  0  0  0
  191.8190  174.5490  146.5220 C   0  0  0  0  0  2  0  0  0  0  0  0
  186.1040  177.0100  145.1090 C   0  0  2  0  0  3  0  0  0  0  0  0
  189.5120  176.1980  146.0080 C   0  0  2  0  0  0  0  0  0  0  0  0
  187.5740  177.1320  144.9700 N   0  0  2  0  0  0  0  0  0  0  0  0
  190.8780  176.8290  146.3060 C   0  0  0  0  0  2  0  0  0  0  0  0
  188.0260  176.0560  144.1670 N   0  0  1  0  0  0  0  0  0  0  0  0
  188.1050  178.2360  142.4230 S   0  0  0  0  0  0  0  0  0  0  0  0
  188.1210  176.4320  142.7460 C   0  0  0  0  0  2  0  0  0  0  0  0
  190.6330  173.8740  145.8230 C   0  0  1  0  0  3  0  0  0  0  0  0
  189.3780  175.7290  144.5930 C   0  0  2  0  0  3  0  0  0  0  0  0
  185.3960  177.9770  144.1610 C   0  0  0  0  0  2  0  0  0  0  0  0
  192.0490  175.9330  145.9410 C   0  0  1  0  0  3  0  0  0  0  0  0
  186.3660  178.2600  141.8490 C   0  0  0  0  0  2  0  0  0  0  0  0
  189.3330  174.7050  145.7270 C   0  0  2  0  0  3  0  0  0  0  0  0
  185.5560  177.2330  146.5290 C   0  0  0  0  0  2  0  0  0  0  0  0
  185.1070  178.5700  146.6920 O   0  0  0  0  0  0  0  0  0  0  0  0
  185.7680  179.4170  147.5460 N   0  0  0  0  0  2  0  0  0  0  0  0
  186.6410  178.9690  148.3150 O   0  0  0  0  0  1  0  0  0  0  0  0
  190.9960  173.1140  144.5380 C   0  0  2  0  0  3  0  0  0  0  0  0
  189.0150  172.4160  142.7630 S   0  0  0  0  0  1  0  0  0  0  0  0
  189.9470  172.0440  144.2770 C   0  0  0  0  0  2  0  0  0  0  0  0
  192.2630  172.5240  144.6410 O   0  0  0  0  0  0  0  0  0  0  0  0
  192.1470  171.2860  144.0040 C   0  0  0  0  0  2  0  0  0  0  0  0
  193.2090  171.1480  142.9650 C   0  0  0  0  0  3  0  0  0  0  0  0
  193.1590  171.8660  141.8430 C   0  0  0  0  0  3  0  0  0  0  0  0
  194.4980  170.2570  140.5290 C   0  0  0  0  0  1  0  0  0  0  0  0
  194.2150  171.7240  140.7970 C   0  0  0  0  0  2  0  0  0  0  0  0
  193.3340  176.5420  146.4790 C   0  0  0  0  0  2  0  0  0  0  0  0
  193.9510  176.4160  144.0300 C   0  0  0  0  0  2  0  0  0  0  0  0
  194.4800  176.4070  145.4840 C   0  0  2  0  0  3  0  0  0  0  0  0
  195.3100  175.1640  145.8460 C   0  0  0  0  0  2  0  0  0  0  0  0
  197.7840  174.1740  144.8960 Cl  0  0  0  0  0  0  0  0  0  0  0  0
  195.5570  174.6190  143.4640 C   0  0  0  0  0  3  0  0  0  0  0  0
  196.1150  174.6660  144.6760 C   0  0  0  0  0  0  0  0  0  0  0  0
  194.1400  175.0790  143.3020 C   0  0  0  0  0  2  0  0  0  0  0  0
  1 13  1  0  0  0  0
  4 17  1  1  0  0  0
  5  2  1  1  0  0  0
  5  7  1  0  0  0  0
  6  4  1  0  0  0  0
  6  2  1  1  0  0  0
  8 10  1  6  0  0  0
  8 12  1  0  0  0  0
  8  6  1  0  0  0  0
  9 10  1  0  0  0  0
 11 21  1  6  0  0  0
 11  3  1  0  0  0  0
 12 16  1  0  0  0  0
 12  5  1  0  0  0  0
 13  4  1  0  0  0  0
 14  7  1  0  0  0  0
 14 30  1  0  0  0  0
 14  3  1  0  0  0  0
 15  9  1  0  0  0  0
 15  1  1  0  0  0  0
 16 11  1  0  0  0  0
 16  5  1  0  0  0  0
 17 18  1  0  0  0  0
 18 19  1  0  0  0  0
 19 20  1  0  0  0  0
 21 24  1  0  0  0  0
 22 23  1  0  0  0  0
 23 21  1  0  0  0  0
 25 24  1  0  0  0  0
 26 25  1  0  0  0  0
 27 26  2  0  0  0  0
 28 29  1  0  0  0  0
 29 27  1  0  0  0  0
 31 32  1  0  0  0  0
 32 33  1  0  0  0  0
 32 30  1  0  0  0  0
 35 36  2  0  0  0  0
 36 34  1  0  0  0  0
 36 33  1  0  0  0  0
 37 35  1  0  0  0  0
 37 31  1  0  0  0  0
M  END
>  <MODEL>
7

>  <REMARK>
 VINA RESULT:      -6.3      1.252      1.619
  Name = 
  11 active torsions:
  status: ('A' for Active; 'I' for Inactive)
    1  A    between atoms: C_1  and  C_17
    2  A    between atoms: C_5  and  C_23
    3  A    between atoms: C_6  and  C_37
    4  A    between atoms: C_9  and  C_16
    5  A    between atoms: C_16  and  O_24
    6  A    between atoms: C_17  and  O_26
    7  A    between atoms: N_22  and  O_24
    8  A    between atoms: O_26  and  C_33
    9  A    between atoms: C_27  and  C_33
   10  A    between atoms: C_31  and  C_37
   11  A    between atoms: C_33  and  C_34
                            x       y       z     vdW  Elec       q    Type
                         _______ _______ _______ _____ _____    ______ ____

>  <TORSDO>
F 11

$$$$
=
 OpenBabel11052420013D

 37 41  0  0  1  0  0  0  0  0999 V2000
  185.6030  179.4120  145.2510 C   0  0  0  0  0  2  0  0  0  0  0  0
  186.9000  176.1650  142.3250 C   0  0  0  0  0  2  0  0  0  0  0  0
  190.6640  174.0480  142.1730 C   0  0  0  0  0  2  0  0  0  0  0  0
  186.0370  178.3610  143.0080 C   0  0  2  0  0  3  0  0  0  0  0  0
  188.2130  175.5000  142.6040 C   0  0  2  0  0  0  0  0  0  0  0  0
  186.6210  177.0710  143.4440 N   0  0  2  0  0  0  0  0  0  0  0  0
  188.2500  173.9700  142.7170 C   0  0  0  0  0  2  0  0  0  0  0  0
  187.8700  177.3430  144.0550 N   0  0  1  0  0  0  0  0  0  0  0  0
  186.1920  176.8320  146.2270 S   0  0  0  0  0  0  0  0  0  0  0  0
  187.7500  177.4850  145.5160 C   0  0  0  0  0  2  0  0  0  0  0  0
  190.7950  175.5470  142.4680 C   0  0  1  0  0  3  0  0  0  0  0  0
  188.7290  176.1910  143.8270 C   0  0  2  0  0  3  0  0  0  0  0  0
  184.9710  178.8250  144.0000 C   0  0  0  0  0  2  0  0  0  0  0  0
  189.6190  173.4260  143.0830 C   0  0  1  0  0  3  0  0  0  0  0  0
  185.4380  178.4850  146.4570 C   0  0  0  0  0  2  0  0  0  0  0  0
  189.4780  176.3540  142.5030 C   0  0  2  0  0  3  0  0  0  0  0  0
  185.4220  178.3620  141.5980 C   0  0  0  0  0  2  0  0  0  0  0  0
  184.0050  178.3150  141.6660 O   0  0  0  0  0  0  0  0  0  0  0  0
  183.2660  178.2220  140.5130 N   0  0  0  0  0  2  0  0  0  0  0  0
  182.0290  178.3720  140.5530 O   0  0  0  0  0  1  0  0  0  0  0  0
  191.7810  175.8930  143.5940 C   0  0  2  0  0  3  0  0  0  0  0  0
  194.0370  175.9690  142.0210 S   0  0  0  0  0  1  0  0  0  0  0  0
  192.8340  176.8510  143.0580 C   0  0  0  0  0  2  0  0  0  0  0  0
  192.3990  174.7400  144.0960 O   0  0  0  0  0  0  0  0  0  0  0  0
  192.2700  174.8270  145.4850 C   0  0  0  0  0  2  0  0  0  0  0  0
  193.5600  174.4590  146.1390 C   0  0  0  0  0  3  0  0  0  0  0  0
  194.7110  174.5570  145.4740 C   0  0  0  0  0  3  0  0  0  0  0  0
  196.4990  172.8530  145.5780 C   0  0  0  0  0  1  0  0  0  0  0  0
  196.0020  174.1800  146.1220 C   0  0  0  0  0  2  0  0  0  0  0  0
  189.6110  171.9120  142.9460 C   0  0  0  0  0  2  0  0  0  0  0  0
  190.8330  170.2410  141.4920 C   0  0  0  0  0  2  0  0  0  0  0  0
  190.9770  171.3770  142.5340 C   0  0  2  0  0  3  0  0  0  0  0  0
  191.7570  170.9770  143.7970 C   0  0  0  0  0  2  0  0  0  0  0  0
  194.4430  170.1920  144.2180 Cl  0  0  0  0  0  0  0  0  0  0  0  0
  192.6270  168.9890  142.6490 C   0  0  0  0  0  3  0  0  0  0  0  0
  192.8580  169.9980  143.4920 C   0  0  0  0  0  0  0  0  0  0  0  0
  191.2740  168.8690  142.0170 C   0  0  0  0  0  2  0  0  0  0  0  0
  1 15  1  0  0  0  0
  3 11  1  0  0  0  0
  3 14  1  0  0  0  0
  4 17  1  6  0  0  0
  4  6  1  0  0  0  0
  4 13  1  0  0  0  0
  5  2  1  6  0  0  0
  5  7  1  0  0  0  0
  5 12  1  0  0  0  0
  6  2  1  6  0  0  0
  6  8  1  0  0  0  0
  7 14  1  0  0  0  0
  8 10  1  1  0  0  0
  9 15  1  0  0  0  0
 10  9  1  0  0  0  0
 11 16  1  0  0  0  0
 11 21  1  1  0  0  0
 12  8  1  0  0  0  0
 13  1  1  0  0  0  0
 16  5  1  0  0  0  0
 16 12  1  0  0  0  0
 17 18  1  0  0  0  0
 19 20  1  0  0  0  0
 19 18  1  0  0  0  0
 21 24  1  0  0  0  0
 22 23  1  0  0  0  0
 23 21  1  0  0  0  0
 24 25  1  0  0  0  0
 25 26  1  0  0  0  0
 27 29  1  0  0  0  0
 27 26  2  0  0  0  0
 28 29  1  0  0  0  0
 30 14  1  0  0  0  0
 31 37  1  0  0  0  0
 31 32  1  0  0  0  0
 32 30  1  0  0  0  0
 32 33  1  0  0  0  0
 35 36  2  0  0  0  0
 36 33  1  0  0  0  0
 36 34  1  0  0  0  0
 37 35  1  0  0  0  0
M  END
>  <MODEL>
8

>  <REMARK>
 VINA RESULT:      -6.0      2.803      4.841
  Name = 
  11 active torsions:
  status: ('A' for Active; 'I' for Inactive)
    1  A    between atoms: C_1  and  C_17
    2  A    between atoms: C_5  and  C_23
    3  A    between atoms: C_6  and  C_37
    4  A    between atoms: C_9  and  C_16
    5  A    between atoms: C_16  and  O_24
    6  A    between atoms: C_17  and  O_26
    7  A    between atoms: N_22  and  O_24
    8  A    between atoms: O_26  and  C_33
    9  A    between atoms: C_27  and  C_33
   10  A    between atoms: C_31  and  C_37
   11  A    between atoms: C_33  and  C_34
                            x       y       z     vdW  Elec       q    Type
                         _______ _______ _______ _____ _____    ______ ____

>  <TORSDO>
F 11

$$$$
=
 OpenBabel11052420013D

 37 41  0  0  1  0  0  0  0  0999 V2000
  184.0290  177.9170  142.3390 C   0  0  0  0  0  2  0  0  0  0  0  0
  187.6700  178.1140  145.0760 C   0  0  0  0  0  2  0  0  0  0  0  0
  191.0540  175.4310  145.2250 C   0  0  0  0  0  2  0  0  0  0  0  0
  185.2790  178.0500  144.5160 C   0  0  2  0  0  3  0  0  0  0  0  0
  188.7660  177.1300  144.8020 C   0  0  2  0  0  0  0  0  0  0  0  0
  186.6700  177.9640  144.0140 N   0  0  2  0  0  0  0  0  0  0  0  0
  190.1890  177.6600  144.5830 C   0  0  0  0  0  2  0  0  0  0  0  0
  186.8580  176.6670  143.4730 N   0  0  1  0  0  0  0  0  0  0  0  0
  186.5880  178.2740  141.2060 S   0  0  0  0  0  0  0  0  0  0  0  0
  186.6070  176.6330  142.0230 C   0  0  0  0  0  2  0  0  0  0  0  0
  189.7020  174.7310  145.0430 C   0  0  1  0  0  3  0  0  0  0  0  0
  188.2580  176.3160  143.6530 C   0  0  2  0  0  3  0  0  0  0  0  0
  184.3980  178.8000  143.5180 C   0  0  0  0  0  2  0  0  0  0  0  0
  191.1900  176.5730  144.2330 C   0  0  1  0  0  3  0  0  0  0  0  0
  184.7630  178.3400  141.0650 C   0  0  0  0  0  2  0  0  0  0  0  0
  188.4570  175.6460  145.0130 C   0  0  2  0  0  3  0  0  0  0  0  0
  185.1180  178.7070  145.8970 C   0  0  0  0  0  2  0  0  0  0  0  0
  184.9340  177.7250  146.9060 O   0  0  0  0  0  0  0  0  0  0  0  0
  185.7330  177.7300  148.0220 N   0  0  0  0  0  2  0  0  0  0  0  0
  186.5320  178.6680  148.2110 O   0  0  0  0  0  1  0  0  0  0  0  0
  189.6960  173.6180  143.9840 C   0  0  2  0  0  3  0  0  0  0  0  0
  191.7380  171.7950  144.2600 S   0  0  0  0  0  1  0  0  0  0  0  0
  190.0350  172.2930  144.6510 C   0  0  0  0  0  2  0  0  0  0  0  0
  190.6180  173.8860  142.9640 O   0  0  0  0  0  0  0  0  0  0  0  0
  189.8910  173.7910  141.7740 C   0  0  0  0  0  2  0  0  0  0  0  0
  190.8060  173.4500  140.6460 C   0  0  0  0  0  3  0  0  0  0  0  0
  190.3570  173.4210  139.3910 C   0  0  0  0  0  3  0  0  0  0  0  0
  190.9360  173.9060  137.0380 C   0  0  0  0  0  1  0  0  0  0  0  0
  191.2670  173.0710  138.2610 C   0  0  0  0  0  2  0  0  0  0  0  0
  192.5940  177.1540  144.2620 C   0  0  0  0  0  2  0  0  0  0  0  0
  194.9670  176.5060  144.8500 C   0  0  0  0  0  2  0  0  0  0  0  0
  193.6560  176.0660  144.1560 C   0  0  2  0  0  3  0  0  0  0  0  0
  193.8250  175.6780  142.6780 C   0  0  0  0  0  2  0  0  0  0  0  0
  195.2500  173.5960  141.3980 Cl  0  0  0  0  0  0  0  0  0  0  0  0
  196.2560  175.5150  142.9830 C   0  0  0  0  0  3  0  0  0  0  0  0
  195.1520  175.0200  142.4180 C   0  0  0  0  0  0  0  0  0  0  0  0
  196.1350  176.7120  143.8770 C   0  0  0  0  0  2  0  0  0  0  0  0
  1 13  1  0  0  0  0
  4 17  1  1  0  0  0
  5  7  1  1  0  0  0
  5 16  1  0  0  0  0
  5  2  1  0  0  0  0
  6  4  1  0  0  0  0
  6  2  1  1  0  0  0
  8 10  1  6  0  0  0
  8 12  1  0  0  0  0
  8  6  1  0  0  0  0
  9 10  1  0  0  0  0
 11 21  1  6  0  0  0
 11  3  1  0  0  0  0
 12  5  1  0  0  0  0
 12 16  1  0  0  0  0
 13  4  1  0  0  0  0
 14 30  1  0  0  0  0
 14  7  1  0  0  0  0
 14  3  1  0  0  0  0
 15  9  1  0  0  0  0
 15  1  1  0  0  0  0
 16 11  1  0  0  0  0
 17 18  1  0  0  0  0
 18 19  1  0  0  0  0
 19 20  1  0  0  0  0
 21 23  1  0  0  0  0
 22 23  1  0  0  0  0
 24 21  1  0  0  0  0
 25 24  1  0  0  0  0
 26 25  1  0  0  0  0
 27 26  2  0  0  0  0
 28 29  1  0  0  0  0
 29 27  1  0  0  0  0
 32 30  1  0  0  0  0
 32 31  1  0  0  0  0
 33 32  1  0  0  0  0
 34 36  1  0  0  0  0
 35 37  1  0  0  0  0
 36 33  1  0  0  0  0
 36 35  2  0  0  0  0
 37 31  1  0  0  0  0
M  END
>  <MODEL>
9

>  <REMARK>
 VINA RESULT:      -5.9      2.451      3.568
  Name = 
  11 active torsions:
  status: ('A' for Active; 'I' for Inactive)
    1  A    between atoms: C_1  and  C_17
    2  A    between atoms: C_5  and  C_23
    3  A    between atoms: C_6  and  C_37
    4  A    between atoms: C_9  and  C_16
    5  A    between atoms: C_16  and  O_24
    6  A    between atoms: C_17  and  O_26
    7  A    between atoms: N_22  and  O_24
    8  A    between atoms: O_26  and  C_33
    9  A    between atoms: C_27  and  C_33
   10  A    between atoms: C_31  and  C_37
   11  A    between atoms: C_33  and  C_34
                            x       y       z     vdW  Elec       q    Type
                         _______ _______ _______ _____ _____    ______ ____

>  <TORSDO>
F 11

$$$$
