=
 OpenBabel11052420183D

 34 37  0  0  1  0  0  0  0  0999 V2000
  191.8320  176.5090  143.9040 C   0  0  2  0  0  3  0  0  0  0  0  0
  189.3480  174.9270  146.0210 C   0  0  0  0  0  2  0  0  0  0  0  0
  191.7870  174.5780  146.0970 C   0  0  0  0  0  2  0  0  0  0  0  0
  194.3340  176.3310  143.8840 C   0  0  0  0  0  3  0  0  0  0  0  0
  195.5100  174.9380  145.4780 C   0  0  0  0  0  3  0  0  0  0  0  0
  195.5310  175.8280  144.4000 C   0  0  0  0  0  3  0  0  0  0  0  0
  193.0910  175.0610  145.5380 C   0  0  0  0  0  0  0  0  0  0  0  0
  193.1120  175.9480  144.4480 C   0  0  0  0  0  0  0  0  0  0  0  0
  194.2920  174.5480  146.0420 C   0  0  0  0  0  3  0  0  0  0  0  0
  188.1080  175.7510  146.2740 C   0  0  0  0  0  3  0  0  0  0  0  0
  187.9640  177.0950  146.2500 C   0  0  0  0  0  0  0  0  0  0  0  0
  189.1070  178.0630  146.1280 C   0  0  0  0  0  2  0  0  0  0  0  0
  190.6870  175.6500  146.1190 C   0  0  1  0  0  3  0  0  0  0  0  0
  190.0440  177.7610  144.9990 C   0  0  0  0  0  3  0  0  0  0  0  0
  190.7990  176.6590  144.9880 C   0  0  0  0  0  0  0  0  0  0  0  0
  186.6100  177.6970  146.4970 C   0  0  0  0  0  3  0  0  0  0  0  0
  185.5220  176.6400  146.4610 C   0  0  0  0  0  1  0  0  0  0  0  0
  186.5650  178.4520  147.8150 C   0  0  0  0  0  1  0  0  0  0  0  0
  191.3120  175.7350  142.6930 C   0  0  0  0  0  2  0  0  0  0  0  0
  192.1680  174.5910  142.3820 N   0  0  0  0  0  0  0  0  0  0  0  0
  191.5670  173.9440  141.2060 C   0  0  0  0  0  2  0  0  0  0  0  0
  191.4860  173.2710  142.5000 C   0  0  2  0  0  3  0  0  0  0  0  0
  190.0580  173.3180  143.0670 C   0  0  2  0  0  3  0  0  0  0  0  0
  189.6110  171.9110  143.4120 C   0  0  0  0  0  1  0  0  0  0  0  0
  188.0560  174.5740  142.4630 C   0  0  0  0  0  0  0  0  0  0  0  0
  189.1020  173.8960  142.0760 C   0  0  0  0  0  3  0  0  0  0  0  0
  187.0140  175.2560  142.8570 C   0  0  0  0  0  3  0  0  0  0  0  0
  186.7100  176.6020  142.3520 C   0  0  0  0  0  0  0  0  0  0  0  0
  185.6950  177.2500  142.9380 C   0  0  0  0  0  3  0  0  0  0  0  0
  187.5200  177.1730  141.2090 C   0  0  0  0  0  3  0  0  0  0  0  0
  186.6490  177.6070  140.0420 C   0  0  0  0  0  1  0  0  0  0  0  0
  188.4380  178.2960  141.6560 C   0  0  0  0  0  1  0  0  0  0  0  0
  185.5050  179.5820  143.7220 C   0  0  0  0  0  1  0  0  0  0  0  0
  185.2380  178.6270  142.5760 C   0  0  0  0  0  2  0  0  0  0  0  0
  1 19  1  6  0  0  0
  1  8  1  0  0  0  0
  1 15  1  0  0  0  0
  2 10  1  0  0  0  0
  3 13  1  0  0  0  0
  4  6  2  0  0  0  0
  4  8  1  0  0  0  0
  5  9  2  0  0  0  0
  6  5  1  0  0  0  0
  7  9  1  0  0  0  0
  7  3  1  0  0  0  0
  8  7  2  0  0  0  0
 11 10  2  0  0  0  0
 11 16  1  0  0  0  0
 12 11  1  0  0  0  0
 13  2  1  6  0  0  0
 14 12  1  0  0  0  0
 15 14  2  0  0  0  0
 15 13  1  0  0  0  0
 16 18  1  0  0  0  0
 17 16  1  0  0  0  0
 20 22  1  0  0  0  0
 20 19  1  0  0  0  0
 21 20  1  0  0  0  0
 21 22  1  0  0  0  0
 22 23  1  1  0  0  0
 23 24  1  6  0  0  0
 25 27  2  0  0  0  0
 26 25  2  0  0  0  0
 26 23  1  0  0  0  0
 28 27  1  0  0  0  0
 28 29  2  0  0  0  0
 30 32  1  0  0  0  0
 30 28  1  0  0  0  0
 31 30  1  0  0  0  0
 34 29  1  0  0  0  0
 34 33  1  0  0  0  0
M  END
>  <MODEL>
1

>  <REMARK>
 VINA RESULT:      -7.8      0.000      0.000
  Name = 
  8 active torsions:
  status: ('A' for Active; 'I' for Inactive)
    1  A    between atoms: C_1  and  C_9
    2  A    between atoms: C_3  and  C_25
    3  A    between atoms: C_6  and  C_28
    4  A    between atoms: C_6  and  C_30
    5  A    between atoms: C_7  and  C_11
    6  A    between atoms: C_7  and  C_29
    7  A    between atoms: N_8  and  C_9
    8  A    between atoms: C_14  and  C_16
                            x       y       z     vdW  Elec       q    Type
                         _______ _______ _______ _____ _____    ______ ____

>  <TORSDO>
F 8

$$$$
=
 OpenBabel11052420183D

 34 37  0  0  1  0  0  0  0  0999 V2000
  191.5050  176.7400  144.3530 C   0  0  2  0  0  3  0  0  0  0  0  0
  189.3040  174.8100  146.4950 C   0  0  0  0  0  2  0  0  0  0  0  0
  191.7610  174.6520  146.3820 C   0  0  0  0  0  2  0  0  0  0  0  0
  194.0050  176.7640  144.1550 C   0  0  0  0  0  3  0  0  0  0  0  0
  195.3940  175.3540  145.5520 C   0  0  0  0  0  3  0  0  0  0  0  0
  195.2710  176.3210  144.5500 C   0  0  0  0  0  3  0  0  0  0  0  0
  192.9830  175.2780  145.7800 C   0  0  0  0  0  0  0  0  0  0  0  0
  192.8590  176.2440  144.7650 C   0  0  0  0  0  0  0  0  0  0  0  0
  194.2510  174.8270  146.1610 C   0  0  0  0  0  3  0  0  0  0  0  0
  188.0270  175.5120  146.8940 C   0  0  0  0  0  3  0  0  0  0  0  0
  187.7820  176.8370  146.9870 C   0  0  0  0  0  0  0  0  0  0  0  0
  188.8380  177.9010  146.8680 C   0  0  0  0  0  2  0  0  0  0  0  0
  190.5880  175.6290  146.5620 C   0  0  1  0  0  3  0  0  0  0  0  0
  189.7120  177.7590  145.6600 C   0  0  0  0  0  3  0  0  0  0  0  0
  190.5450  176.7250  145.5110 C   0  0  0  0  0  0  0  0  0  0  0  0
  186.4080  177.3100  147.3690 C   0  0  0  0  0  3  0  0  0  0  0  0
  186.3440  178.8250  147.4320 C   0  0  0  0  0  1  0  0  0  0  0  0
  185.3490  176.7790  146.4170 C   0  0  0  0  0  1  0  0  0  0  0  0
  190.9590  176.0190  143.1200 C   0  0  0  0  0  2  0  0  0  0  0  0
  191.8420  174.9300  142.7030 N   0  0  0  0  0  0  0  0  0  0  0  0
  191.1920  174.3070  141.5410 C   0  0  0  0  0  2  0  0  0  0  0  0
  191.2280  173.5760  142.8040 C   0  0  2  0  0  3  0  0  0  0  0  0
  189.8390  173.5320  143.4650 C   0  0  2  0  0  3  0  0  0  0  0  0
  189.6100  172.1550  144.0540 C   0  0  0  0  0  1  0  0  0  0  0  0
  187.8690  174.7440  142.6910 C   0  0  0  0  0  0  0  0  0  0  0  0
  188.7600  173.8150  142.4730 C   0  0  0  0  0  3  0  0  0  0  0  0
  186.9820  175.6770  142.9130 C   0  0  0  0  0  3  0  0  0  0  0  0
  186.6980  176.7460  141.9470 C   0  0  0  0  0  0  0  0  0  0  0  0
  187.0800  176.5310  140.6800 C   0  0  0  0  0  3  0  0  0  0  0  0
  186.0240  178.0180  142.4120 C   0  0  0  0  0  3  0  0  0  0  0  0
  184.5280  177.8430  142.6080 C   0  0  0  0  0  1  0  0  0  0  0  0
  186.6760  178.5960  143.6550 C   0  0  0  0  0  1  0  0  0  0  0  0
  186.4600  176.7370  138.3010 C   0  0  0  0  0  1  0  0  0  0  0  0
  186.8740  177.4880  139.5510 C   0  0  0  0  0  2  0  0  0  0  0  0
  1 19  1  6  0  0  0
  1  8  1  0  0  0  0
  1 15  1  0  0  0  0
  2 13  1  0  0  0  0
  2 10  1  0  0  0  0
  4  6  2  0  0  0  0
  4  8  1  0  0  0  0
  5  9  2  0  0  0  0
  6  5  1  0  0  0  0
  7  9  1  0  0  0  0
  7  3  1  0  0  0  0
  8  7  2  0  0  0  0
 10 11  2  0  0  0  0
 11 16  1  0  0  0  0
 12 11  1  0  0  0  0
 13  3  1  6  0  0  0
 14 12  1  0  0  0  0
 15 14  2  0  0  0  0
 15 13  1  0  0  0  0
 16 17  1  0  0  0  0
 18 16  1  0  0  0  0
 20 22  1  0  0  0  0
 20 19  1  0  0  0  0
 21 20  1  0  0  0  0
 21 22  1  0  0  0  0
 22 23  1  1  0  0  0
 23 24  1  6  0  0  0
 25 27  2  0  0  0  0
 26 25  2  0  0  0  0
 26 23  1  0  0  0  0
 28 30  1  0  0  0  0
 28 27  1  0  0  0  0
 29 28  2  0  0  0  0
 30 31  1  0  0  0  0
 30 32  1  0  0  0  0
 33 34  1  0  0  0  0
 34 29  1  0  0  0  0
M  END
>  <MODEL>
2

>  <REMARK>
 VINA RESULT:      -7.5      0.769      1.741
  Name = 
  8 active torsions:
  status: ('A' for Active; 'I' for Inactive)
    1  A    between atoms: C_1  and  C_9
    2  A    between atoms: C_3  and  C_25
    3  A    between atoms: C_6  and  C_28
    4  A    between atoms: C_6  and  C_30
    5  A    between atoms: C_7  and  C_11
    6  A    between atoms: C_7  and  C_29
    7  A    between atoms: N_8  and  C_9
    8  A    between atoms: C_14  and  C_16
                            x       y       z     vdW  Elec       q    Type
                         _______ _______ _______ _____ _____    ______ ____

>  <TORSDO>
F 8

$$$$
=
 OpenBabel11052420183D

 34 37  0  0  1  0  0  0  0  0999 V2000
  191.8980  175.1540  144.0490 C   0  0  2  0  0  3  0  0  0  0  0  0
  190.1810  175.2180  147.2440 C   0  0  0  0  0  2  0  0  0  0  0  0
  192.6160  175.0970  146.8820 C   0  0  0  0  0  2  0  0  0  0  0  0
  194.3440  175.1040  143.4950 C   0  0  0  0  0  3  0  0  0  0  0  0
  196.0310  175.1200  145.2330 C   0  0  0  0  0  3  0  0  0  0  0  0
  195.6890  175.1030  143.8780 C   0  0  0  0  0  3  0  0  0  0  0  0
  193.6830  175.1570  145.8300 C   0  0  0  0  0  0  0  0  0  0  0  0
  193.3390  175.1290  144.4670 C   0  0  0  0  0  0  0  0  0  0  0  0
  195.0300  175.1390  146.2090 C   0  0  0  0  0  3  0  0  0  0  0  0
  188.8650  175.9600  147.2460 C   0  0  0  0  0  3  0  0  0  0  0  0
  188.4580  176.9630  146.4370 C   0  0  0  0  0  0  0  0  0  0  0  0
  189.3480  177.6670  145.4510 C   0  0  0  0  0  2  0  0  0  0  0  0
  191.3470  175.8850  146.5230 C   0  0  1  0  0  3  0  0  0  0  0  0
  190.1160  176.7440  144.5560 C   0  0  0  0  0  3  0  0  0  0  0  0
  191.0610  175.9280  145.0310 C   0  0  0  0  0  0  0  0  0  0  0  0
  187.0750  177.5270  146.6000 C   0  0  0  0  0  3  0  0  0  0  0  0
  186.0350  176.4250  146.6710 C   0  0  0  0  0  1  0  0  0  0  0  0
  186.9770  178.4200  147.8260 C   0  0  0  0  0  1  0  0  0  0  0  0
  191.3400  173.7600  143.7620 C   0  0  0  0  0  2  0  0  0  0  0  0
  191.5780  173.3650  142.3740 N   0  0  0  0  0  0  0  0  0  0  0  0
  191.1750  174.5150  141.5520 C   0  0  0  0  0  2  0  0  0  0  0  0
  190.3470  173.3120  141.5370 C   0  0  2  0  0  3  0  0  0  0  0  0
  189.0270  173.5310  142.2950 C   0  0  2  0  0  3  0  0  0  0  0  0
  188.3040  172.2050  142.4320 C   0  0  0  0  0  1  0  0  0  0  0  0
  187.2880  175.2400  142.2130 C   0  0  0  0  0  0  0  0  0  0  0  0
  188.1400  174.4880  141.5700 C   0  0  0  0  0  3  0  0  0  0  0  0
  186.4410  175.9920  142.8630 C   0  0  0  0  0  3  0  0  0  0  0  0
  186.3850  177.4510  142.6940 C   0  0  0  0  0  0  0  0  0  0  0  0
  185.6480  178.1320  143.5820 C   0  0  0  0  0  3  0  0  0  0  0  0
  187.1230  178.1010  141.5450 C   0  0  0  0  0  3  0  0  0  0  0  0
  188.6300  178.0790  141.7370 C   0  0  0  0  0  1  0  0  0  0  0  0
  186.7320  177.5140  140.2010 C   0  0  0  0  0  1  0  0  0  0  0  0
  185.2900  180.1150  145.0070 C   0  0  0  0  0  1  0  0  0  0  0  0
  185.4740  179.6170  143.5870 C   0  0  0  0  0  2  0  0  0  0  0  0
  1 19  1  1  0  0  0
  1  8  1  0  0  0  0
  1 15  1  0  0  0  0
  2 10  1  0  0  0  0
  4  6  2  0  0  0  0
  4  8  1  0  0  0  0
  5  9  2  0  0  0  0
  6  5  1  0  0  0  0
  7  9  1  0  0  0  0
  7  3  1  0  0  0  0
  8  7  2  0  0  0  0
 11 16  1  0  0  0  0
 11 10  2  0  0  0  0
 12 11  1  0  0  0  0
 13  3  1  6  0  0  0
 13  2  1  0  0  0  0
 14 15  2  0  0  0  0
 14 12  1  0  0  0  0
 15 13  1  0  0  0  0
 16 17  1  0  0  0  0
 16 18  1  0  0  0  0
 20 19  1  0  0  0  0
 21 20  1  0  0  0  0
 22 21  1  0  0  0  0
 22 23  1  1  0  0  0
 22 20  1  0  0  0  0
 23 24  1  6  0  0  0
 25 27  2  0  0  0  0
 26 25  2  0  0  0  0
 26 23  1  0  0  0  0
 28 27  1  0  0  0  0
 28 29  2  0  0  0  0
 29 34  1  0  0  0  0
 30 31  1  0  0  0  0
 30 28  1  0  0  0  0
 32 30  1  0  0  0  0
 34 33  1  0  0  0  0
M  END
>  <MODEL>
3

>  <REMARK>
 VINA RESULT:      -7.5      0.978      1.261
  Name = 
  8 active torsions:
  status: ('A' for Active; 'I' for Inactive)
    1  A    between atoms: C_1  and  C_9
    2  A    between atoms: C_3  and  C_25
    3  A    between atoms: C_6  and  C_28
    4  A    between atoms: C_6  and  C_30
    5  A    between atoms: C_7  and  C_11
    6  A    between atoms: C_7  and  C_29
    7  A    between atoms: N_8  and  C_9
    8  A    between atoms: C_14  and  C_16
                            x       y       z     vdW  Elec       q    Type
                         _______ _______ _______ _____ _____    ______ ____

>  <TORSDO>
F 8

$$$$
=
 OpenBabel11052420183D

 34 37  0  0  1  0  0  0  0  0999 V2000
  196.0130  174.3870  145.1250 C   0  0  2  0  0  3  0  0  0  0  0  0
  194.0720  171.3570  144.6690 C   0  0  0  0  0  2  0  0  0  0  0  0
  194.5410  173.0770  142.9670 C   0  0  0  0  0  2  0  0  0  0  0  0
  196.6460  176.1970  143.5080 C   0  0  0  0  0  3  0  0  0  0  0  0
  195.9750  176.1000  141.1830 C   0  0  0  0  0  3  0  0  0  0  0  0
  196.6430  176.7500  142.2250 C   0  0  0  0  0  3  0  0  0  0  0  0
  195.3230  174.3280  142.7020 C   0  0  0  0  0  0  0  0  0  0  0  0
  195.9860  174.9880  143.7520 C   0  0  0  0  0  0  0  0  0  0  0  0
  195.3090  174.8940  141.4220 C   0  0  0  0  0  3  0  0  0  0  0  0
  194.4840  170.1980  145.5470 C   0  0  0  0  0  3  0  0  0  0  0  0
  195.6890  169.9430  146.1030 C   0  0  0  0  0  0  0  0  0  0  0  0
  196.9410  170.7160  145.7960 C   0  0  0  0  0  2  0  0  0  0  0  0
  195.1930  172.1470  144.0020 C   0  0  1  0  0  3  0  0  0  0  0  0
  196.7810  172.2020  145.8980 C   0  0  0  0  0  3  0  0  0  0  0  0
  195.9930  172.8840  145.0630 C   0  0  0  0  0  0  0  0  0  0  0  0
  195.8550  168.7370  146.9820 C   0  0  0  0  0  3  0  0  0  0  0  0
  197.1060  168.8460  147.8360 C   0  0  0  0  0  1  0  0  0  0  0  0
  194.6370  168.5130  147.8630 C   0  0  0  0  0  1  0  0  0  0  0  0
  194.9320  174.9570  146.0440 C   0  0  0  0  0  2  0  0  0  0  0  0
  194.7440  176.3910  145.8220 N   0  0  0  0  0  0  0  0  0  0  0  0
  193.8090  176.8410  146.8630 C   0  0  0  0  0  2  0  0  0  0  0  0
  193.3450  176.7750  145.4800 C   0  0  2  0  0  3  0  0  0  0  0  0
  192.3740  175.6010  145.2700 C   0  0  2  0  0  3  0  0  0  0  0  0
  192.0100  175.5120  143.8010 C   0  0  0  0  0  1  0  0  0  0  0  0
  190.2140  176.6490  145.6990 C   0  0  0  0  0  0  0  0  0  0  0  0
  191.1230  175.7860  146.0640 C   0  0  0  0  0  3  0  0  0  0  0  0
  189.3050  177.5100  145.3270 C   0  0  0  0  0  3  0  0  0  0  0  0
  187.8910  177.1480  145.1590 C   0  0  0  0  0  0  0  0  0  0  0  0
  187.1530  177.0700  146.2750 C   0  0  0  0  0  3  0  0  0  0  0  0
  187.3490  176.8650  143.7760 C   0  0  0  0  0  3  0  0  0  0  0  0
  187.3370  178.1020  142.8930 C   0  0  0  0  0  1  0  0  0  0  0  0
  188.0690  175.7140  143.0970 C   0  0  0  0  0  1  0  0  0  0  0  0
  184.8680  177.9920  146.4110 C   0  0  0  0  0  1  0  0  0  0  0  0
  185.6990  176.7280  146.3140 C   0  0  0  0  0  2  0  0  0  0  0  0
  1 19  1  1  0  0  0
  2 10  1  0  0  0  0
  4  8  1  0  0  0  0
  5  9  2  0  0  0  0
  5  6  1  0  0  0  0
  6  4  2  0  0  0  0
  7  3  1  0  0  0  0
  7  8  2  0  0  0  0
  8  1  1  0  0  0  0
  9  7  1  0  0  0  0
 10 11  2  0  0  0  0
 11 16  1  0  0  0  0
 12 14  1  0  0  0  0
 12 11  1  0  0  0  0
 13  3  1  6  0  0  0
 13  2  1  0  0  0  0
 13 15  1  0  0  0  0
 15  1  1  0  0  0  0
 15 14  2  0  0  0  0
 16 17  1  0  0  0  0
 16 18  1  0  0  0  0
 20 19  1  0  0  0  0
 20 21  1  0  0  0  0
 22 23  1  1  0  0  0
 22 20  1  0  0  0  0
 22 21  1  0  0  0  0
 23 24  1  6  0  0  0
 23 26  1  0  0  0  0
 25 26  2  0  0  0  0
 27 25  2  0  0  0  0
 28 27  1  0  0  0  0
 28 29  2  0  0  0  0
 29 34  1  0  0  0  0
 30 28  1  0  0  0  0
 31 30  1  0  0  0  0
 32 30  1  0  0  0  0
 34 33  1  0  0  0  0
M  END
>  <MODEL>
4

>  <REMARK>
 VINA RESULT:      -7.4      3.010      6.472
  Name = 
  8 active torsions:
  status: ('A' for Active; 'I' for Inactive)
    1  A    between atoms: C_1  and  C_9
    2  A    between atoms: C_3  and  C_25
    3  A    between atoms: C_6  and  C_28
    4  A    between atoms: C_6  and  C_30
    5  A    between atoms: C_7  and  C_11
    6  A    between atoms: C_7  and  C_29
    7  A    between atoms: N_8  and  C_9
    8  A    between atoms: C_14  and  C_16
                            x       y       z     vdW  Elec       q    Type
                         _______ _______ _______ _____ _____    ______ ____

>  <TORSDO>
F 8

$$$$
=
 OpenBabel11052420183D

 34 37  0  0  1  0  0  0  0  0999 V2000
  189.0190  175.3470  143.3010 C   0  0  2  0  0  3  0  0  0  0  0  0
  187.0620  178.3300  142.6410 C   0  0  0  0  0  2  0  0  0  0  0  0
  187.5760  176.5220  141.0470 C   0  0  0  0  0  2  0  0  0  0  0  0
  189.5810  173.3900  141.8370 C   0  0  0  0  0  3  0  0  0  0  0  0
  188.7640  173.2410  139.5620 C   0  0  0  0  0  3  0  0  0  0  0  0
  189.4910  172.6980  140.6260 C   0  0  0  0  0  3  0  0  0  0  0  0
  188.1980  175.1640  140.9240 C   0  0  0  0  0  0  0  0  0  0  0  0
  188.9380  174.6220  141.9910 C   0  0  0  0  0  0  0  0  0  0  0  0
  188.1240  174.4760  139.7080 C   0  0  0  0  0  3  0  0  0  0  0  0
  186.3280  178.8880  143.8380 C   0  0  0  0  0  3  0  0  0  0  0  0
  185.9010  178.2430  144.9460 C   0  0  0  0  0  0  0  0  0  0  0  0
  185.9350  176.7500  145.1200 C   0  0  0  0  0  2  0  0  0  0  0  0
  187.0060  176.8190  142.4420 C   0  0  1  0  0  3  0  0  0  0  0  0
  187.2610  176.1290  144.8050 C   0  0  0  0  0  3  0  0  0  0  0  0
  187.7630  176.1330  143.5660 C   0  0  0  0  0  0  0  0  0  0  0  0
  185.2200  179.0190  146.0370 C   0  0  0  0  0  3  0  0  0  0  0  0
  183.8510  178.4430  146.3510 C   0  0  0  0  0  1  0  0  0  0  0  0
  186.0670  179.0750  147.2970 C   0  0  0  0  0  1  0  0  0  0  0  0
  190.2860  176.1920  143.4340 C   0  0  0  0  0  2  0  0  0  0  0  0
  190.0560  177.3740  144.2640 N   0  0  0  0  0  0  0  0  0  0  0  0
  191.3850  177.9400  144.5380 C   0  0  0  0  0  2  0  0  0  0  0  0
  190.6590  177.2890  145.6250 C   0  0  2  0  0  3  0  0  0  0  0  0
  191.2850  175.9300  145.9820 C   0  0  2  0  0  3  0  0  0  0  0  0
  190.5470  175.3360  147.1650 C   0  0  0  0  0  1  0  0  0  0  0  0
  193.6310  175.2760  145.8480 C   0  0  0  0  0  0  0  0  0  0  0  0
  192.7270  176.0780  146.3400 C   0  0  0  0  0  3  0  0  0  0  0  0
  194.5310  174.4720  145.3480 C   0  0  0  0  0  3  0  0  0  0  0  0
  195.7380  174.9600  144.6670 C   0  0  0  0  0  0  0  0  0  0  0  0
  195.6040  176.0650  143.9200 C   0  0  0  0  0  3  0  0  0  0  0  0
  197.0410  174.2050  144.8170 C   0  0  0  0  0  3  0  0  0  0  0  0
  197.1780  173.5500  146.1800 C   0  0  0  0  0  1  0  0  0  0  0  0
  197.2570  173.2000  143.7000 C   0  0  0  0  0  1  0  0  0  0  0  0
  196.3750  176.7620  141.6820 C   0  0  0  0  0  1  0  0  0  0  0  0
  196.7100  176.7220  143.1600 C   0  0  0  0  0  2  0  0  0  0  0  0
  1 19  1  6  0  0  0
  1 15  1  0  0  0  0
  2 10  1  0  0  0  0
  4  8  1  0  0  0  0
  5  9  2  0  0  0  0
  5  6  1  0  0  0  0
  6  4  2  0  0  0  0
  7  3  1  0  0  0  0
  7  8  2  0  0  0  0
  8  1  1  0  0  0  0
  9  7  1  0  0  0  0
 10 11  2  0  0  0  0
 11 12  1  0  0  0  0
 11 16  1  0  0  0  0
 13  3  1  6  0  0  0
 13  2  1  0  0  0  0
 13 15  1  0  0  0  0
 14 12  1  0  0  0  0
 15 14  2  0  0  0  0
 16 17  1  0  0  0  0
 16 18  1  0  0  0  0
 19 20  1  0  0  0  0
 20 21  1  0  0  0  0
 20 22  1  0  0  0  0
 21 22  1  0  0  0  0
 22 23  1  6  0  0  0
 23 26  1  0  0  0  0
 23 24  1  1  0  0  0
 25 26  2  0  0  0  0
 27 25  2  0  0  0  0
 28 30  1  0  0  0  0
 28 27  1  0  0  0  0
 29 28  2  0  0  0  0
 30 31  1  0  0  0  0
 32 30  1  0  0  0  0
 33 34  1  0  0  0  0
 34 29  1  0  0  0  0
M  END
>  <MODEL>
5

>  <REMARK>
 VINA RESULT:      -7.1      1.760      6.885
  Name = 
  8 active torsions:
  status: ('A' for Active; 'I' for Inactive)
    1  A    between atoms: C_1  and  C_9
    2  A    between atoms: C_3  and  C_25
    3  A    between atoms: C_6  and  C_28
    4  A    between atoms: C_6  and  C_30
    5  A    between atoms: C_7  and  C_11
    6  A    between atoms: C_7  and  C_29
    7  A    between atoms: N_8  and  C_9
    8  A    between atoms: C_14  and  C_16
                            x       y       z     vdW  Elec       q    Type
                         _______ _______ _______ _____ _____    ______ ____

>  <TORSDO>
F 8

$$$$
=
 OpenBabel11052420183D

 34 37  0  0  1  0  0  0  0  0999 V2000
  190.3520  174.9510  142.2670 C   0  0  2  0  0  3  0  0  0  0  0  0
  189.4840  177.5390  144.6560 C   0  0  0  0  0  2  0  0  0  0  0  0
  191.7240  177.0720  143.7380 C   0  0  0  0  0  2  0  0  0  0  0  0
  192.5390  174.3800  141.1800 C   0  0  0  0  0  3  0  0  0  0  0  0
  194.5460  175.6570  141.6380 C   0  0  0  0  0  3  0  0  0  0  0  0
  193.9010  174.6140  140.9670 C   0  0  0  0  0  3  0  0  0  0  0  0
  192.4640  176.2480  142.7280 C   0  0  0  0  0  0  0  0  0  0  0  0
  191.8180  175.1920  142.0610 C   0  0  0  0  0  0  0  0  0  0  0  0
  193.8310  176.4680  142.5230 C   0  0  0  0  0  3  0  0  0  0  0  0
  188.0750  178.0700  144.5370 C   0  0  0  0  0  3  0  0  0  0  0  0
  187.2690  178.0980  143.4520 C   0  0  0  0  0  0  0  0  0  0  0  0
  187.7140  177.7410  142.0610 C   0  0  0  0  0  2  0  0  0  0  0  0
  190.2610  177.3500  143.3570 C   0  0  1  0  0  3  0  0  0  0  0  0
  188.4320  176.4300  141.9680 C   0  0  0  0  0  3  0  0  0  0  0  0
  189.6230  176.2380  142.5440 C   0  0  0  0  0  0  0  0  0  0  0  0
  185.8760  178.6440  143.5810 C   0  0  0  0  0  3  0  0  0  0  0  0
  184.8560  177.7040  142.9630 C   0  0  0  0  0  1  0  0  0  0  0  0
  185.5180  178.9260  145.0310 C   0  0  0  0  0  1  0  0  0  0  0  0
  190.0700  173.8720  143.3130 C   0  0  0  0  0  2  0  0  0  0  0  0
  189.1690  172.8450  142.7920 N   0  0  0  0  0  0  0  0  0  0  0  0
  189.1780  171.7600  143.7830 C   0  0  0  0  0  2  0  0  0  0  0  0
  189.8340  171.5450  142.4970 C   0  0  2  0  0  3  0  0  0  0  0  0
  191.3650  171.5420  142.6420 C   0  0  2  0  0  3  0  0  0  0  0  0
  191.9140  170.2280  142.1230 C   0  0  0  0  0  1  0  0  0  0  0  0
  192.7400  172.5100  144.4090 C   0  0  0  0  0  0  0  0  0  0  0  0
  191.7730  171.7030  144.0700 C   0  0  0  0  0  3  0  0  0  0  0  0
  193.7060  173.3230  144.7430 C   0  0  0  0  0  3  0  0  0  0  0  0
  193.5480  174.3620  145.7700 C   0  0  0  0  0  0  0  0  0  0  0  0
  192.3070  174.5660  146.2350 C   0  0  0  0  0  3  0  0  0  0  0  0
  194.7540  175.1500  146.2320 C   0  0  0  0  0  3  0  0  0  0  0  0
  196.0620  174.5410  145.7530 C   0  0  0  0  0  1  0  0  0  0  0  0
  194.6630  176.6180  145.8590 C   0  0  0  0  0  1  0  0  0  0  0  0
  190.4600  175.4810  147.5910 C   0  0  0  0  0  1  0  0  0  0  0  0
  191.9420  175.5660  147.2840 C   0  0  0  0  0  2  0  0  0  0  0  0
  1 15  1  0  0  0  0
  1 19  1  1  0  0  0
  4  8  1  0  0  0  0
  5  9  2  0  0  0  0
  6  4  2  0  0  0  0
  6  5  1  0  0  0  0
  7  3  1  0  0  0  0
  8  1  1  0  0  0  0
  8  7  2  0  0  0  0
  9  7  1  0  0  0  0
 10  2  1  0  0  0  0
 11 16  1  0  0  0  0
 11 10  2  0  0  0  0
 12 11  1  0  0  0  0
 13  3  1  1  0  0  0
 13  2  1  0  0  0  0
 14 12  1  0  0  0  0
 14 15  2  0  0  0  0
 15 13  1  0  0  0  0
 16 18  1  0  0  0  0
 17 16  1  0  0  0  0
 20 19  1  0  0  0  0
 20 21  1  0  0  0  0
 22 23  1  1  0  0  0
 22 20  1  0  0  0  0
 22 21  1  0  0  0  0
 23 24  1  1  0  0  0
 23 26  1  0  0  0  0
 25 27  2  0  0  0  0
 26 25  2  0  0  0  0
 27 28  1  0  0  0  0
 28 30  1  0  0  0  0
 28 29  2  0  0  0  0
 29 34  1  0  0  0  0
 31 30  1  0  0  0  0
 32 30  1  0  0  0  0
 34 33  1  0  0  0  0
M  END
>  <MODEL>
6

>  <REMARK>
 VINA RESULT:      -7.0      1.692      5.122
  Name = 
  8 active torsions:
  status: ('A' for Active; 'I' for Inactive)
    1  A    between atoms: C_1  and  C_9
    2  A    between atoms: C_3  and  C_25
    3  A    between atoms: C_6  and  C_28
    4  A    between atoms: C_6  and  C_30
    5  A    between atoms: C_7  and  C_11
    6  A    between atoms: C_7  and  C_29
    7  A    between atoms: N_8  and  C_9
    8  A    between atoms: C_14  and  C_16
                            x       y       z     vdW  Elec       q    Type
                         _______ _______ _______ _____ _____    ______ ____

>  <TORSDO>
F 8

$$$$
=
 OpenBabel11052420183D

 34 37  0  0  1  0  0  0  0  0999 V2000
  193.0510  174.6380  145.3510 C   0  0  2  0  0  3  0  0  0  0  0  0
  192.0080  177.2380  143.0450 C   0  0  0  0  0  2  0  0  0  0  0  0
  194.2970  176.3800  143.3620 C   0  0  0  0  0  2  0  0  0  0  0  0
  195.2980  173.6000  145.7550 C   0  0  0  0  0  3  0  0  0  0  0  0
  197.2470  174.2790  144.4860 C   0  0  0  0  0  3  0  0  0  0  0  0
  196.6610  173.4750  145.4690 C   0  0  0  0  0  3  0  0  0  0  0  0
  195.1040  175.3270  144.0600 C   0  0  0  0  0  0  0  0  0  0  0  0
  194.5170  174.5250  145.0550 C   0  0  0  0  0  0  0  0  0  0  0  0
  196.4710  175.2090  143.7880 C   0  0  0  0  0  3  0  0  0  0  0  0
  190.5910  177.1080  142.5380 C   0  0  0  0  0  3  0  0  0  0  0  0
  189.8330  175.9960  142.4170 C   0  0  0  0  0  0  0  0  0  0  0  0
  190.3470  174.5980  142.6170 C   0  0  0  0  0  2  0  0  0  0  0  0
  192.8450  175.9640  143.0800 C   0  0  1  0  0  3  0  0  0  0  0  0
  191.1050  174.4040  143.8940 C   0  0  0  0  0  3  0  0  0  0  0  0
  192.2740  175.0110  144.1170 C   0  0  0  0  0  0  0  0  0  0  0  0
  188.4200  176.1160  141.9200 C   0  0  0  0  0  3  0  0  0  0  0  0
  187.4380  175.4950  142.8960 C   0  0  0  0  0  1  0  0  0  0  0  0
  188.0440  177.5630  141.6470 C   0  0  0  0  0  1  0  0  0  0  0  0
  192.7540  175.5540  146.5380 C   0  0  0  0  0  2  0  0  0  0  0  0
  191.8390  174.9200  147.4870 N   0  0  0  0  0  0  0  0  0  0  0  0
  190.5620  174.7670  146.7740 C   0  0  0  0  0  2  0  0  0  0  0  0
  190.6580  175.7560  147.8440 C   0  0  2  0  0  3  0  0  0  0  0  0
  190.6730  177.1880  147.2830 C   0  0  2  0  0  3  0  0  0  0  0  0
  190.1700  178.1450  148.3460 C   0  0  0  0  0  1  0  0  0  0  0  0
  188.4990  177.2360  146.1780 C   0  0  0  0  0  0  0  0  0  0  0  0
  189.7990  177.3060  146.0790 C   0  0  0  0  0  3  0  0  0  0  0  0
  187.1990  177.1700  146.2850 C   0  0  0  0  0  3  0  0  0  0  0  0
  186.3060  178.1970  145.7320 C   0  0  0  0  0  0  0  0  0  0  0  0
  186.3620  178.3940  144.4070 C   0  0  0  0  0  3  0  0  0  0  0  0
  185.4020  178.9820  146.6570 C   0  0  0  0  0  3  0  0  0  0  0  0
  184.0690  178.2900  146.8890 C   0  0  0  0  0  1  0  0  0  0  0  0
  186.0780  179.3250  147.9710 C   0  0  0  0  0  1  0  0  0  0  0  0
  184.3380  178.6870  143.0270 C   0  0  0  0  0  1  0  0  0  0  0  0
  185.5300  179.3820  143.6550 C   0  0  0  0  0  2  0  0  0  0  0  0
  1 19  1  1  0  0  0
  3  7  1  0  0  0  0
  5  6  2  0  0  0  0
  6  4  1  0  0  0  0
  7  8  1  0  0  0  0
  8  1  1  0  0  0  0
  8  4  2  0  0  0  0
  9  7  2  0  0  0  0
  9  5  1  0  0  0  0
 10  2  1  0  0  0  0
 11 10  2  0  0  0  0
 11 12  1  0  0  0  0
 12 14  1  0  0  0  0
 13  2  1  1  0  0  0
 13  3  1  0  0  0  0
 13 15  1  0  0  0  0
 14 15  2  0  0  0  0
 15  1  1  0  0  0  0
 16 11  1  0  0  0  0
 16 17  1  0  0  0  0
 18 16  1  0  0  0  0
 19 20  1  0  0  0  0
 20 22  1  0  0  0  0
 21 20  1  0  0  0  0
 21 22  1  0  0  0  0
 22 23  1  6  0  0  0
 23 24  1  1  0  0  0
 25 27  2  0  0  0  0
 26 25  2  0  0  0  0
 26 23  1  0  0  0  0
 28 27  1  0  0  0  0
 28 30  1  0  0  0  0
 29 28  2  0  0  0  0
 30 31  1  0  0  0  0
 30 32  1  0  0  0  0
 33 34  1  0  0  0  0
 34 29  1  0  0  0  0
M  END
>  <MODEL>
7

>  <REMARK>
 VINA RESULT:      -6.9      1.614      4.569
  Name = 
  8 active torsions:
  status: ('A' for Active; 'I' for Inactive)
    1  A    between atoms: C_1  and  C_9
    2  A    between atoms: C_3  and  C_25
    3  A    between atoms: C_6  and  C_28
    4  A    between atoms: C_6  and  C_30
    5  A    between atoms: C_7  and  C_11
    6  A    between atoms: C_7  and  C_29
    7  A    between atoms: N_8  and  C_9
    8  A    between atoms: C_14  and  C_16
                            x       y       z     vdW  Elec       q    Type
                         _______ _______ _______ _____ _____    ______ ____

>  <TORSDO>
F 8

$$$$
=
 OpenBabel11052420183D

 34 37  0  0  1  0  0  0  0  0999 V2000
  190.7760  175.7120  144.1420 C   0  0  2  0  0  3  0  0  0  0  0  0
  188.4190  175.9730  146.8870 C   0  0  0  0  0  2  0  0  0  0  0  0
  190.8670  176.2310  147.0170 C   0  0  0  0  0  2  0  0  0  0  0  0
  193.2650  176.0100  144.0750 C   0  0  0  0  0  3  0  0  0  0  0  0
  194.5180  176.5980  146.0630 C   0  0  0  0  0  3  0  0  0  0  0  0
  194.4820  176.3080  144.6950 C   0  0  0  0  0  3  0  0  0  0  0  0
  192.1160  176.3120  146.1910 C   0  0  0  0  0  0  0  0  0  0  0  0
  192.0810  176.0090  144.8190 C   0  0  0  0  0  0  0  0  0  0  0  0
  193.3380  176.5930  146.8120 C   0  0  0  0  0  3  0  0  0  0  0  0
  187.0430  176.4610  146.5010 C   0  0  0  0  0  3  0  0  0  0  0  0
  186.6810  177.2360  145.4540 C   0  0  0  0  0  0  0  0  0  0  0  0
  187.6540  177.9220  144.5370 C   0  0  0  0  0  2  0  0  0  0  0  0
  189.6070  176.7150  146.2830 C   0  0  1  0  0  3  0  0  0  0  0  0
  188.7200  177.0210  143.9930 C   0  0  0  0  0  3  0  0  0  0  0  0
  189.6460  176.4700  144.7840 C   0  0  0  0  0  0  0  0  0  0  0  0
  185.2300  177.5650  145.2450 C   0  0  0  0  0  3  0  0  0  0  0  0
  184.5110  177.7510  146.5690 C   0  0  0  0  0  1  0  0  0  0  0  0
  185.0560  178.8000  144.3760 C   0  0  0  0  0  1  0  0  0  0  0  0
  190.4950  174.2140  144.0260 C   0  0  0  0  0  2  0  0  0  0  0  0
  189.5500  173.9290  142.9470 N   0  0  0  0  0  0  0  0  0  0  0  0
  189.6990  172.4980  142.6470 C   0  0  0  0  0  2  0  0  0  0  0  0
  190.1900  173.4760  141.6800 C   0  0  2  0  0  3  0  0  0  0  0  0
  191.7270  173.5280  141.6660 C   0  0  2  0  0  3  0  0  0  0  0  0
  192.2030  173.8760  140.2700 C   0  0  0  0  0  1  0  0  0  0  0  0
  193.5460  172.1220  142.4840 C   0  0  0  0  0  0  0  0  0  0  0  0
  192.3150  172.2120  142.0590 C   0  0  0  0  0  3  0  0  0  0  0  0
  194.7770  172.0400  142.9120 C   0  0  0  0  0  3  0  0  0  0  0  0
  195.1330  171.3840  144.1780 C   0  0  0  0  0  0  0  0  0  0  0  0
  195.4070  170.0740  144.1210 C   0  0  0  0  0  3  0  0  0  0  0  0
  195.1540  172.1890  145.4590 C   0  0  0  0  0  3  0  0  0  0  0  0
  196.2750  173.2140  145.4820 C   0  0  0  0  0  1  0  0  0  0  0  0
  193.8130  172.8350  145.7570 C   0  0  0  0  0  1  0  0  0  0  0  0
  194.5610  168.7280  146.0080 C   0  0  0  0  0  1  0  0  0  0  0  0
  195.7980  169.2310  145.2920 C   0  0  0  0  0  2  0  0  0  0  0  0
  1 19  1  1  0  0  0
  1 15  1  0  0  0  0
  1  8  1  0  0  0  0
  4  6  2  0  0  0  0
  4  8  1  0  0  0  0
  5  9  2  0  0  0  0
  6  5  1  0  0  0  0
  7  9  1  0  0  0  0
  7  3  1  0  0  0  0
  8  7  2  0  0  0  0
 10  2  1  0  0  0  0
 11 10  2  0  0  0  0
 12 11  1  0  0  0  0
 13  2  1  1  0  0  0
 13  3  1  0  0  0  0
 14 12  1  0  0  0  0
 14 15  2  0  0  0  0
 15 13  1  0  0  0  0
 16 11  1  0  0  0  0
 16 17  1  0  0  0  0
 18 16  1  0  0  0  0
 20 19  1  0  0  0  0
 21 20  1  0  0  0  0
 22 23  1  1  0  0  0
 22 21  1  0  0  0  0
 22 20  1  0  0  0  0
 23 24  1  6  0  0  0
 23 26  1  0  0  0  0
 25 27  2  0  0  0  0
 26 25  2  0  0  0  0
 27 28  1  0  0  0  0
 28 30  1  0  0  0  0
 29 28  2  0  0  0  0
 29 34  1  0  0  0  0
 30 31  1  0  0  0  0
 30 32  1  0  0  0  0
 34 33  1  0  0  0  0
M  END
>  <MODEL>
8

>  <REMARK>
 VINA RESULT:      -6.8      2.341      5.961
  Name = 
  8 active torsions:
  status: ('A' for Active; 'I' for Inactive)
    1  A    between atoms: C_1  and  C_9
    2  A    between atoms: C_3  and  C_25
    3  A    between atoms: C_6  and  C_28
    4  A    between atoms: C_6  and  C_30
    5  A    between atoms: C_7  and  C_11
    6  A    between atoms: C_7  and  C_29
    7  A    between atoms: N_8  and  C_9
    8  A    between atoms: C_14  and  C_16
                            x       y       z     vdW  Elec       q    Type
                         _______ _______ _______ _____ _____    ______ ____

>  <TORSDO>
F 8

$$$$
=
 OpenBabel11052420183D

 34 37  0  0  1  0  0  0  0  0999 V2000
  193.5030  173.2350  144.7280 C   0  0  2  0  0  3  0  0  0  0  0  0
  192.4470  174.7580  141.6090 C   0  0  0  0  0  2  0  0  0  0  0  0
  194.7140  174.7990  142.5760 C   0  0  0  0  0  2  0  0  0  0  0  0
  195.7560  173.1160  145.8220 C   0  0  0  0  0  3  0  0  0  0  0  0
  197.7140  174.0990  144.7870 C   0  0  0  0  0  3  0  0  0  0  0  0
  197.1280  173.3870  145.8390 C   0  0  0  0  0  3  0  0  0  0  0  0
  195.5600  174.2560  143.6880 C   0  0  0  0  0  0  0  0  0  0  0  0
  194.9690  173.5500  144.7510 C   0  0  0  0  0  0  0  0  0  0  0  0
  196.9300  174.5390  143.7170 C   0  0  0  0  0  3  0  0  0  0  0  0
  191.3030  174.0580  140.9130 C   0  0  0  0  0  3  0  0  0  0  0  0
  190.9330  172.7610  140.9890 C   0  0  0  0  0  0  0  0  0  0  0  0
  191.7320  171.6930  141.6820 C   0  0  0  0  0  2  0  0  0  0  0  0
  193.5560  173.8740  142.1700 C   0  0  1  0  0  3  0  0  0  0  0  0
  192.1490  172.0520  143.0760 C   0  0  0  0  0  3  0  0  0  0  0  0
  193.0090  173.0450  143.3190 C   0  0  0  0  0  0  0  0  0  0  0  0
  189.7240  172.2930  140.2300 C   0  0  0  0  0  3  0  0  0  0  0  0
  188.4440  172.8250  140.8490 C   0  0  0  0  0  1  0  0  0  0  0  0
  189.7990  172.6830  138.7630 C   0  0  0  0  0  1  0  0  0  0  0  0
  192.6670  174.2420  145.5180 C   0  0  0  0  0  2  0  0  0  0  0  0
  193.4630  175.4050  145.9110 N   0  0  0  0  0  0  0  0  0  0  0  0
  192.6480  176.1390  146.8900 C   0  0  0  0  0  2  0  0  0  0  0  0
  192.8410  176.7140  145.5620 C   0  0  2  0  0  3  0  0  0  0  0  0
  191.5560  176.6270  144.7220 C   0  0  2  0  0  3  0  0  0  0  0  0
  191.6930  177.5240  143.5070 C   0  0  0  0  0  1  0  0  0  0  0  0
  189.2710  177.4590  144.9170 C   0  0  0  0  0  0  0  0  0  0  0  0
  190.3650  177.0640  145.5090 C   0  0  0  0  0  3  0  0  0  0  0  0
  188.1780  177.8490  144.3180 C   0  0  0  0  0  3  0  0  0  0  0  0
  186.8590  177.2820  144.6290 C   0  0  0  0  0  0  0  0  0  0  0  0
  186.4220  177.4300  145.8870 C   0  0  0  0  0  3  0  0  0  0  0  0
  186.0820  176.5570  143.5530 C   0  0  0  0  0  3  0  0  0  0  0  0
  185.1680  177.4860  142.7720 C   0  0  0  0  0  1  0  0  0  0  0  0
  186.9820  175.7640  142.6230 C   0  0  0  0  0  1  0  0  0  0  0  0
  184.1460  178.0940  146.5730 C   0  0  0  0  0  1  0  0  0  0  0  0
  185.1070  176.9350  146.3980 C   0  0  0  0  0  2  0  0  0  0  0  0
  1  8  1  0  0  0  0
  1 19  1  6  0  0  0
  3  7  1  0  0  0  0
  4  6  1  0  0  0  0
  5  6  2  0  0  0  0
  7  9  2  0  0  0  0
  7  8  1  0  0  0  0
  8  4  2  0  0  0  0
  9  5  1  0  0  0  0
 10 11  2  0  0  0  0
 10  2  1  0  0  0  0
 11 12  1  0  0  0  0
 12 14  1  0  0  0  0
 13  2  1  1  0  0  0
 13  3  1  0  0  0  0
 13 15  1  0  0  0  0
 14 15  2  0  0  0  0
 15  1  1  0  0  0  0
 16 17  1  0  0  0  0
 16 11  1  0  0  0  0
 18 16  1  0  0  0  0
 19 20  1  0  0  0  0
 20 21  1  0  0  0  0
 22 23  1  6  0  0  0
 22 20  1  0  0  0  0
 22 21  1  0  0  0  0
 23 24  1  6  0  0  0
 23 26  1  0  0  0  0
 25 26  2  0  0  0  0
 27 28  1  0  0  0  0
 27 25  2  0  0  0  0
 28 29  2  0  0  0  0
 29 34  1  0  0  0  0
 30 28  1  0  0  0  0
 31 30  1  0  0  0  0
 32 30  1  0  0  0  0
 34 33  1  0  0  0  0
M  END
>  <MODEL>
9

>  <REMARK>
 VINA RESULT:      -6.8      1.807      5.148
  Name = 
  8 active torsions:
  status: ('A' for Active; 'I' for Inactive)
    1  A    between atoms: C_1  and  C_9
    2  A    between atoms: C_3  and  C_25
    3  A    between atoms: C_6  and  C_28
    4  A    between atoms: C_6  and  C_30
    5  A    between atoms: C_7  and  C_11
    6  A    between atoms: C_7  and  C_29
    7  A    between atoms: N_8  and  C_9
    8  A    between atoms: C_14  and  C_16
                            x       y       z     vdW  Elec       q    Type
                         _______ _______ _______ _____ _____    ______ ____

>  <TORSDO>
F 8

$$$$
