=
 OpenBabel11052420053D

 37 40  0  0  1  0  0  0  0  0999 V2000
  191.6630  175.3220  144.2140 N   0  0  0  0  0  0  0  0  0  0  0  0
  188.3340  177.8850  142.7760 C   0  0  0  0  0  3  0  0  0  0  0  0
  190.6450  174.3530  143.8390 C   0  0  2  0  0  3  0  0  0  0  0  0
  189.3560  176.9350  142.8910 C   0  0  0  0  0  0  0  0  0  0  0  0
  190.4840  177.3330  143.6330 O   0  0  0  0  0  0  0  0  0  0  0  0
  189.1990  175.6790  142.2530 C   0  0  0  0  0  0  0  0  0  0  0  0
  187.0150  176.3790  141.4280 C   0  0  0  0  0  3  0  0  0  0  0  0
  191.6030  176.6180  144.1020 C   0  0  0  0  0  0  0  0  0  0  0  0
  188.0240  175.4220  141.5260 C   0  0  0  0  0  3  0  0  0  0  0  0
  190.2410  174.6050  142.3800 C   0  0  2  0  0  3  0  0  0  0  0  0
  187.1690  177.6140  142.0550 C   0  0  0  0  0  0  0  0  0  0  0  0
  189.6890  173.2200  145.8360 C   0  0  0  0  0  2  0  0  0  0  0  0
  189.4800  174.3400  144.8370 C   0  0  1  0  0  3  0  0  0  0  0  0
  189.9760  174.6460  146.2390 C   0  0  1  0  0  3  0  0  0  0  0  0
  188.8160  175.1630  147.0690 C   0  0  0  0  0  2  0  0  0  0  0  0
  188.1860  176.3820  146.4200 C   0  0  0  0  0  2  0  0  0  0  0  0
  185.9710  176.8770  145.4360 C   0  0  0  0  0  2  0  0  0  0  0  0
  186.6850  176.4280  146.7030 C   0  0  2  0  0  3  0  0  0  0  0  0
  186.2000  177.7000  147.4170 C   0  0  1  0  0  3  0  0  0  0  0  0
  184.0280  178.2420  146.2460 C   0  0  0  0  0  1  0  0  0  0  0  0
  186.1270  179.3850  145.4320 C   0  0  0  0  0  1  0  0  0  0  0  0
  187.3000  178.6230  147.9440 C   0  0  0  0  0  1  0  0  0  0  0  0
  185.5350  178.1590  146.1190 C   0  0  0  0  0  0  0  0  0  0  0  0
  186.0770  178.6250  141.9890 C   0  0  0  0  0  2  0  0  0  0  0  0
  184.7310  177.9400  142.1200 C   0  0  0  0  0  1  0  0  0  0  0  0
  192.7670  177.4210  144.5710 C   0  0  0  0  0  2  0  0  0  0  0  0
  193.6920  176.6000  145.2260 O   0  0  0  0  0  1  0  0  0  0  0  0
  189.9500  173.3930  141.5800 N   0  0  0  0  0  0  0  0  0  0  0  0
  190.8620  173.2050  140.4380 C   0  0  1  0  0  3  0  0  0  0  0  0
  190.1270  173.4340  139.1290 C   0  0  0  0  0  1  0  0  0  0  0  0
  193.2430  173.3070  140.1360 O   0  0  0  0  0  1  0  0  0  0  0  0
  192.1250  174.0660  140.4880 C   0  0  0  0  0  2  0  0  0  0  0  0
  189.8710  172.1780  142.3850 C   0  0  0  0  0  2  0  0  0  0  0  0
  190.8680  171.1580  141.8760 C   0  0  0  0  0  2  0  0  0  0  0  0
  191.7210  170.6680  143.0250 C   0  0  0  0  0  2  0  0  0  0  0  0
  193.1640  171.8220  144.6680 C   0  0  0  0  0  1  0  0  0  0  0  0
  192.9180  171.5790  143.1950 C   0  0  0  0  0  2  0  0  0  0  0  0
  2  4  1  0  0  0  0
  3  1  1  1  0  0  0
  3 13  1  0  0  0  0
  4  5  1  0  0  0  0
  5  8  1  0  0  0  0
  6 10  1  0  0  0  0
  6  4  2  0  0  0  0
  7  9  2  0  0  0  0
  7 11  1  0  0  0  0
  8  1  2  0  0  0  0
  8 26  1  0  0  0  0
  9  6  1  0  0  0  0
 10 28  1  1  0  0  0
 10  3  1  0  0  0  0
 11  2  2  0  0  0  0
 12 14  1  0  0  0  0
 13 12  1  1  0  0  0
 13 14  1  0  0  0  0
 14 15  1  1  0  0  0
 16 15  1  0  0  0  0
 17 23  1  0  0  0  0
 17 18  1  0  0  0  0
 18 16  1  6  0  0  0
 18 19  1  0  0  0  0
 19 22  1  6  0  0  0
 21 23  1  0  0  0  0
 23 20  1  0  0  0  0
 23 19  1  0  0  0  0
 24 11  1  0  0  0  0
 24 25  1  0  0  0  0
 26 27  1  0  0  0  0
 28 33  1  0  0  0  0
 29 30  1  6  0  0  0
 29 32  1  0  0  0  0
 29 28  1  0  0  0  0
 31 32  1  0  0  0  0
 34 33  1  0  0  0  0
 34 35  1  0  0  0  0
 35 37  1  0  0  0  0
 37 36  1  0  0  0  0
M  END
>  <MODEL>
1

>  <REMARK>
 VINA RESULT:      -6.3      0.000      0.000
  Name = 
  13 active torsions:
  status: ('A' for Active; 'I' for Inactive)
    1  A    between atoms: C_1  and  C_12
    2  A    between atoms: C_1  and  N_36
    3  A    between atoms: C_3  and  C_32
    4  A    between atoms: C_6  and  C_31
    5  A    between atoms: C_10  and  C_14
    6  A    between atoms: C_17  and  C_26
    7  A    between atoms: C_17  and  C_33
    8  A    between atoms: C_22  and  C_24
    9  A    between atoms: C_26  and  C_34
   10  A    between atoms: C_27  and  C_37
   11  A    between atoms: C_29  and  N_36
   12  A    between atoms: C_31  and  C_37
   13  A    between atoms: C_33  and  N_36
                            x       y       z     vdW  Elec       q    Type
                         _______ _______ _______ _____ _____    ______ ____

>  <TORSDO>
F 13

$$$$
=
 OpenBabel11052420053D

 37 40  0  0  1  0  0  0  0  0999 V2000
  191.8430  177.2650  144.1230 N   0  0  0  0  0  0  0  0  0  0  0  0
  190.4400  173.4130  142.4150 C   0  0  0  0  0  3  0  0  0  0  0  0
  192.7320  176.2920  144.7380 C   0  0  2  0  0  3  0  0  0  0  0  0
  191.2010  174.5230  142.8020 C   0  0  0  0  0  0  0  0  0  0  0  0
  190.5350  175.7630  142.7780 O   0  0  0  0  0  0  0  0  0  0  0  0
  192.5590  174.3300  143.1620 C   0  0  0  0  0  0  0  0  0  0  0  0
  192.3240  171.9410  142.7400 C   0  0  0  0  0  3  0  0  0  0  0  0
  190.9030  177.0380  143.2510 C   0  0  0  0  0  0  0  0  0  0  0  0
  193.1000  173.0340  143.1240 C   0  0  0  0  0  3  0  0  0  0  0  0
  193.4100  175.4760  143.6300 C   0  0  2  0  0  3  0  0  0  0  0  0
  190.9900  172.1300  142.3860 C   0  0  0  0  0  0  0  0  0  0  0  0
  192.3710  175.9800  147.1790 C   0  0  0  0  0  2  0  0  0  0  0  0
  192.0090  175.4580  145.8040 C   0  0  1  0  0  3  0  0  0  0  0  0
  191.0280  176.3200  146.5800 C   0  0  1  0  0  3  0  0  0  0  0  0
  189.9740  175.4250  147.2030 C   0  0  0  0  0  2  0  0  0  0  0  0
  188.6300  175.6170  146.5240 C   0  0  0  0  0  2  0  0  0  0  0  0
  187.1950  177.4300  147.4010 C   0  0  0  0  0  2  0  0  0  0  0  0
  188.2950  177.1020  146.4020 C   0  0  2  0  0  3  0  0  0  0  0  0
  187.3420  177.4580  145.2490 C   0  0  1  0  0  3  0  0  0  0  0  0
  185.8020  179.1830  146.2680 C   0  0  0  0  0  1  0  0  0  0  0  0
  185.0470  176.7730  146.2740 C   0  0  0  0  0  1  0  0  0  0  0  0
  187.0500  176.3290  144.2590 C   0  0  0  0  0  1  0  0  0  0  0  0
  186.2340  177.7300  146.2670 C   0  0  0  0  0  0  0  0  0  0  0  0
  190.1440  170.9610  142.0170 C   0  0  0  0  0  2  0  0  0  0  0  0
  191.0240  169.7850  141.6420 C   0  0  0  0  0  1  0  0  0  0  0  0
  190.0970  178.1930  142.7660 C   0  0  0  0  0  2  0  0  0  0  0  0
  189.1300  177.7610  141.8520 O   0  0  0  0  0  1  0  0  0  0  0  0
  194.8220  175.1060  143.8820 N   0  0  0  0  0  0  0  0  0  0  0  0
  195.7470  175.5440  142.8220 C   0  0  1  0  0  3  0  0  0  0  0  0
  196.4230  174.3450  142.1800 C   0  0  0  0  0  1  0  0  0  0  0  0
  195.0700  175.7470  140.5260 O   0  0  0  0  0  1  0  0  0  0  0  0
  195.1060  176.4240  141.7470 C   0  0  0  0  0  2  0  0  0  0  0  0
  195.3010  175.5270  145.1950 C   0  0  0  0  0  2  0  0  0  0  0  0
  196.1440  174.4310  145.8110 C   0  0  0  0  0  2  0  0  0  0  0  0
  195.4880  173.0900  145.5670 C   0  0  0  0  0  2  0  0  0  0  0  0
  195.8140  170.6700  145.9590 C   0  0  0  0  0  1  0  0  0  0  0  0
  196.5150  171.9870  145.7080 C   0  0  0  0  0  2  0  0  0  0  0  0
  2  4  1  0  0  0  0
  3  1  1  6  0  0  0
  3 13  1  0  0  0  0
  4  6  2  0  0  0  0
  5  4  1  0  0  0  0
  5  8  1  0  0  0  0
  6 10  1  0  0  0  0
  7  9  2  0  0  0  0
  8  1  2  0  0  0  0
  9  6  1  0  0  0  0
 10 28  1  1  0  0  0
 10  3  1  0  0  0  0
 11  2  2  0  0  0  0
 11  7  1  0  0  0  0
 13 14  1  0  0  0  0
 13 12  1  1  0  0  0
 14 12  1  0  0  0  0
 14 15  1  1  0  0  0
 16 15  1  0  0  0  0
 18 16  1  6  0  0  0
 18 17  1  0  0  0  0
 19 22  1  6  0  0  0
 19 23  1  0  0  0  0
 19 18  1  0  0  0  0
 23 20  1  0  0  0  0
 23 21  1  0  0  0  0
 23 17  1  0  0  0  0
 24 11  1  0  0  0  0
 25 24  1  0  0  0  0
 26  8  1  0  0  0  0
 27 26  1  0  0  0  0
 28 33  1  0  0  0  0
 29 30  1  6  0  0  0
 29 28  1  0  0  0  0
 31 32  1  0  0  0  0
 32 29  1  0  0  0  0
 33 34  1  0  0  0  0
 35 37  1  0  0  0  0
 35 34  1  0  0  0  0
 37 36  1  0  0  0  0
M  END
>  <MODEL>
2

>  <REMARK>
 VINA RESULT:      -6.2      2.276      4.683
  Name = 
  13 active torsions:
  status: ('A' for Active; 'I' for Inactive)
    1  A    between atoms: C_1  and  C_12
    2  A    between atoms: C_1  and  N_36
    3  A    between atoms: C_3  and  C_32
    4  A    between atoms: C_6  and  C_31
    5  A    between atoms: C_10  and  C_14
    6  A    between atoms: C_17  and  C_26
    7  A    between atoms: C_17  and  C_33
    8  A    between atoms: C_22  and  C_24
    9  A    between atoms: C_26  and  C_34
   10  A    between atoms: C_27  and  C_37
   11  A    between atoms: C_29  and  N_36
   12  A    between atoms: C_31  and  C_37
   13  A    between atoms: C_33  and  N_36
                            x       y       z     vdW  Elec       q    Type
                         _______ _______ _______ _____ _____    ______ ____

>  <TORSDO>
F 13

$$$$
=
 OpenBabel11052420053D

 37 40  0  0  1  0  0  0  0  0999 V2000
  189.8710  177.0420  145.9300 N   0  0  0  0  0  0  0  0  0  0  0  0
  190.0820  173.0640  143.9670 C   0  0  0  0  0  3  0  0  0  0  0  0
  189.3720  177.3130  144.5910 C   0  0  2  0  0  3  0  0  0  0  0  0
  189.6600  174.2910  144.4950 C   0  0  0  0  0  0  0  0  0  0  0  0
  190.2720  174.6840  145.7000 O   0  0  0  0  0  0  0  0  0  0  0  0
  188.6580  175.0230  143.8100 C   0  0  0  0  0  0  0  0  0  0  0  0
  188.5580  173.2790  142.1090 C   0  0  0  0  0  3  0  0  0  0  0  0
  190.2390  175.8940  146.4220 C   0  0  0  0  0  0  0  0  0  0  0  0
  188.1200  174.5000  142.6210 C   0  0  0  0  0  3  0  0  0  0  0  0
  188.2010  176.3660  144.3030 C   0  0  2  0  0  3  0  0  0  0  0  0
  189.5420  172.5590  142.7830 C   0  0  0  0  0  0  0  0  0  0  0  0
  191.2150  178.6160  143.5450 C   0  0  0  0  0  2  0  0  0  0  0  0
  190.4980  177.2810  143.5500 C   0  0  1  0  0  3  0  0  0  0  0  0
  191.8520  177.4280  144.2240 C   0  0  1  0  0  3  0  0  0  0  0  0
  192.9200  176.8570  143.3100 C   0  0  0  0  0  2  0  0  0  0  0  0
  193.9280  176.0400  144.0980 C   0  0  0  0  0  2  0  0  0  0  0  0
  193.7200  174.2040  145.7410 C   0  0  0  0  0  2  0  0  0  0  0  0
  193.4210  174.6140  144.3060 C   0  0  2  0  0  3  0  0  0  0  0  0
  194.3670  173.5120  143.8030 C   0  0  1  0  0  3  0  0  0  0  0  0
  194.2370  171.7520  145.6110 C   0  0  0  0  0  1  0  0  0  0  0  0
  196.1130  173.4370  145.7350 C   0  0  0  0  0  1  0  0  0  0  0  0
  195.5570  173.9900  142.9690 C   0  0  0  0  0  1  0  0  0  0  0  0
  194.6950  173.1500  145.2510 C   0  0  0  0  0  0  0  0  0  0  0  0
  190.0440  171.2750  142.2190 C   0  0  0  0  0  2  0  0  0  0  0  0
  191.5050  171.0890  142.5770 C   0  0  0  0  0  1  0  0  0  0  0  0
  190.7390  175.8550  147.8250 C   0  0  0  0  0  2  0  0  0  0  0  0
  191.2600  177.1000  148.1900 O   0  0  0  0  0  1  0  0  0  0  0  0
  187.0900  176.9460  143.5110 N   0  0  0  0  0  0  0  0  0  0  0  0
  185.8740  177.2060  144.3000 C   0  0  1  0  0  3  0  0  0  0  0  0
  186.0510  176.7140  145.7260 C   0  0  0  0  0  1  0  0  0  0  0  0
  184.0380  178.7460  144.1290 O   0  0  0  0  0  1  0  0  0  0  0  0
  185.4210  178.6670  144.3020 C   0  0  0  0  0  2  0  0  0  0  0  0
  187.4820  178.1310  142.7550 C   0  0  0  0  0  2  0  0  0  0  0  0
  187.5650  177.7960  141.2810 C   0  0  0  0  0  2  0  0  0  0  0  0
  186.2120  177.3300  140.7900 C   0  0  0  0  0  2  0  0  0  0  0  0
  183.8600  178.0500  140.5320 C   0  0  0  0  0  1  0  0  0  0  0  0
  185.2950  178.5230  140.6200 C   0  0  0  0  0  2  0  0  0  0  0  0
  1  8  2  0  0  0  0
  2  4  1  0  0  0  0
  3  1  1  1  0  0  0
  4  5  1  0  0  0  0
  5  8  1  0  0  0  0
  6 10  1  0  0  0  0
  6  4  2  0  0  0  0
  7  9  2  0  0  0  0
  7 11  1  0  0  0  0
  8 26  1  0  0  0  0
  9  6  1  0  0  0  0
 10 28  1  6  0  0  0
 10  3  1  0  0  0  0
 11  2  2  0  0  0  0
 12 14  1  0  0  0  0
 13 12  1  6  0  0  0
 13 14  1  0  0  0  0
 13  3  1  0  0  0  0
 14 15  1  6  0  0  0
 15 16  1  0  0  0  0
 18 16  1  1  0  0  0
 18 17  1  0  0  0  0
 19 22  1  6  0  0  0
 19 18  1  0  0  0  0
 19 23  1  0  0  0  0
 23 20  1  0  0  0  0
 23 21  1  0  0  0  0
 23 17  1  0  0  0  0
 24 25  1  0  0  0  0
 24 11  1  0  0  0  0
 26 27  1  0  0  0  0
 28 29  1  0  0  0  0
 29 32  1  0  0  0  0
 29 30  1  1  0  0  0
 31 32  1  0  0  0  0
 33 28  1  0  0  0  0
 34 33  1  0  0  0  0
 35 34  1  0  0  0  0
 36 37  1  0  0  0  0
 37 35  1  0  0  0  0
M  END
>  <MODEL>
3

>  <REMARK>
 VINA RESULT:      -6.1      2.349      7.327
  Name = 
  13 active torsions:
  status: ('A' for Active; 'I' for Inactive)
    1  A    between atoms: C_1  and  C_12
    2  A    between atoms: C_1  and  N_36
    3  A    between atoms: C_3  and  C_32
    4  A    between atoms: C_6  and  C_31
    5  A    between atoms: C_10  and  C_14
    6  A    between atoms: C_17  and  C_26
    7  A    between atoms: C_17  and  C_33
    8  A    between atoms: C_22  and  C_24
    9  A    between atoms: C_26  and  C_34
   10  A    between atoms: C_27  and  C_37
   11  A    between atoms: C_29  and  N_36
   12  A    between atoms: C_31  and  C_37
   13  A    between atoms: C_33  and  N_36
                            x       y       z     vdW  Elec       q    Type
                         _______ _______ _______ _____ _____    ______ ____

>  <TORSDO>
F 13

$$$$
=
 OpenBabel11052420053D

 37 40  0  0  1  0  0  0  0  0999 V2000
  189.9370  173.8810  141.9970 N   0  0  0  0  0  0  0  0  0  0  0  0
  193.9860  175.5300  142.7770 C   0  0  0  0  0  3  0  0  0  0  0  0
  189.8500  174.3190  143.3810 C   0  0  2  0  0  3  0  0  0  0  0  0
  192.6060  175.3500  142.6280 C   0  0  0  0  0  0  0  0  0  0  0  0
  192.2050  174.5380  141.5490 O   0  0  0  0  0  0  0  0  0  0  0  0
  191.7290  175.9950  143.5360 C   0  0  0  0  0  0  0  0  0  0  0  0
  193.6470  176.9560  144.6930 C   0  0  0  0  0  3  0  0  0  0  0  0
  190.9530  173.9990  141.1910 C   0  0  0  0  0  0  0  0  0  0  0  0
  192.2680  176.7930  144.5590 C   0  0  0  0  0  3  0  0  0  0  0  0
  190.2420  175.8000  143.4530 C   0  0  2  0  0  3  0  0  0  0  0  0
  194.5090  176.3220  143.8000 C   0  0  0  0  0  0  0  0  0  0  0  0
  189.7390  172.2730  144.7910 C   0  0  0  0  0  2  0  0  0  0  0  0
  190.6390  173.3960  144.3180 C   0  0  1  0  0  3  0  0  0  0  0  0
  190.7650  172.0070  143.7160 C   0  0  1  0  0  3  0  0  0  0  0  0
  191.9580  171.3080  144.3410 C   0  0  0  0  0  2  0  0  0  0  0  0
  193.0410  171.0550  143.3070 C   0  0  0  0  0  2  0  0  0  0  0  0
  194.3030  170.9060  145.4300 C   0  0  0  0  0  2  0  0  0  0  0  0
  194.2920  170.4790  143.9680 C   0  0  2  0  0  3  0  0  0  0  0  0
  195.5780  171.2860  143.7320 C   0  0  1  0  0  3  0  0  0  0  0  0
  196.7280  171.2370  145.9820 C   0  0  0  0  0  1  0  0  0  0  0  0
  195.2680  173.2260  145.4430 C   0  0  0  0  0  1  0  0  0  0  0  0
  195.4760  172.4060  142.6950 C   0  0  0  0  0  1  0  0  0  0  0  0
  195.5420  171.7470  145.1890 C   0  0  0  0  0  0  0  0  0  0  0  0
  195.9830  176.4580  143.9650 C   0  0  0  0  0  2  0  0  0  0  0  0
  196.6900  175.9510  142.7230 C   0  0  0  0  0  1  0  0  0  0  0  0
  190.8240  173.4580  139.8090 C   0  0  0  0  0  2  0  0  0  0  0  0
  190.1850  172.2140  139.8320 O   0  0  0  0  0  1  0  0  0  0  0  0
  189.4780  176.6160  144.4260 N   0  0  0  0  0  0  0  0  0  0  0  0
  188.6810  177.6870  143.8040 C   0  0  1  0  0  3  0  0  0  0  0  0
  189.0490  177.8390  142.3380 C   0  0  0  0  0  1  0  0  0  0  0  0
  186.6180  178.6190  144.6080 O   0  0  0  0  0  1  0  0  0  0  0  0
  187.1680  177.5170  143.9500 C   0  0  0  0  0  2  0  0  0  0  0  0
  188.6560  175.8150  145.3290 C   0  0  0  0  0  2  0  0  0  0  0  0
  189.0130  176.1320  146.7650 C   0  0  0  0  0  2  0  0  0  0  0  0
  189.6730  174.9280  147.4000 C   0  0  0  0  0  2  0  0  0  0  0  0
  191.2790  176.6990  148.0330 C   0  0  0  0  0  1  0  0  0  0  0  0
  191.1280  175.2350  147.6830 C   0  0  0  0  0  2  0  0  0  0  0  0
  2 11  1  0  0  0  0
  3  1  1  6  0  0  0
  3 10  1  0  0  0  0
  3 13  1  0  0  0  0
  4  2  2  0  0  0  0
  4  6  1  0  0  0  0
  5  4  1  0  0  0  0
  6  9  2  0  0  0  0
  8  5  1  0  0  0  0
  8  1  2  0  0  0  0
  9  7  1  0  0  0  0
 10  6  1  0  0  0  0
 10 28  1  1  0  0  0
 11 24  1  0  0  0  0
 11  7  2  0  0  0  0
 13 12  1  1  0  0  0
 14 13  1  0  0  0  0
 14 15  1  1  0  0  0
 14 12  1  0  0  0  0
 16 15  1  0  0  0  0
 18 16  1  6  0  0  0
 18 17  1  0  0  0  0
 19 22  1  6  0  0  0
 19 18  1  0  0  0  0
 19 23  1  0  0  0  0
 23 17  1  0  0  0  0
 23 21  1  0  0  0  0
 23 20  1  0  0  0  0
 25 24  1  0  0  0  0
 26 27  1  0  0  0  0
 26  8  1  0  0  0  0
 28 33  1  0  0  0  0
 29 30  1  6  0  0  0
 29 32  1  0  0  0  0
 29 28  1  0  0  0  0
 32 31  1  0  0  0  0
 33 34  1  0  0  0  0
 34 35  1  0  0  0  0
 35 37  1  0  0  0  0
 37 36  1  0  0  0  0
M  END
>  <MODEL>
4

>  <REMARK>
 VINA RESULT:      -6.1      2.174      7.514
  Name = 
  13 active torsions:
  status: ('A' for Active; 'I' for Inactive)
    1  A    between atoms: C_1  and  C_12
    2  A    between atoms: C_1  and  N_36
    3  A    between atoms: C_3  and  C_32
    4  A    between atoms: C_6  and  C_31
    5  A    between atoms: C_10  and  C_14
    6  A    between atoms: C_17  and  C_26
    7  A    between atoms: C_17  and  C_33
    8  A    between atoms: C_22  and  C_24
    9  A    between atoms: C_26  and  C_34
   10  A    between atoms: C_27  and  C_37
   11  A    between atoms: C_29  and  N_36
   12  A    between atoms: C_31  and  C_37
   13  A    between atoms: C_33  and  N_36
                            x       y       z     vdW  Elec       q    Type
                         _______ _______ _______ _____ _____    ______ ____

>  <TORSDO>
F 13

$$$$
=
 OpenBabel11052420053D

 37 40  0  0  1  0  0  0  0  0999 V2000
  191.2740  173.1910  142.8610 N   0  0  0  0  0  0  0  0  0  0  0  0
  188.0580  175.6930  141.0940 C   0  0  0  0  0  3  0  0  0  0  0  0
  191.5270  174.5020  143.4370 C   0  0  2  0  0  3  0  0  0  0  0  0
  188.9200  175.0170  141.9660 C   0  0  0  0  0  0  0  0  0  0  0  0
  189.3330  173.7360  141.5530 O   0  0  0  0  0  0  0  0  0  0  0  0
  189.2930  175.6430  143.1820 C   0  0  0  0  0  0  0  0  0  0  0  0
  187.9360  177.5800  142.5910 C   0  0  0  0  0  3  0  0  0  0  0  0
  190.3050  172.8510  142.0600 C   0  0  0  0  0  0  0  0  0  0  0  0
  188.7890  176.9220  143.4760 C   0  0  0  0  0  3  0  0  0  0  0  0
  190.2510  174.9870  144.1350 C   0  0  2  0  0  3  0  0  0  0  0  0
  187.5700  176.9650  141.3960 C   0  0  0  0  0  0  0  0  0  0  0  0
  192.5600  176.7390  143.0980 C   0  0  0  0  0  2  0  0  0  0  0  0
  192.1050  175.4740  142.4000 C   0  0  1  0  0  3  0  0  0  0  0  0
  193.5810  175.7170  142.6610 C   0  0  1  0  0  3  0  0  0  0  0  0
  194.2350  176.1960  141.3780 C   0  0  0  0  0  2  0  0  0  0  0  0
  195.6640  176.6410  141.6310 C   0  0  0  0  0  2  0  0  0  0  0  0
  196.0010  174.6100  140.2610 C   0  0  0  0  0  2  0  0  0  0  0  0
  196.6240  175.9350  140.6760 C   0  0  2  0  0  3  0  0  0  0  0  0
  197.7710  175.1720  141.3580 C   0  0  1  0  0  3  0  0  0  0  0  0
  197.9410  173.0380  140.0160 C   0  0  0  0  0  1  0  0  0  0  0  0
  196.5410  173.0040  142.1160 C   0  0  0  0  0  1  0  0  0  0  0  0
  197.9230  175.4120  142.8620 C   0  0  0  0  0  1  0  0  0  0  0  0
  197.1010  173.8510  140.9790 C   0  0  0  0  0  0  0  0  0  0  0  0
  186.6930  177.6800  140.4280 C   0  0  0  0  0  2  0  0  0  0  0  0
  186.6910  176.9540  139.0980 C   0  0  0  0  0  1  0  0  0  0  0  0
  190.2500  171.4430  141.5760 C   0  0  0  0  0  2  0  0  0  0  0  0
  190.1500  171.4130  140.1810 O   0  0  0  0  0  1  0  0  0  0  0  0
  190.4580  175.7460  145.3900 N   0  0  0  0  0  0  0  0  0  0  0  0
  189.2670  175.7960  146.2550 C   0  0  1  0  0  3  0  0  0  0  0  0
  189.3140  174.6840  147.2880 C   0  0  0  0  0  1  0  0  0  0  0  0
  187.7080  177.5390  146.8060 O   0  0  0  0  0  1  0  0  0  0  0  0
  189.0400  177.1430  146.9440 C   0  0  0  0  0  2  0  0  0  0  0  0
  191.6270  175.3020  146.1430 C   0  0  0  0  0  2  0  0  0  0  0  0
  192.4380  176.5010  146.5870 C   0  0  0  0  0  2  0  0  0  0  0  0
  193.9110  176.1600  146.5460 C   0  0  0  0  0  2  0  0  0  0  0  0
  195.5650  174.5140  145.7260 C   0  0  0  0  0  1  0  0  0  0  0  0
  194.0950  174.7680  145.9800 C   0  0  0  0  0  2  0  0  0  0  0  0
  2 11  2  0  0  0  0
  2  4  1  0  0  0  0
  3  1  1  6  0  0  0
  3 10  1  0  0  0  0
  4  6  2  0  0  0  0
  5  4  1  0  0  0  0
  5  8  1  0  0  0  0
  6  9  1  0  0  0  0
  6 10  1  0  0  0  0
  7  9  2  0  0  0  0
  8  1  2  0  0  0  0
 10 28  1  1  0  0  0
 11  7  1  0  0  0  0
 13 14  1  0  0  0  0
 13 12  1  1  0  0  0
 13  3  1  0  0  0  0
 14 15  1  6  0  0  0
 14 12  1  0  0  0  0
 15 16  1  0  0  0  0
 17 18  1  0  0  0  0
 17 23  1  0  0  0  0
 18 19  1  0  0  0  0
 18 16  1  1  0  0  0
 19 22  1  1  0  0  0
 20 23  1  0  0  0  0
 23 19  1  0  0  0  0
 23 21  1  0  0  0  0
 24 11  1  0  0  0  0
 25 24  1  0  0  0  0
 26  8  1  0  0  0  0
 27 26  1  0  0  0  0
 28 33  1  0  0  0  0
 28 29  1  0  0  0  0
 29 32  1  0  0  0  0
 29 30  1  1  0  0  0
 31 32  1  0  0  0  0
 33 34  1  0  0  0  0
 35 34  1  0  0  0  0
 36 37  1  0  0  0  0
 37 35  1  0  0  0  0
M  END
>  <MODEL>
5

>  <REMARK>
 VINA RESULT:      -5.9      3.016      7.457
  Name = 
  13 active torsions:
  status: ('A' for Active; 'I' for Inactive)
    1  A    between atoms: C_1  and  C_12
    2  A    between atoms: C_1  and  N_36
    3  A    between atoms: C_3  and  C_32
    4  A    between atoms: C_6  and  C_31
    5  A    between atoms: C_10  and  C_14
    6  A    between atoms: C_17  and  C_26
    7  A    between atoms: C_17  and  C_33
    8  A    between atoms: C_22  and  C_24
    9  A    between atoms: C_26  and  C_34
   10  A    between atoms: C_27  and  C_37
   11  A    between atoms: C_29  and  N_36
   12  A    between atoms: C_31  and  C_37
   13  A    between atoms: C_33  and  N_36
                            x       y       z     vdW  Elec       q    Type
                         _______ _______ _______ _____ _____    ______ ____

>  <TORSDO>
F 13

$$$$
=
 OpenBabel11052420053D

 37 40  0  0  1  0  0  0  0  0999 V2000
  192.8380  174.9290  141.2460 N   0  0  0  0  0  0  0  0  0  0  0  0
  193.0530  170.8930  143.0870 C   0  0  0  0  0  3  0  0  0  0  0  0
  192.9370  175.2240  142.6670 C   0  0  2  0  0  3  0  0  0  0  0  0
  193.3070  172.2090  142.6810 C   0  0  0  0  0  0  0  0  0  0  0  0
  192.9230  172.5300  141.3650 O   0  0  0  0  0  0  0  0  0  0  0  0
  193.9340  173.0980  143.5890 C   0  0  0  0  0  0  0  0  0  0  0  0
  194.0140  171.3230  145.2580 C   0  0  0  0  0  3  0  0  0  0  0  0
  192.8560  173.7580  140.6770 C   0  0  0  0  0  0  0  0  0  0  0  0
  194.2800  172.6360  144.8710 C   0  0  0  0  0  3  0  0  0  0  0  0
  194.1870  174.5330  143.2250 C   0  0  2  0  0  3  0  0  0  0  0  0
  193.3990  170.4490  144.3650 C   0  0  0  0  0  0  0  0  0  0  0  0
  191.0110  176.1770  143.9190 C   0  0  0  0  0  2  0  0  0  0  0  0
  191.6340  174.8950  143.4060 C   0  0  1  0  0  3  0  0  0  0  0  0
  190.4440  175.5090  142.6890 C   0  0  1  0  0  3  0  0  0  0  0  0
  189.1900  174.7500  143.0790 C   0  0  0  0  0  2  0  0  0  0  0  0
  187.9460  175.4770  142.6010 C   0  0  0  0  0  2  0  0  0  0  0  0
  185.9400  176.5590  143.5620 C   0  0  0  0  0  2  0  0  0  0  0  0
  187.4560  176.4610  143.6610 C   0  0  2  0  0  3  0  0  0  0  0  0
  187.5680  177.9430  143.2700 C   0  0  1  0  0  3  0  0  0  0  0  0
  185.4140  178.9460  144.1280 C   0  0  0  0  0  1  0  0  0  0  0  0
  185.4940  178.2040  141.7160 C   0  0  0  0  0  1  0  0  0  0  0  0
  188.3560  178.2320  141.9900 C   0  0  0  0  0  1  0  0  0  0  0  0
  186.0490  178.0070  143.1220 C   0  0  0  0  0  0  0  0  0  0  0  0
  193.0740  169.0580  144.7870 C   0  0  0  0  0  2  0  0  0  0  0  0
  194.2960  168.4080  145.4060 C   0  0  0  0  0  1  0  0  0  0  0  0
  192.7210  173.6920  139.1940 C   0  0  0  0  0  2  0  0  0  0  0  0
  192.1270  172.4840  138.8140 O   0  0  0  0  0  1  0  0  0  0  0  0
  194.9260  175.2900  144.2630 N   0  0  0  0  0  0  0  0  0  0  0  0
  196.3400  175.5320  143.9260 C   0  0  1  0  0  3  0  0  0  0  0  0
  197.2340  174.5400  144.6480 C   0  0  0  0  0  1  0  0  0  0  0  0
  196.4660  176.7930  141.8840 O   0  0  0  0  0  1  0  0  0  0  0  0
  196.6440  175.5180  142.4270 C   0  0  0  0  0  2  0  0  0  0  0  0
  194.2650  176.5340  144.6460 C   0  0  0  0  0  2  0  0  0  0  0  0
  194.2170  176.6460  146.1550 C   0  0  0  0  0  2  0  0  0  0  0  0
  193.2600  175.6140  146.7090 C   0  0  0  0  0  2  0  0  0  0  0  0
  190.9760  175.2930  147.6020 C   0  0  0  0  0  1  0  0  0  0  0  0
  192.0620  176.3080  147.3230 C   0  0  0  0  0  2  0  0  0  0  0  0
  2 11  1  0  0  0  0
  3  1  1  6  0  0  0
  3 10  1  0  0  0  0
  3 13  1  0  0  0  0
  4  2  2  0  0  0  0
  4  6  1  0  0  0  0
  5  4  1  0  0  0  0
  6  9  2  0  0  0  0
  8  1  2  0  0  0  0
  8  5  1  0  0  0  0
  9  7  1  0  0  0  0
 10  6  1  0  0  0  0
 10 28  1  1  0  0  0
 11 24  1  0  0  0  0
 11  7  2  0  0  0  0
 13 12  1  1  0  0  0
 14 15  1  1  0  0  0
 14 13  1  0  0  0  0
 14 12  1  0  0  0  0
 16 15  1  0  0  0  0
 17 18  1  0  0  0  0
 18 16  1  6  0  0  0
 19 22  1  6  0  0  0
 19 18  1  0  0  0  0
 21 23  1  0  0  0  0
 23 19  1  0  0  0  0
 23 17  1  0  0  0  0
 23 20  1  0  0  0  0
 24 25  1  0  0  0  0
 26  8  1  0  0  0  0
 27 26  1  0  0  0  0
 28 33  1  0  0  0  0
 29 28  1  0  0  0  0
 29 30  1  1  0  0  0
 31 32  1  0  0  0  0
 32 29  1  0  0  0  0
 33 34  1  0  0  0  0
 34 35  1  0  0  0  0
 35 37  1  0  0  0  0
 37 36  1  0  0  0  0
M  END
>  <MODEL>
6

>  <REMARK>
 VINA RESULT:      -5.7      2.394      6.391
  Name = 
  13 active torsions:
  status: ('A' for Active; 'I' for Inactive)
    1  A    between atoms: C_1  and  C_12
    2  A    between atoms: C_1  and  N_36
    3  A    between atoms: C_3  and  C_32
    4  A    between atoms: C_6  and  C_31
    5  A    between atoms: C_10  and  C_14
    6  A    between atoms: C_17  and  C_26
    7  A    between atoms: C_17  and  C_33
    8  A    between atoms: C_22  and  C_24
    9  A    between atoms: C_26  and  C_34
   10  A    between atoms: C_27  and  C_37
   11  A    between atoms: C_29  and  N_36
   12  A    between atoms: C_31  and  C_37
   13  A    between atoms: C_33  and  N_36
                            x       y       z     vdW  Elec       q    Type
                         _______ _______ _______ _____ _____    ______ ____

>  <TORSDO>
F 13

$$$$
=
 OpenBabel11052420053D

 37 40  0  0  1  0  0  0  0  0999 V2000
  190.3510  174.2420  145.2640 N   0  0  0  0  0  0  0  0  0  0  0  0
  194.0730  175.9710  143.5680 C   0  0  0  0  0  3  0  0  0  0  0  0
  190.2290  173.9480  143.8450 C   0  0  2  0  0  3  0  0  0  0  0  0
  193.0300  175.1180  143.9490 C   0  0  0  0  0  0  0  0  0  0  0  0
  192.4830  175.3490  145.2260 O   0  0  0  0  0  0  0  0  0  0  0  0
  192.6210  174.0950  143.0580 C   0  0  0  0  0  0  0  0  0  0  0  0
  194.3030  174.8310  141.4540 C   0  0  0  0  0  3  0  0  0  0  0  0
  191.3430  174.8290  145.8700 C   0  0  0  0  0  0  0  0  0  0  0  0
  193.2700  173.9680  141.8180 C   0  0  0  0  0  3  0  0  0  0  0  0
  191.4780  173.1810  143.3930 C   0  0  2  0  0  3  0  0  0  0  0  0
  194.7050  175.8360  142.3310 C   0  0  0  0  0  0  0  0  0  0  0  0
  188.7410  174.9400  142.1160 C   0  0  0  0  0  2  0  0  0  0  0  0
  189.9180  175.2110  143.0300 C   0  0  1  0  0  3  0  0  0  0  0  0
  188.5390  175.7430  143.3780 C   0  0  1  0  0  3  0  0  0  0  0  0
  188.4750  177.2150  143.0160 C   0  0  0  0  0  2  0  0  0  0  0  0
  187.9460  178.0370  144.1770 C   0  0  0  0  0  2  0  0  0  0  0  0
  185.7900  179.0450  144.8490 C   0  0  0  0  0  2  0  0  0  0  0  0
  186.4620  177.7530  144.4060 C   0  0  2  0  0  3  0  0  0  0  0  0
  186.1270  177.1230  145.7670 C   0  0  1  0  0  3  0  0  0  0  0  0
  184.0160  178.3210  146.4690 C   0  0  0  0  0  1  0  0  0  0  0  0
  186.2200  179.2140  147.3190 C   0  0  0  0  0  1  0  0  0  0  0  0
  187.3270  176.6610  146.5970 C   0  0  0  0  0  1  0  0  0  0  0  0
  185.5040  178.4460  146.2120 C   0  0  0  0  0  0  0  0  0  0  0  0
  195.7790  176.7880  141.9310 C   0  0  0  0  0  2  0  0  0  0  0  0
  196.8750  176.8000  142.9780 C   0  0  0  0  0  1  0  0  0  0  0  0
  191.2450  175.0430  147.3410 C   0  0  0  0  0  2  0  0  0  0  0  0
  191.9200  176.2120  147.7080 O   0  0  0  0  0  1  0  0  0  0  0  0
  191.2450  172.1200  142.3850 N   0  0  0  0  0  0  0  0  0  0  0  0
  191.7910  170.8070  142.7700 C   0  0  1  0  0  3  0  0  0  0  0  0
  192.7900  170.3230  141.7340 C   0  0  0  0  0  1  0  0  0  0  0  0
  192.9400  169.4980  144.4250 O   0  0  0  0  0  1  0  0  0  0  0  0
  192.4200  170.7670  144.1640 C   0  0  0  0  0  2  0  0  0  0  0  0
  189.8460  172.0030  141.9850 C   0  0  0  0  0  2  0  0  0  0  0  0
  189.7570  171.7510  140.4950 C   0  0  0  0  0  2  0  0  0  0  0  0
  190.3840  172.9070  139.7480 C   0  0  0  0  0  2  0  0  0  0  0  0
  192.4490  172.1270  138.6320 C   0  0  0  0  0  1  0  0  0  0  0  0
  190.9740  172.4100  138.4450 C   0  0  0  0  0  2  0  0  0  0  0  0
  1  8  2  0  0  0  0
  2  4  1  0  0  0  0
  3  1  1  1  0  0  0
  4  5  1  0  0  0  0
  5  8  1  0  0  0  0
  6 10  1  0  0  0  0
  6  4  2  0  0  0  0
  7  9  2  0  0  0  0
  7 11  1  0  0  0  0
  8 26  1  0  0  0  0
  9  6  1  0  0  0  0
 10 28  1  6  0  0  0
 10  3  1  0  0  0  0
 11  2  2  0  0  0  0
 12 14  1  0  0  0  0
 13 12  1  6  0  0  0
 13 14  1  0  0  0  0
 13  3  1  0  0  0  0
 14 15  1  6  0  0  0
 15 16  1  0  0  0  0
 17 23  1  0  0  0  0
 18 16  1  1  0  0  0
 18 17  1  0  0  0  0
 18 19  1  0  0  0  0
 19 23  1  0  0  0  0
 19 22  1  1  0  0  0
 23 20  1  0  0  0  0
 23 21  1  0  0  0  0
 24 11  1  0  0  0  0
 24 25  1  0  0  0  0
 26 27  1  0  0  0  0
 28 29  1  0  0  0  0
 29 30  1  6  0  0  0
 29 32  1  0  0  0  0
 32 31  1  0  0  0  0
 33 28  1  0  0  0  0
 34 33  1  0  0  0  0
 35 34  1  0  0  0  0
 37 36  1  0  0  0  0
 37 35  1  0  0  0  0
M  END
>  <MODEL>
7

>  <REMARK>
 VINA RESULT:      -5.6      2.088      4.598
  Name = 
  13 active torsions:
  status: ('A' for Active; 'I' for Inactive)
    1  A    between atoms: C_1  and  C_12
    2  A    between atoms: C_1  and  N_36
    3  A    between atoms: C_3  and  C_32
    4  A    between atoms: C_6  and  C_31
    5  A    between atoms: C_10  and  C_14
    6  A    between atoms: C_17  and  C_26
    7  A    between atoms: C_17  and  C_33
    8  A    between atoms: C_22  and  C_24
    9  A    between atoms: C_26  and  C_34
   10  A    between atoms: C_27  and  C_37
   11  A    between atoms: C_29  and  N_36
   12  A    between atoms: C_31  and  C_37
   13  A    between atoms: C_33  and  N_36
                            x       y       z     vdW  Elec       q    Type
                         _______ _______ _______ _____ _____    ______ ____

>  <TORSDO>
F 13

$$$$
=
 OpenBabel11052420053D

 37 40  0  0  1  0  0  0  0  0999 V2000
  192.2970  174.9790  145.4620 N   0  0  0  0  0  0  0  0  0  0  0  0
  195.1400  175.7120  142.1290 C   0  0  0  0  0  3  0  0  0  0  0  0
  191.7900  174.1180  144.4050 C   0  0  2  0  0  3  0  0  0  0  0  0
  194.3550  175.1330  143.1340 C   0  0  0  0  0  0  0  0  0  0  0  0
  194.1920  175.8990  144.3040 O   0  0  0  0  0  0  0  0  0  0  0  0
  193.8090  173.8430  142.9190 C   0  0  0  0  0  0  0  0  0  0  0  0
  194.8490  173.7790  140.7150 C   0  0  0  0  0  3  0  0  0  0  0  0
  193.3570  175.7360  145.4270 C   0  0  0  0  0  0  0  0  0  0  0  0
  194.0690  173.1830  141.7050 C   0  0  0  0  0  3  0  0  0  0  0  0
  192.9210  173.1920  143.9400 C   0  0  2  0  0  3  0  0  0  0  0  0
  195.3850  175.0480  140.9260 C   0  0  0  0  0  0  0  0  0  0  0  0
  189.6600  174.5310  143.1900 C   0  0  0  0  0  2  0  0  0  0  0  0
  191.1190  174.9270  143.2880 C   0  0  1  0  0  3  0  0  0  0  0  0
  190.0390  175.8300  143.8590 C   0  0  1  0  0  3  0  0  0  0  0  0
  189.7890  176.9700  142.8900 C   0  0  0  0  0  2  0  0  0  0  0  0
  188.6690  177.8670  143.3860 C   0  0  0  0  0  2  0  0  0  0  0  0
  186.6430  178.7130  142.2460 C   0  0  0  0  0  2  0  0  0  0  0  0
  187.3360  177.4590  142.7620 C   0  0  2  0  0  3  0  0  0  0  0  0
  186.1900  177.2490  143.7640 C   0  0  1  0  0  3  0  0  0  0  0  0
  184.1970  178.2880  142.6100 C   0  0  0  0  0  1  0  0  0  0  0  0
  185.4920  179.7120  144.2440 C   0  0  0  0  0  1  0  0  0  0  0  0
  186.5930  177.2500  145.2400 C   0  0  0  0  0  1  0  0  0  0  0  0
  185.5380  178.5390  143.2700 C   0  0  0  0  0  0  0  0  0  0  0  0
  196.1840  175.7070  139.8560 C   0  0  0  0  0  2  0  0  0  0  0  0
  197.6630  175.5740  140.1590 C   0  0  0  0  0  1  0  0  0  0  0  0
  193.6790  176.5540  146.6290 C   0  0  0  0  0  2  0  0  0  0  0  0
  194.5550  177.5910  146.2900 O   0  0  0  0  0  1  0  0  0  0  0  0
  192.5130  171.8130  143.5850 N   0  0  0  0  0  0  0  0  0  0  0  0
  193.2330  170.7700  144.3360 C   0  0  1  0  0  3  0  0  0  0  0  0
  193.8830  169.7830  143.3830 C   0  0  0  0  0  1  0  0  0  0  0  0
  194.6260  170.3100  146.2390 O   0  0  0  0  0  1  0  0  0  0  0  0
  194.2700  171.3050  145.3260 C   0  0  0  0  0  2  0  0  0  0  0  0
  191.0700  171.6030  143.6600 C   0  0  0  0  0  2  0  0  0  0  0  0
  190.5970  170.8460  142.4380 C   0  0  0  0  0  2  0  0  0  0  0  0
  191.1700  171.4840  141.1930 C   0  0  0  0  0  2  0  0  0  0  0  0
  190.6790  173.4170  139.7300 C   0  0  0  0  0  1  0  0  0  0  0  0
  190.0800  172.2330  140.4560 C   0  0  0  0  0  2  0  0  0  0  0  0
  2  4  1  0  0  0  0
  3  1  1  1  0  0  0
  4  5  1  0  0  0  0
  5  8  1  0  0  0  0
  6  4  2  0  0  0  0
  6 10  1  0  0  0  0
  7 11  1  0  0  0  0
  7  9  2  0  0  0  0
  8  1  2  0  0  0  0
  8 26  1  0  0  0  0
  9  6  1  0  0  0  0
 10 28  1  6  0  0  0
 10  3  1  0  0  0  0
 11  2  2  0  0  0  0
 12 14  1  0  0  0  0
 13 12  1  6  0  0  0
 13 14  1  0  0  0  0
 13  3  1  0  0  0  0
 14 15  1  6  0  0  0
 15 16  1  0  0  0  0
 17 18  1  0  0  0  0
 17 23  1  0  0  0  0
 18 16  1  1  0  0  0
 18 19  1  0  0  0  0
 19 22  1  1  0  0  0
 20 23  1  0  0  0  0
 23 19  1  0  0  0  0
 23 21  1  0  0  0  0
 24 25  1  0  0  0  0
 24 11  1  0  0  0  0
 27 26  1  0  0  0  0
 28 33  1  0  0  0  0
 28 29  1  0  0  0  0
 29 30  1  6  0  0  0
 29 32  1  0  0  0  0
 32 31  1  0  0  0  0
 34 33  1  0  0  0  0
 35 34  1  0  0  0  0
 36 37  1  0  0  0  0
 37 35  1  0  0  0  0
M  END
>  <MODEL>
8

>  <REMARK>
 VINA RESULT:      -5.5      2.380      5.165
  Name = 
  13 active torsions:
  status: ('A' for Active; 'I' for Inactive)
    1  A    between atoms: C_1  and  C_12
    2  A    between atoms: C_1  and  N_36
    3  A    between atoms: C_3  and  C_32
    4  A    between atoms: C_6  and  C_31
    5  A    between atoms: C_10  and  C_14
    6  A    between atoms: C_17  and  C_26
    7  A    between atoms: C_17  and  C_33
    8  A    between atoms: C_22  and  C_24
    9  A    between atoms: C_26  and  C_34
   10  A    between atoms: C_27  and  C_37
   11  A    between atoms: C_29  and  N_36
   12  A    between atoms: C_31  and  C_37
   13  A    between atoms: C_33  and  N_36
                            x       y       z     vdW  Elec       q    Type
                         _______ _______ _______ _____ _____    ______ ____

>  <TORSDO>
F 13

$$$$
=
 OpenBabel11052420053D

 37 40  0  0  1  0  0  0  0  0999 V2000
  192.3060  175.1020  142.5900 N   0  0  0  0  0  0  0  0  0  0  0  0
  192.5910  170.8840  143.9510 C   0  0  0  0  0  3  0  0  0  0  0  0
  193.6770  175.0050  143.0660 C   0  0  2  0  0  3  0  0  0  0  0  0
  192.7820  172.1130  143.3060 C   0  0  0  0  0  0  0  0  0  0  0  0
  191.6140  172.8400  143.0110 O   0  0  0  0  0  0  0  0  0  0  0  0
  194.1020  172.5200  142.9850 C   0  0  0  0  0  0  0  0  0  0  0  0
  194.9680  170.4660  143.9700 C   0  0  0  0  0  3  0  0  0  0  0  0
  191.4150  174.1540  142.5420 C   0  0  0  0  0  0  0  0  0  0  0  0
  195.1780  171.6830  143.3240 C   0  0  0  0  0  3  0  0  0  0  0  0
  194.3700  173.8480  142.3370 C   0  0  2  0  0  3  0  0  0  0  0  0
  193.6710  170.0650  144.2860 C   0  0  0  0  0  0  0  0  0  0  0  0
  194.6380  176.0380  145.1150 C   0  0  0  0  0  2  0  0  0  0  0  0
  193.7400  174.9330  144.5970 C   0  0  1  0  0  3  0  0  0  0  0  0
  193.1390  176.1830  145.2160 C   0  0  1  0  0  3  0  0  0  0  0  0
  192.7120  175.8710  146.6380 C   0  0  0  0  0  2  0  0  0  0  0  0
  191.3080  176.3810  146.9070 C   0  0  0  0  0  2  0  0  0  0  0  0
  189.6700  177.5320  145.4540 C   0  0  0  0  0  2  0  0  0  0  0  0
  190.4330  176.2310  145.6630 C   0  0  2  0  0  3  0  0  0  0  0  0
  189.1010  175.4980  145.8940 C   0  0  1  0  0  3  0  0  0  0  0  0
  187.4490  176.8290  144.5220 C   0  0  0  0  0  1  0  0  0  0  0  0
  187.6730  177.3910  146.9730 C   0  0  0  0  0  1  0  0  0  0  0  0
  188.9430  174.8270  147.2600 C   0  0  0  0  0  1  0  0  0  0  0  0
  188.3580  176.8240  145.7340 C   0  0  0  0  0  0  0  0  0  0  0  0
  193.4430  168.7860  145.0140 C   0  0  0  0  0  2  0  0  0  0  0  0
  194.2900  168.7480  146.2700 C   0  0  0  0  0  1  0  0  0  0  0  0
  190.0570  174.4860  142.0280 C   0  0  0  0  0  2  0  0  0  0  0  0
  189.0760  173.8630  142.8070 O   0  0  0  0  0  1  0  0  0  0  0  0
  195.7960  174.0690  141.9980 N   0  0  0  0  0  0  0  0  0  0  0  0
  196.0590  174.1130  140.5490 C   0  0  1  0  0  3  0  0  0  0  0  0
  195.6090  172.8220  139.8880 C   0  0  0  0  0  1  0  0  0  0  0  0
  195.5430  175.1540  138.4460 O   0  0  0  0  0  1  0  0  0  0  0  0
  195.4430  175.3140  139.8300 C   0  0  0  0  0  2  0  0  0  0  0  0
  196.3720  175.2320  142.6660 C   0  0  0  0  0  2  0  0  0  0  0  0
  197.8060  174.9440  143.0540 C   0  0  0  0  0  2  0  0  0  0  0  0
  197.8520  173.7320  143.9590 C   0  0  0  0  0  2  0  0  0  0  0  0
  196.8150  173.1470  146.1270 C   0  0  0  0  0  1  0  0  0  0  0  0
  197.6650  174.1650  145.3980 C   0  0  0  0  0  2  0  0  0  0  0  0
  2 11  1  0  0  0  0
  3  1  1  1  0  0  0
  3 13  1  0  0  0  0
  4  2  2  0  0  0  0
  5  4  1  0  0  0  0
  6  4  1  0  0  0  0
  6  9  2  0  0  0  0
  7 11  2  0  0  0  0
  8  1  2  0  0  0  0
  8  5  1  0  0  0  0
  9  7  1  0  0  0  0
 10 28  1  1  0  0  0
 10  6  1  0  0  0  0
 10  3  1  0  0  0  0
 11 24  1  0  0  0  0
 12 14  1  0  0  0  0
 13 12  1  6  0  0  0
 13 14  1  0  0  0  0
 14 15  1  1  0  0  0
 15 16  1  0  0  0  0
 17 18  1  0  0  0  0
 17 23  1  0  0  0  0
 18 19  1  0  0  0  0
 18 16  1  1  0  0  0
 19 22  1  1  0  0  0
 20 23  1  0  0  0  0
 23 19  1  0  0  0  0
 23 21  1  0  0  0  0
 24 25  1  0  0  0  0
 26  8  1  0  0  0  0
 26 27  1  0  0  0  0
 28 33  1  0  0  0  0
 29 30  1  6  0  0  0
 29 28  1  0  0  0  0
 31 32  1  0  0  0  0
 32 29  1  0  0  0  0
 33 34  1  0  0  0  0
 34 35  1  0  0  0  0
 35 37  1  0  0  0  0
 37 36  1  0  0  0  0
M  END
>  <MODEL>
9

>  <REMARK>
 VINA RESULT:      -5.5      2.992      6.170
  Name = 
  13 active torsions:
  status: ('A' for Active; 'I' for Inactive)
    1  A    between atoms: C_1  and  C_12
    2  A    between atoms: C_1  and  N_36
    3  A    between atoms: C_3  and  C_32
    4  A    between atoms: C_6  and  C_31
    5  A    between atoms: C_10  and  C_14
    6  A    between atoms: C_17  and  C_26
    7  A    between atoms: C_17  and  C_33
    8  A    between atoms: C_22  and  C_24
    9  A    between atoms: C_26  and  C_34
   10  A    between atoms: C_27  and  C_37
   11  A    between atoms: C_29  and  N_36
   12  A    between atoms: C_31  and  C_37
   13  A    between atoms: C_33  and  N_36
                            x       y       z     vdW  Elec       q    Type
                         _______ _______ _______ _____ _____    ______ ____

>  <TORSDO>
F 13

$$$$
