=
 OpenBabel11052417393D

 31 34  0  0  1  0  0  0  0  0999 V2000
  186.1240  178.3640  147.6560 C   0  0  0  0  0  0  0  0  0  0  0  0
  186.8380  177.9500  143.9760 C   0  0  0  0  0  0  0  0  0  0  0  0
  188.2450  177.6880  143.8640 C   0  0  0  0  0  0  0  0  0  0  0  0
  190.4660  177.3610  144.8420 C   0  0  0  0  0  3  0  0  0  0  0  0
  186.1630  178.1680  145.2180 C   0  0  0  0  0  0  0  0  0  0  0  0
  184.7540  178.6100  147.6280 C   0  0  0  0  0  3  0  0  0  0  0  0
  189.1010  177.6170  144.9800 C   0  0  0  0  0  3  0  0  0  0  0  0
  184.6650  178.2550  142.8420 C   0  0  0  0  0  0  0  0  0  0  0  0
  186.7850  178.3360  148.8380 F   0  0  0  0  0  0  0  0  0  0  0  0
  188.0450  177.5420  141.4410 C   0  0  0  0  0  3  0  0  0  0  0  0
  191.0120  177.1680  143.5750 C   0  0  0  0  0  0  0  0  0  0  0  0
  184.0850  178.4550  144.0480 N   0  0  0  0  0  0  0  0  0  0  0  0
  186.0610  177.9980  142.7760 C   0  0  0  0  0  0  0  0  0  0  0  0
  186.8180  178.1450  146.4630 C   0  0  0  0  0  3  0  0  0  0  0  0
  192.4030  176.9060  143.4310 N   0  0  0  0  0  1  0  0  0  0  0  0
  184.7700  178.4200  145.2120 C   0  0  0  0  0  0  0  0  0  0  0  0
  184.0790  178.6390  146.4090 C   0  0  0  0  0  3  0  0  0  0  0  0
  186.6850  177.7930  141.5390 C   0  0  0  0  0  3  0  0  0  0  0  0
  188.8250  177.4860  142.5840 C   0  0  0  0  0  0  0  0  0  0  0  0
  190.1930  177.2300  142.4490 C   0  0  0  0  0  3  0  0  0  0  0  0
  182.4470  178.0890  141.6870 C   0  0  0  0  0  3  0  0  0  0  0  0
  183.7540  178.3290  141.6740 C   0  0  0  0  0  3  0  0  0  0  0  0
  181.6340  178.1920  140.4410 C   0  0  0  0  0  2  0  0  0  0  0  0
  180.2900  179.5680  141.9490 N   0  0  0  0  0  1  0  0  0  0  0  0
  180.5950  179.2990  140.5520 C   0  0  2  0  0  3  0  0  0  0  0  0
  179.0770  177.6940  139.6450 O   0  0  0  0  0  0  0  0  0  0  0  0
  179.3460  178.9130  139.8210 C   0  0  0  0  0  0  0  0  0  0  0  0
  178.4730  179.8810  139.3150 O   0  0  0  0  0  0  0  0  0  0  0  0
  178.9010  181.1820  138.9380 C   0  0  2  0  0  3  0  0  0  0  0  0
  178.3600  182.1950  139.9240 C   0  0  0  0  0  1  0  0  0  0  0  0
  178.4290  181.4850  137.6610 O   0  0  0  0  0  1  0  0  0  0  0  0
  1  9  1  0  0  0  0
  2  5  1  0  0  0  0
  3  2  1  0  0  0  0
  3  7  2  0  0  0  0
  4  7  1  0  0  0  0
  5 14  1  0  0  0  0
  6  1  1  0  0  0  0
  8 12  2  0  0  0  0
 10 18  2  0  0  0  0
 10 19  1  0  0  0  0
 11  4  2  0  0  0  0
 12 16  1  0  0  0  0
 13  8  1  0  0  0  0
 13  2  2  0  0  0  0
 14  1  2  0  0  0  0
 15 11  1  0  0  0  0
 16  5  2  0  0  0  0
 16 17  1  0  0  0  0
 17  6  2  0  0  0  0
 18 13  1  0  0  0  0
 19  3  1  0  0  0  0
 20 19  2  0  0  0  0
 20 11  1  0  0  0  0
 22 21  2  0  0  0  0
 22  8  1  0  0  0  0
 23 25  1  0  0  0  0
 23 21  1  0  0  0  0
 25 24  1  1  0  0  0
 26 27  2  0  0  0  0
 27 25  1  0  0  0  0
 28 27  1  0  0  0  0
 29 28  1  0  0  0  0
 29 30  1  1  0  0  0
 31 29  1  0  0  0  0
M  END
>  <MODEL>
1

>  <REMARK>
 VINA RESULT:      -8.2      0.000      0.000
  Name = 
  6 active torsions:
  status: ('A' for Active; 'I' for Inactive)
    1  A    between atoms: C_1  and  O_24
    2  A    between atoms: C_3  and  C_9
    3  A    between atoms: C_3  and  C_22
    4  A    between atoms: C_15  and  C_23
    5  A    between atoms: C_19  and  C_22
    6  A    between atoms: C_19  and  O_24
                            x       y       z     vdW  Elec       q    Type
                         _______ _______ _______ _____ _____    ______ ____

>  <TORSDO>
F 6

$$$$
=
 OpenBabel11052417393D

 31 34  0  0  1  0  0  0  0  0999 V2000
  185.5120  178.2480  147.1710 C   0  0  0  0  0  0  0  0  0  0  0  0
  186.8150  177.8680  143.6520 C   0  0  0  0  0  0  0  0  0  0  0  0
  185.6750  177.9780  142.7860 C   0  0  0  0  0  0  0  0  0  0  0  0
  183.2780  178.2930  142.3980 C   0  0  0  0  0  3  0  0  0  0  0  0
  186.7450  177.9590  145.0770 C   0  0  0  0  0  0  0  0  0  0  0  0
  186.6930  178.1230  147.8990 C   0  0  0  0  0  3  0  0  0  0  0  0
  184.3680  178.1900  143.2640 C   0  0  0  0  0  3  0  0  0  0  0  0
  189.2520  177.5400  143.8800 C   0  0  0  0  0  0  0  0  0  0  0  0
  184.3370  178.4490  147.8130 F   0  0  0  0  0  0  0  0  0  0  0  0
  187.1030  177.6640  140.8370 C   0  0  0  0  0  3  0  0  0  0  0  0
  183.4710  178.1850  141.0220 C   0  0  0  0  0  0  0  0  0  0  0  0
  189.1200  177.6330  145.2240 N   0  0  0  0  0  0  0  0  0  0  0  0
  188.0990  177.6550  143.0590 C   0  0  0  0  0  0  0  0  0  0  0  0
  185.5410  178.1670  145.7770 C   0  0  0  0  0  3  0  0  0  0  0  0
  182.3620  178.2900  140.1380 N   0  0  0  0  0  1  0  0  0  0  0  0
  187.9320  177.8340  145.8370 C   0  0  0  0  0  0  0  0  0  0  0  0
  187.9000  177.9160  147.2330 C   0  0  0  0  0  3  0  0  0  0  0  0
  188.2090  177.5570  141.6660 C   0  0  0  0  0  3  0  0  0  0  0  0
  185.8450  177.8730  141.3800 C   0  0  0  0  0  0  0  0  0  0  0  0
  184.7520  177.9760  140.5150 C   0  0  0  0  0  3  0  0  0  0  0  0
  191.2400  176.1420  143.2670 C   0  0  0  0  0  3  0  0  0  0  0  0
  190.6330  177.3190  143.3870 C   0  0  0  0  0  3  0  0  0  0  0  0
  192.6400  176.0470  142.7620 C   0  0  0  0  0  2  0  0  0  0  0  0
  192.2820  173.8150  143.6920 N   0  0  0  0  0  1  0  0  0  0  0  0
  193.2870  174.7340  143.1820 C   0  0  2  0  0  3  0  0  0  0  0  0
  195.1810  174.0900  144.4870 O   0  0  0  0  0  0  0  0  0  0  0  0
  194.3310  174.9830  144.2280 C   0  0  0  0  0  0  0  0  0  0  0  0
  194.3750  176.1880  144.9350 O   0  0  0  0  0  0  0  0  0  0  0  0
  194.1990  176.2620  146.3430 C   0  0  2  0  0  3  0  0  0  0  0  0
  192.7540  175.9650  146.6850 C   0  0  0  0  0  1  0  0  0  0  0  0
  194.5260  177.5410  146.7960 O   0  0  0  0  0  1  0  0  0  0  0  0
  1  9  1  0  0  0  0
  1  6  1  0  0  0  0
  2  5  1  0  0  0  0
  3  7  2  0  0  0  0
  3  2  1  0  0  0  0
  4  7  1  0  0  0  0
  5 14  1  0  0  0  0
  5 16  2  0  0  0  0
  8 12  2  0  0  0  0
 10 19  1  0  0  0  0
 10 18  2  0  0  0  0
 11  4  2  0  0  0  0
 12 16  1  0  0  0  0
 13  2  2  0  0  0  0
 13  8  1  0  0  0  0
 14  1  2  0  0  0  0
 15 11  1  0  0  0  0
 16 17  1  0  0  0  0
 17  6  2  0  0  0  0
 18 13  1  0  0  0  0
 19  3  1  0  0  0  0
 20 11  1  0  0  0  0
 20 19  2  0  0  0  0
 21 22  2  0  0  0  0
 22  8  1  0  0  0  0
 23 25  1  0  0  0  0
 23 21  1  0  0  0  0
 25 24  1  1  0  0  0
 25 27  1  0  0  0  0
 27 26  2  0  0  0  0
 27 28  1  0  0  0  0
 28 29  1  0  0  0  0
 29 30  1  6  0  0  0
 29 31  1  0  0  0  0
M  END
>  <MODEL>
2

>  <REMARK>
 VINA RESULT:      -8.1      5.870      9.612
  Name = 
  6 active torsions:
  status: ('A' for Active; 'I' for Inactive)
    1  A    between atoms: C_1  and  O_24
    2  A    between atoms: C_3  and  C_9
    3  A    between atoms: C_3  and  C_22
    4  A    between atoms: C_15  and  C_23
    5  A    between atoms: C_19  and  C_22
    6  A    between atoms: C_19  and  O_24
                            x       y       z     vdW  Elec       q    Type
                         _______ _______ _______ _____ _____    ______ ____

>  <TORSDO>
F 6

$$$$
=
 OpenBabel11052417393D

 31 34  0  0  1  0  0  0  0  0999 V2000
  185.3330  178.2830  147.3030 C   0  0  0  0  0  0  0  0  0  0  0  0
  186.8770  177.8140  143.8950 C   0  0  0  0  0  0  0  0  0  0  0  0
  185.8060  177.9320  142.9460 C   0  0  0  0  0  0  0  0  0  0  0  0
  183.4500  178.2900  142.3810 C   0  0  0  0  0  3  0  0  0  0  0  0
  186.7070  177.9310  145.3090 C   0  0  0  0  0  0  0  0  0  0  0  0
  186.4550  178.1460  148.1170 C   0  0  0  0  0  3  0  0  0  0  0  0
  184.4730  178.1800  143.3250 C   0  0  0  0  0  3  0  0  0  0  0  0
  189.2840  177.4400  144.3030 C   0  0  0  0  0  0  0  0  0  0  0  0
  184.1200  178.5190  147.8550 F   0  0  0  0  0  0  0  0  0  0  0  0
  187.3630  177.5540  141.1110 C   0  0  0  0  0  3  0  0  0  0  0  0
  183.7390  178.1540  141.0240 C   0  0  0  0  0  0  0  0  0  0  0  0
  189.0570  177.5590  145.6320 N   0  0  0  0  0  0  0  0  0  0  0  0
  188.1950  177.5640  143.3990 C   0  0  0  0  0  0  0  0  0  0  0  0
  185.4610  178.1770  145.9160 C   0  0  0  0  0  3  0  0  0  0  0  0
  182.6990  178.2650  140.0600 N   0  0  0  0  0  1  0  0  0  0  0  0
  187.8340  177.7950  146.1540 C   0  0  0  0  0  0  0  0  0  0  0  0
  187.7020  177.9030  147.5430 C   0  0  0  0  0  3  0  0  0  0  0  0
  188.4040  177.4390  142.0190 C   0  0  0  0  0  3  0  0  0  0  0  0
  186.0740  177.7990  141.5580 C   0  0  0  0  0  0  0  0  0  0  0  0
  185.0490  177.9090  140.6150 C   0  0  0  0  0  3  0  0  0  0  0  0
  191.7180  177.0390  144.7480 C   0  0  0  0  0  3  0  0  0  0  0  0
  190.6920  177.1810  143.9150 C   0  0  0  0  0  3  0  0  0  0  0  0
  193.0950  176.7860  144.2360 C   0  0  0  0  0  2  0  0  0  0  0  0
  194.5730  177.5540  146.0240 N   0  0  0  0  0  1  0  0  0  0  0  0
  194.0340  176.3770  145.3630 C   0  0  2  0  0  3  0  0  0  0  0  0
  195.7830  174.7680  145.6000 O   0  0  0  0  0  0  0  0  0  0  0  0
  195.1510  175.5350  144.8250 C   0  0  0  0  0  0  0  0  0  0  0  0
  195.5160  175.5900  143.4770 O   0  0  0  0  0  0  0  0  0  0  0  0
  196.5060  176.4820  142.9830 C   0  0  2  0  0  3  0  0  0  0  0  0
  196.2500  176.7550  141.5160 C   0  0  0  0  0  1  0  0  0  0  0  0
  197.7720  175.9150  143.1320 O   0  0  0  0  0  1  0  0  0  0  0  0
  1  9  1  0  0  0  0
  1  6  1  0  0  0  0
  2  5  1  0  0  0  0
  3  7  2  0  0  0  0
  3  2  1  0  0  0  0
  4  7  1  0  0  0  0
  5 14  1  0  0  0  0
  5 16  2  0  0  0  0
  8 12  2  0  0  0  0
 10 19  1  0  0  0  0
 10 18  2  0  0  0  0
 11  4  2  0  0  0  0
 12 16  1  0  0  0  0
 13  2  2  0  0  0  0
 13  8  1  0  0  0  0
 14  1  2  0  0  0  0
 15 11  1  0  0  0  0
 16 17  1  0  0  0  0
 17  6  2  0  0  0  0
 18 13  1  0  0  0  0
 19  3  1  0  0  0  0
 20 11  1  0  0  0  0
 20 19  2  0  0  0  0
 22  8  1  0  0  0  0
 22 21  2  0  0  0  0
 23 21  1  0  0  0  0
 23 25  1  0  0  0  0
 25 24  1  6  0  0  0
 27 25  1  0  0  0  0
 27 26  2  0  0  0  0
 28 27  1  0  0  0  0
 29 30  1  6  0  0  0
 29 31  1  0  0  0  0
 29 28  1  0  0  0  0
M  END
>  <MODEL>
3

>  <REMARK>
 VINA RESULT:      -8.0      6.117     10.164
  Name = 
  6 active torsions:
  status: ('A' for Active; 'I' for Inactive)
    1  A    between atoms: C_1  and  O_24
    2  A    between atoms: C_3  and  C_9
    3  A    between atoms: C_3  and  C_22
    4  A    between atoms: C_15  and  C_23
    5  A    between atoms: C_19  and  C_22
    6  A    between atoms: C_19  and  O_24
                            x       y       z     vdW  Elec       q    Type
                         _______ _______ _______ _____ _____    ______ ____

>  <TORSDO>
F 6

$$$$
=
 OpenBabel11052417393D

 31 34  0  0  1  0  0  0  0  0999 V2000
  185.2550  178.3640  147.2390 C   0  0  0  0  0  0  0  0  0  0  0  0
  186.6120  177.8060  143.7640 C   0  0  0  0  0  0  0  0  0  0  0  0
  185.5000  177.9520  142.8680 C   0  0  0  0  0  0  0  0  0  0  0  0
  183.1320  178.3850  142.4150 C   0  0  0  0  0  3  0  0  0  0  0  0
  186.5160  177.9440  145.1840 C   0  0  0  0  0  0  0  0  0  0  0  0
  186.4110  178.1970  147.9980 C   0  0  0  0  0  3  0  0  0  0  0  0
  184.1960  178.2500  143.3090 C   0  0  0  0  0  3  0  0  0  0  0  0
  189.0220  177.3530  144.0580 C   0  0  0  0  0  0  0  0  0  0  0  0
  184.0790  178.6480  147.8460 F   0  0  0  0  0  0  0  0  0  0  0  0
  186.9500  177.5000  140.9630 C   0  0  0  0  0  3  0  0  0  0  0  0
  183.3490  178.2250  141.0480 C   0  0  0  0  0  0  0  0  0  0  0  0
  188.8650  177.4930  145.3960 N   0  0  0  0  0  0  0  0  0  0  0  0
  187.8950  177.5050  143.2070 C   0  0  0  0  0  0  0  0  0  0  0  0
  185.3110  178.2390  145.8480 C   0  0  0  0  0  3  0  0  0  0  0  0
  182.2670  178.3630  140.1350 N   0  0  0  0  0  1  0  0  0  0  0  0
  187.6780  177.7780  145.9740 C   0  0  0  0  0  0  0  0  0  0  0  0
  187.6190  177.9040  147.3660 C   0  0  0  0  0  3  0  0  0  0  0  0
  188.0300  177.3590  141.8210 C   0  0  0  0  0  3  0  0  0  0  0  0
  185.6940  177.7950  141.4700 C   0  0  0  0  0  0  0  0  0  0  0  0
  184.6270  177.9310  140.5770 C   0  0  0  0  0  3  0  0  0  0  0  0
  191.4860  177.0150  144.3700 C   0  0  0  0  0  3  0  0  0  0  0  0
  190.3990  177.0410  143.6050 C   0  0  0  0  0  3  0  0  0  0  0  0
  192.8230  176.6920  143.7960 C   0  0  0  0  0  2  0  0  0  0  0  0
  194.8240  175.3190  144.0830 N   0  0  0  0  0  1  0  0  0  0  0  0
  193.4310  175.4710  144.4700 C   0  0  2  0  0  3  0  0  0  0  0  0
  192.7610  173.7640  142.9390 O   0  0  0  0  0  0  0  0  0  0  0  0
  192.6600  174.2390  144.1020 C   0  0  0  0  0  0  0  0  0  0  0  0
  191.8170  173.6090  145.0220 O   0  0  0  0  0  0  0  0  0  0  0  0
  190.4160  173.4810  144.8210 C   0  0  2  0  0  3  0  0  0  0  0  0
  189.6820  174.1150  145.9830 C   0  0  0  0  0  1  0  0  0  0  0  0
  190.0710  172.1320  144.7390 O   0  0  0  0  0  1  0  0  0  0  0  0
  1  9  1  0  0  0  0
  1  6  1  0  0  0  0
  2  5  1  0  0  0  0
  3  7  2  0  0  0  0
  3  2  1  0  0  0  0
  4  7  1  0  0  0  0
  5 14  1  0  0  0  0
  5 16  2  0  0  0  0
  8 12  2  0  0  0  0
 10 19  1  0  0  0  0
 10 18  2  0  0  0  0
 11  4  2  0  0  0  0
 12 16  1  0  0  0  0
 13  2  2  0  0  0  0
 13  8  1  0  0  0  0
 14  1  2  0  0  0  0
 15 11  1  0  0  0  0
 16 17  1  0  0  0  0
 17  6  2  0  0  0  0
 18 13  1  0  0  0  0
 19  3  1  0  0  0  0
 20 11  1  0  0  0  0
 20 19  2  0  0  0  0
 22  8  1  0  0  0  0
 22 21  2  0  0  0  0
 23 21  1  0  0  0  0
 23 25  1  0  0  0  0
 25 24  1  6  0  0  0
 26 27  2  0  0  0  0
 27 25  1  0  0  0  0
 27 28  1  0  0  0  0
 29 28  1  0  0  0  0
 29 30  1  1  0  0  0
 31 29  1  0  0  0  0
M  END
>  <MODEL>
4

>  <REMARK>
 VINA RESULT:      -8.0      5.200      9.043
  Name = 
  6 active torsions:
  status: ('A' for Active; 'I' for Inactive)
    1  A    between atoms: C_1  and  O_24
    2  A    between atoms: C_3  and  C_9
    3  A    between atoms: C_3  and  C_22
    4  A    between atoms: C_15  and  C_23
    5  A    between atoms: C_19  and  C_22
    6  A    between atoms: C_19  and  O_24
                            x       y       z     vdW  Elec       q    Type
                         _______ _______ _______ _____ _____    ______ ____

>  <TORSDO>
F 6

$$$$
=
 OpenBabel11052417393D

 31 34  0  0  1  0  0  0  0  0999 V2000
  184.4370  178.4780  146.0720 C   0  0  0  0  0  0  0  0  0  0  0  0
  187.2800  176.8360  144.2160 C   0  0  0  0  0  0  0  0  0  0  0  0
  186.9620  176.9350  142.8190 C   0  0  0  0  0  0  0  0  0  0  0  0
  185.5030  177.6330  140.9800 C   0  0  0  0  0  3  0  0  0  0  0  0
  186.4480  177.3430  145.2620 C   0  0  0  0  0  0  0  0  0  0  0  0
  184.8600  178.3150  147.3890 C   0  0  0  0  0  3  0  0  0  0  0  0
  185.7880  177.5510  142.3440 C   0  0  0  0  0  3  0  0  0  0  0  0
  188.8560  176.0720  145.9580 C   0  0  0  0  0  0  0  0  0  0  0  0
  183.2650  179.1010  145.8070 F   0  0  0  0  0  0  0  0  0  0  0  0
  189.0280  175.7770  142.2460 C   0  0  0  0  0  3  0  0  0  0  0  0
  186.3930  177.0970  140.0510 C   0  0  0  0  0  0  0  0  0  0  0  0
  188.0240  176.5710  146.9020 N   0  0  0  0  0  0  0  0  0  0  0  0
  188.5020  176.1910  144.5870 C   0  0  0  0  0  0  0  0  0  0  0  0
  185.2250  177.9960  145.0230 C   0  0  0  0  0  3  0  0  0  0  0  0
  186.1050  177.1800  138.6610 N   0  0  0  0  0  1  0  0  0  0  0  0
  186.8590  177.1890  146.6070 C   0  0  0  0  0  0  0  0  0  0  0  0
  186.0680  177.6720  147.6550 C   0  0  0  0  0  3  0  0  0  0  0  0
  189.3440  175.6780  143.5920 C   0  0  0  0  0  3  0  0  0  0  0  0
  187.8530  176.3980  141.8530 C   0  0  0  0  0  0  0  0  0  0  0  0
  187.5650  176.4820  140.4870 C   0  0  0  0  0  3  0  0  0  0  0  0
  191.2510  176.0340  146.6970 C   0  0  0  0  0  3  0  0  0  0  0  0
  190.0900  175.4280  146.4690 C   0  0  0  0  0  3  0  0  0  0  0  0
  192.4280  175.2750  147.2080 C   0  0  0  0  0  2  0  0  0  0  0  0
  193.4400  176.8060  145.5950 N   0  0  0  0  0  1  0  0  0  0  0  0
  193.7030  175.6890  146.4890 C   0  0  2  0  0  3  0  0  0  0  0  0
  195.3060  174.6860  145.0300 O   0  0  0  0  0  0  0  0  0  0  0  0
  194.2600  174.5330  145.7140 C   0  0  0  0  0  0  0  0  0  0  0  0
  193.6320  173.2840  145.7260 O   0  0  0  0  0  0  0  0  0  0  0  0
  193.1660  172.6460  144.5440 C   0  0  2  0  0  3  0  0  0  0  0  0
  191.6710  172.8520  144.4170 C   0  0  0  0  0  1  0  0  0  0  0  0
  193.4390  171.2790  144.6050 O   0  0  0  0  0  1  0  0  0  0  0  0
  1  6  1  0  0  0  0
  2 13  2  0  0  0  0
  2  5  1  0  0  0  0
  3  2  1  0  0  0  0
  4  7  1  0  0  0  0
  5 16  2  0  0  0  0
  6 17  2  0  0  0  0
  7  3  2  0  0  0  0
  8 22  1  0  0  0  0
  8 12  2  0  0  0  0
  9  1  1  0  0  0  0
 10 18  2  0  0  0  0
 11 20  1  0  0  0  0
 11  4  2  0  0  0  0
 13  8  1  0  0  0  0
 14  5  1  0  0  0  0
 14  1  2  0  0  0  0
 15 11  1  0  0  0  0
 16 12  1  0  0  0  0
 16 17  1  0  0  0  0
 18 13  1  0  0  0  0
 19 10  1  0  0  0  0
 19  3  1  0  0  0  0
 20 19  2  0  0  0  0
 21 23  1  0  0  0  0
 22 21  2  0  0  0  0
 25 24  1  6  0  0  0
 25 23  1  0  0  0  0
 26 27  2  0  0  0  0
 27 28  1  0  0  0  0
 27 25  1  0  0  0  0
 29 30  1  1  0  0  0
 29 31  1  0  0  0  0
 29 28  1  0  0  0  0
M  END
>  <MODEL>
5

>  <REMARK>
 VINA RESULT:      -7.9      6.509      9.735
  Name = 
  6 active torsions:
  status: ('A' for Active; 'I' for Inactive)
    1  A    between atoms: C_1  and  O_24
    2  A    between atoms: C_3  and  C_9
    3  A    between atoms: C_3  and  C_22
    4  A    between atoms: C_15  and  C_23
    5  A    between atoms: C_19  and  C_22
    6  A    between atoms: C_19  and  O_24
                            x       y       z     vdW  Elec       q    Type
                         _______ _______ _______ _____ _____    ______ ____

>  <TORSDO>
F 6

$$$$
=
 OpenBabel11052417393D

 31 34  0  0  1  0  0  0  0  0999 V2000
  190.7790  173.7850  140.8510 C   0  0  0  0  0  0  0  0  0  0  0  0
  191.3540  175.2670  144.2710 C   0  0  0  0  0  0  0  0  0  0  0  0
  192.7290  175.0090  144.5980 C   0  0  0  0  0  0  0  0  0  0  0  0
  194.9370  174.0890  144.0750 C   0  0  0  0  0  3  0  0  0  0  0  0
  190.7350  174.8630  143.0480 C   0  0  0  0  0  0  0  0  0  0  0  0
  189.4360  174.0970  140.6570 C   0  0  0  0  0  3  0  0  0  0  0  0
  193.6050  174.3270  143.7320 C   0  0  0  0  0  3  0  0  0  0  0  0
  189.1880  176.2480  144.9420 C   0  0  0  0  0  0  0  0  0  0  0  0
  191.4660  173.1150  139.8960 F   0  0  0  0  0  0  0  0  0  0  0  0
  192.4490  176.1270  146.7440 C   0  0  0  0  0  3  0  0  0  0  0  0
  195.4280  174.5310  145.3030 C   0  0  0  0  0  0  0  0  0  0  0  0
  188.6600  175.8360  143.7660 N   0  0  0  0  0  0  0  0  0  0  0  0
  190.5530  175.9710  145.2250 C   0  0  0  0  0  0  0  0  0  0  0  0
  191.4190  174.1660  142.0340 C   0  0  0  0  0  3  0  0  0  0  0  0
  196.7850  174.2900  145.6550 N   0  0  0  0  0  1  0  0  0  0  0  0
  189.3710  175.1690  142.8300 C   0  0  0  0  0  0  0  0  0  0  0  0
  188.7340  174.7860  141.6450 C   0  0  0  0  0  3  0  0  0  0  0  0
  191.1220  176.3820  146.4380 C   0  0  0  0  0  3  0  0  0  0  0  0
  193.2530  175.4500  145.8410 C   0  0  0  0  0  0  0  0  0  0  0  0
  194.5870  175.2100  146.1830 C   0  0  0  0  0  3  0  0  0  0  0  0
  187.2390  176.4250  146.5070 C   0  0  0  0  0  3  0  0  0  0  0  0
  188.2570  176.9660  145.8450 C   0  0  0  0  0  3  0  0  0  0  0  0
  186.3650  177.2550  147.3850 C   0  0  0  0  0  2  0  0  0  0  0  0
  186.0420  179.6390  147.8170 N   0  0  0  0  0  1  0  0  0  0  0  0
  186.1180  178.6280  146.7750 C   0  0  2  0  0  3  0  0  0  0  0  0
  183.7750  178.2450  146.5170 O   0  0  0  0  0  0  0  0  0  0  0  0
  184.8500  178.6190  145.9770 C   0  0  0  0  0  0  0  0  0  0  0  0
  184.8350  179.0080  144.6340 O   0  0  0  0  0  0  0  0  0  0  0  0
  185.1110  178.1090  143.5690 C   0  0  2  0  0  3  0  0  0  0  0  0
  186.3430  178.5750  142.8230 C   0  0  0  0  0  1  0  0  0  0  0  0
  184.0280  178.0690  142.6900 O   0  0  0  0  0  1  0  0  0  0  0  0
  1 14  1  0  0  0  0
  2  3  2  0  0  0  0
  2 13  1  0  0  0  0
  3 19  1  0  0  0  0
  4 11  1  0  0  0  0
  5  2  1  0  0  0  0
  6  1  2  0  0  0  0
  6 17  1  0  0  0  0
  7  4  2  0  0  0  0
  7  3  1  0  0  0  0
  8 13  1  0  0  0  0
  8 22  1  0  0  0  0
  9  1  1  0  0  0  0
 11 15  1  0  0  0  0
 11 20  2  0  0  0  0
 12  8  2  0  0  0  0
 13 18  2  0  0  0  0
 14  5  2  0  0  0  0
 16  5  1  0  0  0  0
 16 12  1  0  0  0  0
 17 16  2  0  0  0  0
 18 10  1  0  0  0  0
 19 20  1  0  0  0  0
 19 10  2  0  0  0  0
 21 23  1  0  0  0  0
 22 21  2  0  0  0  0
 25 23  1  0  0  0  0
 25 24  1  1  0  0  0
 27 26  2  0  0  0  0
 27 25  1  0  0  0  0
 28 27  1  0  0  0  0
 29 30  1  6  0  0  0
 29 28  1  0  0  0  0
 31 29  1  0  0  0  0
M  END
>  <MODEL>
6

>  <REMARK>
 VINA RESULT:      -7.7      4.696      7.318
  Name = 
  6 active torsions:
  status: ('A' for Active; 'I' for Inactive)
    1  A    between atoms: C_1  and  O_24
    2  A    between atoms: C_3  and  C_9
    3  A    between atoms: C_3  and  C_22
    4  A    between atoms: C_15  and  C_23
    5  A    between atoms: C_19  and  C_22
    6  A    between atoms: C_19  and  O_24
                            x       y       z     vdW  Elec       q    Type
                         _______ _______ _______ _____ _____    ______ ____

>  <TORSDO>
F 6

$$$$
=
 OpenBabel11052417393D

 31 34  0  0  1  0  0  0  0  0999 V2000
  185.3180  178.2210  147.1600 C   0  0  0  0  0  0  0  0  0  0  0  0
  186.6650  177.8650  143.6550 C   0  0  0  0  0  0  0  0  0  0  0  0
  185.5370  177.9840  142.7750 C   0  0  0  0  0  0  0  0  0  0  0  0
  183.1450  178.3060  142.3580 C   0  0  0  0  0  3  0  0  0  0  0  0
  186.5770  177.9450  145.0800 C   0  0  0  0  0  0  0  0  0  0  0  0
  186.4880  178.0880  147.9020 C   0  0  0  0  0  3  0  0  0  0  0  0
  184.2240  178.1950  143.2380 C   0  0  0  0  0  3  0  0  0  0  0  0
  189.0990  177.5310  143.9120 C   0  0  0  0  0  0  0  0  0  0  0  0
  184.1350  178.4190  147.7880 F   0  0  0  0  0  0  0  0  0  0  0  0
  186.9900  177.6810  140.8420 C   0  0  0  0  0  3  0  0  0  0  0  0
  183.3560  178.2080  140.9840 C   0  0  0  0  0  0  0  0  0  0  0  0
  188.9490  177.6130  145.2550 N   0  0  0  0  0  0  0  0  0  0  0  0
  187.9560  177.6530  143.0770 C   0  0  0  0  0  0  0  0  0  0  0  0
  185.3650  178.1500  145.7650 C   0  0  0  0  0  3  0  0  0  0  0  0
  182.2590  178.3220  140.0870 N   0  0  0  0  0  1  0  0  0  0  0  0
  187.7540  177.8120  145.8540 C   0  0  0  0  0  0  0  0  0  0  0  0
  187.7030  177.8840  147.2500 C   0  0  0  0  0  3  0  0  0  0  0  0
  188.0840  177.5660  141.6850 C   0  0  0  0  0  3  0  0  0  0  0  0
  185.7250  177.8890  141.3710 C   0  0  0  0  0  0  0  0  0  0  0  0
  184.6430  178.0000  140.4930 C   0  0  0  0  0  3  0  0  0  0  0  0
  191.4210  176.6000  144.0580 C   0  0  0  0  0  3  0  0  0  0  0  0
  190.4850  177.3100  143.4360 C   0  0  0  0  0  3  0  0  0  0  0  0
  192.7880  176.4540  143.4800 C   0  0  0  0  0  2  0  0  0  0  0  0
  194.8210  176.7590  144.8010 N   0  0  0  0  0  1  0  0  0  0  0  0
  193.7460  175.8310  144.4850 C   0  0  2  0  0  3  0  0  0  0  0  0
  193.6740  173.9110  143.0650 O   0  0  0  0  0  0  0  0  0  0  0  0
  194.3150  174.5580  143.9370 C   0  0  0  0  0  0  0  0  0  0  0  0
  195.5430  174.0610  144.3830 O   0  0  0  0  0  0  0  0  0  0  0  0
  195.6610  173.1800  145.4920 C   0  0  2  0  0  3  0  0  0  0  0  0
  196.9830  173.4210  146.1880 C   0  0  0  0  0  1  0  0  0  0  0  0
  195.6060  171.8560  145.0530 O   0  0  0  0  0  1  0  0  0  0  0  0
  1  9  1  0  0  0  0
  1  6  1  0  0  0  0
  2  5  1  0  0  0  0
  3  7  2  0  0  0  0
  3  2  1  0  0  0  0
  4  7  1  0  0  0  0
  5 14  1  0  0  0  0
  5 16  2  0  0  0  0
  8 12  2  0  0  0  0
 10 19  1  0  0  0  0
 10 18  2  0  0  0  0
 11  4  2  0  0  0  0
 12 16  1  0  0  0  0
 13  2  2  0  0  0  0
 13  8  1  0  0  0  0
 14  1  2  0  0  0  0
 15 11  1  0  0  0  0
 16 17  1  0  0  0  0
 17  6  2  0  0  0  0
 18 13  1  0  0  0  0
 19  3  1  0  0  0  0
 20 11  1  0  0  0  0
 20 19  2  0  0  0  0
 22  8  1  0  0  0  0
 22 21  2  0  0  0  0
 23 21  1  0  0  0  0
 23 25  1  0  0  0  0
 25 24  1  6  0  0  0
 26 27  2  0  0  0  0
 27 28  1  0  0  0  0
 27 25  1  0  0  0  0
 28 29  1  0  0  0  0
 29 30  1  6  0  0  0
 31 29  1  0  0  0  0
M  END
>  <MODEL>
7

>  <REMARK>
 VINA RESULT:      -7.6      5.863     10.262
  Name = 
  6 active torsions:
  status: ('A' for Active; 'I' for Inactive)
    1  A    between atoms: C_1  and  O_24
    2  A    between atoms: C_3  and  C_9
    3  A    between atoms: C_3  and  C_22
    4  A    between atoms: C_15  and  C_23
    5  A    between atoms: C_19  and  C_22
    6  A    between atoms: C_19  and  O_24
                            x       y       z     vdW  Elec       q    Type
                         _______ _______ _______ _____ _____    ______ ____

>  <TORSDO>
F 6

$$$$
=
 OpenBabel11052417393D

 31 34  0  0  1  0  0  0  0  0999 V2000
  194.7560  175.4560  145.2960 C   0  0  0  0  0  0  0  0  0  0  0  0
  191.2010  175.3850  144.0390 C   0  0  0  0  0  0  0  0  0  0  0  0
  191.2330  174.7050  142.7740 C   0  0  0  0  0  0  0  0  0  0  0  0
  192.4210  173.5430  140.9760 C   0  0  0  0  0  3  0  0  0  0  0  0
  192.3560  175.6210  144.8470 C   0  0  0  0  0  0  0  0  0  0  0  0
  194.5900  176.1300  146.5040 C   0  0  0  0  0  3  0  0  0  0  0  0
  192.4190  174.2000  142.2080 C   0  0  0  0  0  3  0  0  0  0  0  0
  189.8630  176.5340  145.7690 C   0  0  0  0  0  0  0  0  0  0  0  0
  195.9870  175.0430  144.9130 F   0  0  0  0  0  0  0  0  0  0  0  0
  188.8250  174.9920  142.5380 C   0  0  0  0  0  3  0  0  0  0  0  0
  191.2270  173.3750  140.2760 C   0  0  0  0  0  0  0  0  0  0  0  0
  190.9940  176.7290  146.4860 N   0  0  0  0  0  0  0  0  0  0  0  0
  189.9400  175.8570  144.5220 C   0  0  0  0  0  0  0  0  0  0  0  0
  193.6500  175.2060  144.4800 C   0  0  0  0  0  3  0  0  0  0  0  0
  191.2270  172.7060  139.0210 N   0  0  0  0  0  1  0  0  0  0  0  0
  192.2110  176.3040  146.0780 C   0  0  0  0  0  0  0  0  0  0  0  0
  193.3200  176.5530  146.8930 C   0  0  0  0  0  3  0  0  0  0  0  0
  188.7840  175.6480  143.7580 C   0  0  0  0  0  3  0  0  0  0  0  0
  190.0310  174.5210  142.0420 C   0  0  0  0  0  0  0  0  0  0  0  0
  190.0360  173.8630  140.8090 C   0  0  0  0  0  3  0  0  0  0  0  0
  187.5540  176.3580  146.7250 C   0  0  0  0  0  3  0  0  0  0  0  0
  188.6210  177.0690  146.3750 C   0  0  0  0  0  3  0  0  0  0  0  0
  186.3550  177.0130  147.3240 C   0  0  0  0  0  2  0  0  0  0  0  0
  185.9360  179.4010  147.6250 N   0  0  0  0  0  1  0  0  0  0  0  0
  186.0540  178.3380  146.6400 C   0  0  2  0  0  3  0  0  0  0  0  0
  183.6760  178.4010  146.4160 O   0  0  0  0  0  0  0  0  0  0  0  0
  184.7870  178.2340  145.8450 C   0  0  0  0  0  0  0  0  0  0  0  0
  184.8110  177.9430  144.4780 O   0  0  0  0  0  0  0  0  0  0  0  0
  185.2200  178.8860  143.4970 C   0  0  2  0  0  3  0  0  0  0  0  0
  186.6320  178.5690  143.0520 C   0  0  0  0  0  1  0  0  0  0  0  0
  185.1840  180.1740  144.0330 O   0  0  0  0  0  1  0  0  0  0  0  0
  1  6  1  0  0  0  0
  2 13  2  0  0  0  0
  2  5  1  0  0  0  0
  3  2  1  0  0  0  0
  4  7  1  0  0  0  0
  5 16  2  0  0  0  0
  6 17  2  0  0  0  0
  7  3  2  0  0  0  0
  8 22  1  0  0  0  0
  8 12  2  0  0  0  0
  9  1  1  0  0  0  0
 10 18  2  0  0  0  0
 11 20  1  0  0  0  0
 11  4  2  0  0  0  0
 13  8  1  0  0  0  0
 14  5  1  0  0  0  0
 14  1  2  0  0  0  0
 15 11  1  0  0  0  0
 16 12  1  0  0  0  0
 16 17  1  0  0  0  0
 18 13  1  0  0  0  0
 19 10  1  0  0  0  0
 19  3  1  0  0  0  0
 20 19  2  0  0  0  0
 21 23  1  0  0  0  0
 22 21  2  0  0  0  0
 25 23  1  0  0  0  0
 25 24  1  1  0  0  0
 27 26  2  0  0  0  0
 27 25  1  0  0  0  0
 28 27  1  0  0  0  0
 29 30  1  1  0  0  0
 29 31  1  0  0  0  0
 29 28  1  0  0  0  0
M  END
>  <MODEL>
8

>  <REMARK>
 VINA RESULT:      -7.5      4.794      7.295
  Name = 
  6 active torsions:
  status: ('A' for Active; 'I' for Inactive)
    1  A    between atoms: C_1  and  O_24
    2  A    between atoms: C_3  and  C_9
    3  A    between atoms: C_3  and  C_22
    4  A    between atoms: C_15  and  C_23
    5  A    between atoms: C_19  and  C_22
    6  A    between atoms: C_19  and  O_24
                            x       y       z     vdW  Elec       q    Type
                         _______ _______ _______ _____ _____    ______ ____

>  <TORSDO>
F 6

$$$$
=
 OpenBabel11052417393D

 31 34  0  0  1  0  0  0  0  0999 V2000
  191.8560  175.4530  146.6470 C   0  0  0  0  0  0  0  0  0  0  0  0
  189.7960  174.1570  143.7660 C   0  0  0  0  0  0  0  0  0  0  0  0
  190.3770  172.8990  143.3880 C   0  0  0  0  0  0  0  0  0  0  0  0
  192.0410  171.1220  143.6490 C   0  0  0  0  0  3  0  0  0  0  0  0
  190.2900  174.9760  144.8290 C   0  0  0  0  0  0  0  0  0  0  0  0
  191.2030  176.6540  146.9120 C   0  0  0  0  0  3  0  0  0  0  0  0
  191.4970  172.3480  144.0380 C   0  0  0  0  0  3  0  0  0  0  0  0
  188.0510  175.8620  143.3790 C   0  0  0  0  0  0  0  0  0  0  0  0
  192.9300  175.0870  147.3850 F   0  0  0  0  0  0  0  0  0  0  0  0
  188.7120  172.6380  141.6280 C   0  0  0  0  0  3  0  0  0  0  0  0
  191.4730  170.4140  142.5920 C   0  0  0  0  0  0  0  0  0  0  0  0
  188.5670  176.5920  144.3950 N   0  0  0  0  0  0  0  0  0  0  0  0
  188.6560  174.6230  143.0380 C   0  0  0  0  0  0  0  0  0  0  0  0
  191.4020  174.6260  145.6170 C   0  0  0  0  0  3  0  0  0  0  0  0
  192.0250  169.1650  142.1940 N   0  0  0  0  0  1  0  0  0  0  0  0
  189.6410  176.2000  145.1160 C   0  0  0  0  0  0  0  0  0  0  0  0
  190.0980  177.0260  146.1480 C   0  0  0  0  0  3  0  0  0  0  0  0
  188.1450  173.8510  141.9860 C   0  0  0  0  0  3  0  0  0  0  0  0
  189.8160  172.1580  142.3150 C   0  0  0  0  0  0  0  0  0  0  0  0
  190.3630  170.9310  141.9270 C   0  0  0  0  0  3  0  0  0  0  0  0
  186.5680  177.7440  142.6460 C   0  0  0  0  0  3  0  0  0  0  0  0
  186.8710  176.4510  142.7030 C   0  0  0  0  0  3  0  0  0  0  0  0
  185.3440  178.2170  141.9380 C   0  0  0  0  0  2  0  0  0  0  0  0
  182.9280  178.5420  142.1110 N   0  0  0  0  0  1  0  0  0  0  0  0
  184.1090  178.0680  142.8150 C   0  0  2  0  0  3  0  0  0  0  0  0
  184.5680  180.0600  144.0510 O   0  0  0  0  0  0  0  0  0  0  0  0
  184.2850  178.8320  144.0920 C   0  0  0  0  0  0  0  0  0  0  0  0
  184.1530  178.2070  145.3350 O   0  0  0  0  0  0  0  0  0  0  0  0
  185.2120  178.1430  146.2810 C   0  0  2  0  0  3  0  0  0  0  0  0
  185.6680  176.7070  146.4280 C   0  0  0  0  0  1  0  0  0  0  0  0
  184.7720  178.6160  147.5180 O   0  0  0  0  0  1  0  0  0  0  0  0
  1  6  1  0  0  0  0
  1  9  1  0  0  0  0
  2  5  1  0  0  0  0
  3  2  1  0  0  0  0
  3  7  2  0  0  0  0
  4  7  1  0  0  0  0
  5 16  2  0  0  0  0
  5 14  1  0  0  0  0
  8 12  2  0  0  0  0
 10 18  2  0  0  0  0
 10 19  1  0  0  0  0
 11  4  2  0  0  0  0
 12 16  1  0  0  0  0
 13  8  1  0  0  0  0
 13  2  2  0  0  0  0
 14  1  2  0  0  0  0
 15 11  1  0  0  0  0
 16 17  1  0  0  0  0
 17  6  2  0  0  0  0
 18 13  1  0  0  0  0
 19  3  1  0  0  0  0
 20 19  2  0  0  0  0
 20 11  1  0  0  0  0
 21 22  2  0  0  0  0
 22  8  1  0  0  0  0
 23 21  1  0  0  0  0
 23 25  1  0  0  0  0
 25 24  1  6  0  0  0
 25 27  1  0  0  0  0
 26 27  2  0  0  0  0
 27 28  1  0  0  0  0
 28 29  1  0  0  0  0
 29 30  1  1  0  0  0
 29 31  1  0  0  0  0
M  END
>  <MODEL>
9

>  <REMARK>
 VINA RESULT:      -7.5      4.541      6.462
  Name = 
  6 active torsions:
  status: ('A' for Active; 'I' for Inactive)
    1  A    between atoms: C_1  and  O_24
    2  A    between atoms: C_3  and  C_9
    3  A    between atoms: C_3  and  C_22
    4  A    between atoms: C_15  and  C_23
    5  A    between atoms: C_19  and  C_22
    6  A    between atoms: C_19  and  O_24
                            x       y       z     vdW  Elec       q    Type
                         _______ _______ _______ _____ _____    ______ ____

>  <TORSDO>
F 6

$$$$
