=
 OpenBabel11052417433D

 31 35  0  0  1  0  0  0  0  0999 V2000
  189.2800  175.8230  145.0140 C   0  0  2  0  0  3  0  0  0  0  0  0
  188.1800  176.2070  146.0400 C   0  0  2  0  0  3  0  0  0  0  0  0
  185.7580  176.8390  146.2820 C   0  0  0  0  0  2  0  0  0  0  0  0
  186.8610  176.4380  145.3050 C   0  0  0  0  0  2  0  0  0  0  0  0
  189.6750  177.5630  147.3750 O   0  0  0  0  0  0  0  0  0  0  0  0
  186.1560  178.0440  147.0860 C   0  0  0  0  0  0  0  0  0  0  0  0
  185.1730  178.9140  147.5380 O   0  0  0  0  0  1  0  0  0  0  0  0
  188.5050  177.3770  146.9500 C   0  0  0  0  0  0  0  0  0  0  0  0
  187.4300  178.2670  147.4140 C   0  0  0  0  0  3  0  0  0  0  0  0
  191.1590  173.3660  143.7070 C   0  0  0  0  0  2  0  0  0  0  0  0
  190.0430  174.6090  145.3590 N   0  0  0  0  0  0  0  0  0  0  0  0
  192.1350  173.9190  144.5400 O   0  0  0  0  0  0  0  0  0  0  0  0
  189.8340  173.5570  144.3860 C   0  0  0  0  0  2  0  0  0  0  0  0
  191.4740  174.9000  145.3010 C   0  0  2  0  0  3  0  0  0  0  0  0
  192.8890  176.1700  146.9060 C   0  0  0  0  0  1  0  0  0  0  0  0
  192.0450  174.9260  146.7070 C   0  0  0  0  0  2  0  0  0  0  0  0
  190.4170  177.0160  143.1030 C   0  0  2  0  0  0  0  0  0  0  0  0
  191.6430  177.6220  142.8350 O   0  0  0  0  0  1  0  0  0  0  0  0
  190.2080  176.9680  144.6010 C   0  0  1  0  0  3  0  0  0  0  0  0
  189.3240  177.7320  142.3140 C   0  0  2  0  0  3  0  0  0  0  0  0
  189.4870  178.0280  143.8000 C   0  0  2  0  0  3  0  0  0  0  0  0
  188.4930  175.6620  141.3310 C   0  0  0  0  0  1  0  0  0  0  0  0
  188.1300  176.9150  141.9760 N   0  0  0  0  0  0  0  0  0  0  0  0
  187.1020  177.5830  141.1830 C   0  0  0  0  0  2  0  0  0  0  0  0
  185.3750  179.5990  143.8840 C   0  0  0  0  0  0  0  0  0  0  0  0
  183.7240  178.2140  142.7780 C   0  0  0  0  0  3  0  0  0  0  0  0
  185.6940  180.5170  144.8270 F   0  0  0  0  0  0  0  0  0  0  0  0
  186.3680  179.0840  143.0450 C   0  0  0  0  0  3  0  0  0  0  0  0
  184.7170  177.7000  141.9380 C   0  0  0  0  0  3  0  0  0  0  0  0
  186.0400  178.1360  142.0700 C   0  0  0  0  0  0  0  0  0  0  0  0
  184.0530  179.1630  143.7500 C   0  0  0  0  0  3  0  0  0  0  0  0
  1 11  1  1  0  0  0
  2  1  1  6  0  0  0
  2  8  1  0  0  0  0
  3  6  1  0  0  0  0
  4  2  1  0  0  0  0
  4  3  1  0  0  0  0
  6  9  2  0  0  0  0
  6  7  1  0  0  0  0
  8  5  2  0  0  0  0
  8  9  1  0  0  0  0
 10 13  1  0  0  0  0
 10 12  1  0  0  0  0
 12 14  1  0  0  0  0
 13 11  1  0  0  0  0
 14 11  1  0  0  0  0
 14 16  1  1  0  0  0
 16 15  1  0  0  0  0
 17 18  1  6  0  0  0
 17 21  1  0  0  0  0
 17 19  1  0  0  0  0
 19  1  1  6  0  0  0
 20 23  1  1  0  0  0
 20 17  1  0  0  0  0
 20 21  1  0  0  0  0
 21 19  1  0  0  0  0
 22 23  1  0  0  0  0
 24 23  1  0  0  0  0
 24 30  1  0  0  0  0
 25 27  1  0  0  0  0
 26 31  2  0  0  0  0
 28 25  2  0  0  0  0
 29 30  2  0  0  0  0
 29 26  1  0  0  0  0
 30 28  1  0  0  0  0
 31 25  1  0  0  0  0
M  END
>  <MODEL>
1

>  <REMARK>
 VINA RESULT:      -7.7      0.000      0.000
  Name = 
  7 active torsions:
  status: ('A' for Active; 'I' for Inactive)
    1  A    between atoms: C_3  and  N_9
    2  A    between atoms: C_3  and  C_22
    3  A    between atoms: C_4  and  C_5
    4  A    between atoms: C_4  and  N_12
    5  A    between atoms: C_4  and  C_21
    6  A    between atoms: N_9  and  C_23
    7  A    between atoms: C_27  and  C_28
                            x       y       z     vdW  Elec       q    Type
                         _______ _______ _______ _____ _____    ______ ____

>  <TORSDO>
F 7

$$$$
=
 OpenBabel11052417433D

 31 35  0  0  1  0  0  0  0  0999 V2000
  190.2670  175.3970  144.3360 C   0  0  2  0  0  3  0  0  0  0  0  0
  189.1920  174.7520  143.4200 C   0  0  2  0  0  3  0  0  0  0  0  0
  188.5420  172.6330  142.2300 C   0  0  0  0  0  2  0  0  0  0  0  0
  189.5680  173.2960  143.1470 C   0  0  0  0  0  2  0  0  0  0  0  0
  188.9100  176.7450  142.0780 O   0  0  0  0  0  0  0  0  0  0  0  0
  188.3760  173.4060  140.9520 C   0  0  0  0  0  0  0  0  0  0  0  0
  188.0210  172.7320  139.7920 O   0  0  0  0  0  1  0  0  0  0  0  0
  188.8990  175.4870  142.1260 C   0  0  0  0  0  0  0  0  0  0  0  0
  188.5160  174.7330  140.9220 C   0  0  0  0  0  3  0  0  0  0  0  0
  193.2060  176.9620  144.7650 C   0  0  0  0  0  2  0  0  0  0  0  0
  191.5060  175.7920  143.6420 N   0  0  0  0  0  0  0  0  0  0  0  0
  193.7160  175.7030  144.4380 O   0  0  0  0  0  0  0  0  0  0  0  0
  191.9190  177.1300  144.0120 C   0  0  0  0  0  2  0  0  0  0  0  0
  192.6020  174.9260  144.0700 C   0  0  2  0  0  3  0  0  0  0  0  0
  192.6620  174.6260  141.6010 C   0  0  0  0  0  1  0  0  0  0  0  0
  192.9840  173.9900  142.9390 C   0  0  0  0  0  2  0  0  0  0  0  0
  190.3660  175.4770  146.8560 C   0  0  2  0  0  0  0  0  0  0  0  0
  191.1700  174.9890  147.8840 O   0  0  0  0  0  1  0  0  0  0  0  0
  190.5680  174.6250  145.6230 C   0  0  1  0  0  3  0  0  0  0  0  0
  188.9260  175.5730  147.3540 C   0  0  2  0  0  3  0  0  0  0  0  0
  189.3300  174.4060  146.4620 C   0  0  2  0  0  3  0  0  0  0  0  0
  188.5010  177.9490  147.0080 C   0  0  0  0  0  1  0  0  0  0  0  0
  188.0770  176.5940  146.6850 N   0  0  0  0  0  0  0  0  0  0  0  0
  186.6390  176.4760  146.9070 C   0  0  0  0  0  2  0  0  0  0  0  0
  185.4660  177.2900  143.3990 C   0  0  0  0  0  0  0  0  0  0  0  0
  184.2170  178.6480  144.9680 C   0  0  0  0  0  3  0  0  0  0  0  0
  185.7350  176.9150  142.1260 F   0  0  0  0  0  0  0  0  0  0  0  0
  186.1640  176.7070  144.4610 C   0  0  0  0  0  3  0  0  0  0  0  0
  184.9140  178.0650  146.0290 C   0  0  0  0  0  3  0  0  0  0  0  0
  185.8880  177.0920  145.7780 C   0  0  0  0  0  0  0  0  0  0  0  0
  184.4920  178.2610  143.6530 C   0  0  0  0  0  3  0  0  0  0  0  0
  1 11  1  6  0  0  0
  2  1  1  6  0  0  0
  3  4  1  0  0  0  0
  4  2  1  0  0  0  0
  5  8  2  0  0  0  0
  6  3  1  0  0  0  0
  7  6  1  0  0  0  0
  8  2  1  0  0  0  0
  9  6  2  0  0  0  0
  9  8  1  0  0  0  0
 11 13  1  0  0  0  0
 11 14  1  0  0  0  0
 12 10  1  0  0  0  0
 13 10  1  0  0  0  0
 14 16  1  6  0  0  0
 14 12  1  0  0  0  0
 15 16  1  0  0  0  0
 17 20  1  0  0  0  0
 17 18  1  1  0  0  0
 19  1  1  6  0  0  0
 19 21  1  0  0  0  0
 19 17  1  0  0  0  0
 20 23  1  6  0  0  0
 21 17  1  0  0  0  0
 21 20  1  0  0  0  0
 23 24  1  0  0  0  0
 23 22  1  0  0  0  0
 25 31  2  0  0  0  0
 25 28  1  0  0  0  0
 26 29  2  0  0  0  0
 27 25  1  0  0  0  0
 28 30  2  0  0  0  0
 30 29  1  0  0  0  0
 30 24  1  0  0  0  0
 31 26  1  0  0  0  0
M  END
>  <MODEL>
2

>  <REMARK>
 VINA RESULT:      -7.5      2.407      4.841
  Name = 
  7 active torsions:
  status: ('A' for Active; 'I' for Inactive)
    1  A    between atoms: C_3  and  N_9
    2  A    between atoms: C_3  and  C_22
    3  A    between atoms: C_4  and  C_5
    4  A    between atoms: C_4  and  N_12
    5  A    between atoms: C_4  and  C_21
    6  A    between atoms: N_9  and  C_23
    7  A    between atoms: C_27  and  C_28
                            x       y       z     vdW  Elec       q    Type
                         _______ _______ _______ _____ _____    ______ ____

>  <TORSDO>
F 7

$$$$
=
 OpenBabel11052417433D

 31 35  0  0  1  0  0  0  0  0999 V2000
  187.9070  176.4150  142.9450 C   0  0  2  0  0  3  0  0  0  0  0  0
  187.8800  176.4370  144.4970 C   0  0  2  0  0  3  0  0  0  0  0  0
  186.3640  176.5160  146.5030 C   0  0  0  0  0  2  0  0  0  0  0  0
  186.4300  176.4730  144.9780 C   0  0  0  0  0  2  0  0  0  0  0  0
  189.7940  177.9070  144.6680 O   0  0  0  0  0  0  0  0  0  0  0  0
  187.1520  177.6740  147.0480 C   0  0  0  0  0  0  0  0  0  0  0  0
  186.7590  178.2600  148.2440 O   0  0  0  0  0  1  0  0  0  0  0  0
  188.6960  177.5330  145.1570 C   0  0  0  0  0  0  0  0  0  0  0  0
  188.2480  178.1180  146.4300 C   0  0  0  0  0  3  0  0  0  0  0  0
  186.9740  177.6670  139.9720 C   0  0  0  0  0  2  0  0  0  0  0  0
  187.2390  177.5630  142.3040 N   0  0  0  0  0  0  0  0  0  0  0  0
  185.6980  177.5510  140.5300 O   0  0  0  0  0  0  0  0  0  0  0  0
  187.9240  177.9680  141.0940 C   0  0  0  0  0  2  0  0  0  0  0  0
  185.9020  177.1680  141.8680 C   0  0  2  0  0  3  0  0  0  0  0  0
  185.3760  179.1600  143.2620 C   0  0  0  0  0  1  0  0  0  0  0  0
  184.8610  177.8300  142.7520 C   0  0  0  0  0  2  0  0  0  0  0  0
  188.5900  174.4610  141.5030 C   0  0  2  0  0  0  0  0  0  0  0  0
  188.0340  173.6480  140.5160 O   0  0  0  0  0  1  0  0  0  0  0  0
  187.4760  175.0910  142.3090 C   0  0  1  0  0  3  0  0  0  0  0  0
  189.5980  173.6450  142.3090 C   0  0  2  0  0  3  0  0  0  0  0  0
  188.2150  173.9090  142.8930 C   0  0  2  0  0  3  0  0  0  0  0  0
  191.6470  174.9230  141.9680 C   0  0  0  0  0  1  0  0  0  0  0  0
  190.6930  174.4200  142.9470 N   0  0  0  0  0  0  0  0  0  0  0  0
  191.4190  173.7410  144.0170 C   0  0  0  0  0  2  0  0  0  0  0  0
  189.7230  174.7620  147.2470 C   0  0  0  0  0  0  0  0  0  0  0  0
  191.8310  175.9430  147.0720 C   0  0  0  0  0  3  0  0  0  0  0  0
  188.5800  174.4950  147.9220 F   0  0  0  0  0  0  0  0  0  0  0  0
  189.9750  174.1330  146.0230 C   0  0  0  0  0  3  0  0  0  0  0  0
  192.0830  175.3130  145.8500 C   0  0  0  0  0  3  0  0  0  0  0  0
  191.1560  174.4060  145.3250 C   0  0  0  0  0  0  0  0  0  0  0  0
  190.6520  175.6670  147.7710 C   0  0  0  0  0  3  0  0  0  0  0  0
  1 11  1  6  0  0  0
  2  1  1  6  0  0  0
  2  4  1  0  0  0  0
  2  8  1  0  0  0  0
  3  6  1  0  0  0  0
  4  3  1  0  0  0  0
  5  8  2  0  0  0  0
  6  7  1  0  0  0  0
  8  9  1  0  0  0  0
  9  6  2  0  0  0  0
 10 12  1  0  0  0  0
 10 13  1  0  0  0  0
 12 14  1  0  0  0  0
 13 11  1  0  0  0  0
 14 11  1  0  0  0  0
 14 16  1  1  0  0  0
 16 15  1  0  0  0  0
 17 18  1  6  0  0  0
 17 20  1  0  0  0  0
 17 19  1  0  0  0  0
 17 21  1  0  0  0  0
 19 21  1  0  0  0  0
 19  1  1  1  0  0  0
 20 21  1  0  0  0  0
 20 23  1  1  0  0  0
 22 23  1  0  0  0  0
 23 24  1  0  0  0  0
 24 30  1  0  0  0  0
 25 31  1  0  0  0  0
 25 27  1  0  0  0  0
 26 31  2  0  0  0  0
 28 25  2  0  0  0  0
 29 26  1  0  0  0  0
 30 29  2  0  0  0  0
 30 28  1  0  0  0  0
M  END
>  <MODEL>
3

>  <REMARK>
 VINA RESULT:      -7.3      2.505      5.725
  Name = 
  7 active torsions:
  status: ('A' for Active; 'I' for Inactive)
    1  A    between atoms: C_3  and  N_9
    2  A    between atoms: C_3  and  C_22
    3  A    between atoms: C_4  and  C_5
    4  A    between atoms: C_4  and  N_12
    5  A    between atoms: C_4  and  C_21
    6  A    between atoms: N_9  and  C_23
    7  A    between atoms: C_27  and  C_28
                            x       y       z     vdW  Elec       q    Type
                         _______ _______ _______ _____ _____    ______ ____

>  <TORSDO>
F 7

$$$$
=
 OpenBabel11052417433D

 31 35  0  0  1  0  0  0  0  0999 V2000
  189.9700  175.8250  143.4240 C   0  0  2  0  0  3  0  0  0  0  0  0
  191.2250  175.6120  144.3110 C   0  0  2  0  0  3  0  0  0  0  0  0
  192.1350  175.8710  146.6420 C   0  0  0  0  0  2  0  0  0  0  0  0
  190.9140  176.0480  145.7430 C   0  0  0  0  0  2  0  0  0  0  0  0
  192.7620  176.3240  142.5840 O   0  0  0  0  0  0  0  0  0  0  0  0
  193.3260  176.6060  146.0920 C   0  0  0  0  0  0  0  0  0  0  0  0
  194.2870  177.0940  146.9670 O   0  0  0  0  0  1  0  0  0  0  0  0
  192.5040  176.2610  143.8140 C   0  0  0  0  0  0  0  0  0  0  0  0
  193.5000  176.7540  144.7770 C   0  0  0  0  0  3  0  0  0  0  0  0
  187.9730  178.0530  141.9000 C   0  0  0  0  0  2  0  0  0  0  0  0
  189.3110  177.1330  143.5970 N   0  0  0  0  0  0  0  0  0  0  0  0
  187.1340  177.7640  142.9790 O   0  0  0  0  0  0  0  0  0  0  0  0
  189.3870  177.9290  142.3900 C   0  0  0  0  0  2  0  0  0  0  0  0
  187.8830  176.9330  143.8310 C   0  0  2  0  0  3  0  0  0  0  0  0
  186.1220  176.8630  145.5870 C   0  0  0  0  0  1  0  0  0  0  0  0
  187.5530  177.2550  145.2770 C   0  0  0  0  0  2  0  0  0  0  0  0
  189.0390  173.8140  142.2170 C   0  0  2  0  0  0  0  0  0  0  0  0
  187.8030  173.2080  142.0000 O   0  0  0  0  0  1  0  0  0  0  0  0
  188.9540  174.6790  143.4550 C   0  0  1  0  0  3  0  0  0  0  0  0
  190.1220  172.7380  142.2460 C   0  0  2  0  0  3  0  0  0  0  0  0
  189.6200  173.3270  143.5590 C   0  0  2  0  0  3  0  0  0  0  0  0
  191.5290  173.6470  140.4740 C   0  0  0  0  0  1  0  0  0  0  0  0
  191.4850  173.1820  141.8530 N   0  0  0  0  0  0  0  0  0  0  0  0
  192.5590  172.2180  142.0690 C   0  0  0  0  0  2  0  0  0  0  0  0
  195.4600  173.7450  143.9650 C   0  0  0  0  0  0  0  0  0  0  0  0
  193.9040  172.7990  145.5620 C   0  0  0  0  0  3  0  0  0  0  0  0
  196.6150  174.4000  143.6990 F   0  0  0  0  0  0  0  0  0  0  0  0
  194.6310  173.3350  142.9160 C   0  0  0  0  0  3  0  0  0  0  0  0
  193.0750  172.3900  144.5130 C   0  0  0  0  0  3  0  0  0  0  0  0
  193.4370  172.6600  143.1890 C   0  0  0  0  0  0  0  0  0  0  0  0
  195.0960  173.4760  145.2890 C   0  0  0  0  0  3  0  0  0  0  0  0
  1 11  1  1  0  0  0
  2  1  1  6  0  0  0
  2  4  1  0  0  0  0
  4  3  1  0  0  0  0
  5  8  2  0  0  0  0
  6  3  1  0  0  0  0
  6  7  1  0  0  0  0
  8  2  1  0  0  0  0
  8  9  1  0  0  0  0
  9  6  2  0  0  0  0
 10 13  1  0  0  0  0
 10 12  1  0  0  0  0
 11 14  1  0  0  0  0
 12 14  1  0  0  0  0
 13 11  1  0  0  0  0
 14 16  1  1  0  0  0
 16 15  1  0  0  0  0
 17 18  1  6  0  0  0
 17 20  1  0  0  0  0
 17 19  1  0  0  0  0
 17 21  1  0  0  0  0
 19  1  1  6  0  0  0
 19 21  1  0  0  0  0
 20 23  1  6  0  0  0
 20 21  1  0  0  0  0
 22 23  1  0  0  0  0
 23 24  1  0  0  0  0
 24 30  1  0  0  0  0
 25 31  1  0  0  0  0
 27 25  1  0  0  0  0
 28 30  1  0  0  0  0
 28 25  2  0  0  0  0
 29 26  1  0  0  0  0
 30 29  2  0  0  0  0
 31 26  2  0  0  0  0
M  END
>  <MODEL>
4

>  <REMARK>
 VINA RESULT:      -7.2      3.435      7.215
  Name = 
  7 active torsions:
  status: ('A' for Active; 'I' for Inactive)
    1  A    between atoms: C_3  and  N_9
    2  A    between atoms: C_3  and  C_22
    3  A    between atoms: C_4  and  C_5
    4  A    between atoms: C_4  and  N_12
    5  A    between atoms: C_4  and  C_21
    6  A    between atoms: N_9  and  C_23
    7  A    between atoms: C_27  and  C_28
                            x       y       z     vdW  Elec       q    Type
                         _______ _______ _______ _____ _____    ______ ____

>  <TORSDO>
F 7

$$$$
=
 OpenBabel11052417433D

 31 35  0  0  1  0  0  0  0  0999 V2000
  189.3860  174.9410  142.7010 C   0  0  2  0  0  3  0  0  0  0  0  0
  190.5000  175.1900  143.7520 C   0  0  2  0  0  3  0  0  0  0  0  0
  192.8120  176.1270  144.0800 C   0  0  0  0  0  2  0  0  0  0  0  0
  191.6840  175.8840  143.0790 C   0  0  0  0  0  2  0  0  0  0  0  0
  190.1430  173.0730  144.8670 O   0  0  0  0  0  0  0  0  0  0  0  0
  193.2320  174.8470  144.7470 C   0  0  0  0  0  0  0  0  0  0  0  0
  194.5450  174.7040  145.1770 O   0  0  0  0  0  1  0  0  0  0  0  0
  190.9590  173.9720  144.5320 C   0  0  0  0  0  0  0  0  0  0  0  0
  192.3570  173.8670  144.9770 C   0  0  0  0  0  3  0  0  0  0  0  0
  187.8250  172.9680  140.4770 C   0  0  0  0  0  2  0  0  0  0  0  0
  189.4690  173.6380  142.0160 N   0  0  0  0  0  0  0  0  0  0  0  0
  189.0150  173.1420  139.7640 O   0  0  0  0  0  0  0  0  0  0  0  0
  188.1730  172.9960  141.9370 C   0  0  0  0  0  2  0  0  0  0  0  0
  189.8760  173.8420  140.6280 C   0  0  2  0  0  3  0  0  0  0  0  0
  191.5790  172.1820  141.3590 C   0  0  0  0  0  1  0  0  0  0  0  0
  191.3000  173.3520  140.4370 C   0  0  0  0  0  2  0  0  0  0  0  0
  187.7490  176.6050  141.7420 C   0  0  2  0  0  0  0  0  0  0  0  0
  187.4390  177.1690  140.5060 O   0  0  0  0  0  1  0  0  0  0  0  0
  189.1680  176.0840  141.7050 C   0  0  1  0  0  3  0  0  0  0  0  0
  187.4550  177.6230  142.8400 C   0  0  2  0  0  3  0  0  0  0  0  0
  188.8950  177.4010  142.3960 C   0  0  2  0  0  3  0  0  0  0  0  0
  185.7050  176.7830  144.3170 C   0  0  0  0  0  1  0  0  0  0  0  0
  187.1280  177.0570  144.1750 N   0  0  0  0  0  0  0  0  0  0  0  0
  187.5840  177.8300  145.3270 C   0  0  0  0  0  2  0  0  0  0  0  0
  189.1120  175.0820  147.4380 C   0  0  0  0  0  0  0  0  0  0  0  0
  190.7810  176.8010  147.0790 C   0  0  0  0  0  3  0  0  0  0  0  0
  188.7480  173.8950  147.9780 F   0  0  0  0  0  0  0  0  0  0  0  0
  188.1940  175.8180  146.6830 C   0  0  0  0  0  3  0  0  0  0  0  0
  189.8620  177.5360  146.3240 C   0  0  0  0  0  3  0  0  0  0  0  0
  188.5680  177.0440  146.1240 C   0  0  0  0  0  0  0  0  0  0  0  0
  190.4060  175.5740  147.6350 C   0  0  0  0  0  3  0  0  0  0  0  0
  1 11  1  6  0  0  0
  2  1  1  6  0  0  0
  2  8  1  0  0  0  0
  3  6  1  0  0  0  0
  4  2  1  0  0  0  0
  4  3  1  0  0  0  0
  6  9  2  0  0  0  0
  6  7  1  0  0  0  0
  8  5  2  0  0  0  0
  8  9  1  0  0  0  0
 10 13  1  0  0  0  0
 12 10  1  0  0  0  0
 12 14  1  0  0  0  0
 13 11  1  0  0  0  0
 14 16  1  1  0  0  0
 14 11  1  0  0  0  0
 16 15  1  0  0  0  0
 17 18  1  6  0  0  0
 17 21  1  0  0  0  0
 17 20  1  0  0  0  0
 19 17  1  0  0  0  0
 19 21  1  0  0  0  0
 19  1  1  1  0  0  0
 20 23  1  1  0  0  0
 21 20  1  0  0  0  0
 23 22  1  0  0  0  0
 23 24  1  0  0  0  0
 24 30  1  0  0  0  0
 25 31  1  0  0  0  0
 25 27  1  0  0  0  0
 26 31  2  0  0  0  0
 28 25  2  0  0  0  0
 29 26  1  0  0  0  0
 30 29  2  0  0  0  0
 30 28  1  0  0  0  0
M  END
>  <MODEL>
5

>  <REMARK>
 VINA RESULT:      -7.1      2.991      5.699
  Name = 
  7 active torsions:
  status: ('A' for Active; 'I' for Inactive)
    1  A    between atoms: C_3  and  N_9
    2  A    between atoms: C_3  and  C_22
    3  A    between atoms: C_4  and  C_5
    4  A    between atoms: C_4  and  N_12
    5  A    between atoms: C_4  and  C_21
    6  A    between atoms: N_9  and  C_23
    7  A    between atoms: C_27  and  C_28
                            x       y       z     vdW  Elec       q    Type
                         _______ _______ _______ _____ _____    ______ ____

>  <TORSDO>
F 7

$$$$
=
 OpenBabel11052417433D

 31 35  0  0  1  0  0  0  0  0999 V2000
  194.0540  174.7020  144.0950 C   0  0  2  0  0  3  0  0  0  0  0  0
  193.1640  173.4410  143.9280 C   0  0  2  0  0  3  0  0  0  0  0  0
  193.0610  170.9600  144.3250 C   0  0  0  0  0  2  0  0  0  0  0  0
  193.8990  172.2250  144.4900 C   0  0  0  0  0  2  0  0  0  0  0  0
  192.3450  174.1120  141.7530 O   0  0  0  0  0  0  0  0  0  0  0  0
  192.6720  170.7500  142.8880 C   0  0  0  0  0  0  0  0  0  0  0  0
  192.4790  169.4570  142.4190 O   0  0  0  0  0  1  0  0  0  0  0  0
  192.6620  173.1680  142.5230 C   0  0  0  0  0  0  0  0  0  0  0  0
  192.4620  171.7820  142.0700 C   0  0  0  0  0  3  0  0  0  0  0  0
  196.5380  176.5830  142.8420 C   0  0  0  0  0  2  0  0  0  0  0  0
  195.3530  174.6320  143.4000 N   0  0  0  0  0  0  0  0  0  0  0  0
  197.2920  175.8990  143.7990 O   0  0  0  0  0  0  0  0  0  0  0  0
  195.4610  175.6480  142.3730 C   0  0  0  0  0  2  0  0  0  0  0  0
  196.4270  174.9320  144.3430 C   0  0  2  0  0  3  0  0  0  0  0  0
  197.1370  173.3510  146.1290 C   0  0  0  0  0  1  0  0  0  0  0  0
  197.2060  173.6650  144.6480 C   0  0  0  0  0  2  0  0  0  0  0  0
  193.5530  176.5350  145.7550 C   0  0  2  0  0  0  0  0  0  0  0  0
  194.1890  177.1900  146.8080 O   0  0  0  0  0  1  0  0  0  0  0  0
  194.2170  175.1930  145.5360 C   0  0  1  0  0  3  0  0  0  0  0  0
  192.0540  176.4840  146.0340 C   0  0  2  0  0  3  0  0  0  0  0  0
  192.9000  175.2400  146.2760 C   0  0  2  0  0  3  0  0  0  0  0  0
  191.1480  177.6640  144.1020 C   0  0  0  0  0  1  0  0  0  0  0  0
  191.1760  176.4070  144.8370 N   0  0  0  0  0  0  0  0  0  0  0  0
  189.8060  175.9610  145.0750 C   0  0  0  0  0  2  0  0  0  0  0  0
  188.9660  173.1570  142.6730 C   0  0  0  0  0  0  0  0  0  0  0  0
  189.6280  172.1880  144.7920 C   0  0  0  0  0  3  0  0  0  0  0  0
  188.5470  173.0070  141.3940 F   0  0  0  0  0  0  0  0  0  0  0  0
  189.1670  174.4370  143.1960 C   0  0  0  0  0  3  0  0  0  0  0  0
  189.8290  173.4690  145.3150 C   0  0  0  0  0  3  0  0  0  0  0  0
  189.6010  174.5950  144.5170 C   0  0  0  0  0  0  0  0  0  0  0  0
  189.1970  172.0320  143.4710 C   0  0  0  0  0  3  0  0  0  0  0  0
  1 11  1  1  0  0  0
  2  1  1  6  0  0  0
  2  4  1  0  0  0  0
  3  4  1  0  0  0  0
  5  8  2  0  0  0  0
  6  3  1  0  0  0  0
  7  6  1  0  0  0  0
  8  2  1  0  0  0  0
  9  8  1  0  0  0  0
  9  6  2  0  0  0  0
 10 12  1  0  0  0  0
 11 14  1  0  0  0  0
 12 14  1  0  0  0  0
 13 10  1  0  0  0  0
 13 11  1  0  0  0  0
 14 16  1  6  0  0  0
 16 15  1  0  0  0  0
 17 20  1  0  0  0  0
 17 21  1  0  0  0  0
 17 18  1  1  0  0  0
 19  1  1  6  0  0  0
 19 17  1  0  0  0  0
 19 21  1  0  0  0  0
 20 23  1  6  0  0  0
 20 21  1  0  0  0  0
 22 23  1  0  0  0  0
 23 24  1  0  0  0  0
 25 28  2  0  0  0  0
 25 31  1  0  0  0  0
 26 29  1  0  0  0  0
 27 25  1  0  0  0  0
 28 30  1  0  0  0  0
 30 24  1  0  0  0  0
 30 29  2  0  0  0  0
 31 26  2  0  0  0  0
M  END
>  <MODEL>
6

>  <REMARK>
 VINA RESULT:      -7.0      4.233      6.964
  Name = 
  7 active torsions:
  status: ('A' for Active; 'I' for Inactive)
    1  A    between atoms: C_3  and  N_9
    2  A    between atoms: C_3  and  C_22
    3  A    between atoms: C_4  and  C_5
    4  A    between atoms: C_4  and  N_12
    5  A    between atoms: C_4  and  C_21
    6  A    between atoms: N_9  and  C_23
    7  A    between atoms: C_27  and  C_28
                            x       y       z     vdW  Elec       q    Type
                         _______ _______ _______ _____ _____    ______ ____

>  <TORSDO>
F 7

$$$$
=
 OpenBabel11052417433D

 31 35  0  0  1  0  0  0  0  0999 V2000
  191.8870  174.5830  144.2190 C   0  0  2  0  0  3  0  0  0  0  0  0
  190.5690  175.3270  144.5590 C   0  0  2  0  0  3  0  0  0  0  0  0
  189.6100  177.5400  145.2730 C   0  0  0  0  0  2  0  0  0  0  0  0
  190.8840  176.7800  144.9120 C   0  0  0  0  0  2  0  0  0  0  0  0
  189.6130  173.4340  145.7230 O   0  0  0  0  0  0  0  0  0  0  0  0
  188.8650  176.8550  146.3840 C   0  0  0  0  0  0  0  0  0  0  0  0
  188.0930  177.6140  147.2530 O   0  0  0  0  0  1  0  0  0  0  0  0
  189.7040  174.6860  145.6280 C   0  0  0  0  0  0  0  0  0  0  0  0
  188.8930  175.5290  146.5210 C   0  0  0  0  0  3  0  0  0  0  0  0
  194.7820  173.2640  145.2950 C   0  0  0  0  0  2  0  0  0  0  0  0
  192.9570  174.7420  145.2200 N   0  0  0  0  0  0  0  0  0  0  0  0
  195.2780  174.5160  144.9260 O   0  0  0  0  0  0  0  0  0  0  0  0
  193.3700  173.4650  145.7650 C   0  0  0  0  0  2  0  0  0  0  0  0
  194.1520  175.2830  144.5760 C   0  0  2  0  0  3  0  0  0  0  0  0
  194.2110  176.8400  146.5160 C   0  0  0  0  0  1  0  0  0  0  0  0
  194.3590  176.7220  145.0120 C   0  0  0  0  0  2  0  0  0  0  0  0
  191.9790  173.7140  141.8510 C   0  0  2  0  0  0  0  0  0  0  0  0
  192.8990  173.6240  140.8090 O   0  0  0  0  0  1  0  0  0  0  0  0
  192.4120  174.8110  142.7990 C   0  0  1  0  0  3  0  0  0  0  0  0
  190.5780  173.8730  141.2660 C   0  0  2  0  0  3  0  0  0  0  0  0
  191.2990  175.0970  141.8170 C   0  0  2  0  0  3  0  0  0  0  0  0
  189.6140  171.9720  142.4490 C   0  0  0  0  0  1  0  0  0  0  0  0
  189.4630  173.3810  142.1150 N   0  0  0  0  0  0  0  0  0  0  0  0
  188.1160  173.6100  141.6000 C   0  0  0  0  0  2  0  0  0  0  0  0
  186.6370  176.5740  143.4350 C   0  0  0  0  0  0  0  0  0  0  0  0
  187.4130  177.3170  141.2640 C   0  0  0  0  0  3  0  0  0  0  0  0
  186.0530  176.8420  144.6270 F   0  0  0  0  0  0  0  0  0  0  0  0
  187.0640  175.2750  143.1420 C   0  0  0  0  0  3  0  0  0  0  0  0
  187.8410  176.0180  140.9720 C   0  0  0  0  0  3  0  0  0  0  0  0
  187.6690  174.9960  141.9120 C   0  0  0  0  0  0  0  0  0  0  0  0
  186.8120  177.5950  142.4950 C   0  0  0  0  0  3  0  0  0  0  0  0
  1 11  1  1  0  0  0
  2  1  1  1  0  0  0
  2  4  1  0  0  0  0
  2  8  1  0  0  0  0
  3  6  1  0  0  0  0
  4  3  1  0  0  0  0
  6  9  2  0  0  0  0
  6  7  1  0  0  0  0
  8  5  2  0  0  0  0
  8  9  1  0  0  0  0
 10 13  1  0  0  0  0
 11 13  1  0  0  0  0
 12 10  1  0  0  0  0
 14 12  1  0  0  0  0
 14 16  1  1  0  0  0
 14 11  1  0  0  0  0
 16 15  1  0  0  0  0
 17 18  1  6  0  0  0
 17 19  1  0  0  0  0
 19  1  1  1  0  0  0
 20 21  1  0  0  0  0
 20 17  1  0  0  0  0
 20 23  1  1  0  0  0
 21 17  1  0  0  0  0
 21 19  1  0  0  0  0
 23 22  1  0  0  0  0
 24 30  1  0  0  0  0
 24 23  1  0  0  0  0
 25 27  1  0  0  0  0
 26 31  1  0  0  0  0
 28 25  1  0  0  0  0
 29 26  2  0  0  0  0
 29 30  1  0  0  0  0
 30 28  2  0  0  0  0
 31 25  2  0  0  0  0
M  END
>  <MODEL>
7

>  <REMARK>
 VINA RESULT:      -6.7      2.366      3.616
  Name = 
  7 active torsions:
  status: ('A' for Active; 'I' for Inactive)
    1  A    between atoms: C_3  and  N_9
    2  A    between atoms: C_3  and  C_22
    3  A    between atoms: C_4  and  C_5
    4  A    between atoms: C_4  and  N_12
    5  A    between atoms: C_4  and  C_21
    6  A    between atoms: N_9  and  C_23
    7  A    between atoms: C_27  and  C_28
                            x       y       z     vdW  Elec       q    Type
                         _______ _______ _______ _____ _____    ______ ____

>  <TORSDO>
F 7

$$$$
=
 OpenBabel11052417433D

 31 35  0  0  1  0  0  0  0  0999 V2000
  194.0060  174.8750  142.9300 C   0  0  2  0  0  3  0  0  0  0  0  0
  192.5000  174.6160  143.1980 C   0  0  2  0  0  3  0  0  0  0  0  0
  190.6110  173.0050  142.7960 C   0  0  0  0  0  2  0  0  0  0  0  0
  192.0950  173.2840  142.5700 C   0  0  0  0  0  2  0  0  0  0  0  0
  191.8820  176.9340  142.8830 O   0  0  0  0  0  0  0  0  0  0  0  0
  189.7610  174.1330  142.2830 C   0  0  0  0  0  0  0  0  0  0  0  0
  188.4790  173.8640  141.8250 O   0  0  0  0  0  1  0  0  0  0  0  0
  191.5530  175.7240  142.7750 C   0  0  0  0  0  0  0  0  0  0  0  0
  190.1980  175.3940  142.3060 C   0  0  0  0  0  3  0  0  0  0  0  0
  196.3050  175.9100  140.7110 C   0  0  0  0  0  2  0  0  0  0  0  0
  194.3990  174.7920  141.5110 N   0  0  0  0  0  0  0  0  0  0  0  0
  196.5530  174.5390  140.6050 O   0  0  0  0  0  0  0  0  0  0  0  0
  194.8430  176.0760  141.0070 C   0  0  0  0  0  2  0  0  0  0  0  0
  195.5570  173.9120  141.3760 C   0  0  2  0  0  3  0  0  0  0  0  0
  194.3200  172.9060  139.4660 C   0  0  0  0  0  1  0  0  0  0  0  0
  195.1370  172.6150  140.7090 C   0  0  0  0  0  2  0  0  0  0  0  0
  195.6620  174.9740  144.8310 C   0  0  2  0  0  0  0  0  0  0  0  0
  196.8800  174.3950  145.1850 O   0  0  0  0  0  1  0  0  0  0  0  0
  194.9670  174.0860  143.8230 C   0  0  1  0  0  3  0  0  0  0  0  0
  194.8650  175.2700  146.0990 C   0  0  2  0  0  3  0  0  0  0  0  0
  194.5090  174.0470  145.2630 C   0  0  2  0  0  3  0  0  0  0  0  0
  194.5500  177.6740  145.8360 C   0  0  0  0  0  1  0  0  0  0  0  0
  193.8900  176.3870  146.0030 N   0  0  0  0  0  0  0  0  0  0  0  0
  192.9190  176.4840  147.0890 C   0  0  0  0  0  2  0  0  0  0  0  0
  189.8440  174.5350  146.0440 C   0  0  0  0  0  0  0  0  0  0  0  0
  189.4150  176.8950  145.7100 C   0  0  0  0  0  3  0  0  0  0  0  0
  189.4340  173.2460  145.9750 F   0  0  0  0  0  0  0  0  0  0  0  0
  191.1250  174.8360  146.5180 C   0  0  0  0  0  3  0  0  0  0  0  0
  190.6950  177.1950  146.1850 C   0  0  0  0  0  3  0  0  0  0  0  0
  191.5510  176.1660  146.5920 C   0  0  0  0  0  0  0  0  0  0  0  0
  188.9890  175.5650  145.6400 C   0  0  0  0  0  3  0  0  0  0  0  0
  1 11  1  6  0  0  0
  2  1  1  6  0  0  0
  4  3  1  0  0  0  0
  4  2  1  0  0  0  0
  6  9  2  0  0  0  0
  6  3  1  0  0  0  0
  7  6  1  0  0  0  0
  8  5  2  0  0  0  0
  8  2  1  0  0  0  0
  9  8  1  0  0  0  0
 10 13  1  0  0  0  0
 12 10  1  0  0  0  0
 12 14  1  0  0  0  0
 13 11  1  0  0  0  0
 14 16  1  6  0  0  0
 14 11  1  0  0  0  0
 15 16  1  0  0  0  0
 17 18  1  1  0  0  0
 17 21  1  0  0  0  0
 17 20  1  0  0  0  0
 19  1  1  6  0  0  0
 19 17  1  0  0  0  0
 19 21  1  0  0  0  0
 20 23  1  6  0  0  0
 21 20  1  0  0  0  0
 22 23  1  0  0  0  0
 23 24  1  0  0  0  0
 25 28  1  0  0  0  0
 26 29  2  0  0  0  0
 27 25  1  0  0  0  0
 28 30  2  0  0  0  0
 29 30  1  0  0  0  0
 30 24  1  0  0  0  0
 31 26  1  0  0  0  0
 31 25  2  0  0  0  0
M  END
>  <MODEL>
8

>  <REMARK>
 VINA RESULT:      -6.6      4.073      6.776
  Name = 
  7 active torsions:
  status: ('A' for Active; 'I' for Inactive)
    1  A    between atoms: C_3  and  N_9
    2  A    between atoms: C_3  and  C_22
    3  A    between atoms: C_4  and  C_5
    4  A    between atoms: C_4  and  N_12
    5  A    between atoms: C_4  and  C_21
    6  A    between atoms: N_9  and  C_23
    7  A    between atoms: C_27  and  C_28
                            x       y       z     vdW  Elec       q    Type
                         _______ _______ _______ _____ _____    ______ ____

>  <TORSDO>
F 7

$$$$
=
 OpenBabel11052417433D

 31 35  0  0  1  0  0  0  0  0999 V2000
  187.5260  177.1380  145.0290 C   0  0  2  0  0  3  0  0  0  0  0  0
  187.7370  176.9530  143.5030 C   0  0  2  0  0  3  0  0  0  0  0  0
  188.2680  178.1630  141.3620 C   0  0  0  0  0  2  0  0  0  0  0  0
  188.0740  178.3030  142.8710 C   0  0  0  0  0  2  0  0  0  0  0  0
  185.9410  175.3450  143.2890 O   0  0  0  0  0  0  0  0  0  0  0  0
  187.0630  177.5400  140.7150 C   0  0  0  0  0  0  0  0  0  0  0  0
  186.7530  177.8670  139.4020 O   0  0  0  0  0  1  0  0  0  0  0  0
  186.6030  176.2750  142.7560 C   0  0  0  0  0  0  0  0  0  0  0  0
  186.3160  176.6440  141.3610 C   0  0  0  0  0  3  0  0  0  0  0  0
  185.6270  178.0170  147.6550 C   0  0  0  0  0  2  0  0  0  0  0  0
  186.1730  177.5820  145.4120 N   0  0  0  0  0  0  0  0  0  0  0  0
  185.5650  179.2330  146.9700 O   0  0  0  0  0  0  0  0  0  0  0  0
  185.7240  176.9300  146.6250 C   0  0  0  0  0  2  0  0  0  0  0  0
  186.2010  179.0070  145.7360 C   0  0  2  0  0  3  0  0  0  0  0  0
  184.3660  178.9660  144.0550 C   0  0  0  0  0  1  0  0  0  0  0  0
  185.4920  179.7900  144.6460 C   0  0  0  0  0  2  0  0  0  0  0  0
  189.4090  177.1270  146.7090 C   0  0  2  0  0  0  0  0  0  0  0  0
  189.9250  177.9570  147.7020 O   0  0  0  0  0  1  0  0  0  0  0  0
  188.6060  177.9620  145.7360 C   0  0  1  0  0  3  0  0  0  0  0  0
  190.5500  176.3230  146.0910 C   0  0  2  0  0  3  0  0  0  0  0  0
  190.0010  177.5320  145.3440 C   0  0  2  0  0  3  0  0  0  0  0  0
  189.6890  174.0810  146.5130 C   0  0  0  0  0  1  0  0  0  0  0  0
  190.1720  175.0120  145.5020 N   0  0  0  0  0  0  0  0  0  0  0  0
  191.1950  174.3540  144.6940 C   0  0  0  0  0  2  0  0  0  0  0  0
  189.3920  173.9310  141.3900 C   0  0  0  0  0  0  0  0  0  0  0  0
  190.0060  171.7410  142.2230 C   0  0  0  0  0  3  0  0  0  0  0  0
  188.8100  174.7060  140.4450 F   0  0  0  0  0  0  0  0  0  0  0  0
  189.9770  174.5220  142.5150 C   0  0  0  0  0  3  0  0  0  0  0  0
  190.5920  172.3320  143.3460 C   0  0  0  0  0  3  0  0  0  0  0  0
  190.5800  173.7230  143.4930 C   0  0  0  0  0  0  0  0  0  0  0  0
  189.4070  172.5400  141.2450 C   0  0  0  0  0  3  0  0  0  0  0  0
  1 11  1  6  0  0  0
  2  1  1  1  0  0  0
  3  4  1  0  0  0  0
  4  2  1  0  0  0  0
  6  9  2  0  0  0  0
  6  3  1  0  0  0  0
  7  6  1  0  0  0  0
  8  5  2  0  0  0  0
  8  2  1  0  0  0  0
  9  8  1  0  0  0  0
 11 14  1  0  0  0  0
 11 13  1  0  0  0  0
 12 10  1  0  0  0  0
 13 10  1  0  0  0  0
 14 16  1  6  0  0  0
 14 12  1  0  0  0  0
 15 16  1  0  0  0  0
 17 18  1  1  0  0  0
 19  1  1  6  0  0  0
 19 17  1  0  0  0  0
 20 23  1  6  0  0  0
 20 17  1  0  0  0  0
 21 19  1  0  0  0  0
 21 20  1  0  0  0  0
 21 17  1  0  0  0  0
 23 22  1  0  0  0  0
 24 23  1  0  0  0  0
 25 28  1  0  0  0  0
 26 29  2  0  0  0  0
 27 25  1  0  0  0  0
 28 30  2  0  0  0  0
 29 30  1  0  0  0  0
 30 24  1  0  0  0  0
 31 25  2  0  0  0  0
 31 26  1  0  0  0  0
M  END
>  <MODEL>
9

>  <REMARK>
 VINA RESULT:      -6.5      2.569      6.344
  Name = 
  7 active torsions:
  status: ('A' for Active; 'I' for Inactive)
    1  A    between atoms: C_3  and  N_9
    2  A    between atoms: C_3  and  C_22
    3  A    between atoms: C_4  and  C_5
    4  A    between atoms: C_4  and  N_12
    5  A    between atoms: C_4  and  C_21
    6  A    between atoms: N_9  and  C_23
    7  A    between atoms: C_27  and  C_28
                            x       y       z     vdW  Elec       q    Type
                         _______ _______ _______ _____ _____    ______ ____

>  <TORSDO>
F 7

$$$$
