=
 OpenBabel11052417053D

 30 35  0  0  1  0  0  0  0  0999 V2000
  188.0890  177.0810  143.7990 C   0  0  1  0  0  3  0  0  0  0  0  0
  186.3410  178.5660  144.8390 C   0  0  0  0  0  0  0  0  0  0  0  0
  189.1720  176.0620  147.5160 O   0  0  0  0  0  0  0  0  0  0  0  0
  189.5020  176.6190  144.2080 C   0  0  1  0  0  3  0  0  0  0  0  0
  187.3620  176.0170  142.9560 C   0  0  0  0  0  2  0  0  0  0  0  0
  190.0110  174.1380  141.2690 C   0  0  0  0  0  2  0  0  0  0  0  0
  192.8150  176.5030  143.3490 C   0  0  0  0  0  2  0  0  0  0  0  0
  189.5200  174.9260  142.4410 C   0  0  2  0  0  3  0  0  0  0  0  0
  187.8540  174.7200  140.8720 O   0  0  0  0  0  0  0  0  0  0  0  0
  191.6210  175.4970  145.3390 C   0  0  1  0  0  3  0  0  0  0  0  0
  190.4050  176.6840  147.2610 C   0  0  0  0  0  0  0  0  0  0  0  0
  188.3180  175.6260  141.8500 C   0  0  1  0  0  3  0  0  0  0  0  0
  190.3990  175.9800  143.1240 C   0  0  2  0  0  3  0  0  0  0  0  0
  185.5480  178.9270  145.8800 N   0  0  0  0  0  0  0  0  0  0  0  0
  192.9580  175.1820  146.0200 C   0  0  0  0  0  2  0  0  0  0  0  0
  194.0650  176.4800  144.1940 C   0  0  0  0  0  3  0  0  0  0  0  0
  188.9840  173.2020  139.2840 N   0  0  0  0  0  1  0  0  0  0  0  0
  186.2290  179.3230  143.5580 C   0  0  0  0  0  1  0  0  0  0  0  0
  188.2180  175.6880  146.5260 C   0  0  0  0  0  2  0  0  0  0  0  0
  185.5940  178.2940  147.0510 N   0  0  0  0  0  0  0  0  0  0  0  0
  188.9630  173.9890  140.4680 C   0  0  1  0  0  3  0  0  0  0  0  0
  187.2440  177.4960  144.9870 C   0  0  0  0  0  0  0  0  0  0  0  0
  190.2000  177.5490  144.9890 O   0  0  0  0  0  0  0  0  0  0  0  0
  191.0660  177.1180  148.2390 O   0  0  0  0  0  0  0  0  0  0  0  0
  191.0140  176.8190  145.8890 C   0  0  2  0  0  3  0  0  0  0  0  0
  194.1150  175.9290  145.4130 C   0  0  0  0  0  3  0  0  0  0  0  0
  192.1610  174.1100  143.3170 C   0  0  0  0  0  1  0  0  0  0  0  0
  186.4400  177.2550  147.2590 C   0  0  0  0  0  3  0  0  0  0  0  0
  187.2880  176.8300  146.2360 C   0  0  0  0  0  0  0  0  0  0  0  0
  191.7350  175.5010  143.7840 C   0  0  1  0  0  0  0  0  0  0  0  0
  1  5  1  1  0  0  0
  1  4  1  0  0  0  0
  1 22  1  0  0  0  0
  2 22  2  0  0  0  0
  2 14  1  0  0  0  0
  4 23  1  6  0  0  0
  7 30  1  0  0  0  0
  7 16  1  0  0  0  0
  8  6  1  6  0  0  0
  8 13  1  0  0  0  0
  9 12  1  0  0  0  0
 10 25  1  0  0  0  0
 10 15  1  1  0  0  0
 11  3  1  0  0  0  0
 11 24  2  0  0  0  0
 12  8  1  0  0  0  0
 12  5  1  1  0  0  0
 13 30  1  0  0  0  0
 13  4  1  0  0  0  0
 14 20  2  0  0  0  0
 16 26  2  0  0  0  0
 17 21  1  0  0  0  0
 18  2  1  0  0  0  0
 19  3  1  0  0  0  0
 20 28  1  0  0  0  0
 21  9  1  0  0  0  0
 21  6  1  0  0  0  0
 22 29  1  0  0  0  0
 23 25  1  0  0  0  0
 25 11  1  0  0  0  0
 26 15  1  0  0  0  0
 27 30  1  0  0  0  0
 29 19  1  0  0  0  0
 29 28  2  0  0  0  0
 30 10  1  0  0  0  0
M  END
>  <MODEL>
1

>  <REMARK>
 VINA RESULT:      -9.2      0.000      0.000
  Name = 
  0 active torsions:
  status: ('A' for Active; 'I' for Inactive)
                            x       y       z     vdW  Elec       q    Type
                         _______ _______ _______ _____ _____    ______ ____

>  <TORSDO>
F 0

$$$$
=
 OpenBabel11052417053D

 30 35  0  0  1  0  0  0  0  0999 V2000
  188.4320  175.7440  142.5120 C   0  0  1  0  0  3  0  0  0  0  0  0
  190.4000  174.3300  141.8290 C   0  0  0  0  0  0  0  0  0  0  0  0
  190.8830  177.5850  145.0880 O   0  0  0  0  0  0  0  0  0  0  0  0
  187.9830  176.4160  143.8260 C   0  0  1  0  0  3  0  0  0  0  0  0
  187.9730  176.5410  141.2770 C   0  0  0  0  0  2  0  0  0  0  0  0
  184.9400  178.3000  142.3280 C   0  0  0  0  0  2  0  0  0  0  0  0
  185.5140  176.6870  146.1830 C   0  0  0  0  0  2  0  0  0  0  0  0
  186.2810  177.7170  142.6440 C   0  0  2  0  0  3  0  0  0  0  0  0
  185.8020  177.4400  140.4140 O   0  0  0  0  0  0  0  0  0  0  0  0
  187.6980  177.9450  145.9720 C   0  0  1  0  0  3  0  0  0  0  0  0
  190.0970  177.0490  146.1210 C   0  0  0  0  0  0  0  0  0  0  0  0
  186.4930  176.7980  141.4630 C   0  0  1  0  0  3  0  0  0  0  0  0
  186.5240  176.9130  143.9260 C   0  0  2  0  0  3  0  0  0  0  0  0
  191.7360  174.1060  141.7420 N   0  0  0  0  0  0  0  0  0  0  0  0
  187.5360  178.5210  147.3840 C   0  0  0  0  0  2  0  0  0  0  0  0
  185.5720  177.0010  147.6570 C   0  0  0  0  0  3  0  0  0  0  0  0
  183.6900  178.7160  140.2950 N   0  0  0  0  0  1  0  0  0  0  0  0
  189.4670  173.3250  141.2380 C   0  0  0  0  0  1  0  0  0  0  0  0
  190.5010  177.6580  143.7170 C   0  0  0  0  0  2  0  0  0  0  0  0
  192.6260  174.9610  142.2450 N   0  0  0  0  0  0  0  0  0  0  0  0
  184.7950  178.1820  141.0150 C   0  0  1  0  0  3  0  0  0  0  0  0
  189.9260  175.4920  142.4660 C   0  0  0  0  0  0  0  0  0  0  0  0
  188.3900  175.7340  144.9800 O   0  0  0  0  0  0  0  0  0  0  0  0
  190.6290  176.8870  147.2490 O   0  0  0  0  0  0  0  0  0  0  0  0
  188.6360  176.7060  145.9800 C   0  0  2  0  0  3  0  0  0  0  0  0
  186.5090  177.7860  148.2020 C   0  0  0  0  0  3  0  0  0  0  0  0
  185.5430  178.9490  145.1630 C   0  0  0  0  0  1  0  0  0  0  0  0
  192.2350  176.0990  142.8700 C   0  0  0  0  0  3  0  0  0  0  0  0
  190.8780  176.3940  142.9990 C   0  0  0  0  0  0  0  0  0  0  0  0
  186.3260  177.6430  145.2960 C   0  0  1  0  0  0  0  0  0  0  0  0
  1  5  1  6  0  0  0
  1  4  1  0  0  0  0
  2 22  1  0  0  0  0
  3 11  1  0  0  0  0
  4 13  1  0  0  0  0
  4 23  1  1  0  0  0
  7 16  1  0  0  0  0
  8  6  1  1  0  0  0
  8 13  1  0  0  0  0
  9 21  1  0  0  0  0
  9 12  1  0  0  0  0
 10 25  1  0  0  0  0
 10 15  1  1  0  0  0
 11 24  2  0  0  0  0
 12  5  1  6  0  0  0
 12  8  1  0  0  0  0
 13 30  1  0  0  0  0
 14  2  2  0  0  0  0
 14 20  1  0  0  0  0
 15 26  1  0  0  0  0
 16 26  2  0  0  0  0
 17 21  1  0  0  0  0
 18  2  1  0  0  0  0
 19  3  1  0  0  0  0
 20 28  2  0  0  0  0
 21  6  1  0  0  0  0
 22  1  1  0  0  0  0
 22 29  2  0  0  0  0
 23 25  1  0  0  0  0
 25 11  1  0  0  0  0
 27 30  1  0  0  0  0
 28 29  1  0  0  0  0
 29 19  1  0  0  0  0
 30 10  1  0  0  0  0
 30  7  1  0  0  0  0
M  END
>  <MODEL>
2

>  <REMARK>
 VINA RESULT:      -8.9      2.394      5.721
  Name = 
  0 active torsions:
  status: ('A' for Active; 'I' for Inactive)
                            x       y       z     vdW  Elec       q    Type
                         _______ _______ _______ _____ _____    ______ ____

>  <TORSDO>
F 0

$$$$
=
 OpenBabel11052417053D

 30 35  0  0  1  0  0  0  0  0999 V2000
  188.6840  176.1020  142.7450 C   0  0  1  0  0  3  0  0  0  0  0  0
  186.7700  177.7260  142.5430 C   0  0  0  0  0  0  0  0  0  0  0  0
  188.4430  176.5950  146.7110 O   0  0  0  0  0  0  0  0  0  0  0  0
  189.8620  175.9300  143.7260 C   0  0  1  0  0  3  0  0  0  0  0  0
  188.2190  174.7520  142.1690 C   0  0  0  0  0  2  0  0  0  0  0  0
  191.1750  172.5950  142.2410 C   0  0  0  0  0  2  0  0  0  0  0  0
  193.2640  175.7620  144.0830 C   0  0  0  0  0  2  0  0  0  0  0  0
  190.3690  173.7160  142.8160 C   0  0  2  0  0  3  0  0  0  0  0  0
  189.2980  172.8260  140.9890 O   0  0  0  0  0  0  0  0  0  0  0  0
  191.4360  175.4630  145.8060 C   0  0  1  0  0  3  0  0  0  0  0  0
  189.7220  177.1740  146.6540 C   0  0  0  0  0  0  0  0  0  0  0  0
  189.4620  174.0580  141.6560 C   0  0  1  0  0  3  0  0  0  0  0  0
  191.0290  175.0100  143.3040 C   0  0  2  0  0  3  0  0  0  0  0  0
  185.7000  178.3800  143.0620 N   0  0  0  0  0  0  0  0  0  0  0  0
  192.4610  175.5210  146.9450 C   0  0  0  0  0  2  0  0  0  0  0  0
  194.1660  176.1450  145.2290 C   0  0  0  0  0  3  0  0  0  0  0  0
  190.8050  170.9240  140.5260 N   0  0  0  0  0  1  0  0  0  0  0  0
  187.1200  177.9530  141.1100 C   0  0  0  0  0  1  0  0  0  0  0  0
  187.8460  175.8140  145.6790 C   0  0  0  0  0  2  0  0  0  0  0  0
  185.3300  178.2240  144.3330 N   0  0  0  0  0  0  0  0  0  0  0  0
  190.4390  172.0850  141.2620 C   0  0  1  0  0  3  0  0  0  0  0  0
  187.5210  176.8560  143.3570 C   0  0  0  0  0  0  0  0  0  0  0  0
  190.3120  177.1320  144.2880 O   0  0  0  0  0  0  0  0  0  0  0  0
  190.0490  177.9830  147.5590 O   0  0  0  0  0  0  0  0  0  0  0  0
  190.7520  176.8440  145.6030 C   0  0  2  0  0  3  0  0  0  0  0  0
  193.7890  176.0820  146.5120 C   0  0  0  0  0  3  0  0  0  0  0  0
  192.5350  173.4800  144.7280 C   0  0  0  0  0  1  0  0  0  0  0  0
  186.0090  177.4000  145.1700 C   0  0  0  0  0  3  0  0  0  0  0  0
  187.1200  176.6970  144.7060 C   0  0  0  0  0  0  0  0  0  0  0  0
  192.0520  174.9090  144.4850 C   0  0  1  0  0  0  0  0  0  0  0  0
  1  5  1  1  0  0  0
  1 22  1  0  0  0  0
  1  4  1  0  0  0  0
  2 14  2  0  0  0  0
  2 22  1  0  0  0  0
  4 23  1  6  0  0  0
  7 30  1  0  0  0  0
  7 16  1  0  0  0  0
  8  6  1  6  0  0  0
  8 13  1  0  0  0  0
  9 21  1  0  0  0  0
  9 12  1  0  0  0  0
 10 15  1  1  0  0  0
 11  3  1  0  0  0  0
 11 24  2  0  0  0  0
 12  5  1  1  0  0  0
 12  8  1  0  0  0  0
 13  4  1  0  0  0  0
 13 30  1  0  0  0  0
 14 20  1  0  0  0  0
 16 26  2  0  0  0  0
 17 21  1  0  0  0  0
 18  2  1  0  0  0  0
 19  3  1  0  0  0  0
 20 28  2  0  0  0  0
 21  6  1  0  0  0  0
 22 29  2  0  0  0  0
 23 25  1  0  0  0  0
 25 10  1  0  0  0  0
 25 11  1  0  0  0  0
 26 15  1  0  0  0  0
 29 28  1  0  0  0  0
 29 19  1  0  0  0  0
 30 27  1  0  0  0  0
 30 10  1  0  0  0  0
M  END
>  <MODEL>
3

>  <REMARK>
 VINA RESULT:      -8.3      1.525      1.793
  Name = 
  0 active torsions:
  status: ('A' for Active; 'I' for Inactive)
                            x       y       z     vdW  Elec       q    Type
                         _______ _______ _______ _____ _____    ______ ____

>  <TORSDO>
F 0

$$$$
=
 OpenBabel11052417053D

 30 35  0  0  1  0  0  0  0  0999 V2000
  187.4640  176.8640  145.1810 C   0  0  1  0  0  3  0  0  0  0  0  0
  185.1830  177.7330  144.5630 C   0  0  0  0  0  0  0  0  0  0  0  0
  188.3160  176.8490  141.2690 O   0  0  0  0  0  0  0  0  0  0  0  0
  188.4870  175.9270  144.5070 C   0  0  1  0  0  3  0  0  0  0  0  0
  188.1540  177.9310  146.0530 C   0  0  0  0  0  2  0  0  0  0  0  0
  191.3080  176.4160  147.1260 C   0  0  0  0  0  2  0  0  0  0  0  0
  190.3210  173.0480  144.7870 C   0  0  0  0  0  2  0  0  0  0  0  0
  190.2180  176.5690  146.1140 C   0  0  2  0  0  3  0  0  0  0  0  0
  189.8200  177.9320  147.9200 O   0  0  0  0  0  0  0  0  0  0  0  0
  190.3130  174.7940  142.9560 C   0  0  1  0  0  3  0  0  0  0  0  0
  188.4140  175.4510  141.3600 C   0  0  0  0  0  0  0  0  0  0  0  0
  189.1190  177.1860  146.9500 C   0  0  1  0  0  3  0  0  0  0  0  0
  189.6330  175.3610  145.3740 C   0  0  2  0  0  3  0  0  0  0  0  0
  184.3320  178.3460  143.7010 N   0  0  0  0  0  0  0  0  0  0  0  0
  191.1320  173.8780  142.0390 C   0  0  0  0  0  2  0  0  0  0  0  0
  190.8200  172.0790  143.7450 C   0  0  0  0  0  3  0  0  0  0  0  0
  191.9120  177.5520  149.1790 N   0  0  0  0  0  1  0  0  0  0  0  0
  184.6660  177.3110  145.8990 C   0  0  0  0  0  1  0  0  0  0  0  0
  188.3230  177.7480  142.3750 C   0  0  0  0  0  2  0  0  0  0  0  0
  184.7270  178.7510  142.4940 N   0  0  0  0  0  0  0  0  0  0  0  0
  191.0470  177.3030  148.0770 C   0  0  1  0  0  3  0  0  0  0  0  0
  186.5210  177.5100  144.1860 C   0  0  0  0  0  0  0  0  0  0  0  0
  187.9070  174.9470  143.6920 O   0  0  0  0  0  0  0  0  0  0  0  0
  188.2160  174.7720  140.3200 O   0  0  0  0  0  0  0  0  0  0  0  0
  188.7980  174.7110  142.6170 C   0  0  2  0  0  3  0  0  0  0  0  0
  191.1380  172.4440  142.4970 C   0  0  0  0  0  3  0  0  0  0  0  0
  192.0710  174.8060  144.7490 C   0  0  0  0  0  1  0  0  0  0  0  0
  186.0010  178.5670  142.0700 C   0  0  0  0  0  3  0  0  0  0  0  0
  186.9300  177.9430  142.9010 C   0  0  0  0  0  0  0  0  0  0  0  0
  190.5960  174.5250  144.4660 C   0  0  1  0  0  0  0  0  0  0  0  0
  1  5  1  6  0  0  0
  2 18  1  0  0  0  0
  3 11  1  0  0  0  0
  3 19  1  0  0  0  0
  4 23  1  1  0  0  0
  4  1  1  0  0  0  0
  4 13  1  0  0  0  0
  6 21  1  0  0  0  0
  8 12  1  0  0  0  0
  8  6  1  1  0  0  0
  9 21  1  0  0  0  0
 10 15  1  6  0  0  0
 10 30  1  0  0  0  0
 11 25  1  0  0  0  0
 12  5  1  6  0  0  0
 12  9  1  0  0  0  0
 13  8  1  0  0  0  0
 14  2  2  0  0  0  0
 15 26  1  0  0  0  0
 16  7  1  0  0  0  0
 19 29  1  0  0  0  0
 20 14  1  0  0  0  0
 21 17  1  0  0  0  0
 22  2  1  0  0  0  0
 22  1  1  0  0  0  0
 24 11  2  0  0  0  0
 25 10  1  0  0  0  0
 25 23  1  0  0  0  0
 26 16  2  0  0  0  0
 28 20  2  0  0  0  0
 28 29  1  0  0  0  0
 29 22  2  0  0  0  0
 30 27  1  0  0  0  0
 30  7  1  0  0  0  0
 30 13  1  0  0  0  0
M  END
>  <MODEL>
4

>  <REMARK>
 VINA RESULT:      -8.3      2.242      5.113
  Name = 
  0 active torsions:
  status: ('A' for Active; 'I' for Inactive)
                            x       y       z     vdW  Elec       q    Type
                         _______ _______ _______ _____ _____    ______ ____

>  <TORSDO>
F 0

$$$$
=
 OpenBabel11052417053D

 30 35  0  0  1  0  0  0  0  0999 V2000
  189.3410  175.8640  143.4570 C   0  0  1  0  0  3  0  0  0  0  0  0
  187.4070  177.1890  144.3760 C   0  0  0  0  0  0  0  0  0  0  0  0
  190.5710  175.3870  147.2370 O   0  0  0  0  0  0  0  0  0  0  0  0
  190.8060  175.6460  143.8840 C   0  0  1  0  0  3  0  0  0  0  0  0
  188.7660  174.6290  142.7380 C   0  0  0  0  0  2  0  0  0  0  0  0
  191.6440  172.9740  141.1980 C   0  0  0  0  0  2  0  0  0  0  0  0
  194.0990  175.9040  142.9810 C   0  0  0  0  0  2  0  0  0  0  0  0
  191.0540  173.8010  142.2960 C   0  0  2  0  0  3  0  0  0  0  0  0
  189.4260  173.2080  140.7860 O   0  0  0  0  0  0  0  0  0  0  0  0
  193.0660  174.9490  145.0830 C   0  0  1  0  0  3  0  0  0  0  0  0
  191.7040  176.1460  146.8980 C   0  0  0  0  0  0  0  0  0  0  0  0
  189.7630  174.2640  141.6590 C   0  0  1  0  0  3  0  0  0  0  0  0
  191.7790  175.0310  142.8530 C   0  0  2  0  0  3  0  0  0  0  0  0
  186.5750  177.5410  145.3890 N   0  0  0  0  0  0  0  0  0  0  0  0
  194.4360  174.8940  145.7670 C   0  0  0  0  0  2  0  0  0  0  0  0
  195.3430  176.1410  143.8000 C   0  0  0  0  0  3  0  0  0  0  0  0
  190.7500  171.7080  139.3360 N   0  0  0  0  0  1  0  0  0  0  0  0
  187.1840  177.7900  143.0270 C   0  0  0  0  0  1  0  0  0  0  0  0
  189.6740  174.7860  146.3070 C   0  0  0  0  0  2  0  0  0  0  0  0
  186.7140  177.0420  146.6170 N   0  0  0  0  0  0  0  0  0  0  0  0
  190.6240  172.6010  140.4360 C   0  0  1  0  0  3  0  0  0  0  0  0
  188.4510  176.2760  144.6130 C   0  0  0  0  0  0  0  0  0  0  0  0
  191.3700  176.7380  144.5560 O   0  0  0  0  0  0  0  0  0  0  0  0
  192.3020  176.7640  147.8150 O   0  0  0  0  0  0  0  0  0  0  0  0
  192.2830  176.2230  145.5080 C   0  0  2  0  0  3  0  0  0  0  0  0
  195.4750  175.7290  145.0670 C   0  0  0  0  0  3  0  0  0  0  0  0
  193.7860  173.4530  143.1990 C   0  0  0  0  0  1  0  0  0  0  0  0
  187.6980  176.1580  146.9120 C   0  0  0  0  0  3  0  0  0  0  0  0
  188.5920  175.7530  145.9220 C   0  0  0  0  0  0  0  0  0  0  0  0
  193.1720  174.8120  143.5330 C   0  0  1  0  0  0  0  0  0  0  0  0
  1  5  1  1  0  0  0
  1  4  1  0  0  0  0
  1 22  1  0  0  0  0
  2 22  2  0  0  0  0
  2 14  1  0  0  0  0
  4 23  1  6  0  0  0
  7 30  1  0  0  0  0
  7 16  1  0  0  0  0
  8  6  1  6  0  0  0
  8 13  1  0  0  0  0
  9 12  1  0  0  0  0
 10 25  1  0  0  0  0
 10 15  1  1  0  0  0
 11  3  1  0  0  0  0
 11 24  2  0  0  0  0
 12  8  1  0  0  0  0
 12  5  1  1  0  0  0
 13 30  1  0  0  0  0
 13  4  1  0  0  0  0
 14 20  2  0  0  0  0
 16 26  2  0  0  0  0
 17 21  1  0  0  0  0
 18  2  1  0  0  0  0
 19  3  1  0  0  0  0
 20 28  1  0  0  0  0
 21  9  1  0  0  0  0
 21  6  1  0  0  0  0
 22 29  1  0  0  0  0
 23 25  1  0  0  0  0
 25 11  1  0  0  0  0
 26 15  1  0  0  0  0
 27 30  1  0  0  0  0
 29 19  1  0  0  0  0
 29 28  2  0  0  0  0
 30 10  1  0  0  0  0
M  END
>  <MODEL>
5

>  <REMARK>
 VINA RESULT:      -8.1      1.416      1.746
  Name = 
  0 active torsions:
  status: ('A' for Active; 'I' for Inactive)
                            x       y       z     vdW  Elec       q    Type
                         _______ _______ _______ _____ _____    ______ ____

>  <TORSDO>
F 0

$$$$
=
 OpenBabel11052417053D

 30 35  0  0  1  0  0  0  0  0999 V2000
  188.6640  176.5580  144.8780 C   0  0  1  0  0  3  0  0  0  0  0  0
  186.5160  177.7880  145.3410 C   0  0  0  0  0  0  0  0  0  0  0  0
  187.9690  177.1850  140.9850 O   0  0  0  0  0  0  0  0  0  0  0  0
  189.1710  175.6520  143.7370 C   0  0  1  0  0  3  0  0  0  0  0  0
  189.8120  177.3520  145.5300 C   0  0  0  0  0  2  0  0  0  0  0  0
  192.8060  175.3030  145.0480 C   0  0  0  0  0  2  0  0  0  0  0  0
  190.4190  172.5790  142.8870 C   0  0  0  0  0  2  0  0  0  0  0  0
  191.4630  175.7720  144.5860 C   0  0  2  0  0  3  0  0  0  0  0  0
  192.0260  176.8040  146.5590 O   0  0  0  0  0  0  0  0  0  0  0  0
  190.0440  174.6290  141.4530 C   0  0  1  0  0  3  0  0  0  0  0  0
  187.8390  175.7930  140.8480 C   0  0  0  0  0  0  0  0  0  0  0  0
  190.8900  176.3430  145.8630 C   0  0  1  0  0  3  0  0  0  0  0  0
  190.4350  174.8020  143.9930 C   0  0  2  0  0  3  0  0  0  0  0  0
  185.5310  178.6480  144.9780 N   0  0  0  0  0  0  0  0  0  0  0  0
  190.2780  173.8140  140.1760 C   0  0  0  0  0  2  0  0  0  0  0  0
  190.3060  171.7730  141.6170 C   0  0  0  0  0  3  0  0  0  0  0  0
  194.3300  175.9500  146.8160 N   0  0  0  0  0  1  0  0  0  0  0  0
  186.4700  177.1840  146.7050 C   0  0  0  0  0  1  0  0  0  0  0  0
  188.5530  177.8510  142.1010 C   0  0  0  0  0  2  0  0  0  0  0  0
  185.5110  179.2260  143.7770 N   0  0  0  0  0  0  0  0  0  0  0  0
  193.0860  176.0180  146.1300 C   0  0  1  0  0  3  0  0  0  0  0  0
  187.5500  177.4860  144.4350 C   0  0  0  0  0  0  0  0  0  0  0  0
  188.1600  174.9190  143.1030 O   0  0  0  0  0  0  0  0  0  0  0  0
  187.1460  175.3510  139.8970 O   0  0  0  0  0  0  0  0  0  0  0  0
  188.5240  174.7890  141.7400 C   0  0  2  0  0  3  0  0  0  0  0  0
  190.1950  172.3280  140.4040 C   0  0  0  0  0  3  0  0  0  0  0  0
  192.3160  174.0960  142.3800 C   0  0  0  0  0  1  0  0  0  0  0  0
  186.4770  178.9790  142.8580 C   0  0  0  0  0  3  0  0  0  0  0  0
  187.5200  178.1030  143.1610 C   0  0  0  0  0  0  0  0  0  0  0  0
  190.8170  174.0470  142.6760 C   0  0  1  0  0  0  0  0  0  0  0  0
  1  5  1  6  0  0  0
  2 18  1  0  0  0  0
  3 19  1  0  0  0  0
  4 23  1  1  0  0  0
  4 13  1  0  0  0  0
  4  1  1  0  0  0  0
  6 21  1  0  0  0  0
  8  6  1  1  0  0  0
  8 12  1  0  0  0  0
 10 15  1  6  0  0  0
 10 25  1  0  0  0  0
 10 30  1  0  0  0  0
 11  3  1  0  0  0  0
 11 25  1  0  0  0  0
 12  5  1  6  0  0  0
 12  9  1  0  0  0  0
 13  8  1  0  0  0  0
 14  2  1  0  0  0  0
 15 26  1  0  0  0  0
 16  7  1  0  0  0  0
 19 29  1  0  0  0  0
 20 14  2  0  0  0  0
 21  9  1  0  0  0  0
 21 17  1  0  0  0  0
 22  1  1  0  0  0  0
 22  2  2  0  0  0  0
 24 11  2  0  0  0  0
 25 23  1  0  0  0  0
 26 16  2  0  0  0  0
 27 30  1  0  0  0  0
 28 29  2  0  0  0  0
 28 20  1  0  0  0  0
 29 22  1  0  0  0  0
 30  7  1  0  0  0  0
 30 13  1  0  0  0  0
M  END
>  <MODEL>
6

>  <REMARK>
 VINA RESULT:      -7.9      2.181      5.067
  Name = 
  0 active torsions:
  status: ('A' for Active; 'I' for Inactive)
                            x       y       z     vdW  Elec       q    Type
                         _______ _______ _______ _____ _____    ______ ____

>  <TORSDO>
F 0

$$$$
=
 OpenBabel11052417053D

 30 35  0  0  1  0  0  0  0  0999 V2000
  189.0480  174.5390  141.9950 C   0  0  1  0  0  3  0  0  0  0  0  0
  189.5970  172.8740  140.1870 C   0  0  0  0  0  0  0  0  0  0  0  0
  192.9630  174.6490  142.8270 O   0  0  0  0  0  0  0  0  0  0  0  0
  189.6440  174.8750  143.3770 C   0  0  1  0  0  3  0  0  0  0  0  0
  188.4310  175.7790  141.3220 C   0  0  0  0  0  2  0  0  0  0  0  0
  187.4050  177.9660  144.0710 C   0  0  0  0  0  2  0  0  0  0  0  0
  189.0530  175.1470  146.7390 C   0  0  0  0  0  2  0  0  0  0  0  0
  188.3270  176.9330  143.5070 C   0  0  2  0  0  3  0  0  0  0  0  0
  186.7450  177.5200  141.9470 O   0  0  0  0  0  0  0  0  0  0  0  0
  191.1410  175.6760  145.4130 C   0  0  1  0  0  3  0  0  0  0  0  0
  192.6490  174.0880  144.0760 C   0  0  0  0  0  0  0  0  0  0  0  0
  187.5120  176.4060  142.3480 C   0  0  1  0  0  3  0  0  0  0  0  0
  188.8000  175.7380  144.3410 C   0  0  2  0  0  3  0  0  0  0  0  0
  190.4700  172.2900  139.3270 N   0  0  0  0  0  0  0  0  0  0  0  0
  191.9620  175.8060  146.7010 C   0  0  0  0  0  2  0  0  0  0  0  0
  189.9590  174.9550  147.9300 C   0  0  0  0  0  3  0  0  0  0  0  0
  185.6310  179.3520  143.1740 N   0  0  0  0  0  1  0  0  0  0  0  0
  188.1700  172.4380  140.1610 C   0  0  0  0  0  1  0  0  0  0  0  0
  192.0270  175.2560  141.9390 C   0  0  0  0  0  2  0  0  0  0  0  0
  191.7580  172.6320  139.2940 N   0  0  0  0  0  0  0  0  0  0  0  0
  186.5950  178.3110  143.0780 C   0  0  1  0  0  3  0  0  0  0  0  0
  190.0490  173.8690  141.0750 C   0  0  0  0  0  0  0  0  0  0  0  0
  190.2300  173.7800  144.0240 O   0  0  0  0  0  0  0  0  0  0  0  0
  193.5400  173.4300  144.6730 O   0  0  0  0  0  0  0  0  0  0  0  0
  191.3260  174.2700  144.7750 C   0  0  2  0  0  3  0  0  0  0  0  0
  191.2730  175.2060  147.8980 C   0  0  0  0  0  3  0  0  0  0  0  0
  189.5380  177.4890  146.0810 C   0  0  0  0  0  1  0  0  0  0  0  0
  192.2570  173.5830  140.1220 C   0  0  0  0  0  3  0  0  0  0  0  0
  191.4190  174.2240  141.0340 C   0  0  0  0  0  0  0  0  0  0  0  0
  189.6390  176.0320  145.6300 C   0  0  1  0  0  0  0  0  0  0  0  0
  1  5  1  6  0  0  0
  1  4  1  0  0  0  0
  2 22  1  0  0  0  0
  3 11  1  0  0  0  0
  4 23  1  1  0  0  0
  4 13  1  0  0  0  0
  7 16  1  0  0  0  0
  8  6  1  1  0  0  0
  8 13  1  0  0  0  0
  9 12  1  0  0  0  0
  9 21  1  0  0  0  0
 10 30  1  0  0  0  0
 10 15  1  1  0  0  0
 11 24  2  0  0  0  0
 11 25  1  0  0  0  0
 12  5  1  6  0  0  0
 12  8  1  0  0  0  0
 13 30  1  0  0  0  0
 14  2  2  0  0  0  0
 15 26  1  0  0  0  0
 18  2  1  0  0  0  0
 19  3  1  0  0  0  0
 20 14  1  0  0  0  0
 20 28  2  0  0  0  0
 21 17  1  0  0  0  0
 21  6  1  0  0  0  0
 22  1  1  0  0  0  0
 23 25  1  0  0  0  0
 25 10  1  0  0  0  0
 26 16  2  0  0  0  0
 28 29  1  0  0  0  0
 29 22  2  0  0  0  0
 29 19  1  0  0  0  0
 30 27  1  0  0  0  0
 30  7  1  0  0  0  0
M  END
>  <MODEL>
7

>  <REMARK>
 VINA RESULT:      -7.8      2.287      5.723
  Name = 
  0 active torsions:
  status: ('A' for Active; 'I' for Inactive)
                            x       y       z     vdW  Elec       q    Type
                         _______ _______ _______ _____ _____    ______ ____

>  <TORSDO>
F 0

$$$$
=
 OpenBabel11052417053D

 30 35  0  0  1  0  0  0  0  0999 V2000
  192.2160  174.6390  144.8360 C   0  0  1  0  0  3  0  0  0  0  0  0
  193.8730  172.8800  144.1270 C   0  0  0  0  0  0  0  0  0  0  0  0
  189.3550  172.3080  143.2830 O   0  0  0  0  0  0  0  0  0  0  0  0
  190.8710  175.1490  144.2790 C   0  0  1  0  0  3  0  0  0  0  0  0
  192.2800  174.7550  146.3710 C   0  0  0  0  0  2  0  0  0  0  0  0
  190.0660  177.5410  147.2260 C   0  0  0  0  0  2  0  0  0  0  0  0
  189.1120  177.8530  143.1300 C   0  0  0  0  0  2  0  0  0  0  0  0
  190.4260  176.3910  146.3400 C   0  0  2  0  0  3  0  0  0  0  0  0
  191.9420  176.5730  148.0570 O   0  0  0  0  0  0  0  0  0  0  0  0
  188.3540  175.4700  143.5130 C   0  0  1  0  0  3  0  0  0  0  0  0
  189.1270  173.3230  142.3400 C   0  0  0  0  0  0  0  0  0  0  0  0
  191.8770  176.1750  146.7060 C   0  0  1  0  0  3  0  0  0  0  0  0
  190.3280  176.4920  144.8140 C   0  0  2  0  0  3  0  0  0  0  0  0
  194.1820  171.6090  143.7650 N   0  0  0  0  0  0  0  0  0  0  0  0
  187.0460  175.7340  142.7580 C   0  0  0  0  0  2  0  0  0  0  0  0
  187.9900  177.9610  142.1280 C   0  0  0  0  0  3  0  0  0  0  0  0
  190.8630  178.3770  149.3560 N   0  0  0  0  0  1  0  0  0  0  0  0
  194.9750  173.8800  144.2380 C   0  0  0  0  0  1  0  0  0  0  0  0
  190.0860  172.4610  144.4970 C   0  0  0  0  0  2  0  0  0  0  0  0
  193.2490  170.6640  143.6490 N   0  0  0  0  0  0  0  0  0  0  0  0
  190.9310  177.5070  148.2320 C   0  0  1  0  0  3  0  0  0  0  0  0
  192.5340  173.2250  144.3890 C   0  0  0  0  0  0  0  0  0  0  0  0
  190.7590  175.0500  142.8870 O   0  0  0  0  0  0  0  0  0  0  0  0
  188.6200  173.0050  141.2340 O   0  0  0  0  0  0  0  0  0  0  0  0
  189.4000  174.7840  142.5900 C   0  0  2  0  0  3  0  0  0  0  0  0
  187.0910  176.9890  141.9280 C   0  0  0  0  0  3  0  0  0  0  0  0
  187.9010  177.2620  145.2130 C   0  0  0  0  0  1  0  0  0  0  0  0
  191.9410  170.9310  143.8880 C   0  0  0  0  0  3  0  0  0  0  0  0
  191.5490  172.2150  144.2620 C   0  0  0  0  0  0  0  0  0  0  0  0
  188.9170  176.7580  144.1890 C   0  0  1  0  0  0  0  0  0  0  0  0
  1  5  1  1  0  0  0
  2 18  1  0  0  0  0
  2 22  1  0  0  0  0
  3 19  1  0  0  0  0
  4 23  1  6  0  0  0
  4 13  1  0  0  0  0
  4  1  1  0  0  0  0
  6 21  1  0  0  0  0
  7 30  1  0  0  0  0
  8 12  1  0  0  0  0
  8  6  1  1  0  0  0
  9 21  1  0  0  0  0
 10 15  1  6  0  0  0
 10 30  1  0  0  0  0
 11 25  1  0  0  0  0
 11  3  1  0  0  0  0
 12  5  1  1  0  0  0
 12  9  1  0  0  0  0
 13  8  1  0  0  0  0
 14  2  2  0  0  0  0
 16  7  1  0  0  0  0
 20 14  1  0  0  0  0
 20 28  2  0  0  0  0
 21 17  1  0  0  0  0
 22  1  1  0  0  0  0
 24 11  2  0  0  0  0
 25 23  1  0  0  0  0
 25 10  1  0  0  0  0
 26 16  2  0  0  0  0
 26 15  1  0  0  0  0
 28 29  1  0  0  0  0
 29 22  2  0  0  0  0
 29 19  1  0  0  0  0
 30 13  1  0  0  0  0
 30 27  1  0  0  0  0
M  END
>  <MODEL>
8

>  <REMARK>
 VINA RESULT:      -7.7      2.683      7.047
  Name = 
  0 active torsions:
  status: ('A' for Active; 'I' for Inactive)
                            x       y       z     vdW  Elec       q    Type
                         _______ _______ _______ _____ _____    ______ ____

>  <TORSDO>
F 0

$$$$
=
 OpenBabel11052417053D

 30 35  0  0  1  0  0  0  0  0999 V2000
  190.4270  175.9340  143.2370 C   0  0  1  0  0  3  0  0  0  0  0  0
  188.6730  177.1640  144.5610 C   0  0  0  0  0  0  0  0  0  0  0  0
  192.5350  175.6610  146.6290 O   0  0  0  0  0  0  0  0  0  0  0  0
  191.9630  175.8240  143.3110 C   0  0  1  0  0  3  0  0  0  0  0  0
  189.7870  174.6430  142.6930 C   0  0  0  0  0  2  0  0  0  0  0  0
  192.3350  173.1250  140.5490 C   0  0  0  0  0  2  0  0  0  0  0  0
  194.9290  176.2610  141.6550 C   0  0  0  0  0  2  0  0  0  0  0  0
  191.9600  173.9480  141.7400 C   0  0  2  0  0  3  0  0  0  0  0  0
  190.0710  173.2040  140.6650 O   0  0  0  0  0  0  0  0  0  0  0  0
  194.4820  175.3120  143.9570 C   0  0  1  0  0  3  0  0  0  0  0  0
  193.5020  176.4780  146.0210 C   0  0  0  0  0  0  0  0  0  0  0  0
  190.5280  174.3070  141.4170 C   0  0  1  0  0  3  0  0  0  0  0  0
  192.7080  175.2390  142.0910 C   0  0  2  0  0  3  0  0  0  0  0  0
  188.0780  177.4950  145.7350 N   0  0  0  0  0  0  0  0  0  0  0  0
  195.9750  175.3660  144.3010 C   0  0  0  0  0  2  0  0  0  0  0  0
  196.3100  176.6040  142.1560 C   0  0  0  0  0  3  0  0  0  0  0  0
  191.1210  171.7440  138.9710 N   0  0  0  0  0  1  0  0  0  0  0  0
  188.1010  177.7050  143.2930 C   0  0  0  0  0  1  0  0  0  0  0  0
  191.4900  174.9740  145.9460 C   0  0  0  0  0  2  0  0  0  0  0  0
  188.5340  177.0470  146.9050 N   0  0  0  0  0  0  0  0  0  0  0  0
  191.1940  172.6630  140.0550 C   0  0  1  0  0  3  0  0  0  0  0  0
  189.8050  176.3270  144.5620 C   0  0  0  0  0  0  0  0  0  0  0  0
  192.5910  176.9710  143.8130 O   0  0  0  0  0  0  0  0  0  0  0  0
  194.2530  177.1630  146.7620 O   0  0  0  0  0  0  0  0  0  0  0  0
  193.7340  176.5470  144.5330 C   0  0  2  0  0  3  0  0  0  0  0  0
  196.7620  176.2420  143.3620 C   0  0  0  0  0  3  0  0  0  0  0  0
  194.8460  173.8040  141.9830 C   0  0  0  0  0  1  0  0  0  0  0  0
  189.6190  176.2360  146.9750 C   0  0  0  0  0  3  0  0  0  0  0  0
  190.2830  175.8570  145.8090 C   0  0  0  0  0  0  0  0  0  0  0  0
  194.2340  175.1310  142.4280 C   0  0  1  0  0  0  0  0  0  0  0  0
  1  5  1  1  0  0  0
  1  4  1  0  0  0  0
  1 22  1  0  0  0  0
  2 22  2  0  0  0  0
  2 14  1  0  0  0  0
  4 23  1  6  0  0  0
  7 16  1  0  0  0  0
  7 30  1  0  0  0  0
  8  6  1  6  0  0  0
  8 13  1  0  0  0  0
  9 12  1  0  0  0  0
 10 15  1  6  0  0  0
 10 25  1  0  0  0  0
 11  3  1  0  0  0  0
 11 24  2  0  0  0  0
 12  8  1  0  0  0  0
 12  5  1  1  0  0  0
 13 30  1  0  0  0  0
 13  4  1  0  0  0  0
 14 20  2  0  0  0  0
 16 26  2  0  0  0  0
 17 21  1  0  0  0  0
 18  2  1  0  0  0  0
 19  3  1  0  0  0  0
 20 28  1  0  0  0  0
 21  6  1  0  0  0  0
 21  9  1  0  0  0  0
 22 29  1  0  0  0  0
 23 25  1  0  0  0  0
 25 11  1  0  0  0  0
 26 15  1  0  0  0  0
 27 30  1  0  0  0  0
 29 19  1  0  0  0  0
 29 28  2  0  0  0  0
 30 10  1  0  0  0  0
M  END
>  <MODEL>
9

>  <REMARK>
 VINA RESULT:      -7.6      2.073      2.971
  Name = 
  0 active torsions:
  status: ('A' for Active; 'I' for Inactive)
                            x       y       z     vdW  Elec       q    Type
                         _______ _______ _______ _____ _____    ______ ____

>  <TORSDO>
F 0

$$$$
