=
 OpenBabel11052418143D

 28 33  0  0  1  0  0  0  0  0999 V2000
  188.5920  176.8780  145.9430 C   0  0  2  0  0  3  0  0  0  0  0  0
  187.7760  175.4830  140.9560 C   0  0  0  0  0  3  0  0  0  0  0  0
  184.9450  179.8980  144.2990 C   0  0  0  0  0  1  0  0  0  0  0  0
  186.2510  177.2060  140.1830 C   0  0  0  0  0  0  0  0  0  0  0  0
  186.5690  176.9010  142.6800 C   0  0  1  0  0  3  0  0  0  0  0  0
  187.4070  175.7980  138.5850 C   0  0  0  0  0  0  0  0  0  0  0  0
  186.9100  176.5500  141.2440 C   0  0  0  0  0  0  0  0  0  0  0  0
  184.8270  178.3070  141.8960 C   0  0  0  0  0  2  0  0  0  0  0  0
  186.5170  176.8390  138.8600 C   0  0  0  0  0  3  0  0  0  0  0  0
  186.6610  178.3350  145.1820 C   0  0  1  0  0  3  0  0  0  0  0  0
  187.8000  176.7980  143.5750 C   0  0  0  0  0  2  0  0  0  0  0  0
  185.3030  178.3360  140.4480 C   0  0  0  0  0  2  0  0  0  0  0  0
  187.0700  178.0140  147.6010 C   0  0  0  0  0  2  0  0  0  0  0  0
  185.5140  178.4870  144.1680 C   0  0  2  0  0  3  0  0  0  0  0  0
  186.1510  178.4980  146.5550 N   0  0  0  0  0  2  0  0  0  0  0  0
  187.6580  175.4430  137.3030 F   0  0  0  0  0  0  0  0  0  0  0  0
  188.0290  175.1150  139.6320 C   0  0  0  0  0  3  0  0  0  0  0  0
  185.9870  178.2540  142.7900 N   0  0  1  0  0  0  0  0  0  0  0  0
  188.5140  177.8620  147.1160 C   0  0  0  0  0  2  0  0  0  0  0  0
  187.3720  176.9860  145.0170 C   0  0  1  0  0  3  0  0  0  0  0  0
  188.7110  175.4410  146.4660 C   0  0  2  0  0  3  0  0  0  0  0  0
  190.0210  175.1130  147.1840 C   0  0  2  0  0  3  0  0  0  0  0  0
  190.9670  175.2430  145.0960 C   0  0  0  0  0  0  0  0  0  0  0  0
  190.9360  176.2000  147.1980 O   0  0  0  0  0  0  0  0  0  0  0  0
  189.6840  173.1260  145.7540 C   0  0  0  0  0  1  0  0  0  0  0  0
  189.8040  174.6360  145.7580 C   0  0  2  0  0  0  0  0  0  0  0  0
  191.0620  175.3500  143.8230 N   0  0  0  0  0  2  0  0  0  0  0  0
  191.6990  176.1250  146.0170 C   0  0  0  0  0  2  0  0  0  0  0  0
  1 19  1  1  0  0  0
  2  7  1  0  0  0  0
  4 12  1  0  0  0  0
  4  7  2  0  0  0  0
  5 18  1  0  0  0  0
  5 11  1  1  0  0  0
  6  9  2  0  0  0  0
  6 17  1  0  0  0  0
  7  5  1  0  0  0  0
  9  4  1  0  0  0  0
 10 15  1  1  0  0  0
 12  8  1  0  0  0  0
 14  3  1  6  0  0  0
 14 10  1  0  0  0  0
 15 13  1  0  0  0  0
 16  6  1  0  0  0  0
 17  2  2  0  0  0  0
 18  8  1  6  0  0  0
 18 14  1  0  0  0  0
 19 13  1  0  0  0  0
 20 11  1  6  0  0  0
 20 10  1  0  0  0  0
 20  1  1  0  0  0  0
 21  1  1  6  0  0  0
 21 22  1  0  0  0  0
 22 24  1  6  0  0  0
 23 26  1  0  0  0  0
 23 28  1  0  0  0  0
 26 25  1  6  0  0  0
 26 21  1  0  0  0  0
 26 22  1  0  0  0  0
 27 23  2  0  0  0  0
 28 24  1  0  0  0  0
M  END
>  <MODEL>
1

>  <REMARK>
 VINA RESULT:      -7.6      0.000      0.000
  Name = 
  1 active torsions:
  status: ('A' for Active; 'I' for Inactive)
    1  A    between atoms: C_1  and  C_2
                            x       y       z     vdW  Elec       q    Type
                         _______ _______ _______ _____ _____    ______ ____

>  <TORSDO>
F 1

$$$$
=
 OpenBabel11052418143D

 28 33  0  0  1  0  0  0  0  0999 V2000
  192.3880  174.3440  143.2450 C   0  0  2  0  0  3  0  0  0  0  0  0
  188.8000  177.1430  145.8480 C   0  0  0  0  0  3  0  0  0  0  0  0
  188.2450  174.1400  140.4310 C   0  0  0  0  0  1  0  0  0  0  0  0
  186.7810  176.7000  144.5760 C   0  0  0  0  0  0  0  0  0  0  0  0
  189.0220  176.1700  143.5150 C   0  0  1  0  0  3  0  0  0  0  0  0
  186.6350  177.6600  146.7970 C   0  0  0  0  0  0  0  0  0  0  0  0
  188.1860  176.6390  144.6910 C   0  0  0  0  0  0  0  0  0  0  0  0
  187.0620  176.1020  142.1810 C   0  0  0  0  0  2  0  0  0  0  0  0
  186.0140  177.1930  145.6370 C   0  0  0  0  0  3  0  0  0  0  0  0
  190.3490  174.3250  141.7370 C   0  0  1  0  0  3  0  0  0  0  0  0
  190.2510  175.4020  143.9900 C   0  0  0  0  0  2  0  0  0  0  0  0
  186.0870  176.1920  143.3500 C   0  0  0  0  0  2  0  0  0  0  0  0
  192.5710  173.7810  140.7940 C   0  0  0  0  0  2  0  0  0  0  0  0
  189.0340  175.0390  141.3790 C   0  0  2  0  0  3  0  0  0  0  0  0
  191.1600  174.1130  140.5260 N   0  0  0  0  0  2  0  0  0  0  0  0
  185.8870  178.1400  147.8190 F   0  0  0  0  0  0  0  0  0  0  0  0
  188.0280  177.6430  146.8990 C   0  0  0  0  0  3  0  0  0  0  0  0
  188.2380  175.3290  142.5870 N   0  0  1  0  0  0  0  0  0  0  0  0
  192.8150  173.2850  142.2220 C   0  0  0  0  0  2  0  0  0  0  0  0
  191.1360  175.1100  142.7950 C   0  0  1  0  0  3  0  0  0  0  0  0
  193.5330  175.3340  143.4890 C   0  0  2  0  0  3  0  0  0  0  0  0
  194.7570  174.7560  144.2030 C   0  0  2  0  0  3  0  0  0  0  0  0
  193.3980  174.6930  146.0530 C   0  0  0  0  0  0  0  0  0  0  0  0
  194.5970  173.3930  144.5670 O   0  0  0  0  0  0  0  0  0  0  0  0
  194.4430  176.9230  145.3500 C   0  0  0  0  0  1  0  0  0  0  0  0
  193.7720  175.6190  144.9750 C   0  0  2  0  0  0  0  0  0  0  0  0
  192.3750  174.8770  146.8010 N   0  0  0  0  0  2  0  0  0  0  0  0
  193.9860  173.3630  145.8350 C   0  0  0  0  0  2  0  0  0  0  0  0
  1 19  1  6  0  0  0
  2 17  1  0  0  0  0
  4  7  1  0  0  0  0
  4  9  2  0  0  0  0
  5 11  1  1  0  0  0
  5  7  1  0  0  0  0
  6 17  2  0  0  0  0
  6 16  1  0  0  0  0
  7  2  2  0  0  0  0
  8 12  1  0  0  0  0
  9  6  1  0  0  0  0
 10 15  1  6  0  0  0
 10 20  1  0  0  0  0
 12  4  1  0  0  0  0
 13 19  1  0  0  0  0
 14  3  1  6  0  0  0
 14 10  1  0  0  0  0
 14 18  1  0  0  0  0
 15 13  1  0  0  0  0
 18  8  1  6  0  0  0
 18  5  1  0  0  0  0
 20  1  1  0  0  0  0
 20 11  1  1  0  0  0
 21  1  1  1  0  0  0
 21 22  1  0  0  0  0
 21 26  1  0  0  0  0
 22 24  1  1  0  0  0
 22 26  1  0  0  0  0
 23 27  2  0  0  0  0
 24 28  1  0  0  0  0
 26 25  1  1  0  0  0
 26 23  1  0  0  0  0
 28 23  1  0  0  0  0
M  END
>  <MODEL>
2

>  <REMARK>
 VINA RESULT:      -7.3      3.333      6.008
  Name = 
  1 active torsions:
  status: ('A' for Active; 'I' for Inactive)
    1  A    between atoms: C_1  and  C_2
                            x       y       z     vdW  Elec       q    Type
                         _______ _______ _______ _____ _____    ______ ____

>  <TORSDO>
F 1

$$$$
=
 OpenBabel11052418143D

 28 33  0  0  1  0  0  0  0  0999 V2000
  190.8480  175.1410  144.8960 C   0  0  2  0  0  3  0  0  0  0  0  0
  186.0240  176.7220  143.5860 C   0  0  0  0  0  3  0  0  0  0  0  0
  189.5260  178.4430  148.4290 C   0  0  0  0  0  1  0  0  0  0  0  0
  185.6330  178.5330  145.1550 C   0  0  0  0  0  0  0  0  0  0  0  0
  187.5170  176.9040  145.6300 C   0  0  1  0  0  3  0  0  0  0  0  0
  184.2190  178.2870  143.2020 C   0  0  0  0  0  0  0  0  0  0  0  0
  186.3980  177.4200  144.7450 C   0  0  0  0  0  0  0  0  0  0  0  0
  186.8690  178.4500  147.3080 C   0  0  0  0  0  2  0  0  0  0  0  0
  184.5600  178.9700  144.3710 C   0  0  0  0  0  3  0  0  0  0  0  0
  190.1620  176.7100  146.7670 C   0  0  1  0  0  3  0  0  0  0  0  0
  188.6710  176.3630  144.7920 C   0  0  0  0  0  2  0  0  0  0  0  0
  185.9860  179.2930  146.3960 C   0  0  0  0  0  2  0  0  0  0  0  0
  192.0180  175.1150  147.1290 C   0  0  0  0  0  2  0  0  0  0  0  0
  188.9770  177.3620  147.5000 C   0  0  2  0  0  3  0  0  0  0  0  0
  191.0690  176.0670  147.7330 N   0  0  0  0  0  2  0  0  0  0  0  0
  183.1770  178.7120  142.4490 F   0  0  0  0  0  0  0  0  0  0  0  0
  184.9450  177.1590  142.8130 C   0  0  0  0  0  3  0  0  0  0  0  0
  188.0160  177.9490  146.5470 N   0  0  1  0  0  0  0  0  0  0  0  0
  192.1890  175.3050  145.6200 C   0  0  0  0  0  2  0  0  0  0  0  0
  189.6770  175.7040  145.7140 C   0  0  1  0  0  3  0  0  0  0  0  0
  190.5910  173.6600  144.5890 C   0  0  2  0  0  3  0  0  0  0  0  0
  191.4550  173.0640  143.4760 C   0  0  2  0  0  3  0  0  0  0  0  0
  190.1870  174.3640  142.0700 C   0  0  0  0  0  0  0  0  0  0  0  0
  192.3230  174.0140  142.8760 O   0  0  0  0  0  0  0  0  0  0  0  0
  189.2130  172.1650  142.9530 C   0  0  0  0  0  1  0  0  0  0  0  0
  190.0080  173.4320  143.1920 C   0  0  2  0  0  0  0  0  0  0  0  0
  189.2600  175.1520  141.6700 N   0  0  0  0  0  2  0  0  0  0  0  0
  191.6120  174.6380  141.8320 C   0  0  0  0  0  2  0  0  0  0  0  0
  1 19  1  1  0  0  0
  1 20  1  0  0  0  0
  2  7  1  0  0  0  0
  4 12  1  0  0  0  0
  5 11  1  6  0  0  0
  5 18  1  0  0  0  0
  6  9  2  0  0  0  0
  7  4  2  0  0  0  0
  7  5  1  0  0  0  0
  9  4  1  0  0  0  0
 10 14  1  0  0  0  0
 10 15  1  1  0  0  0
 12  8  1  0  0  0  0
 13 15  1  0  0  0  0
 14  3  1  1  0  0  0
 16  6  1  0  0  0  0
 17  6  1  0  0  0  0
 17  2  2  0  0  0  0
 18  8  1  1  0  0  0
 18 14  1  0  0  0  0
 19 13  1  0  0  0  0
 20 11  1  6  0  0  0
 20 10  1  0  0  0  0
 21  1  1  6  0  0  0
 22 24  1  6  0  0  0
 22 21  1  0  0  0  0
 23 26  1  0  0  0  0
 26 25  1  6  0  0  0
 26 22  1  0  0  0  0
 26 21  1  0  0  0  0
 27 23  2  0  0  0  0
 28 23  1  0  0  0  0
 28 24  1  0  0  0  0
M  END
>  <MODEL>
3

>  <REMARK>
 VINA RESULT:      -7.3      2.768      4.652
  Name = 
  1 active torsions:
  status: ('A' for Active; 'I' for Inactive)
    1  A    between atoms: C_1  and  C_2
                            x       y       z     vdW  Elec       q    Type
                         _______ _______ _______ _____ _____    ______ ____

>  <TORSDO>
F 1

$$$$
=
 OpenBabel11052418143D

 28 33  0  0  1  0  0  0  0  0999 V2000
  188.8950  174.2600  142.2820 C   0  0  2  0  0  3  0  0  0  0  0  0
  188.1030  177.5010  146.3270 C   0  0  0  0  0  3  0  0  0  0  0  0
  185.4390  177.5310  140.7070 C   0  0  0  0  0  1  0  0  0  0  0  0
  186.2030  178.8100  145.5720 C   0  0  0  0  0  0  0  0  0  0  0  0
  187.5140  177.4770  143.8590 C   0  0  1  0  0  3  0  0  0  0  0  0
  186.8350  178.8190  147.9110 C   0  0  0  0  0  0  0  0  0  0  0  0
  187.2430  177.8990  145.2900 C   0  0  0  0  0  0  0  0  0  0  0  0
  185.8970  179.0460  143.1180 C   0  0  0  0  0  2  0  0  0  0  0  0
  185.9940  179.2490  146.8830 C   0  0  0  0  0  3  0  0  0  0  0  0
  187.2400  175.9730  141.4110 C   0  0  1  0  0  3  0  0  0  0  0  0
  187.9850  176.0280  143.7950 C   0  0  0  0  0  2  0  0  0  0  0  0
  185.2760  179.2760  144.4910 C   0  0  0  0  0  2  0  0  0  0  0  0
  188.5330  174.6000  139.8100 C   0  0  0  0  0  2  0  0  0  0  0  0
  186.6740  177.3920  141.5930 C   0  0  2  0  0  3  0  0  0  0  0  0
  187.6540  175.7650  140.0130 N   0  0  0  0  0  2  0  0  0  0  0  0
  186.6310  179.2510  149.1780 F   0  0  0  0  0  0  0  0  0  0  0  0
  187.8940  177.9520  147.6320 C   0  0  0  0  0  3  0  0  0  0  0  0
  186.3220  177.6490  143.0030 N   0  0  1  0  0  0  0  0  0  0  0  0
  188.4820  173.5950  140.9650 C   0  0  0  0  0  2  0  0  0  0  0  0
  188.4060  175.7130  142.3740 C   0  0  1  0  0  3  0  0  0  0  0  0
  190.4210  174.2240  142.4370 C   0  0  2  0  0  3  0  0  0  0  0  0
  191.0040  172.8710  142.8470 C   0  0  2  0  0  3  0  0  0  0  0  0
  190.0430  173.2990  144.8880 C   0  0  0  0  0  0  0  0  0  0  0  0
  190.0110  171.8790  143.0660 O   0  0  0  0  0  0  0  0  0  0  0  0
  192.2510  174.4480  144.2840 C   0  0  0  0  0  1  0  0  0  0  0  0
  190.8700  173.9770  143.8790 C   0  0  2  0  0  0  0  0  0  0  0  0
  189.4340  173.9290  145.8220 N   0  0  0  0  0  2  0  0  0  0  0  0
  189.6020  171.9800  144.4090 C   0  0  0  0  0  2  0  0  0  0  0  0
  1 19  1  6  0  0  0
  1 20  1  0  0  0  0
  2 17  1  0  0  0  0
  4  9  2  0  0  0  0
  5 11  1  1  0  0  0
  5  7  1  0  0  0  0
  6 16  1  0  0  0  0
  7  4  1  0  0  0  0
  7  2  2  0  0  0  0
  8 12  1  0  0  0  0
  9  6  1  0  0  0  0
 10 15  1  6  0  0  0
 10 14  1  0  0  0  0
 10 20  1  0  0  0  0
 12  4  1  0  0  0  0
 13 15  1  0  0  0  0
 13 19  1  0  0  0  0
 14  3  1  6  0  0  0
 14 18  1  0  0  0  0
 17  6  2  0  0  0  0
 18  8  1  6  0  0  0
 18  5  1  0  0  0  0
 20 11  1  1  0  0  0
 21  1  1  1  0  0  0
 21 22  1  0  0  0  0
 21 26  1  0  0  0  0
 22 24  1  1  0  0  0
 22 26  1  0  0  0  0
 23 27  2  0  0  0  0
 24 28  1  0  0  0  0
 26 25  1  1  0  0  0
 26 23  1  0  0  0  0
 28 23  1  0  0  0  0
M  END
>  <MODEL>
4

>  <REMARK>
 VINA RESULT:      -7.2      3.113      5.666
  Name = 
  1 active torsions:
  status: ('A' for Active; 'I' for Inactive)
    1  A    between atoms: C_1  and  C_2
                            x       y       z     vdW  Elec       q    Type
                         _______ _______ _______ _____ _____    ______ ____

>  <TORSDO>
F 1

$$$$
=
 OpenBabel11052418143D

 28 33  0  0  1  0  0  0  0  0999 V2000
  188.3910  176.6770  144.7450 C   0  0  2  0  0  3  0  0  0  0  0  0
  193.1410  176.1350  142.5920 C   0  0  0  0  0  3  0  0  0  0  0  0
  191.5930  176.5620  148.6010 C   0  0  0  0  0  1  0  0  0  0  0  0
  194.5460  175.7630  144.5360 C   0  0  0  0  0  0  0  0  0  0  0  0
  192.2280  176.7280  144.8850 C   0  0  1  0  0  3  0  0  0  0  0  0
  195.3750  175.2480  142.3170 C   0  0  0  0  0  0  0  0  0  0  0  0
  193.3070  176.1550  143.9860 C   0  0  0  0  0  0  0  0  0  0  0  0
  193.7560  176.6960  146.6980 C   0  0  0  0  0  2  0  0  0  0  0  0
  195.5660  175.2950  143.7000 C   0  0  0  0  0  3  0  0  0  0  0  0
  189.9940  176.7490  146.7100 C   0  0  1  0  0  3  0  0  0  0  0  0
  190.8400  176.3230  144.3980 C   0  0  0  0  0  2  0  0  0  0  0  0
  194.7730  175.7880  146.0170 C   0  0  0  0  0  2  0  0  0  0  0  0
  187.6970  177.6320  146.9730 C   0  0  0  0  0  2  0  0  0  0  0  0
  191.4420  177.0190  147.1520 C   0  0  2  0  0  3  0  0  0  0  0  0
  189.0550  177.5280  147.5360 N   0  0  0  0  0  2  0  0  0  0  0  0
  196.3670  174.7980  141.5120 F   0  0  0  0  0  0  0  0  0  0  0  0
  194.1670  175.6750  141.7630 C   0  0  0  0  0  3  0  0  0  0  0  0
  192.4040  176.3070  146.2900 N   0  0  1  0  0  0  0  0  0  0  0  0
  187.4000  176.5710  145.9100 C   0  0  0  0  0  2  0  0  0  0  0  0
  189.8000  177.0590  145.2200 C   0  0  1  0  0  3  0  0  0  0  0  0
  187.8980  177.7090  143.7240 C   0  0  2  0  0  3  0  0  0  0  0  0
  186.6930  177.2770  142.8870 C   0  0  2  0  0  3  0  0  0  0  0  0
  188.1680  175.8420  141.8670 C   0  0  0  0  0  0  0  0  0  0  0  0
  186.2640  175.9530  143.1710 O   0  0  0  0  0  0  0  0  0  0  0  0
  188.1710  178.3150  141.2000 C   0  0  0  0  0  1  0  0  0  0  0  0
  188.0840  177.2520  142.2750 C   0  0  2  0  0  0  0  0  0  0  0  0
  189.2730  175.2770  141.5530 N   0  0  0  0  0  2  0  0  0  0  0  0
  187.0030  175.0830  142.3460 C   0  0  0  0  0  2  0  0  0  0  0  0
  1 20  1  0  0  0  0
  1 19  1  1  0  0  0
  2  7  1  0  0  0  0
  4 12  1  0  0  0  0
  5 11  1  6  0  0  0
  5 18  1  0  0  0  0
  6  9  2  0  0  0  0
  7  4  2  0  0  0  0
  7  5  1  0  0  0  0
  9  4  1  0  0  0  0
 10 14  1  0  0  0  0
 10 15  1  1  0  0  0
 12  8  1  0  0  0  0
 13 15  1  0  0  0  0
 14  3  1  1  0  0  0
 16  6  1  0  0  0  0
 17  6  1  0  0  0  0
 17  2  2  0  0  0  0
 18  8  1  1  0  0  0
 18 14  1  0  0  0  0
 19 13  1  0  0  0  0
 20 11  1  6  0  0  0
 20 10  1  0  0  0  0
 21  1  1  1  0  0  0
 22 24  1  1  0  0  0
 22 21  1  0  0  0  0
 23 26  1  0  0  0  0
 23 28  1  0  0  0  0
 26 25  1  6  0  0  0
 26 22  1  0  0  0  0
 26 21  1  0  0  0  0
 27 23  2  0  0  0  0
 28 24  1  0  0  0  0
M  END
>  <MODEL>
5

>  <REMARK>
 VINA RESULT:      -7.2      3.296      6.572
  Name = 
  1 active torsions:
  status: ('A' for Active; 'I' for Inactive)
    1  A    between atoms: C_1  and  C_2
                            x       y       z     vdW  Elec       q    Type
                         _______ _______ _______ _____ _____    ______ ____

>  <TORSDO>
F 1

$$$$
=
 OpenBabel11052418143D

 28 33  0  0  1  0  0  0  0  0999 V2000
  191.8060  175.2580  145.3540 C   0  0  2  0  0  3  0  0  0  0  0  0
  188.0500  176.2200  141.8250 C   0  0  0  0  0  3  0  0  0  0  0  0
  188.5150  178.2310  147.6920 C   0  0  0  0  0  1  0  0  0  0  0  0
  186.7120  177.9070  142.9450 C   0  0  0  0  0  0  0  0  0  0  0  0
  188.3320  176.5310  144.3270 C   0  0  1  0  0  3  0  0  0  0  0  0
  186.4630  177.5410  140.5630 C   0  0  0  0  0  0  0  0  0  0  0  0
  187.7210  176.9230  142.9950 C   0  0  0  0  0  0  0  0  0  0  0  0
  186.7540  177.9180  145.4290 C   0  0  0  0  0  2  0  0  0  0  0  0
  186.1030  178.2230  141.7260 C   0  0  0  0  0  3  0  0  0  0  0  0
  190.0990  176.6570  146.6040 C   0  0  1  0  0  3  0  0  0  0  0  0
  189.8080  176.1790  144.1700 C   0  0  0  0  0  2  0  0  0  0  0  0
  186.3160  178.6660  144.1750 C   0  0  0  0  0  2  0  0  0  0  0  0
  191.7450  175.3140  147.8740 C   0  0  0  0  0  2  0  0  0  0  0  0
  188.6320  177.1180  146.6530 C   0  0  2  0  0  3  0  0  0  0  0  0
  190.5050  176.1090  147.9110 N   0  0  0  0  0  2  0  0  0  0  0  0
  185.8660  177.8470  139.3860 F   0  0  0  0  0  0  0  0  0  0  0  0
  187.4300  176.5340  140.6130 C   0  0  0  0  0  3  0  0  0  0  0  0
  188.1820  177.6020  145.3340 N   0  0  1  0  0  0  0  0  0  0  0  0
  192.5950  175.5780  146.6280 C   0  0  0  0  0  2  0  0  0  0  0  0
  190.3220  175.6310  145.4850 C   0  0  1  0  0  3  0  0  0  0  0  0
  191.9310  173.7690  145.0140 C   0  0  2  0  0  3  0  0  0  0  0  0
  193.3300  173.3070  144.6020 C   0  0  2  0  0  3  0  0  0  0  0  0
  192.9390  174.4960  142.6770 C   0  0  0  0  0  0  0  0  0  0  0  0
  194.2750  174.3660  144.5570 O   0  0  0  0  0  0  0  0  0  0  0  0
  191.8850  172.1770  142.9450 C   0  0  0  0  0  1  0  0  0  0  0  0
  192.2630  173.5170  143.5400 C   0  0  2  0  0  0  0  0  0  0  0  0
  192.3180  175.1870  141.7950 N   0  0  0  0  0  2  0  0  0  0  0  0
  194.2100  174.9350  143.2710 C   0  0  0  0  0  2  0  0  0  0  0  0
  1 20  1  0  0  0  0
  1 19  1  1  0  0  0
  2  7  1  0  0  0  0
  4  7  2  0  0  0  0
  4 12  1  0  0  0  0
  5 11  1  6  0  0  0
  5 18  1  0  0  0  0
  6 17  1  0  0  0  0
  6  9  2  0  0  0  0
  7  5  1  0  0  0  0
  9  4  1  0  0  0  0
 10 14  1  0  0  0  0
 10 15  1  1  0  0  0
 12  8  1  0  0  0  0
 13 15  1  0  0  0  0
 14  3  1  1  0  0  0
 16  6  1  0  0  0  0
 17  2  2  0  0  0  0
 18  8  1  1  0  0  0
 18 14  1  0  0  0  0
 19 13  1  0  0  0  0
 20 11  1  6  0  0  0
 20 10  1  0  0  0  0
 21  1  1  6  0  0  0
 22 24  1  6  0  0  0
 22 21  1  0  0  0  0
 23 28  1  0  0  0  0
 23 26  1  0  0  0  0
 26 25  1  6  0  0  0
 26 22  1  0  0  0  0
 26 21  1  0  0  0  0
 27 23  2  0  0  0  0
 28 24  1  0  0  0  0
M  END
>  <MODEL>
6

>  <REMARK>
 VINA RESULT:      -7.0      2.258      3.686
  Name = 
  1 active torsions:
  status: ('A' for Active; 'I' for Inactive)
    1  A    between atoms: C_1  and  C_2
                            x       y       z     vdW  Elec       q    Type
                         _______ _______ _______ _____ _____    ______ ____

>  <TORSDO>
F 1

$$$$
=
 OpenBabel11052418143D

 28 33  0  0  1  0  0  0  0  0999 V2000
  189.9350  172.9230  141.1010 C   0  0  2  0  0  3  0  0  0  0  0  0
  191.3530  175.3650  145.5180 C   0  0  0  0  0  3  0  0  0  0  0  0
  186.7120  176.7290  141.6080 C   0  0  0  0  0  1  0  0  0  0  0  0
  189.5470  176.9580  145.8260 C   0  0  0  0  0  0  0  0  0  0  0  0
  189.8330  175.8770  143.5510 C   0  0  1  0  0  3  0  0  0  0  0  0
  191.0520  176.4540  147.6580 C   0  0  0  0  0  0  0  0  0  0  0  0
  190.2280  176.0320  145.0070 C   0  0  0  0  0  0  0  0  0  0  0  0
  188.3300  177.6970  143.7900 C   0  0  0  0  0  2  0  0  0  0  0  0
  189.9520  177.1490  147.1510 C   0  0  0  0  0  3  0  0  0  0  0  0
  188.3680  174.9110  141.2610 C   0  0  1  0  0  3  0  0  0  0  0  0
  190.0010  174.4330  143.0900 C   0  0  0  0  0  2  0  0  0  0  0  0
  188.3550  177.7070  145.3140 C   0  0  0  0  0  2  0  0  0  0  0  0
  188.6760  173.7690  139.0870 C   0  0  0  0  0  2  0  0  0  0  0  0
  188.1580  176.3110  141.8630 C   0  0  2  0  0  3  0  0  0  0  0  0
  188.1510  174.9450  139.8040 N   0  0  0  0  0  2  0  0  0  0  0  0
  191.4430  176.6460  148.9400 F   0  0  0  0  0  0  0  0  0  0  0  0
  191.7570  175.5690  146.8390 C   0  0  0  0  0  3  0  0  0  0  0  0
  188.4430  176.3170  143.3100 N   0  0  1  0  0  0  0  0  0  0  0  0
  188.9290  172.5670  140.0000 C   0  0  0  0  0  2  0  0  0  0  0  0
  189.7630  174.3660  141.5950 C   0  0  1  0  0  3  0  0  0  0  0  0
  191.3670  172.7230  140.5920 C   0  0  2  0  0  3  0  0  0  0  0  0
  191.7620  171.2740  140.3000 C   0  0  2  0  0  3  0  0  0  0  0  0
  191.7210  171.0140  142.5810 C   0  0  0  0  0  0  0  0  0  0  0  0
  190.7320  170.3450  140.6040 O   0  0  0  0  0  0  0  0  0  0  0  0
  193.7480  172.1390  141.4910 C   0  0  0  0  0  1  0  0  0  0  0  0
  192.2480  171.9460  141.5740 C   0  0  2  0  0  0  0  0  0  0  0  0
  191.6410  171.3100  143.8250 N   0  0  0  0  0  2  0  0  0  0  0  0
  190.8710  169.9880  141.9590 C   0  0  0  0  0  2  0  0  0  0  0  0
  1 19  1  6  0  0  0
  1 20  1  0  0  0  0
  2 17  1  0  0  0  0
  4  9  2  0  0  0  0
  5 11  1  1  0  0  0
  5  7  1  0  0  0  0
  6 16  1  0  0  0  0
  7  2  2  0  0  0  0
  7  4  1  0  0  0  0
  8 12  1  0  0  0  0
  9  6  1  0  0  0  0
 10 15  1  6  0  0  0
 10 20  1  0  0  0  0
 10 14  1  0  0  0  0
 12  4  1  0  0  0  0
 13 15  1  0  0  0  0
 13 19  1  0  0  0  0
 14  3  1  1  0  0  0
 14 18  1  0  0  0  0
 17  6  2  0  0  0  0
 18  5  1  0  0  0  0
 18  8  1  6  0  0  0
 20 11  1  1  0  0  0
 21  1  1  1  0  0  0
 21 26  1  0  0  0  0
 22 21  1  0  0  0  0
 22 24  1  1  0  0  0
 22 26  1  0  0  0  0
 23 27  2  0  0  0  0
 24 28  1  0  0  0  0
 26 25  1  1  0  0  0
 26 23  1  0  0  0  0
 28 23  1  0  0  0  0
M  END
>  <MODEL>
7

>  <REMARK>
 VINA RESULT:      -6.9      4.117      6.813
  Name = 
  1 active torsions:
  status: ('A' for Active; 'I' for Inactive)
    1  A    between atoms: C_1  and  C_2
                            x       y       z     vdW  Elec       q    Type
                         _______ _______ _______ _____ _____    ______ ____

>  <TORSDO>
F 1

$$$$
=
 OpenBabel11052418143D

 28 33  0  0  1  0  0  0  0  0999 V2000
  189.5130  175.1280  143.0900 C   0  0  2  0  0  3  0  0  0  0  0  0
  194.0290  174.3490  145.6360 C   0  0  0  0  0  3  0  0  0  0  0  0
  190.8580  170.4240  142.0000 C   0  0  0  0  0  1  0  0  0  0  0  0
  194.7370  172.1910  144.7780 C   0  0  0  0  0  0  0  0  0  0  0  0
  192.3230  172.8930  144.4490 C   0  0  1  0  0  3  0  0  0  0  0  0
  196.3120  173.6120  145.9500 C   0  0  0  0  0  0  0  0  0  0  0  0
  193.7350  173.1740  144.9260 C   0  0  0  0  0  0  0  0  0  0  0  0
  192.9590  170.6600  143.9620 C   0  0  0  0  0  2  0  0  0  0  0  0
  196.0240  172.4240  145.2740 C   0  0  0  0  0  3  0  0  0  0  0  0
  190.0990  172.7060  142.6200 C   0  0  1  0  0  3  0  0  0  0  0  0
  191.6630  174.1600  143.9170 C   0  0  0  0  0  2  0  0  0  0  0  0
  194.4590  170.9140  144.0450 C   0  0  0  0  0  2  0  0  0  0  0  0
  187.7750  173.4870  142.2880 C   0  0  0  0  0  2  0  0  0  0  0  0
  190.8980  171.4820  143.1000 C   0  0  2  0  0  3  0  0  0  0  0  0
  188.6920  172.3370  142.3890 N   0  0  0  0  0  2  0  0  0  0  0  0
  197.5580  173.8300  146.4330 F   0  0  0  0  0  0  0  0  0  0  0  0
  195.3140  174.5700  146.1380 C   0  0  0  0  0  3  0  0  0  0  0  0
  192.2940  171.8430  143.4100 N   0  0  1  0  0  0  0  0  0  0  0  0
  188.4920  174.8070  141.9930 C   0  0  0  0  0  2  0  0  0  0  0  0
  190.2060  173.8650  143.6200 C   0  0  1  0  0  3  0  0  0  0  0  0
  188.8300  175.8610  144.2500 C   0  0  2  0  0  3  0  0  0  0  0  0
  188.4310  177.3100  143.9640 C   0  0  2  0  0  3  0  0  0  0  0  0
  190.6880  177.7320  144.0210 C   0  0  0  0  0  0  0  0  0  0  0  0
  188.8160  177.7480  142.6690 O   0  0  0  0  0  0  0  0  0  0  0  0
  189.4140  177.4630  146.2270 C   0  0  0  0  0  1  0  0  0  0  0  0
  189.6660  177.0200  144.8010 C   0  0  2  0  0  0  0  0  0  0  0  0
  191.9440  177.5410  144.1860 N   0  0  0  0  0  2  0  0  0  0  0  0
  190.1280  178.2490  142.7630 C   0  0  0  0  0  2  0  0  0  0  0  0
  1 19  1  6  0  0  0
  1 20  1  0  0  0  0
  2 17  1  0  0  0  0
  4  7  1  0  0  0  0
  4  9  2  0  0  0  0
  5 11  1  6  0  0  0
  5  7  1  0  0  0  0
  6 17  2  0  0  0  0
  6 16  1  0  0  0  0
  7  2  2  0  0  0  0
  8 12  1  0  0  0  0
  9  6  1  0  0  0  0
 10 15  1  1  0  0  0
 10 14  1  0  0  0  0
 10 20  1  0  0  0  0
 12  4  1  0  0  0  0
 13 15  1  0  0  0  0
 14  3  1  6  0  0  0
 14 18  1  0  0  0  0
 18  8  1  1  0  0  0
 18  5  1  0  0  0  0
 19 13  1  0  0  0  0
 20 11  1  6  0  0  0
 21  1  1  6  0  0  0
 21 26  1  0  0  0  0
 22 24  1  6  0  0  0
 22 21  1  0  0  0  0
 22 26  1  0  0  0  0
 23 27  2  0  0  0  0
 23 26  1  0  0  0  0
 24 28  1  0  0  0  0
 26 25  1  1  0  0  0
 28 23  1  0  0  0  0
M  END
>  <MODEL>
8

>  <REMARK>
 VINA RESULT:      -6.8      4.287      8.022
  Name = 
  1 active torsions:
  status: ('A' for Active; 'I' for Inactive)
    1  A    between atoms: C_1  and  C_2
                            x       y       z     vdW  Elec       q    Type
                         _______ _______ _______ _____ _____    ______ ____

>  <TORSDO>
F 1

$$$$
=
 OpenBabel11052418143D

 28 33  0  0  1  0  0  0  0  0999 V2000
  192.9020  175.4290  145.3180 C   0  0  2  0  0  3  0  0  0  0  0  0
  190.4460  173.5980  141.0630 C   0  0  0  0  0  3  0  0  0  0  0  0
  188.3560  177.5410  145.3960 C   0  0  0  0  0  1  0  0  0  0  0  0
  188.4140  174.9260  141.0320 C   0  0  0  0  0  0  0  0  0  0  0  0
  189.7740  174.8430  143.1700 C   0  0  1  0  0  3  0  0  0  0  0  0
  189.0900  173.6870  139.0610 C   0  0  0  0  0  0  0  0  0  0  0  0
  189.5690  174.4830  141.7110 C   0  0  0  0  0  0  0  0  0  0  0  0
  187.6110  175.8160  143.2080 C   0  0  0  0  0  2  0  0  0  0  0  0
  188.1920  174.5410  139.7060 C   0  0  0  0  0  3  0  0  0  0  0  0
  190.5690  176.4150  145.4550 C   0  0  1  0  0  3  0  0  0  0  0  0
  191.2540  175.0470  143.4800 C   0  0  0  0  0  2  0  0  0  0  0  0
  187.4420  175.8540  141.6930 C   0  0  0  0  0  2  0  0  0  0  0  0
  191.9820  176.3310  147.4850 C   0  0  0  0  0  2  0  0  0  0  0  0
  189.1060  176.2700  145.0030 C   0  0  2  0  0  3  0  0  0  0  0  0
  190.6390  176.5540  146.9200 N   0  0  0  0  0  2  0  0  0  0  0  0
  188.8670  173.3140  137.7790 F   0  0  0  0  0  0  0  0  0  0  0  0
  190.2120  173.2100  139.7420 C   0  0  0  0  0  3  0  0  0  0  0  0
  189.0170  176.0540  143.5470 N   0  0  1  0  0  0  0  0  0  0  0  0
  193.1020  176.4460  146.4470 C   0  0  0  0  0  2  0  0  0  0  0  0
  191.4190  175.2310  144.9750 C   0  0  1  0  0  3  0  0  0  0  0  0
  193.5220  174.0810  145.7050 C   0  0  2  0  0  3  0  0  0  0  0  0
  195.0500  174.0570  145.7630 C   0  0  2  0  0  3  0  0  0  0  0  0
  194.9400  174.2140  143.4740 C   0  0  0  0  0  0  0  0  0  0  0  0
  195.6420  175.2940  145.3920 O   0  0  0  0  0  0  0  0  0  0  0  0
  194.5260  171.9450  144.5890 C   0  0  0  0  0  1  0  0  0  0  0  0
  194.3320  173.4470  144.5710 C   0  0  2  0  0  0  0  0  0  0  0  0
  194.4460  174.2460  142.2930 N   0  0  0  0  0  2  0  0  0  0  0  0
  195.8090  175.2810  143.9940 C   0  0  0  0  0  2  0  0  0  0  0  0
  1 19  1  1  0  0  0
  2  7  1  0  0  0  0
  4 12  1  0  0  0  0
  4  7  2  0  0  0  0
  5 11  1  6  0  0  0
  5 18  1  0  0  0  0
  6  9  2  0  0  0  0
  6 17  1  0  0  0  0
  7  5  1  0  0  0  0
  9  4  1  0  0  0  0
 10 15  1  1  0  0  0
 12  8  1  0  0  0  0
 14  3  1  6  0  0  0
 14 10  1  0  0  0  0
 15 13  1  0  0  0  0
 16  6  1  0  0  0  0
 17  2  2  0  0  0  0
 18  8  1  1  0  0  0
 18 14  1  0  0  0  0
 19 13  1  0  0  0  0
 20 11  1  6  0  0  0
 20  1  1  0  0  0  0
 20 10  1  0  0  0  0
 21  1  1  6  0  0  0
 21 22  1  0  0  0  0
 22 24  1  6  0  0  0
 23 28  1  0  0  0  0
 23 26  1  0  0  0  0
 26 25  1  6  0  0  0
 26 21  1  0  0  0  0
 26 22  1  0  0  0  0
 27 23  2  0  0  0  0
 28 24  1  0  0  0  0
M  END
>  <MODEL>
9

>  <REMARK>
 VINA RESULT:      -6.7      2.774      4.196
  Name = 
  1 active torsions:
  status: ('A' for Active; 'I' for Inactive)
    1  A    between atoms: C_1  and  C_2
                            x       y       z     vdW  Elec       q    Type
                         _______ _______ _______ _____ _____    ______ ____

>  <TORSDO>
F 1

$$$$
