=
 OpenBabel11052419143D

 32 37  0  0  1  0  0  0  0  0999 V2000
  188.9070  177.0740  144.8800 C   0  0  0  0  0  0  0  0  0  0  0  0
  186.3850  177.4290  144.5860 C   0  0  1  0  0  3  0  0  0  0  0  0
  190.0460  177.0390  145.6970 C   0  0  0  0  0  3  0  0  0  0  0  0
  187.6180  177.2200  145.4710 C   0  0  0  0  0  0  0  0  0  0  0  0
  185.5370  178.6760  144.9390 C   0  0  2  0  0  3  0  0  0  0  0  0
  184.6810  178.1550  139.8710 C   0  0  0  0  0  2  0  0  0  0  0  0
  186.7340  177.5650  143.0920 C   0  0  1  0  0  3  0  0  0  0  0  0
  183.1890  178.5560  141.8650 C   0  0  0  0  0  2  0  0  0  0  0  0
  184.5170  178.6340  142.6290 C   0  0  1  0  0  3  0  0  0  0  0  0
  185.1630  178.8350  146.4070 C   0  0  2  0  0  3  0  0  0  0  0  0
  187.5090  177.0770  146.8830 C   0  0  0  0  0  0  0  0  0  0  0  0
  184.2390  178.6440  144.1300 C   0  0  0  0  0  2  0  0  0  0  0  0
  186.2240  176.8580  147.6420 C   0  0  0  0  0  2  0  0  0  0  0  0
  188.6660  177.0030  147.6640 C   0  0  0  0  0  3  0  0  0  0  0  0
  187.7930  176.5650  142.6870 C   0  0  0  0  0  2  0  0  0  0  0  0
  186.0850  179.6370  147.0840 O   0  0  0  0  0  1  0  0  0  0  0  0
  189.0860  176.9750  143.3770 C   0  0  2  0  0  3  0  0  0  0  0  0
  185.4670  177.4900  142.2340 C   0  0  1  0  0  3  0  0  0  0  0  0
  184.9480  177.4920  147.0940 C   0  0  0  0  0  2  0  0  0  0  0  0
  189.9270  177.0200  147.0810 C   0  0  0  0  0  3  0  0  0  0  0  0
  183.3130  177.8870  140.4900 C   0  0  0  0  0  2  0  0  0  0  0  0
  185.8090  177.5730  140.7340 C   0  0  0  0  0  2  0  0  0  0  0  0
  192.5050  175.6600  142.3540 C   0  0  0  0  0  0  0  0  0  0  0  0
  193.8840  176.1560  142.0880 C   0  0  0  0  0  1  0  0  0  0  0  0
  190.1960  176.0450  142.9680 C   0  0  0  0  0  0  0  0  0  0  0  0
  192.2420  174.3320  142.2320 N   0  0  0  0  0  0  0  0  0  0  0  0
  189.9570  174.6710  142.8330 C   0  0  0  0  0  3  0  0  0  0  0  0
  191.4830  176.5460  142.7260 C   0  0  0  0  0  0  0  0  0  0  0  0
  191.7440  177.9080  142.8560 O   0  0  0  0  0  1  0  0  0  0  0  0
  191.0020  173.8230  142.4650 C   0  0  0  0  0  0  0  0  0  0  0  0
  188.9530  172.2370  142.7200 C   0  0  0  0  0  1  0  0  0  0  0  0
  190.7090  172.0700  142.2880 S   0  0  0  0  0  0  0  0  0  0  0  0
  1  4  2  0  0  0  0
  1  3  1  0  0  0  0
  2  5  1  0  0  0  0
  2  4  1  1  0  0  0
  3 20  2  0  0  0  0
  4 11  1  0  0  0  0
  5 12  1  6  0  0  0
  5 10  1  0  0  0  0
  6 21  1  0  0  0  0
  6 22  1  0  0  0  0
  7 15  1  6  0  0  0
  7  2  1  0  0  0  0
  9  8  1  6  0  0  0
  9 12  1  0  0  0  0
 10 16  1  1  0  0  0
 10 19  1  0  0  0  0
 11 13  1  0  0  0  0
 11 14  2  0  0  0  0
 15 17  1  0  0  0  0
 17 25  1  1  0  0  0
 17  1  1  0  0  0  0
 18 22  1  6  0  0  0
 18  9  1  0  0  0  0
 18  7  1  0  0  0  0
 19 13  1  0  0  0  0
 20 14  1  0  0  0  0
 21  8  1  0  0  0  0
 23 28  1  0  0  0  0
 24 23  1  0  0  0  0
 26 23  2  0  0  0  0
 26 30  1  0  0  0  0
 27 25  1  0  0  0  0
 28 29  1  0  0  0  0
 28 25  2  0  0  0  0
 30 27  2  0  0  0  0
 32 30  1  0  0  0  0
 32 31  1  0  0  0  0
M  END
>  <MODEL>
1

>  <REMARK>
 VINA RESULT:      -8.7      0.000      0.000
  Name = 
  2 active torsions:
  status: ('A' for Active; 'I' for Inactive)
    1  A    between atoms: S_15  and  C_26
    2  A    between atoms: C_16  and  C_27
                            x       y       z     vdW  Elec       q    Type
                         _______ _______ _______ _____ _____    ______ ____

>  <TORSDO>
F 2

$$$$
=
 OpenBabel11052419143D

 32 37  0  0  1  0  0  0  0  0999 V2000
  191.0750  175.4160  144.1980 C   0  0  0  0  0  0  0  0  0  0  0  0
  188.6460  176.1860  144.4810 C   0  0  1  0  0  3  0  0  0  0  0  0
  192.3170  175.0750  144.7490 C   0  0  0  0  0  3  0  0  0  0  0  0
  189.9610  175.6510  145.0560 C   0  0  0  0  0  0  0  0  0  0  0  0
  188.1130  177.4680  145.1680 C   0  0  2  0  0  3  0  0  0  0  0  0
  186.2730  177.9380  140.3640 C   0  0  0  0  0  2  0  0  0  0  0  0
  188.7360  176.5180  142.9810 C   0  0  1  0  0  3  0  0  0  0  0  0
  185.2630  178.2170  142.6580 C   0  0  0  0  0  2  0  0  0  0  0  0
  186.6990  177.9660  143.1350 C   0  0  1  0  0  3  0  0  0  0  0  0
  188.0460  177.4320  146.6890 C   0  0  2  0  0  3  0  0  0  0  0  0
  190.0860  175.2910  146.4280 C   0  0  0  0  0  0  0  0  0  0  0  0
  186.7050  177.7660  144.6480 C   0  0  0  0  0  2  0  0  0  0  0  0
  188.9420  175.1400  147.3990 C   0  0  0  0  0  2  0  0  0  0  0  0
  191.3330  174.9160  146.9350 C   0  0  0  0  0  3  0  0  0  0  0  0
  189.5080  175.4530  142.2340 C   0  0  0  0  0  2  0  0  0  0  0  0
  189.2040  177.9630  147.2630 O   0  0  0  0  0  1  0  0  0  0  0  0
  190.9570  175.5450  142.6900 C   0  0  2  0  0  3  0  0  0  0  0  0
  187.3430  176.7770  142.4000 C   0  0  1  0  0  3  0  0  0  0  0  0
  187.7230  176.0400  147.2180 C   0  0  0  0  0  2  0  0  0  0  0  0
  192.4500  174.8410  146.1120 C   0  0  0  0  0  3  0  0  0  0  0  0
  185.0140  177.7770  141.2100 C   0  0  0  0  0  2  0  0  0  0  0  0
  187.4160  177.0590  140.8880 C   0  0  0  0  0  2  0  0  0  0  0  0
  193.8370  173.9320  140.8000 C   0  0  0  0  0  0  0  0  0  0  0  0
  195.2040  174.2610  140.3090 C   0  0  0  0  0  1  0  0  0  0  0  0
  191.7890  174.5420  141.9390 C   0  0  0  0  0  0  0  0  0  0  0  0
  193.3290  172.6920  140.5710 N   0  0  0  0  0  0  0  0  0  0  0  0
  191.2950  173.2560  141.6860 C   0  0  0  0  0  3  0  0  0  0  0  0
  193.0740  174.8850  141.4920 C   0  0  0  0  0  0  0  0  0  0  0  0
  193.5870  176.1570  141.7340 O   0  0  0  0  0  1  0  0  0  0  0  0
  192.0870  172.3360  140.9980 C   0  0  0  0  0  0  0  0  0  0  0  0
  190.2350  171.3100  139.4840 C   0  0  0  0  0  1  0  0  0  0  0  0
  191.4660  170.6940  140.6680 S   0  0  0  0  0  0  0  0  0  0  0  0
  1  3  2  0  0  0  0
  1  4  1  0  0  0  0
  2  4  1  1  0  0  0
  2  5  1  0  0  0  0
  3 20  1  0  0  0  0
  4 11  2  0  0  0  0
  5 12  1  6  0  0  0
  5 10  1  0  0  0  0
  6 22  1  0  0  0  0
  6 21  1  0  0  0  0
  7 15  1  6  0  0  0
  7  2  1  0  0  0  0
  9  8  1  6  0  0  0
  9 12  1  0  0  0  0
 10 19  1  0  0  0  0
 10 16  1  1  0  0  0
 11 14  1  0  0  0  0
 11 13  1  0  0  0  0
 15 17  1  0  0  0  0
 17 25  1  6  0  0  0
 17  1  1  0  0  0  0
 18 22  1  6  0  0  0
 18  7  1  0  0  0  0
 18  9  1  0  0  0  0
 19 13  1  0  0  0  0
 20 14  2  0  0  0  0
 21  8  1  0  0  0  0
 23 28  1  0  0  0  0
 24 23  1  0  0  0  0
 26 23  2  0  0  0  0
 26 30  1  0  0  0  0
 27 25  1  0  0  0  0
 28 29  1  0  0  0  0
 28 25  2  0  0  0  0
 30 27  2  0  0  0  0
 31 32  1  0  0  0  0
 32 30  1  0  0  0  0
M  END
>  <MODEL>
2

>  <REMARK>
 VINA RESULT:      -7.9      1.908      2.714
  Name = 
  2 active torsions:
  status: ('A' for Active; 'I' for Inactive)
    1  A    between atoms: S_15  and  C_26
    2  A    between atoms: C_16  and  C_27
                            x       y       z     vdW  Elec       q    Type
                         _______ _______ _______ _____ _____    ______ ____

>  <TORSDO>
F 2

$$$$
=
 OpenBabel11052419143D

 32 37  0  0  1  0  0  0  0  0999 V2000
  189.1860  177.1090  144.9920 C   0  0  0  0  0  0  0  0  0  0  0  0
  186.6840  177.3730  144.4970 C   0  0  1  0  0  3  0  0  0  0  0  0
  190.2590  177.1340  145.8930 C   0  0  0  0  0  3  0  0  0  0  0  0
  187.8520  177.2290  145.4780 C   0  0  0  0  0  0  0  0  0  0  0  0
  185.7740  178.6010  144.7490 C   0  0  2  0  0  3  0  0  0  0  0  0
  185.3230  177.9170  139.6480 C   0  0  0  0  0  2  0  0  0  0  0  0
  187.1410  177.4810  143.0310 C   0  0  1  0  0  3  0  0  0  0  0  0
  183.6710  178.3220  141.5110 C   0  0  0  0  0  2  0  0  0  0  0  0
  184.9340  178.4630  142.3710 C   0  0  1  0  0  3  0  0  0  0  0  0
  185.2830  178.7870  146.1790 C   0  0  2  0  0  3  0  0  0  0  0  0
  187.6390  177.1200  146.8820 C   0  0  0  0  0  0  0  0  0  0  0  0
  184.5420  178.5040  143.8450 C   0  0  0  0  0  2  0  0  0  0  0  0
  186.3070  176.8790  147.5480 C   0  0  0  0  0  2  0  0  0  0  0  0
  188.7340  177.1050  147.7500 C   0  0  0  0  0  3  0  0  0  0  0  0
  188.2580  176.5050  142.7360 C   0  0  0  0  0  2  0  0  0  0  0  0
  186.1260  179.6360  146.9000 O   0  0  0  0  0  1  0  0  0  0  0  0
  189.4810  176.9760  143.5090 C   0  0  2  0  0  3  0  0  0  0  0  0
  185.9470  177.3410  142.0820 C   0  0  1  0  0  3  0  0  0  0  0  0
  185.0580  177.4570  146.8870 C   0  0  0  0  0  2  0  0  0  0  0  0
  190.0360  177.1470  147.2640 C   0  0  0  0  0  3  0  0  0  0  0  0
  183.9210  177.6200  140.1700 C   0  0  0  0  0  2  0  0  0  0  0  0
  186.3990  177.3950  140.6100 C   0  0  0  0  0  2  0  0  0  0  0  0
  191.6200  173.8590  143.0870 C   0  0  0  0  0  0  0  0  0  0  0  0
  191.5260  172.3810  143.2510 C   0  0  0  0  0  1  0  0  0  0  0  0
  190.6470  176.0720  143.2130 C   0  0  0  0  0  0  0  0  0  0  0  0
  192.7850  174.4060  142.6510 N   0  0  0  0  0  0  0  0  0  0  0  0
  191.8630  176.6040  142.7620 C   0  0  0  0  0  3  0  0  0  0  0  0
  190.5230  174.6840  143.3770 C   0  0  0  0  0  0  0  0  0  0  0  0
  189.3240  174.1330  143.8220 O   0  0  0  0  0  1  0  0  0  0  0  0
  192.9270  175.7480  142.4810 C   0  0  0  0  0  0  0  0  0  0  0  0
  195.3140  176.0410  143.4770 C   0  0  0  0  0  1  0  0  0  0  0  0
  194.4820  176.4160  141.9080 S   0  0  0  0  0  0  0  0  0  0  0  0
  1  4  2  0  0  0  0
  1  3  1  0  0  0  0
  2  5  1  0  0  0  0
  2  4  1  1  0  0  0
  3 20  2  0  0  0  0
  4 11  1  0  0  0  0
  5 12  1  6  0  0  0
  5 10  1  0  0  0  0
  6 21  1  0  0  0  0
  6 22  1  0  0  0  0
  7 15  1  6  0  0  0
  7  2  1  0  0  0  0
  9  8  1  6  0  0  0
  9 12  1  0  0  0  0
 10 19  1  0  0  0  0
 10 16  1  1  0  0  0
 11 13  1  0  0  0  0
 11 14  2  0  0  0  0
 15 17  1  0  0  0  0
 17 25  1  1  0  0  0
 17  1  1  0  0  0  0
 18 22  1  6  0  0  0
 18  9  1  0  0  0  0
 18  7  1  0  0  0  0
 19 13  1  0  0  0  0
 20 14  1  0  0  0  0
 21  8  1  0  0  0  0
 23 24  1  0  0  0  0
 23 28  1  0  0  0  0
 25 28  2  0  0  0  0
 26 23  2  0  0  0  0
 27 25  1  0  0  0  0
 28 29  1  0  0  0  0
 30 26  1  0  0  0  0
 30 27  2  0  0  0  0
 32 30  1  0  0  0  0
 32 31  1  0  0  0  0
M  END
>  <MODEL>
3

>  <REMARK>
 VINA RESULT:      -7.8      1.467      2.234
  Name = 
  2 active torsions:
  status: ('A' for Active; 'I' for Inactive)
    1  A    between atoms: S_15  and  C_26
    2  A    between atoms: C_16  and  C_27
                            x       y       z     vdW  Elec       q    Type
                         _______ _______ _______ _____ _____    ______ ____

>  <TORSDO>
F 2

$$$$
=
 OpenBabel11052419143D

 32 37  0  0  1  0  0  0  0  0999 V2000
  190.8880  174.9510  143.7800 C   0  0  0  0  0  0  0  0  0  0  0  0
  188.5930  175.9920  144.2490 C   0  0  1  0  0  3  0  0  0  0  0  0
  192.1310  174.4860  144.2320 C   0  0  0  0  0  3  0  0  0  0  0  0
  189.8880  175.3250  144.7230 C   0  0  0  0  0  0  0  0  0  0  0  0
  188.2660  177.3380  144.9420 C   0  0  2  0  0  3  0  0  0  0  0  0
  186.0670  177.9160  140.3030 C   0  0  0  0  0  2  0  0  0  0  0  0
  188.5850  176.2820  142.7380 C   0  0  1  0  0  3  0  0  0  0  0  0
  185.3020  178.3490  142.6670 C   0  0  0  0  0  2  0  0  0  0  0  0
  186.7390  177.9500  143.0250 C   0  0  1  0  0  3  0  0  0  0  0  0
  188.3310  177.3400  146.4640 C   0  0  2  0  0  3  0  0  0  0  0  0
  190.0950  174.9800  146.0900 C   0  0  0  0  0  0  0  0  0  0  0  0
  186.8580  177.7800  144.5370 C   0  0  0  0  0  2  0  0  0  0  0  0
  189.0320  174.9770  147.1600 C   0  0  0  0  0  2  0  0  0  0  0  0
  191.3340  174.4790  146.4980 C   0  0  0  0  0  3  0  0  0  0  0  0
  189.1670  175.1240  141.9580 C   0  0  0  0  0  2  0  0  0  0  0  0
  189.5860  177.7500  146.9190 O   0  0  0  0  0  1  0  0  0  0  0  0
  190.6520  175.0630  142.2850 C   0  0  2  0  0  3  0  0  0  0  0  0
  187.1820  176.6830  142.2720 C   0  0  1  0  0  3  0  0  0  0  0  0
  187.9070  176.0030  147.0580 C   0  0  0  0  0  2  0  0  0  0  0  0
  192.3590  174.2650  145.5840 C   0  0  0  0  0  3  0  0  0  0  0  0
  184.8790  177.9110  141.2590 C   0  0  0  0  0  2  0  0  0  0  0  0
  187.1500  176.9250  140.7520 C   0  0  0  0  0  2  0  0  0  0  0  0
  191.4240  171.6350  140.8290 C   0  0  0  0  0  0  0  0  0  0  0  0
  190.9320  170.2310  140.8970 C   0  0  0  0  0  1  0  0  0  0  0  0
  191.3000  173.9590  141.4940 C   0  0  0  0  0  0  0  0  0  0  0  0
  192.4800  171.9310  140.0260 N   0  0  0  0  0  0  0  0  0  0  0  0
  192.3910  174.2310  140.6580 C   0  0  0  0  0  3  0  0  0  0  0  0
  190.8100  172.6480  141.5810 C   0  0  0  0  0  0  0  0  0  0  0  0
  189.7260  172.3550  142.4050 O   0  0  0  0  0  1  0  0  0  0  0  0
  192.9700  173.1960  139.9230 C   0  0  0  0  0  0  0  0  0  0  0  0
  194.5590  175.2140  139.5040 C   0  0  0  0  0  1  0  0  0  0  0  0
  194.3630  173.5300  138.8560 S   0  0  0  0  0  0  0  0  0  0  0  0
  1  3  2  0  0  0  0
  1  4  1  0  0  0  0
  2  4  1  1  0  0  0
  2  5  1  0  0  0  0
  3 20  1  0  0  0  0
  4 11  2  0  0  0  0
  5 12  1  1  0  0  0
  5 10  1  0  0  0  0
  6 22  1  0  0  0  0
  6 21  1  0  0  0  0
  7 15  1  6  0  0  0
  7  2  1  0  0  0  0
  9  8  1  1  0  0  0
  9 12  1  0  0  0  0
 10 16  1  6  0  0  0
 10 19  1  0  0  0  0
 11 14  1  0  0  0  0
 11 13  1  0  0  0  0
 15 17  1  0  0  0  0
 17 25  1  6  0  0  0
 17  1  1  0  0  0  0
 18 22  1  6  0  0  0
 18  7  1  0  0  0  0
 18  9  1  0  0  0  0
 19 13  1  0  0  0  0
 20 14  2  0  0  0  0
 21  8  1  0  0  0  0
 23 24  1  0  0  0  0
 23 28  1  0  0  0  0
 25 28  2  0  0  0  0
 26 23  2  0  0  0  0
 27 25  1  0  0  0  0
 28 29  1  0  0  0  0
 30 26  1  0  0  0  0
 30 27  2  0  0  0  0
 32 31  1  0  0  0  0
 32 30  1  0  0  0  0
M  END
>  <MODEL>
4

>  <REMARK>
 VINA RESULT:      -7.5      2.422      3.634
  Name = 
  2 active torsions:
  status: ('A' for Active; 'I' for Inactive)
    1  A    between atoms: S_15  and  C_26
    2  A    between atoms: C_16  and  C_27
                            x       y       z     vdW  Elec       q    Type
                         _______ _______ _______ _____ _____    ______ ____

>  <TORSDO>
F 2

$$$$
=
 OpenBabel11052419143D

 32 37  0  0  1  0  0  0  0  0999 V2000
  193.4810  175.9480  144.5500 C   0  0  0  0  0  0  0  0  0  0  0  0
  191.0650  175.0940  144.4560 C   0  0  1  0  0  3  0  0  0  0  0  0
  194.5030  176.6430  145.2110 C   0  0  0  0  0  3  0  0  0  0  0  0
  192.2480  175.7000  145.2190 C   0  0  0  0  0  0  0  0  0  0  0  0
  189.7490  175.9060  144.5490 C   0  0  2  0  0  3  0  0  0  0  0  0
  189.3070  173.6010  139.9470 C   0  0  0  0  0  2  0  0  0  0  0  0
  191.3470  174.9180  142.9530 C   0  0  1  0  0  3  0  0  0  0  0  0
  187.7520  173.8980  141.9100 C   0  0  0  0  0  2  0  0  0  0  0  0
  188.8960  174.7540  142.4690 C   0  0  1  0  0  3  0  0  0  0  0  0
  189.3150  176.3150  145.9500 C   0  0  2  0  0  3  0  0  0  0  0  0
  192.1850  175.9480  146.6200 C   0  0  0  0  0  0  0  0  0  0  0  0
  188.6130  175.0880  143.9310 C   0  0  0  0  0  2  0  0  0  0  0  0
  191.1120  175.4380  147.5500 C   0  0  0  0  0  2  0  0  0  0  0  0
  193.2410  176.6060  147.2550 C   0  0  0  0  0  3  0  0  0  0  0  0
  192.7460  174.3920  142.7200 C   0  0  0  0  0  2  0  0  0  0  0  0
  189.7780  177.5930  146.2730 O   0  0  0  0  0  1  0  0  0  0  0  0
  193.7140  175.4960  143.1200 C   0  0  2  0  0  3  0  0  0  0  0  0
  190.2600  174.0630  142.2960 C   0  0  1  0  0  3  0  0  0  0  0  0
  189.6990  175.2780  146.9970 C   0  0  0  0  0  2  0  0  0  0  0  0
  194.3790  176.9840  146.5520 C   0  0  0  0  0  3  0  0  0  0  0  0
  188.1840  172.9730  140.7660 C   0  0  0  0  0  2  0  0  0  0  0  0
  190.5590  173.8360  140.8020 C   0  0  0  0  0  2  0  0  0  0  0  0
  197.1560  175.1420  141.5420 C   0  0  0  0  0  0  0  0  0  0  0  0
  197.9410  175.6650  140.3890 C   0  0  0  0  0  1  0  0  0  0  0  0
  195.1270  175.0500  142.8580 C   0  0  0  0  0  0  0  0  0  0  0  0
  197.7330  174.2450  142.3850 N   0  0  0  0  0  0  0  0  0  0  0  0
  195.7490  174.1260  143.7080 C   0  0  0  0  0  3  0  0  0  0  0  0
  195.8370  175.5650  141.7630 C   0  0  0  0  0  0  0  0  0  0  0  0
  195.2390  176.4860  140.9070 O   0  0  0  0  0  1  0  0  0  0  0  0
  197.0650  173.7350  143.4550 C   0  0  0  0  0  0  0  0  0  0  0  0
  196.8190  173.0070  145.9420 C   0  0  0  0  0  1  0  0  0  0  0  0
  197.8670  172.5560  144.5300 S   0  0  0  0  0  0  0  0  0  0  0  0
  1  3  2  0  0  0  0
  1  4  1  0  0  0  0
  2  5  1  0  0  0  0
  2  4  1  6  0  0  0
  3 20  1  0  0  0  0
  4 11  2  0  0  0  0
  5 12  1  1  0  0  0
  5 10  1  0  0  0  0
  6 21  1  0  0  0  0
  6 22  1  0  0  0  0
  7 15  1  1  0  0  0
  7  2  1  0  0  0  0
  9  8  1  1  0  0  0
  9 12  1  0  0  0  0
 10 16  1  1  0  0  0
 10 19  1  0  0  0  0
 11 14  1  0  0  0  0
 11 13  1  0  0  0  0
 15 17  1  0  0  0  0
 17 25  1  1  0  0  0
 17  1  1  0  0  0  0
 18 22  1  6  0  0  0
 18  9  1  0  0  0  0
 18  7  1  0  0  0  0
 19 13  1  0  0  0  0
 20 14  2  0  0  0  0
 21  8  1  0  0  0  0
 23 28  2  0  0  0  0
 23 26  1  0  0  0  0
 24 23  1  0  0  0  0
 25 27  2  0  0  0  0
 26 30  2  0  0  0  0
 28 25  1  0  0  0  0
 29 28  1  0  0  0  0
 30 27  1  0  0  0  0
 30 32  1  0  0  0  0
 32 31  1  0  0  0  0
M  END
>  <MODEL>
5

>  <REMARK>
 VINA RESULT:      -7.5      3.843      5.503
  Name = 
  2 active torsions:
  status: ('A' for Active; 'I' for Inactive)
    1  A    between atoms: S_15  and  C_26
    2  A    between atoms: C_16  and  C_27
                            x       y       z     vdW  Elec       q    Type
                         _______ _______ _______ _____ _____    ______ ____

>  <TORSDO>
F 2

$$$$
=
 OpenBabel11052419143D

 32 37  0  0  1  0  0  0  0  0999 V2000
  189.6050  174.0140  142.5350 C   0  0  0  0  0  0  0  0  0  0  0  0
  191.1830  175.3160  144.0800 C   0  0  1  0  0  3  0  0  0  0  0  0
  188.3240  173.7870  142.0130 C   0  0  0  0  0  3  0  0  0  0  0  0
  189.8370  175.1470  143.3680 C   0  0  0  0  0  0  0  0  0  0  0  0
  191.0850  175.5190  145.6120 C   0  0  2  0  0  3  0  0  0  0  0  0
  195.6840  173.2240  145.0920 C   0  0  0  0  0  2  0  0  0  0  0  0
  192.1270  174.1180  143.8730 C   0  0  1  0  0  3  0  0  0  0  0  0
  194.8670  175.2290  146.3860 C   0  0  0  0  0  2  0  0  0  0  0  0
  193.4920  174.7950  145.8600 C   0  0  1  0  0  3  0  0  0  0  0  0
  190.1040  176.5850  146.0830 C   0  0  2  0  0  3  0  0  0  0  0  0
  188.8230  176.1440  143.4410 C   0  0  0  0  0  0  0  0  0  0  0  0
  192.4670  175.8860  146.1580 C   0  0  0  0  0  2  0  0  0  0  0  0
  189.0090  177.5420  143.9750 C   0  0  0  0  0  2  0  0  0  0  0  0
  187.5690  175.9000  142.8730 C   0  0  0  0  0  3  0  0  0  0  0  0
  192.0860  173.6340  142.4400 C   0  0  0  0  0  2  0  0  0  0  0  0
  188.8540  176.0340  146.3750 O   0  0  0  0  0  1  0  0  0  0  0  0
  190.7100  173.0270  142.2100 C   0  0  2  0  0  3  0  0  0  0  0  0
  193.5400  174.4530  144.3600 C   0  0  1  0  0  3  0  0  0  0  0  0
  190.0110  177.7510  145.1070 C   0  0  0  0  0  2  0  0  0  0  0  0
  187.3070  174.7160  142.1930 C   0  0  0  0  0  3  0  0  0  0  0  0
  196.0390  174.6130  145.6120 C   0  0  0  0  0  2  0  0  0  0  0  0
  194.5060  173.2790  144.1100 C   0  0  0  0  0  2  0  0  0  0  0  0
  190.4640  170.6000  139.2920 C   0  0  0  0  0  0  0  0  0  0  0  0
  190.3820  169.1360  139.0310 C   0  0  0  0  0  1  0  0  0  0  0  0
  190.6270  172.4760  140.8120 C   0  0  0  0  0  0  0  0  0  0  0  0
  190.4550  171.4630  138.2420 N   0  0  0  0  0  0  0  0  0  0  0  0
  190.6160  173.3400  139.7080 C   0  0  0  0  0  3  0  0  0  0  0  0
  190.5490  171.0910  140.6030 C   0  0  0  0  0  0  0  0  0  0  0  0
  190.5560  170.2150  141.6850 O   0  0  0  0  0  1  0  0  0  0  0  0
  190.5260  172.8100  138.4210 C   0  0  0  0  0  0  0  0  0  0  0  0
  188.7370  174.2300  137.1720 C   0  0  0  0  0  1  0  0  0  0  0  0
  190.5140  173.9010  137.0060 S   0  0  0  0  0  0  0  0  0  0  0  0
  1  4  1  0  0  0  0
  2  4  1  1  0  0  0
  2  5  1  0  0  0  0
  3 20  1  0  0  0  0
  3  1  2  0  0  0  0
  4 11  2  0  0  0  0
  5 10  1  0  0  0  0
  5 12  1  6  0  0  0
  6 21  1  0  0  0  0
  7 15  1  6  0  0  0
  7  2  1  0  0  0  0
  7 18  1  0  0  0  0
  9 12  1  6  0  0  0
  9  8  1  0  0  0  0
 10 16  1  6  0  0  0
 11 13  1  0  0  0  0
 13 19  1  0  0  0  0
 14 11  1  0  0  0  0
 17 25  1  6  0  0  0
 17 15  1  0  0  0  0
 17  1  1  0  0  0  0
 18 22  1  1  0  0  0
 18  9  1  0  0  0  0
 19 10  1  0  0  0  0
 20 14  2  0  0  0  0
 21  8  1  0  0  0  0
 22  6  1  0  0  0  0
 23 28  1  0  0  0  0
 24 23  1  0  0  0  0
 26 30  1  0  0  0  0
 26 23  2  0  0  0  0
 27 25  1  0  0  0  0
 28 25  2  0  0  0  0
 28 29  1  0  0  0  0
 30 27  2  0  0  0  0
 32 31  1  0  0  0  0
 32 30  1  0  0  0  0
M  END
>  <MODEL>
6

>  <REMARK>
 VINA RESULT:      -7.3      3.442      7.176
  Name = 
  2 active torsions:
  status: ('A' for Active; 'I' for Inactive)
    1  A    between atoms: S_15  and  C_26
    2  A    between atoms: C_16  and  C_27
                            x       y       z     vdW  Elec       q    Type
                         _______ _______ _______ _____ _____    ______ ____

>  <TORSDO>
F 2

$$$$
=
 OpenBabel11052419143D

 32 37  0  0  1  0  0  0  0  0999 V2000
  191.9900  173.7770  142.5390 C   0  0  0  0  0  0  0  0  0  0  0  0
  190.7120  175.1530  144.2840 C   0  0  1  0  0  3  0  0  0  0  0  0
  193.1890  173.2380  142.0530 C   0  0  0  0  0  3  0  0  0  0  0  0
  191.9680  174.4120  143.8150 C   0  0  0  0  0  0  0  0  0  0  0  0
  190.9490  176.6200  144.7210 C   0  0  2  0  0  3  0  0  0  0  0  0
  186.0670  176.7420  143.0350 C   0  0  0  0  0  2  0  0  0  0  0  0
  189.6090  175.2050  143.2120 C   0  0  1  0  0  3  0  0  0  0  0  0
  187.2290  177.6250  145.0920 C   0  0  0  0  0  2  0  0  0  0  0  0
  188.4940  177.1120  144.3910 C   0  0  1  0  0  3  0  0  0  0  0  0
  192.0910  176.8480  145.7030 C   0  0  2  0  0  3  0  0  0  0  0  0
  193.1050  174.2600  144.6590 C   0  0  0  0  0  0  0  0  0  0  0  0
  189.6700  177.1640  145.3620 C   0  0  0  0  0  2  0  0  0  0  0  0
  193.1410  174.5520  146.1380 C   0  0  0  0  0  2  0  0  0  0  0  0
  194.2710  173.6780  144.1520 C   0  0  0  0  0  3  0  0  0  0  0  0
  189.4810  173.8780  142.4980 C   0  0  0  0  0  2  0  0  0  0  0  0
  193.2780  177.1650  145.0390 O   0  0  0  0  0  1  0  0  0  0  0  0
  190.7460  173.6860  141.6750 C   0  0  2  0  0  3  0  0  0  0  0  0
  188.2910  175.6990  143.8160 C   0  0  1  0  0  3  0  0  0  0  0  0
  192.2610  175.6810  146.6680 C   0  0  0  0  0  2  0  0  0  0  0  0
  194.3270  173.2020  142.8480 C   0  0  0  0  0  3  0  0  0  0  0  0
  185.9330  177.0310  144.5270 C   0  0  0  0  0  2  0  0  0  0  0  0
  187.1670  175.7060  142.7630 C   0  0  0  0  0  2  0  0  0  0  0  0
  190.3230  171.2220  138.8080 C   0  0  0  0  0  0  0  0  0  0  0  0
  190.0490  171.2130  137.3440 C   0  0  0  0  0  1  0  0  0  0  0  0
  190.6540  172.4020  140.8960 C   0  0  0  0  0  0  0  0  0  0  0  0
  190.5010  170.0420  139.4580 N   0  0  0  0  0  0  0  0  0  0  0  0
  190.8330  171.1680  141.5360 C   0  0  0  0  0  3  0  0  0  0  0  0
  190.3960  172.4310  139.5170 C   0  0  0  0  0  0  0  0  0  0  0  0
  190.2170  173.6450  138.8600 O   0  0  0  0  0  1  0  0  0  0  0  0
  190.7560  169.9890  140.7930 C   0  0  0  0  0  0  0  0  0  0  0  0
  192.3170  169.0460  142.6500 C   0  0  0  0  0  1  0  0  0  0  0  0
  190.9800  168.4110  141.5990 S   0  0  0  0  0  0  0  0  0  0  0  0
  1  4  1  0  0  0  0
  2  4  1  6  0  0  0
  2  5  1  0  0  0  0
  3  1  2  0  0  0  0
  3 20  1  0  0  0  0
  4 11  2  0  0  0  0
  5 12  1  1  0  0  0
  5 10  1  0  0  0  0
  6 21  1  0  0  0  0
  7 15  1  1  0  0  0
  7 18  1  0  0  0  0
  7  2  1  0  0  0  0
  9  8  1  1  0  0  0
  9 12  1  0  0  0  0
 10 16  1  6  0  0  0
 10 19  1  0  0  0  0
 11 13  1  0  0  0  0
 13 19  1  0  0  0  0
 14 11  1  0  0  0  0
 17 25  1  1  0  0  0
 17 15  1  0  0  0  0
 17  1  1  0  0  0  0
 18 22  1  6  0  0  0
 18  9  1  0  0  0  0
 20 14  2  0  0  0  0
 21  8  1  0  0  0  0
 22  6  1  0  0  0  0
 23 26  2  0  0  0  0
 23 28  1  0  0  0  0
 24 23  1  0  0  0  0
 25 27  1  0  0  0  0
 26 30  1  0  0  0  0
 28 25  2  0  0  0  0
 29 28  1  0  0  0  0
 30 27  2  0  0  0  0
 30 32  1  0  0  0  0
 32 31  1  0  0  0  0
M  END
>  <MODEL>
7

>  <REMARK>
 VINA RESULT:      -7.3      2.900      5.562
  Name = 
  2 active torsions:
  status: ('A' for Active; 'I' for Inactive)
    1  A    between atoms: S_15  and  C_26
    2  A    between atoms: C_16  and  C_27
                            x       y       z     vdW  Elec       q    Type
                         _______ _______ _______ _____ _____    ______ ____

>  <TORSDO>
F 2

$$$$
=
 OpenBabel11052419143D

 32 37  0  0  1  0  0  0  0  0999 V2000
  189.0560  174.9000  142.8420 C   0  0  0  0  0  0  0  0  0  0  0  0
  191.2580  173.7880  143.5390 C   0  0  1  0  0  3  0  0  0  0  0  0
  187.8710  174.8940  142.0940 C   0  0  0  0  0  3  0  0  0  0  0  0
  189.8830  173.7400  142.8670 C   0  0  0  0  0  0  0  0  0  0  0  0
  192.4350  173.3280  142.6430 C   0  0  2  0  0  3  0  0  0  0  0  0
  194.7150  176.7110  145.8120 C   0  0  0  0  0  2  0  0  0  0  0  0
  191.6340  175.1950  144.0390 C   0  0  1  0  0  3  0  0  0  0  0  0
  195.3020  174.3900  145.0170 C   0  0  0  0  0  2  0  0  0  0  0  0
  194.0540  174.5590  144.1400 C   0  0  1  0  0  3  0  0  0  0  0  0
  192.2470  171.9970  141.9260 C   0  0  2  0  0  3  0  0  0  0  0  0
  189.3540  172.5300  142.3330 C   0  0  0  0  0  0  0  0  0  0  0  0
  193.7010  173.2220  143.4950 C   0  0  0  0  0  2  0  0  0  0  0  0
  189.9170  171.1510  142.5690 C   0  0  0  0  0  2  0  0  0  0  0  0
  188.1480  172.5530  141.6270 C   0  0  0  0  0  3  0  0  0  0  0  0
  190.4510  175.8740  144.6910 C   0  0  0  0  0  2  0  0  0  0  0  0
  191.7290  172.1790  140.6420 O   0  0  0  0  0  1  0  0  0  0  0  0
  189.4370  176.1630  143.5930 C   0  0  2  0  0  3  0  0  0  0  0  0
  192.8720  175.1360  144.9390 C   0  0  1  0  0  3  0  0  0  0  0  0
  191.4270  171.0120  142.7480 C   0  0  0  0  0  2  0  0  0  0  0  0
  187.4260  173.7310  141.4770 C   0  0  0  0  0  3  0  0  0  0  0  0
  195.3670  175.3830  146.1840 C   0  0  0  0  0  2  0  0  0  0  0  0
  193.2260  176.5310  145.4870 C   0  0  0  0  0  2  0  0  0  0  0  0
  186.4820  178.5270  143.9760 C   0  0  0  0  0  0  0  0  0  0  0  0
  185.7500  179.5700  143.2050 C   0  0  0  0  0  1  0  0  0  0  0  0
  188.2550  176.8910  144.1740 C   0  0  0  0  0  0  0  0  0  0  0  0
  186.0690  178.2180  145.2340 N   0  0  0  0  0  0  0  0  0  0  0  0
  187.8050  176.5960  145.4680 C   0  0  0  0  0  3  0  0  0  0  0  0
  187.5870  177.8660  143.4190 C   0  0  0  0  0  0  0  0  0  0  0  0
  188.0160  178.1740  142.1300 O   0  0  0  0  0  1  0  0  0  0  0  0
  186.6990  177.2730  145.9830 C   0  0  0  0  0  0  0  0  0  0  0  0
  185.0620  178.3840  147.6750 C   0  0  0  0  0  1  0  0  0  0  0  0
  186.1180  176.9080  147.6320 S   0  0  0  0  0  0  0  0  0  0  0  0
  1  4  1  0  0  0  0
  1 17  1  0  0  0  0
  2  4  1  6  0  0  0
  2  7  1  0  0  0  0
  3  1  2  0  0  0  0
  5 12  1  1  0  0  0
  5  2  1  0  0  0  0
  6 21  1  0  0  0  0
  7 15  1  1  0  0  0
  7 18  1  0  0  0  0
  8 21  1  0  0  0  0
  9 12  1  1  0  0  0
  9 18  1  0  0  0  0
  9  8  1  0  0  0  0
 10 16  1  6  0  0  0
 10  5  1  0  0  0  0
 10 19  1  0  0  0  0
 11 13  1  0  0  0  0
 11  4  2  0  0  0  0
 13 19  1  0  0  0  0
 14 11  1  0  0  0  0
 17 25  1  1  0  0  0
 17 15  1  0  0  0  0
 18 22  1  6  0  0  0
 20 14  2  0  0  0  0
 20  3  1  0  0  0  0
 22  6  1  0  0  0  0
 23 26  1  0  0  0  0
 24 23  1  0  0  0  0
 25 27  2  0  0  0  0
 26 30  2  0  0  0  0
 27 30  1  0  0  0  0
 28 23  2  0  0  0  0
 28 25  1  0  0  0  0
 29 28  1  0  0  0  0
 30 32  1  0  0  0  0
 32 31  1  0  0  0  0
M  END
>  <MODEL>
8

>  <REMARK>
 VINA RESULT:      -7.3      3.144      8.091
  Name = 
  2 active torsions:
  status: ('A' for Active; 'I' for Inactive)
    1  A    between atoms: S_15  and  C_26
    2  A    between atoms: C_16  and  C_27
                            x       y       z     vdW  Elec       q    Type
                         _______ _______ _______ _____ _____    ______ ____

>  <TORSDO>
F 2

$$$$
=
 OpenBabel11052419143D

 32 37  0  0  1  0  0  0  0  0999 V2000
  192.0050  175.1270  145.5020 C   0  0  0  0  0  0  0  0  0  0  0  0
  193.3460  173.5500  143.9900 C   0  0  1  0  0  3  0  0  0  0  0  0
  191.9570  176.1070  146.5030 C   0  0  0  0  0  3  0  0  0  0  0  0
  193.2620  174.7340  144.9590 C   0  0  0  0  0  0  0  0  0  0  0  0
  194.3570  172.4500  144.3960 C   0  0  2  0  0  3  0  0  0  0  0  0
  190.8160  169.7760  141.7510 C   0  0  0  0  0  2  0  0  0  0  0  0
  191.9970  172.8330  143.7980 C   0  0  1  0  0  3  0  0  0  0  0  0
  193.3380  169.8390  141.7260 C   0  0  0  0  0  2  0  0  0  0  0  0
  193.1560  170.7990  142.9090 C   0  0  1  0  0  3  0  0  0  0  0  0
  195.7560  172.9300  144.7610 C   0  0  2  0  0  3  0  0  0  0  0  0
  194.4050  175.5240  145.2740 C   0  0  0  0  0  0  0  0  0  0  0  0
  194.4950  171.4480  143.2480 C   0  0  0  0  0  2  0  0  0  0  0  0
  195.7240  175.4820  144.5450 C   0  0  0  0  0  2  0  0  0  0  0  0
  194.3100  176.5210  146.2480 C   0  0  0  0  0  3  0  0  0  0  0  0
  190.8650  173.8290  143.6780 C   0  0  0  0  0  2  0  0  0  0  0  0
  195.8810  173.1370  146.1370 O   0  0  0  0  0  1  0  0  0  0  0  0
  190.7060  174.4950  145.0370 C   0  0  2  0  0  3  0  0  0  0  0  0
  192.0690  171.8510  142.6250 C   0  0  1  0  0  3  0  0  0  0  0  0
  196.1750  174.1500  143.9500 C   0  0  0  0  0  2  0  0  0  0  0  0
  193.1040  176.7900  146.8860 C   0  0  0  0  0  3  0  0  0  0  0  0
  192.0670  169.6570  140.8860 C   0  0  0  0  0  2  0  0  0  0  0  0
  190.7100  171.1660  142.3920 C   0  0  0  0  0  2  0  0  0  0  0  0
  187.6530  176.5220  146.0560 C   0  0  0  0  0  0  0  0  0  0  0  0
  186.7430  176.7050  147.2210 C   0  0  0  0  0  1  0  0  0  0  0  0
  189.5530  175.4610  144.9960 C   0  0  0  0  0  0  0  0  0  0  0  0
  187.4430  177.2510  144.9290 N   0  0  0  0  0  0  0  0  0  0  0  0
  189.3090  176.2280  143.8490 C   0  0  0  0  0  3  0  0  0  0  0  0
  188.7170  175.6090  146.1130 C   0  0  0  0  0  0  0  0  0  0  0  0
  188.9420  174.8590  147.2640 O   0  0  0  0  0  1  0  0  0  0  0  0
  188.2430  177.1270  143.8350 C   0  0  0  0  0  0  0  0  0  0  0  0
  186.3140  178.6660  143.0090 C   0  0  0  0  0  1  0  0  0  0  0  0
  187.9210  178.1070  142.3770 S   0  0  0  0  0  0  0  0  0  0  0  0
  1  3  1  0  0  0  0
  2  5  1  0  0  0  0
  2  4  1  1  0  0  0
  3 20  2  0  0  0  0
  4 11  1  0  0  0  0
  4  1  2  0  0  0  0
  5 12  1  6  0  0  0
  5 10  1  0  0  0  0
  6 22  1  0  0  0  0
  7 15  1  6  0  0  0
  7  2  1  0  0  0  0
  9  8  1  6  0  0  0
  9 12  1  0  0  0  0
 10 16  1  1  0  0  0
 11 14  2  0  0  0  0
 13 11  1  0  0  0  0
 14 20  1  0  0  0  0
 15 17  1  0  0  0  0
 17 25  1  6  0  0  0
 17  1  1  0  0  0  0
 18 22  1  1  0  0  0
 18  9  1  0  0  0  0
 18  7  1  0  0  0  0
 19 13  1  0  0  0  0
 19 10  1  0  0  0  0
 21  8  1  0  0  0  0
 21  6  1  0  0  0  0
 23 28  1  0  0  0  0
 23 24  1  0  0  0  0
 25 28  2  0  0  0  0
 26 23  2  0  0  0  0
 27 25  1  0  0  0  0
 28 29  1  0  0  0  0
 30 27  2  0  0  0  0
 30 26  1  0  0  0  0
 32 31  1  0  0  0  0
 32 30  1  0  0  0  0
M  END
>  <MODEL>
9

>  <REMARK>
 VINA RESULT:      -7.2      3.573      8.211
  Name = 
  2 active torsions:
  status: ('A' for Active; 'I' for Inactive)
    1  A    between atoms: S_15  and  C_26
    2  A    between atoms: C_16  and  C_27
                            x       y       z     vdW  Elec       q    Type
                         _______ _______ _______ _____ _____    ______ ____

>  <TORSDO>
F 2

$$$$
