=
 OpenBabel11052420013D

 37 41  0  0  1  0  0  0  0  0999 V2000
  192.6470  175.0720  146.1490 C   0  0  2  0  0  3  0  0  0  0  0  0
  191.4290  176.4640  147.8850 C   0  0  0  0  0  3  0  0  0  0  0  0
  190.2810  175.3910  145.1890 C   0  0  1  0  0  3  0  0  0  0  0  0
  189.5200  175.5550  146.5270 C   0  0  1  0  0  3  0  0  0  0  0  0
  190.1910  176.5820  147.3950 C   0  0  0  0  0  3  0  0  0  0  0  0
  191.5020  174.4810  145.3310 C   0  0  0  0  0  2  0  0  0  0  0  0
  192.3140  175.2810  147.6320 C   0  0  0  0  0  2  0  0  0  0  0  0
  186.8580  176.7140  140.8240 O   0  0  0  0  0  0  0  0  0  0  0  0
  189.4520  174.9680  143.9450 C   0  0  1  0  0  3  0  0  0  0  0  0
  188.7950  175.4330  141.4050 C   0  0  1  0  0  3  0  0  0  0  0  0
  189.3440  175.9610  142.7440 C   0  0  2  0  0  0  0  0  0  0  0  0
  189.2870  174.0180  141.1210 C   0  0  0  0  0  2  0  0  0  0  0  0
  190.3740  177.0640  142.6020 C   0  0  0  0  0  2  0  0  0  0  0  0
  188.2310  178.2120  142.0910 C   0  0  0  0  0  2  0  0  0  0  0  0
  189.4480  172.3800  144.8380 Cl  0  0  0  0  0  0  0  0  0  0  0  0
  188.9860  173.0950  142.2930 C   0  0  0  0  0  2  0  0  0  0  0  0
  188.9910  177.4030  143.1380 C   0  0  1  0  0  3  0  0  0  0  0  0
  189.7830  173.5260  143.5150 C   0  0  1  0  0  3  0  0  0  0  0  0
  187.2690  175.4920  141.3700 C   0  0  0  0  0  2  0  0  0  0  0  0
  186.8370  177.6330  141.8830 C   0  0  0  0  0  2  0  0  0  0  0  0
  193.4420  176.1740  145.4260 C   0  0  1  0  0  3  0  0  0  0  0  0
  194.9310  176.2170  145.7670 C   0  0  0  0  0  2  0  0  0  0  0  0
  196.5880  174.5590  145.2880 O   0  0  0  0  0  1  0  0  0  0  0  0
  195.4630  174.8260  146.0680 C   0  0  0  0  0  2  0  0  0  0  0  0
  193.1480  176.2420  143.9230 C   0  0  0  0  0  2  0  0  0  0  0  0
  193.1250  174.4550  142.2090 C   0  0  0  0  0  1  0  0  0  0  0  0
  194.0150  175.3090  143.0860 C   0  0  0  0  0  3  0  0  0  0  0  0
  194.9560  176.1070  142.2060 C   0  0  0  0  0  1  0  0  0  0  0  0
  188.0720  175.9900  146.3420 C   0  0  0  0  0  2  0  0  0  0  0  0
  187.8650  177.3950  146.8750 C   0  0  0  0  0  2  0  0  0  0  0  0
  185.3660  177.4660  146.9390 C   0  0  0  0  0  3  0  0  0  0  0  0
  186.5660  177.9310  146.3880 C   0  0  0  0  0  0  0  0  0  0  0  0
  186.5390  178.8690  145.3490 C   0  0  0  0  0  3  0  0  0  0  0  0
  185.2910  180.2620  143.8710 F   0  0  0  0  0  0  0  0  0  0  0  0
  184.1190  178.8900  145.4290 C   0  0  0  0  0  3  0  0  0  0  0  0
  185.3160  179.3510  144.8730 C   0  0  0  0  0  0  0  0  0  0  0  0
  184.1440  177.9470  146.4620 C   0  0  0  0  0  3  0  0  0  0  0  0
  1 21  1  6  0  0  0
  1  7  1  0  0  0  0
  3  6  1  1  0  0  0
  3  4  1  0  0  0  0
  4 29  1  6  0  0  0
  4  5  1  0  0  0  0
  5  2  2  0  0  0  0
  6  1  1  0  0  0  0
  7  2  1  0  0  0  0
  8 19  1  0  0  0  0
  8 20  1  0  0  0  0
  9  3  1  1  0  0  0
 10 12  1  1  0  0  0
 10 11  1  0  0  0  0
 11 13  1  6  0  0  0
 11 17  1  0  0  0  0
 11  9  1  0  0  0  0
 12 16  1  0  0  0  0
 13 17  1  0  0  0  0
 16 18  1  0  0  0  0
 17 14  1  6  0  0  0
 18  9  1  0  0  0  0
 18 15  1  1  0  0  0
 19 10  1  0  0  0  0
 20 14  1  0  0  0  0
 21 25  1  6  0  0  0
 21 22  1  0  0  0  0
 22 24  1  0  0  0  0
 23 24  1  0  0  0  0
 26 27  1  0  0  0  0
 27 25  1  0  0  0  0
 28 27  1  0  0  0  0
 29 30  1  0  0  0  0
 32 30  1  0  0  0  0
 32 31  2  0  0  0  0
 33 32  1  0  0  0  0
 34 36  1  0  0  0  0
 35 37  2  0  0  0  0
 36 33  2  0  0  0  0
 36 35  1  0  0  0  0
 37 31  1  0  0  0  0
M  END
>  <MODEL>
1

>  <REMARK>
 VINA RESULT:      -8.1      0.000      0.000
  Name = 
  9 active torsions:
  status: ('A' for Active; 'I' for Inactive)
    1  A    between atoms: C_1  and  C_33
    2  A    between atoms: C_4  and  C_10
    3  A    between atoms: C_5  and  C_23
    4  A    between atoms: C_5  and  C_33
    5  A    between atoms: C_6  and  C_31
    6  A    between atoms: C_14  and  C_37
    7  A    between atoms: C_17  and  C_26
    8  A    between atoms: C_17  and  C_33
    9  A    between atoms: C_31  and  C_37
                            x       y       z     vdW  Elec       q    Type
                         _______ _______ _______ _____ _____    ______ ____

>  <TORSDO>
F 9

$$$$
=
 OpenBabel11052420013D

 37 41  0  0  1  0  0  0  0  0999 V2000
  187.5040  178.1730  144.4750 C   0  0  2  0  0  3  0  0  0  0  0  0
  186.8210  177.0190  146.6280 C   0  0  0  0  0  3  0  0  0  0  0  0
  189.1400  176.1990  144.7080 C   0  0  1  0  0  3  0  0  0  0  0  0
  189.1200  176.0760  146.2510 C   0  0  1  0  0  3  0  0  0  0  0  0
  187.7060  176.0260  146.7590 C   0  0  0  0  0  3  0  0  0  0  0  0
  188.9160  177.6390  144.2430 C   0  0  0  0  0  2  0  0  0  0  0  0
  187.1270  178.3220  145.9540 C   0  0  0  0  0  2  0  0  0  0  0  0
  191.9570  171.6770  142.6750 O   0  0  0  0  0  0  0  0  0  0  0  0
  190.3580  175.5900  143.9600 C   0  0  1  0  0  3  0  0  0  0  0  0
  191.2540  173.8950  142.1100 C   0  0  1  0  0  3  0  0  0  0  0  0
  190.1380  174.3140  143.0850 C   0  0  2  0  0  0  0  0  0  0  0  0
  191.9060  175.1070  141.4550 C   0  0  0  0  0  2  0  0  0  0  0  0
  188.7380  173.9750  142.6120 C   0  0  0  0  0  2  0  0  0  0  0  0
  189.6540  171.7760  143.3190 C   0  0  0  0  0  2  0  0  0  0  0  0
  191.7790  177.8830  144.4220 Cl  0  0  0  0  0  0  0  0  0  0  0  0
  192.3770  176.1020  142.5060 C   0  0  0  0  0  2  0  0  0  0  0  0
  189.3390  173.1980  143.7740 C   0  0  1  0  0  3  0  0  0  0  0  0
  191.1830  176.6800  143.2510 C   0  0  1  0  0  3  0  0  0  0  0  0
  192.3020  173.0280  142.8070 C   0  0  0  0  0  2  0  0  0  0  0  0
  191.0720  171.3910  143.7230 C   0  0  0  0  0  2  0  0  0  0  0  0
  186.4450  177.6040  143.5140 C   0  0  1  0  0  3  0  0  0  0  0  0
  185.0730  177.3680  144.1430 C   0  0  0  0  0  2  0  0  0  0  0  0
  183.7600  178.9080  145.4180 O   0  0  0  0  0  1  0  0  0  0  0  0
  184.2430  178.6400  144.1370 C   0  0  0  0  0  2  0  0  0  0  0  0
  186.3920  178.3410  142.1700 C   0  0  0  0  0  2  0  0  0  0  0  0
  184.6050  178.2500  140.4590 C   0  0  0  0  0  1  0  0  0  0  0  0
  185.7920  177.5120  141.0410 C   0  0  0  0  0  3  0  0  0  0  0  0
  186.8160  177.2850  139.9470 C   0  0  0  0  0  1  0  0  0  0  0  0
  189.8320  174.8310  146.7610 C   0  0  0  0  0  2  0  0  0  0  0  0
  190.9090  175.2050  147.7630 C   0  0  0  0  0  2  0  0  0  0  0  0
  192.7230  174.3530  146.2670 C   0  0  0  0  0  3  0  0  0  0  0  0
  192.2080  175.3850  147.0600 C   0  0  0  0  0  0  0  0  0  0  0  0
  192.9360  176.5690  147.2240 C   0  0  0  0  0  3  0  0  0  0  0  0
  194.8720  177.8740  146.7410 F   0  0  0  0  0  0  0  0  0  0  0  0
  194.6800  175.6970  145.7880 C   0  0  0  0  0  3  0  0  0  0  0  0
  194.1690  176.7270  146.5860 C   0  0  0  0  0  0  0  0  0  0  0  0
  193.9570  174.5110  145.6290 C   0  0  0  0  0  3  0  0  0  0  0  0
  1 21  1  1  0  0  0
  1  7  1  0  0  0  0
  2  5  2  0  0  0  0
  3  6  1  1  0  0  0
  3  4  1  0  0  0  0
  4  5  1  0  0  0  0
  4 29  1  6  0  0  0
  6  1  1  0  0  0  0
  7  2  1  0  0  0  0
  8 19  1  0  0  0  0
  8 20  1  0  0  0  0
  9  3  1  6  0  0  0
 10 12  1  1  0  0  0
 10 19  1  0  0  0  0
 10 11  1  0  0  0  0
 11 13  1  6  0  0  0
 11 17  1  0  0  0  0
 11  9  1  0  0  0  0
 12 16  1  0  0  0  0
 14 20  1  0  0  0  0
 14 17  1  0  0  0  0
 16 18  1  0  0  0  0
 17 13  1  6  0  0  0
 18  9  1  0  0  0  0
 18 15  1  1  0  0  0
 21 25  1  6  0  0  0
 21 22  1  0  0  0  0
 24 22  1  0  0  0  0
 24 23  1  0  0  0  0
 26 27  1  0  0  0  0
 27 25  1  0  0  0  0
 28 27  1  0  0  0  0
 29 30  1  0  0  0  0
 31 32  1  0  0  0  0
 32 33  2  0  0  0  0
 32 30  1  0  0  0  0
 35 36  2  0  0  0  0
 36 34  1  0  0  0  0
 36 33  1  0  0  0  0
 37 35  1  0  0  0  0
 37 31  2  0  0  0  0
M  END
>  <MODEL>
2

>  <REMARK>
 VINA RESULT:      -7.8      2.759      7.005
  Name = 
  9 active torsions:
  status: ('A' for Active; 'I' for Inactive)
    1  A    between atoms: C_1  and  C_33
    2  A    between atoms: C_4  and  C_10
    3  A    between atoms: C_5  and  C_23
    4  A    between atoms: C_5  and  C_33
    5  A    between atoms: C_6  and  C_31
    6  A    between atoms: C_14  and  C_37
    7  A    between atoms: C_17  and  C_26
    8  A    between atoms: C_17  and  C_33
    9  A    between atoms: C_31  and  C_37
                            x       y       z     vdW  Elec       q    Type
                         _______ _______ _______ _____ _____    ______ ____

>  <TORSDO>
F 9

$$$$
=
 OpenBabel11052420013D

 37 41  0  0  1  0  0  0  0  0999 V2000
  193.0640  174.1390  144.5440 C   0  0  2  0  0  3  0  0  0  0  0  0
  192.6220  174.9780  146.8960 C   0  0  0  0  0  3  0  0  0  0  0  0
  190.5760  174.8000  144.5460 C   0  0  1  0  0  3  0  0  0  0  0  0
  190.2900  174.5760  146.0510 C   0  0  1  0  0  3  0  0  0  0  0  0
  191.3180  175.2740  146.8950 C   0  0  0  0  0  3  0  0  0  0  0  0
  191.6580  173.8550  144.0200 C   0  0  0  0  0  2  0  0  0  0  0  0
  193.2300  173.9020  146.0500 C   0  0  0  0  0  2  0  0  0  0  0  0
  186.3000  177.5300  141.9420 O   0  0  0  0  0  0  0  0  0  0  0  0
  189.3600  174.7960  143.5800 C   0  0  1  0  0  3  0  0  0  0  0  0
  188.0750  175.9690  141.5610 C   0  0  1  0  0  3  0  0  0  0  0  0
  189.0740  176.0750  142.7290 C   0  0  2  0  0  0  0  0  0  0  0  0
  188.2140  174.6390  140.8290 C   0  0  0  0  0  2  0  0  0  0  0  0
  190.1890  177.0770  142.5050 C   0  0  0  0  0  2  0  0  0  0  0  0
  188.2180  178.5100  142.9880 C   0  0  0  0  0  2  0  0  0  0  0  0
  189.1790  172.0760  143.8340 Cl  0  0  0  0  0  0  0  0  0  0  0  0
  188.1190  173.4730  141.8020 C   0  0  0  0  0  2  0  0  0  0  0  0
  189.1030  177.3890  143.5240 C   0  0  1  0  0  3  0  0  0  0  0  0
  189.3000  173.4940  142.7610 C   0  0  1  0  0  3  0  0  0  0  0  0
  186.6390  176.1740  142.0410 C   0  0  0  0  0  2  0  0  0  0  0  0
  186.7470  178.1360  143.1240 C   0  0  0  0  0  2  0  0  0  0  0  0
  193.7300  175.3840  143.9320 C   0  0  1  0  0  3  0  0  0  0  0  0
  195.1860  175.5970  144.3430 C   0  0  0  0  0  2  0  0  0  0  0  0
  194.1540  177.5030  145.3550 O   0  0  0  0  0  1  0  0  0  0  0  0
  195.3820  176.9670  144.9690 C   0  0  0  0  0  2  0  0  0  0  0  0
  193.4850  175.5200  142.4240 C   0  0  0  0  0  2  0  0  0  0  0  0
  194.2200  173.5040  141.1890 C   0  0  0  0  0  1  0  0  0  0  0  0
  194.5940  174.9220  141.5670 C   0  0  0  0  0  3  0  0  0  0  0  0
  194.7860  175.7360  140.3040 C   0  0  0  0  0  1  0  0  0  0  0  0
  188.9220  175.0880  146.4820 C   0  0  0  0  0  2  0  0  0  0  0  0
  189.0000  176.5510  146.8740 C   0  0  0  0  0  2  0  0  0  0  0  0
  186.5670  176.4580  146.3010 C   0  0  0  0  0  3  0  0  0  0  0  0
  187.6320  177.1370  146.9050 C   0  0  0  0  0  0  0  0  0  0  0  0
  187.4170  178.3850  147.5010 C   0  0  0  0  0  3  0  0  0  0  0  0
  185.9280  180.1530  148.0850 F   0  0  0  0  0  0  0  0  0  0  0  0
  185.0720  178.2650  146.9070 C   0  0  0  0  0  3  0  0  0  0  0  0
  186.1370  178.9470  147.5050 C   0  0  0  0  0  0  0  0  0  0  0  0
  185.2880  177.0210  146.3050 C   0  0  0  0  0  3  0  0  0  0  0  0
  1 21  1  1  0  0  0
  1  7  1  0  0  0  0
  3  6  1  6  0  0  0
  3  4  1  0  0  0  0
  4 29  1  1  0  0  0
  4  5  1  0  0  0  0
  5  2  2  0  0  0  0
  6  1  1  0  0  0  0
  7  2  1  0  0  0  0
  8 19  1  0  0  0  0
  8 20  1  0  0  0  0
  9  3  1  6  0  0  0
 10 12  1  1  0  0  0
 10 19  1  0  0  0  0
 10 11  1  0  0  0  0
 11 13  1  6  0  0  0
 11 17  1  0  0  0  0
 11  9  1  0  0  0  0
 12 16  1  0  0  0  0
 14 20  1  0  0  0  0
 14 17  1  0  0  0  0
 16 18  1  0  0  0  0
 17 13  1  6  0  0  0
 18  9  1  0  0  0  0
 18 15  1  1  0  0  0
 21 25  1  6  0  0  0
 21 22  1  0  0  0  0
 22 24  1  0  0  0  0
 24 23  1  0  0  0  0
 26 27  1  0  0  0  0
 27 25  1  0  0  0  0
 28 27  1  0  0  0  0
 29 30  1  0  0  0  0
 30 32  1  0  0  0  0
 31 37  2  0  0  0  0
 31 32  1  0  0  0  0
 32 33  2  0  0  0  0
 33 36  1  0  0  0  0
 35 36  2  0  0  0  0
 36 34  1  0  0  0  0
 37 35  1  0  0  0  0
M  END
>  <MODEL>
3

>  <REMARK>
 VINA RESULT:      -7.7      1.511      1.785
  Name = 
  9 active torsions:
  status: ('A' for Active; 'I' for Inactive)
    1  A    between atoms: C_1  and  C_33
    2  A    between atoms: C_4  and  C_10
    3  A    between atoms: C_5  and  C_23
    4  A    between atoms: C_5  and  C_33
    5  A    between atoms: C_6  and  C_31
    6  A    between atoms: C_14  and  C_37
    7  A    between atoms: C_17  and  C_26
    8  A    between atoms: C_17  and  C_33
    9  A    between atoms: C_31  and  C_37
                            x       y       z     vdW  Elec       q    Type
                         _______ _______ _______ _____ _____    ______ ____

>  <TORSDO>
F 9

$$$$
=
 OpenBabel11052420013D

 37 41  0  0  1  0  0  0  0  0999 V2000
  187.7300  178.0210  143.9710 C   0  0  2  0  0  3  0  0  0  0  0  0
  186.8820  176.9370  146.1020 C   0  0  0  0  0  3  0  0  0  0  0  0
  189.3450  176.0620  144.3970 C   0  0  1  0  0  3  0  0  0  0  0  0
  189.2040  175.9910  145.9370 C   0  0  1  0  0  3  0  0  0  0  0  0
  187.7550  175.9520  146.3350 C   0  0  0  0  0  3  0  0  0  0  0  0
  189.1560  177.4850  143.8690 C   0  0  0  0  0  2  0  0  0  0  0  0
  187.2380  178.2170  145.4110 C   0  0  0  0  0  2  0  0  0  0  0  0
  192.4010  171.4810  142.9170 O   0  0  0  0  0  0  0  0  0  0  0  0
  190.6180  175.4330  143.7670 C   0  0  1  0  0  3  0  0  0  0  0  0
  191.6610  173.6150  142.1220 C   0  0  1  0  0  3  0  0  0  0  0  0
  190.4830  174.0790  143.0010 C   0  0  2  0  0  0  0  0  0  0  0  0
  192.3080  174.7880  141.3950 C   0  0  0  0  0  2  0  0  0  0  0  0
  189.1210  173.6500  142.4910 C   0  0  0  0  0  2  0  0  0  0  0  0
  190.0650  171.5550  143.4360 C   0  0  0  0  0  2  0  0  0  0  0  0
  191.9420  177.8070  144.0920 Cl  0  0  0  0  0  0  0  0  0  0  0  0
  192.6930  175.8860  142.3740 C   0  0  0  0  0  2  0  0  0  0  0  0
  189.6840  173.0000  143.7460 C   0  0  1  0  0  3  0  0  0  0  0  0
  191.4450  176.4850  143.0050 C   0  0  1  0  0  3  0  0  0  0  0  0
  192.6970  172.8500  142.9440 C   0  0  0  0  0  2  0  0  0  0  0  0
  191.4710  171.2570  143.9420 C   0  0  0  0  0  2  0  0  0  0  0  0
  186.7500  177.4160  142.9510 C   0  0  1  0  0  3  0  0  0  0  0  0
  187.2400  176.1370  142.2740 C   0  0  0  0  0  2  0  0  0  0  0  0
  186.7410  177.4160  140.3140 O   0  0  0  0  0  1  0  0  0  0  0  0
  187.5310  176.3750  140.8020 C   0  0  0  0  0  2  0  0  0  0  0  0
  185.3110  177.3290  143.4740 C   0  0  0  0  0  2  0  0  0  0  0  0
  183.4460  178.1830  142.0880 C   0  0  0  0  0  1  0  0  0  0  0  0
  184.4640  178.5520  143.1450 C   0  0  0  0  0  3  0  0  0  0  0  0
  183.7370  179.0410  144.3820 C   0  0  0  0  0  1  0  0  0  0  0  0
  189.8760  174.7660  146.5430 C   0  0  0  0  0  2  0  0  0  0  0  0
  190.8770  175.1780  147.6070 C   0  0  0  0  0  2  0  0  0  0  0  0
  192.8080  174.3340  146.2610 C   0  0  0  0  0  3  0  0  0  0  0  0
  192.2160  175.3720  146.9890 C   0  0  0  0  0  0  0  0  0  0  0  0
  192.9030  176.5780  147.1700 C   0  0  0  0  0  3  0  0  0  0  0  0
  194.8370  177.9180  146.7830 F   0  0  0  0  0  0  0  0  0  0  0  0
  194.7610  175.7140  145.8780 C   0  0  0  0  0  3  0  0  0  0  0  0
  194.1730  176.7500  146.6120 C   0  0  0  0  0  0  0  0  0  0  0  0
  194.0780  174.5060  145.7030 C   0  0  0  0  0  3  0  0  0  0  0  0
  1 21  1  1  0  0  0
  1  7  1  0  0  0  0
  2  5  2  0  0  0  0
  3  6  1  1  0  0  0
  3  4  1  0  0  0  0
  4  5  1  0  0  0  0
  4 29  1  6  0  0  0
  6  1  1  0  0  0  0
  7  2  1  0  0  0  0
  8 19  1  0  0  0  0
  8 20  1  0  0  0  0
  9  3  1  6  0  0  0
 10 12  1  1  0  0  0
 10 19  1  0  0  0  0
 10 11  1  0  0  0  0
 11 13  1  6  0  0  0
 11 17  1  0  0  0  0
 11  9  1  0  0  0  0
 12 16  1  0  0  0  0
 14 17  1  0  0  0  0
 14 20  1  0  0  0  0
 16 18  1  0  0  0  0
 17 13  1  6  0  0  0
 18  9  1  0  0  0  0
 18 15  1  1  0  0  0
 21 22  1  1  0  0  0
 21 25  1  0  0  0  0
 23 24  1  0  0  0  0
 24 22  1  0  0  0  0
 26 27  1  0  0  0  0
 27 25  1  0  0  0  0
 27 28  1  0  0  0  0
 29 30  1  0  0  0  0
 31 32  1  0  0  0  0
 32 33  2  0  0  0  0
 32 30  1  0  0  0  0
 35 36  2  0  0  0  0
 36 34  1  0  0  0  0
 36 33  1  0  0  0  0
 37 35  1  0  0  0  0
 37 31  2  0  0  0  0
M  END
>  <MODEL>
4

>  <REMARK>
 VINA RESULT:      -7.6      2.575      7.043
  Name = 
  9 active torsions:
  status: ('A' for Active; 'I' for Inactive)
    1  A    between atoms: C_1  and  C_33
    2  A    between atoms: C_4  and  C_10
    3  A    between atoms: C_5  and  C_23
    4  A    between atoms: C_5  and  C_33
    5  A    between atoms: C_6  and  C_31
    6  A    between atoms: C_14  and  C_37
    7  A    between atoms: C_17  and  C_26
    8  A    between atoms: C_17  and  C_33
    9  A    between atoms: C_31  and  C_37
                            x       y       z     vdW  Elec       q    Type
                         _______ _______ _______ _____ _____    ______ ____

>  <TORSDO>
F 9

$$$$
=
 OpenBabel11052420013D

 37 41  0  0  1  0  0  0  0  0999 V2000
  194.2590  174.4890  145.7180 C   0  0  2  0  0  3  0  0  0  0  0  0
  194.0030  176.9900  145.3750 C   0  0  0  0  0  3  0  0  0  0  0  0
  192.1490  174.7390  144.2640 C   0  0  1  0  0  3  0  0  0  0  0  0
  191.7220  176.1510  144.7340 C   0  0  1  0  0  3  0  0  0  0  0  0
  192.8800  177.1060  144.6590 C   0  0  0  0  0  3  0  0  0  0  0  0
  192.8710  173.9600  145.3650 C   0  0  0  0  0  2  0  0  0  0  0  0
  194.2520  175.8840  146.3560 C   0  0  0  0  0  2  0  0  0  0  0  0
  189.6000  172.5900  139.6380 O   0  0  0  0  0  0  0  0  0  0  0  0
  191.0590  173.8420  143.6150 C   0  0  1  0  0  3  0  0  0  0  0  0
  190.4410  171.9940  141.7980 C   0  0  1  0  0  3  0  0  0  0  0  0
  191.3890  173.1110  142.2760 C   0  0  2  0  0  0  0  0  0  0  0  0
  189.9370  171.1550  142.9670 C   0  0  0  0  0  2  0  0  0  0  0  0
  192.8400  172.9040  141.8850 C   0  0  0  0  0  2  0  0  0  0  0  0
  191.7660  173.6030  139.7560 C   0  0  0  0  0  2  0  0  0  0  0  0
  189.6370  173.8950  145.9540 Cl  0  0  0  0  0  0  0  0  0  0  0  0
  189.3220  172.0380  144.0420 C   0  0  0  0  0  2  0  0  0  0  0  0
  192.0350  174.0010  141.2040 C   0  0  1  0  0  3  0  0  0  0  0  0
  190.3900  172.9300  144.6590 C   0  0  1  0  0  3  0  0  0  0  0  0
  189.2720  172.5650  140.9990 C   0  0  0  0  0  2  0  0  0  0  0  0
  190.2920  173.7900  139.4190 C   0  0  0  0  0  2  0  0  0  0  0  0
  195.3410  174.1810  144.6690 C   0  0  1  0  0  3  0  0  0  0  0  0
  196.6640  174.9170  144.8790 C   0  0  0  0  0  2  0  0  0  0  0  0
  196.8090  176.7790  143.3830 O   0  0  0  0  0  1  0  0  0  0  0  0
  197.2050  175.4540  143.5650 C   0  0  0  0  0  2  0  0  0  0  0  0
  195.5040  172.6820  144.3920 C   0  0  0  0  0  2  0  0  0  0  0  0
  194.7630  170.7510  145.7540 C   0  0  0  0  0  1  0  0  0  0  0  0
  195.7910  171.8560  145.6410 C   0  0  0  0  0  3  0  0  0  0  0  0
  197.1730  171.2400  145.5620 C   0  0  0  0  0  1  0  0  0  0  0  0
  190.5900  176.7400  143.9040 C   0  0  0  0  0  2  0  0  0  0  0  0
  189.9590  177.9180  144.6230 C   0  0  0  0  0  2  0  0  0  0  0  0
  188.4000  177.1640  146.4270 C   0  0  0  0  0  3  0  0  0  0  0  0
  188.5980  177.5480  145.0950 C   0  0  0  0  0  0  0  0  0  0  0  0
  187.5220  177.5420  144.2000 C   0  0  0  0  0  3  0  0  0  0  0  0
  185.2070  177.1660  143.7730 F   0  0  0  0  0  0  0  0  0  0  0  0
  186.0510  176.7900  145.9710 C   0  0  0  0  0  3  0  0  0  0  0  0
  186.2490  177.1670  144.6380 C   0  0  0  0  0  0  0  0  0  0  0  0
  187.1270  176.7880  146.8640 C   0  0  0  0  0  3  0  0  0  0  0  0
  1 21  1  6  0  0  0
  1  7  1  0  0  0  0
  2  7  1  0  0  0  0
  3  4  1  0  0  0  0
  3  6  1  1  0  0  0
  4 29  1  6  0  0  0
  5  4  1  0  0  0  0
  5  2  2  0  0  0  0
  6  1  1  0  0  0  0
  8 19  1  0  0  0  0
  9  3  1  1  0  0  0
  9 18  1  0  0  0  0
 10 19  1  1  0  0  0
 10 11  1  0  0  0  0
 10 12  1  0  0  0  0
 11 13  1  1  0  0  0
 11  9  1  0  0  0  0
 12 16  1  0  0  0  0
 16 18  1  0  0  0  0
 17 14  1  6  0  0  0
 17 13  1  0  0  0  0
 17 11  1  0  0  0  0
 18 15  1  1  0  0  0
 20  8  1  0  0  0  0
 20 14  1  0  0  0  0
 21 25  1  1  0  0  0
 21 22  1  0  0  0  0
 23 24  1  0  0  0  0
 24 22  1  0  0  0  0
 25 27  1  0  0  0  0
 27 26  1  0  0  0  0
 28 27  1  0  0  0  0
 29 30  1  0  0  0  0
 30 32  1  0  0  0  0
 31 37  1  0  0  0  0
 32 31  2  0  0  0  0
 33 36  2  0  0  0  0
 33 32  1  0  0  0  0
 34 36  1  0  0  0  0
 35 37  2  0  0  0  0
 36 35  1  0  0  0  0
M  END
>  <MODEL>
5

>  <REMARK>
 VINA RESULT:      -7.5      2.199      3.608
  Name = 
  9 active torsions:
  status: ('A' for Active; 'I' for Inactive)
    1  A    between atoms: C_1  and  C_33
    2  A    between atoms: C_4  and  C_10
    3  A    between atoms: C_5  and  C_23
    4  A    between atoms: C_5  and  C_33
    5  A    between atoms: C_6  and  C_31
    6  A    between atoms: C_14  and  C_37
    7  A    between atoms: C_17  and  C_26
    8  A    between atoms: C_17  and  C_33
    9  A    between atoms: C_31  and  C_37
                            x       y       z     vdW  Elec       q    Type
                         _______ _______ _______ _____ _____    ______ ____

>  <TORSDO>
F 9

$$$$
=
 OpenBabel11052420013D

 37 41  0  0  1  0  0  0  0  0999 V2000
  194.2190  174.5720  145.7030 C   0  0  2  0  0  3  0  0  0  0  0  0
  193.9130  177.0670  145.3600 C   0  0  0  0  0  3  0  0  0  0  0  0
  192.0990  174.7790  144.2590 C   0  0  1  0  0  3  0  0  0  0  0  0
  191.6470  176.1830  144.7300 C   0  0  1  0  0  3  0  0  0  0  0  0
  192.7850  177.1600  144.6490 C   0  0  0  0  0  3  0  0  0  0  0  0
  192.8410  174.0160  145.3570 C   0  0  0  0  0  2  0  0  0  0  0  0
  194.1890  175.9670  146.3400 C   0  0  0  0  0  2  0  0  0  0  0  0
  189.5700  172.5780  139.6460 O   0  0  0  0  0  0  0  0  0  0  0  0
  191.0230  173.8610  143.6160 C   0  0  1  0  0  3  0  0  0  0  0  0
  190.4330  172.0000  141.8030 C   0  0  1  0  0  3  0  0  0  0  0  0
  191.3610  173.1350  142.2750 C   0  0  2  0  0  0  0  0  0  0  0  0
  189.9500  171.1520  142.9740 C   0  0  0  0  0  2  0  0  0  0  0  0
  192.8140  172.9560  141.8780 C   0  0  0  0  0  2  0  0  0  0  0  0
  191.7170  173.6320  139.7540 C   0  0  0  0  0  2  0  0  0  0  0  0
  189.6110  173.8880  145.9610 Cl  0  0  0  0  0  0  0  0  0  0  0  0
  189.3240  172.0240  144.0520 C   0  0  0  0  0  2  0  0  0  0  0  0
  191.9850  174.0370  141.2000 C   0  0  1  0  0  3  0  0  0  0  0  0
  190.3770  172.9370  144.6640 C   0  0  1  0  0  3  0  0  0  0  0  0
  189.2490  172.5480  141.0090 C   0  0  0  0  0  2  0  0  0  0  0  0
  190.2380  173.7910  139.4240 C   0  0  0  0  0  2  0  0  0  0  0  0
  195.3030  174.2840  144.6490 C   0  0  1  0  0  3  0  0  0  0  0  0
  195.8340  172.8510  144.6540 C   0  0  0  0  0  2  0  0  0  0  0  0
  197.5660  173.7910  146.0110 O   0  0  0  0  0  1  0  0  0  0  0  0
  197.3000  172.8140  145.0520 C   0  0  0  0  0  2  0  0  0  0  0  0
  194.9410  174.8070  143.2540 C   0  0  0  0  0  2  0  0  0  0  0  0
  195.5520  176.4160  141.4740 C   0  0  0  0  0  1  0  0  0  0  0  0
  196.1000  175.4850  142.5340 C   0  0  0  0  0  3  0  0  0  0  0  0
  196.9340  176.2890  143.5130 C   0  0  0  0  0  1  0  0  0  0  0  0
  190.4990  176.7490  143.9050 C   0  0  0  0  0  2  0  0  0  0  0  0
  189.8520  177.9190  144.6230 C   0  0  0  0  0  2  0  0  0  0  0  0
  188.2290  177.1660  146.3700 C   0  0  0  0  0  3  0  0  0  0  0  0
  188.4750  177.5490  145.0470 C   0  0  0  0  0  0  0  0  0  0  0  0
  187.4320  177.5420  144.1130 C   0  0  0  0  0  3  0  0  0  0  0  0
  185.1340  177.1650  143.6020 F   0  0  0  0  0  0  0  0  0  0  0  0
  185.8980  176.7910  145.8300 C   0  0  0  0  0  3  0  0  0  0  0  0
  186.1440  177.1670  144.5050 C   0  0  0  0  0  0  0  0  0  0  0  0
  186.9410  176.7900  146.7620 C   0  0  0  0  0  3  0  0  0  0  0  0
  1 21  1  6  0  0  0
  1  7  1  0  0  0  0
  2  7  1  0  0  0  0
  3  4  1  0  0  0  0
  3  6  1  1  0  0  0
  4 29  1  6  0  0  0
  5  4  1  0  0  0  0
  5  2  2  0  0  0  0
  6  1  1  0  0  0  0
  8 19  1  0  0  0  0
  9  3  1  1  0  0  0
  9 18  1  0  0  0  0
 10 19  1  1  0  0  0
 10 11  1  0  0  0  0
 10 12  1  0  0  0  0
 11 13  1  1  0  0  0
 11  9  1  0  0  0  0
 12 16  1  0  0  0  0
 16 18  1  0  0  0  0
 17 14  1  6  0  0  0
 17 13  1  0  0  0  0
 17 11  1  0  0  0  0
 18 15  1  1  0  0  0
 20  8  1  0  0  0  0
 20 14  1  0  0  0  0
 21 25  1  6  0  0  0
 21 22  1  0  0  0  0
 22 24  1  0  0  0  0
 24 23  1  0  0  0  0
 26 27  1  0  0  0  0
 27 25  1  0  0  0  0
 27 28  1  0  0  0  0
 29 30  1  0  0  0  0
 30 32  1  0  0  0  0
 31 37  1  0  0  0  0
 32 31  2  0  0  0  0
 33 36  2  0  0  0  0
 33 32  1  0  0  0  0
 34 36  1  0  0  0  0
 35 37  2  0  0  0  0
 36 35  1  0  0  0  0
M  END
>  <MODEL>
6

>  <REMARK>
 VINA RESULT:      -7.0      2.070      3.249
  Name = 
  9 active torsions:
  status: ('A' for Active; 'I' for Inactive)
    1  A    between atoms: C_1  and  C_33
    2  A    between atoms: C_4  and  C_10
    3  A    between atoms: C_5  and  C_23
    4  A    between atoms: C_5  and  C_33
    5  A    between atoms: C_6  and  C_31
    6  A    between atoms: C_14  and  C_37
    7  A    between atoms: C_17  and  C_26
    8  A    between atoms: C_17  and  C_33
    9  A    between atoms: C_31  and  C_37
                            x       y       z     vdW  Elec       q    Type
                         _______ _______ _______ _____ _____    ______ ____

>  <TORSDO>
F 9

$$$$
=
 OpenBabel11052420013D

 37 41  0  0  1  0  0  0  0  0999 V2000
  190.8840  172.6260  141.5080 C   0  0  2  0  0  3  0  0  0  0  0  0
  188.6110  173.3030  140.6100 C   0  0  0  0  0  3  0  0  0  0  0  0
  190.2430  174.7190  142.8620 C   0  0  1  0  0  3  0  0  0  0  0  0
  189.3300  175.3920  141.8080 C   0  0  1  0  0  3  0  0  0  0  0  0
  188.3120  174.4160  141.2890 C   0  0  0  0  0  3  0  0  0  0  0  0
  191.3570  173.8940  142.2130 C   0  0  0  0  0  2  0  0  0  0  0  0
  190.0100  172.8850  140.2740 C   0  0  0  0  0  2  0  0  0  0  0  0
  189.6850  177.5790  147.7630 O   0  0  0  0  0  0  0  0  0  0  0  0
  190.8400  175.6260  143.9730 C   0  0  1  0  0  3  0  0  0  0  0  0
  191.1490  176.1020  146.5760 C   0  0  1  0  0  3  0  0  0  0  0  0
  190.3490  175.4330  145.4420 C   0  0  2  0  0  0  0  0  0  0  0  0
  192.6490  176.0420  146.3090 C   0  0  0  0  0  2  0  0  0  0  0  0
  189.6900  174.1250  145.8350 C   0  0  0  0  0  2  0  0  0  0  0  0
  188.2650  175.8380  146.9350 C   0  0  0  0  0  2  0  0  0  0  0  0
  192.8380  176.3900  142.2640 Cl  0  0  0  0  0  0  0  0  0  0  0  0
  192.9770  176.6060  144.9350 C   0  0  0  0  0  2  0  0  0  0  0  0
  188.8230  175.3530  145.6000 C   0  0  1  0  0  3  0  0  0  0  0  0
  192.3720  175.7270  143.8510 C   0  0  1  0  0  3  0  0  0  0  0  0
  190.6960  177.5450  146.7950 C   0  0  0  0  0  2  0  0  0  0  0  0
  188.4810  177.3390  147.0860 C   0  0  0  0  0  2  0  0  0  0  0  0
  190.4730  171.4870  142.4570 C   0  0  1  0  0  3  0  0  0  0  0  0
  190.5110  170.0910  141.8360 C   0  0  0  0  0  2  0  0  0  0  0  0
  191.0110  169.2040  139.6710 O   0  0  0  0  0  1  0  0  0  0  0  0
  191.4970  170.0350  140.6810 C   0  0  0  0  0  2  0  0  0  0  0  0
  191.1490  171.5720  143.8310 C   0  0  0  0  0  2  0  0  0  0  0  0
  193.3540  172.2650  144.7190 C   0  0  0  0  0  1  0  0  0  0  0  0
  192.6470  171.2970  143.7940 C   0  0  0  0  0  3  0  0  0  0  0  0
  192.9380  169.8810  144.2470 C   0  0  0  0  0  1  0  0  0  0  0  0
  188.5710  176.5940  142.3560 C   0  0  0  0  0  2  0  0  0  0  0  0
  187.0760  176.3430  142.3160 C   0  0  0  0  0  2  0  0  0  0  0  0
  186.3400  178.6360  142.9910 C   0  0  0  0  0  3  0  0  0  0  0  0
  186.3870  177.2640  143.2610 C   0  0  0  0  0  0  0  0  0  0  0  0
  185.8230  176.7640  144.4400 C   0  0  0  0  0  3  0  0  0  0  0  0
  184.6500  177.1510  146.4800 F   0  0  0  0  0  0  0  0  0  0  0  0
  185.1480  179.0050  145.0660 C   0  0  0  0  0  3  0  0  0  0  0  0
  185.2000  177.6340  145.3410 C   0  0  0  0  0  0  0  0  0  0  0  0
  185.7180  179.5060  143.8920 C   0  0  0  0  0  3  0  0  0  0  0  0
  1  6  1  0  0  0  0
  1 21  1  1  0  0  0
  2  5  2  0  0  0  0
  3  6  1  6  0  0  0
  4 29  1  1  0  0  0
  4  3  1  0  0  0  0
  5  4  1  0  0  0  0
  7  2  1  0  0  0  0
  7  1  1  0  0  0  0
  9  3  1  6  0  0  0
  9 11  1  0  0  0  0
 10 12  1  6  0  0  0
 10 19  1  0  0  0  0
 11 17  1  0  0  0  0
 11 13  1  1  0  0  0
 11 10  1  0  0  0  0
 14 20  1  0  0  0  0
 16 12  1  0  0  0  0
 17 13  1  1  0  0  0
 17 14  1  0  0  0  0
 18 15  1  6  0  0  0
 18  9  1  0  0  0  0
 18 16  1  0  0  0  0
 19  8  1  0  0  0  0
 20  8  1  0  0  0  0
 21 22  1  6  0  0  0
 21 25  1  0  0  0  0
 23 24  1  0  0  0  0
 24 22  1  0  0  0  0
 27 25  1  0  0  0  0
 27 28  1  0  0  0  0
 27 26  1  0  0  0  0
 30 29  1  0  0  0  0
 30 32  1  0  0  0  0
 31 32  2  0  0  0  0
 31 37  1  0  0  0  0
 32 33  1  0  0  0  0
 33 36  2  0  0  0  0
 35 36  1  0  0  0  0
 36 34  1  0  0  0  0
 37 35  2  0  0  0  0
M  END
>  <MODEL>
7

>  <REMARK>
 VINA RESULT:      -6.9      2.909      5.423
  Name = 
  9 active torsions:
  status: ('A' for Active; 'I' for Inactive)
    1  A    between atoms: C_1  and  C_33
    2  A    between atoms: C_4  and  C_10
    3  A    between atoms: C_5  and  C_23
    4  A    between atoms: C_5  and  C_33
    5  A    between atoms: C_6  and  C_31
    6  A    between atoms: C_14  and  C_37
    7  A    between atoms: C_17  and  C_26
    8  A    between atoms: C_17  and  C_33
    9  A    between atoms: C_31  and  C_37
                            x       y       z     vdW  Elec       q    Type
                         _______ _______ _______ _____ _____    ______ ____

>  <TORSDO>
F 9

$$$$
=
 OpenBabel11052420013D

 37 41  0  0  1  0  0  0  0  0999 V2000
  190.0360  173.0090  143.8030 C   0  0  2  0  0  3  0  0  0  0  0  0
  190.3160  171.7800  141.6010 C   0  0  0  0  0  3  0  0  0  0  0  0
  192.5090  173.3480  143.1740 C   0  0  1  0  0  3  0  0  0  0  0  0
  192.7030  172.0590  142.3380 C   0  0  1  0  0  3  0  0  0  0  0  0
  191.6130  171.9260  141.3110 C   0  0  0  0  0  3  0  0  0  0  0  0
  191.4760  173.1600  144.2860 C   0  0  0  0  0  2  0  0  0  0  0  0
  189.7780  171.7280  142.9990 C   0  0  0  0  0  2  0  0  0  0  0  0
  196.9990  176.8070  142.5540 O   0  0  0  0  0  0  0  0  0  0  0  0
  193.7840  174.0230  143.7490 C   0  0  1  0  0  3  0  0  0  0  0  0
  195.2190  176.2470  144.0540 C   0  0  1  0  0  3  0  0  0  0  0  0
  194.1500  175.4640  143.2690 C   0  0  2  0  0  0  0  0  0  0  0  0
  195.1000  176.0010  145.5540 C   0  0  0  0  0  2  0  0  0  0  0  0
  193.0730  176.3320  142.6490 C   0  0  0  0  0  2  0  0  0  0  0  0
  195.0400  176.7210  141.1810 C   0  0  0  0  0  2  0  0  0  0  0  0
  193.8920  172.1240  145.7180 Cl  0  0  0  0  0  0  0  0  0  0  0  0
  195.1080  174.5120  145.8610 C   0  0  0  0  0  2  0  0  0  0  0  0
  194.0990  175.6610  141.7470 C   0  0  1  0  0  3  0  0  0  0  0  0
  193.8690  173.8500  145.2770 C   0  0  1  0  0  3  0  0  0  0  0  0
  196.6260  175.9100  143.5620 C   0  0  0  0  0  2  0  0  0  0  0  0
  196.4910  176.2890  141.3550 C   0  0  0  0  0  2  0  0  0  0  0  0
  189.3930  174.3150  143.3040 C   0  0  1  0  0  3  0  0  0  0  0  0
  188.2190  174.1240  142.3450 C   0  0  0  0  0  2  0  0  0  0  0  0
  187.5250  176.1400  141.2590 O   0  0  0  0  0  1  0  0  0  0  0  0
  187.2930  175.3280  142.3690 C   0  0  0  0  0  2  0  0  0  0  0  0
  189.1160  175.3190  144.4300 C   0  0  0  0  0  2  0  0  0  0  0  0
  189.2800  177.7900  144.3980 C   0  0  0  0  0  1  0  0  0  0  0  0
  190.0760  176.5030  144.4440 C   0  0  0  0  0  3  0  0  0  0  0  0
  190.9180  176.4870  145.7040 C   0  0  0  0  0  1  0  0  0  0  0  0
  194.0330  172.0210  141.5980 C   0  0  0  0  0  2  0  0  0  0  0  0
  194.7630  170.7210  141.8810 C   0  0  0  0  0  2  0  0  0  0  0  0
  196.5210  172.1130  142.9890 C   0  0  0  0  0  3  0  0  0  0  0  0
  195.7680  170.9340  142.9580 C   0  0  0  0  0  0  0  0  0  0  0  0
  195.9900  169.9380  143.9160 C   0  0  0  0  0  3  0  0  0  0  0  0
  197.1660  169.1650  145.8400 F   0  0  0  0  0  0  0  0  0  0  0  0
  197.7010  171.3090  144.9450 C   0  0  0  0  0  3  0  0  0  0  0  0
  196.9540  170.1270  144.9110 C   0  0  0  0  0  0  0  0  0  0  0  0
  197.4850  172.3020  143.9840 C   0  0  0  0  0  3  0  0  0  0  0  0
  1 21  1  6  0  0  0
  1  6  1  0  0  0  0
  2  7  1  0  0  0  0
  3  6  1  1  0  0  0
  4 29  1  6  0  0  0
  4  3  1  0  0  0  0
  5  2  2  0  0  0  0
  5  4  1  0  0  0  0
  7  1  1  0  0  0  0
  8 19  1  0  0  0  0
  9  3  1  1  0  0  0
  9 18  1  0  0  0  0
 10 19  1  6  0  0  0
 10 12  1  0  0  0  0
 11 13  1  1  0  0  0
 11  9  1  0  0  0  0
 11 10  1  0  0  0  0
 12 16  1  0  0  0  0
 14 20  1  0  0  0  0
 17 14  1  1  0  0  0
 17 13  1  0  0  0  0
 17 11  1  0  0  0  0
 18 15  1  6  0  0  0
 18 16  1  0  0  0  0
 20  8  1  0  0  0  0
 21 22  1  1  0  0  0
 21 25  1  0  0  0  0
 22 24  1  0  0  0  0
 23 24  1  0  0  0  0
 25 27  1  0  0  0  0
 26 27  1  0  0  0  0
 27 28  1  0  0  0  0
 29 30  1  0  0  0  0
 30 32  1  0  0  0  0
 31 37  1  0  0  0  0
 32 31  2  0  0  0  0
 32 33  1  0  0  0  0
 33 36  2  0  0  0  0
 36 35  1  0  0  0  0
 36 34  1  0  0  0  0
 37 35  2  0  0  0  0
M  END
>  <MODEL>
8

>  <REMARK>
 VINA RESULT:      -6.5      3.710      8.771
  Name = 
  9 active torsions:
  status: ('A' for Active; 'I' for Inactive)
    1  A    between atoms: C_1  and  C_33
    2  A    between atoms: C_4  and  C_10
    3  A    between atoms: C_5  and  C_23
    4  A    between atoms: C_5  and  C_33
    5  A    between atoms: C_6  and  C_31
    6  A    between atoms: C_14  and  C_37
    7  A    between atoms: C_17  and  C_26
    8  A    between atoms: C_17  and  C_33
    9  A    between atoms: C_31  and  C_37
                            x       y       z     vdW  Elec       q    Type
                         _______ _______ _______ _____ _____    ______ ____

>  <TORSDO>
F 9

$$$$
=
 OpenBabel11052420013D

 37 41  0  0  1  0  0  0  0  0999 V2000
  192.1870  174.4590  145.5810 C   0  0  2  0  0  3  0  0  0  0  0  0
  190.9150  176.6130  145.1610 C   0  0  0  0  0  3  0  0  0  0  0  0
  191.1060  174.1400  143.2670 C   0  0  1  0  0  3  0  0  0  0  0  0
  189.8860  175.0720  143.4630 C   0  0  1  0  0  3  0  0  0  0  0  0
  190.3230  176.4150  143.9790 C   0  0  0  0  0  3  0  0  0  0  0  0
  191.5540  173.4960  144.5800 C   0  0  0  0  0  2  0  0  0  0  0  0
  191.2200  175.5140  146.1330 C   0  0  0  0  0  2  0  0  0  0  0  0
  192.1640  172.3700  137.9510 O   0  0  0  0  0  0  0  0  0  0  0  0
  191.0060  173.0570  142.1580 C   0  0  1  0  0  3  0  0  0  0  0  0
  192.2260  171.6690  140.2390 C   0  0  1  0  0  3  0  0  0  0  0  0
  192.1760  172.9230  141.1330 C   0  0  2  0  0  0  0  0  0  0  0  0
  191.8000  170.4220  141.0050 C   0  0  0  0  0  2  0  0  0  0  0  0
  193.5370  173.4880  141.4880 C   0  0  0  0  0  2  0  0  0  0  0  0
  193.2340  174.1660  139.1170 C   0  0  0  0  0  2  0  0  0  0  0  0
  188.9520  171.8650  143.5210 Cl  0  0  0  0  0  0  0  0  0  0  0  0
  190.4450  170.6290  141.6650 C   0  0  0  0  0  2  0  0  0  0  0  0
  192.6440  174.2520  140.5210 C   0  0  1  0  0  3  0  0  0  0  0  0
  190.5430  171.7060  142.7350 C   0  0  1  0  0  3  0  0  0  0  0  0
  191.3750  171.8500  138.9840 C   0  0  0  0  0  2  0  0  0  0  0  0
  192.1610  173.7620  138.1130 C   0  0  0  0  0  2  0  0  0  0  0  0
  193.6120  174.9090  145.2140 C   0  0  1  0  0  3  0  0  0  0  0  0
  194.3040  175.7680  146.2720 C   0  0  0  0  0  2  0  0  0  0  0  0
  195.5680  177.1410  144.7750 O   0  0  0  0  0  1  0  0  0  0  0  0
  194.5700  177.1690  145.7480 C   0  0  0  0  0  2  0  0  0  0  0  0
  194.4850  173.7690  144.6740 C   0  0  0  0  0  2  0  0  0  0  0  0
  194.5220  171.4440  145.5220 C   0  0  0  0  0  1  0  0  0  0  0  0
  195.0310  172.8490  145.7590 C   0  0  0  0  0  3  0  0  0  0  0  0
  196.5470  172.8370  145.7300 C   0  0  0  0  0  1  0  0  0  0  0  0
  189.1030  175.3100  142.1790 C   0  0  0  0  0  2  0  0  0  0  0  0
  187.6220  175.0730  142.4060 C   0  0  0  0  0  2  0  0  0  0  0  0
  187.1970  177.5080  142.0240 C   0  0  0  0  0  3  0  0  0  0  0  0
  186.9590  176.3530  142.7770 C   0  0  0  0  0  0  0  0  0  0  0  0
  186.1310  176.4120  143.9040 C   0  0  0  0  0  3  0  0  0  0  0  0
  184.7270  177.6780  145.3560 F   0  0  0  0  0  0  0  0  0  0  0  0
  185.7650  178.7740  143.5110 C   0  0  0  0  0  3  0  0  0  0  0  0
  185.5320  177.6210  144.2680 C   0  0  0  0  0  0  0  0  0  0  0  0
  186.5980  178.7170  142.3890 C   0  0  0  0  0  3  0  0  0  0  0  0
  1 21  1  6  0  0  0
  1  7  1  0  0  0  0
  2  7  1  0  0  0  0
  3  4  1  0  0  0  0
  3  6  1  1  0  0  0
  4 29  1  6  0  0  0
  4  5  1  0  0  0  0
  5  2  2  0  0  0  0
  6  1  1  0  0  0  0
  8 20  1  0  0  0  0
  8 19  1  0  0  0  0
  9 18  1  0  0  0  0
  9  3  1  1  0  0  0
 10 19  1  6  0  0  0
 10 12  1  0  0  0  0
 10 11  1  0  0  0  0
 11 13  1  1  0  0  0
 11  9  1  0  0  0  0
 12 16  1  0  0  0  0
 16 18  1  0  0  0  0
 17 14  1  6  0  0  0
 17 11  1  0  0  0  0
 17 13  1  0  0  0  0
 18 15  1  6  0  0  0
 20 14  1  0  0  0  0
 21 25  1  1  0  0  0
 21 22  1  0  0  0  0
 23 24  1  0  0  0  0
 24 22  1  0  0  0  0
 25 27  1  0  0  0  0
 26 27  1  0  0  0  0
 28 27  1  0  0  0  0
 29 30  1  0  0  0  0
 30 32  1  0  0  0  0
 31 37  2  0  0  0  0
 31 32  1  0  0  0  0
 32 33  2  0  0  0  0
 33 36  1  0  0  0  0
 35 36  2  0  0  0  0
 36 34  1  0  0  0  0
 37 35  1  0  0  0  0
M  END
>  <MODEL>
9

>  <REMARK>
 VINA RESULT:      -6.5      2.486      4.061
  Name = 
  9 active torsions:
  status: ('A' for Active; 'I' for Inactive)
    1  A    between atoms: C_1  and  C_33
    2  A    between atoms: C_4  and  C_10
    3  A    between atoms: C_5  and  C_23
    4  A    between atoms: C_5  and  C_33
    5  A    between atoms: C_6  and  C_31
    6  A    between atoms: C_14  and  C_37
    7  A    between atoms: C_17  and  C_26
    8  A    between atoms: C_17  and  C_33
    9  A    between atoms: C_31  and  C_37
                            x       y       z     vdW  Elec       q    Type
                         _______ _______ _______ _____ _____    ______ ____

>  <TORSDO>
F 9

$$$$
