=
 OpenBabel11052418313D

 27 31  0  0  0  0  0  0  0  0999 V2000
  190.5500  174.2520  143.7600 C   0  0  0  0  0  2  0  0  0  0  0  0
  189.7570  175.9980  145.3490 C   0  0  0  0  0  0  0  0  0  0  0  0
  188.1910  176.2720  143.5150 O   0  0  0  0  0  0  0  0  0  0  0  0
  189.8190  176.4180  146.7060 N   0  0  0  0  0  0  0  0  0  0  0  0
  188.0350  174.6650  139.0230 F   0  0  0  0  0  0  0  0  0  0  0  0
  188.4130  174.4250  140.3010 C   0  0  0  0  0  0  0  0  0  0  0  0
  190.8270  175.3300  144.6660 N   0  0  0  0  0  0  0  0  0  0  0  0
  187.9050  177.0980  145.8460 N   0  0  0  0  0  0  0  0  0  0  0  0
  189.5610  174.2130  142.8670 C   0  0  0  0  0  0  0  0  0  0  0  0
  188.6240  176.4010  144.8340 C   0  0  0  0  0  0  0  0  0  0  0  0
  188.0870  175.4060  141.3530 C   0  0  0  0  0  2  0  0  0  0  0  0
  188.6430  177.1150  147.0450 N   0  0  0  0  0  0  0  0  0  0  0  0
  189.1030  173.3200  140.5910 C   0  0  0  0  0  3  0  0  0  0  0  0
  189.4860  172.9830  142.0060 C   0  0  0  0  0  2  0  0  0  0  0  0
  188.6150  175.3250  142.5790 C   0  0  0  0  0  0  0  0  0  0  0  0
  185.5510  177.2800  146.5330 C   0  0  0  0  0  3  0  0  0  0  0  0
  184.0690  178.8860  145.4910 C   0  0  0  0  0  3  0  0  0  0  0  0
  185.1170  179.3230  144.6760 C   0  0  0  0  0  3  0  0  0  0  0  0
  186.3820  178.7370  144.7900 C   0  0  0  0  0  3  0  0  0  0  0  0
  186.6100  177.7110  145.7200 C   0  0  0  0  0  0  0  0  0  0  0  0
  184.2870  177.8650  146.4200 C   0  0  0  0  0  3  0  0  0  0  0  0
  194.8690  175.9100  145.8770 C   0  0  0  0  0  3  0  0  0  0  0  0
  192.1920  175.5290  145.0950 C   0  0  0  0  0  0  0  0  0  0  0  0
  192.8180  176.7780  144.9300 C   0  0  0  0  0  3  0  0  0  0  0  0
  194.1460  176.9680  145.3220 C   0  0  0  0  0  3  0  0  0  0  0  0
  194.2650  174.6610  146.0380 C   0  0  0  0  0  3  0  0  0  0  0  0
  192.9360  174.4710  145.6460 C   0  0  0  0  0  3  0  0  0  0  0  0
  1  7  1  0  0  0  0
  2  4  1  0  0  0  0
  3 10  1  0  0  0  0
  4 12  2  0  0  0  0
  5  6  1  0  0  0  0
  6 13  2  0  0  0  0
  6 11  1  0  0  0  0
  7 23  1  0  0  0  0
  7  2  1  0  0  0  0
  8 12  1  0  0  0  0
  9  1  1  0  0  0  0
 10  2  2  0  0  0  0
 10  8  1  0  0  0  0
 11 15  1  0  0  0  0
 13 14  1  0  0  0  0
 14  9  1  0  0  0  0
 15  9  2  0  0  0  0
 15  3  1  0  0  0  0
 17 21  2  0  0  0  0
 18 19  2  0  0  0  0
 18 17  1  0  0  0  0
 19 20  1  0  0  0  0
 20  8  1  0  0  0  0
 20 16  2  0  0  0  0
 21 16  1  0  0  0  0
 22 26  1  0  0  0  0
 23 27  1  0  0  0  0
 24 23  2  0  0  0  0
 24 25  1  0  0  0  0
 25 22  2  0  0  0  0
 27 26  2  0  0  0  0
M  END
>  <MODEL>
1

>  <REMARK>
 VINA RESULT:      -8.5      0.000      0.000
  Name = 
  2 active torsions:
  status: ('A' for Active; 'I' for Inactive)
    1  A    between atoms: C_9  and  N_15
    2  A    between atoms: C_14  and  N_17
                            x       y       z     vdW  Elec       q    Type
                         _______ _______ _______ _____ _____    ______ ____

>  <TORSDO>
F 2

$$$$
=
 OpenBabel11052418313D

 27 31  0  0  0  0  0  0  0  0999 V2000
  191.1140  175.3730  143.8800 C   0  0  0  0  0  2  0  0  0  0  0  0
  188.7160  175.4400  143.2090 C   0  0  0  0  0  0  0  0  0  0  0  0
  188.6080  176.3210  145.4690 O   0  0  0  0  0  0  0  0  0  0  0  0
  187.8450  175.4070  142.0860 N   0  0  0  0  0  0  0  0  0  0  0  0
  191.6910  176.4970  149.1080 F   0  0  0  0  0  0  0  0  0  0  0  0
  191.5190  176.5130  147.7650 C   0  0  0  0  0  0  0  0  0  0  0  0
  189.9730  174.7510  143.2700 N   0  0  0  0  0  0  0  0  0  0  0  0
  186.8660  176.5450  143.7040 N   0  0  0  0  0  0  0  0  0  0  0  0
  191.1110  176.0800  145.0090 C   0  0  0  0  0  0  0  0  0  0  0  0
  188.1390  176.1120  144.1720 C   0  0  0  0  0  0  0  0  0  0  0  0
  190.1560  176.4760  147.2040 C   0  0  0  0  0  2  0  0  0  0  0  0
  186.6610  176.1130  142.3790 N   0  0  0  0  0  0  0  0  0  0  0  0
  192.5850  176.5310  146.9610 C   0  0  0  0  0  3  0  0  0  0  0  0
  192.4390  176.6140  145.4670 C   0  0  0  0  0  2  0  0  0  0  0  0
  189.9350  176.2770  145.9010 C   0  0  0  0  0  0  0  0  0  0  0  0
  185.3730  178.4910  143.8700 C   0  0  0  0  0  3  0  0  0  0  0  0
  183.9970  178.8420  145.8310 C   0  0  0  0  0  3  0  0  0  0  0  0
  184.5100  177.6730  146.3990 C   0  0  0  0  0  3  0  0  0  0  0  0
  185.4540  176.9130  145.7020 C   0  0  0  0  0  3  0  0  0  0  0  0
  185.8940  177.3150  144.4310 C   0  0  0  0  0  0  0  0  0  0  0  0
  184.4290  179.2510  144.5670 C   0  0  0  0  0  3  0  0  0  0  0  0
  190.6450  171.2460  140.9460 C   0  0  0  0  0  3  0  0  0  0  0  0
  190.1840  173.5660  142.4720 C   0  0  0  0  0  0  0  0  0  0  0  0
  189.8390  172.2970  142.9710 C   0  0  0  0  0  3  0  0  0  0  0  0
  190.0640  171.1450  142.2120 C   0  0  0  0  0  3  0  0  0  0  0  0
  191.0030  172.4970  140.4400 C   0  0  0  0  0  3  0  0  0  0  0  0
  190.7770  173.6490  141.2000 C   0  0  0  0  0  3  0  0  0  0  0  0
  1  9  1  0  0  0  0
  2  7  1  0  0  0  0
  2 10  2  0  0  0  0
  3 15  1  0  0  0  0
  4 12  2  0  0  0  0
  4  2  1  0  0  0  0
  6  5  1  0  0  0  0
  7  1  1  0  0  0  0
  8 10  1  0  0  0  0
  8 20  1  0  0  0  0
  9 14  1  0  0  0  0
  9 15  2  0  0  0  0
 10  3  1  0  0  0  0
 11  6  1  0  0  0  0
 12  8  1  0  0  0  0
 13  6  2  0  0  0  0
 14 13  1  0  0  0  0
 15 11  1  0  0  0  0
 16 20  2  0  0  0  0
 16 21  1  0  0  0  0
 17 18  1  0  0  0  0
 19 18  2  0  0  0  0
 20 19  1  0  0  0  0
 21 17  2  0  0  0  0
 22 25  1  0  0  0  0
 23 24  1  0  0  0  0
 23  7  1  0  0  0  0
 25 24  2  0  0  0  0
 26 22  2  0  0  0  0
 26 27  1  0  0  0  0
 27 23  2  0  0  0  0
M  END
>  <MODEL>
2

>  <REMARK>
 VINA RESULT:      -8.0      2.782      5.070
  Name = 
  2 active torsions:
  status: ('A' for Active; 'I' for Inactive)
    1  A    between atoms: C_9  and  N_15
    2  A    between atoms: C_14  and  N_17
                            x       y       z     vdW  Elec       q    Type
                         _______ _______ _______ _____ _____    ______ ____

>  <TORSDO>
F 2

$$$$
=
 OpenBabel11052418313D

 27 31  0  0  0  0  0  0  0  0999 V2000
  188.5500  176.0400  146.2460 C   0  0  0  0  0  2  0  0  0  0  0  0
  188.0050  175.7450  143.8340 C   0  0  0  0  0  0  0  0  0  0  0  0
  190.4290  175.6050  143.7990 O   0  0  0  0  0  0  0  0  0  0  0  0
  186.9540  175.4220  142.9340 N   0  0  0  0  0  0  0  0  0  0  0  0
  193.8510  176.5920  146.9770 F   0  0  0  0  0  0  0  0  0  0  0  0
  192.5840  176.1600  146.7710 C   0  0  0  0  0  0  0  0  0  0  0  0
  187.8130  176.4320  145.0790 N   0  0  0  0  0  0  0  0  0  0  0  0
  188.8720  174.8300  142.0180 N   0  0  0  0  0  0  0  0  0  0  0  0
  189.8420  175.7160  146.2860 C   0  0  0  0  0  0  0  0  0  0  0  0
  189.1450  175.3980  143.2940 C   0  0  0  0  0  0  0  0  0  0  0  0
  192.0810  176.0080  145.3940 C   0  0  0  0  0  2  0  0  0  0  0  0
  187.4850  174.8290  141.7720 N   0  0  0  0  0  0  0  0  0  0  0  0
  191.7940  175.9050  147.8170 C   0  0  0  0  0  3  0  0  0  0  0  0
  190.4030  175.3630  147.6350 C   0  0  0  0  0  2  0  0  0  0  0  0
  190.7860  175.7930  145.1370 C   0  0  0  0  0  0  0  0  0  0  0  0
  189.4030  173.8700  139.8180 C   0  0  0  0  0  3  0  0  0  0  0  0
  191.6780  173.2920  139.2270 C   0  0  0  0  0  3  0  0  0  0  0  0
  192.1140  173.7300  140.4800 C   0  0  0  0  0  3  0  0  0  0  0  0
  191.1930  174.2380  141.4020 C   0  0  0  0  0  3  0  0  0  0  0  0
  189.8290  174.3130  141.0790 C   0  0  0  0  0  0  0  0  0  0  0  0
  190.3230  173.3620  138.8960 C   0  0  0  0  0  3  0  0  0  0  0  0
  184.4520  179.0060  145.5420 C   0  0  0  0  0  3  0  0  0  0  0  0
  186.6830  177.3150  145.2490 C   0  0  0  0  0  0  0  0  0  0  0  0
  185.6190  176.9610  146.0980 C   0  0  0  0  0  3  0  0  0  0  0  0
  184.5130  177.8020  146.2470 C   0  0  0  0  0  3  0  0  0  0  0  0
  185.4950  179.3680  144.6870 C   0  0  0  0  0  3  0  0  0  0  0  0
  186.6020  178.5260  144.5380 C   0  0  0  0  0  3  0  0  0  0  0  0
  1  9  1  0  0  0  0
  2  7  1  0  0  0  0
  3 15  1  0  0  0  0
  4  2  1  0  0  0  0
  6  5  1  0  0  0  0
  6 13  2  0  0  0  0
  7 23  1  0  0  0  0
  7  1  1  0  0  0  0
  8 10  1  0  0  0  0
  9 14  1  0  0  0  0
 10  3  1  0  0  0  0
 10  2  2  0  0  0  0
 11  6  1  0  0  0  0
 12  8  1  0  0  0  0
 12  4  2  0  0  0  0
 14 13  1  0  0  0  0
 15 11  1  0  0  0  0
 15  9  2  0  0  0  0
 16 20  1  0  0  0  0
 17 18  2  0  0  0  0
 18 19  1  0  0  0  0
 20 19  2  0  0  0  0
 20  8  1  0  0  0  0
 21 17  1  0  0  0  0
 21 16  2  0  0  0  0
 22 25  1  0  0  0  0
 23 24  1  0  0  0  0
 24 25  2  0  0  0  0
 26 22  2  0  0  0  0
 27 26  1  0  0  0  0
 27 23  2  0  0  0  0
M  END
>  <MODEL>
3

>  <REMARK>
 VINA RESULT:      -7.6      2.760      7.227
  Name = 
  2 active torsions:
  status: ('A' for Active; 'I' for Inactive)
    1  A    between atoms: C_9  and  N_15
    2  A    between atoms: C_14  and  N_17
                            x       y       z     vdW  Elec       q    Type
                         _______ _______ _______ _____ _____    ______ ____

>  <TORSDO>
F 2

$$$$
=
 OpenBabel11052418313D

 27 31  0  0  0  0  0  0  0  0999 V2000
  188.4910  176.0250  146.1430 C   0  0  0  0  0  2  0  0  0  0  0  0
  188.0100  175.7160  143.7190 C   0  0  0  0  0  0  0  0  0  0  0  0
  190.4330  175.5570  143.7530 O   0  0  0  0  0  0  0  0  0  0  0  0
  186.9820  175.3930  142.7930 N   0  0  0  0  0  0  0  0  0  0  0  0
  193.7740  176.5420  147.0160 F   0  0  0  0  0  0  0  0  0  0  0  0
  192.5100  176.1180  146.7790 C   0  0  0  0  0  0  0  0  0  0  0  0
  187.7890  176.4130  144.9530 N   0  0  0  0  0  0  0  0  0  0  0  0
  188.9190  174.7800  141.9350 N   0  0  0  0  0  0  0  0  0  0  0  0
  189.7790  175.6910  146.2210 C   0  0  0  0  0  0  0  0  0  0  0  0
  189.1620  175.3560  143.2140 C   0  0  0  0  0  0  0  0  0  0  0  0
  192.0430  175.9600  145.3890 C   0  0  0  0  0  2  0  0  0  0  0  0
  187.5400  174.7870  141.6500 N   0  0  0  0  0  0  0  0  0  0  0  0
  191.6890  175.8780  147.8040 C   0  0  0  0  0  3  0  0  0  0  0  0
  190.2990  175.3440  147.5870 C   0  0  0  0  0  2  0  0  0  0  0  0
  190.7550  175.7520  145.0980 C   0  0  0  0  0  0  0  0  0  0  0  0
  191.2480  174.1930  141.4070 C   0  0  0  0  0  3  0  0  0  0  0  0
  191.8330  173.2180  139.2690 C   0  0  0  0  0  3  0  0  0  0  0  0
  190.4920  173.2680  138.8800 C   0  0  0  0  0  3  0  0  0  0  0  0
  189.5290  173.7810  139.7550 C   0  0  0  0  0  3  0  0  0  0  0  0
  189.8980  174.2480  141.0270 C   0  0  0  0  0  0  0  0  0  0  0  0
  192.2110  173.6800  140.5330 C   0  0  0  0  0  3  0  0  0  0  0  0
  184.4930  179.0760  145.3790 C   0  0  0  0  0  3  0  0  0  0  0  0
  186.6610  177.3060  145.0850 C   0  0  0  0  0  0  0  0  0  0  0  0
  186.6310  178.5270  144.3890 C   0  0  0  0  0  3  0  0  0  0  0  0
  185.5530  179.4050  144.5310 C   0  0  0  0  0  3  0  0  0  0  0  0
  184.5120  177.8710  146.0860 C   0  0  0  0  0  3  0  0  0  0  0  0
  185.5910  176.9940  145.9420 C   0  0  0  0  0  3  0  0  0  0  0  0
  1  9  1  0  0  0  0
  2  7  1  0  0  0  0
  3 15  1  0  0  0  0
  4  2  1  0  0  0  0
  6  5  1  0  0  0  0
  6 13  2  0  0  0  0
  7 23  1  0  0  0  0
  7  1  1  0  0  0  0
  8 10  1  0  0  0  0
  9 14  1  0  0  0  0
 10  2  2  0  0  0  0
 10  3  1  0  0  0  0
 11  6  1  0  0  0  0
 12  8  1  0  0  0  0
 12  4  2  0  0  0  0
 14 13  1  0  0  0  0
 15 11  1  0  0  0  0
 15  9  2  0  0  0  0
 17 21  1  0  0  0  0
 18 17  2  0  0  0  0
 18 19  1  0  0  0  0
 19 20  2  0  0  0  0
 20 16  1  0  0  0  0
 20  8  1  0  0  0  0
 21 16  2  0  0  0  0
 22 26  1  0  0  0  0
 23 27  1  0  0  0  0
 24 25  1  0  0  0  0
 24 23  2  0  0  0  0
 25 22  2  0  0  0  0
 27 26  2  0  0  0  0
M  END
>  <MODEL>
4

>  <REMARK>
 VINA RESULT:      -7.6      2.780      7.201
  Name = 
  2 active torsions:
  status: ('A' for Active; 'I' for Inactive)
    1  A    between atoms: C_9  and  N_15
    2  A    between atoms: C_14  and  N_17
                            x       y       z     vdW  Elec       q    Type
                         _______ _______ _______ _____ _____    ______ ____

>  <TORSDO>
F 2

$$$$
=
 OpenBabel11052418313D

 27 31  0  0  0  0  0  0  0  0999 V2000
  191.9600  174.9570  142.6870 C   0  0  0  0  0  2  0  0  0  0  0  0
  189.4750  174.9760  142.8410 C   0  0  0  0  0  0  0  0  0  0  0  0
  190.0920  176.1210  144.8910 O   0  0  0  0  0  0  0  0  0  0  0  0
  188.2840  174.8220  142.0810 N   0  0  0  0  0  0  0  0  0  0  0  0
  194.1960  176.6880  147.2630 F   0  0  0  0  0  0  0  0  0  0  0  0
  193.5910  176.5460  146.0600 C   0  0  0  0  0  0  0  0  0  0  0  0
  190.7000  174.2820  142.5650 N   0  0  0  0  0  0  0  0  0  0  0  0
  187.8620  176.1570  143.7860 N   0  0  0  0  0  0  0  0  0  0  0  0
  192.3110  175.7930  143.6630 C   0  0  0  0  0  0  0  0  0  0  0  0
  189.2290  175.7660  143.8550 C   0  0  0  0  0  0  0  0  0  0  0  0
  192.1210  176.4610  145.9890 C   0  0  0  0  0  2  0  0  0  0  0  0
  187.2440  175.5730  142.6630 N   0  0  0  0  0  0  0  0  0  0  0  0
  194.3330  176.4530  144.9530 C   0  0  0  0  0  3  0  0  0  0  0  0
  193.7010  176.3600  143.5920 C   0  0  0  0  0  2  0  0  0  0  0  0
  191.4890  176.1110  144.8630 C   0  0  0  0  0  0  0  0  0  0  0  0
  186.6160  178.2280  144.2360 C   0  0  0  0  0  3  0  0  0  0  0  0
  185.7970  178.7320  146.4580 C   0  0  0  0  0  3  0  0  0  0  0  0
  186.3380  177.5320  146.9280 C   0  0  0  0  0  3  0  0  0  0  0  0
  187.0180  176.6810  146.0520 C   0  0  0  0  0  3  0  0  0  0  0  0
  187.1630  177.0210  144.6980 C   0  0  0  0  0  0  0  0  0  0  0  0
  185.9350  179.0790  145.1120 C   0  0  0  0  0  3  0  0  0  0  0  0
  190.6620  170.5150  140.5790 C   0  0  0  0  0  3  0  0  0  0  0  0
  190.6690  173.0070  141.8860 C   0  0  0  0  0  0  0  0  0  0  0  0
  190.4570  171.8190  142.6070 C   0  0  0  0  0  3  0  0  0  0  0  0
  190.4490  170.5810  141.9580 C   0  0  0  0  0  3  0  0  0  0  0  0
  190.8840  171.6850  139.8500 C   0  0  0  0  0  3  0  0  0  0  0  0
  190.8910  172.9230  140.5000 C   0  0  0  0  0  3  0  0  0  0  0  0
  1  9  1  0  0  0  0
  2 10  2  0  0  0  0
  4 12  2  0  0  0  0
  4  2  1  0  0  0  0
  6  5  1  0  0  0  0
  7  1  1  0  0  0  0
  7  2  1  0  0  0  0
  8 10  1  0  0  0  0
  8 20  1  0  0  0  0
  9 15  2  0  0  0  0
 10  3  1  0  0  0  0
 11  6  1  0  0  0  0
 12  8  1  0  0  0  0
 13  6  2  0  0  0  0
 14  9  1  0  0  0  0
 14 13  1  0  0  0  0
 15  3  1  0  0  0  0
 15 11  1  0  0  0  0
 16 20  2  0  0  0  0
 16 21  1  0  0  0  0
 17 18  1  0  0  0  0
 19 18  2  0  0  0  0
 20 19  1  0  0  0  0
 21 17  2  0  0  0  0
 22 25  1  0  0  0  0
 23  7  1  0  0  0  0
 23 24  1  0  0  0  0
 25 24  2  0  0  0  0
 26 27  1  0  0  0  0
 26 22  2  0  0  0  0
 27 23  2  0  0  0  0
M  END
>  <MODEL>
5

>  <REMARK>
 VINA RESULT:      -7.4      2.753      5.188
  Name = 
  2 active torsions:
  status: ('A' for Active; 'I' for Inactive)
    1  A    between atoms: C_9  and  N_15
    2  A    between atoms: C_14  and  N_17
                            x       y       z     vdW  Elec       q    Type
                         _______ _______ _______ _____ _____    ______ ____

>  <TORSDO>
F 2

$$$$
=
 OpenBabel11052418313D

 27 31  0  0  0  0  0  0  0  0999 V2000
  187.4410  177.0200  142.8730 C   0  0  0  0  0  2  0  0  0  0  0  0
  188.8540  177.0700  144.9240 C   0  0  0  0  0  0  0  0  0  0  0  0
  189.8670  175.2420  143.6870 O   0  0  0  0  0  0  0  0  0  0  0  0
  189.2250  177.8760  146.0340 N   0  0  0  0  0  0  0  0  0  0  0  0
  188.5640  172.7110  139.8550 F   0  0  0  0  0  0  0  0  0  0  0  0
  188.5310  173.9070  140.4890 C   0  0  0  0  0  0  0  0  0  0  0  0
  187.5620  177.1070  144.3010 N   0  0  0  0  0  0  0  0  0  0  0  0
  190.8910  176.5060  145.5710 N   0  0  0  0  0  0  0  0  0  0  0  0
  188.1280  176.2030  142.0760 C   0  0  0  0  0  0  0  0  0  0  0  0
  189.8380  176.2530  144.6470 C   0  0  0  0  0  0  0  0  0  0  0  0
  189.2560  174.0770  141.7630 C   0  0  0  0  0  2  0  0  0  0  0  0
  190.5250  177.5380  146.4580 N   0  0  0  0  0  0  0  0  0  0  0  0
  187.8200  174.9120  139.9720 C   0  0  0  0  0  3  0  0  0  0  0  0
  187.8090  176.2740  140.6090 C   0  0  0  0  0  2  0  0  0  0  0  0
  189.0860  175.1570  142.5310 C   0  0  0  0  0  0  0  0  0  0  0  0
  193.3470  176.5930  145.6180 C   0  0  0  0  0  3  0  0  0  0  0  0
  194.6640  174.5650  145.7520 C   0  0  0  0  0  3  0  0  0  0  0  0
  193.4910  173.8060  145.7700 C   0  0  0  0  0  3  0  0  0  0  0  0
  192.2470  174.4410  145.7110 C   0  0  0  0  0  3  0  0  0  0  0  0
  192.1640  175.8400  145.6350 C   0  0  0  0  0  0  0  0  0  0  0  0
  194.5920  175.9590  145.6770 C   0  0  0  0  0  3  0  0  0  0  0  0
  184.1220  178.2950  146.5130 C   0  0  0  0  0  3  0  0  0  0  0  0
  186.4060  177.5210  145.0610 C   0  0  0  0  0  0  0  0  0  0  0  0
  185.9410  176.7430  146.1360 C   0  0  0  0  0  3  0  0  0  0  0  0
  184.8090  177.1290  146.8600 C   0  0  0  0  0  3  0  0  0  0  0  0
  184.5660  179.0740  145.4420 C   0  0  0  0  0  3  0  0  0  0  0  0
  185.6980  178.6880  144.7190 C   0  0  0  0  0  3  0  0  0  0  0  0
  1  7  1  0  0  0  0
  2  4  1  0  0  0  0
  3 10  1  0  0  0  0
  4 12  2  0  0  0  0
  5  6  1  0  0  0  0
  6 11  1  0  0  0  0
  7  2  1  0  0  0  0
  7 23  1  0  0  0  0
  8 20  1  0  0  0  0
  8 12  1  0  0  0  0
  9 15  2  0  0  0  0
  9  1  1  0  0  0  0
 10  2  2  0  0  0  0
 10  8  1  0  0  0  0
 11 15  1  0  0  0  0
 13  6  2  0  0  0  0
 13 14  1  0  0  0  0
 14  9  1  0  0  0  0
 15  3  1  0  0  0  0
 16 20  2  0  0  0  0
 16 21  1  0  0  0  0
 17 18  1  0  0  0  0
 19 18  2  0  0  0  0
 20 19  1  0  0  0  0
 21 17  2  0  0  0  0
 22 25  1  0  0  0  0
 23 24  1  0  0  0  0
 24 25  2  0  0  0  0
 26 22  2  0  0  0  0
 27 23  2  0  0  0  0
 27 26  1  0  0  0  0
M  END
>  <MODEL>
6

>  <REMARK>
 VINA RESULT:      -7.4      1.110      6.286
  Name = 
  2 active torsions:
  status: ('A' for Active; 'I' for Inactive)
    1  A    between atoms: C_9  and  N_15
    2  A    between atoms: C_14  and  N_17
                            x       y       z     vdW  Elec       q    Type
                         _______ _______ _______ _____ _____    ______ ____

>  <TORSDO>
F 2

$$$$
=
 OpenBabel11052418313D

 27 31  0  0  0  0  0  0  0  0999 V2000
  188.6740  175.1200  140.8400 C   0  0  0  0  0  2  0  0  0  0  0  0
  189.4730  176.6830  142.6060 C   0  0  0  0  0  0  0  0  0  0  0  0
  190.6110  174.6310  143.2300 O   0  0  0  0  0  0  0  0  0  0  0  0
  189.6000  178.0590  142.9390 N   0  0  0  0  0  0  0  0  0  0  0  0
  190.1750  170.0650  141.9070 F   0  0  0  0  0  0  0  0  0  0  0  0
  190.0810  171.3660  141.5420 C   0  0  0  0  0  0  0  0  0  0  0  0
  188.4090  176.1450  141.8080 N   0  0  0  0  0  0  0  0  0  0  0  0
  191.1950  176.9350  143.9690 N   0  0  0  0  0  0  0  0  0  0  0  0
  189.4750  174.0680  141.0100 C   0  0  0  0  0  0  0  0  0  0  0  0
  190.4160  176.0120  143.2170 C   0  0  0  0  0  0  0  0  0  0  0  0
  190.4430  172.4210  142.5070 C   0  0  0  0  0  2  0  0  0  0  0  0
  190.6980  178.2430  143.8020 N   0  0  0  0  0  0  0  0  0  0  0  0
  189.6340  171.6820  140.3250 C   0  0  0  0  0  3  0  0  0  0  0  0
  189.5750  173.1100  139.8560 C   0  0  0  0  0  2  0  0  0  0  0  0
  190.1710  173.7100  142.2760 C   0  0  0  0  0  0  0  0  0  0  0  0
  193.6170  176.5960  144.2220 C   0  0  0  0  0  3  0  0  0  0  0  0
  194.5800  176.0470  146.3750 C   0  0  0  0  0  3  0  0  0  0  0  0
  193.3080  176.0840  146.9520 C   0  0  0  0  0  3  0  0  0  0  0  0
  192.1910  176.3770  146.1640 C   0  0  0  0  0  3  0  0  0  0  0  0
  192.3350  176.6360  144.7920 C   0  0  0  0  0  0  0  0  0  0  0  0
  194.7340  176.3040  145.0100 C   0  0  0  0  0  3  0  0  0  0  0  0
  184.6210  178.0860  141.6500 C   0  0  0  0  0  3  0  0  0  0  0  0
  187.1330  176.8200  141.7580 C   0  0  0  0  0  0  0  0  0  0  0  0
  186.2850  176.8320  142.8800 C   0  0  0  0  0  3  0  0  0  0  0  0
  185.0400  177.4640  142.8280 C   0  0  0  0  0  3  0  0  0  0  0  0
  185.4470  178.0750  140.5230 C   0  0  0  0  0  3  0  0  0  0  0  0
  186.6930  177.4430  140.5760 C   0  0  0  0  0  3  0  0  0  0  0  0
  1  9  1  0  0  0  0
  1  7  1  0  0  0  0
  2  4  1  0  0  0  0
  2 10  2  0  0  0  0
  4 12  2  0  0  0  0
  6  5  1  0  0  0  0
  6 11  1  0  0  0  0
  7  2  1  0  0  0  0
  8 20  1  0  0  0  0
  9 15  2  0  0  0  0
 10  3  1  0  0  0  0
 10  8  1  0  0  0  0
 12  8  1  0  0  0  0
 13  6  2  0  0  0  0
 14 13  1  0  0  0  0
 14  9  1  0  0  0  0
 15 11  1  0  0  0  0
 15  3  1  0  0  0  0
 16 20  2  0  0  0  0
 16 21  1  0  0  0  0
 17 18  1  0  0  0  0
 19 18  2  0  0  0  0
 20 19  1  0  0  0  0
 21 17  2  0  0  0  0
 22 25  1  0  0  0  0
 23  7  1  0  0  0  0
 23 24  1  0  0  0  0
 25 24  2  0  0  0  0
 26 27  1  0  0  0  0
 26 22  2  0  0  0  0
 27 23  2  0  0  0  0
M  END
>  <MODEL>
7

>  <REMARK>
 VINA RESULT:      -7.3      2.541      6.485
  Name = 
  2 active torsions:
  status: ('A' for Active; 'I' for Inactive)
    1  A    between atoms: C_9  and  N_15
    2  A    between atoms: C_14  and  N_17
                            x       y       z     vdW  Elec       q    Type
                         _______ _______ _______ _____ _____    ______ ____

>  <TORSDO>
F 2

$$$$
=
 OpenBabel11052418313D

 27 31  0  0  0  0  0  0  0  0999 V2000
  186.2060  176.8500  144.6190 C   0  0  0  0  0  2  0  0  0  0  0  0
  188.3530  176.3190  143.4750 C   0  0  0  0  0  0  0  0  0  0  0  0
  189.1440  177.2020  145.5940 O   0  0  0  0  0  0  0  0  0  0  0  0
  188.9220  175.5720  142.4080 N   0  0  0  0  0  0  0  0  0  0  0  0
  187.0660  179.5740  149.1770 F   0  0  0  0  0  0  0  0  0  0  0  0
  186.9270  178.6500  148.1970 C   0  0  0  0  0  0  0  0  0  0  0  0
  187.0340  176.8810  143.4470 N   0  0  0  0  0  0  0  0  0  0  0  0
  190.4460  175.8210  143.9830 N   0  0  0  0  0  0  0  0  0  0  0  0
  186.6030  177.0960  145.8670 C   0  0  0  0  0  0  0  0  0  0  0  0
  189.2540  176.4700  144.4110 C   0  0  0  0  0  0  0  0  0  0  0  0
  188.0930  178.2820  147.3720 C   0  0  0  0  0  2  0  0  0  0  0  0
  190.2560  175.2380  142.7150 N   0  0  0  0  0  0  0  0  0  0  0  0
  185.7300  178.1050  147.9660 C   0  0  0  0  0  3  0  0  0  0  0  0
  185.5450  177.0290  146.9320 C   0  0  0  0  0  2  0  0  0  0  0  0
  187.9670  177.5420  146.2650 C   0  0  0  0  0  0  0  0  0  0  0  0
  192.6020  176.8000  144.6440 C   0  0  0  0  0  3  0  0  0  0  0  0
  194.1290  175.5940  146.0860 C   0  0  0  0  0  3  0  0  0  0  0  0
  193.2270  174.5290  146.1480 C   0  0  0  0  0  3  0  0  0  0  0  0
  192.0130  174.6000  145.4570 C   0  0  0  0  0  3  0  0  0  0  0  0
  191.6900  175.7360  144.7000 C   0  0  0  0  0  0  0  0  0  0  0  0
  193.8160  176.7300  145.3340 C   0  0  0  0  0  3  0  0  0  0  0  0
  185.2420  177.9160  139.7240 C   0  0  0  0  0  3  0  0  0  0  0  0
  186.4180  177.2140  142.1830 C   0  0  0  0  0  0  0  0  0  0  0  0
  187.1580  177.1520  140.9890 C   0  0  0  0  0  3  0  0  0  0  0  0
  186.5730  177.4960  139.7670 C   0  0  0  0  0  3  0  0  0  0  0  0
  184.4960  177.9930  140.9030 C   0  0  0  0  0  3  0  0  0  0  0  0
  185.0810  177.6480  142.1250 C   0  0  0  0  0  3  0  0  0  0  0  0
  1  9  1  0  0  0  0
  2 10  2  0  0  0  0
  3 15  1  0  0  0  0
  4 12  2  0  0  0  0
  4  2  1  0  0  0  0
  6  5  1  0  0  0  0
  7  2  1  0  0  0  0
  7  1  1  0  0  0  0
  8 10  1  0  0  0  0
  8 20  1  0  0  0  0
  9 15  2  0  0  0  0
  9 14  1  0  0  0  0
 10  3  1  0  0  0  0
 11  6  1  0  0  0  0
 12  8  1  0  0  0  0
 13  6  2  0  0  0  0
 14 13  1  0  0  0  0
 15 11  1  0  0  0  0
 16 20  2  0  0  0  0
 16 21  1  0  0  0  0
 17 18  1  0  0  0  0
 19 18  2  0  0  0  0
 20 19  1  0  0  0  0
 21 17  2  0  0  0  0
 22 25  2  0  0  0  0
 22 26  1  0  0  0  0
 23  7  1  0  0  0  0
 24 23  2  0  0  0  0
 25 24  1  0  0  0  0
 26 27  2  0  0  0  0
 27 23  1  0  0  0  0
M  END
>  <MODEL>
8

>  <REMARK>
 VINA RESULT:      -7.3      3.037      7.505
  Name = 
  2 active torsions:
  status: ('A' for Active; 'I' for Inactive)
    1  A    between atoms: C_9  and  N_15
    2  A    between atoms: C_14  and  N_17
                            x       y       z     vdW  Elec       q    Type
                         _______ _______ _______ _____ _____    ______ ____

>  <TORSDO>
F 2

$$$$
=
 OpenBabel11052418313D

 27 31  0  0  0  0  0  0  0  0999 V2000
  190.5360  173.9410  143.9350 C   0  0  0  0  0  2  0  0  0  0  0  0
  189.4110  176.1520  144.1590 C   0  0  0  0  0  0  0  0  0  0  0  0
  188.5330  175.3790  142.0310 O   0  0  0  0  0  0  0  0  0  0  0  0
  189.0710  177.1690  145.0910 N   0  0  0  0  0  0  0  0  0  0  0  0
  189.6900  171.8260  139.0610 F   0  0  0  0  0  0  0  0  0  0  0  0
  189.6250  172.2570  140.3430 C   0  0  0  0  0  0  0  0  0  0  0  0
  190.5900  175.3400  144.2510 N   0  0  0  0  0  0  0  0  0  0  0  0
  187.5840  177.1830  143.4610 N   0  0  0  0  0  0  0  0  0  0  0  0
  189.8810  173.3930  142.9120 C   0  0  0  0  0  0  0  0  0  0  0  0
  188.5330  176.1580  143.1890 C   0  0  0  0  0  0  0  0  0  0  0  0
  189.0560  173.5860  140.6370 C   0  0  0  0  0  2  0  0  0  0  0  0
  187.9030  177.8340  144.6690 N   0  0  0  0  0  0  0  0  0  0  0  0
  190.1040  171.4900  141.3250 C   0  0  0  0  0  3  0  0  0  0  0  0
  189.9920  171.9010  142.7680 C   0  0  0  0  0  2  0  0  0  0  0  0
  189.1600  174.1450  141.8470 C   0  0  0  0  0  0  0  0  0  0  0  0
  186.6190  177.8780  141.3100 C   0  0  0  0  0  3  0  0  0  0  0  0
  184.2380  178.2530  141.0750 C   0  0  0  0  0  3  0  0  0  0  0  0
  184.0540  177.9200  142.4200 C   0  0  0  0  0  3  0  0  0  0  0  0
  185.1530  177.5670  143.2090 C   0  0  0  0  0  3  0  0  0  0  0  0
  186.4460  177.5420  142.6610 C   0  0  0  0  0  0  0  0  0  0  0  0
  185.5200  178.2310  140.5200 C   0  0  0  0  0  3  0  0  0  0  0  0
  194.0660  176.7730  146.2520 C   0  0  0  0  0  3  0  0  0  0  0  0
  191.7600  175.8420  144.9340 C   0  0  0  0  0  0  0  0  0  0  0  0
  192.7890  176.4780  144.2180 C   0  0  0  0  0  3  0  0  0  0  0  0
  193.9330  176.9440  144.8720 C   0  0  0  0  0  3  0  0  0  0  0  0
  193.0580  176.1340  146.9770 C   0  0  0  0  0  3  0  0  0  0  0  0
  191.9140  175.6690  146.3220 C   0  0  0  0  0  3  0  0  0  0  0  0
  1  7  1  0  0  0  0
  2  7  1  0  0  0  0
  2  4  1  0  0  0  0
  3 10  1  0  0  0  0
  5  6  1  0  0  0  0
  6 11  1  0  0  0  0
  6 13  2  0  0  0  0
  7 23  1  0  0  0  0
  8 12  1  0  0  0  0
  9  1  1  0  0  0  0
 10  8  1  0  0  0  0
 10  2  2  0  0  0  0
 11 15  1  0  0  0  0
 12  4  2  0  0  0  0
 13 14  1  0  0  0  0
 14  9  1  0  0  0  0
 15  3  1  0  0  0  0
 15  9  2  0  0  0  0
 16 20  1  0  0  0  0
 17 18  2  0  0  0  0
 18 19  1  0  0  0  0
 20 19  2  0  0  0  0
 20  8  1  0  0  0  0
 21 17  1  0  0  0  0
 21 16  2  0  0  0  0
 22 26  1  0  0  0  0
 23 27  1  0  0  0  0
 24 25  1  0  0  0  0
 24 23  2  0  0  0  0
 25 22  2  0  0  0  0
 27 26  2  0  0  0  0
M  END
>  <MODEL>
9

>  <REMARK>
 VINA RESULT:      -7.3      1.931      2.538
  Name = 
  2 active torsions:
  status: ('A' for Active; 'I' for Inactive)
    1  A    between atoms: C_9  and  N_15
    2  A    between atoms: C_14  and  N_17
                            x       y       z     vdW  Elec       q    Type
                         _______ _______ _______ _____ _____    ______ ____

>  <TORSDO>
F 2

$$$$
