=
 OpenBabel11052417183D

 30 33  0  0  1  0  0  0  0  0999 V2000
  188.0010  177.2440  141.7160 C   0  0  0  0  0  2  0  0  0  0  0  0
  185.8840  177.9220  140.5700 C   0  0  0  0  0  0  0  0  0  0  0  0
  185.9520  177.8600  145.4920 C   0  0  0  0  0  2  0  0  0  0  0  0
  188.4760  176.4300  142.9150 C   0  0  2  0  0  3  0  0  0  0  0  0
  186.9000  177.7620  146.6960 C   0  0  0  0  0  2  0  0  0  0  0  0
  184.5260  178.2450  140.5790 C   0  0  0  0  0  3  0  0  0  0  0  0
  186.5690  177.9710  139.4000 F   0  0  0  0  0  0  0  0  0  0  0  0
  186.4380  177.0630  144.2670 C   0  0  2  0  0  3  0  0  0  0  0  0
  183.8010  178.2010  141.7690 C   0  0  0  0  0  3  0  0  0  0  0  0
  186.5300  177.5470  141.7600 C   0  0  0  0  0  0  0  0  0  0  0  0
  187.9720  177.0220  144.2330 C   0  0  1  0  0  3  0  0  0  0  0  0
  187.6490  176.4290  146.7110 C   0  0  0  0  0  2  0  0  0  0  0  0
  188.5060  176.2450  145.4490 C   0  0  0  0  0  2  0  0  0  0  0  0
  184.4370  177.8410  142.9590 C   0  0  0  0  0  3  0  0  0  0  0  0
  185.8070  177.5390  142.9770 C   0  0  0  0  0  0  0  0  0  0  0  0
  191.8020  174.9440  142.3860 O   0  0  0  0  0  0  0  0  0  0  0  0
  190.6160  174.9760  142.8130 C   0  0  0  0  0  0  0  0  0  0  0  0
  189.9310  176.2520  142.8810 N   0  0  0  0  0  0  0  0  0  0  0  0
  189.3530  172.8900  142.3470 N   0  0  0  0  0  0  0  0  0  0  0  0
  190.0530  173.1610  144.4460 N   0  0  0  0  0  2  0  0  0  0  0  0
  190.0020  173.6910  143.2130 C   0  0  0  0  0  0  0  0  0  0  0  0
  188.9960  171.8430  143.1180 C   0  0  0  0  0  3  0  0  0  0  0  0
  189.4170  172.0040  144.3860 N   0  0  0  0  0  0  0  0  0  0  0  0
  190.7000  177.4760  142.7010 C   0  0  0  0  0  2  0  0  0  0  0  0
  191.1050  178.0410  144.0520 C   0  0  0  0  0  2  0  0  0  0  0  0
  192.2970  177.2790  144.6040 C   0  0  0  0  0  2  0  0  0  0  0  0
  191.9760  176.7370  145.9150 N   0  0  0  0  0  2  0  0  0  0  0  0
  192.9650  174.6630  145.4920 O   0  0  0  0  0  0  0  0  0  0  0  0
  192.3440  175.4110  146.2930 C   0  0  0  0  0  0  0  0  0  0  0  0
  192.0140  174.9410  147.5570 O   0  0  0  0  0  1  0  0  0  0  0  0
  1 10  1  0  0  0  0
  1  4  1  0  0  0  0
  2  6  2  0  0  0  0
  2 10  1  0  0  0  0
  3  5  1  0  0  0  0
  4 18  1  1  0  0  0
  4 11  1  0  0  0  0
  5 12  1  0  0  0  0
  6  9  1  0  0  0  0
  7  2  1  0  0  0  0
  8  3  1  1  0  0  0
  9 14  2  0  0  0  0
 10 15  2  0  0  0  0
 11  8  1  0  0  0  0
 11 13  1  1  0  0  0
 13 12  1  0  0  0  0
 14 15  1  0  0  0  0
 15  8  1  0  0  0  0
 16 17  2  0  0  0  0
 17 18  1  0  0  0  0
 17 21  1  0  0  0  0
 19 22  1  0  0  0  0
 19 21  2  0  0  0  0
 21 20  1  0  0  0  0
 22 23  2  0  0  0  0
 23 20  1  0  0  0  0
 24 18  1  0  0  0  0
 24 25  1  0  0  0  0
 25 26  1  0  0  0  0
 26 27  1  0  0  0  0
 27 29  1  0  0  0  0
 28 29  2  0  0  0  0
 29 30  1  0  0  0  0
M  END
>  <MODEL>
1

>  <REMARK>
 VINA RESULT:      -7.3      0.000      0.000
  Name = 
  6 active torsions:
  status: ('A' for Active; 'I' for Inactive)
    1  A    between atoms: C_4  and  N_13
    2  A    between atoms: N_7  and  C_16
    3  A    between atoms: C_8  and  C_12
    4  A    between atoms: N_13  and  C_27
    5  A    between atoms: C_16  and  C_30
    6  A    between atoms: C_27  and  C_30
                            x       y       z     vdW  Elec       q    Type
                         _______ _______ _______ _____ _____    ______ ____

>  <TORSDO>
F 6

$$$$
=
 OpenBabel11052417183D

 30 33  0  0  1  0  0  0  0  0999 V2000
  191.6980  176.2330  143.1770 C   0  0  0  0  0  2  0  0  0  0  0  0
  194.0600  176.3320  143.9930 C   0  0  0  0  0  0  0  0  0  0  0  0
  190.5270  175.1870  147.2230 C   0  0  0  0  0  2  0  0  0  0  0  0
  190.2880  176.6090  143.6200 C   0  0  2  0  0  3  0  0  0  0  0  0
  189.0480  174.7820  147.3180 C   0  0  0  0  0  2  0  0  0  0  0  0
  195.0140  176.3210  145.0120 C   0  0  0  0  0  3  0  0  0  0  0  0
  194.4710  176.4180  142.7030 F   0  0  0  0  0  0  0  0  0  0  0  0
  190.8240  176.1300  146.0420 C   0  0  2  0  0  3  0  0  0  0  0  0
  194.6170  176.2340  146.3460 C   0  0  0  0  0  3  0  0  0  0  0  0
  192.6930  176.2570  144.3040 C   0  0  0  0  0  0  0  0  0  0  0  0
  189.8700  175.8410  144.8750 C   0  0  1  0  0  3  0  0  0  0  0  0
  188.1320  175.8740  146.7670 C   0  0  0  0  0  2  0  0  0  0  0  0
  188.4230  176.1650  145.2860 C   0  0  0  0  0  2  0  0  0  0  0  0
  193.2610  176.1470  146.6640 C   0  0  0  0  0  3  0  0  0  0  0  0
  192.2870  176.1300  145.6540 C   0  0  0  0  0  0  0  0  0  0  0  0
  187.7130  175.2290  141.3810 O   0  0  0  0  0  0  0  0  0  0  0  0
  188.7920  175.2130  142.0350 C   0  0  0  0  0  0  0  0  0  0  0  0
  189.3390  176.4670  142.5120 N   0  0  0  0  0  0  0  0  0  0  0  0
  190.4500  173.4330  141.5370 N   0  0  0  0  0  0  0  0  0  0  0  0
  189.0840  173.0440  143.2560 N   0  0  0  0  0  2  0  0  0  0  0  0
  189.4230  173.8960  142.2750 C   0  0  0  0  0  0  0  0  0  0  0  0
  190.7170  172.2420  142.1120 C   0  0  0  0  0  3  0  0  0  0  0  0
  189.8940  172.0060  143.1500 N   0  0  0  0  0  0  0  0  0  0  0  0
  188.7780  177.7160  142.0140 C   0  0  0  0  0  2  0  0  0  0  0  0
  187.8150  178.3000  143.0340 C   0  0  0  0  0  2  0  0  0  0  0  0
  186.4140  178.3670  142.4540 C   0  0  0  0  0  2  0  0  0  0  0  0
  185.4310  178.1260  143.4990 N   0  0  0  0  0  2  0  0  0  0  0  0
  185.3520  180.3570  144.1840 O   0  0  0  0  0  0  0  0  0  0  0  0
  184.9420  179.1760  144.3320 C   0  0  0  0  0  0  0  0  0  0  0  0
  184.0030  178.8910  145.3150 O   0  0  0  0  0  1  0  0  0  0  0  0
  1  4  1  0  0  0  0
  1 10  1  0  0  0  0
  2 10  2  0  0  0  0
  2  6  1  0  0  0  0
  3  5  1  0  0  0  0
  4 18  1  6  0  0  0
  4 11  1  0  0  0  0
  6  9  2  0  0  0  0
  7  2  1  0  0  0  0
  8  3  1  1  0  0  0
  9 14  1  0  0  0  0
 10 15  1  0  0  0  0
 11 13  1  1  0  0  0
 11  8  1  0  0  0  0
 12  5  1  0  0  0  0
 13 12  1  0  0  0  0
 15  8  1  0  0  0  0
 15 14  2  0  0  0  0
 16 17  2  0  0  0  0
 17 21  1  0  0  0  0
 17 18  1  0  0  0  0
 19 22  1  0  0  0  0
 19 21  2  0  0  0  0
 21 20  1  0  0  0  0
 22 23  2  0  0  0  0
 23 20  1  0  0  0  0
 24 18  1  0  0  0  0
 24 25  1  0  0  0  0
 26 25  1  0  0  0  0
 26 27  1  0  0  0  0
 27 29  1  0  0  0  0
 28 29  2  0  0  0  0
 29 30  1  0  0  0  0
M  END
>  <MODEL>
2

>  <REMARK>
 VINA RESULT:      -6.8      3.368      6.081
  Name = 
  6 active torsions:
  status: ('A' for Active; 'I' for Inactive)
    1  A    between atoms: C_4  and  N_13
    2  A    between atoms: N_7  and  C_16
    3  A    between atoms: C_8  and  C_12
    4  A    between atoms: N_13  and  C_27
    5  A    between atoms: C_16  and  C_30
    6  A    between atoms: C_27  and  C_30
                            x       y       z     vdW  Elec       q    Type
                         _______ _______ _______ _____ _____    ______ ____

>  <TORSDO>
F 6

$$$$
=
 OpenBabel11052417183D

 30 33  0  0  1  0  0  0  0  0999 V2000
  188.0790  177.1250  144.1220 C   0  0  0  0  0  2  0  0  0  0  0  0
  186.9710  178.0820  142.0940 C   0  0  0  0  0  0  0  0  0  0  0  0
  188.4380  173.3860  141.9470 C   0  0  0  0  0  2  0  0  0  0  0  0
  189.2290  176.1980  144.5010 C   0  0  2  0  0  3  0  0  0  0  0  0
  188.9350  172.2370  142.8360 C   0  0  0  0  0  2  0  0  0  0  0  0
  186.5790  178.0170  140.7560 C   0  0  0  0  0  3  0  0  0  0  0  0
  186.6320  179.1710  142.8300 F   0  0  0  0  0  0  0  0  0  0  0  0
  188.8820  174.7750  142.4430 C   0  0  2  0  0  3  0  0  0  0  0  0
  186.9160  176.9080  139.9790 C   0  0  0  0  0  3  0  0  0  0  0  0
  187.7090  177.0340  142.6670 C   0  0  0  0  0  0  0  0  0  0  0  0
  189.0070  174.7800  143.9730 C   0  0  1  0  0  3  0  0  0  0  0  0
  190.2610  172.5850  143.5130 C   0  0  0  0  0  2  0  0  0  0  0  0
  190.1300  173.8250  144.4120 C   0  0  0  0  0  2  0  0  0  0  0  0
  187.6380  175.8560  140.5430 C   0  0  0  0  0  3  0  0  0  0  0  0
  188.0190  175.8900  141.8930 C   0  0  0  0  0  0  0  0  0  0  0  0
  190.7940  176.9250  147.7530 O   0  0  0  0  0  0  0  0  0  0  0  0
  190.7650  176.5120  146.5610 C   0  0  0  0  0  0  0  0  0  0  0  0
  189.4810  176.2450  145.9450 N   0  0  0  0  0  0  0  0  0  0  0  0
  192.9550  175.3910  146.2240 N   0  0  0  0  0  0  0  0  0  0  0  0
  192.4770  177.0480  144.8120 N   0  0  0  0  0  2  0  0  0  0  0  0
  192.0620  176.3350  145.8710 C   0  0  0  0  0  0  0  0  0  0  0  0
  193.9480  175.5710  145.3310 C   0  0  0  0  0  3  0  0  0  0  0  0
  193.6630  176.5710  144.4770 N   0  0  0  0  0  0  0  0  0  0  0  0
  188.2890  176.2120  146.7810 C   0  0  0  0  0  2  0  0  0  0  0  0
  187.8410  177.6280  147.1070 C   0  0  0  0  0  2  0  0  0  0  0  0
  186.3850  177.6320  147.5350 C   0  0  0  0  0  2  0  0  0  0  0  0
  185.6600  178.6750  146.8260 N   0  0  0  0  0  2  0  0  0  0  0  0
  184.9050  177.2480  145.1380 O   0  0  0  0  0  1  0  0  0  0  0  0
  184.9380  178.4090  145.6250 C   0  0  0  0  0  0  0  0  0  0  0  0
  184.2630  179.4410  144.9870 O   0  0  0  0  0  0  0  0  0  0  0  0
  1  4  1  0  0  0  0
  2 10  1  0  0  0  0
  2  7  1  0  0  0  0
  3  5  1  0  0  0  0
  4 18  1  1  0  0  0
  5 12  1  0  0  0  0
  6  2  2  0  0  0  0
  8  3  1  1  0  0  0
  8 11  1  0  0  0  0
  9 14  2  0  0  0  0
  9  6  1  0  0  0  0
 10  1  1  0  0  0  0
 11 13  1  6  0  0  0
 11  4  1  0  0  0  0
 12 13  1  0  0  0  0
 14 15  1  0  0  0  0
 15  8  1  0  0  0  0
 15 10  2  0  0  0  0
 17 16  2  0  0  0  0
 18 17  1  0  0  0  0
 18 24  1  0  0  0  0
 20 21  1  0  0  0  0
 21 19  2  0  0  0  0
 21 17  1  0  0  0  0
 22 19  1  0  0  0  0
 23 20  1  0  0  0  0
 23 22  2  0  0  0  0
 24 25  1  0  0  0  0
 25 26  1  0  0  0  0
 27 26  1  0  0  0  0
 28 29  1  0  0  0  0
 29 27  1  0  0  0  0
 30 29  2  0  0  0  0
M  END
>  <MODEL>
3

>  <REMARK>
 VINA RESULT:      -6.6      2.914      5.155
  Name = 
  6 active torsions:
  status: ('A' for Active; 'I' for Inactive)
    1  A    between atoms: C_4  and  N_13
    2  A    between atoms: N_7  and  C_16
    3  A    between atoms: C_8  and  C_12
    4  A    between atoms: N_13  and  C_27
    5  A    between atoms: C_16  and  C_30
    6  A    between atoms: C_27  and  C_30
                            x       y       z     vdW  Elec       q    Type
                         _______ _______ _______ _____ _____    ______ ____

>  <TORSDO>
F 6

$$$$
=
 OpenBabel11052417183D

 30 33  0  0  1  0  0  0  0  0999 V2000
  187.6690  176.1120  144.4820 C   0  0  0  0  0  2  0  0  0  0  0  0
  186.8070  176.6960  146.7560 C   0  0  0  0  0  0  0  0  0  0  0  0
  184.2240  178.1740  142.8360 C   0  0  0  0  0  2  0  0  0  0  0  0
  187.8120  176.7210  143.0910 C   0  0  2  0  0  3  0  0  0  0  0  0
  184.0950  177.9780  141.3170 C   0  0  0  0  0  2  0  0  0  0  0  0
  185.9300  177.3720  147.6060 C   0  0  0  0  0  3  0  0  0  0  0  0
  187.7320  175.8590  147.2890 F   0  0  0  0  0  0  0  0  0  0  0  0
  185.6700  178.0350  143.3460 C   0  0  2  0  0  3  0  0  0  0  0  0
  184.9710  178.2380  147.0820 C   0  0  0  0  0  3  0  0  0  0  0  0
  186.7320  176.8870  145.3660 C   0  0  0  0  0  0  0  0  0  0  0  0
  186.4490  177.0410  142.4740 C   0  0  1  0  0  3  0  0  0  0  0  0
  185.3670  178.4080  140.5870 C   0  0  0  0  0  2  0  0  0  0  0  0
  186.5860  177.5900  141.0430 C   0  0  0  0  0  2  0  0  0  0  0  0
  184.8810  178.4240  145.7020 C   0  0  0  0  0  3  0  0  0  0  0  0
  185.7360  177.7350  144.8280 C   0  0  0  0  0  0  0  0  0  0  0  0
  190.5880  174.6120  141.9070 O   0  0  0  0  0  0  0  0  0  0  0  0
  190.0670  175.6390  142.4230 C   0  0  0  0  0  0  0  0  0  0  0  0
  188.6500  175.8740  142.2360 N   0  0  0  0  0  0  0  0  0  0  0  0
  191.7690  176.0920  144.1740 N   0  0  0  0  0  0  0  0  0  0  0  0
  191.0830  177.8560  142.9970 N   0  0  0  0  0  2  0  0  0  0  0  0
  190.9550  176.5350  143.1970 C   0  0  0  0  0  0  0  0  0  0  0  0
  192.3970  177.2160  144.5720 C   0  0  0  0  0  3  0  0  0  0  0  0
  191.9850  178.2830  143.8630 N   0  0  0  0  0  0  0  0  0  0  0  0
  187.9250  175.0720  141.2590 C   0  0  0  0  0  2  0  0  0  0  0  0
  187.8360  173.6300  141.7300 C   0  0  0  0  0  2  0  0  0  0  0  0
  188.1350  172.6840  140.5810 C   0  0  0  0  0  2  0  0  0  0  0  0
  188.4720  173.4430  139.3860 N   0  0  0  0  0  2  0  0  0  0  0  0
  190.5710  172.4500  139.1350 O   0  0  0  0  0  1  0  0  0  0  0  0
  189.7170  173.2730  138.7110 C   0  0  0  0  0  0  0  0  0  0  0  0
  189.9900  174.0230  137.5740 O   0  0  0  0  0  0  0  0  0  0  0  0
  1 10  1  0  0  0  0
  2  7  1  0  0  0  0
  2  6  1  0  0  0  0
  4 18  1  6  0  0  0
  4  1  1  0  0  0  0
  5  3  1  0  0  0  0
  8  3  1  6  0  0  0
  8 15  1  0  0  0  0
  9  6  2  0  0  0  0
 10  2  2  0  0  0  0
 11 13  1  6  0  0  0
 11  4  1  0  0  0  0
 11  8  1  0  0  0  0
 12 13  1  0  0  0  0
 12  5  1  0  0  0  0
 14  9  1  0  0  0  0
 15 10  1  0  0  0  0
 15 14  2  0  0  0  0
 16 17  2  0  0  0  0
 17 21  1  0  0  0  0
 18 17  1  0  0  0  0
 19 22  1  0  0  0  0
 20 21  1  0  0  0  0
 20 23  1  0  0  0  0
 21 19  2  0  0  0  0
 23 22  2  0  0  0  0
 24 25  1  0  0  0  0
 24 18  1  0  0  0  0
 26 25  1  0  0  0  0
 27 26  1  0  0  0  0
 29 28  1  0  0  0  0
 29 27  1  0  0  0  0
 30 29  2  0  0  0  0
M  END
>  <MODEL>
4

>  <REMARK>
 VINA RESULT:      -6.5      2.601      5.461
  Name = 
  6 active torsions:
  status: ('A' for Active; 'I' for Inactive)
    1  A    between atoms: C_4  and  N_13
    2  A    between atoms: N_7  and  C_16
    3  A    between atoms: C_8  and  C_12
    4  A    between atoms: N_13  and  C_27
    5  A    between atoms: C_16  and  C_30
    6  A    between atoms: C_27  and  C_30
                            x       y       z     vdW  Elec       q    Type
                         _______ _______ _______ _____ _____    ______ ____

>  <TORSDO>
F 6

$$$$
=
 OpenBabel11052417183D

 30 33  0  0  1  0  0  0  0  0999 V2000
  187.9020  177.0830  142.7370 C   0  0  0  0  0  2  0  0  0  0  0  0
  186.1680  178.7850  143.3280 C   0  0  0  0  0  0  0  0  0  0  0  0
  188.4120  176.3810  146.9900 C   0  0  0  0  0  2  0  0  0  0  0  0
  188.3830  175.7020  143.1700 C   0  0  2  0  0  3  0  0  0  0  0  0
  189.6050  175.4620  147.2920 C   0  0  0  0  0  2  0  0  0  0  0  0
  185.3350  179.4320  144.2430 C   0  0  0  0  0  3  0  0  0  0  0  0
  186.1670  179.1900  142.0330 F   0  0  0  0  0  0  0  0  0  0  0  0
  187.8140  176.1600  145.5870 C   0  0  2  0  0  3  0  0  0  0  0  0
  185.3180  179.0330  145.5790 C   0  0  0  0  0  3  0  0  0  0  0  0
  186.9920  177.7280  143.7450 C   0  0  0  0  0  0  0  0  0  0  0  0
  188.9070  175.7130  144.6070 C   0  0  1  0  0  3  0  0  0  0  0  0
  189.4910  174.1330  146.5460 C   0  0  0  0  0  2  0  0  0  0  0  0
  189.4580  174.3380  145.0230 C   0  0  0  0  0  2  0  0  0  0  0  0
  186.1430  177.9910  146.0060 C   0  0  0  0  0  3  0  0  0  0  0  0
  187.0060  177.3460  145.1080 C   0  0  0  0  0  0  0  0  0  0  0  0
  191.5210  174.4870  141.6750 O   0  0  0  0  0  0  0  0  0  0  0  0
  190.7880  175.3050  142.2970 C   0  0  0  0  0  0  0  0  0  0  0  0
  189.3490  175.1620  142.2060 N   0  0  0  0  0  0  0  0  0  0  0  0
  192.3680  176.0860  144.0460 N   0  0  0  0  0  0  0  0  0  0  0  0
  191.2900  177.6790  142.9200 N   0  0  0  0  0  2  0  0  0  0  0  0
  191.4630  176.3580  143.0870 C   0  0  0  0  0  0  0  0  0  0  0  0
  192.7340  177.3130  144.4690 C   0  0  0  0  0  3  0  0  0  0  0  0
  192.0840  178.2770  143.7900 N   0  0  0  0  0  0  0  0  0  0  0  0
  188.7910  174.2550  141.2130 C   0  0  0  0  0  2  0  0  0  0  0  0
  188.0970  173.0910  141.9000 C   0  0  0  0  0  2  0  0  0  0  0  0
  189.1030  172.0060  142.2390 C   0  0  0  0  0  2  0  0  0  0  0  0
  189.9400  171.7260  141.0830 N   0  0  0  0  0  2  0  0  0  0  0  0
  190.6690  169.6590  141.8920 O   0  0  0  0  0  1  0  0  0  0  0  0
  190.7020  170.5240  140.9770 C   0  0  0  0  0  0  0  0  0  0  0  0
  191.4850  170.3050  139.8520 O   0  0  0  0  0  0  0  0  0  0  0  0
  1  4  1  0  0  0  0
  1 10  1  0  0  0  0
  2 10  2  0  0  0  0
  2  6  1  0  0  0  0
  3  5  1  0  0  0  0
  4 18  1  6  0  0  0
  4 11  1  0  0  0  0
  6  9  2  0  0  0  0
  7  2  1  0  0  0  0
  8  3  1  1  0  0  0
  9 14  1  0  0  0  0
 10 15  1  0  0  0  0
 11 13  1  1  0  0  0
 11  8  1  0  0  0  0
 12  5  1  0  0  0  0
 13 12  1  0  0  0  0
 15  8  1  0  0  0  0
 15 14  2  0  0  0  0
 16 17  2  0  0  0  0
 17 21  1  0  0  0  0
 18 17  1  0  0  0  0
 19 22  1  0  0  0  0
 20 21  1  0  0  0  0
 20 23  1  0  0  0  0
 21 19  2  0  0  0  0
 23 22  2  0  0  0  0
 24 25  1  0  0  0  0
 24 18  1  0  0  0  0
 25 26  1  0  0  0  0
 27 26  1  0  0  0  0
 29 27  1  0  0  0  0
 29 28  1  0  0  0  0
 30 29  2  0  0  0  0
M  END
>  <MODEL>
5

>  <REMARK>
 VINA RESULT:      -6.4      2.253      4.470
  Name = 
  6 active torsions:
  status: ('A' for Active; 'I' for Inactive)
    1  A    between atoms: C_4  and  N_13
    2  A    between atoms: N_7  and  C_16
    3  A    between atoms: C_8  and  C_12
    4  A    between atoms: N_13  and  C_27
    5  A    between atoms: C_16  and  C_30
    6  A    between atoms: C_27  and  C_30
                            x       y       z     vdW  Elec       q    Type
                         _______ _______ _______ _____ _____    ______ ____

>  <TORSDO>
F 6

$$$$
=
 OpenBabel11052417183D

 30 33  0  0  1  0  0  0  0  0999 V2000
  187.7480  175.8990  145.1030 C   0  0  0  0  0  2  0  0  0  0  0  0
  186.6370  177.0780  147.0080 C   0  0  0  0  0  0  0  0  0  0  0  0
  185.3940  178.3730  142.4250 C   0  0  0  0  0  2  0  0  0  0  0  0
  188.3270  176.1900  143.7220 C   0  0  2  0  0  3  0  0  0  0  0  0
  185.5240  177.9370  140.9580 C   0  0  0  0  0  2  0  0  0  0  0  0
  185.8230  178.0860  147.5280 C   0  0  0  0  0  3  0  0  0  0  0  0
  187.1740  176.1600  147.8500 F   0  0  0  0  0  0  0  0  0  0  0  0
  186.6150  177.9940  143.2830 C   0  0  2  0  0  3  0  0  0  0  0  0
  185.2600  179.0410  146.6830 C   0  0  0  0  0  3  0  0  0  0  0  0
  186.8980  177.0210  145.6290 C   0  0  0  0  0  0  0  0  0  0  0  0
  187.2540  176.7010  142.7580 C   0  0  1  0  0  3  0  0  0  0  0  0
  186.9850  177.9120  140.5090 C   0  0  0  0  0  2  0  0  0  0  0  0
  187.8190  176.9300  141.3460 C   0  0  0  0  0  2  0  0  0  0  0  0
  185.5040  178.9860  145.3100 C   0  0  0  0  0  3  0  0  0  0  0  0
  186.2970  177.9660  144.7620 C   0  0  0  0  0  0  0  0  0  0  0  0
  190.7400  173.4230  143.4450 O   0  0  0  0  0  0  0  0  0  0  0  0
  190.3820  174.6190  143.6300 C   0  0  0  0  0  0  0  0  0  0  0  0
  189.0580  175.0260  143.2080 N   0  0  0  0  0  0  0  0  0  0  0  0
  192.1970  176.3130  143.5850 N   0  0  0  0  0  0  0  0  0  0  0  0
  191.4830  175.6990  145.6060 N   0  0  0  0  0  2  0  0  0  0  0  0
  191.3540  175.5250  144.2800 C   0  0  0  0  0  0  0  0  0  0  0  0
  192.8600  176.9720  144.5570 C   0  0  0  0  0  3  0  0  0  0  0  0
  192.4300  176.6030  145.7780 N   0  0  0  0  0  0  0  0  0  0  0  0
  188.2800  174.1310  142.3620 C   0  0  0  0  0  2  0  0  0  0  0  0
  189.0830  173.7480  141.1300 C   0  0  0  0  0  2  0  0  0  0  0  0
  188.1920  173.0500  140.1190 C   0  0  0  0  0  2  0  0  0  0  0  0
  188.7680  173.1590  138.7880 N   0  0  0  0  0  2  0  0  0  0  0  0
  187.4680  175.0020  138.1830 O   0  0  0  0  0  1  0  0  0  0  0  0
  188.3550  174.1660  137.8670 C   0  0  0  0  0  0  0  0  0  0  0  0
  188.9380  174.2260  136.6080 O   0  0  0  0  0  0  0  0  0  0  0  0
  1 10  1  0  0  0  0
  2  6  1  0  0  0  0
  2  7  1  0  0  0  0
  4 18  1  6  0  0  0
  4  1  1  0  0  0  0
  5  3  1  0  0  0  0
  8  3  1  6  0  0  0
  8 15  1  0  0  0  0
  9  6  2  0  0  0  0
 10  2  2  0  0  0  0
 11 13  1  6  0  0  0
 11  8  1  0  0  0  0
 11  4  1  0  0  0  0
 12  5  1  0  0  0  0
 12 13  1  0  0  0  0
 14  9  1  0  0  0  0
 15 14  2  0  0  0  0
 15 10  1  0  0  0  0
 16 17  2  0  0  0  0
 17 21  1  0  0  0  0
 18 17  1  0  0  0  0
 19 21  2  0  0  0  0
 19 22  1  0  0  0  0
 20 23  1  0  0  0  0
 21 20  1  0  0  0  0
 22 23  2  0  0  0  0
 24 18  1  0  0  0  0
 25 24  1  0  0  0  0
 26 25  1  0  0  0  0
 27 26  1  0  0  0  0
 29 28  1  0  0  0  0
 29 27  1  0  0  0  0
 30 29  2  0  0  0  0
M  END
>  <MODEL>
6

>  <REMARK>
 VINA RESULT:      -6.4      2.866      5.609
  Name = 
  6 active torsions:
  status: ('A' for Active; 'I' for Inactive)
    1  A    between atoms: C_4  and  N_13
    2  A    between atoms: N_7  and  C_16
    3  A    between atoms: C_8  and  C_12
    4  A    between atoms: N_13  and  C_27
    5  A    between atoms: C_16  and  C_30
    6  A    between atoms: C_27  and  C_30
                            x       y       z     vdW  Elec       q    Type
                         _______ _______ _______ _____ _____    ______ ____

>  <TORSDO>
F 6

$$$$
=
 OpenBabel11052417183D

 30 33  0  0  1  0  0  0  0  0999 V2000
  190.8340  177.0010  143.6560 C   0  0  0  0  0  2  0  0  0  0  0  0
  188.9160  177.6570  142.1910 C   0  0  0  0  0  0  0  0  0  0  0  0
  189.3080  172.9400  143.5410 C   0  0  0  0  0  2  0  0  0  0  0  0
  191.8380  175.8670  143.8340 C   0  0  2  0  0  3  0  0  0  0  0  0
  190.0500  172.0080  144.5120 C   0  0  0  0  0  2  0  0  0  0  0  0
  187.8180  177.3490  141.3850 C   0  0  0  0  0  3  0  0  0  0  0  0
  189.2310  178.9580  142.4100 F   0  0  0  0  0  0  0  0  0  0  0  0
  190.1580  174.1380  143.0800 C   0  0  2  0  0  3  0  0  0  0  0  0
  187.4740  176.0190  141.1440 C   0  0  0  0  0  3  0  0  0  0  0  0
  189.6830  176.6290  142.7630 C   0  0  0  0  0  0  0  0  0  0  0  0
  191.1430  174.5500  144.1830 C   0  0  1  0  0  3  0  0  0  0  0  0
  191.5560  172.0150  144.2530 C   0  0  0  0  0  2  0  0  0  0  0  0
  192.1560  173.4190  144.4320 C   0  0  0  0  0  2  0  0  0  0  0  0
  188.2230  174.9910  141.7190 C   0  0  0  0  0  3  0  0  0  0  0  0
  189.3140  175.2780  142.5530 C   0  0  0  0  0  0  0  0  0  0  0  0
  195.0380  177.0170  145.2440 O   0  0  0  0  0  0  0  0  0  0  0  0
  194.2990  176.3140  144.5020 C   0  0  0  0  0  0  0  0  0  0  0  0
  192.8810  176.2420  144.7940 N   0  0  0  0  0  0  0  0  0  0  0  0
  195.5290  174.4060  143.4960 N   0  0  0  0  0  0  0  0  0  0  0  0
  194.9840  176.0600  142.1050 N   0  0  0  0  0  2  0  0  0  0  0  0
  194.9430  175.6110  143.3700 C   0  0  0  0  0  0  0  0  0  0  0  0
  195.9440  174.1420  142.2410 C   0  0  0  0  0  3  0  0  0  0  0  0
  195.6150  175.1390  141.3990 N   0  0  0  0  0  0  0  0  0  0  0  0
  192.3950  176.7640  146.0640 C   0  0  0  0  0  2  0  0  0  0  0  0
  192.4090  175.6700  147.1190 C   0  0  0  0  0  2  0  0  0  0  0  0
  191.1900  175.7880  148.0140 C   0  0  0  0  0  2  0  0  0  0  0  0
  190.0620  176.3040  147.2540 N   0  0  0  0  0  2  0  0  0  0  0  0
  188.9470  174.2530  147.1810 O   0  0  0  0  0  1  0  0  0  0  0  0
  188.9680  175.4730  146.8690 C   0  0  0  0  0  0  0  0  0  0  0  0
  187.9160  176.0160  146.1430 O   0  0  0  0  0  0  0  0  0  0  0  0
  1  4  1  0  0  0  0
  2  7  1  0  0  0  0
  2 10  1  0  0  0  0
  3  5  1  0  0  0  0
  4 11  1  0  0  0  0
  4 18  1  1  0  0  0
  6  2  2  0  0  0  0
  8  3  1  1  0  0  0
  8 11  1  0  0  0  0
  9  6  1  0  0  0  0
  9 14  2  0  0  0  0
 10  1  1  0  0  0  0
 11 13  1  6  0  0  0
 12 13  1  0  0  0  0
 12  5  1  0  0  0  0
 14 15  1  0  0  0  0
 15 10  2  0  0  0  0
 15  8  1  0  0  0  0
 17 18  1  0  0  0  0
 17 16  2  0  0  0  0
 18 24  1  0  0  0  0
 20 21  1  0  0  0  0
 21 19  2  0  0  0  0
 21 17  1  0  0  0  0
 22 19  1  0  0  0  0
 23 20  1  0  0  0  0
 23 22  2  0  0  0  0
 24 25  1  0  0  0  0
 25 26  1  0  0  0  0
 27 26  1  0  0  0  0
 29 28  1  0  0  0  0
 29 27  1  0  0  0  0
 30 29  2  0  0  0  0
M  END
>  <MODEL>
7

>  <REMARK>
 VINA RESULT:      -6.4      2.961      4.844
  Name = 
  6 active torsions:
  status: ('A' for Active; 'I' for Inactive)
    1  A    between atoms: C_4  and  N_13
    2  A    between atoms: N_7  and  C_16
    3  A    between atoms: C_8  and  C_12
    4  A    between atoms: N_13  and  C_27
    5  A    between atoms: C_16  and  C_30
    6  A    between atoms: C_27  and  C_30
                            x       y       z     vdW  Elec       q    Type
                         _______ _______ _______ _____ _____    ______ ____

>  <TORSDO>
F 6

$$$$
=
 OpenBabel11052417183D

 30 33  0  0  1  0  0  0  0  0999 V2000
  188.7150  177.4030  142.9500 C   0  0  0  0  0  2  0  0  0  0  0  0
  186.5140  178.5890  142.9880 C   0  0  0  0  0  0  0  0  0  0  0  0
  188.8460  177.8730  147.2630 C   0  0  0  0  0  2  0  0  0  0  0  0
  189.5020  176.3680  143.7480 C   0  0  2  0  0  3  0  0  0  0  0  0
  190.1980  177.4520  147.8570 C   0  0  0  0  0  2  0  0  0  0  0  0
  185.4230  179.1440  143.6590 C   0  0  0  0  0  3  0  0  0  0  0  0
  186.5680  178.6700  141.6350 F   0  0  0  0  0  0  0  0  0  0  0  0
  188.5200  177.1690  145.9320 C   0  0  2  0  0  3  0  0  0  0  0  0
  185.3450  179.0740  145.0500 C   0  0  0  0  0  3  0  0  0  0  0  0
  187.5390  177.9540  143.7070 C   0  0  0  0  0  0  0  0  0  0  0  0
  189.8120  176.8630  145.1620 C   0  0  1  0  0  3  0  0  0  0  0  0
  190.5570  176.0170  147.4700 C   0  0  0  0  0  2  0  0  0  0  0  0
  190.6650  175.8510  145.9460 C   0  0  0  0  0  2  0  0  0  0  0  0
  186.3650  178.4550  145.7750 C   0  0  0  0  0  3  0  0  0  0  0  0
  187.4830  177.9140  145.1210 C   0  0  0  0  0  0  0  0  0  0  0  0
  191.7150  174.5580  141.4280 O   0  0  0  0  0  0  0  0  0  0  0  0
  190.8560  174.6640  142.3460 C   0  0  0  0  0  0  0  0  0  0  0  0
  190.6960  175.9410  143.0100 N   0  0  0  0  0  0  0  0  0  0  0  0
  190.2450  172.7470  143.8010 N   0  0  0  0  0  0  0  0  0  0  0  0
  189.0570  172.9700  141.9280 N   0  0  0  0  0  2  0  0  0  0  0  0
  190.0600  173.4600  142.6740 C   0  0  0  0  0  0  0  0  0  0  0  0
  189.3080  171.7830  143.7010 C   0  0  0  0  0  3  0  0  0  0  0  0
  188.5890  171.9160  142.5720 N   0  0  0  0  0  0  0  0  0  0  0  0
  191.6900  176.9830  142.7860 C   0  0  0  0  0  2  0  0  0  0  0  0
  192.9140  176.7330  143.6520 C   0  0  0  0  0  2  0  0  0  0  0  0
  194.1160  176.4170  142.7820 C   0  0  0  0  0  2  0  0  0  0  0  0
  195.0140  175.5120  143.4830 N   0  0  0  0  0  2  0  0  0  0  0  0
  196.8930  176.8680  143.1920 O   0  0  0  0  0  0  0  0  0  0  0  0
  196.4000  175.8040  143.6500 C   0  0  0  0  0  0  0  0  0  0  0  0
  197.2140  174.9050  144.3280 O   0  0  0  0  0  1  0  0  0  0  0  0
  1 10  1  0  0  0  0
  1  4  1  0  0  0  0
  2  6  2  0  0  0  0
  2 10  1  0  0  0  0
  3  5  1  0  0  0  0
  4 18  1  6  0  0  0
  4 11  1  0  0  0  0
  6  9  1  0  0  0  0
  7  2  1  0  0  0  0
  8  3  1  1  0  0  0
  9 14  2  0  0  0  0
 10 15  2  0  0  0  0
 11  8  1  0  0  0  0
 11 13  1  1  0  0  0
 12  5  1  0  0  0  0
 13 12  1  0  0  0  0
 15 14  1  0  0  0  0
 15  8  1  0  0  0  0
 16 17  2  0  0  0  0
 17 21  1  0  0  0  0
 17 18  1  0  0  0  0
 20 23  1  0  0  0  0
 20 21  1  0  0  0  0
 21 19  2  0  0  0  0
 22 19  1  0  0  0  0
 23 22  2  0  0  0  0
 24 18  1  0  0  0  0
 24 25  1  0  0  0  0
 26 27  1  0  0  0  0
 26 25  1  0  0  0  0
 27 29  1  0  0  0  0
 28 29  2  0  0  0  0
 29 30  1  0  0  0  0
M  END
>  <MODEL>
8

>  <REMARK>
 VINA RESULT:      -6.3      2.161      2.883
  Name = 
  6 active torsions:
  status: ('A' for Active; 'I' for Inactive)
    1  A    between atoms: C_4  and  N_13
    2  A    between atoms: N_7  and  C_16
    3  A    between atoms: C_8  and  C_12
    4  A    between atoms: N_13  and  C_27
    5  A    between atoms: C_16  and  C_30
    6  A    between atoms: C_27  and  C_30
                            x       y       z     vdW  Elec       q    Type
                         _______ _______ _______ _____ _____    ______ ____

>  <TORSDO>
F 6

$$$$
=
 OpenBabel11052417183D

 30 33  0  0  1  0  0  0  0  0999 V2000
  191.7330  176.0720  142.6890 C   0  0  0  0  0  2  0  0  0  0  0  0
  194.1840  175.9520  142.2060 C   0  0  0  0  0  0  0  0  0  0  0  0
  192.7280  175.8320  146.9070 C   0  0  0  0  0  2  0  0  0  0  0  0
  190.7640  176.7110  143.6780 C   0  0  2  0  0  3  0  0  0  0  0  0
  191.4850  175.6630  147.7930 C   0  0  0  0  0  2  0  0  0  0  0  0
  195.5220  175.9590  142.6060 C   0  0  0  0  0  3  0  0  0  0  0  0
  193.8870  175.7820  140.8940 F   0  0  0  0  0  0  0  0  0  0  0  0
  192.4300  176.5320  145.5680 C   0  0  2  0  0  3  0  0  0  0  0  0
  195.8520  176.1330  143.9500 C   0  0  0  0  0  3  0  0  0  0  0  0
  193.1620  176.1240  143.1540 C   0  0  0  0  0  0  0  0  0  0  0  0
  191.0030  176.2100  145.1040 C   0  0  1  0  0  3  0  0  0  0  0  0
  190.4690  176.7790  147.5510 C   0  0  0  0  0  2  0  0  0  0  0  0
  189.9830  176.7980  146.0930 C   0  0  0  0  0  2  0  0  0  0  0  0
  194.8430  176.2920  144.9000 C   0  0  0  0  0  3  0  0  0  0  0  0
  193.4920  176.2620  144.5240 C   0  0  0  0  0  0  0  0  0  0  0  0
  187.4180  175.2720  143.1380 O   0  0  0  0  0  0  0  0  0  0  0  0
  188.6800  175.2750  143.1330 C   0  0  0  0  0  0  0  0  0  0  0  0
  189.3770  176.5410  143.2310 N   0  0  0  0  0  0  0  0  0  0  0  0
  189.6910  173.2290  144.1130 N   0  0  0  0  0  0  0  0  0  0  0  0
  189.6880  173.3490  141.8870 N   0  0  0  0  0  2  0  0  0  0  0  0
  189.3610  173.9650  143.0340 C   0  0  0  0  0  0  0  0  0  0  0  0
  190.2500  172.1310  143.5650 C   0  0  0  0  0  3  0  0  0  0  0  0
  190.2490  172.2010  142.2210 N   0  0  0  0  0  0  0  0  0  0  0  0
  188.6220  177.7760  143.0740 C   0  0  0  0  0  2  0  0  0  0  0  0
  188.1620  177.9290  141.6340 C   0  0  0  0  0  2  0  0  0  0  0  0
  186.7040  178.3460  141.5900 C   0  0  0  0  0  2  0  0  0  0  0  0
  186.2100  178.5710  142.9390 N   0  0  0  0  0  2  0  0  0  0  0  0
  184.0250  177.9160  142.4380 O   0  0  0  0  0  0  0  0  0  0  0  0
  184.8480  178.3340  143.2940 C   0  0  0  0  0  0  0  0  0  0  0  0
  184.4280  178.5650  144.5970 O   0  0  0  0  0  1  0  0  0  0  0  0
  1 10  1  0  0  0  0
  1  4  1  0  0  0  0
  2  6  2  0  0  0  0
  2 10  1  0  0  0  0
  3  5  1  0  0  0  0
  4 18  1  6  0  0  0
  4 11  1  0  0  0  0
  6  9  1  0  0  0  0
  7  2  1  0  0  0  0
  8  3  1  1  0  0  0
  9 14  2  0  0  0  0
 10 15  2  0  0  0  0
 11  8  1  0  0  0  0
 11 13  1  1  0  0  0
 12  5  1  0  0  0  0
 13 12  1  0  0  0  0
 15 14  1  0  0  0  0
 15  8  1  0  0  0  0
 17 16  2  0  0  0  0
 17 18  1  0  0  0  0
 20 23  1  0  0  0  0
 20 21  1  0  0  0  0
 21 17  1  0  0  0  0
 21 19  2  0  0  0  0
 22 19  1  0  0  0  0
 23 22  2  0  0  0  0
 24 18  1  0  0  0  0
 25 24  1  0  0  0  0
 26 25  1  0  0  0  0
 26 27  1  0  0  0  0
 27 29  1  0  0  0  0
 28 29  2  0  0  0  0
 29 30  1  0  0  0  0
M  END
>  <MODEL>
9

>  <REMARK>
 VINA RESULT:      -6.2      3.314      6.346
  Name = 
  6 active torsions:
  status: ('A' for Active; 'I' for Inactive)
    1  A    between atoms: C_4  and  N_13
    2  A    between atoms: N_7  and  C_16
    3  A    between atoms: C_8  and  C_12
    4  A    between atoms: N_13  and  C_27
    5  A    between atoms: C_16  and  C_30
    6  A    between atoms: C_27  and  C_30
                            x       y       z     vdW  Elec       q    Type
                         _______ _______ _______ _____ _____    ______ ____

>  <TORSDO>
F 6

$$$$
