=
 OpenBabel11052417273D

 25 27  0  0  1  0  0  0  0  0999 V2000
  187.3100  177.3560  146.9500 C   0  0  1  0  0  3  0  0  0  0  0  0
  187.1310  178.3370  145.7780 C   0  0  1  0  0  3  0  0  0  0  0  0
  184.8360  176.8210  146.5570 C   0  0  0  0  0  2  0  0  0  0  0  0
  184.7130  178.3380  146.6720 C   0  0  0  0  0  2  0  0  0  0  0  0
  185.3870  179.3380  144.3550 C   0  0  1  0  0  0  0  0  0  0  0  0
  185.6770  180.6730  144.0770 O   0  0  0  0  0  1  0  0  0  0  0  0
  187.2100  177.6550  144.4240 C   0  0  0  0  0  2  0  0  0  0  0  0
  186.1800  176.3250  147.1000 C   0  0  0  0  0  2  0  0  0  0  0  0
  183.9010  179.1170  144.0690 C   0  0  0  0  0  1  0  0  0  0  0  0
  186.3240  178.4660  143.5000 C   0  0  1  0  0  3  0  0  0  0  0  0
  185.7780  179.0630  145.8190 C   0  0  2  0  0  3  0  0  0  0  0  0
  188.6860  176.7590  147.0370 C   0  0  0  0  0  0  0  0  0  0  0  0
  191.2040  175.5330  147.1980 C   0  0  0  0  0  3  0  0  0  0  0  0
  189.7790  177.4540  147.5940 C   0  0  0  0  0  0  0  0  0  0  0  0
  191.0330  176.8370  147.6690 C   0  0  0  0  0  3  0  0  0  0  0  0
  190.1220  174.8400  146.6500 C   0  0  0  0  0  3  0  0  0  0  0  0
  189.6430  178.7200  148.0580 F   0  0  0  0  0  0  0  0  0  0  0  0
  188.8690  175.4510  146.5730 C   0  0  0  0  0  3  0  0  0  0  0  0
  185.5760  177.4530  142.1620 S   0  0  0  0  0  0  0  0  0  0  0  0
  186.6660  176.0110  142.3930 C   0  0  0  0  0  2  0  0  0  0  0  0
  187.7330  175.9720  141.3140 C   0  0  1  0  0  3  0  0  0  0  0  0
  188.1000  177.2630  140.9840 F   0  0  0  0  0  0  0  0  0  0  0  0
  188.9310  175.2210  141.7910 C   0  0  0  0  0  0  0  0  0  0  0  0
  189.7730  175.7780  142.7460 O   0  0  0  0  0  1  0  0  0  0  0  0
  189.1700  174.0720  141.3380 O   0  0  0  0  0  0  0  0  0  0  0  0
  1 12  1  6  0  0  0
  1  8  1  0  0  0  0
  2  7  1  6  0  0  0
  2 11  1  0  0  0  0
  2  1  1  0  0  0  0
  3  4  1  0  0  0  0
  3  8  1  0  0  0  0
  5  9  1  6  0  0  0
  5 11  1  0  0  0  0
  6  5  1  0  0  0  0
 10 19  1  1  0  0  0
 10  5  1  0  0  0  0
 10  7  1  0  0  0  0
 11  4  1  6  0  0  0
 12 14  1  0  0  0  0
 13 15  1  0  0  0  0
 14 15  2  0  0  0  0
 14 17  1  0  0  0  0
 16 13  2  0  0  0  0
 18 16  1  0  0  0  0
 18 12  2  0  0  0  0
 19 20  1  0  0  0  0
 21 22  1  1  0  0  0
 21 23  1  0  0  0  0
 21 20  1  0  0  0  0
 23 24  1  0  0  0  0
 25 23  2  0  0  0  0
M  END
>  <MODEL>
1

>  <REMARK>
 VINA RESULT:      -7.3      0.000      0.000
  Name = 
  5 active torsions:
  status: ('A' for Active; 'I' for Inactive)
    1  A    between atoms: C_1  and  C_5
    2  A    between atoms: C_2  and  C_21
    3  A    between atoms: S_6  and  C_15
    4  A    between atoms: S_6  and  C_23
    5  A    between atoms: C_15  and  C_21
                            x       y       z     vdW  Elec       q    Type
                         _______ _______ _______ _____ _____    ______ ____

>  <TORSDO>
F 5

$$$$
=
 OpenBabel11052417273D

 25 27  0  0  1  0  0  0  0  0999 V2000
  187.2660  177.2610  143.6790 C   0  0  1  0  0  3  0  0  0  0  0  0
  188.6830  177.6920  144.0970 C   0  0  1  0  0  3  0  0  0  0  0  0
  188.4520  175.2260  142.6700 C   0  0  0  0  0  2  0  0  0  0  0  0
  189.2880  176.3150  142.0030 C   0  0  0  0  0  2  0  0  0  0  0  0
  191.0520  177.1060  143.7600 C   0  0  1  0  0  0  0  0  0  0  0  0
  191.8430  178.2520  143.6870 O   0  0  0  0  0  1  0  0  0  0  0  0
  189.1590  176.9980  145.3610 C   0  0  0  0  0  2  0  0  0  0  0  0
  187.1480  175.7920  143.2410 C   0  0  0  0  0  2  0  0  0  0  0  0
  191.8530  175.9510  143.1560 C   0  0  0  0  0  1  0  0  0  0  0  0
  190.6660  176.8950  145.2340 C   0  0  1  0  0  3  0  0  0  0  0  0
  189.7340  177.3930  143.0180 C   0  0  2  0  0  3  0  0  0  0  0  0
  186.1930  177.6950  144.6360 C   0  0  0  0  0  0  0  0  0  0  0  0
  184.1610  178.3850  146.4430 C   0  0  0  0  0  3  0  0  0  0  0  0
  185.5660  178.9540  144.5510 C   0  0  0  0  0  0  0  0  0  0  0  0
  184.5550  179.2930  145.4570 C   0  0  0  0  0  3  0  0  0  0  0  0
  184.7760  177.1340  146.5260 C   0  0  0  0  0  3  0  0  0  0  0  0
  185.9290  179.8560  143.6060 F   0  0  0  0  0  0  0  0  0  0  0  0
  185.7860  176.7900  145.6240 C   0  0  0  0  0  3  0  0  0  0  0  0
  191.3540  175.4300  146.1040 S   0  0  0  0  0  0  0  0  0  0  0  0
  192.7480  176.3140  146.8770 C   0  0  0  0  0  2  0  0  0  0  0  0
  194.0710  175.7710  146.3670 C   0  0  1  0  0  3  0  0  0  0  0  0
  193.8510  174.5860  145.6920 F   0  0  0  0  0  0  0  0  0  0  0  0
  194.7190  176.7540  145.4490 C   0  0  0  0  0  0  0  0  0  0  0  0
  195.1960  176.3450  144.2090 O   0  0  0  0  0  0  0  0  0  0  0  0
  194.8190  177.9600  145.7930 O   0  0  0  0  0  1  0  0  0  0  0  0
  1  2  1  0  0  0  0
  1 12  1  1  0  0  0
  2  7  1  1  0  0  0
  3  8  1  0  0  0  0
  4  3  1  0  0  0  0
  5  9  1  6  0  0  0
  5 10  1  0  0  0  0
  6  5  1  0  0  0  0
  8  1  1  0  0  0  0
 10  7  1  0  0  0  0
 10 19  1  6  0  0  0
 11  4  1  1  0  0  0
 11  5  1  0  0  0  0
 11  2  1  0  0  0  0
 12 18  1  0  0  0  0
 13 16  1  0  0  0  0
 14 12  2  0  0  0  0
 14 15  1  0  0  0  0
 15 13  2  0  0  0  0
 17 14  1  0  0  0  0
 18 16  2  0  0  0  0
 19 20  1  0  0  0  0
 21 22  1  6  0  0  0
 21 20  1  0  0  0  0
 23 25  1  0  0  0  0
 23 21  1  0  0  0  0
 24 23  2  0  0  0  0
M  END
>  <MODEL>
2

>  <REMARK>
 VINA RESULT:      -7.2      3.309      6.138
  Name = 
  5 active torsions:
  status: ('A' for Active; 'I' for Inactive)
    1  A    between atoms: C_1  and  C_5
    2  A    between atoms: C_2  and  C_21
    3  A    between atoms: S_6  and  C_15
    4  A    between atoms: S_6  and  C_23
    5  A    between atoms: C_15  and  C_21
                            x       y       z     vdW  Elec       q    Type
                         _______ _______ _______ _____ _____    ______ ____

>  <TORSDO>
F 5

$$$$
=
 OpenBabel11052417273D

 25 27  0  0  1  0  0  0  0  0999 V2000
  186.9340  177.0930  143.3810 C   0  0  1  0  0  3  0  0  0  0  0  0
  188.4290  177.3490  143.6370 C   0  0  1  0  0  3  0  0  0  0  0  0
  187.7490  174.9360  142.2660 C   0  0  0  0  0  2  0  0  0  0  0  0
  188.6300  175.9200  141.5010 C   0  0  0  0  0  2  0  0  0  0  0  0
  190.6600  176.4870  143.0450 C   0  0  1  0  0  0  0  0  0  0  0  0
  191.5690  177.5300  142.8750 O   0  0  0  0  0  1  0  0  0  0  0  0
  188.9560  176.5980  144.8460 C   0  0  0  0  0  2  0  0  0  0  0  0
  186.5930  175.6510  142.9730 C   0  0  0  0  0  2  0  0  0  0  0  0
  191.2460  175.2470  142.3660 C   0  0  0  0  0  1  0  0  0  0  0  0
  190.4170  176.3170  144.5550 C   0  0  1  0  0  3  0  0  0  0  0  0
  189.3110  176.9320  142.4500 C   0  0  2  0  0  3  0  0  0  0  0  0
  186.0320  177.6470  144.4470 C   0  0  0  0  0  0  0  0  0  0  0  0
  184.3090  178.5680  146.4610 C   0  0  0  0  0  3  0  0  0  0  0  0
  185.5670  178.9780  144.4290 C   0  0  0  0  0  0  0  0  0  0  0  0
  184.7100  179.4310  145.4380 C   0  0  0  0  0  3  0  0  0  0  0  0
  184.7640  177.2470  146.4780 C   0  0  0  0  0  3  0  0  0  0  0  0
  185.9400  179.8380  143.4510 F   0  0  0  0  0  0  0  0  0  0  0  0
  185.6200  176.7900  145.4740 C   0  0  0  0  0  3  0  0  0  0  0  0
  191.0170  174.7760  145.3560 S   0  0  0  0  0  0  0  0  0  0  0  0
  190.3730  175.1690  147.0150 C   0  0  0  0  0  2  0  0  0  0  0  0
  191.4550  175.8060  147.8690 C   0  0  1  0  0  3  0  0  0  0  0  0
  192.6210  175.9060  147.1340 F   0  0  0  0  0  0  0  0  0  0  0  0
  191.0320  177.1650  148.3190 C   0  0  0  0  0  0  0  0  0  0  0  0
  191.6880  177.7900  149.3730 O   0  0  0  0  0  1  0  0  0  0  0  0
  190.0870  177.7520  147.7320 O   0  0  0  0  0  0  0  0  0  0  0  0
  1  2  1  0  0  0  0
  1 12  1  1  0  0  0
  2  7  1  1  0  0  0
  3  8  1  0  0  0  0
  4  3  1  0  0  0  0
  5  9  1  6  0  0  0
  5 10  1  0  0  0  0
  6  5  1  0  0  0  0
  8  1  1  0  0  0  0
 10  7  1  0  0  0  0
 10 19  1  6  0  0  0
 11  4  1  1  0  0  0
 11  5  1  0  0  0  0
 11  2  1  0  0  0  0
 12 18  1  0  0  0  0
 13 16  1  0  0  0  0
 14 12  2  0  0  0  0
 14 15  1  0  0  0  0
 15 13  2  0  0  0  0
 17 14  1  0  0  0  0
 18 16  2  0  0  0  0
 19 20  1  0  0  0  0
 20 21  1  0  0  0  0
 21 22  1  6  0  0  0
 21 23  1  0  0  0  0
 23 24  1  0  0  0  0
 25 23  2  0  0  0  0
M  END
>  <MODEL>
3

>  <REMARK>
 VINA RESULT:      -7.1      2.886      6.074
  Name = 
  5 active torsions:
  status: ('A' for Active; 'I' for Inactive)
    1  A    between atoms: C_1  and  C_5
    2  A    between atoms: C_2  and  C_21
    3  A    between atoms: S_6  and  C_15
    4  A    between atoms: S_6  and  C_23
    5  A    between atoms: C_15  and  C_21
                            x       y       z     vdW  Elec       q    Type
                         _______ _______ _______ _____ _____    ______ ____

>  <TORSDO>
F 5

$$$$
=
 OpenBabel11052417273D

 25 27  0  0  1  0  0  0  0  0999 V2000
  187.6540  176.5650  141.9180 C   0  0  1  0  0  3  0  0  0  0  0  0
  188.6720  177.4250  142.6870 C   0  0  1  0  0  3  0  0  0  0  0  0
  188.8400  174.5950  143.0460 C   0  0  0  0  0  2  0  0  0  0  0  0
  190.0700  175.2720  142.4480 C   0  0  0  0  0  2  0  0  0  0  0  0
  190.7170  177.2330  144.0480 C   0  0  1  0  0  0  0  0  0  0  0  0
  191.5990  178.2770  143.7710 O   0  0  0  0  0  1  0  0  0  0  0  0
  188.2730  177.6570  144.1330 C   0  0  0  0  0  2  0  0  0  0  0  0
  187.5480  175.1110  142.4050 C   0  0  0  0  0  2  0  0  0  0  0  0
  191.5130  176.1230  144.7360 C   0  0  0  0  0  1  0  0  0  0  0  0
  189.5700  177.8020  144.9030 C   0  0  1  0  0  3  0  0  0  0  0  0
  190.0720  176.7930  142.7210 C   0  0  2  0  0  3  0  0  0  0  0  0
  186.3240  177.2330  141.7180 C   0  0  0  0  0  0  0  0  0  0  0  0
  183.7950  178.4160  141.4410 C   0  0  0  0  0  3  0  0  0  0  0  0
  185.9140  177.7470  140.4710 C   0  0  0  0  0  0  0  0  0  0  0  0
  184.6520  178.3380  140.3410 C   0  0  0  0  0  3  0  0  0  0  0  0
  184.1960  177.9020  142.6760 C   0  0  0  0  0  3  0  0  0  0  0  0
  186.7250  177.6870  139.3870 F   0  0  0  0  0  0  0  0  0  0  0  0
  185.4540  177.3110  142.8120 C   0  0  0  0  0  3  0  0  0  0  0  0
  189.4300  177.2330  146.6440 S   0  0  0  0  0  0  0  0  0  0  0  0
  187.7200  176.6200  146.5000 C   0  0  0  0  0  2  0  0  0  0  0  0
  186.7910  177.4140  147.4010 C   0  0  1  0  0  3  0  0  0  0  0  0
  187.4530  178.5320  147.8710 F   0  0  0  0  0  0  0  0  0  0  0  0
  185.5720  177.8360  146.6510 C   0  0  0  0  0  0  0  0  0  0  0  0
  185.4690  179.1290  146.1510 O   0  0  0  0  0  0  0  0  0  0  0  0
  184.6400  177.0130  146.4590 O   0  0  0  0  0  1  0  0  0  0  0  0
  1 12  1  1  0  0  0
  1  8  1  0  0  0  0
  1  2  1  0  0  0  0
  2 11  1  0  0  0  0
  2  7  1  1  0  0  0
  4  3  1  0  0  0  0
  5  9  1  1  0  0  0
  5 10  1  0  0  0  0
  6  5  1  0  0  0  0
  7 10  1  0  0  0  0
  8  3  1  0  0  0  0
 10 19  1  1  0  0  0
 11  4  1  1  0  0  0
 11  5  1  0  0  0  0
 12 18  1  0  0  0  0
 13 16  1  0  0  0  0
 14 12  2  0  0  0  0
 15 14  1  0  0  0  0
 15 13  2  0  0  0  0
 16 18  2  0  0  0  0
 17 14  1  0  0  0  0
 20 19  1  0  0  0  0
 20 21  1  0  0  0  0
 21 22  1  6  0  0  0
 23 21  1  0  0  0  0
 24 23  2  0  0  0  0
 25 23  1  0  0  0  0
M  END
>  <MODEL>
4

>  <REMARK>
 VINA RESULT:      -6.9      2.540      6.605
  Name = 
  5 active torsions:
  status: ('A' for Active; 'I' for Inactive)
    1  A    between atoms: C_1  and  C_5
    2  A    between atoms: C_2  and  C_21
    3  A    between atoms: S_6  and  C_15
    4  A    between atoms: S_6  and  C_23
    5  A    between atoms: C_15  and  C_21
                            x       y       z     vdW  Elec       q    Type
                         _______ _______ _______ _____ _____    ______ ____

>  <TORSDO>
F 5

$$$$
=
 OpenBabel11052417273D

 25 27  0  0  1  0  0  0  0  0999 V2000
  188.3450  176.6650  146.6560 C   0  0  1  0  0  3  0  0  0  0  0  0
  188.4950  175.3840  145.8170 C   0  0  1  0  0  3  0  0  0  0  0  0
  190.9030  176.7430  146.5430 C   0  0  0  0  0  2  0  0  0  0  0  0
  190.7530  175.3150  147.0590 C   0  0  0  0  0  2  0  0  0  0  0  0
  190.2030  173.8100  144.9950 C   0  0  1  0  0  0  0  0  0  0  0  0
  189.7270  172.5000  145.0240 O   0  0  0  0  0  1  0  0  0  0  0  0
  188.6950  175.6690  144.3400 C   0  0  0  0  0  2  0  0  0  0  0  0
  189.6060  177.5410  146.7190 C   0  0  0  0  0  2  0  0  0  0  0  0
  191.7280  173.7480  144.9060 C   0  0  0  0  0  1  0  0  0  0  0  0
  189.5350  174.5260  143.8080 C   0  0  1  0  0  3  0  0  0  0  0  0
  189.6910  174.5270  146.2580 C   0  0  2  0  0  3  0  0  0  0  0  0
  187.0890  177.4360  146.3660 C   0  0  0  0  0  0  0  0  0  0  0  0
  184.8110  178.9590  145.7620 C   0  0  0  0  0  3  0  0  0  0  0  0
  185.9480  177.3660  147.1930 C   0  0  0  0  0  0  0  0  0  0  0  0
  184.8150  178.1260  146.8840 C   0  0  0  0  0  3  0  0  0  0  0  0
  185.9410  179.0350  144.9450 C   0  0  0  0  0  3  0  0  0  0  0  0
  185.9230  176.5660  148.2860 F   0  0  0  0  0  0  0  0  0  0  0  0
  187.0750  178.2790  145.2480 C   0  0  0  0  0  3  0  0  0  0  0  0
  190.5990  175.0240  142.3940 S   0  0  0  0  0  0  0  0  0  0  0  0
  189.9690  173.7640  141.2380 C   0  0  0  0  0  2  0  0  0  0  0  0
  188.5610  174.1110  140.7870 C   0  0  1  0  0  3  0  0  0  0  0  0
  188.3880  175.4810  140.8380 F   0  0  0  0  0  0  0  0  0  0  0  0
  188.3270  173.6310  139.3930 C   0  0  0  0  0  0  0  0  0  0  0  0
  188.1790  174.5420  138.3540 O   0  0  0  0  0  0  0  0  0  0  0  0
  188.2800  172.3970  139.1560 O   0  0  0  0  0  1  0  0  0  0  0  0
  1 12  1  6  0  0  0
  1  8  1  0  0  0  0
  2  7  1  6  0  0  0
  2 11  1  0  0  0  0
  2  1  1  0  0  0  0
  3  8  1  0  0  0  0
  3  4  1  0  0  0  0
  5  9  1  6  0  0  0
  5  6  1  0  0  0  0
  5 11  1  0  0  0  0
 10 19  1  6  0  0  0
 10  7  1  0  0  0  0
 10  5  1  0  0  0  0
 11  4  1  6  0  0  0
 12 14  1  0  0  0  0
 13 15  1  0  0  0  0
 14 17  1  0  0  0  0
 15 14  2  0  0  0  0
 16 18  1  0  0  0  0
 16 13  2  0  0  0  0
 18 12  2  0  0  0  0
 20 19  1  0  0  0  0
 21 22  1  6  0  0  0
 21 20  1  0  0  0  0
 23 21  1  0  0  0  0
 24 23  2  0  0  0  0
 25 23  1  0  0  0  0
M  END
>  <MODEL>
5

>  <REMARK>
 VINA RESULT:      -6.8      2.721      5.236
  Name = 
  5 active torsions:
  status: ('A' for Active; 'I' for Inactive)
    1  A    between atoms: C_1  and  C_5
    2  A    between atoms: C_2  and  C_21
    3  A    between atoms: S_6  and  C_15
    4  A    between atoms: S_6  and  C_23
    5  A    between atoms: C_15  and  C_21
                            x       y       z     vdW  Elec       q    Type
                         _______ _______ _______ _____ _____    ______ ____

>  <TORSDO>
F 5

$$$$
=
 OpenBabel11052417273D

 25 27  0  0  1  0  0  0  0  0999 V2000
  188.2010  178.2330  143.6800 C   0  0  1  0  0  3  0  0  0  0  0  0
  188.5810  177.3260  144.8640 C   0  0  1  0  0  3  0  0  0  0  0  0
  190.5010  177.5790  142.7610 C   0  0  0  0  0  2  0  0  0  0  0  0
  190.9480  178.0520  144.1410 C   0  0  0  0  0  2  0  0  0  0  0  0
  190.4930  176.0900  145.8050 C   0  0  1  0  0  0  0  0  0  0  0  0
  190.4960  176.1620  147.1980 O   0  0  0  0  0  1  0  0  0  0  0  0
  188.3510  175.8540  144.5740 C   0  0  0  0  0  2  0  0  0  0  0  0
  189.0840  178.0620  142.4340 C   0  0  0  0  0  2  0  0  0  0  0  0
  191.8960  175.6730  145.3600 C   0  0  0  0  0  1  0  0  0  0  0  0
  189.3860  175.1050  145.3880 C   0  0  1  0  0  3  0  0  0  0  0  0
  190.0590  177.4630  145.2610 C   0  0  2  0  0  3  0  0  0  0  0  0
  186.7300  178.2530  143.3790 C   0  0  0  0  0  0  0  0  0  0  0  0
  184.0090  178.2900  142.6970 C   0  0  0  0  0  3  0  0  0  0  0  0
  185.7770  178.7580  144.2870 C   0  0  0  0  0  0  0  0  0  0  0  0
  184.4210  178.7720  143.9410 C   0  0  0  0  0  3  0  0  0  0  0  0
  184.9500  177.7940  141.7920 C   0  0  0  0  0  3  0  0  0  0  0  0
  186.1480  179.2300  145.5030 F   0  0  0  0  0  0  0  0  0  0  0  0
  186.3050  177.7790  142.1320 C   0  0  0  0  0  3  0  0  0  0  0  0
  189.8930  173.5200  144.6090 S   0  0  0  0  0  0  0  0  0  0  0  0
  189.6430  174.0730  142.8900 C   0  0  0  0  0  2  0  0  0  0  0  0
  189.0710  172.9480  142.0460 C   0  0  1  0  0  3  0  0  0  0  0  0
  188.1090  172.2730  142.7720 F   0  0  0  0  0  0  0  0  0  0  0  0
  188.4630  173.4910  140.7960 C   0  0  0  0  0  0  0  0  0  0  0  0
  188.2080  174.8510  140.6740 O   0  0  0  0  0  1  0  0  0  0  0  0
  188.1940  172.7140  139.8440 O   0  0  0  0  0  0  0  0  0  0  0  0
  1 12  1  6  0  0  0
  1  2  1  0  0  0  0
  2  7  1  6  0  0  0
  2 11  1  0  0  0  0
  3  4  1  0  0  0  0
  5  9  1  6  0  0  0
  5  6  1  0  0  0  0
  7 10  1  0  0  0  0
  8  3  1  0  0  0  0
  8  1  1  0  0  0  0
 10 19  1  6  0  0  0
 10  5  1  0  0  0  0
 11  4  1  6  0  0  0
 11  5  1  0  0  0  0
 12 14  1  0  0  0  0
 13 15  1  0  0  0  0
 14 17  1  0  0  0  0
 15 14  2  0  0  0  0
 16 18  1  0  0  0  0
 16 13  2  0  0  0  0
 18 12  2  0  0  0  0
 20 19  1  0  0  0  0
 21 22  1  1  0  0  0
 21 20  1  0  0  0  0
 23 21  1  0  0  0  0
 24 23  1  0  0  0  0
 25 23  2  0  0  0  0
M  END
>  <MODEL>
6

>  <REMARK>
 VINA RESULT:      -6.8      3.006      5.548
  Name = 
  5 active torsions:
  status: ('A' for Active; 'I' for Inactive)
    1  A    between atoms: C_1  and  C_5
    2  A    between atoms: C_2  and  C_21
    3  A    between atoms: S_6  and  C_15
    4  A    between atoms: S_6  and  C_23
    5  A    between atoms: C_15  and  C_21
                            x       y       z     vdW  Elec       q    Type
                         _______ _______ _______ _____ _____    ______ ____

>  <TORSDO>
F 5

$$$$
=
 OpenBabel11052417273D

 25 27  0  0  1  0  0  0  0  0999 V2000
  188.4320  176.6490  146.4470 C   0  0  1  0  0  3  0  0  0  0  0  0
  188.5380  175.3060  145.7040 C   0  0  1  0  0  3  0  0  0  0  0  0
  190.9850  176.6790  146.2450 C   0  0  0  0  0  2  0  0  0  0  0  0
  190.8360  175.2970  146.8730 C   0  0  0  0  0  2  0  0  0  0  0  0
  190.1970  173.6480  144.9490 C   0  0  1  0  0  0  0  0  0  0  0  0
  189.7070  172.3510  145.0930 O   0  0  0  0  0  1  0  0  0  0  0  0
  188.6910  175.4740  144.2030 C   0  0  0  0  0  2  0  0  0  0  0  0
  189.7060  177.5070  146.4010 C   0  0  0  0  0  2  0  0  0  0  0  0
  191.7180  173.5560  144.8150 C   0  0  0  0  0  1  0  0  0  0  0  0
  189.5000  174.2820  143.7330 C   0  0  1  0  0  3  0  0  0  0  0  0
  189.7370  174.4670  146.1700 C   0  0  2  0  0  3  0  0  0  0  0  0
  187.1770  177.4150  146.1390 C   0  0  0  0  0  0  0  0  0  0  0  0
  184.9000  178.9250  145.5010 C   0  0  0  0  0  3  0  0  0  0  0  0
  186.0400  177.3720  146.9720 C   0  0  0  0  0  0  0  0  0  0  0  0
  184.9070  178.1250  146.6460 C   0  0  0  0  0  3  0  0  0  0  0  0
  186.0270  178.9740  144.6770 C   0  0  0  0  0  3  0  0  0  0  0  0
  186.0170  176.6040  148.0890 F   0  0  0  0  0  0  0  0  0  0  0  0
  187.1600  178.2240  144.9970 C   0  0  0  0  0  3  0  0  0  0  0  0
  190.5210  174.6550  142.2520 S   0  0  0  0  0  0  0  0  0  0  0  0
  189.2040  174.3300  141.0340 C   0  0  0  0  0  2  0  0  0  0  0  0
  188.7340  172.8900  141.1300 C   0  0  1  0  0  3  0  0  0  0  0  0
  187.8110  172.6420  140.1320 F   0  0  0  0  0  0  0  0  0  0  0  0
  189.8870  171.9540  140.9850 C   0  0  0  0  0  0  0  0  0  0  0  0
  190.2300  171.0980  142.0250 O   0  0  0  0  0  1  0  0  0  0  0  0
  190.5410  171.9280  139.9110 O   0  0  0  0  0  0  0  0  0  0  0  0
  1 12  1  6  0  0  0
  2  7  1  6  0  0  0
  2 11  1  0  0  0  0
  2  1  1  0  0  0  0
  3  8  1  0  0  0  0
  3  4  1  0  0  0  0
  5  9  1  6  0  0  0
  5  6  1  0  0  0  0
  5 11  1  0  0  0  0
  8  1  1  0  0  0  0
 10 19  1  6  0  0  0
 10  7  1  0  0  0  0
 10  5  1  0  0  0  0
 11  4  1  6  0  0  0
 12 14  1  0  0  0  0
 13 15  1  0  0  0  0
 14 17  1  0  0  0  0
 15 14  2  0  0  0  0
 16 18  1  0  0  0  0
 16 13  2  0  0  0  0
 18 12  2  0  0  0  0
 20 21  1  0  0  0  0
 20 19  1  0  0  0  0
 21 22  1  6  0  0  0
 23 21  1  0  0  0  0
 23 24  1  0  0  0  0
 25 23  2  0  0  0  0
M  END
>  <MODEL>
7

>  <REMARK>
 VINA RESULT:      -6.7      2.935      5.363
  Name = 
  5 active torsions:
  status: ('A' for Active; 'I' for Inactive)
    1  A    between atoms: C_1  and  C_5
    2  A    between atoms: C_2  and  C_21
    3  A    between atoms: S_6  and  C_15
    4  A    between atoms: S_6  and  C_23
    5  A    between atoms: C_15  and  C_21
                            x       y       z     vdW  Elec       q    Type
                         _______ _______ _______ _____ _____    ______ ____

>  <TORSDO>
F 5

$$$$
=
 OpenBabel11052417273D

 25 27  0  0  1  0  0  0  0  0999 V2000
  188.9560  177.5410  145.2570 C   0  0  1  0  0  3  0  0  0  0  0  0
  189.8090  176.3960  145.8310 C   0  0  1  0  0  3  0  0  0  0  0  0
  190.4610  177.2970  143.1980 C   0  0  0  0  0  2  0  0  0  0  0  0
  191.5570  177.4410  144.2500 C   0  0  0  0  0  2  0  0  0  0  0  0
  191.8530  175.1000  145.3710 C   0  0  1  0  0  0  0  0  0  0  0  0
  192.5430  174.8230  146.5500 O   0  0  0  0  0  1  0  0  0  0  0  0
  189.3720  175.0300  145.3330 C   0  0  0  0  0  2  0  0  0  0  0  0
  189.1010  177.7480  143.7410 C   0  0  0  0  0  2  0  0  0  0  0  0
  192.8260  174.9060  144.2070 C   0  0  0  0  0  1  0  0  0  0  0  0
  190.6230  174.1750  145.3180 C   0  0  1  0  0  3  0  0  0  0  0  0
  191.2960  176.5320  145.4730 C   0  0  2  0  0  3  0  0  0  0  0  0
  187.5310  177.5320  145.7320 C   0  0  0  0  0  0  0  0  0  0  0  0
  184.8330  177.5300  146.5010 C   0  0  0  0  0  3  0  0  0  0  0  0
  187.1650  177.9150  147.0390 C   0  0  0  0  0  0  0  0  0  0  0  0
  185.8180  177.9080  147.4160 C   0  0  0  0  0  3  0  0  0  0  0  0
  185.1910  177.1570  145.2040 C   0  0  0  0  0  3  0  0  0  0  0  0
  188.0990  178.2850  147.9480 F   0  0  0  0  0  0  0  0  0  0  0  0
  186.5340  177.1610  144.8210 C   0  0  0  0  0  3  0  0  0  0  0  0
  190.5790  172.8740  144.0220 S   0  0  0  0  0  0  0  0  0  0  0  0
  189.4510  173.7680  142.9030 C   0  0  0  0  0  2  0  0  0  0  0  0
  188.8180  172.8110  141.9090 C   0  0  1  0  0  3  0  0  0  0  0  0
  187.6560  172.2910  142.4490 F   0  0  0  0  0  0  0  0  0  0  0  0
  188.5020  173.5180  140.6340 C   0  0  0  0  0  0  0  0  0  0  0  0
  188.4450  174.9060  140.5970 O   0  0  0  0  0  1  0  0  0  0  0  0
  188.3010  172.8540  139.5840 O   0  0  0  0  0  0  0  0  0  0  0  0
  1 12  1  6  0  0  0
  1  2  1  0  0  0  0
  2  7  1  6  0  0  0
  3  8  1  0  0  0  0
  3  4  1  0  0  0  0
  5  9  1  6  0  0  0
  5 11  1  0  0  0  0
  5  6  1  0  0  0  0
  8  1  1  0  0  0  0
 10 19  1  6  0  0  0
 10  7  1  0  0  0  0
 10  5  1  0  0  0  0
 11  4  1  6  0  0  0
 11  2  1  0  0  0  0
 12 14  1  0  0  0  0
 13 15  1  0  0  0  0
 14 15  2  0  0  0  0
 14 17  1  0  0  0  0
 16 13  2  0  0  0  0
 18 16  1  0  0  0  0
 18 12  2  0  0  0  0
 20 19  1  0  0  0  0
 21 22  1  1  0  0  0
 21 20  1  0  0  0  0
 23 21  1  0  0  0  0
 24 23  1  0  0  0  0
 25 23  2  0  0  0  0
M  END
>  <MODEL>
8

>  <REMARK>
 VINA RESULT:      -6.7      2.862      5.361
  Name = 
  5 active torsions:
  status: ('A' for Active; 'I' for Inactive)
    1  A    between atoms: C_1  and  C_5
    2  A    between atoms: C_2  and  C_21
    3  A    between atoms: S_6  and  C_15
    4  A    between atoms: S_6  and  C_23
    5  A    between atoms: C_15  and  C_21
                            x       y       z     vdW  Elec       q    Type
                         _______ _______ _______ _____ _____    ______ ____

>  <TORSDO>
F 5

$$$$
=
 OpenBabel11052417273D

 25 27  0  0  1  0  0  0  0  0999 V2000
  187.7340  176.3680  145.2350 C   0  0  1  0  0  3  0  0  0  0  0  0
  188.9390  175.6610  144.5910 C   0  0  1  0  0  3  0  0  0  0  0  0
  189.2610  176.5730  147.2810 C   0  0  0  0  0  2  0  0  0  0  0  0
  189.4010  175.0700  147.0580 C   0  0  0  0  0  2  0  0  0  0  0  0
  191.1550  174.7400  145.1500 C   0  0  1  0  0  0  0  0  0  0  0  0
  191.4000  173.5660  144.4390 O   0  0  0  0  0  1  0  0  0  0  0  0
  189.9770  176.6340  144.0610 C   0  0  0  0  0  2  0  0  0  0  0  0
  188.0590  177.1430  146.5220 C   0  0  0  0  0  2  0  0  0  0  0  0
  192.1260  174.7780  146.3310 C   0  0  0  0  0  1  0  0  0  0  0  0
  191.3090  175.9210  144.1750 C   0  0  1  0  0  3  0  0  0  0  0  0
  189.6740  174.7370  145.5730 C   0  0  2  0  0  3  0  0  0  0  0  0
  186.8930  177.1430  144.2600 C   0  0  0  0  0  0  0  0  0  0  0  0
  185.2910  178.6640  142.5310 C   0  0  0  0  0  3  0  0  0  0  0  0
  186.3690  176.5650  143.0850 C   0  0  0  0  0  0  0  0  0  0  0  0
  185.5730  177.3310  142.2260 C   0  0  0  0  0  3  0  0  0  0  0  0
  185.8040  179.2380  143.6970 C   0  0  0  0  0  3  0  0  0  0  0  0
  186.6280  175.2740  142.7630 F   0  0  0  0  0  0  0  0  0  0  0  0
  186.5990  178.4790  144.5580 C   0  0  0  0  0  3  0  0  0  0  0  0
  192.7140  177.0760  144.4380 S   0  0  0  0  0  0  0  0  0  0  0  0
  193.9540  176.0550  143.5770 C   0  0  0  0  0  2  0  0  0  0  0  0
  195.3460  176.3460  144.1080 C   0  0  1  0  0  3  0  0  0  0  0  0
  195.2830  177.3890  145.0110 F   0  0  0  0  0  0  0  0  0  0  0  0
  195.9110  175.1390  144.7800 C   0  0  0  0  0  0  0  0  0  0  0  0
  195.6730  174.9130  146.1300 O   0  0  0  0  0  1  0  0  0  0  0  0
  196.5930  174.3160  144.1170 O   0  0  0  0  0  0  0  0  0  0  0  0
  1 12  1  6  0  0  0
  1  8  1  0  0  0  0
  2  7  1  1  0  0  0
  2  1  1  0  0  0  0
  2 11  1  0  0  0  0
  4  3  1  0  0  0  0
  5 11  1  0  0  0  0
  5  9  1  1  0  0  0
  6  5  1  0  0  0  0
  7 10  1  0  0  0  0
  8  3  1  0  0  0  0
 10 19  1  1  0  0  0
 10  5  1  0  0  0  0
 11  4  1  1  0  0  0
 12 18  1  0  0  0  0
 13 16  1  0  0  0  0
 14 12  2  0  0  0  0
 15 13  2  0  0  0  0
 15 14  1  0  0  0  0
 16 18  2  0  0  0  0
 17 14  1  0  0  0  0
 20 21  1  0  0  0  0
 20 19  1  0  0  0  0
 21 23  1  0  0  0  0
 21 22  1  1  0  0  0
 23 24  1  0  0  0  0
 25 23  2  0  0  0  0
M  END
>  <MODEL>
9

>  <REMARK>
 VINA RESULT:      -6.7      3.650      6.555
  Name = 
  5 active torsions:
  status: ('A' for Active; 'I' for Inactive)
    1  A    between atoms: C_1  and  C_5
    2  A    between atoms: C_2  and  C_21
    3  A    between atoms: S_6  and  C_15
    4  A    between atoms: S_6  and  C_23
    5  A    between atoms: C_15  and  C_21
                            x       y       z     vdW  Elec       q    Type
                         _______ _______ _______ _____ _____    ______ ____

>  <TORSDO>
F 5

$$$$
