=
 OpenBabel11052417253D

 25 29  0  0  1  0  0  0  0  0999 V2000
  185.5940  177.4470  144.4960 N   0  0  0  0  0  0  0  0  0  0  0  0
  186.0300  176.6530  143.3430 C   0  0  2  0  0  3  0  0  0  0  0  0
  184.1380  178.8200  143.1670 C   0  0  0  0  0  3  0  0  0  0  0  0
  185.4790  176.9420  145.8590 C   0  0  2  0  0  3  0  0  0  0  0  0
  186.6200  178.4490  148.1020 C   0  0  0  0  0  2  0  0  0  0  0  0
  184.8630  178.3660  141.9640 C   0  0  0  0  0  3  0  0  0  0  0  0
  184.6060  177.9810  146.6240 C   0  0  1  0  0  3  0  0  0  0  0  0
  185.4290  179.0400  147.3690 C   0  0  0  0  0  2  0  0  0  0  0  0
  186.5760  177.0060  140.8620 C   0  0  0  0  0  0  0  0  0  0  0  0
  186.1800  177.3560  139.6130 F   0  0  0  0  0  0  0  0  0  0  0  0
  187.4650  176.2120  143.4640 C   0  0  0  0  0  3  0  0  0  0  0  0
  187.5320  177.7880  147.0880 C   0  0  0  0  0  2  0  0  0  0  0  0
  184.5280  178.3710  144.3580 C   0  0  0  0  0  0  0  0  0  0  0  0
  183.8670  178.6710  145.5730 N   0  0  0  0  0  2  0  0  0  0  0  0
  187.7270  176.3500  141.0340 C   0  0  0  0  0  3  0  0  0  0  0  0
  186.8220  176.5800  146.5030 C   0  0  0  0  0  2  0  0  0  0  0  0
  188.2340  176.0070  142.3870 C   0  0  0  0  0  0  0  0  0  0  0  0
  185.7890  177.3980  142.0420 C   0  0  0  0  0  0  0  0  0  0  0  0
  189.5680  175.5210  142.5870 N   0  0  0  0  0  2  0  0  0  0  0  0
  190.7400  176.3140  142.8200 C   0  0  0  0  0  0  0  0  0  0  0  0
  190.6940  177.5720  142.7700 O   0  0  0  0  0  0  0  0  0  0  0  0
  192.3450  175.2750  144.5320 C   0  0  1  0  0  3  0  0  0  0  0  0
  192.9860  176.4880  143.8900 C   0  0  0  0  0  2  0  0  0  0  0  0
  191.3050  175.7430  145.5410 C   0  0  0  0  0  1  0  0  0  0  0  0
  192.0510  175.6230  143.0630 C   0  0  2  0  0  3  0  0  0  0  0  0
  1  4  1  0  0  0  0
  2 11  1  1  0  0  0
  2  1  1  0  0  0  0
  3 13  2  0  0  0  0
  4 16  1  1  0  0  0
  4  7  1  0  0  0  0
  6 18  2  0  0  0  0
  6  3  1  0  0  0  0
  7  8  1  6  0  0  0
  8  5  1  0  0  0  0
  9 15  2  0  0  0  0
  9 18  1  0  0  0  0
 10  9  1  0  0  0  0
 12  5  1  0  0  0  0
 13  1  1  0  0  0  0
 13 14  1  0  0  0  0
 14  7  1  0  0  0  0
 15 17  1  0  0  0  0
 16 12  1  0  0  0  0
 17 19  1  0  0  0  0
 17 11  2  0  0  0  0
 18  2  1  0  0  0  0
 19 20  1  0  0  0  0
 21 20  2  0  0  0  0
 22 24  1  1  0  0  0
 23 22  1  0  0  0  0
 25 20  1  1  0  0  0
 25 23  1  0  0  0  0
 25 22  1  0  0  0  0
M  END
>  <MODEL>
1

>  <REMARK>
 VINA RESULT:      -8.2      0.000      0.000
  Name = 
  2 active torsions:
  status: ('A' for Active; 'I' for Inactive)
    1  A    between atoms: N_6  and  C_23
    2  A    between atoms: C_15  and  C_21
                            x       y       z     vdW  Elec       q    Type
                         _______ _______ _______ _____ _____    ______ ____

>  <TORSDO>
F 2

$$$$
=
 OpenBabel11052417253D

 25 29  0  0  1  0  0  0  0  0999 V2000
  186.5920  177.6600  144.7520 N   0  0  0  0  0  0  0  0  0  0  0  0
  187.9000  177.1360  145.1580 C   0  0  2  0  0  3  0  0  0  0  0  0
  185.6300  177.3060  146.9260 C   0  0  0  0  0  3  0  0  0  0  0  0
  186.3860  178.7040  143.7550 C   0  0  2  0  0  3  0  0  0  0  0  0
  184.3930  178.3550  141.6320 C   0  0  0  0  0  2  0  0  0  0  0  0
  186.7450  176.3890  147.2330 C   0  0  0  0  0  3  0  0  0  0  0  0
  184.9270  179.2080  143.9650 C   0  0  1  0  0  3  0  0  0  0  0  0
  183.9030  178.5110  143.0600 C   0  0  0  0  0  2  0  0  0  0  0  0
  188.8470  175.2780  146.6500 C   0  0  0  0  0  0  0  0  0  0  0  0
  189.0020  174.7260  147.8790 F   0  0  0  0  0  0  0  0  0  0  0  0
  188.5980  176.4140  144.0360 C   0  0  0  0  0  3  0  0  0  0  0  0
  185.6490  177.5070  141.6410 C   0  0  0  0  0  2  0  0  0  0  0  0
  185.5840  177.8800  145.7250 C   0  0  0  0  0  0  0  0  0  0  0  0
  184.6130  178.8340  145.3390 N   0  0  0  0  0  2  0  0  0  0  0  0
  189.6330  174.8850  145.6430 C   0  0  0  0  0  3  0  0  0  0  0  0
  186.7600  178.2830  142.3290 C   0  0  0  0  0  2  0  0  0  0  0  0
  189.4550  175.4110  144.2660 C   0  0  0  0  0  0  0  0  0  0  0  0
  187.7800  176.2560  146.3900 C   0  0  0  0  0  0  0  0  0  0  0  0
  190.1300  174.8240  143.1460 N   0  0  0  0  0  2  0  0  0  0  0  0
  189.8070  173.5790  142.5110 C   0  0  0  0  0  0  0  0  0  0  0  0
  188.9130  172.8240  142.9780 O   0  0  0  0  0  0  0  0  0  0  0  0
  189.9870  173.5370  139.9510 C   0  0  1  0  0  3  0  0  0  0  0  0
  189.8320  172.1270  140.4830 C   0  0  0  0  0  2  0  0  0  0  0  0
  188.6370  174.2380  140.0120 C   0  0  0  0  0  1  0  0  0  0  0  0
  190.5970  173.1470  141.3080 C   0  0  2  0  0  3  0  0  0  0  0  0
  1  2  1  0  0  0  0
  1 13  1  0  0  0  0
  2 11  1  6  0  0  0
  2 18  1  0  0  0  0
  3  6  1  0  0  0  0
  4 16  1  6  0  0  0
  4  7  1  0  0  0  0
  4  1  1  0  0  0  0
  5 12  1  0  0  0  0
  5  8  1  0  0  0  0
  7  8  1  6  0  0  0
  7 14  1  0  0  0  0
  9 10  1  0  0  0  0
 11 17  2  0  0  0  0
 12 16  1  0  0  0  0
 13  3  2  0  0  0  0
 14 13  1  0  0  0  0
 15  9  2  0  0  0  0
 17 15  1  0  0  0  0
 18  9  1  0  0  0  0
 18  6  2  0  0  0  0
 19 17  1  0  0  0  0
 20 21  2  0  0  0  0
 20 19  1  0  0  0  0
 22 24  1  1  0  0  0
 22 23  1  0  0  0  0
 22 25  1  0  0  0  0
 23 25  1  0  0  0  0
 25 20  1  1  0  0  0
M  END
>  <MODEL>
2

>  <REMARK>
 VINA RESULT:      -7.8      2.852      4.666
  Name = 
  2 active torsions:
  status: ('A' for Active; 'I' for Inactive)
    1  A    between atoms: N_6  and  C_23
    2  A    between atoms: C_15  and  C_21
                            x       y       z     vdW  Elec       q    Type
                         _______ _______ _______ _____ _____    ______ ____

>  <TORSDO>
F 2

$$$$
=
 OpenBabel11052417253D

 25 29  0  0  1  0  0  0  0  0999 V2000
  186.3440  177.7670  144.5630 N   0  0  0  0  0  0  0  0  0  0  0  0
  187.6490  177.4240  145.1380 C   0  0  2  0  0  3  0  0  0  0  0  0
  185.1550  177.1350  146.5530 C   0  0  0  0  0  3  0  0  0  0  0  0
  186.1160  178.8270  143.5880 C   0  0  2  0  0  3  0  0  0  0  0  0
  184.5240  178.3120  141.1800 C   0  0  0  0  0  2  0  0  0  0  0  0
  186.3480  176.3810  146.9860 C   0  0  0  0  0  3  0  0  0  0  0  0
  184.5800  179.0890  143.5990 C   0  0  1  0  0  3  0  0  0  0  0  0
  183.8190  178.3010  142.5240 C   0  0  0  0  0  2  0  0  0  0  0  0
  188.6630  175.6430  146.6790 C   0  0  0  0  0  0  0  0  0  0  0  0
  188.7290  175.0460  147.8950 F   0  0  0  0  0  0  0  0  0  0  0  0
  188.6050  176.8900  144.1040 C   0  0  0  0  0  3  0  0  0  0  0  0
  185.8860  177.6670  141.3420 C   0  0  0  0  0  2  0  0  0  0  0  0
  185.1870  177.7690  145.3830 C   0  0  0  0  0  0  0  0  0  0  0  0
  184.1400  178.5860  144.8940 N   0  0  0  0  0  2  0  0  0  0  0  0
  189.6350  175.4390  145.7860 C   0  0  0  0  0  3  0  0  0  0  0  0
  186.7490  178.5580  142.2180 C   0  0  0  0  0  2  0  0  0  0  0  0
  189.5700  176.0170  144.4190 C   0  0  0  0  0  0  0  0  0  0  0  0
  187.4990  176.4610  146.3020 C   0  0  0  0  0  0  0  0  0  0  0  0
  190.4820  175.6110  143.3900 N   0  0  0  0  0  2  0  0  0  0  0  0
  191.8070  176.1140  143.1750 C   0  0  0  0  0  0  0  0  0  0  0  0
  192.2570  177.0730  143.8590 O   0  0  0  0  0  0  0  0  0  0  0  0
  193.5250  174.3380  142.4830 C   0  0  1  0  0  3  0  0  0  0  0  0
  194.1240  175.7210  142.3400 C   0  0  0  0  0  2  0  0  0  0  0  0
  193.4870  173.9680  143.9610 C   0  0  0  0  0  1  0  0  0  0  0  0
  192.6410  175.5270  142.0730 C   0  0  2  0  0  3  0  0  0  0  0  0
  1  2  1  0  0  0  0
  1 13  1  0  0  0  0
  2 11  1  6  0  0  0
  2 18  1  0  0  0  0
  3  6  1  0  0  0  0
  4 16  1  6  0  0  0
  4  7  1  0  0  0  0
  4  1  1  0  0  0  0
  5 12  1  0  0  0  0
  5  8  1  0  0  0  0
  7  8  1  6  0  0  0
  7 14  1  0  0  0  0
  9 10  1  0  0  0  0
 11 17  2  0  0  0  0
 12 16  1  0  0  0  0
 13  3  2  0  0  0  0
 14 13  1  0  0  0  0
 15  9  2  0  0  0  0
 17 15  1  0  0  0  0
 18  9  1  0  0  0  0
 18  6  2  0  0  0  0
 19 17  1  0  0  0  0
 20 19  1  0  0  0  0
 20 21  2  0  0  0  0
 22 24  1  1  0  0  0
 23 22  1  0  0  0  0
 25 23  1  0  0  0  0
 25 22  1  0  0  0  0
 25 20  1  1  0  0  0
M  END
>  <MODEL>
3

>  <REMARK>
 VINA RESULT:      -7.6      2.289      4.096
  Name = 
  2 active torsions:
  status: ('A' for Active; 'I' for Inactive)
    1  A    between atoms: N_6  and  C_23
    2  A    between atoms: C_15  and  C_21
                            x       y       z     vdW  Elec       q    Type
                         _______ _______ _______ _____ _____    ______ ____

>  <TORSDO>
F 2

$$$$
=
 OpenBabel11052417253D

 25 29  0  0  1  0  0  0  0  0999 V2000
  186.3490  176.8520  142.8540 N   0  0  0  0  0  0  0  0  0  0  0  0
  187.1180  175.6300  142.5910 C   0  0  2  0  0  3  0  0  0  0  0  0
  186.1760  177.4010  140.5210 C   0  0  0  0  0  3  0  0  0  0  0  0
  185.4240  177.0290  143.9660 C   0  0  2  0  0  3  0  0  0  0  0  0
  185.5480  179.4420  145.6300 C   0  0  0  0  0  2  0  0  0  0  0  0
  187.2900  176.4690  140.2540 C   0  0  0  0  0  3  0  0  0  0  0  0
  184.5580  178.2720  143.6030 C   0  0  1  0  0  3  0  0  0  0  0  0
  185.0960  179.5840  144.1880 C   0  0  0  0  0  2  0  0  0  0  0  0
  188.9430  174.8170  140.9830 C   0  0  0  0  0  0  0  0  0  0  0  0
  189.3530  174.5360  139.7220 F   0  0  0  0  0  0  0  0  0  0  0  0
  188.1260  175.3470  143.6740 C   0  0  0  0  0  3  0  0  0  0  0  0
  186.6670  178.4210  145.6870 C   0  0  0  0  0  2  0  0  0  0  0  0
  185.7680  177.5680  141.7770 C   0  0  0  0  0  0  0  0  0  0  0  0
  184.6650  178.3700  142.1520 N   0  0  0  0  0  2  0  0  0  0  0  0
  189.6410  174.3560  142.0260 C   0  0  0  0  0  3  0  0  0  0  0  0
  186.1030  177.0540  145.3410 C   0  0  0  0  0  2  0  0  0  0  0  0
  189.2690  174.6960  143.4230 C   0  0  0  0  0  0  0  0  0  0  0  0
  187.7770  175.6810  141.2240 C   0  0  0  0  0  0  0  0  0  0  0  0
  190.1410  174.4060  144.5230 N   0  0  0  0  0  2  0  0  0  0  0  0
  191.2860  175.1680  144.9290 C   0  0  0  0  0  0  0  0  0  0  0  0
  191.6850  176.1520  144.2510 O   0  0  0  0  0  0  0  0  0  0  0  0
  191.6090  175.3920  147.4650 C   0  0  1  0  0  3  0  0  0  0  0  0
  192.8400  175.8940  146.7390 C   0  0  0  0  0  2  0  0  0  0  0  0
  190.5060  176.4350  147.3430 C   0  0  0  0  0  1  0  0  0  0  0  0
  192.0540  174.7380  146.1460 C   0  0  2  0  0  3  0  0  0  0  0  0
  1  4  1  0  0  0  0
  2  1  1  0  0  0  0
  2 11  1  1  0  0  0
  3 13  2  0  0  0  0
  4 16  1  1  0  0  0
  5 12  1  0  0  0  0
  6  3  1  0  0  0  0
  6 18  2  0  0  0  0
  7  4  1  0  0  0  0
  7  8  1  1  0  0  0
  8  5  1  0  0  0  0
  9 18  1  0  0  0  0
  9 15  2  0  0  0  0
 10  9  1  0  0  0  0
 13 14  1  0  0  0  0
 13  1  1  0  0  0  0
 14  7  1  0  0  0  0
 15 17  1  0  0  0  0
 16 12  1  0  0  0  0
 17 11  2  0  0  0  0
 17 19  1  0  0  0  0
 18  2  1  0  0  0  0
 19 20  1  0  0  0  0
 21 20  2  0  0  0  0
 22 24  1  6  0  0  0
 23 22  1  0  0  0  0
 25 20  1  6  0  0  0
 25 23  1  0  0  0  0
 25 22  1  0  0  0  0
M  END
>  <MODEL>
4

>  <REMARK>
 VINA RESULT:      -7.5      1.875      2.747
  Name = 
  2 active torsions:
  status: ('A' for Active; 'I' for Inactive)
    1  A    between atoms: N_6  and  C_23
    2  A    between atoms: C_15  and  C_21
                            x       y       z     vdW  Elec       q    Type
                         _______ _______ _______ _____ _____    ______ ____

>  <TORSDO>
F 2

$$$$
=
 OpenBabel11052417253D

 25 29  0  0  1  0  0  0  0  0999 V2000
  190.6700  174.3830  144.8250 N   0  0  0  0  0  0  0  0  0  0  0  0
  189.9850  175.0920  145.9110 C   0  0  2  0  0  3  0  0  0  0  0  0
  192.7780  174.3830  145.9770 C   0  0  0  0  0  3  0  0  0  0  0  0
  190.0420  173.4050  143.9440 C   0  0  2  0  0  3  0  0  0  0  0  0
  190.4090  173.5740  141.0390 C   0  0  0  0  0  2  0  0  0  0  0  0
  192.2610  175.4530  146.8540 C   0  0  0  0  0  3  0  0  0  0  0  0
  191.2130  172.6380  143.2600 C   0  0  1  0  0  3  0  0  0  0  0  0
  191.6100  173.2190  141.8960 C   0  0  0  0  0  2  0  0  0  0  0  0
  190.4800  176.9580  147.6000 C   0  0  0  0  0  0  0  0  0  0  0  0
  191.1910  177.4250  148.6550 F   0  0  0  0  0  0  0  0  0  0  0  0
  188.9090  176.0140  145.4010 C   0  0  0  0  0  3  0  0  0  0  0  0
  189.5910  174.6250  141.7640 C   0  0  0  0  0  2  0  0  0  0  0  0
  191.9940  173.9110  145.0110 C   0  0  0  0  0  0  0  0  0  0  0  0
  192.3440  172.8380  144.1590 N   0  0  0  0  0  2  0  0  0  0  0  0
  189.3420  177.5630  147.2470 C   0  0  0  0  0  3  0  0  0  0  0  0
  188.9840  174.0010  143.0080 C   0  0  0  0  0  2  0  0  0  0  0  0
  188.5650  177.1290  146.0580 C   0  0  0  0  0  0  0  0  0  0  0  0
  190.9760  175.8330  146.7920 C   0  0  0  0  0  0  0  0  0  0  0  0
  187.4830  177.9160  145.5410 N   0  0  0  0  0  2  0  0  0  0  0  0
  186.0900  177.7530  145.8400 C   0  0  0  0  0  0  0  0  0  0  0  0
  185.6850  176.7910  146.5470 O   0  0  0  0  0  0  0  0  0  0  0  0
  184.6620  178.3890  143.8060 C   0  0  1  0  0  3  0  0  0  0  0  0
  185.6970  179.4630  144.0680 C   0  0  0  0  0  2  0  0  0  0  0  0
  185.3460  177.1910  143.1610 C   0  0  0  0  0  1  0  0  0  0  0  0
  185.0990  178.7110  145.2440 C   0  0  2  0  0  3  0  0  0  0  0  0
  1 13  1  0  0  0  0
  1  2  1  0  0  0  0
  2 11  1  6  0  0  0
  2 18  1  0  0  0  0
  3  6  1  0  0  0  0
  4 16  1  6  0  0  0
  4  1  1  0  0  0  0
  5 12  1  0  0  0  0
  5  8  1  0  0  0  0
  7  8  1  6  0  0  0
  7  4  1  0  0  0  0
  7 14  1  0  0  0  0
  9 10  1  0  0  0  0
 11 17  2  0  0  0  0
 12 16  1  0  0  0  0
 13  3  2  0  0  0  0
 14 13  1  0  0  0  0
 15  9  2  0  0  0  0
 17 15  1  0  0  0  0
 18  6  2  0  0  0  0
 18  9  1  0  0  0  0
 19 20  1  0  0  0  0
 19 17  1  0  0  0  0
 20 21  2  0  0  0  0
 22 24  1  6  0  0  0
 22 23  1  0  0  0  0
 22 25  1  0  0  0  0
 23 25  1  0  0  0  0
 25 20  1  6  0  0  0
M  END
>  <MODEL>
5

>  <REMARK>
 VINA RESULT:      -7.3      3.217      7.541
  Name = 
  2 active torsions:
  status: ('A' for Active; 'I' for Inactive)
    1  A    between atoms: N_6  and  C_23
    2  A    between atoms: C_15  and  C_21
                            x       y       z     vdW  Elec       q    Type
                         _______ _______ _______ _____ _____    ______ ____

>  <TORSDO>
F 2

$$$$
=
 OpenBabel11052417253D

 25 29  0  0  1  0  0  0  0  0999 V2000
  186.5640  177.7810  143.6530 N   0  0  0  0  0  0  0  0  0  0  0  0
  187.3130  177.5720  144.8960 C   0  0  2  0  0  3  0  0  0  0  0  0
  184.4800  178.0950  144.8070 C   0  0  0  0  0  3  0  0  0  0  0  0
  187.1090  178.3900  142.4450 C   0  0  2  0  0  3  0  0  0  0  0  0
  186.7060  177.1220  139.8310 C   0  0  0  0  0  2  0  0  0  0  0  0
  185.0830  177.4640  145.9980 C   0  0  0  0  0  3  0  0  0  0  0  0
  185.8770  178.7760  141.5730 C   0  0  1  0  0  3  0  0  0  0  0  0
  185.4980  177.7050  140.5420 C   0  0  0  0  0  2  0  0  0  0  0  0
  186.9750  176.4530  147.1790 C   0  0  0  0  0  0  0  0  0  0  0  0
  186.3140  176.3770  148.3600 F   0  0  0  0  0  0  0  0  0  0  0  0
  188.4400  176.5890  144.7240 C   0  0  0  0  0  3  0  0  0  0  0  0
  187.6050  176.4690  140.8630 C   0  0  0  0  0  2  0  0  0  0  0  0
  185.2140  178.2130  143.7030 C   0  0  0  0  0  0  0  0  0  0  0  0
  184.7780  178.8660  142.5260 N   0  0  0  0  0  2  0  0  0  0  0  0
  188.1450  175.8250  147.0320 C   0  0  0  0  0  3  0  0  0  0  0  0
  188.1900  177.5480  141.7580 C   0  0  0  0  0  2  0  0  0  0  0  0
  188.8710  175.8240  145.7350 C   0  0  0  0  0  0  0  0  0  0  0  0
  186.3890  177.1620  146.0300 C   0  0  0  0  0  0  0  0  0  0  0  0
  189.9940  174.9640  145.5070 N   0  0  0  0  0  2  0  0  0  0  0  0
  191.3710  175.2680  145.7700 C   0  0  0  0  0  0  0  0  0  0  0  0
  191.7200  176.4160  146.1560 O   0  0  0  0  0  0  0  0  0  0  0  0
  192.9880  174.1960  144.0900 C   0  0  1  0  0  3  0  0  0  0  0  0
  191.9290  173.1950  144.5020 C   0  0  0  0  0  2  0  0  0  0  0  0
  192.3710  175.1920  143.1170 C   0  0  0  0  0  1  0  0  0  0  0  0
  192.4130  174.2160  145.5160 C   0  0  2  0  0  3  0  0  0  0  0  0
  1 13  1  0  0  0  0
  1  2  1  0  0  0  0
  2 11  1  6  0  0  0
  2 18  1  0  0  0  0
  3  6  1  0  0  0  0
  4 16  1  6  0  0  0
  4  1  1  0  0  0  0
  5  8  1  0  0  0  0
  5 12  1  0  0  0  0
  6 18  2  0  0  0  0
  7  8  1  6  0  0  0
  7  4  1  0  0  0  0
  7 14  1  0  0  0  0
  9 10  1  0  0  0  0
 11 17  2  0  0  0  0
 12 16  1  0  0  0  0
 13  3  2  0  0  0  0
 14 13  1  0  0  0  0
 15  9  2  0  0  0  0
 17 15  1  0  0  0  0
 18  9  1  0  0  0  0
 19 17  1  0  0  0  0
 19 20  1  0  0  0  0
 20 21  2  0  0  0  0
 22 24  1  6  0  0  0
 22 23  1  0  0  0  0
 22 25  1  0  0  0  0
 23 25  1  0  0  0  0
 25 20  1  6  0  0  0
M  END
>  <MODEL>
6

>  <REMARK>
 VINA RESULT:      -7.3      2.450      4.536
  Name = 
  2 active torsions:
  status: ('A' for Active; 'I' for Inactive)
    1  A    between atoms: N_6  and  C_23
    2  A    between atoms: C_15  and  C_21
                            x       y       z     vdW  Elec       q    Type
                         _______ _______ _______ _____ _____    ______ ____

>  <TORSDO>
F 2

$$$$
=
 OpenBabel11052417253D

 25 29  0  0  1  0  0  0  0  0999 V2000
  190.8110  175.7740  143.7130 N   0  0  0  0  0  0  0  0  0  0  0  0
  189.8900  176.5500  142.8750 C   0  0  2  0  0  3  0  0  0  0  0  0
  190.9890  174.0000  142.1010 C   0  0  0  0  0  3  0  0  0  0  0  0
  191.7800  176.3490  144.6380 C   0  0  2  0  0  3  0  0  0  0  0  0
  191.9990  175.3310  147.3800 C   0  0  0  0  0  2  0  0  0  0  0  0
  189.7620  174.5090  141.4560 C   0  0  0  0  0  3  0  0  0  0  0  0
  192.7830  175.2030  144.9660 C   0  0  1  0  0  3  0  0  0  0  0  0
  192.4270  174.4250  146.2390 C   0  0  0  0  0  2  0  0  0  0  0  0
  187.9370  176.1290  141.2670 C   0  0  0  0  0  0  0  0  0  0  0  0
  187.4620  175.5980  140.1140 F   0  0  0  0  0  0  0  0  0  0  0  0
  188.8840  177.3160  143.6930 C   0  0  0  0  0  3  0  0  0  0  0  0
  190.7640  176.0980  146.9500 C   0  0  0  0  0  2  0  0  0  0  0  0
  191.4480  174.6220  143.1850 C   0  0  0  0  0  0  0  0  0  0  0  0
  192.6510  174.2800  143.8450 N   0  0  0  0  0  2  0  0  0  0  0  0
  187.2150  177.0430  141.9230 C   0  0  0  0  0  3  0  0  0  0  0  0
  191.1460  177.0600  145.8390 C   0  0  0  0  0  2  0  0  0  0  0  0
  187.6630  177.6020  143.2240 C   0  0  0  0  0  0  0  0  0  0  0  0
  189.2070  175.6650  141.8470 C   0  0  0  0  0  0  0  0  0  0  0  0
  186.7900  178.3950  144.0390 N   0  0  0  0  0  2  0  0  0  0  0  0
  185.8290  177.9090  144.9860 C   0  0  0  0  0  0  0  0  0  0  0  0
  185.6040  176.6740  145.1070 O   0  0  0  0  0  0  0  0  0  0  0  0
  185.5720  179.1620  147.2100 C   0  0  1  0  0  3  0  0  0  0  0  0
  184.3950  178.2330  147.0000 C   0  0  0  0  0  2  0  0  0  0  0  0
  186.7840  178.3370  147.6220 C   0  0  0  0  0  1  0  0  0  0  0  0
  185.0360  178.8960  145.7940 C   0  0  2  0  0  3  0  0  0  0  0  0
  1  4  1  0  0  0  0
  2 11  1  1  0  0  0
  2  1  1  0  0  0  0
  3 13  2  0  0  0  0
  4  7  1  0  0  0  0
  4 16  1  1  0  0  0
  6 18  2  0  0  0  0
  6  3  1  0  0  0  0
  7  8  1  1  0  0  0
  8  5  1  0  0  0  0
  9 18  1  0  0  0  0
  9 15  2  0  0  0  0
 10  9  1  0  0  0  0
 12  5  1  0  0  0  0
 13  1  1  0  0  0  0
 13 14  1  0  0  0  0
 14  7  1  0  0  0  0
 15 17  1  0  0  0  0
 16 12  1  0  0  0  0
 17 11  2  0  0  0  0
 17 19  1  0  0  0  0
 18  2  1  0  0  0  0
 19 20  1  0  0  0  0
 20 21  2  0  0  0  0
 22 24  1  6  0  0  0
 23 22  1  0  0  0  0
 25 20  1  6  0  0  0
 25 23  1  0  0  0  0
 25 22  1  0  0  0  0
M  END
>  <MODEL>
7

>  <REMARK>
 VINA RESULT:      -7.2      1.948      6.156
  Name = 
  2 active torsions:
  status: ('A' for Active; 'I' for Inactive)
    1  A    between atoms: N_6  and  C_23
    2  A    between atoms: C_15  and  C_21
                            x       y       z     vdW  Elec       q    Type
                         _______ _______ _______ _____ _____    ______ ____

>  <TORSDO>
F 2

$$$$
=
 OpenBabel11052417253D

 25 29  0  0  1  0  0  0  0  0999 V2000
  191.4850  173.8400  145.0010 N   0  0  0  0  0  0  0  0  0  0  0  0
  190.8900  174.4440  146.1990 C   0  0  2  0  0  3  0  0  0  0  0  0
  193.6890  174.6350  145.5350 C   0  0  0  0  0  3  0  0  0  0  0  0
  191.0200  172.6110  144.3710 C   0  0  2  0  0  3  0  0  0  0  0  0
  190.5940  172.4990  141.4710 C   0  0  0  0  0  2  0  0  0  0  0  0
  193.0770  175.6020  146.4690 C   0  0  0  0  0  3  0  0  0  0  0  0
  192.1750  172.1540  143.4300 C   0  0  1  0  0  3  0  0  0  0  0  0
  192.0160  172.6430  141.9840 C   0  0  0  0  0  2  0  0  0  0  0  0
  191.1370  176.5760  147.6010 C   0  0  0  0  0  0  0  0  0  0  0  0
  191.8890  177.3730  148.4000 F   0  0  0  0  0  0  0  0  0  0  0  0
  189.4810  174.9180  145.9590 C   0  0  0  0  0  3  0  0  0  0  0  0
  189.6780  173.3360  142.3410 C   0  0  0  0  0  2  0  0  0  0  0  0
  192.8930  173.8230  144.8420 C   0  0  0  0  0  0  0  0  0  0  0  0
  193.3600  172.8060  143.9770 N   0  0  0  0  0  2  0  0  0  0  0  0
  189.8140  176.7540  147.5440 C   0  0  0  0  0  3  0  0  0  0  0  0
  189.6310  172.7270  143.7320 C   0  0  0  0  0  2  0  0  0  0  0  0
  188.9590  175.9510  146.6320 C   0  0  0  0  0  0  0  0  0  0  0  0
  191.7650  175.5600  146.7410 C   0  0  0  0  0  0  0  0  0  0  0  0
  187.5890  176.2950  146.3940 N   0  0  0  0  0  2  0  0  0  0  0  0
  187.0980  177.2260  145.4190 C   0  0  0  0  0  0  0  0  0  0  0  0
  187.8910  177.9180  144.7250 O   0  0  0  0  0  0  0  0  0  0  0  0
  184.9910  178.4320  146.2480 C   0  0  1  0  0  3  0  0  0  0  0  0
  184.8750  176.9460  146.5130 C   0  0  0  0  0  2  0  0  0  0  0  0
  185.9450  179.0410  147.2670 C   0  0  0  0  0  1  0  0  0  0  0  0
  185.6160  177.4190  145.2750 C   0  0  2  0  0  3  0  0  0  0  0  0
  1  2  1  0  0  0  0
  2 11  1  6  0  0  0
  2 18  1  0  0  0  0
  3  6  1  0  0  0  0
  4 16  1  6  0  0  0
  4  1  1  0  0  0  0
  5  8  1  0  0  0  0
  5 12  1  0  0  0  0
  6 18  2  0  0  0  0
  7  8  1  6  0  0  0
  7 14  1  0  0  0  0
  7  4  1  0  0  0  0
  9 10  1  0  0  0  0
 11 17  2  0  0  0  0
 12 16  1  0  0  0  0
 13  1  1  0  0  0  0
 13  3  2  0  0  0  0
 14 13  1  0  0  0  0
 15  9  2  0  0  0  0
 17 15  1  0  0  0  0
 18  9  1  0  0  0  0
 19 17  1  0  0  0  0
 20 19  1  0  0  0  0
 21 20  2  0  0  0  0
 22 23  1  0  0  0  0
 22 24  1  1  0  0  0
 25 20  1  1  0  0  0
 25 22  1  0  0  0  0
 25 23  1  0  0  0  0
M  END
>  <MODEL>
8

>  <REMARK>
 VINA RESULT:      -7.1      3.390      7.873
  Name = 
  2 active torsions:
  status: ('A' for Active; 'I' for Inactive)
    1  A    between atoms: N_6  and  C_23
    2  A    between atoms: C_15  and  C_21
                            x       y       z     vdW  Elec       q    Type
                         _______ _______ _______ _____ _____    ______ ____

>  <TORSDO>
F 2

$$$$
=
 OpenBabel11052417253D

 25 29  0  0  1  0  0  0  0  0999 V2000
  191.4660  174.2080  143.7290 N   0  0  0  0  0  0  0  0  0  0  0  0
  191.0300  175.4030  144.4600 C   0  0  2  0  0  3  0  0  0  0  0  0
  193.3440  175.3390  142.7430 C   0  0  0  0  0  3  0  0  0  0  0  0
  191.2900  172.8380  144.1920 C   0  0  2  0  0  3  0  0  0  0  0  0
  190.2050  170.7900  142.3930 C   0  0  0  0  0  2  0  0  0  0  0  0
  192.7050  176.6250  143.0830 C   0  0  0  0  0  3  0  0  0  0  0  0
  192.2530  171.9710  143.3280 C   0  0  1  0  0  3  0  0  0  0  0  0
  191.5810  171.3580  142.0920 C   0  0  0  0  0  2  0  0  0  0  0  0
  190.9060  177.9390  144.1000 C   0  0  0  0  0  0  0  0  0  0  0  0
  191.5300  179.1240  143.8900 F   0  0  0  0  0  0  0  0  0  0  0  0
  189.5310  175.4770  144.5880 C   0  0  0  0  0  3  0  0  0  0  0  0
  189.3170  171.9140  142.8890 C   0  0  0  0  0  2  0  0  0  0  0  0
  192.7130  174.2080  143.0530 C   0  0  0  0  0  0  0  0  0  0  0  0
  193.2540  172.9170  142.8490 N   0  0  0  0  0  2  0  0  0  0  0  0
  189.6300  177.9210  144.4950 C   0  0  0  0  0  3  0  0  0  0  0  0
  189.8270  172.3820  144.2420 C   0  0  0  0  0  2  0  0  0  0  0  0
  188.8860  176.6470  144.6710 C   0  0  0  0  0  0  0  0  0  0  0  0
  191.5940  176.6660  143.8340 C   0  0  0  0  0  0  0  0  0  0  0  0
  187.4660  176.6290  144.8610 N   0  0  0  0  0  2  0  0  0  0  0  0
  186.7490  177.1280  145.9980 C   0  0  0  0  0  0  0  0  0  0  0  0
  187.3610  177.5590  147.0130 O   0  0  0  0  0  0  0  0  0  0  0  0
  184.5490  178.2870  145.3680 C   0  0  1  0  0  3  0  0  0  0  0  0
  184.6560  178.1620  146.8730 C   0  0  0  0  0  2  0  0  0  0  0  0
  185.4690  179.4080  144.9000 C   0  0  0  0  0  1  0  0  0  0  0  0
  185.2490  177.0720  145.9980 C   0  0  2  0  0  3  0  0  0  0  0  0
  1  4  1  0  0  0  0
  1  2  1  0  0  0  0
  2 11  1  6  0  0  0
  3 13  2  0  0  0  0
  3  6  1  0  0  0  0
  4 16  1  6  0  0  0
  5 12  1  0  0  0  0
  6 18  2  0  0  0  0
  7  8  1  6  0  0  0
  7  4  1  0  0  0  0
  8  5  1  0  0  0  0
  9 15  2  0  0  0  0
 10  9  1  0  0  0  0
 11 17  2  0  0  0  0
 12 16  1  0  0  0  0
 13  1  1  0  0  0  0
 14 13  1  0  0  0  0
 14  7  1  0  0  0  0
 15 17  1  0  0  0  0
 17 19  1  0  0  0  0
 18  9  1  0  0  0  0
 18  2  1  0  0  0  0
 19 20  1  0  0  0  0
 20 21  2  0  0  0  0
 22 24  1  6  0  0  0
 22 25  1  0  0  0  0
 22 23  1  0  0  0  0
 25 20  1  6  0  0  0
 25 23  1  0  0  0  0
M  END
>  <MODEL>
9

>  <REMARK>
 VINA RESULT:      -7.1      3.103      7.474
  Name = 
  2 active torsions:
  status: ('A' for Active; 'I' for Inactive)
    1  A    between atoms: N_6  and  C_23
    2  A    between atoms: C_15  and  C_21
                            x       y       z     vdW  Elec       q    Type
                         _______ _______ _______ _____ _____    ______ ____

>  <TORSDO>
F 2

$$$$
