=
 OpenBabel11052417373D

 25 28  0  0  1  0  0  0  0  0999 V2000
  188.6620  176.0530  143.3920 C   0  0  0  0  0  0  0  0  0  0  0  0
  187.8260  176.8730  142.6250 C   0  0  0  0  0  0  0  0  0  0  0  0
  189.0010  174.5160  141.5650 C   0  0  0  0  0  3  0  0  0  0  0  0
  189.1800  176.2290  144.7750 C   0  0  2  0  0  3  0  0  0  0  0  0
  185.7930  178.1180  143.4110 C   0  0  2  0  0  3  0  0  0  0  0  0
  189.5270  174.7750  147.2390 C   0  0  0  0  0  3  0  0  0  0  0  0
  188.1430  175.2980  140.7800 C   0  0  0  0  0  3  0  0  0  0  0  0
  190.0020  174.9740  144.8960 C   0  0  0  0  0  0  0  0  0  0  0  0
  190.3310  174.4410  146.2210 C   0  0  0  0  0  3  0  0  0  0  0  0
  186.6370  177.2210  140.4240 N   0  0  0  0  0  0  0  0  0  0  0  0
  186.4630  176.8350  139.0320 C   0  0  0  0  0  1  0  0  0  0  0  0
  187.3120  178.1450  143.2270 C   0  0  0  0  0  2  0  0  0  0  0  0
  188.3230  175.6160  147.0150 C   0  0  0  0  0  3  0  0  0  0  0  0
  189.2510  174.9300  142.8660 C   0  0  0  0  0  0  0  0  0  0  0  0
  190.0490  174.2500  143.8220 N   0  0  0  0  0  0  0  0  0  0  0  0
  185.8140  178.3350  140.8830 C   0  0  0  0  0  2  0  0  0  0  0  0
  188.1210  176.2490  145.8480 C   0  0  0  0  0  3  0  0  0  0  0  0
  185.0040  177.9290  142.1090 C   0  0  0  0  0  2  0  0  0  0  0  0
  187.5410  176.4780  141.2820 C   0  0  0  0  0  0  0  0  0  0  0  0
  185.3070  179.3420  144.1920 C   0  0  0  0  0  2  0  0  0  0  0  0
  183.2490  179.0690  145.3670 O   0  0  0  0  0  0  0  0  0  0  0  0
  184.5050  178.9880  145.4090 C   0  0  0  0  0  0  0  0  0  0  0  0
  185.1680  178.5340  146.6380 C   0  0  0  0  0  0  0  0  0  0  0  0
  185.8560  179.4430  147.4350 O   0  0  0  0  0  1  0  0  0  0  0  0
  185.1080  177.3250  146.9860 O   0  0  0  0  0  0  0  0  0  0  0  0
  1  4  1  0  0  0  0
  2 12  1  0  0  0  0
  2  1  2  0  0  0  0
  3 14  2  0  0  0  0
  4  8  1  0  0  0  0
  4 17  1  1  0  0  0
  5 20  1  6  0  0  0
  7 19  2  0  0  0  0
  7  3  1  0  0  0  0
  8  9  1  0  0  0  0
  9  6  2  0  0  0  0
 10 16  1  0  0  0  0
 10 19  1  0  0  0  0
 11 10  1  0  0  0  0
 12  5  1  0  0  0  0
 13  6  1  0  0  0  0
 14  1  1  0  0  0  0
 14 15  1  0  0  0  0
 15  8  2  0  0  0  0
 16 18  1  0  0  0  0
 17 13  2  0  0  0  0
 18  5  1  0  0  0  0
 19  2  1  0  0  0  0
 20 22  1  0  0  0  0
 21 22  2  0  0  0  0
 22 23  1  0  0  0  0
 23 25  2  0  0  0  0
 23 24  1  0  0  0  0
M  END
>  <MODEL>
1

>  <REMARK>
 VINA RESULT:      -7.7      0.000      0.000
  Name = 
  3 active torsions:
  status: ('A' for Active; 'I' for Inactive)
    1  A    between atoms: C_2  and  C_25
    2  A    between atoms: C_6  and  C_15
    3  A    between atoms: C_15  and  C_25
                            x       y       z     vdW  Elec       q    Type
                         _______ _______ _______ _____ _____    ______ ____

>  <TORSDO>
F 3

$$$$
=
 OpenBabel11052417373D

 25 28  0  0  1  0  0  0  0  0999 V2000
  187.7000  176.9730  145.6600 C   0  0  0  0  0  0  0  0  0  0  0  0
  188.5580  176.6430  144.6050 C   0  0  0  0  0  0  0  0  0  0  0  0
  188.5510  175.1920  147.0440 C   0  0  0  0  0  3  0  0  0  0  0  0
  186.7430  178.1030  145.8080 C   0  0  2  0  0  3  0  0  0  0  0  0
  188.0500  176.7590  142.1490 C   0  0  2  0  0  3  0  0  0  0  0  0
  184.0370  178.6530  146.6300 C   0  0  0  0  0  3  0  0  0  0  0  0
  189.4010  174.8160  145.9950 C   0  0  0  0  0  3  0  0  0  0  0  0
  186.2090  177.8000  147.1830 C   0  0  0  0  0  0  0  0  0  0  0  0
  184.9090  178.3350  147.5950 C   0  0  0  0  0  3  0  0  0  0  0  0
  190.3060  175.0550  143.7110 N   0  0  0  0  0  0  0  0  0  0  0  0
  191.2450  173.9710  143.9640 C   0  0  0  0  0  1  0  0  0  0  0  0
  188.5630  177.5080  143.3810 C   0  0  0  0  0  2  0  0  0  0  0  0
  184.3660  178.4240  145.1990 C   0  0  0  0  0  3  0  0  0  0  0  0
  187.7200  176.2870  146.8490 C   0  0  0  0  0  0  0  0  0  0  0  0
  186.7640  176.7860  147.7690 N   0  0  0  0  0  0  0  0  0  0  0  0
  190.2840  175.5720  142.3470 C   0  0  0  0  0  2  0  0  0  0  0  0
  185.6120  178.1070  144.8120 C   0  0  0  0  0  3  0  0  0  0  0  0
  188.8700  175.5160  141.7800 C   0  0  0  0  0  2  0  0  0  0  0  0
  189.4250  175.5200  144.7660 C   0  0  0  0  0  0  0  0  0  0  0  0
  187.8880  177.7030  140.9540 C   0  0  0  0  0  2  0  0  0  0  0  0
  186.6290  176.7730  139.1530 O   0  0  0  0  0  0  0  0  0  0  0  0
  186.6140  177.4820  140.1930 C   0  0  0  0  0  0  0  0  0  0  0  0
  185.3510  178.0710  140.6590 C   0  0  0  0  0  0  0  0  0  0  0  0
  184.1660  177.7990  139.9850 O   0  0  0  0  0  0  0  0  0  0  0  0
  185.3310  178.8140  141.6750 O   0  0  0  0  0  1  0  0  0  0  0  0
  1  4  1  0  0  0  0
  1 14  1  0  0  0  0
  2 19  1  0  0  0  0
  2  1  2  0  0  0  0
  4 17  1  6  0  0  0
  4  8  1  0  0  0  0
  5 20  1  6  0  0  0
  5 12  1  0  0  0  0
  6  9  2  0  0  0  0
  7  3  1  0  0  0  0
  8  9  1  0  0  0  0
  8 15  2  0  0  0  0
 10 11  1  0  0  0  0
 10 19  1  0  0  0  0
 12  2  1  0  0  0  0
 13  6  1  0  0  0  0
 14  3  2  0  0  0  0
 14 15  1  0  0  0  0
 16 10  1  0  0  0  0
 17 13  2  0  0  0  0
 18  5  1  0  0  0  0
 18 16  1  0  0  0  0
 19  7  2  0  0  0  0
 21 22  2  0  0  0  0
 22 23  1  0  0  0  0
 22 20  1  0  0  0  0
 23 25  1  0  0  0  0
 24 23  2  0  0  0  0
M  END
>  <MODEL>
2

>  <REMARK>
 VINA RESULT:      -7.6      2.563      5.255
  Name = 
  3 active torsions:
  status: ('A' for Active; 'I' for Inactive)
    1  A    between atoms: C_2  and  C_25
    2  A    between atoms: C_6  and  C_15
    3  A    between atoms: C_15  and  C_25
                            x       y       z     vdW  Elec       q    Type
                         _______ _______ _______ _____ _____    ______ ____

>  <TORSDO>
F 3

$$$$
=
 OpenBabel11052417373D

 25 28  0  0  1  0  0  0  0  0999 V2000
  186.3380  177.9940  142.9660 C   0  0  0  0  0  0  0  0  0  0  0  0
  186.6880  178.0040  144.3210 C   0  0  0  0  0  0  0  0  0  0  0  0
  184.0660  178.6450  143.4440 C   0  0  0  0  0  3  0  0  0  0  0  0
  187.1730  177.7700  141.7550 C   0  0  2  0  0  3  0  0  0  0  0  0
  188.2620  176.4340  145.4880 C   0  0  2  0  0  3  0  0  0  0  0  0
  187.1760  176.2990  139.2770 C   0  0  0  0  0  3  0  0  0  0  0  0
  184.3760  178.6330  144.8110 C   0  0  0  0  0  3  0  0  0  0  0  0
  186.1180  177.9220  140.6920 C   0  0  0  0  0  0  0  0  0  0  0  0
  186.3260  177.3310  139.3670 C   0  0  0  0  0  3  0  0  0  0  0  0
  185.9170  178.2910  146.7080 N   0  0  0  0  0  0  0  0  0  0  0  0
  184.8790  178.7180  147.6350 C   0  0  0  0  0  1  0  0  0  0  0  0
  188.1140  177.7380  144.7000 C   0  0  0  0  0  2  0  0  0  0  0  0
  187.8420  175.7520  140.4870 C   0  0  0  0  0  3  0  0  0  0  0  0
  185.0760  178.3330  142.5440 C   0  0  0  0  0  0  0  0  0  0  0  0
  184.9440  178.2460  141.1350 N   0  0  0  0  0  0  0  0  0  0  0  0
  187.1480  177.7970  147.3150 C   0  0  0  0  0  2  0  0  0  0  0  0
  187.7960  176.4000  141.6620 C   0  0  0  0  0  3  0  0  0  0  0  0
  187.4710  176.3980  146.8020 C   0  0  0  0  0  2  0  0  0  0  0  0
  185.6750  178.3160  145.2780 C   0  0  0  0  0  0  0  0  0  0  0  0
  189.7360  176.0840  145.7070 C   0  0  0  0  0  2  0  0  0  0  0  0
  190.2270  174.8650  143.7160 O   0  0  0  0  0  0  0  0  0  0  0  0
  190.4910  175.8690  144.4290 C   0  0  0  0  0  0  0  0  0  0  0  0
  191.5190  176.8240  143.9940 C   0  0  0  0  0  0  0  0  0  0  0  0
  191.3120  177.6020  142.8600 O   0  0  0  0  0  0  0  0  0  0  0  0
  192.5850  176.9550  144.6500 O   0  0  0  0  0  1  0  0  0  0  0  0
  1  2  1  0  0  0  0
  2 12  1  0  0  0  0
  2 19  2  0  0  0  0
  3  7  2  0  0  0  0
  4 17  1  1  0  0  0
  4  1  1  0  0  0  0
  5 20  1  1  0  0  0
  5 18  1  0  0  0  0
  6  9  2  0  0  0  0
  6 13  1  0  0  0  0
  7 19  1  0  0  0  0
  8 15  2  0  0  0  0
  8  4  1  0  0  0  0
  9  8  1  0  0  0  0
 10 16  1  0  0  0  0
 10 11  1  0  0  0  0
 12  5  1  0  0  0  0
 13 17  2  0  0  0  0
 14  1  2  0  0  0  0
 14  3  1  0  0  0  0
 15 14  1  0  0  0  0
 18 16  1  0  0  0  0
 19 10  1  0  0  0  0
 21 22  2  0  0  0  0
 22 20  1  0  0  0  0
 23 22  1  0  0  0  0
 23 25  1  0  0  0  0
 24 23  2  0  0  0  0
M  END
>  <MODEL>
3

>  <REMARK>
 VINA RESULT:      -7.2      3.124      6.286
  Name = 
  3 active torsions:
  status: ('A' for Active; 'I' for Inactive)
    1  A    between atoms: C_2  and  C_25
    2  A    between atoms: C_6  and  C_15
    3  A    between atoms: C_15  and  C_25
                            x       y       z     vdW  Elec       q    Type
                         _______ _______ _______ _____ _____    ______ ____

>  <TORSDO>
F 3

$$$$
=
 OpenBabel11052417373D

 25 28  0  0  1  0  0  0  0  0999 V2000
  185.6520  177.3160  144.0720 C   0  0  0  0  0  0  0  0  0  0  0  0
  186.4220  176.6570  143.1070 C   0  0  0  0  0  0  0  0  0  0  0  0
  184.5410  178.6660  142.4110 C   0  0  0  0  0  3  0  0  0  0  0  0
  185.5510  177.0970  145.5400 C   0  0  2  0  0  3  0  0  0  0  0  0
  188.8060  175.9020  143.3310 C   0  0  2  0  0  3  0  0  0  0  0  0
  185.5340  178.5530  148.0270 C   0  0  0  0  0  3  0  0  0  0  0  0
  185.3200  178.0480  141.4230 C   0  0  0  0  0  3  0  0  0  0  0  0
  184.5360  178.1560  145.8820 C   0  0  0  0  0  0  0  0  0  0  0  0
  184.4470  178.6660  147.2530 C   0  0  0  0  0  3  0  0  0  0  0  0
  187.0620  176.4690  140.6720 N   0  0  0  0  0  0  0  0  0  0  0  0
  186.7920  176.8220  139.2860 C   0  0  0  0  0  1  0  0  0  0  0  0
  187.3320  175.5490  143.5430 C   0  0  0  0  0  2  0  0  0  0  0  0
  186.7940  177.9740  147.4920 C   0  0  0  0  0  3  0  0  0  0  0  0
  184.7230  178.2670  143.7280 C   0  0  0  0  0  0  0  0  0  0  0  0
  184.0660  178.8050  144.8640 N   0  0  0  0  0  0  0  0  0  0  0  0
  188.1940  175.5750  140.8910 C   0  0  0  0  0  2  0  0  0  0  0  0
  186.8250  177.3460  146.3060 C   0  0  0  0  0  3  0  0  0  0  0  0
  189.1810  176.1950  141.8730 C   0  0  0  0  0  2  0  0  0  0  0  0
  186.2670  177.0430  141.7410 C   0  0  0  0  0  0  0  0  0  0  0  0
  189.7240  174.8430  143.9480 C   0  0  0  0  0  2  0  0  0  0  0  0
  189.5680  174.1760  146.2340 O   0  0  0  0  0  0  0  0  0  0  0  0
  189.9620  175.0470  145.4150 C   0  0  0  0  0  0  0  0  0  0  0  0
  190.6650  176.2420  145.9010 C   0  0  0  0  0  0  0  0  0  0  0  0
  190.2600  176.8570  147.0800 O   0  0  0  0  0  1  0  0  0  0  0  0
  191.6440  176.7110  145.2620 O   0  0  0  0  0  0  0  0  0  0  0  0
  1  4  1  0  0  0  0
  2 12  1  0  0  0  0
  2  1  2  0  0  0  0
  3 14  2  0  0  0  0
  4  8  1  0  0  0  0
  4 17  1  1  0  0  0
  5 12  1  0  0  0  0
  5 20  1  6  0  0  0
  7 19  2  0  0  0  0
  7  3  1  0  0  0  0
  8  9  1  0  0  0  0
  9  6  2  0  0  0  0
 10 16  1  0  0  0  0
 10 19  1  0  0  0  0
 11 10  1  0  0  0  0
 13  6  1  0  0  0  0
 14  1  1  0  0  0  0
 14 15  1  0  0  0  0
 15  8  2  0  0  0  0
 16 18  1  0  0  0  0
 17 13  2  0  0  0  0
 18  5  1  0  0  0  0
 19  2  1  0  0  0  0
 20 22  1  0  0  0  0
 22 23  1  0  0  0  0
 22 21  2  0  0  0  0
 23 24  1  0  0  0  0
 25 23  2  0  0  0  0
M  END
>  <MODEL>
4

>  <REMARK>
 VINA RESULT:      -7.2      2.584      4.996
  Name = 
  3 active torsions:
  status: ('A' for Active; 'I' for Inactive)
    1  A    between atoms: C_2  and  C_25
    2  A    between atoms: C_6  and  C_15
    3  A    between atoms: C_15  and  C_25
                            x       y       z     vdW  Elec       q    Type
                         _______ _______ _______ _____ _____    ______ ____

>  <TORSDO>
F 3

$$$$
=
 OpenBabel11052417373D

 25 28  0  0  1  0  0  0  0  0999 V2000
  187.0350  176.3900  144.7190 C   0  0  0  0  0  0  0  0  0  0  0  0
  188.1640  175.6420  144.3690 C   0  0  0  0  0  0  0  0  0  0  0  0
  186.3770  176.6650  142.4160 C   0  0  0  0  0  3  0  0  0  0  0  0
  186.4780  176.7260  146.0570 C   0  0  2  0  0  3  0  0  0  0  0  0
  190.4130  175.6820  145.4850 C   0  0  2  0  0  3  0  0  0  0  0  0
  185.4360  178.9570  147.5540 C   0  0  0  0  0  3  0  0  0  0  0  0
  187.5160  175.9460  142.0300 C   0  0  0  0  0  3  0  0  0  0  0  0
  185.2770  177.5300  145.6340 C   0  0  0  0  0  0  0  0  0  0  0  0
  184.6660  178.4790  146.5680 C   0  0  0  0  0  3  0  0  0  0  0  0
  189.6030  174.7180  142.5100 N   0  0  0  0  0  0  0  0  0  0  0  0
  189.7680  174.4340  141.0920 C   0  0  0  0  0  1  0  0  0  0  0  0
  189.0140  175.0620  145.4590 C   0  0  0  0  0  2  0  0  0  0  0  0
  186.8670  178.5720  147.6600 C   0  0  0  0  0  3  0  0  0  0  0  0
  186.1580  176.8590  143.7730 C   0  0  0  0  0  0  0  0  0  0  0  0
  185.0940  177.5960  144.3520 N   0  0  0  0  0  0  0  0  0  0  0  0
  190.7030  174.3050  143.3740 C   0  0  0  0  0  2  0  0  0  0  0  0
  187.3770  177.5730  146.9220 C   0  0  0  0  0  3  0  0  0  0  0  0
  191.2130  175.4870  144.1900 C   0  0  0  0  0  2  0  0  0  0  0  0
  188.4260  175.4240  142.9820 C   0  0  0  0  0  0  0  0  0  0  0  0
  191.2030  175.2170  146.7120 C   0  0  0  0  0  2  0  0  0  0  0  0
  191.7370  177.0930  148.0860 O   0  0  0  0  0  0  0  0  0  0  0  0
  192.1470  176.2580  147.2370 C   0  0  0  0  0  0  0  0  0  0  0  0
  193.5440  176.2990  146.7850 C   0  0  0  0  0  0  0  0  0  0  0  0
  194.1200  175.1780  146.1990 O   0  0  0  0  0  0  0  0  0  0  0  0
  194.2240  177.3510  146.9130 O   0  0  0  0  0  1  0  0  0  0  0  0
  1  4  1  0  0  0  0
  2  1  1  0  0  0  0
  2 12  1  0  0  0  0
  3 14  1  0  0  0  0
  4 17  1  1  0  0  0
  5 20  1  1  0  0  0
  6 13  1  0  0  0  0
  7  3  2  0  0  0  0
  7 19  1  0  0  0  0
  8  4  1  0  0  0  0
  8  9  1  0  0  0  0
  9  6  2  0  0  0  0
 10 19  1  0  0  0  0
 10 16  1  0  0  0  0
 11 10  1  0  0  0  0
 12  5  1  0  0  0  0
 14 15  1  0  0  0  0
 14  1  2  0  0  0  0
 15  8  2  0  0  0  0
 16 18  1  0  0  0  0
 17 13  2  0  0  0  0
 18  5  1  0  0  0  0
 19  2  2  0  0  0  0
 20 22  1  0  0  0  0
 22 21  2  0  0  0  0
 23 25  1  0  0  0  0
 23 22  1  0  0  0  0
 24 23  2  0  0  0  0
M  END
>  <MODEL>
5

>  <REMARK>
 VINA RESULT:      -7.1      3.324      5.853
  Name = 
  3 active torsions:
  status: ('A' for Active; 'I' for Inactive)
    1  A    between atoms: C_2  and  C_25
    2  A    between atoms: C_6  and  C_15
    3  A    between atoms: C_15  and  C_25
                            x       y       z     vdW  Elec       q    Type
                         _______ _______ _______ _____ _____    ______ ____

>  <TORSDO>
F 3

$$$$
=
 OpenBabel11052417373D

 25 28  0  0  1  0  0  0  0  0999 V2000
  187.2820  177.8020  144.9690 C   0  0  0  0  0  0  0  0  0  0  0  0
  188.4800  177.0780  144.9630 C   0  0  0  0  0  0  0  0  0  0  0  0
  187.1860  177.8160  147.3780 C   0  0  0  0  0  3  0  0  0  0  0  0
  186.5080  178.3950  143.8460 C   0  0  2  0  0  3  0  0  0  0  0  0
  189.1680  175.3040  143.3240 C   0  0  2  0  0  3  0  0  0  0  0  0
  183.8130  178.6020  142.8460 C   0  0  0  0  0  3  0  0  0  0  0  0
  188.3680  177.0640  147.4060 C   0  0  0  0  0  3  0  0  0  0  0  0
  185.3720  179.0090  144.6220 C   0  0  0  0  0  0  0  0  0  0  0  0
  184.1030  179.3010  143.9520 C   0  0  0  0  0  3  0  0  0  0  0  0
  190.2370  175.8740  146.3190 N   0  0  0  0  0  0  0  0  0  0  0  0
  190.8180  175.5850  147.6220 C   0  0  0  0  0  1  0  0  0  0  0  0
  189.1480  176.8000  143.6500 C   0  0  0  0  0  2  0  0  0  0  0  0
  184.7290  177.5410  142.3530 C   0  0  0  0  0  3  0  0  0  0  0  0
  186.6740  178.1810  146.1400 C   0  0  0  0  0  0  0  0  0  0  0  0
  185.4720  178.8960  145.9090 N   0  0  0  0  0  0  0  0  0  0  0  0
  190.9020  175.2590  145.1750 C   0  0  0  0  0  2  0  0  0  0  0  0
  185.9650  177.3970  142.8550 C   0  0  0  0  0  3  0  0  0  0  0  0
  189.9080  174.4430  144.3560 C   0  0  0  0  0  2  0  0  0  0  0  0
  189.0350  176.6810  146.2170 C   0  0  0  0  0  0  0  0  0  0  0  0
  189.6840  175.0530  141.9050 C   0  0  0  0  0  2  0  0  0  0  0  0
  187.9390  175.4090  140.3180 O   0  0  0  0  0  0  0  0  0  0  0  0
  188.6200  174.5700  140.9640 C   0  0  0  0  0  0  0  0  0  0  0  0
  188.3780  173.1330  140.7800 C   0  0  0  0  0  0  0  0  0  0  0  0
  188.3420  172.2860  141.8810 O   0  0  0  0  0  1  0  0  0  0  0  0
  188.1900  172.6610  139.6280 O   0  0  0  0  0  0  0  0  0  0  0  0
  1 14  1  0  0  0  0
  2  1  2  0  0  0  0
  2 19  1  0  0  0  0
  3  7  1  0  0  0  0
  4 17  1  6  0  0  0
  4  8  1  0  0  0  0
  4  1  1  0  0  0  0
  5 20  1  6  0  0  0
  5 12  1  0  0  0  0
  5 18  1  0  0  0  0
  6  9  2  0  0  0  0
  8 15  2  0  0  0  0
  9  8  1  0  0  0  0
 10 11  1  0  0  0  0
 12  2  1  0  0  0  0
 13  6  1  0  0  0  0
 13 17  2  0  0  0  0
 14  3  2  0  0  0  0
 15 14  1  0  0  0  0
 16 10  1  0  0  0  0
 18 16  1  0  0  0  0
 19 10  1  0  0  0  0
 19  7  2  0  0  0  0
 21 22  2  0  0  0  0
 22 20  1  0  0  0  0
 23 22  1  0  0  0  0
 23 24  1  0  0  0  0
 25 23  2  0  0  0  0
M  END
>  <MODEL>
6

>  <REMARK>
 VINA RESULT:      -6.8      3.334      6.689
  Name = 
  3 active torsions:
  status: ('A' for Active; 'I' for Inactive)
    1  A    between atoms: C_2  and  C_25
    2  A    between atoms: C_6  and  C_15
    3  A    between atoms: C_15  and  C_25
                            x       y       z     vdW  Elec       q    Type
                         _______ _______ _______ _____ _____    ______ ____

>  <TORSDO>
F 3

$$$$
=
 OpenBabel11052417373D

 25 28  0  0  1  0  0  0  0  0999 V2000
  187.9570  176.5000  145.4710 C   0  0  0  0  0  0  0  0  0  0  0  0
  187.0440  176.7250  144.4350 C   0  0  0  0  0  0  0  0  0  0  0  0
  186.8870  178.1200  146.9010 C   0  0  0  0  0  3  0  0  0  0  0  0
  189.0650  175.5130  145.5840 C   0  0  2  0  0  3  0  0  0  0  0  0
  187.5230  176.7230  141.9700 C   0  0  2  0  0  3  0  0  0  0  0  0
  191.8340  175.3340  146.3590 C   0  0  0  0  0  3  0  0  0  0  0  0
  185.9760  178.3920  145.8710 C   0  0  0  0  0  3  0  0  0  0  0  0
  189.5740  175.8640  146.9580 C   0  0  0  0  0  0  0  0  0  0  0  0
  190.9420  175.5090  147.3420 C   0  0  0  0  0  3  0  0  0  0  0  0
  185.0770  178.0670  143.5960 N   0  0  0  0  0  0  0  0  0  0  0  0
  184.0000  179.0040  143.8820 C   0  0  0  0  0  1  0  0  0  0  0  0
  187.1400  175.8880  143.1950 C   0  0  0  0  0  2  0  0  0  0  0  0
  191.4530  175.5390  144.9370 C   0  0  0  0  0  3  0  0  0  0  0  0
  187.8600  177.1560  146.6730 C   0  0  0  0  0  0  0  0  0  0  0  0
  188.8910  176.7800  147.5710 N   0  0  0  0  0  0  0  0  0  0  0  0
  185.1490  177.5820  142.2220 C   0  0  0  0  0  2  0  0  0  0  0  0
  190.1690  175.6850  144.5730 C   0  0  0  0  0  3  0  0  0  0  0  0
  186.5320  177.8450  141.6360 C   0  0  0  0  0  2  0  0  0  0  0  0
  186.0310  177.7120  144.6290 C   0  0  0  0  0  0  0  0  0  0  0  0
  187.7960  175.8320  140.7550 C   0  0  0  0  0  2  0  0  0  0  0  0
  189.8750  174.8700  141.4250 O   0  0  0  0  0  0  0  0  0  0  0  0
  188.6860  174.6640  141.0650 C   0  0  0  0  0  0  0  0  0  0  0  0
  188.1790  173.2890  140.9680 C   0  0  0  0  0  0  0  0  0  0  0  0
  188.1050  172.6590  139.7300 O   0  0  0  0  0  0  0  0  0  0  0  0
  187.8200  172.6670  142.0020 O   0  0  0  0  0  1  0  0  0  0  0  0
  1  4  1  0  0  0  0
  1 14  1  0  0  0  0
  2 19  1  0  0  0  0
  2  1  2  0  0  0  0
  4 17  1  6  0  0  0
  4  8  1  0  0  0  0
  5 20  1  6  0  0  0
  5 12  1  0  0  0  0
  6  9  2  0  0  0  0
  7  3  1  0  0  0  0
  8  9  1  0  0  0  0
  8 15  2  0  0  0  0
 10 11  1  0  0  0  0
 10 19  1  0  0  0  0
 12  2  1  0  0  0  0
 13  6  1  0  0  0  0
 14  3  2  0  0  0  0
 14 15  1  0  0  0  0
 16 10  1  0  0  0  0
 17 13  2  0  0  0  0
 18  5  1  0  0  0  0
 18 16  1  0  0  0  0
 19  7  2  0  0  0  0
 20 22  1  0  0  0  0
 22 21  2  0  0  0  0
 23 22  1  0  0  0  0
 23 25  1  0  0  0  0
 24 23  2  0  0  0  0
M  END
>  <MODEL>
7

>  <REMARK>
 VINA RESULT:      -6.8      3.279      5.097
  Name = 
  3 active torsions:
  status: ('A' for Active; 'I' for Inactive)
    1  A    between atoms: C_2  and  C_25
    2  A    between atoms: C_6  and  C_15
    3  A    between atoms: C_15  and  C_25
                            x       y       z     vdW  Elec       q    Type
                         _______ _______ _______ _____ _____    ______ ____

>  <TORSDO>
F 3

$$$$
=
 OpenBabel11052417373D

 25 28  0  0  1  0  0  0  0  0999 V2000
  187.9260  176.3000  142.5410 C   0  0  0  0  0  0  0  0  0  0  0  0
  187.4930  177.0600  143.6330 C   0  0  0  0  0  0  0  0  0  0  0  0
  186.2900  177.2910  141.0730 C   0  0  0  0  0  3  0  0  0  0  0  0
  189.0640  175.3500  142.4170 C   0  0  2  0  0  3  0  0  0  0  0  0
  187.3670  176.3290  146.0320 C   0  0  2  0  0  3  0  0  0  0  0  0
  189.6920  172.7260  141.4070 C   0  0  0  0  0  3  0  0  0  0  0  0
  185.8120  178.0450  142.1540 C   0  0  0  0  0  3  0  0  0  0  0  0
  188.8980  174.9470  140.9750 C   0  0  0  0  0  0  0  0  0  0  0  0
  189.4710  173.6860  140.4990 C   0  0  0  0  0  3  0  0  0  0  0  0
  185.8250  178.7340  144.5240 N   0  0  0  0  0  0  0  0  0  0  0  0
  184.7720  179.7020  144.2540 C   0  0  0  0  0  1  0  0  0  0  0  0
  188.2340  176.9460  144.9310 C   0  0  0  0  0  2  0  0  0  0  0  0
  189.3230  172.9240  142.8320 C   0  0  0  0  0  3  0  0  0  0  0  0
  187.3590  176.4350  141.2970 C   0  0  0  0  0  0  0  0  0  0  0  0
  187.9470  175.5630  140.3460 N   0  0  0  0  0  0  0  0  0  0  0  0
  186.2050  178.5810  145.9240 C   0  0  0  0  0  2  0  0  0  0  0  0
  188.9700  174.1320  143.3000 C   0  0  0  0  0  3  0  0  0  0  0  0
  186.0930  177.1220  146.3510 C   0  0  0  0  0  2  0  0  0  0  0  0
  186.3920  177.9490  143.4430 C   0  0  0  0  0  0  0  0  0  0  0  0
  188.1890  176.0490  147.2930 C   0  0  0  0  0  2  0  0  0  0  0  0
  189.2200  174.0150  146.5920 O   0  0  0  0  0  0  0  0  0  0  0  0
  189.3850  175.1800  147.0400 C   0  0  0  0  0  0  0  0  0  0  0  0
  190.7430  175.6800  147.2940 C   0  0  0  0  0  0  0  0  0  0  0  0
  191.2670  176.7010  146.5100 O   0  0  0  0  0  0  0  0  0  0  0  0
  191.4350  175.1980  148.2290 O   0  0  0  0  0  1  0  0  0  0  0  0
  1  2  1  0  0  0  0
  2 12  1  0  0  0  0
  3 14  1  0  0  0  0
  3  7  2  0  0  0  0
  4  1  1  0  0  0  0
  4 17  1  1  0  0  0
  5 18  1  0  0  0  0
  5 20  1  1  0  0  0
  6 13  1  0  0  0  0
  7 19  1  0  0  0  0
  8  4  1  0  0  0  0
  9  8  1  0  0  0  0
  9  6  2  0  0  0  0
 10 16  1  0  0  0  0
 11 10  1  0  0  0  0
 12  5  1  0  0  0  0
 13 17  2  0  0  0  0
 14  1  2  0  0  0  0
 15  8  2  0  0  0  0
 15 14  1  0  0  0  0
 16 18  1  0  0  0  0
 19  2  2  0  0  0  0
 19 10  1  0  0  0  0
 21 22  2  0  0  0  0
 22 20  1  0  0  0  0
 22 23  1  0  0  0  0
 23 25  1  0  0  0  0
 24 23  2  0  0  0  0
M  END
>  <MODEL>
8

>  <REMARK>
 VINA RESULT:      -6.8      2.647      4.805
  Name = 
  3 active torsions:
  status: ('A' for Active; 'I' for Inactive)
    1  A    between atoms: C_2  and  C_25
    2  A    between atoms: C_6  and  C_15
    3  A    between atoms: C_15  and  C_25
                            x       y       z     vdW  Elec       q    Type
                         _______ _______ _______ _____ _____    ______ ____

>  <TORSDO>
F 3

$$$$
=
 OpenBabel11052417373D

 25 28  0  0  1  0  0  0  0  0999 V2000
  188.0820  177.4880  144.4060 C   0  0  0  0  0  0  0  0  0  0  0  0
  189.3700  177.2140  144.8790 C   0  0  0  0  0  0  0  0  0  0  0  0
  187.0490  176.5110  146.3540 C   0  0  0  0  0  3  0  0  0  0  0  0
  187.6370  178.2240  143.1920 C   0  0  2  0  0  3  0  0  0  0  0  0
  191.3680  176.5290  143.5210 C   0  0  2  0  0  3  0  0  0  0  0  0
  185.7810  178.0100  140.9990 C   0  0  0  0  0  3  0  0  0  0  0  0
  188.3240  176.1940  146.8420 C   0  0  0  0  0  3  0  0  0  0  0  0
  186.1450  178.1140  143.3670 C   0  0  0  0  0  0  0  0  0  0  0  0
  185.2610  178.2610  142.2080 C   0  0  0  0  0  3  0  0  0  0  0  0
  190.7870  176.1440  146.6750 N   0  0  0  0  0  0  0  0  0  0  0  0
  190.8690  175.5440  147.9990 C   0  0  0  0  0  1  0  0  0  0  0  0
  190.5480  177.6920  144.0850 C   0  0  0  0  0  2  0  0  0  0  0  0
  187.1870  177.5540  140.8530 C   0  0  0  0  0  3  0  0  0  0  0  0
  186.9630  177.1720  145.1360 C   0  0  0  0  0  0  0  0  0  0  0  0
  185.7690  177.5310  144.4620 N   0  0  0  0  0  0  0  0  0  0  0  0
  192.0480  176.2610  145.9510 C   0  0  0  0  0  2  0  0  0  0  0  0
  188.0440  177.5920  141.8860 C   0  0  0  0  0  3  0  0  0  0  0  0
  191.9430  175.5870  144.5870 C   0  0  0  0  0  2  0  0  0  0  0  0
  189.5010  176.5320  146.1270 C   0  0  0  0  0  0  0  0  0  0  0  0
  192.4540  177.0280  142.5650 C   0  0  0  0  0  2  0  0  0  0  0  0
  192.8760  174.9760  141.4230 O   0  0  0  0  0  0  0  0  0  0  0  0
  193.3610  175.9380  142.0760 C   0  0  0  0  0  0  0  0  0  0  0  0
  194.8050  175.9900  142.3380 C   0  0  0  0  0  0  0  0  0  0  0  0
  195.6400  176.7150  141.4950 O   0  0  0  0  0  0  0  0  0  0  0  0
  195.2950  175.3910  143.3310 O   0  0  0  0  0  1  0  0  0  0  0  0
  1  2  2  0  0  0  0
  1 14  1  0  0  0  0
  2 19  1  0  0  0  0
  3  7  1  0  0  0  0
  4 17  1  6  0  0  0
  4  8  1  0  0  0  0
  4  1  1  0  0  0  0
  5 20  1  1  0  0  0
  5 12  1  0  0  0  0
  5 18  1  0  0  0  0
  6  9  2  0  0  0  0
  8 15  2  0  0  0  0
  9  8  1  0  0  0  0
 10 11  1  0  0  0  0
 12  2  1  0  0  0  0
 13  6  1  0  0  0  0
 13 17  2  0  0  0  0
 14  3  2  0  0  0  0
 15 14  1  0  0  0  0
 16 10  1  0  0  0  0
 18 16  1  0  0  0  0
 19 10  1  0  0  0  0
 19  7  2  0  0  0  0
 21 22  2  0  0  0  0
 22 23  1  0  0  0  0
 22 20  1  0  0  0  0
 23 25  1  0  0  0  0
 24 23  2  0  0  0  0
M  END
>  <MODEL>
9

>  <REMARK>
 VINA RESULT:      -6.7      4.413      7.377
  Name = 
  3 active torsions:
  status: ('A' for Active; 'I' for Inactive)
    1  A    between atoms: C_2  and  C_25
    2  A    between atoms: C_6  and  C_15
    3  A    between atoms: C_15  and  C_25
                            x       y       z     vdW  Elec       q    Type
                         _______ _______ _______ _____ _____    ______ ____

>  <TORSDO>
F 3

$$$$
