=
 OpenBabel11052418423D

 34 38  0  0  1  0  0  0  0  0999 V2000
  188.3570  174.4430  141.3200 C   0  0  1  0  0  3  0  0  0  0  0  0
  187.6640  176.2230  142.8940 C   0  0  0  0  0  0  0  0  0  0  0  0
  190.0380  175.6140  142.9320 C   0  0  0  0  0  0  0  0  0  0  0  0
  192.6780  177.0760  144.1290 C   0  0  0  0  0  2  0  0  0  0  0  0
  189.2290  172.0970  140.0410 Cl  0  0  0  0  0  0  0  0  0  0  0  0
  186.3560  176.0510  142.4470 O   0  0  0  0  0  1  0  0  0  0  0  0
  189.1820  177.4660  144.3510 C   0  0  0  0  0  3  0  0  0  0  0  0
  188.6460  175.4290  142.4310 C   0  0  0  0  0  0  0  0  0  0  0  0
  191.4570  176.5060  144.8350 C   0  0  2  0  0  3  0  0  0  0  0  0
  187.9910  175.3240  139.8080 Cl  0  0  0  0  0  0  0  0  0  0  0  0
  191.0400  174.8760  142.3880 C   0  0  0  0  0  0  0  0  0  0  0  0
  189.4950  173.4970  141.0600 C   0  0  0  0  0  0  0  0  0  0  0  0
  187.9550  177.3110  143.8520 C   0  0  0  0  0  0  0  0  0  0  0  0
  192.8410  176.5570  142.7660 N   0  0  0  0  0  2  0  0  0  0  0  0
  192.5090  175.1290  142.6310 C   0  0  1  0  0  3  0  0  0  0  0  0
  190.2560  176.5820  143.9890 N   0  0  0  0  0  0  0  0  0  0  0  0
  190.7280  173.7450  141.4970 C   0  0  0  0  0  3  0  0  0  0  0  0
  195.1470  173.5800  144.9240 C   0  0  0  0  0  0  0  0  0  0  0  0
  194.4520  172.4740  145.4190 C   0  0  0  0  0  3  0  0  0  0  0  0
  193.2020  174.2180  143.6140 C   0  0  0  0  0  0  0  0  0  0  0  0
  193.1350  172.2370  145.0160 C   0  0  0  0  0  3  0  0  0  0  0  0
  194.5240  174.4500  144.0260 C   0  0  0  0  0  3  0  0  0  0  0  0
  192.5130  173.1060  144.1150 C   0  0  0  0  0  3  0  0  0  0  0  0
  196.7970  173.8770  145.4230 Cl  0  0  0  0  0  0  0  0  0  0  0  0
  191.5370  176.4370  147.3340 C   0  0  0  0  0  3  0  0  0  0  0  0
  191.9940  175.0140  147.3450 C   0  0  0  0  0  1  0  0  0  0  0  0
  191.2960  177.1120  146.2040 C   0  0  0  0  0  3  0  0  0  0  0  0
  186.8660  178.2200  144.3170 C   0  0  0  0  0  2  0  0  0  0  0  0
  186.1810  176.8780  147.6480 N   0  0  0  0  0  0  0  0  0  0  0  0
  185.0400  177.5110  147.4170 N   0  0  0  0  0  2  0  0  0  0  0  0
  186.9990  177.0160  146.5810 C   0  0  0  0  0  3  0  0  0  0  0  0
  184.0240  178.8720  145.5810 C   0  0  0  0  0  1  0  0  0  0  0  0
  185.1110  178.0620  146.1950 C   0  0  0  0  0  0  0  0  0  0  0  0
  186.3300  177.7620  145.6340 C   0  0  0  0  0  0  0  0  0  0  0  0
  1 10  1  6  0  0  0
  1  8  1  0  0  0  0
  2 13  1  0  0  0  0
  3 16  1  0  0  0  0
  4  9  1  0  0  0  0
  5 12  1  0  0  0  0
  6  2  1  0  0  0  0
  8  2  2  0  0  0  0
  8  3  1  0  0  0  0
  9 27  1  1  0  0  0
 11 15  1  0  0  0  0
 11  3  2  0  0  0  0
 12  1  1  0  0  0  0
 12 17  2  0  0  0  0
 13 28  1  0  0  0  0
 13  7  2  0  0  0  0
 14  4  1  0  0  0  0
 15 14  1  0  0  0  0
 15 20  1  1  0  0  0
 16  7  1  0  0  0  0
 16  9  1  0  0  0  0
 17 11  1  0  0  0  0
 18 19  1  0  0  0  0
 18 24  1  0  0  0  0
 20 22  1  0  0  0  0
 20 23  2  0  0  0  0
 21 19  2  0  0  0  0
 22 18  2  0  0  0  0
 23 21  1  0  0  0  0
 25 26  1  0  0  0  0
 27 25  2  0  0  0  0
 28 34  1  0  0  0  0
 30 29  1  0  0  0  0
 31 29  2  0  0  0  0
 32 33  1  0  0  0  0
 33 30  1  0  0  0  0
 34 33  2  0  0  0  0
 34 31  1  0  0  0  0
M  END
>  <MODEL>
1

>  <REMARK>
 VINA RESULT:      -7.8      0.000      0.000
  Name = 
  4 active torsions:
  status: ('A' for Active; 'I' for Inactive)
    1  A    between atoms: C_12  and  C_28
    2  A    between atoms: C_18  and  C_29
    3  A    between atoms: C_20  and  C_25
    4  A    between atoms: C_20  and  C_34
                            x       y       z     vdW  Elec       q    Type
                         _______ _______ _______ _____ _____    ______ ____

>  <TORSDO>
F 4

$$$$
=
 OpenBabel11052418423D

 34 38  0  0  1  0  0  0  0  0999 V2000
  189.6840  173.3600  140.7620 C   0  0  1  0  0  3  0  0  0  0  0  0
  188.0580  174.5880  142.1660 C   0  0  0  0  0  0  0  0  0  0  0  0
  190.4220  175.1100  142.5470 C   0  0  0  0  0  0  0  0  0  0  0  0
  191.9330  177.5660  144.0410 C   0  0  0  0  0  2  0  0  0  0  0  0
  191.6830  171.6970  139.6940 Cl  0  0  0  0  0  0  0  0  0  0  0  0
  187.0410  173.8600  141.5520 O   0  0  0  0  0  1  0  0  0  0  0  0
  188.6400  176.3340  143.7730 C   0  0  0  0  0  3  0  0  0  0  0  0
  189.3450  174.3350  141.8680 C   0  0  0  0  0  0  0  0  0  0  0  0
  191.0140  176.4860  144.5930 C   0  0  2  0  0  3  0  0  0  0  0  0
  189.1710  174.0280  139.1850 Cl  0  0  0  0  0  0  0  0  0  0  0  0
  191.7130  174.9200  142.1680 C   0  0  0  0  0  0  0  0  0  0  0  0
  191.1490  173.0350  140.6910 C   0  0  0  0  0  0  0  0  0  0  0  0
  187.6950  175.6610  143.1170 C   0  0  0  0  0  0  0  0  0  0  0  0
  192.4960  177.2180  142.7300 N   0  0  0  0  0  2  0  0  0  0  0  0
  192.8630  175.7990  142.6000 C   0  0  1  0  0  3  0  0  0  0  0  0
  190.0360  176.0400  143.5900 N   0  0  0  0  0  0  0  0  0  0  0  0
  192.0670  173.7970  141.2820 C   0  0  0  0  0  3  0  0  0  0  0  0
  194.4300  173.4970  145.2190 C   0  0  0  0  0  0  0  0  0  0  0  0
  195.4060  174.3370  145.7620 C   0  0  0  0  0  3  0  0  0  0  0  0
  193.7500  175.2660  143.6980 C   0  0  0  0  0  0  0  0  0  0  0  0
  195.5560  175.6390  145.2770 C   0  0  0  0  0  3  0  0  0  0  0  0
  193.6060  173.9590  144.1900 C   0  0  0  0  0  3  0  0  0  0  0  0
  194.7290  176.1020  144.2480 C   0  0  0  0  0  3  0  0  0  0  0  0
  194.2360  171.8680  145.8280 Cl  0  0  0  0  0  0  0  0  0  0  0  0
  190.8070  176.4150  147.0850 C   0  0  0  0  0  3  0  0  0  0  0  0
  191.8890  175.3910  147.2100 C   0  0  0  0  0  1  0  0  0  0  0  0
  190.4130  176.9120  145.9060 C   0  0  0  0  0  3  0  0  0  0  0  0
  186.2610  175.9670  143.4000 C   0  0  0  0  0  2  0  0  0  0  0  0
  185.8030  179.5860  143.6360 N   0  0  0  0  0  0  0  0  0  0  0  0
  185.7360  179.2620  144.9200 N   0  0  0  0  0  2  0  0  0  0  0  0
  186.0150  178.4740  142.9000 C   0  0  0  0  0  3  0  0  0  0  0  0
  185.8830  177.1880  146.3090 C   0  0  0  0  0  1  0  0  0  0  0  0
  185.9080  177.9350  145.0230 C   0  0  0  0  0  0  0  0  0  0  0  0
  186.0970  177.4060  143.7680 C   0  0  0  0  0  0  0  0  0  0  0  0
  1 10  1  6  0  0  0
  1  8  1  0  0  0  0
  2 13  1  0  0  0  0
  3 16  1  0  0  0  0
  4  9  1  0  0  0  0
  5 12  1  0  0  0  0
  6  2  1  0  0  0  0
  8  2  2  0  0  0  0
  8  3  1  0  0  0  0
  9 27  1  1  0  0  0
 11  3  2  0  0  0  0
 11 15  1  0  0  0  0
 12  1  1  0  0  0  0
 12 17  2  0  0  0  0
 13 28  1  0  0  0  0
 13  7  2  0  0  0  0
 14  4  1  0  0  0  0
 15 14  1  0  0  0  0
 15 20  1  1  0  0  0
 16  7  1  0  0  0  0
 16  9  1  0  0  0  0
 17 11  1  0  0  0  0
 18 19  1  0  0  0  0
 18 24  1  0  0  0  0
 20 22  1  0  0  0  0
 20 23  2  0  0  0  0
 21 19  2  0  0  0  0
 22 18  2  0  0  0  0
 23 21  1  0  0  0  0
 25 26  1  0  0  0  0
 27 25  2  0  0  0  0
 28 34  1  0  0  0  0
 29 30  1  0  0  0  0
 30 33  1  0  0  0  0
 31 29  2  0  0  0  0
 31 34  1  0  0  0  0
 33 32  1  0  0  0  0
 34 33  2  0  0  0  0
M  END
>  <MODEL>
2

>  <REMARK>
 VINA RESULT:      -7.7      1.600      2.160
  Name = 
  4 active torsions:
  status: ('A' for Active; 'I' for Inactive)
    1  A    between atoms: C_12  and  C_28
    2  A    between atoms: C_18  and  C_29
    3  A    between atoms: C_20  and  C_25
    4  A    between atoms: C_20  and  C_34
                            x       y       z     vdW  Elec       q    Type
                         _______ _______ _______ _____ _____    ______ ____

>  <TORSDO>
F 4

$$$$
=
 OpenBabel11052418423D

 34 38  0  0  1  0  0  0  0  0999 V2000
  191.9840  176.2950  145.8290 C   0  0  0  0  0  0  0  0  0  0  0  0
  189.8260  176.9630  144.8170 C   0  0  0  0  0  0  0  0  0  0  0  0
  190.5990  174.6940  144.3080 C   0  0  2  0  0  3  0  0  0  0  0  0
  189.1110  172.0640  143.1190 C   0  0  0  0  0  2  0  0  0  0  0  0
  194.6320  175.5480  146.4010 Cl  0  0  0  0  0  0  0  0  0  0  0  0
  189.9940  178.2200  145.3920 O   0  0  0  0  0  1  0  0  0  0  0  0
  188.3960  175.4960  143.4850 C   0  0  0  0  0  3  0  0  0  0  0  0
  190.7860  176.0290  144.9440 C   0  0  0  0  0  0  0  0  0  0  0  0
  189.3910  173.4160  142.4810 C   0  0  2  0  0  3  0  0  0  0  0  0
  191.4680  176.3800  147.5380 Cl  0  0  0  0  0  0  0  0  0  0  0  0
  191.5250  173.7230  144.5230 C   0  0  0  0  0  0  0  0  0  0  0  0
  193.0540  175.2480  145.7030 C   0  0  0  0  0  0  0  0  0  0  0  0
  188.5660  176.6650  144.1030 C   0  0  0  0  0  0  0  0  0  0  0  0
  189.9550  171.8020  144.2910 N   0  0  0  0  0  2  0  0  0  0  0  0
  191.3410  172.2740  144.1400 C   0  0  1  0  0  3  0  0  0  0  0  0
  189.4250  174.4930  143.4810 N   0  0  0  0  0  0  0  0  0  0  0  0
  192.8090  174.0540  145.1660 C   0  0  0  0  0  3  0  0  0  0  0  0
  193.4580  172.2230  140.9580 C   0  0  0  0  0  0  0  0  0  0  0  0
  193.2950  170.8960  140.5510 C   0  0  0  0  0  3  0  0  0  0  0  0
  192.0410  171.8080  142.8880 C   0  0  0  0  0  0  0  0  0  0  0  0
  192.5080  170.0250  141.3080 C   0  0  0  0  0  3  0  0  0  0  0  0
  192.8350  172.6770  142.1230 C   0  0  0  0  0  3  0  0  0  0  0  0
  191.8820  170.4800  142.4730 C   0  0  0  0  0  3  0  0  0  0  0  0
  194.4380  173.3190  140.0090 Cl  0  0  0  0  0  0  0  0  0  0  0  0
  188.8380  173.5450  140.0440 C   0  0  0  0  0  3  0  0  0  0  0  0
  190.2200  173.1410  139.6430 C   0  0  0  0  0  1  0  0  0  0  0  0
  188.4620  173.6670  141.3230 C   0  0  0  0  0  3  0  0  0  0  0  0
  187.4860  177.6930  144.0160 C   0  0  0  0  0  2  0  0  0  0  0  0
  185.5190  176.9860  147.0150 N   0  0  0  0  0  0  0  0  0  0  0  0
  184.5780  177.5080  146.2410 N   0  0  0  0  0  0  0  0  0  0  0  0
  186.6900  176.9540  146.3430 C   0  0  0  0  0  2  0  0  0  0  0  0
  184.3990  178.4420  143.9270 C   0  0  0  0  0  1  0  0  0  0  0  0
  185.1350  177.8170  145.0600 C   0  0  0  0  0  0  0  0  0  0  0  0
  186.4660  177.4720  145.0850 C   0  0  0  0  0  0  0  0  0  0  0  0
  1 10  1  0  0  0  0
  2  8  2  0  0  0  0
  2  6  1  0  0  0  0
  3 11  1  6  0  0  0
  3  8  1  0  0  0  0
  4 14  1  0  0  0  0
  7 13  2  0  0  0  0
  8  1  1  0  0  0  0
  9 27  1  6  0  0  0
  9  4  1  0  0  0  0
  9 16  1  0  0  0  0
 11 17  2  0  0  0  0
 12  1  2  0  0  0  0
 12  5  1  0  0  0  0
 13  2  1  0  0  0  0
 15 20  1  6  0  0  0
 15 14  1  0  0  0  0
 15 11  1  0  0  0  0
 16  7  1  0  0  0  0
 16  3  1  0  0  0  0
 17 12  1  0  0  0  0
 18 22  1  0  0  0  0
 19 18  2  0  0  0  0
 19 21  1  0  0  0  0
 21 23  2  0  0  0  0
 22 20  2  0  0  0  0
 23 20  1  0  0  0  0
 24 18  1  0  0  0  0
 25 27  2  0  0  0  0
 26 25  1  0  0  0  0
 28 13  1  0  0  0  0
 28 34  1  0  0  0  0
 30 29  2  0  0  0  0
 31 29  1  0  0  0  0
 32 33  1  0  0  0  0
 33 34  2  0  0  0  0
 33 30  1  0  0  0  0
 34 31  1  0  0  0  0
M  END
>  <MODEL>
3

>  <REMARK>
 VINA RESULT:      -7.6      2.600      4.645
  Name = 
  4 active torsions:
  status: ('A' for Active; 'I' for Inactive)
    1  A    between atoms: C_12  and  C_28
    2  A    between atoms: C_18  and  C_29
    3  A    between atoms: C_20  and  C_25
    4  A    between atoms: C_20  and  C_34
                            x       y       z     vdW  Elec       q    Type
                         _______ _______ _______ _____ _____    ______ ____

>  <TORSDO>
F 4

$$$$
=
 OpenBabel11052418423D

 34 38  0  0  1  0  0  0  0  0999 V2000
  191.9680  176.3020  145.9150 C   0  0  0  0  0  0  0  0  0  0  0  0
  189.8200  177.0060  144.9080 C   0  0  0  0  0  0  0  0  0  0  0  0
  190.5850  174.7470  144.3460 C   0  0  1  0  0  3  0  0  0  0  0  0
  189.0900  172.1550  143.0830 C   0  0  0  0  0  2  0  0  0  0  0  0
  194.6090  175.5270  146.4840 Cl  0  0  0  0  0  0  0  0  0  0  0  0
  189.9910  178.2480  145.5150 O   0  0  0  0  0  1  0  0  0  0  0  0
  188.3910  175.5810  143.5310 C   0  0  0  0  0  3  0  0  0  0  0  0
  190.7740  176.0640  145.0170 C   0  0  0  0  0  0  0  0  0  0  0  0
  189.3820  173.5220  142.4800 C   0  0  2  0  0  3  0  0  0  0  0  0
  191.4430  176.3470  147.6230 Cl  0  0  0  0  0  0  0  0  0  0  0  0
  191.5050  173.7660  144.5420 C   0  0  0  0  0  0  0  0  0  0  0  0
  193.0340  175.2530  145.7690 C   0  0  0  0  0  0  0  0  0  0  0  0
  188.5630  176.7330  144.1790 C   0  0  0  0  0  0  0  0  0  0  0  0
  189.9260  171.8590  144.2530 N   0  0  0  0  0  2  0  0  0  0  0  0
  191.3160  172.3280  144.1220 C   0  0  1  0  0  3  0  0  0  0  0  0
  189.4150  174.5730  143.5080 N   0  0  0  0  0  0  0  0  0  0  0  0
  192.7860  174.0740  145.2010 C   0  0  0  0  0  3  0  0  0  0  0  0
  192.5790  170.1970  141.2110 C   0  0  0  0  0  0  0  0  0  0  0  0
  193.3790  171.1200  140.5330 C   0  0  0  0  0  3  0  0  0  0  0  0
  192.0210  171.8900  142.8620 C   0  0  0  0  0  0  0  0  0  0  0  0
  193.5020  172.4250  141.0150 C   0  0  0  0  0  3  0  0  0  0  0  0
  191.9010  170.5800  142.3710 C   0  0  0  0  0  3  0  0  0  0  0  0
  192.8250  172.8090  142.1770 C   0  0  0  0  0  3  0  0  0  0  0  0
  192.4270  168.5600  140.6130 Cl  0  0  0  0  0  0  0  0  0  0  0  0
  188.8350  173.6860  140.0440 C   0  0  0  0  0  3  0  0  0  0  0  0
  190.2070  173.2510  139.6410 C   0  0  0  0  0  1  0  0  0  0  0  0
  188.4610  173.8060  141.3240 C   0  0  0  0  0  3  0  0  0  0  0  0
  187.4890  177.7690  144.1110 C   0  0  0  0  0  2  0  0  0  0  0  0
  185.5140  177.0230  147.0950 N   0  0  0  0  0  0  0  0  0  0  0  0
  184.5720  177.5420  146.3210 N   0  0  0  0  0  0  0  0  0  0  0  0
  186.6890  177.0070  146.4290 C   0  0  0  0  0  2  0  0  0  0  0  0
  184.3960  178.4900  144.0130 C   0  0  0  0  0  1  0  0  0  0  0  0
  185.1320  177.8640  145.1450 C   0  0  0  0  0  0  0  0  0  0  0  0
  186.4660  177.5310  145.1730 C   0  0  0  0  0  0  0  0  0  0  0  0
  1 10  1  0  0  0  0
  2  8  2  0  0  0  0
  2  6  1  0  0  0  0
  3 11  1  1  0  0  0
  3  8  1  0  0  0  0
  4 14  1  0  0  0  0
  7 13  2  0  0  0  0
  8  1  1  0  0  0  0
  9 27  1  6  0  0  0
  9  4  1  0  0  0  0
  9 16  1  0  0  0  0
 11 17  2  0  0  0  0
 12  1  2  0  0  0  0
 12  5  1  0  0  0  0
 13  2  1  0  0  0  0
 15 20  1  6  0  0  0
 15 14  1  0  0  0  0
 15 11  1  0  0  0  0
 16  7  1  0  0  0  0
 16  3  1  0  0  0  0
 17 12  1  0  0  0  0
 18 22  1  0  0  0  0
 19 21  1  0  0  0  0
 19 18  2  0  0  0  0
 21 23  2  0  0  0  0
 22 20  2  0  0  0  0
 23 20  1  0  0  0  0
 24 18  1  0  0  0  0
 25 27  2  0  0  0  0
 26 25  1  0  0  0  0
 28 13  1  0  0  0  0
 28 34  1  0  0  0  0
 30 29  2  0  0  0  0
 31 29  1  0  0  0  0
 32 33  1  0  0  0  0
 33 34  2  0  0  0  0
 33 30  1  0  0  0  0
 34 31  1  0  0  0  0
M  END
>  <MODEL>
4

>  <REMARK>
 VINA RESULT:      -7.6      2.548      4.802
  Name = 
  4 active torsions:
  status: ('A' for Active; 'I' for Inactive)
    1  A    between atoms: C_12  and  C_28
    2  A    between atoms: C_18  and  C_29
    3  A    between atoms: C_20  and  C_25
    4  A    between atoms: C_20  and  C_34
                            x       y       z     vdW  Elec       q    Type
                         _______ _______ _______ _____ _____    ______ ____

>  <TORSDO>
F 4

$$$$
=
 OpenBabel11052418423D

 34 38  0  0  1  0  0  0  0  0999 V2000
  194.0800  175.4870  143.9710 C   0  0  0  0  0  0  0  0  0  0  0  0
  193.3310  173.9270  142.2020 C   0  0  0  0  0  0  0  0  0  0  0  0
  191.6400  175.4810  143.0560 C   0  0  1  0  0  3  0  0  0  0  0  0
  188.7480  176.4410  141.9310 C   0  0  0  0  0  2  0  0  0  0  0  0
  194.5590  176.9300  146.3350 Cl  0  0  0  0  0  0  0  0  0  0  0  0
  194.6060  173.3650  142.2160 O   0  0  0  0  0  1  0  0  0  0  0  0
  191.1070  173.9280  141.1910 C   0  0  0  0  0  3  0  0  0  0  0  0
  193.0130  174.9020  143.0720 C   0  0  0  0  0  0  0  0  0  0  0  0
  189.2240  175.0750  142.4020 C   0  0  2  0  0  3  0  0  0  0  0  0
  195.2750  176.3850  142.9890 Cl  0  0  0  0  0  0  0  0  0  0  0  0
  191.3550  176.5330  143.8670 C   0  0  0  0  0  0  0  0  0  0  0  0
  193.5270  176.4130  145.0170 C   0  0  0  0  0  0  0  0  0  0  0  0
  192.3550  173.4600  141.1940 C   0  0  0  0  0  0  0  0  0  0  0  0
  189.6070  177.5350  142.4020 N   0  0  0  0  0  2  0  0  0  0  0  0
  190.0920  177.3560  143.7800 C   0  0  1  0  0  3  0  0  0  0  0  0
  190.6620  174.8880  142.1630 N   0  0  0  0  0  0  0  0  0  0  0  0
  192.3060  176.9350  144.9190 C   0  0  0  0  0  3  0  0  0  0  0  0
  186.8840  177.5640  145.8480 C   0  0  0  0  0  0  0  0  0  0  0  0
  187.0750  176.5070  146.7420 C   0  0  0  0  0  3  0  0  0  0  0  0
  189.0210  177.0680  144.8020 C   0  0  0  0  0  0  0  0  0  0  0  0
  188.2330  175.7300  146.6680 C   0  0  0  0  0  3  0  0  0  0  0  0
  187.8530  177.8430  144.8810 C   0  0  0  0  0  3  0  0  0  0  0  0
  189.2040  176.0100  145.7010 C   0  0  0  0  0  3  0  0  0  0  0  0
  185.4370  178.5430  145.9400 Cl  0  0  0  0  0  0  0  0  0  0  0  0
  188.3140  172.7450  142.3560 C   0  0  0  0  0  3  0  0  0  0  0  0
  189.1340  172.3320  143.5350 C   0  0  0  0  0  1  0  0  0  0  0  0
  188.3510  173.9820  141.8450 C   0  0  0  0  0  3  0  0  0  0  0  0
  192.7380  172.4150  140.1990 C   0  0  0  0  0  2  0  0  0  0  0  0
  191.8480  169.1870  141.6670 N   0  0  0  0  0  0  0  0  0  0  0  0
  190.8620  169.3200  140.7910 N   0  0  0  0  0  0  0  0  0  0  0  0
  192.6740  170.2530  141.5830 C   0  0  0  0  0  2  0  0  0  0  0  0
  190.1330  170.9850  139.0720 C   0  0  0  0  0  1  0  0  0  0  0  0
  191.0460  170.4740  140.1310 C   0  0  0  0  0  0  0  0  0  0  0  0
  192.1860  171.0850  140.5980 C   0  0  0  0  0  0  0  0  0  0  0  0
  1 12  2  0  0  0  0
  2  6  1  0  0  0  0
  2  8  2  0  0  0  0
  3  8  1  6  0  0  0
  3 11  1  0  0  0  0
  4 14  1  0  0  0  0
  4  9  1  0  0  0  0
  7 13  2  0  0  0  0
  7 16  1  0  0  0  0
  8  1  1  0  0  0  0
  9 27  1  6  0  0  0
 10  1  1  0  0  0  0
 11 17  2  0  0  0  0
 12  5  1  0  0  0  0
 13  2  1  0  0  0  0
 14 15  1  0  0  0  0
 15 11  1  0  0  0  0
 15 20  1  1  0  0  0
 16  9  1  0  0  0  0
 16  3  1  0  0  0  0
 17 12  1  0  0  0  0
 18 24  1  0  0  0  0
 18 19  1  0  0  0  0
 20 22  1  0  0  0  0
 20 23  2  0  0  0  0
 21 19  2  0  0  0  0
 22 18  2  0  0  0  0
 23 21  1  0  0  0  0
 25 26  1  0  0  0  0
 27 25  2  0  0  0  0
 28 34  1  0  0  0  0
 28 13  1  0  0  0  0
 30 29  2  0  0  0  0
 31 29  1  0  0  0  0
 32 33  1  0  0  0  0
 33 34  2  0  0  0  0
 33 30  1  0  0  0  0
 34 31  1  0  0  0  0
M  END
>  <MODEL>
5

>  <REMARK>
 VINA RESULT:      -7.4      3.371      7.550
  Name = 
  4 active torsions:
  status: ('A' for Active; 'I' for Inactive)
    1  A    between atoms: C_12  and  C_28
    2  A    between atoms: C_18  and  C_29
    3  A    between atoms: C_20  and  C_25
    4  A    between atoms: C_20  and  C_34
                            x       y       z     vdW  Elec       q    Type
                         _______ _______ _______ _____ _____    ______ ____

>  <TORSDO>
F 4

$$$$
=
 OpenBabel11052418423D

 34 38  0  0  1  0  0  0  0  0999 V2000
  191.6300  176.3020  144.9410 C   0  0  0  0  0  0  0  0  0  0  0  0
  189.9520  177.3140  143.4300 C   0  0  0  0  0  0  0  0  0  0  0  0
  190.2390  174.8870  143.2500 C   0  0  1  0  0  3  0  0  0  0  0  0
  188.4320  172.5380  141.9240 C   0  0  0  0  0  2  0  0  0  0  0  0
  193.8440  175.0540  146.1390 Cl  0  0  0  0  0  0  0  0  0  0  0  0
  190.2980  178.5600  143.9480 O   0  0  0  0  0  1  0  0  0  0  0  0
  188.5110  176.0620  141.9040 C   0  0  0  0  0  3  0  0  0  0  0  0
  190.6090  176.2110  143.8270 C   0  0  0  0  0  0  0  0  0  0  0  0
  189.1560  173.7110  141.2810 C   0  0  2  0  0  3  0  0  0  0  0  0
  190.8120  176.6940  146.4810 Cl  0  0  0  0  0  0  0  0  0  0  0  0
  190.8380  173.7660  143.7280 C   0  0  0  0  0  0  0  0  0  0  0  0
  192.4170  175.0350  145.1240 C   0  0  0  0  0  0  0  0  0  0  0  0
  188.8300  177.2260  142.4700 C   0  0  0  0  0  0  0  0  0  0  0  0
  188.9300  172.2290  143.2700 N   0  0  0  0  0  2  0  0  0  0  0  0
  190.3900  172.3600  143.4050 C   0  0  1  0  0  3  0  0  0  0  0  0
  189.2450  174.8600  142.1940 N   0  0  0  0  0  0  0  0  0  0  0  0
  192.0050  173.8730  144.6210 C   0  0  0  0  0  3  0  0  0  0  0  0
  193.0360  171.4760  140.7910 C   0  0  0  0  0  0  0  0  0  0  0  0
  192.6410  170.1820  140.4410 C   0  0  0  0  0  3  0  0  0  0  0  0
  191.1970  171.6100  142.3740 C   0  0  0  0  0  0  0  0  0  0  0  0
  191.5290  169.6000  141.0540 C   0  0  0  0  0  3  0  0  0  0  0  0
  192.3160  172.1880  141.7550 C   0  0  0  0  0  3  0  0  0  0  0  0
  190.8080  170.3130  142.0170 C   0  0  0  0  0  3  0  0  0  0  0  0
  194.4240  172.2100  140.0220 Cl  0  0  0  0  0  0  0  0  0  0  0  0
  189.0350  173.5020  138.7910 C   0  0  0  0  0  3  0  0  0  0  0  0
  190.1780  172.5400  138.7520 C   0  0  0  0  0  1  0  0  0  0  0  0
  188.5710  174.0300  139.9310 C   0  0  0  0  0  3  0  0  0  0  0  0
  188.0730  178.4520  142.0780 C   0  0  0  0  0  2  0  0  0  0  0  0
  184.4550  177.9290  142.1370 N   0  0  0  0  0  0  0  0  0  0  0  0
  184.7010  177.9780  143.4390 N   0  0  0  0  0  2  0  0  0  0  0  0
  185.6060  178.1050  141.4520 C   0  0  0  0  0  3  0  0  0  0  0  0
  186.6840  178.2900  144.9310 C   0  0  0  0  0  1  0  0  0  0  0  0
  186.0160  178.1900  143.6050 C   0  0  0  0  0  0  0  0  0  0  0  0
  186.6180  178.2850  142.3720 C   0  0  0  0  0  0  0  0  0  0  0  0
  1 12  2  0  0  0  0
  1 10  1  0  0  0  0
  2  8  2  0  0  0  0
  2  6  1  0  0  0  0
  3 11  1  1  0  0  0
  3  8  1  0  0  0  0
  4 14  1  0  0  0  0
  7 16  1  0  0  0  0
  7 13  2  0  0  0  0
  8  1  1  0  0  0  0
  9 27  1  6  0  0  0
  9  4  1  0  0  0  0
  9 16  1  0  0  0  0
 11 17  2  0  0  0  0
 12  5  1  0  0  0  0
 13  2  1  0  0  0  0
 14 15  1  0  0  0  0
 15 20  1  6  0  0  0
 15 11  1  0  0  0  0
 16  3  1  0  0  0  0
 17 12  1  0  0  0  0
 18 22  1  0  0  0  0
 19 18  2  0  0  0  0
 19 21  1  0  0  0  0
 21 23  2  0  0  0  0
 22 20  2  0  0  0  0
 23 20  1  0  0  0  0
 24 18  1  0  0  0  0
 25 27  2  0  0  0  0
 26 25  1  0  0  0  0
 28 34  1  0  0  0  0
 28 13  1  0  0  0  0
 29 30  1  0  0  0  0
 30 33  1  0  0  0  0
 31 29  2  0  0  0  0
 31 34  1  0  0  0  0
 33 32  1  0  0  0  0
 34 33  2  0  0  0  0
M  END
>  <MODEL>
6

>  <REMARK>
 VINA RESULT:      -7.4      2.998      5.054
  Name = 
  4 active torsions:
  status: ('A' for Active; 'I' for Inactive)
    1  A    between atoms: C_12  and  C_28
    2  A    between atoms: C_18  and  C_29
    3  A    between atoms: C_20  and  C_25
    4  A    between atoms: C_20  and  C_34
                            x       y       z     vdW  Elec       q    Type
                         _______ _______ _______ _____ _____    ______ ____

>  <TORSDO>
F 4

$$$$
=
 OpenBabel11052418423D

 34 38  0  0  1  0  0  0  0  0999 V2000
  194.1290  175.4590  144.0140 C   0  0  0  0  0  0  0  0  0  0  0  0
  193.3830  173.9560  142.1950 C   0  0  0  0  0  0  0  0  0  0  0  0
  191.6940  175.4940  143.0830 C   0  0  1  0  0  3  0  0  0  0  0  0
  188.8160  176.5020  141.9670 C   0  0  0  0  0  2  0  0  0  0  0  0
  194.5990  176.8300  146.4220 Cl  0  0  0  0  0  0  0  0  0  0  0  0
  194.6550  173.3860  142.2020 O   0  0  0  0  0  1  0  0  0  0  0  0
  191.1660  173.9980  141.1700 C   0  0  0  0  0  3  0  0  0  0  0  0
  193.0650  174.9070  143.0910 C   0  0  0  0  0  0  0  0  0  0  0  0
  189.2810  175.1200  142.4010 C   0  0  2  0  0  3  0  0  0  0  0  0
  195.3350  176.3780  143.0670 Cl  0  0  0  0  0  0  0  0  0  0  0  0
  191.4100  176.5230  143.9230 C   0  0  0  0  0  0  0  0  0  0  0  0
  193.5740  176.3570  145.0830 C   0  0  0  0  0  0  0  0  0  0  0  0
  192.4110  173.5230  141.1680 C   0  0  0  0  0  0  0  0  0  0  0  0
  189.6770  177.5770  142.4750 N   0  0  0  0  0  2  0  0  0  0  0  0
  190.1520  177.3560  143.8510 C   0  0  1  0  0  3  0  0  0  0  0  0
  190.7200  174.9320  142.1670 N   0  0  0  0  0  0  0  0  0  0  0  0
  192.3560  176.8880  144.9920 C   0  0  0  0  0  3  0  0  0  0  0  0
  186.9260  177.5150  145.8950 C   0  0  0  0  0  0  0  0  0  0  0  0
  187.1100  176.4380  146.7660 C   0  0  0  0  0  3  0  0  0  0  0  0
  189.0720  177.0430  144.8570 C   0  0  0  0  0  0  0  0  0  0  0  0
  188.2700  175.6630  146.6850 C   0  0  0  0  0  3  0  0  0  0  0  0
  187.9030  177.8160  144.9430 C   0  0  0  0  0  3  0  0  0  0  0  0
  189.2490  175.9660  145.7330 C   0  0  0  0  0  3  0  0  0  0  0  0
  185.4780  178.4900  145.9970 Cl  0  0  0  0  0  0  0  0  0  0  0  0
  188.3240  172.8100  142.3090 C   0  0  0  0  0  3  0  0  0  0  0  0
  189.0930  172.3740  143.5140 C   0  0  0  0  0  1  0  0  0  0  0  0
  188.4060  174.0480  141.8070 C   0  0  0  0  0  3  0  0  0  0  0  0
  192.7960  172.5050  140.1450 C   0  0  0  0  0  2  0  0  0  0  0  0
  190.0520  171.7010  137.8670 N   0  0  0  0  0  0  0  0  0  0  0  0
  189.8260  170.8100  138.8220 N   0  0  0  0  0  2  0  0  0  0  0  0
  191.1270  172.4510  138.1940 C   0  0  0  0  0  3  0  0  0  0  0  0
  190.8430  170.1510  141.0100 C   0  0  0  0  0  1  0  0  0  0  0  0
  190.7550  170.9790  139.7760 C   0  0  0  0  0  0  0  0  0  0  0  0
  191.5870  172.0120  139.4180 C   0  0  0  0  0  0  0  0  0  0  0  0
  1 12  2  0  0  0  0
  2  6  1  0  0  0  0
  2  8  2  0  0  0  0
  3  8  1  6  0  0  0
  3 11  1  0  0  0  0
  4  9  1  0  0  0  0
  4 14  1  0  0  0  0
  7 16  1  0  0  0  0
  8  1  1  0  0  0  0
  9 27  1  6  0  0  0
 10  1  1  0  0  0  0
 11 17  2  0  0  0  0
 12  5  1  0  0  0  0
 13  7  2  0  0  0  0
 13  2  1  0  0  0  0
 14 15  1  0  0  0  0
 15 11  1  0  0  0  0
 15 20  1  1  0  0  0
 16  9  1  0  0  0  0
 16  3  1  0  0  0  0
 17 12  1  0  0  0  0
 18 24  1  0  0  0  0
 18 19  1  0  0  0  0
 20 22  1  0  0  0  0
 20 23  2  0  0  0  0
 21 19  2  0  0  0  0
 22 18  2  0  0  0  0
 23 21  1  0  0  0  0
 25 26  1  0  0  0  0
 27 25  2  0  0  0  0
 28 13  1  0  0  0  0
 29 31  2  0  0  0  0
 29 30  1  0  0  0  0
 30 33  1  0  0  0  0
 31 34  1  0  0  0  0
 33 32  1  0  0  0  0
 34 33  2  0  0  0  0
 34 28  1  0  0  0  0
M  END
>  <MODEL>
7

>  <REMARK>
 VINA RESULT:      -7.3      3.372      7.551
  Name = 
  4 active torsions:
  status: ('A' for Active; 'I' for Inactive)
    1  A    between atoms: C_12  and  C_28
    2  A    between atoms: C_18  and  C_29
    3  A    between atoms: C_20  and  C_25
    4  A    between atoms: C_20  and  C_34
                            x       y       z     vdW  Elec       q    Type
                         _______ _______ _______ _____ _____    ______ ____

>  <TORSDO>
F 4

$$$$
=
 OpenBabel11052418423D

 34 38  0  0  1  0  0  0  0  0999 V2000
  192.6790  176.1640  146.9570 C   0  0  0  0  0  0  0  0  0  0  0  0
  193.2230  174.7340  145.0130 C   0  0  0  0  0  0  0  0  0  0  0  0
  191.2830  176.2090  144.7560 C   0  0  1  0  0  3  0  0  0  0  0  0
  189.6050  177.2290  142.1700 C   0  0  0  0  0  2  0  0  0  0  0  0
  191.5680  177.4320  149.2060 Cl  0  0  0  0  0  0  0  0  0  0  0  0
  194.2590  174.1810  145.7620 O   0  0  0  0  0  1  0  0  0  0  0  0
  192.0570  174.7930  142.8660 C   0  0  0  0  0  3  0  0  0  0  0  0
  192.3980  175.6400  145.5660 C   0  0  0  0  0  0  0  0  0  0  0  0
  189.7700  175.8340  142.7560 C   0  0  2  0  0  3  0  0  0  0  0  0
  194.1770  177.1400  146.9460 Cl  0  0  0  0  0  0  0  0  0  0  0  0
  190.5160  177.1950  145.2880 C   0  0  0  0  0  0  0  0  0  0  0  0
  191.5630  177.0060  147.5070 C   0  0  0  0  0  0  0  0  0  0  0  0
  193.0740  174.3350  143.5960 C   0  0  0  0  0  0  0  0  0  0  0  0
  189.9520  178.2910  143.1220 N   0  0  0  0  0  2  0  0  0  0  0  0
  189.5200  178.0140  144.5010 C   0  0  1  0  0  3  0  0  0  0  0  0
  191.0700  175.6760  143.4240 N   0  0  0  0  0  0  0  0  0  0  0  0
  190.6220  177.5250  146.7200 C   0  0  0  0  0  3  0  0  0  0  0  0
  185.7390  177.8240  143.9740 C   0  0  0  0  0  0  0  0  0  0  0  0
  185.3710  176.9460  144.9970 C   0  0  0  0  0  3  0  0  0  0  0  0
  188.0650  177.6440  144.6520 C   0  0  0  0  0  0  0  0  0  0  0  0
  186.3460  176.4160  145.8460 C   0  0  0  0  0  3  0  0  0  0  0  0
  187.0810  178.1710  143.8010 C   0  0  0  0  0  3  0  0  0  0  0  0
  187.6890  176.7650  145.6750 C   0  0  0  0  0  3  0  0  0  0  0  0
  184.5210  178.4940  142.9120 Cl  0  0  0  0  0  0  0  0  0  0  0  0
  188.2440  174.2500  141.5640 C   0  0  0  0  0  3  0  0  0  0  0  0
  187.0670  174.6620  142.3880 C   0  0  0  0  0  1  0  0  0  0  0  0
  189.4630  174.7790  141.7270 C   0  0  0  0  0  3  0  0  0  0  0  0
  194.0300  173.3680  142.9780 C   0  0  0  0  0  2  0  0  0  0  0  0
  195.6220  174.8860  140.0580 N   0  0  0  0  0  0  0  0  0  0  0  0
  196.4390  175.3110  141.0120 N   0  0  0  0  0  2  0  0  0  0  0  0
  194.6520  174.1190  140.6030 C   0  0  0  0  0  3  0  0  0  0  0  0
  196.6520  175.0880  143.4940 C   0  0  0  0  0  1  0  0  0  0  0  0
  196.0030  174.8190  142.1820 C   0  0  0  0  0  0  0  0  0  0  0  0
  194.8820  174.0540  141.9610 C   0  0  0  0  0  0  0  0  0  0  0  0
  1 12  2  0  0  0  0
  2  8  2  0  0  0  0
  2  6  1  0  0  0  0
  3 11  1  6  0  0  0
  3  8  1  0  0  0  0
  4  9  1  0  0  0  0
  4 14  1  0  0  0  0
  7 16  1  0  0  0  0
  7 13  2  0  0  0  0
  8  1  1  0  0  0  0
  9 27  1  6  0  0  0
  9 16  1  0  0  0  0
 10  1  1  0  0  0  0
 11 17  2  0  0  0  0
 12  5  1  0  0  0  0
 13  2  1  0  0  0  0
 14 15  1  0  0  0  0
 15 20  1  6  0  0  0
 15 11  1  0  0  0  0
 16  3  1  0  0  0  0
 17 12  1  0  0  0  0
 18 19  1  0  0  0  0
 19 21  2  0  0  0  0
 20 23  2  0  0  0  0
 22 18  2  0  0  0  0
 22 20  1  0  0  0  0
 23 21  1  0  0  0  0
 24 18  1  0  0  0  0
 25 27  2  0  0  0  0
 25 26  1  0  0  0  0
 28 13  1  0  0  0  0
 29 31  2  0  0  0  0
 29 30  1  0  0  0  0
 30 33  1  0  0  0  0
 31 34  1  0  0  0  0
 33 32  1  0  0  0  0
 34 33  2  0  0  0  0
 34 28  1  0  0  0  0
M  END
>  <MODEL>
8

>  <REMARK>
 VINA RESULT:      -7.2      3.159      8.199
  Name = 
  4 active torsions:
  status: ('A' for Active; 'I' for Inactive)
    1  A    between atoms: C_12  and  C_28
    2  A    between atoms: C_18  and  C_29
    3  A    between atoms: C_20  and  C_25
    4  A    between atoms: C_20  and  C_34
                            x       y       z     vdW  Elec       q    Type
                         _______ _______ _______ _____ _____    ______ ____

>  <TORSDO>
F 4

$$$$
=
 OpenBabel11052418423D

 34 38  0  0  1  0  0  0  0  0999 V2000
  191.9220  176.4130  145.9110 C   0  0  0  0  0  0  0  0  0  0  0  0
  189.7740  177.0730  144.8750 C   0  0  0  0  0  0  0  0  0  0  0  0
  190.5230  174.7820  144.4340 C   0  0  1  0  0  3  0  0  0  0  0  0
  189.0100  172.1340  143.3200 C   0  0  0  0  0  2  0  0  0  0  0  0
  194.5610  175.6550  146.5120 Cl  0  0  0  0  0  0  0  0  0  0  0  0
  189.9540  178.3460  145.4130 O   0  0  0  0  0  1  0  0  0  0  0  0
  188.3310  175.5830  143.5830 C   0  0  0  0  0  3  0  0  0  0  0  0
  190.7230  176.1330  145.0310 C   0  0  0  0  0  0  0  0  0  0  0  0
  189.3060  173.4640  142.6430 C   0  0  2  0  0  3  0  0  0  0  0  0
  191.4030  176.5540  147.6160 Cl  0  0  0  0  0  0  0  0  0  0  0  0
  191.4390  173.8090  144.6810 C   0  0  0  0  0  0  0  0  0  0  0  0
  192.9810  175.3510  145.8190 C   0  0  0  0  0  0  0  0  0  0  0  0
  188.5120  176.7680  144.1660 C   0  0  0  0  0  0  0  0  0  0  0  0
  189.8480  171.8980  144.5020 N   0  0  0  0  0  2  0  0  0  0  0  0
  191.2400  172.3510  144.3400 C   0  0  1  0  0  3  0  0  0  0  0  0
  189.3490  174.5690  143.6110 N   0  0  0  0  0  0  0  0  0  0  0  0
  192.7240  174.1450  145.3170 C   0  0  0  0  0  3  0  0  0  0  0  0
  192.6030  170.0300  141.6260 C   0  0  0  0  0  0  0  0  0  0  0  0
  193.2780  170.9420  140.8100 C   0  0  0  0  0  3  0  0  0  0  0  0
  191.9380  171.8400  143.1040 C   0  0  0  0  0  0  0  0  0  0  0  0
  193.2840  172.3000  141.1370 C   0  0  0  0  0  3  0  0  0  0  0  0
  191.9350  170.4770  142.7680 C   0  0  0  0  0  3  0  0  0  0  0  0
  192.6170  172.7480  142.2810 C   0  0  0  0  0  3  0  0  0  0  0  0
  192.5980  168.3270  141.2230 Cl  0  0  0  0  0  0  0  0  0  0  0  0
  188.5930  173.1620  140.2640 C   0  0  0  0  0  3  0  0  0  0  0  0
  189.7670  172.2910  139.9540 C   0  0  0  0  0  1  0  0  0  0  0  0
  188.3820  173.6900  141.4760 C   0  0  0  0  0  3  0  0  0  0  0  0
  187.4430  177.8040  144.0450 C   0  0  0  0  0  2  0  0  0  0  0  0
  186.9230  177.9150  140.4290 N   0  0  0  0  0  0  0  0  0  0  0  0
  185.6650  177.9830  140.8440 N   0  0  0  0  0  0  0  0  0  0  0  0
  187.7480  177.8580  141.4960 C   0  0  0  0  0  2  0  0  0  0  0  0
  184.4420  178.0190  143.0250 C   0  0  0  0  0  1  0  0  0  0  0  0
  185.6700  177.9720  142.1860 C   0  0  0  0  0  0  0  0  0  0  0  0
  186.9680  177.9040  142.6330 C   0  0  0  0  0  0  0  0  0  0  0  0
  1 10  1  0  0  0  0
  2  8  2  0  0  0  0
  2  6  1  0  0  0  0
  3 11  1  1  0  0  0
  3  8  1  0  0  0  0
  4 14  1  0  0  0  0
  7 16  1  0  0  0  0
  7 13  2  0  0  0  0
  8  1  1  0  0  0  0
  9 27  1  6  0  0  0
  9  4  1  0  0  0  0
  9 16  1  0  0  0  0
 11 17  2  0  0  0  0
 12  1  2  0  0  0  0
 12  5  1  0  0  0  0
 13  2  1  0  0  0  0
 15 20  1  6  0  0  0
 15 14  1  0  0  0  0
 15 11  1  0  0  0  0
 16  3  1  0  0  0  0
 17 12  1  0  0  0  0
 18 22  1  0  0  0  0
 19 21  1  0  0  0  0
 19 18  2  0  0  0  0
 21 23  2  0  0  0  0
 22 20  2  0  0  0  0
 23 20  1  0  0  0  0
 24 18  1  0  0  0  0
 25 27  2  0  0  0  0
 26 25  1  0  0  0  0
 28 13  1  0  0  0  0
 29 30  2  0  0  0  0
 29 31  1  0  0  0  0
 30 33  1  0  0  0  0
 31 34  1  0  0  0  0
 33 34  2  0  0  0  0
 33 32  1  0  0  0  0
 34 28  1  0  0  0  0
M  END
>  <MODEL>
9

>  <REMARK>
 VINA RESULT:      -7.2      3.070      5.234
  Name = 
  4 active torsions:
  status: ('A' for Active; 'I' for Inactive)
    1  A    between atoms: C_12  and  C_28
    2  A    between atoms: C_18  and  C_29
    3  A    between atoms: C_20  and  C_25
    4  A    between atoms: C_20  and  C_34
                            x       y       z     vdW  Elec       q    Type
                         _______ _______ _______ _____ _____    ______ ____

>  <TORSDO>
F 4

$$$$
