=
 OpenBabel11052421343D

 32 35  0  0  1  0  0  0  0  0999 V2000
  191.9810  176.2940  143.5330 C   0  0  0  0  0  2  0  0  0  0  0  0
  188.6550  175.0090  147.5770 C   0  0  0  0  0  1  0  0  0  0  0  0
  191.2100  175.0690  147.8930 C   0  0  0  0  0  3  0  0  0  0  0  0
  189.0110  177.7360  141.8070 N   0  0  0  0  0  0  0  0  0  0  0  0
  188.9090  176.8010  144.0080 C   0  0  0  0  0  0  0  0  0  0  0  0
  186.8000  177.3200  142.9120 C   0  0  0  0  0  0  0  0  0  0  0  0
  189.9840  175.4860  147.2290 N   0  0  0  0  0  0  0  0  0  0  0  0
  189.5280  176.5200  145.1130 C   0  0  0  0  0  0  0  0  0  0  0  0
  190.3200  176.2880  146.1200 C   0  0  0  0  0  0  0  0  0  0  0  0
  192.3740  177.0310  144.8120 C   0  0  1  0  0  3  0  0  0  0  0  0
  187.0180  177.4650  140.4310 C   0  0  0  0  0  1  0  0  0  0  0  0
  187.4500  176.8150  143.9680 C   0  0  0  0  0  3  0  0  0  0  0  0
  187.5590  177.9520  141.7620 C   0  0  2  0  0  3  0  0  0  0  0  0
  192.3600  175.6920  147.0720 C   0  0  0  0  0  3  0  0  0  0  0  0
  191.7190  176.4140  145.9750 N   0  0  0  0  0  0  0  0  0  0  0  0
  189.6660  177.2400  142.8140 C   0  0  0  0  0  0  0  0  0  0  0  0
  191.0980  177.1090  142.6980 N   0  0  0  0  0  2  0  0  0  0  0  0
  185.3990  177.3290  142.8690 O   0  0  0  0  0  0  0  0  0  0  0  0
  184.5980  178.3810  143.3980 C   0  0  0  0  0  2  0  0  0  0  0  0
  185.0410  178.8340  145.8350 C   0  0  0  0  0  0  0  0  0  0  0  0
  184.3310  178.1420  144.8090 N   0  0  0  0  0  2  0  0  0  0  0  0
  185.9350  179.6730  145.5440 O   0  0  0  0  0  0  0  0  0  0  0  0
  184.7170  178.5710  147.2620 C   0  0  0  0  0  1  0  0  0  0  0  0
  193.8910  177.0430  144.9490 C   0  0  0  0  0  2  0  0  0  0  0  0
  195.4200  175.0890  145.0290 C   0  0  1  0  0  3  0  0  0  0  0  0
  195.4780  176.4710  143.1540 C   0  0  1  0  0  3  0  0  0  0  0  0
  196.7990  176.0520  143.6020 N   0  0  0  0  0  2  0  0  0  0  0  0
  196.6420  174.9280  144.3570 O   0  0  0  0  0  0  0  0  0  0  0  0
  195.1960  175.8870  141.7830 C   0  0  0  0  0  1  0  0  0  0  0  0
  194.5120  175.9100  144.1480 C   0  0  2  0  0  3  0  0  0  0  0  0
  193.7860  173.2590  144.6600 C   0  0  0  0  0  2  0  0  0  0  0  0
  194.8120  173.7560  145.3540 C   0  0  0  0  0  3  0  0  0  0  0  0
  1 10  1  0  0  0  0
  4 16  2  0  0  0  0
  5  8  2  0  0  0  0
  6 12  2  0  0  0  0
  7  2  1  0  0  0  0
  7  3  1  0  0  0  0
  8  9  2  0  0  0  0
  9  7  1  0  0  0  0
 10 24  1  1  0  0  0
 10 15  1  0  0  0  0
 12  5  1  0  0  0  0
 13 11  1  6  0  0  0
 13  4  1  0  0  0  0
 13  6  1  0  0  0  0
 14  3  2  0  0  0  0
 15  9  1  0  0  0  0
 15 14  1  0  0  0  0
 16  5  1  0  0  0  0
 17 16  1  0  0  0  0
 17  1  1  0  0  0  0
 18  6  1  0  0  0  0
 18 19  1  0  0  0  0
 19 21  1  0  0  0  0
 20 23  1  0  0  0  0
 21 20  1  0  0  0  0
 22 20  2  0  0  0  0
 25 32  1  6  0  0  0
 26 29  1  6  0  0  0
 26 27  1  0  0  0  0
 26 30  1  0  0  0  0
 27 28  1  0  0  0  0
 28 25  1  0  0  0  0
 30 24  1  1  0  0  0
 30 25  1  0  0  0  0
 31 32  2  0  0  0  0
M  END
>  <MODEL>
1

>  <REMARK>
 VINA RESULT:      -7.3      0.000      0.000
  Name = 
  6 active torsions:
  status: ('A' for Active; 'I' for Inactive)
    1  A    between atoms: O_2  and  C_12
    2  A    between atoms: O_2  and  C_24
    3  A    between atoms: C_7  and  C_29
    4  A    between atoms: N_10  and  C_24
    5  A    between atoms: C_16  and  C_27
    6  A    between atoms: C_27  and  C_32
                            x       y       z     vdW  Elec       q    Type
                         _______ _______ _______ _____ _____    ______ ____

>  <TORSDO>
F 6

$$$$
=
 OpenBabel11052421343D

 32 35  0  0  1  0  0  0  0  0999 V2000
  188.8600  176.5290  143.8040 C   0  0  0  0  0  2  0  0  0  0  0  0
  184.2870  177.9110  146.3040 C   0  0  0  0  0  1  0  0  0  0  0  0
  186.5050  177.6490  147.5860 C   0  0  0  0  0  3  0  0  0  0  0  0
  187.1870  177.5040  140.6210 N   0  0  0  0  0  0  0  0  0  0  0  0
  186.1470  177.7450  142.7640 C   0  0  0  0  0  0  0  0  0  0  0  0
  184.7490  178.0610  140.7980 C   0  0  0  0  0  0  0  0  0  0  0  0
  185.7390  177.9210  146.3780 N   0  0  0  0  0  0  0  0  0  0  0  0
  186.2890  177.9070  144.0430 C   0  0  0  0  0  0  0  0  0  0  0  0
  186.6320  178.0340  145.2930 C   0  0  0  0  0  0  0  0  0  0  0  0
  189.0980  177.6940  144.7630 C   0  0  1  0  0  3  0  0  0  0  0  0
  185.7030  176.9850  138.7590 C   0  0  0  0  0  1  0  0  0  0  0  0
  184.8560  178.0020  142.1320 C   0  0  0  0  0  3  0  0  0  0  0  0
  185.9730  177.9320  139.9130 C   0  0  2  0  0  3  0  0  0  0  0  0
  187.9820  177.5970  147.1390 C   0  0  0  0  0  3  0  0  0  0  0  0
  187.9690  177.8230  145.6950 N   0  0  0  0  0  0  0  0  0  0  0  0
  187.3160  177.4280  141.9130 C   0  0  0  0  0  0  0  0  0  0  0  0
  188.5860  177.0020  142.4460 N   0  0  0  0  0  2  0  0  0  0  0  0
  183.5100  178.3010  140.1880 O   0  0  0  0  0  0  0  0  0  0  0  0
  182.2620  177.9070  140.7510 C   0  0  0  0  0  2  0  0  0  0  0  0
  179.9390  178.8330  141.0470 C   0  0  0  0  0  0  0  0  0  0  0  0
  181.2800  178.9680  140.5800 N   0  0  0  0  0  2  0  0  0  0  0  0
  179.5620  177.7750  141.6190 O   0  0  0  0  0  0  0  0  0  0  0  0
  178.9790  179.9530  140.8670 C   0  0  0  0  0  1  0  0  0  0  0  0
  190.4220  177.4950  145.4900 C   0  0  0  0  0  2  0  0  0  0  0  0
  190.9320  175.2680  146.4620 C   0  0  1  0  0  3  0  0  0  0  0  0
  192.4570  176.2070  144.9720 C   0  0  1  0  0  3  0  0  0  0  0  0
  193.0900  175.5600  146.1120 N   0  0  0  0  0  2  0  0  0  0  0  0
  192.1930  174.6780  146.6370 O   0  0  0  0  0  0  0  0  0  0  0  0
  192.8160  175.4640  143.6990 C   0  0  0  0  0  1  0  0  0  0  0  0
  190.9840  176.1100  145.2120 C   0  0  2  0  0  3  0  0  0  0  0  0
  189.8060  173.3480  145.3670 C   0  0  0  0  0  2  0  0  0  0  0  0
  189.8620  174.2210  146.3750 C   0  0  0  0  0  3  0  0  0  0  0  0
  1 10  1  0  0  0  0
  2  7  1  0  0  0  0
  4 16  2  0  0  0  0
  5  8  2  0  0  0  0
  6 12  2  0  0  0  0
  7  3  1  0  0  0  0
  8  9  2  0  0  0  0
  9 15  1  0  0  0  0
  9  7  1  0  0  0  0
 10 24  1  1  0  0  0
 10 15  1  0  0  0  0
 12  5  1  0  0  0  0
 13 11  1  6  0  0  0
 13  4  1  0  0  0  0
 13  6  1  0  0  0  0
 14  3  2  0  0  0  0
 15 14  1  0  0  0  0
 16 17  1  0  0  0  0
 16  5  1  0  0  0  0
 17  1  1  0  0  0  0
 18 19  1  0  0  0  0
 18  6  1  0  0  0  0
 20 22  2  0  0  0  0
 21 19  1  0  0  0  0
 21 20  1  0  0  0  0
 23 20  1  0  0  0  0
 25 32  1  6  0  0  0
 25 28  1  0  0  0  0
 26 29  1  6  0  0  0
 26 30  1  0  0  0  0
 26 27  1  0  0  0  0
 27 28  1  0  0  0  0
 30 24  1  1  0  0  0
 30 25  1  0  0  0  0
 31 32  2  0  0  0  0
M  END
>  <MODEL>
2

>  <REMARK>
 VINA RESULT:      -7.3      2.850      4.427
  Name = 
  6 active torsions:
  status: ('A' for Active; 'I' for Inactive)
    1  A    between atoms: O_2  and  C_12
    2  A    between atoms: O_2  and  C_24
    3  A    between atoms: C_7  and  C_29
    4  A    between atoms: N_10  and  C_24
    5  A    between atoms: C_16  and  C_27
    6  A    between atoms: C_27  and  C_32
                            x       y       z     vdW  Elec       q    Type
                         _______ _______ _______ _____ _____    ______ ____

>  <TORSDO>
F 6

$$$$
=
 OpenBabel11052421343D

 32 35  0  0  1  0  0  0  0  0999 V2000
  188.7520  175.5050  144.8290 C   0  0  0  0  0  2  0  0  0  0  0  0
  191.0500  173.2240  140.5190 C   0  0  0  0  0  1  0  0  0  0  0  0
  188.5020  173.5640  140.6730 C   0  0  0  0  0  3  0  0  0  0  0  0
  192.1350  176.7930  145.7100 N   0  0  0  0  0  0  0  0  0  0  0  0
  191.6990  175.5400  143.7170 C   0  0  0  0  0  0  0  0  0  0  0  0
  194.0260  175.9400  144.3020 C   0  0  0  0  0  0  0  0  0  0  0  0
  189.8720  173.9130  141.0200 N   0  0  0  0  0  0  0  0  0  0  0  0
  190.8450  175.1810  142.8090 C   0  0  0  0  0  0  0  0  0  0  0  0
  189.8460  174.9060  142.0200 C   0  0  0  0  0  0  0  0  0  0  0  0
  188.1810  176.0900  143.5390 C   0  0  1  0  0  3  0  0  0  0  0  0
  194.3300  176.4750  146.7210 C   0  0  0  0  0  1  0  0  0  0  0  0
  193.1300  175.3720  143.4850 C   0  0  0  0  0  3  0  0  0  0  0  0
  193.5800  176.8260  145.4480 C   0  0  2  0  0  3  0  0  0  0  0  0
  187.6080  174.4430  141.5740 C   0  0  0  0  0  3  0  0  0  0  0  0
  188.5240  175.2310  142.3960 N   0  0  0  0  0  0  0  0  0  0  0  0
  191.2450  176.2430  144.9390 C   0  0  0  0  0  0  0  0  0  0  0  0
  189.8600  176.3150  145.3380 N   0  0  0  0  0  2  0  0  0  0  0  0
  195.4010  175.7750  144.0850 O   0  0  0  0  0  0  0  0  0  0  0  0
  196.2440  176.7910  143.5490 C   0  0  0  0  0  2  0  0  0  0  0  0
  196.4570  176.1910  141.1130 C   0  0  0  0  0  0  0  0  0  0  0  0
  197.0070  176.2650  142.4270 N   0  0  0  0  0  2  0  0  0  0  0  0
  195.2780  176.5760  140.8870 O   0  0  0  0  0  0  0  0  0  0  0  0
  197.2840  175.6660  139.9960 C   0  0  0  0  0  1  0  0  0  0  0  0
  186.6760  176.2760  143.6830 C   0  0  0  0  0  2  0  0  0  0  0  0
  185.5480  177.0560  145.7530 C   0  0  1  0  0  3  0  0  0  0  0  0
  185.4150  178.3860  143.8450 C   0  0  1  0  0  3  0  0  0  0  0  0
  184.1610  178.3060  144.5790 N   0  0  0  0  0  2  0  0  0  0  0  0
  184.4520  177.9270  145.8560 O   0  0  0  0  0  0  0  0  0  0  0  0
  185.9390  179.8100  143.8850 C   0  0  0  0  0  1  0  0  0  0  0  0
  186.3660  177.4800  144.5590 C   0  0  2  0  0  3  0  0  0  0  0  0
  186.6450  178.2100  147.6550 C   0  0  0  0  0  2  0  0  0  0  0  0
  186.3630  177.0750  147.0120 C   0  0  0  0  0  3  0  0  0  0  0  0
  1 17  1  0  0  0  0
  2  7  1  0  0  0  0
  3  7  1  0  0  0  0
  3 14  2  0  0  0  0
  5 16  1  0  0  0  0
  6 13  1  0  0  0  0
  7  9  1  0  0  0  0
  8  5  2  0  0  0  0
  9 15  1  0  0  0  0
  9  8  2  0  0  0  0
 10 24  1  1  0  0  0
 10  1  1  0  0  0  0
 12  5  1  0  0  0  0
 12  6  2  0  0  0  0
 13  4  1  0  0  0  0
 13 11  1  1  0  0  0
 14 15  1  0  0  0  0
 15 10  1  0  0  0  0
 16 17  1  0  0  0  0
 16  4  2  0  0  0  0
 18  6  1  0  0  0  0
 19 18  1  0  0  0  0
 20 21  1  0  0  0  0
 21 19  1  0  0  0  0
 22 20  2  0  0  0  0
 23 20  1  0  0  0  0
 25 28  1  0  0  0  0
 25 32  1  1  0  0  0
 26 29  1  1  0  0  0
 26 30  1  0  0  0  0
 26 27  1  0  0  0  0
 27 28  1  0  0  0  0
 30 24  1  6  0  0  0
 30 25  1  0  0  0  0
 32 31  2  0  0  0  0
M  END
>  <MODEL>
3

>  <REMARK>
 VINA RESULT:      -7.1      2.174      8.714
  Name = 
  6 active torsions:
  status: ('A' for Active; 'I' for Inactive)
    1  A    between atoms: O_2  and  C_12
    2  A    between atoms: O_2  and  C_24
    3  A    between atoms: C_7  and  C_29
    4  A    between atoms: N_10  and  C_24
    5  A    between atoms: C_16  and  C_27
    6  A    between atoms: C_27  and  C_32
                            x       y       z     vdW  Elec       q    Type
                         _______ _______ _______ _____ _____    ______ ____

>  <TORSDO>
F 6

$$$$
=
 OpenBabel11052421343D

 32 35  0  0  1  0  0  0  0  0999 V2000
  190.9260  176.2550  144.5190 C   0  0  0  0  0  2  0  0  0  0  0  0
  188.4390  174.4360  140.0950 C   0  0  0  0  0  1  0  0  0  0  0  0
  190.7570  173.5630  140.8010 C   0  0  0  0  0  3  0  0  0  0  0  0
  187.6110  177.5550  145.6130 N   0  0  0  0  0  0  0  0  0  0  0  0
  187.9150  176.3000  143.5970 C   0  0  0  0  0  0  0  0  0  0  0  0
  185.7650  177.3910  143.9240 C   0  0  0  0  0  0  0  0  0  0  0  0
  189.4600  174.1560  141.0920 N   0  0  0  0  0  0  0  0  0  0  0  0
  188.6050  175.4150  142.9460 C   0  0  0  0  0  0  0  0  0  0  0  0
  189.4340  174.5440  142.4470 C   0  0  0  0  0  0  0  0  0  0  0  0
  191.0020  174.7310  144.4440 C   0  0  1  0  0  3  0  0  0  0  0  0
  185.8820  179.2720  145.5590 C   0  0  0  0  0  1  0  0  0  0  0  0
  186.5730  176.6590  143.1470 C   0  0  0  0  0  3  0  0  0  0  0  0
  186.1940  177.8070  145.3170 C   0  0  2  0  0  3  0  0  0  0  0  0
  191.5500  173.6270  142.1250 C   0  0  0  0  0  3  0  0  0  0  0  0
  190.6620  174.2720  143.0890 N   0  0  0  0  0  0  0  0  0  0  0  0
  188.4200  176.8570  144.8730 C   0  0  0  0  0  0  0  0  0  0  0  0
  189.7820  176.6940  145.3190 N   0  0  0  0  0  2  0  0  0  0  0  0
  184.4790  177.7430  143.4920 O   0  0  0  0  0  0  0  0  0  0  0  0
  184.1560  178.0470  142.1390 C   0  0  0  0  0  2  0  0  0  0  0  0
  182.0040  178.1020  140.8320 C   0  0  0  0  0  0  0  0  0  0  0  0
  182.7410  178.3700  142.0240 N   0  0  0  0  0  2  0  0  0  0  0  0
  182.5660  177.5810  139.8320 O   0  0  0  0  0  0  0  0  0  0  0  0
  180.5560  178.4310  140.7710 C   0  0  0  0  0  1  0  0  0  0  0  0
  192.3870  174.2660  144.8760 C   0  0  0  0  0  2  0  0  0  0  0  0
  194.4650  175.1720  143.8640 C   0  0  1  0  0  3  0  0  0  0  0  0
  194.1330  175.4430  146.1540 C   0  0  1  0  0  3  0  0  0  0  0  0
  195.5020  175.0880  145.8090 N   0  0  0  0  0  2  0  0  0  0  0  0
  195.6940  175.4090  144.4980 O   0  0  0  0  0  0  0  0  0  0  0  0
  194.1030  176.8390  146.7470 C   0  0  0  0  0  1  0  0  0  0  0  0
  193.3690  175.4260  144.8680 C   0  0  2  0  0  3  0  0  0  0  0  0
  195.3200  176.2530  141.8010 C   0  0  0  0  0  2  0  0  0  0  0  0
  194.3140  176.0440  142.6530 C   0  0  0  0  0  3  0  0  0  0  0  0
  1 17  1  0  0  0  0
  2  7  1  0  0  0  0
  3  7  1  0  0  0  0
  3 14  2  0  0  0  0
  5 16  1  0  0  0  0
  6 13  1  0  0  0  0
  7  9  1  0  0  0  0
  8  5  2  0  0  0  0
  9  8  2  0  0  0  0
  9 15  1  0  0  0  0
 10  1  1  0  0  0  0
 10 24  1  6  0  0  0
 12  5  1  0  0  0  0
 12  6  2  0  0  0  0
 13 11  1  6  0  0  0
 13  4  1  0  0  0  0
 14 15  1  0  0  0  0
 15 10  1  0  0  0  0
 16 17  1  0  0  0  0
 16  4  2  0  0  0  0
 18  6  1  0  0  0  0
 19 18  1  0  0  0  0
 20 21  1  0  0  0  0
 21 19  1  0  0  0  0
 22 20  2  0  0  0  0
 23 20  1  0  0  0  0
 25 32  1  6  0  0  0
 25 28  1  0  0  0  0
 25 30  1  0  0  0  0
 26 29  1  6  0  0  0
 27 26  1  0  0  0  0
 28 27  1  0  0  0  0
 30 24  1  1  0  0  0
 30 26  1  0  0  0  0
 31 32  2  0  0  0  0
M  END
>  <MODEL>
4

>  <REMARK>
 VINA RESULT:      -7.0      2.435      4.174
  Name = 
  6 active torsions:
  status: ('A' for Active; 'I' for Inactive)
    1  A    between atoms: O_2  and  C_12
    2  A    between atoms: O_2  and  C_24
    3  A    between atoms: C_7  and  C_29
    4  A    between atoms: N_10  and  C_24
    5  A    between atoms: C_16  and  C_27
    6  A    between atoms: C_27  and  C_32
                            x       y       z     vdW  Elec       q    Type
                         _______ _______ _______ _____ _____    ______ ____

>  <TORSDO>
F 6

$$$$
=
 OpenBabel11052421343D

 32 35  0  0  1  0  0  0  0  0999 V2000
  191.0510  176.3170  145.2820 C   0  0  0  0  0  2  0  0  0  0  0  0
  187.8160  175.2090  141.1130 C   0  0  0  0  0  1  0  0  0  0  0  0
  190.2030  174.2540  141.2660 C   0  0  0  0  0  3  0  0  0  0  0  0
  187.9940  177.3950  147.1180 N   0  0  0  0  0  0  0  0  0  0  0  0
  187.9290  176.4820  144.9050 C   0  0  0  0  0  0  0  0  0  0  0  0
  185.8860  177.4870  145.7640 C   0  0  0  0  0  0  0  0  0  0  0  0
  188.9860  174.7810  141.8640 N   0  0  0  0  0  0  0  0  0  0  0  0
  188.4820  175.7190  144.0140 C   0  0  0  0  0  0  0  0  0  0  0  0
  189.1980  174.9470  143.2480 C   0  0  0  0  0  0  0  0  0  0  0  0
  191.0850  174.8260  144.9520 C   0  0  1  0  0  3  0  0  0  0  0  0
  186.3140  179.0830  147.6340 C   0  0  0  0  0  1  0  0  0  0  0  0
  186.5370  176.8970  144.7540 C   0  0  0  0  0  3  0  0  0  0  0  0
  186.5530  177.6780  147.1120 C   0  0  2  0  0  3  0  0  0  0  0  0
  191.2110  174.1130  142.4270 C   0  0  0  0  0  3  0  0  0  0  0  0
  190.5120  174.5870  143.6200 N   0  0  0  0  0  0  0  0  0  0  0  0
  188.6530  176.8310  146.1490 C   0  0  0  0  0  0  0  0  0  0  0  0
  190.0680  176.6110  146.3240 N   0  0  0  0  0  2  0  0  0  0  0  0
  184.5520  177.8920  145.6190 O   0  0  0  0  0  0  0  0  0  0  0  0
  184.1510  179.0410  144.8790 C   0  0  0  0  0  2  0  0  0  0  0  0
  184.5280  178.6660  142.4170 C   0  0  0  0  0  0  0  0  0  0  0  0
  183.6750  178.6440  143.5610 N   0  0  0  0  0  2  0  0  0  0  0  0
  185.7270  179.0410  142.5170 O   0  0  0  0  0  0  0  0  0  0  0  0
  184.0010  178.2320  141.0970 C   0  0  0  0  0  1  0  0  0  0  0  0
  192.5140  174.3100  145.0620 C   0  0  0  0  0  2  0  0  0  0  0  0
  194.5310  175.1580  143.8890 C   0  0  1  0  0  3  0  0  0  0  0  0
  194.3560  175.4970  146.1870 C   0  0  1  0  0  3  0  0  0  0  0  0
  195.6940  175.1130  145.7630 N   0  0  0  0  0  2  0  0  0  0  0  0
  195.8030  175.3950  144.4330 O   0  0  0  0  0  0  0  0  0  0  0  0
  194.3830  176.9090  146.7410 C   0  0  0  0  0  1  0  0  0  0  0  0
  193.5080  175.4550  144.9560 C   0  0  2  0  0  3  0  0  0  0  0  0
  194.5400  175.5330  141.4370 C   0  0  0  0  0  2  0  0  0  0  0  0
  194.3100  175.9980  142.6660 C   0  0  0  0  0  3  0  0  0  0  0  0
  1 17  1  0  0  0  0
  2  7  1  0  0  0  0
  3  7  1  0  0  0  0
  3 14  2  0  0  0  0
  5 16  1  0  0  0  0
  6 13  1  0  0  0  0
  7  9  1  0  0  0  0
  8  5  2  0  0  0  0
  9 15  1  0  0  0  0
  9  8  2  0  0  0  0
 10 24  1  6  0  0  0
 10  1  1  0  0  0  0
 12  5  1  0  0  0  0
 12  6  2  0  0  0  0
 13  4  1  0  0  0  0
 13 11  1  6  0  0  0
 14 15  1  0  0  0  0
 15 10  1  0  0  0  0
 16 17  1  0  0  0  0
 16  4  2  0  0  0  0
 18  6  1  0  0  0  0
 19 18  1  0  0  0  0
 20 22  2  0  0  0  0
 20 21  1  0  0  0  0
 21 19  1  0  0  0  0
 23 20  1  0  0  0  0
 25 32  1  6  0  0  0
 25 28  1  0  0  0  0
 25 30  1  0  0  0  0
 26 29  1  6  0  0  0
 27 26  1  0  0  0  0
 28 27  1  0  0  0  0
 30 24  1  1  0  0  0
 30 26  1  0  0  0  0
 31 32  2  0  0  0  0
M  END
>  <MODEL>
5

>  <REMARK>
 VINA RESULT:      -7.0      1.903      3.926
  Name = 
  6 active torsions:
  status: ('A' for Active; 'I' for Inactive)
    1  A    between atoms: O_2  and  C_12
    2  A    between atoms: O_2  and  C_24
    3  A    between atoms: C_7  and  C_29
    4  A    between atoms: N_10  and  C_24
    5  A    between atoms: C_16  and  C_27
    6  A    between atoms: C_27  and  C_32
                            x       y       z     vdW  Elec       q    Type
                         _______ _______ _______ _____ _____    ______ ____

>  <TORSDO>
F 6

$$$$
=
 OpenBabel11052421343D

 32 35  0  0  1  0  0  0  0  0999 V2000
  188.8050  175.0040  143.5560 C   0  0  0  0  0  2  0  0  0  0  0  0
  184.8010  177.3670  146.2860 C   0  0  0  0  0  1  0  0  0  0  0  0
  186.8610  176.3860  147.4820 C   0  0  0  0  0  3  0  0  0  0  0  0
  187.4650  176.6880  140.5150 N   0  0  0  0  0  0  0  0  0  0  0  0
  186.5360  177.0130  142.6970 C   0  0  0  0  0  0  0  0  0  0  0  0
  185.2790  177.8810  140.8040 C   0  0  0  0  0  0  0  0  0  0  0  0
  186.1990  176.9670  146.3230 N   0  0  0  0  0  0  0  0  0  0  0  0
  186.7200  177.0130  143.9820 C   0  0  0  0  0  0  0  0  0  0  0  0
  187.0860  176.9270  145.2280 C   0  0  0  0  0  0  0  0  0  0  0  0
  189.3590  175.9660  144.6050 C   0  0  1  0  0  3  0  0  0  0  0  0
  185.8930  176.7720  138.6540 C   0  0  0  0  0  1  0  0  0  0  0  0
  185.3680  177.6730  142.1240 C   0  0  0  0  0  3  0  0  0  0  0  0
  186.4170  177.4980  139.8790 C   0  0  2  0  0  3  0  0  0  0  0  0
  188.2640  175.9670  146.9930 C   0  0  0  0  0  3  0  0  0  0  0  0
  188.3120  176.3180  145.5750 N   0  0  0  0  0  0  0  0  0  0  0  0
  187.5700  176.4630  141.7910 C   0  0  0  0  0  0  0  0  0  0  0  0
  188.6720  175.6550  142.2520 N   0  0  0  0  0  2  0  0  0  0  0  0
  184.1550  178.5090  140.2500 O   0  0  0  0  0  0  0  0  0  0  0  0
  182.8650  177.9070  140.1850 C   0  0  0  0  0  2  0  0  0  0  0  0
  180.5760  178.4290  141.0960 C   0  0  0  0  0  0  0  0  0  0  0  0
  181.9980  178.4740  141.2080 N   0  0  0  0  0  2  0  0  0  0  0  0
  180.0270  177.8990  140.0930 O   0  0  0  0  0  0  0  0  0  0  0  0
  179.7340  179.0030  142.1770 C   0  0  0  0  0  1  0  0  0  0  0  0
  190.5760  175.3430  145.2780 C   0  0  0  0  0  2  0  0  0  0  0  0
  192.1570  176.3640  143.6590 C   0  0  1  0  0  3  0  0  0  0  0  0
  192.9990  175.5450  145.6700 C   0  0  1  0  0  3  0  0  0  0  0  0
  193.8430  175.2360  144.5250 N   0  0  0  0  0  2  0  0  0  0  0  0
  193.5330  176.1190  143.5330 O   0  0  0  0  0  0  0  0  0  0  0  0
  193.7380  176.4800  146.6100 C   0  0  0  0  0  1  0  0  0  0  0  0
  191.7950  176.2370  145.1170 C   0  0  2  0  0  3  0  0  0  0  0  0
  191.2260  178.6530  143.8790 C   0  0  0  0  0  2  0  0  0  0  0  0
  191.8070  177.7200  143.1210 C   0  0  0  0  0  3  0  0  0  0  0  0
  1 10  1  0  0  0  0
  2  7  1  0  0  0  0
  4 16  2  0  0  0  0
  5  8  2  0  0  0  0
  6 12  2  0  0  0  0
  7  3  1  0  0  0  0
  8  9  2  0  0  0  0
  9 15  1  0  0  0  0
  9  7  1  0  0  0  0
 10 24  1  1  0  0  0
 10 15  1  0  0  0  0
 12  5  1  0  0  0  0
 13 11  1  6  0  0  0
 13  4  1  0  0  0  0
 13  6  1  0  0  0  0
 14  3  2  0  0  0  0
 15 14  1  0  0  0  0
 16 17  1  0  0  0  0
 16  5  1  0  0  0  0
 17  1  1  0  0  0  0
 18  6  1  0  0  0  0
 19 18  1  0  0  0  0
 19 21  1  0  0  0  0
 20 21  1  0  0  0  0
 20 23  1  0  0  0  0
 22 20  2  0  0  0  0
 25 32  1  1  0  0  0
 25 30  1  0  0  0  0
 26 29  1  1  0  0  0
 27 26  1  0  0  0  0
 28 25  1  0  0  0  0
 28 27  1  0  0  0  0
 30 24  1  6  0  0  0
 30 26  1  0  0  0  0
 32 31  2  0  0  0  0
M  END
>  <MODEL>
6

>  <REMARK>
 VINA RESULT:      -6.9      2.580      4.150
  Name = 
  6 active torsions:
  status: ('A' for Active; 'I' for Inactive)
    1  A    between atoms: O_2  and  C_12
    2  A    between atoms: O_2  and  C_24
    3  A    between atoms: C_7  and  C_29
    4  A    between atoms: N_10  and  C_24
    5  A    between atoms: C_16  and  C_27
    6  A    between atoms: C_27  and  C_32
                            x       y       z     vdW  Elec       q    Type
                         _______ _______ _______ _____ _____    ______ ____

>  <TORSDO>
F 6

$$$$
=
 OpenBabel11052421343D

 32 35  0  0  1  0  0  0  0  0999 V2000
  190.7580  177.0180  142.9060 C   0  0  0  0  0  2  0  0  0  0  0  0
  188.0010  174.1050  139.3020 C   0  0  0  0  0  1  0  0  0  0  0  0
  190.4610  173.5890  139.8630 C   0  0  0  0  0  3  0  0  0  0  0  0
  187.4660  178.2540  144.1360 N   0  0  0  0  0  0  0  0  0  0  0  0
  187.6750  176.6260  142.3930 C   0  0  0  0  0  0  0  0  0  0  0  0
  185.4730  177.5880  142.7700 C   0  0  0  0  0  0  0  0  0  0  0  0
  189.1500  174.1260  140.1940 N   0  0  0  0  0  0  0  0  0  0  0  0
  188.3780  175.6800  141.8500 C   0  0  0  0  0  0  0  0  0  0  0  0
  189.2330  174.7910  141.4340 C   0  0  0  0  0  0  0  0  0  0  0  0
  190.9840  175.5240  143.1310 C   0  0  1  0  0  3  0  0  0  0  0  0
  185.5720  179.7780  143.9610 C   0  0  0  0  0  1  0  0  0  0  0  0
  186.2620  176.7740  142.0580 C   0  0  0  0  0  3  0  0  0  0  0  0
  186.0070  178.3240  143.9820 C   0  0  2  0  0  3  0  0  0  0  0  0
  191.3850  173.9970  141.0310 C   0  0  0  0  0  3  0  0  0  0  0  0
  190.5460  174.7610  141.9530 N   0  0  0  0  0  0  0  0  0  0  0  0
  188.2570  177.4800  143.4530 C   0  0  0  0  0  0  0  0  0  0  0  0
  189.6700  177.5250  143.7420 N   0  0  0  0  0  2  0  0  0  0  0  0
  184.1170  177.7360  142.4460 O   0  0  0  0  0  0  0  0  0  0  0  0
  183.6530  178.2550  141.2030 C   0  0  0  0  0  2  0  0  0  0  0  0
  181.1790  178.4170  141.6450 C   0  0  0  0  0  0  0  0  0  0  0  0
  182.2830  177.8240  140.9630 N   0  0  0  0  0  2  0  0  0  0  0  0
  181.3630  179.3330  142.4900 O   0  0  0  0  0  0  0  0  0  0  0  0
  179.7970  177.9570  141.3490 C   0  0  0  0  0  1  0  0  0  0  0  0
  192.4490  175.2720  143.4640 C   0  0  0  0  0  2  0  0  0  0  0  0
  192.7190  175.9450  145.8380 C   0  0  1  0  0  3  0  0  0  0  0  0
  193.9270  174.1130  145.0570 C   0  0  1  0  0  3  0  0  0  0  0  0
  194.7010  174.9810  145.9330 N   0  0  0  0  0  2  0  0  0  0  0  0
  193.8200  175.7080  146.6770 O   0  0  0  0  0  0  0  0  0  0  0  0
  193.7440  172.7580  145.7150 C   0  0  0  0  0  1  0  0  0  0  0  0
  192.5970  174.7760  144.8930 C   0  0  2  0  0  3  0  0  0  0  0  0
  191.2230  175.4230  147.7470 C   0  0  0  0  0  2  0  0  0  0  0  0
  191.4670  176.1330  146.6440 C   0  0  0  0  0  3  0  0  0  0  0  0
  1 10  1  0  0  0  0
  1 17  1  0  0  0  0
  2  7  1  0  0  0  0
  3  7  1  0  0  0  0
  3 14  2  0  0  0  0
  5 16  1  0  0  0  0
  6 13  1  0  0  0  0
  7  9  1  0  0  0  0
  8  5  2  0  0  0  0
  9  8  2  0  0  0  0
  9 15  1  0  0  0  0
 10 24  1  6  0  0  0
 12  5  1  0  0  0  0
 12  6  2  0  0  0  0
 13 11  1  6  0  0  0
 13  4  1  0  0  0  0
 14 15  1  0  0  0  0
 15 10  1  0  0  0  0
 16 17  1  0  0  0  0
 16  4  2  0  0  0  0
 18  6  1  0  0  0  0
 19 18  1  0  0  0  0
 20 22  2  0  0  0  0
 21 19  1  0  0  0  0
 21 20  1  0  0  0  0
 23 20  1  0  0  0  0
 25 32  1  1  0  0  0
 25 28  1  0  0  0  0
 26 29  1  1  0  0  0
 26 27  1  0  0  0  0
 27 28  1  0  0  0  0
 30 24  1  6  0  0  0
 30 26  1  0  0  0  0
 30 25  1  0  0  0  0
 32 31  2  0  0  0  0
M  END
>  <MODEL>
7

>  <REMARK>
 VINA RESULT:      -6.8      2.702      4.414
  Name = 
  6 active torsions:
  status: ('A' for Active; 'I' for Inactive)
    1  A    between atoms: O_2  and  C_12
    2  A    between atoms: O_2  and  C_24
    3  A    between atoms: C_7  and  C_29
    4  A    between atoms: N_10  and  C_24
    5  A    between atoms: C_16  and  C_27
    6  A    between atoms: C_27  and  C_32
                            x       y       z     vdW  Elec       q    Type
                         _______ _______ _______ _____ _____    ______ ____

>  <TORSDO>
F 6

$$$$
=
 OpenBabel11052421343D

 32 35  0  0  1  0  0  0  0  0999 V2000
  188.8590  177.2340  142.6180 C   0  0  0  0  0  2  0  0  0  0  0  0
  193.3470  174.5130  143.8520 C   0  0  0  0  0  1  0  0  0  0  0  0
  192.3580  176.2850  145.4390 C   0  0  0  0  0  3  0  0  0  0  0  0
  188.1890  174.5930  140.0770 N   0  0  0  0  0  0  0  0  0  0  0  0
  190.0640  174.5220  141.5630 C   0  0  0  0  0  0  0  0  0  0  0  0
  190.0280  172.9250  139.7280 C   0  0  0  0  0  0  0  0  0  0  0  0
  192.2380  175.2920  144.3810 N   0  0  0  0  0  0  0  0  0  0  0  0
  190.5760  174.8660  142.7050 C   0  0  0  0  0  0  0  0  0  0  0  0
  190.9260  175.3340  143.8680 C   0  0  0  0  0  0  0  0  0  0  0  0
  188.8090  176.7350  144.0610 C   0  0  1  0  0  3  0  0  0  0  0  0
  188.5390  173.6450  137.8590 C   0  0  0  0  0  1  0  0  0  0  0  0
  190.6660  173.4430  140.7850 C   0  0  0  0  0  3  0  0  0  0  0  0
  188.6370  173.3960  139.3530 C   0  0  2  0  0  3  0  0  0  0  0  0
  190.9740  176.9640  145.5300 C   0  0  0  0  0  3  0  0  0  0  0  0
  190.1510  176.3280  144.5040 N   0  0  0  0  0  0  0  0  0  0  0  0
  188.7930  175.1220  141.0990 C   0  0  0  0  0  0  0  0  0  0  0  0
  188.2080  176.2940  141.7050 N   0  0  0  0  0  2  0  0  0  0  0  0
  190.6060  171.8940  138.9750 O   0  0  0  0  0  0  0  0  0  0  0  0
  190.4540  170.5120  139.2790 C   0  0  0  0  0  2  0  0  0  0  0  0
  191.5090  169.8660  141.4720 C   0  0  0  0  0  0  0  0  0  0  0  0
  191.5900  170.0440  140.0590 N   0  0  0  0  0  2  0  0  0  0  0  0
  190.4420  170.1220  142.0920 O   0  0  0  0  0  0  0  0  0  0  0  0
  192.6910  169.3660  142.2210 C   0  0  0  0  0  1  0  0  0  0  0  0
  188.2130  177.8140  144.9550 C   0  0  0  0  0  2  0  0  0  0  0  0
  186.1400  179.0390  144.3500 C   0  0  1  0  0  3  0  0  0  0  0  0
  186.1640  177.7980  146.3210 C   0  0  1  0  0  3  0  0  0  0  0  0
  185.4980  179.0850  146.4600 N   0  0  0  0  0  2  0  0  0  0  0  0
  185.1320  179.4970  145.2120 O   0  0  0  0  0  0  0  0  0  0  0  0
  185.1560  176.6790  146.5160 C   0  0  0  0  0  1  0  0  0  0  0  0
  186.6940  177.7590  144.9240 C   0  0  2  0  0  3  0  0  0  0  0  0
  184.9620  177.7140  142.6140 C   0  0  0  0  0  2  0  0  0  0  0  0
  185.6020  178.8320  142.9650 C   0  0  0  0  0  3  0  0  0  0  0  0
  1 10  1  0  0  0  0
  2  7  1  0  0  0  0
  3 14  2  0  0  0  0
  4 16  2  0  0  0  0
  5  8  2  0  0  0  0
  6 12  2  0  0  0  0
  7  3  1  0  0  0  0
  8  9  2  0  0  0  0
  9  7  1  0  0  0  0
  9 15  1  0  0  0  0
 10 15  1  0  0  0  0
 10 24  1  1  0  0  0
 12  5  1  0  0  0  0
 13 11  1  6  0  0  0
 13  6  1  0  0  0  0
 13  4  1  0  0  0  0
 15 14  1  0  0  0  0
 16  5  1  0  0  0  0
 16 17  1  0  0  0  0
 17  1  1  0  0  0  0
 18 19  1  0  0  0  0
 18  6  1  0  0  0  0
 19 21  1  0  0  0  0
 20 22  2  0  0  0  0
 20 23  1  0  0  0  0
 21 20  1  0  0  0  0
 25 32  1  6  0  0  0
 25 30  1  0  0  0  0
 25 28  1  0  0  0  0
 26 27  1  0  0  0  0
 26 29  1  6  0  0  0
 28 27  1  0  0  0  0
 30 24  1  1  0  0  0
 30 26  1  0  0  0  0
 31 32  2  0  0  0  0
M  END
>  <MODEL>
8

>  <REMARK>
 VINA RESULT:      -6.7      3.791      7.868
  Name = 
  6 active torsions:
  status: ('A' for Active; 'I' for Inactive)
    1  A    between atoms: O_2  and  C_12
    2  A    between atoms: O_2  and  C_24
    3  A    between atoms: C_7  and  C_29
    4  A    between atoms: N_10  and  C_24
    5  A    between atoms: C_16  and  C_27
    6  A    between atoms: C_27  and  C_32
                            x       y       z     vdW  Elec       q    Type
                         _______ _______ _______ _____ _____    ______ ____

>  <TORSDO>
F 6

$$$$
=
 OpenBabel11052421343D

 32 35  0  0  1  0  0  0  0  0999 V2000
  189.0020  176.8440  142.7830 C   0  0  0  0  0  2  0  0  0  0  0  0
  192.2820  172.9830  144.6280 C   0  0  0  0  0  1  0  0  0  0  0  0
  191.4960  174.9240  146.1290 C   0  0  0  0  0  3  0  0  0  0  0  0
  188.1830  174.5370  139.9750 N   0  0  0  0  0  0  0  0  0  0  0  0
  189.6400  173.9290  141.7750 C   0  0  0  0  0  0  0  0  0  0  0  0
  189.5530  172.4410  139.8530 C   0  0  0  0  0  0  0  0  0  0  0  0
  191.3340  174.0230  144.9970 N   0  0  0  0  0  0  0  0  0  0  0  0
  189.9860  174.0980  143.0140 C   0  0  0  0  0  0  0  0  0  0  0  0
  190.2070  174.4290  144.2530 C   0  0  0  0  0  0  0  0  0  0  0  0
  188.5370  176.3480  144.1510 C   0  0  1  0  0  3  0  0  0  0  0  0
  188.7060  173.5750  137.7980 C   0  0  0  0  0  1  0  0  0  0  0  0
  190.0810  172.7440  141.0460 C   0  0  0  0  0  3  0  0  0  0  0  0
  188.4370  173.2780  139.2610 C   0  0  2  0  0  3  0  0  0  0  0  0
  190.3490  175.9510  146.0110 C   0  0  0  0  0  3  0  0  0  0  0  0
  189.6100  175.5840  144.8050 N   0  0  0  0  0  0  0  0  0  0  0  0
  188.6890  174.8610  141.1280 C   0  0  0  0  0  0  0  0  0  0  0  0
  188.3220  176.1350  141.6990 N   0  0  0  0  0  2  0  0  0  0  0  0
  189.9790  171.3070  139.1470 O   0  0  0  0  0  0  0  0  0  0  0  0
  191.3450  171.0190  138.8660 C   0  0  0  0  0  2  0  0  0  0  0  0
  192.1980  172.6860  137.1820 C   0  0  0  0  0  0  0  0  0  0  0  0
  191.6640  171.4010  137.4980 N   0  0  0  0  0  2  0  0  0  0  0  0
  192.4020  173.5370  138.0890 O   0  0  0  0  0  0  0  0  0  0  0  0
  192.5270  173.0220  135.7730 C   0  0  0  0  0  1  0  0  0  0  0  0
  188.0790  177.5300  144.9960 C   0  0  0  0  0  2  0  0  0  0  0  0
  186.2600  178.9790  144.1270 C   0  0  1  0  0  3  0  0  0  0  0  0
  186.0100  178.0250  146.2370 C   0  0  1  0  0  3  0  0  0  0  0  0
  185.5640  179.4090  146.1750 N   0  0  0  0  0  2  0  0  0  0  0  0
  185.3140  179.7040  144.8670 O   0  0  0  0  0  0  0  0  0  0  0  0
  184.8250  177.1190  146.5150 C   0  0  0  0  0  1  0  0  0  0  0  0
  186.5740  177.7150  144.8880 C   0  0  2  0  0  3  0  0  0  0  0  0
  185.0620  177.5620  142.4800 C   0  0  0  0  0  2  0  0  0  0  0  0
  185.7420  178.6780  142.7510 C   0  0  0  0  0  3  0  0  0  0  0  0
  1 10  1  0  0  0  0
  2  7  1  0  0  0  0
  4 16  2  0  0  0  0
  5  8  2  0  0  0  0
  6 12  2  0  0  0  0
  7  3  1  0  0  0  0
  8  9  2  0  0  0  0
  9 15  1  0  0  0  0
  9  7  1  0  0  0  0
 10 15  1  0  0  0  0
 10 24  1  1  0  0  0
 12  5  1  0  0  0  0
 13 11  1  6  0  0  0
 13  6  1  0  0  0  0
 13  4  1  0  0  0  0
 14  3  2  0  0  0  0
 15 14  1  0  0  0  0
 16 17  1  0  0  0  0
 16  5  1  0  0  0  0
 17  1  1  0  0  0  0
 18  6  1  0  0  0  0
 19 18  1  0  0  0  0
 20 21  1  0  0  0  0
 20 22  2  0  0  0  0
 21 19  1  0  0  0  0
 23 20  1  0  0  0  0
 25 32  1  6  0  0  0
 25 28  1  0  0  0  0
 25 30  1  0  0  0  0
 26 29  1  6  0  0  0
 27 26  1  0  0  0  0
 28 27  1  0  0  0  0
 30 24  1  1  0  0  0
 30 26  1  0  0  0  0
 31 32  2  0  0  0  0
M  END
>  <MODEL>
9

>  <REMARK>
 VINA RESULT:      -6.7      4.033      8.053
  Name = 
  6 active torsions:
  status: ('A' for Active; 'I' for Inactive)
    1  A    between atoms: O_2  and  C_12
    2  A    between atoms: O_2  and  C_24
    3  A    between atoms: C_7  and  C_29
    4  A    between atoms: N_10  and  C_24
    5  A    between atoms: C_16  and  C_27
    6  A    between atoms: C_27  and  C_32
                            x       y       z     vdW  Elec       q    Type
                         _______ _______ _______ _____ _____    ______ ____

>  <TORSDO>
F 6

$$$$
