=
 OpenBabel11052420243D

 34 39  0  0  1  0  0  0  0  0999 V2000
  194.4020  173.9990  143.9710 C   0  0  0  0  0  0  0  0  0  0  0  0
  197.1500  172.0750  145.9190 C   0  0  0  0  0  2  0  0  0  0  0  0
  195.7700  168.9380  146.7370 C   0  0  0  0  0  0  0  0  0  0  0  0
  197.1720  174.1020  144.5900 C   0  0  0  0  0  3  0  0  0  0  0  0
  192.6210  175.1580  142.7440 C   0  0  0  0  0  0  0  0  0  0  0  0
  193.0490  174.0760  143.5720 C   0  0  0  0  0  3  0  0  0  0  0  0
  194.8610  176.0140  142.7390 C   0  0  0  0  0  0  0  0  0  0  0  0
  195.9650  176.7640  142.5090 N   0  0  0  0  0  0  0  0  0  0  0  0
  196.9890  168.2740  146.8110 O   0  0  0  0  0  0  0  0  0  0  0  0
  193.5420  176.1530  142.3090 C   0  0  0  0  0  3  0  0  0  0  0  0
  196.5040  175.0740  143.7840 N   0  0  0  0  0  0  0  0  0  0  0  0
  195.2230  174.9880  143.5180 C   0  0  0  0  0  0  0  0  0  0  0  0
  196.9650  176.1570  143.1660 N   0  0  0  0  0  0  0  0  0  0  0  0
  196.8480  170.7050  145.3720 C   0  0  0  0  0  2  0  0  0  0  0  0
  194.7620  168.4340  147.3000 O   0  0  0  0  0  1  0  0  0  0  0  0
  195.6630  170.1810  146.0290 N   0  0  0  0  0  0  0  0  0  0  0  0
  194.3820  170.8290  145.9540 C   0  0  0  0  0  3  0  0  0  0  0  0
  196.4380  173.0770  145.0890 C   0  0  0  0  0  0  0  0  0  0  0  0
  194.0990  172.0200  145.4070 C   0  0  0  0  0  3  0  0  0  0  0  0
  194.9980  172.9730  144.8020 N   0  0  0  0  0  0  0  0  0  0  0  0
  191.1960  175.2310  142.3090 C   0  0  0  0  0  2  0  0  0  0  0  0
  188.9530  175.6310  145.4030 C   0  0  0  0  0  2  0  0  0  0  0  0
  189.1860  176.6820  142.6710 C   0  0  0  0  0  2  0  0  0  0  0  0
  185.8540  177.4750  145.0850 C   0  0  2  0  0  3  0  0  0  0  0  0
  187.0280  177.0200  145.7180 O   0  0  0  0  0  0  0  0  0  0  0  0
  187.7930  176.3640  144.7380 C   0  0  1  0  0  3  0  0  0  0  0  0
  187.1580  178.0880  143.0480 C   0  0  0  0  0  2  0  0  0  0  0  0
  188.3330  177.3850  143.7210 C   0  0  2  0  0  3  0  0  0  0  0  0
  186.1840  178.6090  144.1020 C   0  0  0  0  0  2  0  0  0  0  0  0
  190.3460  175.9490  143.3460 C   0  0  1  0  0  3  0  0  0  0  0  0
  189.8080  174.9320  144.3490 C   0  0  0  0  0  2  0  0  0  0  0  0
  184.8200  177.8930  146.1290 C   0  0  1  0  0  3  0  0  0  0  0  0
  185.4620  178.3130  147.4410 C   0  0  0  0  0  1  0  0  0  0  0  0
  183.9900  178.9700  145.6190 N   0  0  0  0  0  1  0  0  0  0  0  0
  1 20  1  0  0  0  0
  3  9  2  0  0  0  0
  3 15  1  0  0  0  0
  4 18  2  0  0  0  0
  5  6  2  0  0  0  0
  6  1  1  0  0  0  0
  7 12  1  0  0  0  0
  8  7  1  0  0  0  0
  8 13  2  0  0  0  0
 10  7  2  0  0  0  0
 10  5  1  0  0  0  0
 11  4  1  0  0  0  0
 12 11  1  0  0  0  0
 12  1  2  0  0  0  0
 13 11  1  0  0  0  0
 14  2  1  0  0  0  0
 14 16  1  0  0  0  0
 16  3  1  0  0  0  0
 17 16  1  0  0  0  0
 18  2  1  0  0  0  0
 19 17  2  0  0  0  0
 20 18  1  0  0  0  0
 20 19  1  0  0  0  0
 21  5  1  0  0  0  0
 23 30  1  0  0  0  0
 24 25  1  0  0  0  0
 24 32  1  1  0  0  0
 26 22  1  1  0  0  0
 26 25  1  0  0  0  0
 27 28  1  0  0  0  0
 27 29  1  0  0  0  0
 28 23  1  6  0  0  0
 28 26  1  0  0  0  0
 29 24  1  0  0  0  0
 30 21  1  6  0  0  0
 30 31  1  0  0  0  0
 31 22  1  0  0  0  0
 32 33  1  1  0  0  0
 34 32  1  0  0  0  0
M  END
>  <MODEL>
1

>  <REMARK>
 VINA RESULT:      -8.3      0.000      0.000
  Name = 
  3 active torsions:
  status: ('A' for Active; 'I' for Inactive)
    1  A    between atoms: C_7  and  C_11
    2  A    between atoms: C_8  and  C_18
    3  A    between atoms: C_18  and  C_30
                            x       y       z     vdW  Elec       q    Type
                         _______ _______ _______ _____ _____    ______ ____

>  <TORSDO>
F 3

$$$$
=
 OpenBabel11052420243D

 34 39  0  0  1  0  0  0  0  0999 V2000
  193.7550  173.0970  144.5100 C   0  0  0  0  0  0  0  0  0  0  0  0
  194.6790  170.3040  141.9830 C   0  0  0  0  0  2  0  0  0  0  0  0
  191.6310  168.9410  140.8570 C   0  0  0  0  0  0  0  0  0  0  0  0
  195.9500  172.0880  143.0190 C   0  0  0  0  0  3  0  0  0  0  0  0
  193.1010  174.8520  146.0970 C   0  0  0  0  0  0  0  0  0  0  0  0
  192.7610  173.7160  145.3010 C   0  0  0  0  0  3  0  0  0  0  0  0
  195.3550  174.7160  145.2910 C   0  0  0  0  0  0  0  0  0  0  0  0
  196.6690  174.9490  145.0620 N   0  0  0  0  0  0  0  0  0  0  0  0
  192.1270  168.5030  139.6340 O   0  0  0  0  0  0  0  0  0  0  0  0
  194.4260  175.3730  146.0960 C   0  0  0  0  0  3  0  0  0  0  0  0
  196.0390  173.2130  143.8950 N   0  0  0  0  0  0  0  0  0  0  0  0
  194.9990  173.6510  144.5630 C   0  0  0  0  0  0  0  0  0  0  0  0
  197.0640  174.0060  144.1930 N   0  0  0  0  0  0  0  0  0  0  0  0
  193.5330  170.5220  141.0310 C   0  0  0  0  0  2  0  0  0  0  0  0
  190.5650  168.4370  141.3030 O   0  0  0  0  0  1  0  0  0  0  0  0
  192.3250  169.9530  141.6010 N   0  0  0  0  0  0  0  0  0  0  0  0
  191.7710  170.3970  142.8510 C   0  0  0  0  0  3  0  0  0  0  0  0
  194.7510  171.4670  142.9000 C   0  0  0  0  0  0  0  0  0  0  0  0
  192.3060  171.2700  143.7180 C   0  0  0  0  0  3  0  0  0  0  0  0
  193.5780  171.9460  143.6490 N   0  0  0  0  0  0  0  0  0  0  0  0
  192.0470  175.5140  146.9190 C   0  0  0  0  0  2  0  0  0  0  0  0
  189.7530  177.3770  144.4650 C   0  0  0  0  0  2  0  0  0  0  0  0
  189.5730  175.9000  146.9960 C   0  0  0  0  0  2  0  0  0  0  0  0
  186.3380  178.0680  145.4500 C   0  0  2  0  0  3  0  0  0  0  0  0
  187.3880  177.7400  144.5690 O   0  0  0  0  0  0  0  0  0  0  0  0
  188.5230  177.4910  145.3600 C   0  0  1  0  0  3  0  0  0  0  0  0
  187.1160  176.3330  147.0650 C   0  0  0  0  0  2  0  0  0  0  0  0
  188.3330  176.1890  146.1580 C   0  0  2  0  0  3  0  0  0  0  0  0
  185.9190  176.8330  146.2620 C   0  0  0  0  0  2  0  0  0  0  0  0
  190.8010  175.7880  146.0920 C   0  0  1  0  0  3  0  0  0  0  0  0
  190.9920  177.0830  145.3060 C   0  0  0  0  0  2  0  0  0  0  0  0
  185.1720  178.6800  144.6760 C   0  0  1  0  0  3  0  0  0  0  0  0
  183.9550  178.9150  145.5560 C   0  0  0  0  0  1  0  0  0  0  0  0
  185.5770  179.9260  144.0500 N   0  0  0  0  0  1  0  0  0  0  0  0
  1 12  2  0  0  0  0
  1  6  1  0  0  0  0
  2 18  1  0  0  0  0
  3 15  1  0  0  0  0
  3 16  1  0  0  0  0
  4 11  1  0  0  0  0
  5 21  1  0  0  0  0
  6  5  2  0  0  0  0
  7 10  2  0  0  0  0
  8  7  1  0  0  0  0
  9  3  2  0  0  0  0
 10  5  1  0  0  0  0
 11 13  1  0  0  0  0
 11 12  1  0  0  0  0
 12  7  1  0  0  0  0
 13  8  2  0  0  0  0
 14 16  1  0  0  0  0
 14  2  1  0  0  0  0
 16 17  1  0  0  0  0
 17 19  2  0  0  0  0
 18  4  2  0  0  0  0
 18 20  1  0  0  0  0
 20 19  1  0  0  0  0
 20  1  1  0  0  0  0
 22 31  1  0  0  0  0
 24 32  1  6  0  0  0
 24 29  1  0  0  0  0
 25 26  1  0  0  0  0
 25 24  1  0  0  0  0
 26 22  1  6  0  0  0
 26 28  1  0  0  0  0
 28 23  1  1  0  0  0
 28 27  1  0  0  0  0
 29 27  1  0  0  0  0
 30 21  1  1  0  0  0
 30 23  1  0  0  0  0
 31 30  1  0  0  0  0
 32 33  1  1  0  0  0
 34 32  1  0  0  0  0
M  END
>  <MODEL>
2

>  <REMARK>
 VINA RESULT:      -8.3      3.122      3.796
  Name = 
  3 active torsions:
  status: ('A' for Active; 'I' for Inactive)
    1  A    between atoms: C_7  and  C_11
    2  A    between atoms: C_8  and  C_18
    3  A    between atoms: C_18  and  C_30
                            x       y       z     vdW  Elec       q    Type
                         _______ _______ _______ _____ _____    ______ ____

>  <TORSDO>
F 3

$$$$
=
 OpenBabel11052420243D

 34 39  0  0  1  0  0  0  0  0999 V2000
  193.9480  175.2720  142.2780 C   0  0  0  0  0  0  0  0  0  0  0  0
  194.7470  174.1660  138.6470 C   0  0  0  0  0  2  0  0  0  0  0  0
  191.6500  173.4380  137.1310 C   0  0  0  0  0  0  0  0  0  0  0  0
  196.0600  175.2340  140.3810 C   0  0  0  0  0  3  0  0  0  0  0  0
  193.3720  175.9640  144.5600 C   0  0  0  0  0  0  0  0  0  0  0  0
  192.9960  175.3700  143.3170 C   0  0  0  0  0  3  0  0  0  0  0  0
  195.5760  176.3380  143.6930 C   0  0  0  0  0  0  0  0  0  0  0  0
  196.8720  176.7060  143.5510 N   0  0  0  0  0  0  0  0  0  0  0  0
  192.0770  173.6940  135.8320 O   0  0  0  0  0  0  0  0  0  0  0  0
  194.6890  176.4660  144.7610 C   0  0  0  0  0  3  0  0  0  0  0  0
  196.1900  175.7690  141.6990 N   0  0  0  0  0  0  0  0  0  0  0  0
  195.1880  175.7710  142.5450 C   0  0  0  0  0  0  0  0  0  0  0  0
  197.2230  176.3430  142.3080 N   0  0  0  0  0  0  0  0  0  0  0  0
  193.5440  174.7880  137.9890 C   0  0  0  0  0  2  0  0  0  0  0  0
  190.6180  172.7380  137.3100 O   0  0  0  0  0  1  0  0  0  0  0  0
  192.3770  173.9640  138.2500 N   0  0  0  0  0  0  0  0  0  0  0  0
  191.8950  173.6980  139.5780 C   0  0  0  0  0  3  0  0  0  0  0  0
  194.8620  174.7120  140.0210 C   0  0  0  0  0  0  0  0  0  0  0  0
  192.4710  174.0370  140.7400 C   0  0  0  0  0  3  0  0  0  0  0  0
  193.7310  174.7040  140.9630 N   0  0  0  0  0  0  0  0  0  0  0  0
  192.3630  176.0830  145.6530 C   0  0  0  0  0  2  0  0  0  0  0  0
  189.4810  177.7900  143.7720 C   0  0  0  0  0  2  0  0  0  0  0  0
  189.9230  176.2070  146.2050 C   0  0  0  0  0  2  0  0  0  0  0  0
  186.2630  178.0840  145.4060 C   0  0  2  0  0  3  0  0  0  0  0  0
  187.1540  177.9010  144.3300 O   0  0  0  0  0  0  0  0  0  0  0  0
  188.4370  177.7420  144.8830 C   0  0  1  0  0  3  0  0  0  0  0  0
  187.4930  176.3780  146.7490 C   0  0  0  0  0  2  0  0  0  0  0  0
  188.5250  176.3970  145.6260 C   0  0  2  0  0  3  0  0  0  0  0  0
  186.1230  176.7820  146.2090 C   0  0  0  0  0  2  0  0  0  0  0  0
  190.9630  176.2570  145.0860 C   0  0  1  0  0  3  0  0  0  0  0  0
  190.8780  177.5940  144.3540 C   0  0  0  0  0  2  0  0  0  0  0  0
  184.9190  178.6020  144.8950 C   0  0  1  0  0  3  0  0  0  0  0  0
  183.9000  178.7600  146.0120 C   0  0  0  0  0  1  0  0  0  0  0  0
  185.0920  179.8660  144.2020 N   0  0  0  0  0  1  0  0  0  0  0  0
  1 12  2  0  0  0  0
  1  6  1  0  0  0  0
  2 18  1  0  0  0  0
  3 15  1  0  0  0  0
  3 16  1  0  0  0  0
  4 11  1  0  0  0  0
  5 10  1  0  0  0  0
  5 21  1  0  0  0  0
  6  5  2  0  0  0  0
  7 10  2  0  0  0  0
  8  7  1  0  0  0  0
  9  3  2  0  0  0  0
 11 13  1  0  0  0  0
 11 12  1  0  0  0  0
 12  7  1  0  0  0  0
 13  8  2  0  0  0  0
 14 16  1  0  0  0  0
 14  2  1  0  0  0  0
 16 17  1  0  0  0  0
 17 19  2  0  0  0  0
 18  4  2  0  0  0  0
 18 20  1  0  0  0  0
 19 20  1  0  0  0  0
 20  1  1  0  0  0  0
 22 31  1  0  0  0  0
 24 32  1  6  0  0  0
 24 29  1  0  0  0  0
 25 26  1  0  0  0  0
 25 24  1  0  0  0  0
 26 22  1  6  0  0  0
 26 28  1  0  0  0  0
 28 23  1  1  0  0  0
 28 27  1  0  0  0  0
 29 27  1  0  0  0  0
 30 21  1  1  0  0  0
 30 23  1  0  0  0  0
 31 30  1  0  0  0  0
 32 33  1  1  0  0  0
 34 32  1  0  0  0  0
M  END
>  <MODEL>
3

>  <REMARK>
 VINA RESULT:      -8.2      4.189      5.270
  Name = 
  3 active torsions:
  status: ('A' for Active; 'I' for Inactive)
    1  A    between atoms: C_7  and  C_11
    2  A    between atoms: C_8  and  C_18
    3  A    between atoms: C_18  and  C_30
                            x       y       z     vdW  Elec       q    Type
                         _______ _______ _______ _____ _____    ______ ____

>  <TORSDO>
F 3

$$$$
=
 OpenBabel11052420243D

 34 39  0  0  1  0  0  0  0  0999 V2000
  194.4450  175.2800  143.6330 C   0  0  0  0  0  0  0  0  0  0  0  0
  197.4140  175.3760  141.1390 C   0  0  0  0  0  2  0  0  0  0  0  0
  196.5320  173.2490  138.4710 C   0  0  0  0  0  0  0  0  0  0  0  0
  196.8170  176.7310  143.0570 C   0  0  0  0  0  3  0  0  0  0  0  0
  192.5320  175.1760  145.1660 C   0  0  0  0  0  0  0  0  0  0  0  0
  193.2380  174.6650  144.0360 C   0  0  0  0  0  3  0  0  0  0  0  0
  194.2180  176.8600  145.4340 C   0  0  0  0  0  0  0  0  0  0  0  0
  194.9410  177.9150  145.8780 N   0  0  0  0  0  0  0  0  0  0  0  0
  197.3250  173.8910  137.5250 O   0  0  0  0  0  0  0  0  0  0  0  0
  193.0230  176.3010  145.8870 C   0  0  0  0  0  3  0  0  0  0  0  0
  195.9420  177.0430  144.1430 N   0  0  0  0  0  0  0  0  0  0  0  0
  194.8530  176.3500  144.3730 C   0  0  0  0  0  0  0  0  0  0  0  0
  196.0000  178.0050  145.0580 N   0  0  0  0  0  0  0  0  0  0  0  0
  196.6020  175.2920  139.8730 C   0  0  0  0  0  2  0  0  0  0  0  0
  196.1490  172.0690  138.2510 O   0  0  0  0  0  1  0  0  0  0  0  0
  196.1580  173.9230  139.6800 N   0  0  0  0  0  0  0  0  0  0  0  0
  195.3200  173.2380  140.6260 C   0  0  0  0  0  3  0  0  0  0  0  0
  196.4960  175.6800  142.2630 C   0  0  0  0  0  0  0  0  0  0  0  0
  194.9280  173.6680  141.8340 C   0  0  0  0  0  3  0  0  0  0  0  0
  195.2790  174.8910  142.5140 N   0  0  0  0  0  0  0  0  0  0  0  0
  191.2490  174.5370  145.5820 C   0  0  0  0  0  2  0  0  0  0  0  0
  187.9610  176.0120  146.9130 C   0  0  0  0  0  2  0  0  0  0  0  0
  189.5960  176.0570  144.4740 C   0  0  0  0  0  2  0  0  0  0  0  0
  185.7390  177.6890  144.5990 C   0  0  2  0  0  3  0  0  0  0  0  0
  186.3920  177.4580  145.8260 O   0  0  0  0  0  0  0  0  0  0  0  0
  187.3850  176.4920  145.5850 C   0  0  1  0  0  3  0  0  0  0  0  0
  187.9120  177.5420  143.3830 C   0  0  0  0  0  2  0  0  0  0  0  0
  188.5030  177.0930  144.7150 C   0  0  2  0  0  3  0  0  0  0  0  0
  186.6790  178.4100  143.6210 C   0  0  0  0  0  2  0  0  0  0  0  0
  190.1680  175.5810  145.8090 C   0  0  1  0  0  3  0  0  0  0  0  0
  189.0590  174.9800  146.6680 C   0  0  0  0  0  2  0  0  0  0  0  0
  184.4390  178.4580  144.8300 C   0  0  1  0  0  3  0  0  0  0  0  0
  184.0760  178.5490  146.3040 C   0  0  0  0  0  1  0  0  0  0  0  0
  184.5300  179.7910  144.2610 N   0  0  0  0  0  1  0  0  0  0  0  0
  1  6  2  0  0  0  0
  1 12  1  0  0  0  0
  2 18  1  0  0  0  0
  3 16  1  0  0  0  0
  4 11  1  0  0  0  0
  5 21  1  0  0  0  0
  5 10  2  0  0  0  0
  6  5  1  0  0  0  0
  7  8  1  0  0  0  0
  7 10  1  0  0  0  0
  9  3  2  0  0  0  0
 11 12  1  0  0  0  0
 11 13  1  0  0  0  0
 12  7  2  0  0  0  0
 13  8  2  0  0  0  0
 14  2  1  0  0  0  0
 15  3  1  0  0  0  0
 16 14  1  0  0  0  0
 16 17  1  0  0  0  0
 17 19  2  0  0  0  0
 18 20  1  0  0  0  0
 18  4  2  0  0  0  0
 19 20  1  0  0  0  0
 20  1  1  0  0  0  0
 23 28  1  0  0  0  0
 23 30  1  0  0  0  0
 24 32  1  1  0  0  0
 24 25  1  0  0  0  0
 26 25  1  0  0  0  0
 26 22  1  1  0  0  0
 27 29  1  0  0  0  0
 28 27  1  6  0  0  0
 28 26  1  0  0  0  0
 29 24  1  0  0  0  0
 30 21  1  6  0  0  0
 30 31  1  0  0  0  0
 31 22  1  0  0  0  0
 32 33  1  1  0  0  0
 34 32  1  0  0  0  0
M  END
>  <MODEL>
4

>  <REMARK>
 VINA RESULT:      -8.2      3.499      4.298
  Name = 
  3 active torsions:
  status: ('A' for Active; 'I' for Inactive)
    1  A    between atoms: C_7  and  C_11
    2  A    between atoms: C_8  and  C_18
    3  A    between atoms: C_18  and  C_30
                            x       y       z     vdW  Elec       q    Type
                         _______ _______ _______ _____ _____    ______ ____

>  <TORSDO>
F 3

$$$$
=
 OpenBabel11052420243D

 34 39  0  0  1  0  0  0  0  0999 V2000
  188.9800  176.8940  144.6360 C   0  0  0  0  0  0  0  0  0  0  0  0
  192.1600  174.9500  145.7100 C   0  0  0  0  0  2  0  0  0  0  0  0
  194.7280  175.9720  143.5240 C   0  0  0  0  0  0  0  0  0  0  0  0
  189.9970  175.2930  146.7490 C   0  0  0  0  0  3  0  0  0  0  0  0
  187.0060  178.1570  143.9070 C   0  0  0  0  0  0  0  0  0  0  0  0
  188.3420  177.7090  143.6750 C   0  0  0  0  0  3  0  0  0  0  0  0
  187.0030  176.9960  146.0050 C   0  0  0  0  0  0  0  0  0  0  0  0
  186.6460  176.4900  147.2090 N   0  0  0  0  0  0  0  0  0  0  0  0
  195.7670  175.7050  144.4090 O   0  0  0  0  0  1  0  0  0  0  0  0
  186.3140  177.8000  145.0980 C   0  0  0  0  0  3  0  0  0  0  0  0
  188.6830  175.8540  146.7430 N   0  0  0  0  0  0  0  0  0  0  0  0
  188.2530  176.5920  145.7490 C   0  0  0  0  0  0  0  0  0  0  0  0
  187.7060  175.7900  147.6420 N   0  0  0  0  0  0  0  0  0  0  0  0
  193.1550  176.0470  145.4390 C   0  0  0  0  0  2  0  0  0  0  0  0
  194.9800  176.0660  142.2930 O   0  0  0  0  0  0  0  0  0  0  0  0
  193.3880  176.1370  144.0080 N   0  0  0  0  0  0  0  0  0  0  0  0
  192.3420  176.4340  143.0670 C   0  0  0  0  0  3  0  0  0  0  0  0
  190.7980  175.5370  145.6820 C   0  0  0  0  0  0  0  0  0  0  0  0
  191.0290  176.5490  143.3130 C   0  0  0  0  0  3  0  0  0  0  0  0
  190.3240  176.3590  144.5580 N   0  0  0  0  0  0  0  0  0  0  0  0
  186.3390  179.0320  142.8990 C   0  0  0  0  0  2  0  0  0  0  0  0
  183.8780  177.7900  140.2230 C   0  0  0  0  0  2  0  0  0  0  0  0
  183.8340  179.0330  142.8830 C   0  0  0  0  0  2  0  0  0  0  0  0
  180.3670  178.6030  140.5700 C   0  0  2  0  0  3  0  0  0  0  0  0
  181.4830  177.8120  140.2300 O   0  0  0  0  0  0  0  0  0  0  0  0
  182.6150  178.4520  140.7640 C   0  0  1  0  0  3  0  0  0  0  0  0
  181.3390  179.0550  142.8230 C   0  0  0  0  0  2  0  0  0  0  0  0
  182.5940  178.3640  142.3010 C   0  0  2  0  0  3  0  0  0  0  0  0
  180.1080  178.5380  142.0830 C   0  0  0  0  0  2  0  0  0  0  0  0
  185.0950  178.3630  142.3360 C   0  0  1  0  0  3  0  0  0  0  0  0
  185.1170  178.4570  140.8120 C   0  0  0  0  0  2  0  0  0  0  0  0
  179.1500  178.1760  139.7520 C   0  0  1  0  0  3  0  0  0  0  0  0
  178.3040  177.1400  140.4740 C   0  0  0  0  0  1  0  0  0  0  0  0
  178.3350  179.3290  139.4130 N   0  0  0  0  0  1  0  0  0  0  0  0
  1 12  1  0  0  0  0
  3 16  1  0  0  0  0
  3  9  1  0  0  0  0
  5 10  2  0  0  0  0
  6  5  1  0  0  0  0
  6  1  2  0  0  0  0
  7  8  1  0  0  0  0
  8 13  2  0  0  0  0
 10  7  1  0  0  0  0
 11  4  1  0  0  0  0
 11 13  1  0  0  0  0
 12  7  2  0  0  0  0
 12 11  1  0  0  0  0
 14  2  1  0  0  0  0
 15  3  2  0  0  0  0
 16 14  1  0  0  0  0
 17 19  2  0  0  0  0
 17 16  1  0  0  0  0
 18  2  1  0  0  0  0
 18  4  2  0  0  0  0
 19 20  1  0  0  0  0
 20  1  1  0  0  0  0
 20 18  1  0  0  0  0
 21  5  1  0  0  0  0
 22 31  1  0  0  0  0
 24 32  1  6  0  0  0
 24 29  1  0  0  0  0
 25 24  1  0  0  0  0
 25 26  1  0  0  0  0
 26 22  1  6  0  0  0
 26 28  1  0  0  0  0
 28 27  1  1  0  0  0
 28 23  1  0  0  0  0
 29 27  1  0  0  0  0
 30 23  1  0  0  0  0
 30 21  1  1  0  0  0
 31 30  1  0  0  0  0
 32 33  1  1  0  0  0
 34 32  1  0  0  0  0
M  END
>  <MODEL>
5

>  <REMARK>
 VINA RESULT:      -8.1      4.708      7.387
  Name = 
  3 active torsions:
  status: ('A' for Active; 'I' for Inactive)
    1  A    between atoms: C_7  and  C_11
    2  A    between atoms: C_8  and  C_18
    3  A    between atoms: C_18  and  C_30
                            x       y       z     vdW  Elec       q    Type
                         _______ _______ _______ _____ _____    ______ ____

>  <TORSDO>
F 3

$$$$
=
 OpenBabel11052420243D

 34 39  0  0  1  0  0  0  0  0999 V2000
  195.3190  174.8880  143.2580 C   0  0  0  0  0  0  0  0  0  0  0  0
  197.0430  173.1760  140.2340 C   0  0  0  0  0  2  0  0  0  0  0  0
  196.1390  175.0500  137.3900 C   0  0  0  0  0  0  0  0  0  0  0  0
  197.3020  172.9540  142.6330 C   0  0  0  0  0  3  0  0  0  0  0  0
  194.2030  176.0210  145.1270 C   0  0  0  0  0  0  0  0  0  0  0  0
  194.3730  175.8280  143.7220 C   0  0  0  0  0  3  0  0  0  0  0  0
  195.8990  174.3760  145.5360 C   0  0  0  0  0  0  0  0  0  0  0  0
  196.7790  173.5390  146.1340 N   0  0  0  0  0  0  0  0  0  0  0  0
  197.2630  174.7080  136.6460 O   0  0  0  0  0  0  0  0  0  0  0  0
  194.9830  175.2850  146.0640 C   0  0  0  0  0  3  0  0  0  0  0  0
  196.9450  173.3180  143.9670 N   0  0  0  0  0  0  0  0  0  0  0  0
  196.0250  174.2200  144.2130 C   0  0  0  0  0  0  0  0  0  0  0  0
  197.4130  172.9000  145.1390 N   0  0  0  0  0  0  0  0  0  0  0  0
  197.3560  174.4280  139.4590 C   0  0  0  0  0  2  0  0  0  0  0  0
  195.1180  175.4860  136.7940 O   0  0  0  0  0  1  0  0  0  0  0  0
  196.1440  174.9070  138.8170 N   0  0  0  0  0  0  0  0  0  0  0  0
  194.9720  175.2920  139.5570 C   0  0  0  0  0  3  0  0  0  0  0  0
  196.6530  173.5650  141.6110 C   0  0  0  0  0  0  0  0  0  0  0  0
  194.7590  175.1650  140.8750 C   0  0  0  0  0  3  0  0  0  0  0  0
  195.6160  174.5740  141.8750 N   0  0  0  0  0  0  0  0  0  0  0  0
  193.2150  177.0260  145.6160 C   0  0  0  0  0  2  0  0  0  0  0  0
  190.1960  177.6720  143.3290 C   0  0  0  0  0  2  0  0  0  0  0  0
  190.7630  176.7940  146.0730 C   0  0  0  0  0  2  0  0  0  0  0  0
  186.8800  177.6960  144.7810 C   0  0  2  0  0  3  0  0  0  0  0  0
  187.8580  177.4520  143.7960 O   0  0  0  0  0  0  0  0  0  0  0  0
  189.1090  177.6730  144.3980 C   0  0  1  0  0  3  0  0  0  0  0  0
  188.3130  176.6090  146.5110 C   0  0  0  0  0  2  0  0  0  0  0  0
  189.3950  176.5740  145.4370 C   0  0  2  0  0  3  0  0  0  0  0  0
  186.9300  176.6070  145.8640 C   0  0  0  0  0  2  0  0  0  0  0  0
  191.8470  176.7920  144.9950 C   0  0  1  0  0  3  0  0  0  0  0  0
  191.5650  177.8870  143.9690 C   0  0  0  0  0  2  0  0  0  0  0  0
  185.5000  177.8140  144.1360 C   0  0  1  0  0  3  0  0  0  0  0  0
  184.9820  179.2420  144.1370 C   0  0  0  0  0  1  0  0  0  0  0  0
  185.5300  177.3000  142.7780 N   0  0  0  0  0  1  0  0  0  0  0  0
  1  6  2  0  0  0  0
  1 12  1  0  0  0  0
  2 18  1  0  0  0  0
  3 16  1  0  0  0  0
  4 11  1  0  0  0  0
  5 21  1  0  0  0  0
  5 10  2  0  0  0  0
  6  5  1  0  0  0  0
  7 10  1  0  0  0  0
  7  8  1  0  0  0  0
  9  3  2  0  0  0  0
 11 12  1  0  0  0  0
 11 13  1  0  0  0  0
 12  7  2  0  0  0  0
 13  8  2  0  0  0  0
 14  2  1  0  0  0  0
 15  3  1  0  0  0  0
 16 14  1  0  0  0  0
 16 17  1  0  0  0  0
 17 19  2  0  0  0  0
 18 20  1  0  0  0  0
 18  4  2  0  0  0  0
 19 20  1  0  0  0  0
 20  1  1  0  0  0  0
 22 31  1  0  0  0  0
 24 32  1  6  0  0  0
 24 29  1  0  0  0  0
 25 26  1  0  0  0  0
 25 24  1  0  0  0  0
 26 22  1  6  0  0  0
 26 28  1  0  0  0  0
 28 23  1  1  0  0  0
 28 27  1  0  0  0  0
 29 27  1  0  0  0  0
 30 21  1  1  0  0  0
 30 23  1  0  0  0  0
 31 30  1  0  0  0  0
 32 33  1  6  0  0  0
 34 32  1  0  0  0  0
M  END
>  <MODEL>
6

>  <REMARK>
 VINA RESULT:      -8.1      3.833      5.212
  Name = 
  3 active torsions:
  status: ('A' for Active; 'I' for Inactive)
    1  A    between atoms: C_7  and  C_11
    2  A    between atoms: C_8  and  C_18
    3  A    between atoms: C_18  and  C_30
                            x       y       z     vdW  Elec       q    Type
                         _______ _______ _______ _____ _____    ______ ____

>  <TORSDO>
F 3

$$$$
=
 OpenBabel11052420243D

 34 39  0  0  1  0  0  0  0  0999 V2000
  191.3030  174.3200  145.4460 C   0  0  0  0  0  0  0  0  0  0  0  0
  193.6360  172.2450  143.1440 C   0  0  0  0  0  2  0  0  0  0  0  0
  191.5290  170.2830  141.1120 C   0  0  0  0  0  0  0  0  0  0  0  0
  194.0080  174.1450  144.6010 C   0  0  0  0  0  3  0  0  0  0  0  0
  189.7710  175.6030  146.8690 C   0  0  0  0  0  0  0  0  0  0  0  0
  190.0010  174.5370  145.9480 C   0  0  0  0  0  3  0  0  0  0  0  0
  192.0940  176.1850  146.7450 C   0  0  0  0  0  0  0  0  0  0  0  0
  193.2930  176.7890  146.9180 N   0  0  0  0  0  0  0  0  0  0  0  0
  192.4340  170.1640  140.0630 O   0  0  0  0  0  0  0  0  0  0  0  0
  190.8360  176.4550  147.2810 C   0  0  0  0  0  3  0  0  0  0  0  0
  193.5300  175.1230  145.5260 N   0  0  0  0  0  0  0  0  0  0  0  0
  192.2700  175.1720  145.8880 C   0  0  0  0  0  0  0  0  0  0  0  0
  194.1610  176.1130  146.1500 N   0  0  0  0  0  0  0  0  0  0  0  0
  192.7670  172.2750  141.9150 C   0  0  0  0  0  2  0  0  0  0  0  0
  190.5810  169.4570  141.2010 O   0  0  0  0  0  1  0  0  0  0  0  0
  191.6750  171.3320  142.0790 N   0  0  0  0  0  0  0  0  0  0  0  0
  190.7080  171.4390  143.1380 C   0  0  0  0  0  3  0  0  0  0  0  0
  193.1200  173.2490  144.1060 C   0  0  0  0  0  0  0  0  0  0  0  0
  190.7160  172.2970  144.1690 C   0  0  0  0  0  3  0  0  0  0  0  0
  191.7050  173.2910  144.5090 N   0  0  0  0  0  0  0  0  0  0  0  0
  188.3920  175.8430  147.3870 C   0  0  0  0  0  2  0  0  0  0  0  0
  185.3710  177.7530  145.9800 C   0  0  0  0  0  2  0  0  0  0  0  0
  187.8020  176.4170  145.0210 C   0  0  0  0  0  2  0  0  0  0  0  0
  184.8150  177.7490  142.4030 C   0  0  2  0  0  3  0  0  0  0  0  0
  184.8260  178.2790  143.7080 O   0  0  0  0  0  0  0  0  0  0  0  0
  185.5340  177.3700  144.5130 C   0  0  1  0  0  3  0  0  0  0  0  0
  187.1700  176.9700  142.6710 C   0  0  0  0  0  2  0  0  0  0  0  0
  187.0260  177.3810  144.1320 C   0  0  2  0  0  3  0  0  0  0  0  0
  186.2270  177.7930  141.7980 C   0  0  0  0  0  2  0  0  0  0  0  0
  187.6330  176.8070  146.4900 C   0  0  1  0  0  3  0  0  0  0  0  0
  186.1540  176.7900  146.8670 C   0  0  0  0  0  2  0  0  0  0  0  0
  183.7900  178.4860  141.5430 C   0  0  1  0  0  3  0  0  0  0  0  0
  183.6960  177.9130  140.1380 C   0  0  0  0  0  1  0  0  0  0  0  0
  182.4830  178.4570  142.1750 N   0  0  0  0  0  1  0  0  0  0  0  0
  1 12  2  0  0  0  0
  1  6  1  0  0  0  0
  2 18  1  0  0  0  0
  3 15  1  0  0  0  0
  3 16  1  0  0  0  0
  4 11  1  0  0  0  0
  5 10  1  0  0  0  0
  5 21  1  0  0  0  0
  6  5  2  0  0  0  0
  7  8  1  0  0  0  0
  7 10  2  0  0  0  0
  9  3  2  0  0  0  0
 11 12  1  0  0  0  0
 11 13  1  0  0  0  0
 12  7  1  0  0  0  0
 13  8  2  0  0  0  0
 14 16  1  0  0  0  0
 14  2  1  0  0  0  0
 16 17  1  0  0  0  0
 17 19  2  0  0  0  0
 18 20  1  0  0  0  0
 18  4  2  0  0  0  0
 19 20  1  0  0  0  0
 20  1  1  0  0  0  0
 22 31  1  0  0  0  0
 23 30  1  0  0  0  0
 24 32  1  6  0  0  0
 24 25  1  0  0  0  0
 25 26  1  0  0  0  0
 26 22  1  1  0  0  0
 28 27  1  6  0  0  0
 28 26  1  0  0  0  0
 28 23  1  0  0  0  0
 29 24  1  0  0  0  0
 29 27  1  0  0  0  0
 30 31  1  0  0  0  0
 30 21  1  1  0  0  0
 32 33  1  6  0  0  0
 32 34  1  0  0  0  0
M  END
>  <MODEL>
7

>  <REMARK>
 VINA RESULT:      -8.1      3.383      4.649
  Name = 
  3 active torsions:
  status: ('A' for Active; 'I' for Inactive)
    1  A    between atoms: C_7  and  C_11
    2  A    between atoms: C_8  and  C_18
    3  A    between atoms: C_18  and  C_30
                            x       y       z     vdW  Elec       q    Type
                         _______ _______ _______ _____ _____    ______ ____

>  <TORSDO>
F 3

$$$$
=
 OpenBabel11052420243D

 34 39  0  0  1  0  0  0  0  0999 V2000
  193.8920  173.5890  143.9410 C   0  0  0  0  0  0  0  0  0  0  0  0
  194.4720  171.0430  141.0730 C   0  0  0  0  0  2  0  0  0  0  0  0
  191.5280  171.0480  139.1360 C   0  0  0  0  0  0  0  0  0  0  0  0
  195.9470  172.0800  142.6920 C   0  0  0  0  0  3  0  0  0  0  0  0
  193.4610  175.2150  145.7280 C   0  0  0  0  0  0  0  0  0  0  0  0
  192.9850  174.4050  144.6530 C   0  0  0  0  0  3  0  0  0  0  0  0
  195.6790  174.3910  145.3390 C   0  0  0  0  0  0  0  0  0  0  0  0
  197.0120  174.1650  145.4110 N   0  0  0  0  0  0  0  0  0  0  0  0
  192.1450  170.6410  137.9590 O   0  0  0  0  0  0  0  0  0  0  0  0
  194.8390  175.2170  146.0850 C   0  0  0  0  0  3  0  0  0  0  0  0
  196.1710  172.9600  143.7950 N   0  0  0  0  0  0  0  0  0  0  0  0
  195.1940  173.6420  144.3420 C   0  0  0  0  0  0  0  0  0  0  0  0
  197.2870  173.2770  144.4430 N   0  0  0  0  0  0  0  0  0  0  0  0
  193.7300  171.7930  139.9990 C   0  0  0  0  0  2  0  0  0  0  0  0
  190.2820  170.9050  139.2570 O   0  0  0  0  0  1  0  0  0  0  0  0
  192.3010  171.6240  140.1990 N   0  0  0  0  0  0  0  0  0  0  0  0
  191.6270  172.0540  141.3930 C   0  0  0  0  0  3  0  0  0  0  0  0
  194.6820  171.9580  142.2210 C   0  0  0  0  0  0  0  0  0  0  0  0
  192.1790  172.5420  142.5140 C   0  0  0  0  0  3  0  0  0  0  0  0
  193.5760  172.7150  142.8300 N   0  0  0  0  0  0  0  0  0  0  0  0
  192.5050  176.0880  146.4700 C   0  0  0  0  0  2  0  0  0  0  0  0
  189.9050  177.6870  144.1360 C   0  0  0  0  0  2  0  0  0  0  0  0
  190.0140  176.2300  146.6830 C   0  0  0  0  0  2  0  0  0  0  0  0
  186.5000  178.0510  145.3080 C   0  0  2  0  0  3  0  0  0  0  0  0
  187.5260  177.8170  144.3710 O   0  0  0  0  0  0  0  0  0  0  0  0
  188.7220  177.6900  145.0980 C   0  0  1  0  0  3  0  0  0  0  0  0
  187.5330  176.4200  146.8880 C   0  0  0  0  0  2  0  0  0  0  0  0
  188.7070  176.3850  145.9150 C   0  0  2  0  0  3  0  0  0  0  0  0
  186.2490  176.7910  146.1510 C   0  0  0  0  0  2  0  0  0  0  0  0
  191.1950  176.2280  145.7120 C   0  0  1  0  0  3  0  0  0  0  0  0
  191.2120  177.5250  144.9090 C   0  0  0  0  0  2  0  0  0  0  0  0
  185.2370  178.5360  144.5970 C   0  0  1  0  0  3  0  0  0  0  0  0
  184.0640  178.6970  145.5490 C   0  0  0  0  0  1  0  0  0  0  0  0
  185.4920  179.7910  143.9110 N   0  0  0  0  0  1  0  0  0  0  0  0
  1 12  2  0  0  0  0
  1  6  1  0  0  0  0
  2 18  1  0  0  0  0
  3 15  1  0  0  0  0
  3 16  1  0  0  0  0
  4 11  1  0  0  0  0
  5 10  1  0  0  0  0
  5 21  1  0  0  0  0
  6  5  2  0  0  0  0
  7  8  1  0  0  0  0
  7 10  2  0  0  0  0
  9  3  2  0  0  0  0
 11 12  1  0  0  0  0
 11 13  1  0  0  0  0
 12  7  1  0  0  0  0
 13  8  2  0  0  0  0
 14 16  1  0  0  0  0
 14  2  1  0  0  0  0
 16 17  1  0  0  0  0
 17 19  2  0  0  0  0
 18  4  2  0  0  0  0
 18 20  1  0  0  0  0
 19 20  1  0  0  0  0
 20  1  1  0  0  0  0
 22 31  1  0  0  0  0
 24 32  1  6  0  0  0
 24 29  1  0  0  0  0
 25 26  1  0  0  0  0
 25 24  1  0  0  0  0
 26 22  1  6  0  0  0
 26 28  1  0  0  0  0
 28 23  1  1  0  0  0
 28 27  1  0  0  0  0
 29 27  1  0  0  0  0
 30 21  1  1  0  0  0
 30 23  1  0  0  0  0
 31 30  1  0  0  0  0
 32 33  1  1  0  0  0
 34 32  1  0  0  0  0
M  END
>  <MODEL>
8

>  <REMARK>
 VINA RESULT:      -8.1      3.412      4.371
  Name = 
  3 active torsions:
  status: ('A' for Active; 'I' for Inactive)
    1  A    between atoms: C_7  and  C_11
    2  A    between atoms: C_8  and  C_18
    3  A    between atoms: C_18  and  C_30
                            x       y       z     vdW  Elec       q    Type
                         _______ _______ _______ _____ _____    ______ ____

>  <TORSDO>
F 3

$$$$
=
 OpenBabel11052420243D

 34 39  0  0  1  0  0  0  0  0999 V2000
  186.4210  177.2150  143.9170 C   0  0  0  0  0  0  0  0  0  0  0  0
  185.0220  178.3290  140.4760 C   0  0  0  0  0  2  0  0  0  0  0  0
  186.6380  176.3360  138.0590 C   0  0  0  0  0  0  0  0  0  0  0  0
  184.3320  178.7500  142.7600 C   0  0  0  0  0  3  0  0  0  0  0  0
  187.3460  176.4610  146.0620 C   0  0  0  0  0  0  0  0  0  0  0  0
  187.3930  176.4820  144.6350 C   0  0  0  0  0  3  0  0  0  0  0  0
  185.4000  177.8610  145.9980 C   0  0  0  0  0  0  0  0  0  0  0  0
  184.3270  178.6100  146.3450 N   0  0  0  0  0  0  0  0  0  0  0  0
  185.6210  176.4260  137.1150 O   0  0  0  0  0  0  0  0  0  0  0  0
  186.3270  177.1600  146.7690 C   0  0  0  0  0  3  0  0  0  0  0  0
  184.5040  178.5820  144.1680 N   0  0  0  0  0  0  0  0  0  0  0  0
  185.4810  177.8610  144.6630 C   0  0  0  0  0  0  0  0  0  0  0  0
  183.7910  179.0410  145.1930 N   0  0  0  0  0  0  0  0  0  0  0  0
  185.0160  176.9720  139.8240 C   0  0  0  0  0  2  0  0  0  0  0  0
  187.7950  176.0030  137.6860 O   0  0  0  0  0  1  0  0  0  0  0  0
  186.3720  176.6200  139.4400 N   0  0  0  0  0  0  0  0  0  0  0  0
  187.4420  176.4960  140.3930 C   0  0  0  0  0  3  0  0  0  0  0  0
  185.2210  178.1460  141.9330 C   0  0  0  0  0  0  0  0  0  0  0  0
  187.4090  176.7870  141.7020 C   0  0  0  0  0  3  0  0  0  0  0  0
  186.3240  177.3380  142.4770 N   0  0  0  0  0  0  0  0  0  0  0  0
  188.3630  175.6740  146.8190 C   0  0  0  0  0  2  0  0  0  0  0  0
  191.3190  174.0160  145.0100 C   0  0  0  0  0  2  0  0  0  0  0  0
  190.8000  176.2530  146.8390 C   0  0  0  0  0  2  0  0  0  0  0  0
  194.6860  174.9900  145.9140 C   0  0  2  0  0  3  0  0  0  0  0  0
  193.6440  174.5850  145.0560 O   0  0  0  0  0  0  0  0  0  0  0  0
  192.4500  174.6740  145.7920 C   0  0  1  0  0  3  0  0  0  0  0  0
  193.2380  176.7840  146.8690 C   0  0  0  0  0  2  0  0  0  0  0  0
  192.1080  176.1500  146.0640 C   0  0  2  0  0  3  0  0  0  0  0  0
  194.5820  176.4950  146.2050 C   0  0  0  0  0  2  0  0  0  0  0  0
  189.6710  175.5900  146.0490 C   0  0  1  0  0  3  0  0  0  0  0  0
  190.0080  174.1250  145.7850 C   0  0  0  0  0  2  0  0  0  0  0  0
  196.0390  174.6050  145.3190 C   0  0  1  0  0  3  0  0  0  0  0  0
  196.7480  173.5380  146.1380 C   0  0  0  0  0  1  0  0  0  0  0  0
  195.8800  174.1500  143.9490 N   0  0  0  0  0  1  0  0  0  0  0  0
  1  6  2  0  0  0  0
  1 12  1  0  0  0  0
  2 18  1  0  0  0  0
  3 16  1  0  0  0  0
  4 11  1  0  0  0  0
  5 10  2  0  0  0  0
  5 21  1  0  0  0  0
  6  5  1  0  0  0  0
  7  8  1  0  0  0  0
  7 10  1  0  0  0  0
  9  3  2  0  0  0  0
 11 12  1  0  0  0  0
 11 13  1  0  0  0  0
 12  7  2  0  0  0  0
 13  8  2  0  0  0  0
 14  2  1  0  0  0  0
 15  3  1  0  0  0  0
 16 14  1  0  0  0  0
 16 17  1  0  0  0  0
 17 19  2  0  0  0  0
 18 20  1  0  0  0  0
 18  4  2  0  0  0  0
 19 20  1  0  0  0  0
 20  1  1  0  0  0  0
 22 31  1  0  0  0  0
 24 32  1  6  0  0  0
 24 29  1  0  0  0  0
 25 26  1  0  0  0  0
 25 24  1  0  0  0  0
 26 22  1  6  0  0  0
 26 28  1  0  0  0  0
 28 23  1  1  0  0  0
 28 27  1  0  0  0  0
 29 27  1  0  0  0  0
 30 21  1  1  0  0  0
 30 23  1  0  0  0  0
 31 30  1  0  0  0  0
 32 33  1  1  0  0  0
 34 32  1  0  0  0  0
M  END
>  <MODEL>
9

>  <REMARK>
 VINA RESULT:      -8.1      3.472     10.448
  Name = 
  3 active torsions:
  status: ('A' for Active; 'I' for Inactive)
    1  A    between atoms: C_7  and  C_11
    2  A    between atoms: C_8  and  C_18
    3  A    between atoms: C_18  and  C_30
                            x       y       z     vdW  Elec       q    Type
                         _______ _______ _______ _____ _____    ______ ____

>  <TORSDO>
F 3

$$$$
