=
 OpenBabel11052420433D

 43 48  0  0  1  0  0  0  0  0999 V2000
  187.6850  175.9620  141.2460 C   0  0  0  0  0  3  0  0  0  0  0  0
  190.5850  170.8230  136.7380 C   0  0  0  0  0  0  0  0  0  0  0  0
  188.7190  174.0580  140.1140 C   0  0  0  0  0  0  0  0  0  0  0  0
  189.2620  172.9840  142.7120 C   0  0  2  0  0  3  0  0  0  0  0  0
  189.3860  172.6180  137.8320 C   0  0  0  0  0  0  0  0  0  0  0  0
  191.1370  170.4410  137.9640 C   0  0  0  0  0  3  0  0  0  0  0  0
  190.9310  170.0730  135.5030 C   0  0  0  0  0  1  0  0  0  0  0  0
  189.9370  172.2370  139.0760 C   0  0  0  0  0  0  0  0  0  0  0  0
  189.7120  171.9120  136.6710 C   0  0  0  0  0  3  0  0  0  0  0  0
  190.8160  171.1440  139.1290 C   0  0  0  0  0  3  0  0  0  0  0  0
  190.2200  172.6470  141.5680 C   0  0  0  0  0  2  0  0  0  0  0  0
  189.5940  172.9600  140.2330 C   0  0  0  0  0  0  0  0  0  0  0  0
  188.2090  174.4000  138.8970 N   0  0  0  0  0  0  0  0  0  0  0  0
  188.3570  174.8120  141.3290 C   0  0  0  0  0  0  0  0  0  0  0  0
  188.7500  174.3090  142.5740 O   0  0  0  0  0  0  0  0  0  0  0  0
  188.5200  173.7100  137.7690 C   0  0  0  0  0  3  0  0  0  0  0  0
  186.6540  179.0160  143.2890 C   0  0  0  0  0  2  0  0  0  0  0  0
  185.3600  178.4360  143.6560 N   0  0  0  0  0  0  0  0  0  0  0  0
  185.9570  176.2910  142.9780 C   0  0  0  0  0  2  0  0  0  0  0  0
  187.2330  178.2470  142.1070 C   0  0  0  0  0  2  0  0  0  0  0  0
  187.3090  176.7610  142.4510 C   0  0  2  0  0  3  0  0  0  0  0  0
  185.5700  177.1200  144.1200 N   0  0  0  0  0  2  0  0  0  0  0  0
  185.6390  179.2240  145.8670 O   0  0  0  0  0  1  0  0  0  0  0  0
  184.7930  179.2210  144.7520 C   0  0  0  0  0  2  0  0  0  0  0  0
  189.9560  172.8470  144.0220 C   0  0  0  0  0  0  0  0  0  0  0  0
  189.4370  172.1390  144.9270 O   0  0  0  0  0  0  0  0  0  0  0  0
  191.1690  173.5040  144.2320 O   0  0  0  0  0  0  0  0  0  0  0  0
  192.3460  172.8200  144.6440 C   0  0  1  0  0  3  0  0  0  0  0  0
  192.9870  172.2920  143.5370 F   0  0  0  0  0  0  0  0  0  0  0  0
  193.2870  173.7870  145.3440 C   0  0  0  0  0  2  0  0  0  0  0  0
  193.3590  175.1160  144.6040 C   0  0  2  0  0  3  0  0  0  0  0  0
  194.0160  177.1960  145.3850 O   0  0  0  0  0  0  0  0  0  0  0  0
  194.6570  175.3510  144.1500 O   0  0  0  0  0  0  0  0  0  0  0  0
  193.0230  176.2360  145.5430 C   0  0  1  0  0  3  0  0  0  0  0  0
  195.1000  176.4750  144.8660 C   0  0  0  0  0  2  0  0  0  0  0  0
  190.5130  176.4130  145.9570 N   0  0  0  0  0  0  0  0  0  0  0  0
  191.6770  176.8110  145.2160 C   0  0  0  0  0  0  0  0  0  0  0  0
  188.0870  176.1240  146.0440 C   0  0  0  0  0  2  0  0  0  0  0  0
  189.3400  174.7370  147.2950 C   0  0  0  0  0  2  0  0  0  0  0  0
  188.2490  175.6220  147.3480 O   0  0  0  0  0  0  0  0  0  0  0  0
  190.6380  175.5230  147.1120 C   0  0  0  0  0  2  0  0  0  0  0  0
  189.2330  177.0790  145.7120 C   0  0  0  0  0  2  0  0  0  0  0  0
  191.5670  177.6220  144.2560 O   0  0  0  0  0  0  0  0  0  0  0  0
  1 14  2  0  0  0  0
  2  6  1  0  0  0  0
  3 12  1  0  0  0  0
  3 14  1  0  0  0  0
  4 25  1  1  0  0  0
  5  8  1  0  0  0  0
  6 10  2  0  0  0  0
  7  2  1  0  0  0  0
  8 10  1  0  0  0  0
  8 12  2  0  0  0  0
  9  2  2  0  0  0  0
  9  5  1  0  0  0  0
 11  4  1  0  0  0  0
 12 11  1  0  0  0  0
 13  3  2  0  0  0  0
 14 15  1  0  0  0  0
 15  4  1  0  0  0  0
 16  5  2  0  0  0  0
 16 13  1  0  0  0  0
 17 18  1  0  0  0  0
 18 22  1  0  0  0  0
 18 24  1  0  0  0  0
 19 22  1  0  0  0  0
 20 21  1  0  0  0  0
 20 17  1  0  0  0  0
 21  1  1  6  0  0  0
 21 19  1  0  0  0  0
 24 23  1  0  0  0  0
 25 27  1  0  0  0  0
 25 26  2  0  0  0  0
 27 28  1  0  0  0  0
 28 29  1  6  0  0  0
 28 30  1  0  0  0  0
 31 30  1  1  0  0  0
 31 34  1  0  0  0  0
 32 34  1  0  0  0  0
 33 31  1  0  0  0  0
 33 35  1  0  0  0  0
 34 37  1  6  0  0  0
 35 32  1  0  0  0  0
 36 41  1  0  0  0  0
 37 36  1  0  0  0  0
 38 40  1  0  0  0  0
 39 40  1  0  0  0  0
 41 39  1  0  0  0  0
 42 36  1  0  0  0  0
 42 38  1  0  0  0  0
 43 37  2  0  0  0  0
M  END
>  <MODEL>
1

>  <REMARK>
 VINA RESULT:      -8.2      0.000      0.000
  Name = 
  8 active torsions:
  status: ('A' for Active; 'I' for Inactive)
    1  A    between atoms: C_1  and  C_35
    2  A    between atoms: C_2  and  O_6
    3  A    between atoms: C_2  and  C_13
    4  A    between atoms: C_3  and  C_4
    5  A    between atoms: C_3  and  C_12
    6  A    between atoms: O_6  and  C_12
    7  A    between atoms: C_14  and  C_22
    8  A    between atoms: N_19  and  C_37
                            x       y       z     vdW  Elec       q    Type
                         _______ _______ _______ _____ _____    ______ ____

>  <TORSDO>
F 8

$$$$
=
 OpenBabel11052420433D

 43 48  0  0  1  0  0  0  0  0999 V2000
  190.3410  171.9560  142.9620 C   0  0  0  0  0  3  0  0  0  0  0  0
  196.6760  169.6890  146.1040 C   0  0  0  0  0  0  0  0  0  0  0  0
  192.4640  171.6060  144.1220 C   0  0  0  0  0  0  0  0  0  0  0  0
  192.4810  174.4210  144.6480 C   0  0  2  0  0  3  0  0  0  0  0  0
  194.4820  169.9790  145.1240 C   0  0  0  0  0  0  0  0  0  0  0  0
  196.8660  171.0740  146.0940 C   0  0  0  0  0  3  0  0  0  0  0  0
  197.7420  168.7980  146.6290 C   0  0  0  0  0  1  0  0  0  0  0  0
  194.6650  171.3800  145.1130 C   0  0  0  0  0  0  0  0  0  0  0  0
  195.4860  169.1410  145.6180 C   0  0  0  0  0  3  0  0  0  0  0  0
  195.8660  171.9170  145.6000 C   0  0  0  0  0  3  0  0  0  0  0  0
  193.8210  173.6980  144.5010 C   0  0  0  0  0  2  0  0  0  0  0  0
  193.6410  172.2050  144.6130 C   0  0  0  0  0  0  0  0  0  0  0  0
  192.3230  170.2510  144.1450 N   0  0  0  0  0  0  0  0  0  0  0  0
  191.3900  172.4740  143.6030 C   0  0  0  0  0  0  0  0  0  0  0  0
  191.5000  173.8580  143.7770 O   0  0  0  0  0  0  0  0  0  0  0  0
  193.2950  169.4360  144.6310 C   0  0  0  0  0  3  0  0  0  0  0  0
  188.0050  174.9550  142.6340 C   0  0  0  0  0  2  0  0  0  0  0  0
  188.5180  175.3150  141.3090 N   0  0  0  0  0  0  0  0  0  0  0  0
  189.6070  173.2780  141.0120 C   0  0  0  0  0  2  0  0  0  0  0  0
  188.9860  174.0070  143.3130 C   0  0  0  0  0  2  0  0  0  0  0  0
  189.2380  172.8000  142.4120 C   0  0  2  0  0  3  0  0  0  0  0  0
  188.5480  174.1540  140.5070 N   0  0  0  0  0  2  0  0  0  0  0  0
  187.8500  177.5750  141.1300 O   0  0  0  0  0  1  0  0  0  0  0  0
  187.5950  176.2680  140.6960 C   0  0  0  0  0  2  0  0  0  0  0  0
  192.6440  175.8710  144.3510 C   0  0  0  0  0  0  0  0  0  0  0  0
  193.7530  176.4280  144.5730 O   0  0  0  0  0  0  0  0  0  0  0  0
  191.5670  176.5950  143.8340 O   0  0  0  0  0  0  0  0  0  0  0  0
  191.0170  177.7240  144.5000 C   0  0  1  0  0  3  0  0  0  0  0  0
  191.2740  178.8670  143.7640 F   0  0  0  0  0  0  0  0  0  0  0  0
  189.5130  177.5570  144.6430 C   0  0  0  0  0  2  0  0  0  0  0  0
  189.1270  177.2860  146.0910 C   0  0  2  0  0  3  0  0  0  0  0  0
  188.2670  175.3570  147.0450 O   0  0  0  0  0  0  0  0  0  0  0  0
  190.1670  176.6410  146.7600 O   0  0  0  0  0  0  0  0  0  0  0  0
  187.9480  176.3600  146.1350 C   0  0  1  0  0  3  0  0  0  0  0  0
  189.6680  175.3670  147.0770 C   0  0  0  0  0  2  0  0  0  0  0  0
  185.7480  177.5360  145.6090 N   0  0  0  0  0  0  0  0  0  0  0  0
  186.7160  177.0960  146.5720 C   0  0  0  0  0  0  0  0  0  0  0  0
  183.9690  179.0950  144.9940 C   0  0  0  0  0  2  0  0  0  0  0  0
  185.2160  178.2420  143.3290 C   0  0  0  0  0  2  0  0  0  0  0  0
  183.8910  178.4340  143.7560 O   0  0  0  0  0  0  0  0  0  0  0  0
  185.8930  177.1810  144.1960 C   0  0  0  0  0  2  0  0  0  0  0  0
  184.4920  178.1360  146.0620 C   0  0  0  0  0  2  0  0  0  0  0  0
  186.5550  177.3600  147.7950 O   0  0  0  0  0  0  0  0  0  0  0  0
  1 14  2  0  0  0  0
  2  7  1  0  0  0  0
  3 13  2  0  0  0  0
  3 12  1  0  0  0  0
  4 25  1  6  0  0  0
  5  9  1  0  0  0  0
  6  2  1  0  0  0  0
  8  5  1  0  0  0  0
  8 10  1  0  0  0  0
  9  2  2  0  0  0  0
 10  6  2  0  0  0  0
 11 12  1  0  0  0  0
 11  4  1  0  0  0  0
 12  8  2  0  0  0  0
 13 16  1  0  0  0  0
 14 15  1  0  0  0  0
 14  3  1  0  0  0  0
 15  4  1  0  0  0  0
 16  5  2  0  0  0  0
 17 20  1  0  0  0  0
 18 17  1  0  0  0  0
 19 21  1  0  0  0  0
 21  1  1  1  0  0  0
 21 20  1  0  0  0  0
 22 19  1  0  0  0  0
 22 18  1  0  0  0  0
 24 23  1  0  0  0  0
 24 18  1  0  0  0  0
 25 26  2  0  0  0  0
 27 25  1  0  0  0  0
 27 28  1  0  0  0  0
 28 29  1  6  0  0  0
 28 30  1  0  0  0  0
 31 30  1  6  0  0  0
 31 34  1  0  0  0  0
 31 33  1  0  0  0  0
 32 35  1  0  0  0  0
 33 35  1  0  0  0  0
 34 37  1  1  0  0  0
 34 32  1  0  0  0  0
 36 42  1  0  0  0  0
 36 37  1  0  0  0  0
 37 43  2  0  0  0  0
 38 42  1  0  0  0  0
 39 40  1  0  0  0  0
 39 41  1  0  0  0  0
 40 38  1  0  0  0  0
 41 36  1  0  0  0  0
M  END
>  <MODEL>
2

>  <REMARK>
 VINA RESULT:      -8.0      2.787      6.524
  Name = 
  8 active torsions:
  status: ('A' for Active; 'I' for Inactive)
    1  A    between atoms: C_1  and  C_35
    2  A    between atoms: C_2  and  O_6
    3  A    between atoms: C_2  and  C_13
    4  A    between atoms: C_3  and  C_4
    5  A    between atoms: C_3  and  C_12
    6  A    between atoms: O_6  and  C_12
    7  A    between atoms: C_14  and  C_22
    8  A    between atoms: N_19  and  C_37
                            x       y       z     vdW  Elec       q    Type
                         _______ _______ _______ _____ _____    ______ ____

>  <TORSDO>
F 8

$$$$
=
 OpenBabel11052420433D

 43 48  0  0  1  0  0  0  0  0999 V2000
  187.5340  176.1300  141.6330 C   0  0  0  0  0  3  0  0  0  0  0  0
  190.6170  171.1140  137.1070 C   0  0  0  0  0  0  0  0  0  0  0  0
  188.6630  174.2840  140.4950 C   0  0  0  0  0  0  0  0  0  0  0  0
  189.4280  173.3370  143.0870 C   0  0  2  0  0  3  0  0  0  0  0  0
  189.3290  172.8360  138.2190 C   0  0  0  0  0  0  0  0  0  0  0  0
  191.2620  170.8160  138.3120 C   0  0  0  0  0  3  0  0  0  0  0  0
  190.9600  170.3580  135.8760 C   0  0  0  0  0  1  0  0  0  0  0  0
  189.9740  172.5400  139.4410 C   0  0  0  0  0  0  0  0  0  0  0  0
  189.6530  172.1240  137.0600 C   0  0  0  0  0  3  0  0  0  0  0  0
  190.9430  171.5250  139.4730 C   0  0  0  0  0  3  0  0  0  0  0  0
  190.3510  173.0460  141.9020 C   0  0  0  0  0  2  0  0  0  0  0  0
  189.6330  173.2660  140.5950 C   0  0  0  0  0  0  0  0  0  0  0  0
  188.0640  174.5460  139.3000 N   0  0  0  0  0  0  0  0  0  0  0  0
  188.3030  175.0420  141.7080 C   0  0  0  0  0  0  0  0  0  0  0  0
  188.8010  174.6110  142.9430 O   0  0  0  0  0  0  0  0  0  0  0  0
  188.3730  173.8500  138.1740 C   0  0  0  0  0  3  0  0  0  0  0  0
  186.1740  179.0770  143.6380 C   0  0  0  0  0  2  0  0  0  0  0  0
  185.0720  178.2930  144.2010 N   0  0  0  0  0  0  0  0  0  0  0  0
  185.9950  176.2540  143.5590 C   0  0  0  0  0  2  0  0  0  0  0  0
  186.7460  178.3460  142.4300 C   0  0  0  0  0  2  0  0  0  0  0  0
  187.1550  176.9310  142.8350 C   0  0  2  0  0  3  0  0  0  0  0  0
  185.5910  177.0790  144.6990 N   0  0  0  0  0  2  0  0  0  0  0  0
  184.3170  178.2120  146.4400 O   0  0  0  0  0  1  0  0  0  0  0  0
  184.4980  179.0350  145.3220 C   0  0  0  0  0  2  0  0  0  0  0  0
  190.1990  173.2970  144.3600 C   0  0  0  0  0  0  0  0  0  0  0  0
  191.4390  173.0770  144.3280 O   0  0  0  0  0  0  0  0  0  0  0  0
  189.5380  173.5020  145.5730 O   0  0  0  0  0  0  0  0  0  0  0  0
  189.5630  174.7500  146.2550 C   0  0  1  0  0  3  0  0  0  0  0  0
  188.7220  174.6950  147.3530 F   0  0  0  0  0  0  0  0  0  0  0  0
  190.9740  175.0520  146.7290 C   0  0  0  0  0  2  0  0  0  0  0  0
  191.4030  176.4550  146.3200 C   0  0  2  0  0  3  0  0  0  0  0  0
  191.3820  177.4440  144.2250 O   0  0  0  0  0  0  0  0  0  0  0  0
  190.2970  177.3030  146.2600 O   0  0  0  0  0  0  0  0  0  0  0  0
  191.9950  176.4220  144.9430 C   0  0  1  0  0  3  0  0  0  0  0  0
  190.1760  177.6560  144.9060 C   0  0  0  0  0  2  0  0  0  0  0  0
  194.3330  176.1120  143.9760 N   0  0  0  0  0  0  0  0  0  0  0  0
  193.4780  176.6350  145.0030 C   0  0  0  0  0  0  0  0  0  0  0  0
  196.5440  175.3210  143.2960 C   0  0  0  0  0  2  0  0  0  0  0  0
  194.7630  174.4450  142.2390 C   0  0  0  0  0  2  0  0  0  0  0  0
  196.0030  175.0700  142.0230 O   0  0  0  0  0  0  0  0  0  0  0  0
  193.7620  175.4560  142.7980 C   0  0  0  0  0  2  0  0  0  0  0  0
  195.7600  176.4390  143.9800 C   0  0  0  0  0  2  0  0  0  0  0  0
  193.9760  177.2470  145.9870 O   0  0  0  0  0  0  0  0  0  0  0  0
  1 14  2  0  0  0  0
  2  6  1  0  0  0  0
  3 12  1  0  0  0  0
  3 14  1  0  0  0  0
  4 25  1  1  0  0  0
  5  8  1  0  0  0  0
  6 10  2  0  0  0  0
  7  2  1  0  0  0  0
  8 10  1  0  0  0  0
  8 12  2  0  0  0  0
  9  2  2  0  0  0  0
  9  5  1  0  0  0  0
 11  4  1  0  0  0  0
 12 11  1  0  0  0  0
 13  3  2  0  0  0  0
 14 15  1  0  0  0  0
 15  4  1  0  0  0  0
 16  5  2  0  0  0  0
 16 13  1  0  0  0  0
 17 18  1  0  0  0  0
 18 22  1  0  0  0  0
 18 24  1  0  0  0  0
 19 22  1  0  0  0  0
 20 21  1  0  0  0  0
 20 17  1  0  0  0  0
 21  1  1  6  0  0  0
 21 19  1  0  0  0  0
 24 23  1  0  0  0  0
 25 27  1  0  0  0  0
 26 25  2  0  0  0  0
 27 28  1  0  0  0  0
 28 30  1  0  0  0  0
 28 29  1  1  0  0  0
 31 30  1  6  0  0  0
 32 35  1  0  0  0  0
 32 34  1  0  0  0  0
 33 31  1  0  0  0  0
 34 37  1  1  0  0  0
 34 31  1  0  0  0  0
 35 33  1  0  0  0  0
 36 42  1  0  0  0  0
 36 37  1  0  0  0  0
 37 43  2  0  0  0  0
 38 42  1  0  0  0  0
 39 41  1  0  0  0  0
 40 39  1  0  0  0  0
 40 38  1  0  0  0  0
 41 36  1  0  0  0  0
M  END
>  <MODEL>
3

>  <REMARK>
 VINA RESULT:      -7.8      1.598      3.344
  Name = 
  8 active torsions:
  status: ('A' for Active; 'I' for Inactive)
    1  A    between atoms: C_1  and  C_35
    2  A    between atoms: C_2  and  O_6
    3  A    between atoms: C_2  and  C_13
    4  A    between atoms: C_3  and  C_4
    5  A    between atoms: C_3  and  C_12
    6  A    between atoms: O_6  and  C_12
    7  A    between atoms: C_14  and  C_22
    8  A    between atoms: N_19  and  C_37
                            x       y       z     vdW  Elec       q    Type
                         _______ _______ _______ _____ _____    ______ ____

>  <TORSDO>
F 8

$$$$
=
 OpenBabel11052420433D

 43 48  0  0  1  0  0  0  0  0999 V2000
  189.4600  174.0300  141.2910 C   0  0  0  0  0  3  0  0  0  0  0  0
  185.5260  177.7630  146.3650 C   0  0  0  0  0  0  0  0  0  0  0  0
  188.5220  175.2690  143.1790 C   0  0  0  0  0  0  0  0  0  0  0  0
  191.0710  174.9850  144.4530 C   0  0  2  0  0  3  0  0  0  0  0  0
  186.4910  176.7130  144.4090 C   0  0  0  0  0  0  0  0  0  0  0  0
  186.6310  177.3680  147.1250 C   0  0  0  0  0  3  0  0  0  0  0  0
  184.4250  178.5310  147.0010 C   0  0  0  0  0  1  0  0  0  0  0  0
  187.6130  176.3120  145.1690 C   0  0  0  0  0  0  0  0  0  0  0  0
  185.4550  177.4350  145.0080 C   0  0  0  0  0  3  0  0  0  0  0  0
  187.6700  176.6450  146.5310 C   0  0  0  0  0  3  0  0  0  0  0  0
  189.8210  175.0640  145.3310 C   0  0  0  0  0  2  0  0  0  0  0  0
  188.6450  175.5880  144.5460 C   0  0  0  0  0  0  0  0  0  0  0  0
  187.4250  175.6690  142.4770 N   0  0  0  0  0  0  0  0  0  0  0  0
  189.6080  174.5140  142.5260 C   0  0  0  0  0  0  0  0  0  0  0  0
  190.7950  174.2950  143.2350 O   0  0  0  0  0  0  0  0  0  0  0  0
  186.4200  176.3760  143.0570 C   0  0  0  0  0  3  0  0  0  0  0  0
  191.3660  170.9700  140.0420 C   0  0  0  0  0  2  0  0  0  0  0  0
  191.1250  171.2920  138.6340 N   0  0  0  0  0  0  0  0  0  0  0  0
  190.4290  173.4660  139.0930 C   0  0  0  0  0  2  0  0  0  0  0  0
  190.3980  171.7620  140.9120 C   0  0  0  0  0  2  0  0  0  0  0  0
  190.5300  173.2520  140.6000 C   0  0  2  0  0  3  0  0  0  0  0  0
  191.4420  172.6510  138.4210 N   0  0  0  0  0  2  0  0  0  0  0  0
  192.4630  169.3470  138.5040 O   0  0  0  0  0  1  0  0  0  0  0  0
  192.0220  170.4820  137.8110 C   0  0  0  0  0  2  0  0  0  0  0  0
  192.1700  174.2960  145.1840 C   0  0  0  0  0  0  0  0  0  0  0  0
  192.4100  173.0830  144.9410 O   0  0  0  0  0  0  0  0  0  0  0  0
  192.9170  175.0010  146.1300 O   0  0  0  0  0  0  0  0  0  0  0  0
  193.4000  176.3170  145.8940 C   0  0  1  0  0  3  0  0  0  0  0  0
  194.3280  176.6510  146.8640 F   0  0  0  0  0  0  0  0  0  0  0  0
  194.0650  176.3880  144.5300 C   0  0  0  0  0  2  0  0  0  0  0  0
  195.5490  176.0580  144.6240 C   0  0  2  0  0  3  0  0  0  0  0  0
  196.8890  174.8840  143.1430 O   0  0  0  0  0  0  0  0  0  0  0  0
  196.3000  176.9860  143.9020 O   0  0  0  0  0  0  0  0  0  0  0  0
  195.8100  174.7180  144.0050 C   0  0  1  0  0  3  0  0  0  0  0  0
  196.8770  176.2550  142.8500 C   0  0  0  0  0  2  0  0  0  0  0  0
  195.8740  172.3090  144.8380 N   0  0  0  0  0  0  0  0  0  0  0  0
  196.1300  173.7030  145.0620 C   0  0  0  0  0  0  0  0  0  0  0  0
  195.4040  170.0940  145.7590 C   0  0  0  0  0  2  0  0  0  0  0  0
  194.5900  170.5580  143.7150 C   0  0  0  0  0  2  0  0  0  0  0  0
  195.3440  169.6170  144.4370 O   0  0  0  0  0  0  0  0  0  0  0  0
  195.3970  171.8430  143.5340 C   0  0  0  0  0  2  0  0  0  0  0  0
  196.3120  171.3210  145.8250 C   0  0  0  0  0  2  0  0  0  0  0  0
  196.5930  174.0900  146.1700 O   0  0  0  0  0  0  0  0  0  0  0  0
  1 14  2  0  0  0  0
  2  7  1  0  0  0  0
  2  6  1  0  0  0  0
  3 12  1  0  0  0  0
  4 25  1  1  0  0  0
  4 11  1  0  0  0  0
  5  9  1  0  0  0  0
  5  8  1  0  0  0  0
  8 10  1  0  0  0  0
  9  2  2  0  0  0  0
 10  6  2  0  0  0  0
 12  8  2  0  0  0  0
 12 11  1  0  0  0  0
 13 16  1  0  0  0  0
 13  3  2  0  0  0  0
 14  3  1  0  0  0  0
 14 15  1  0  0  0  0
 15  4  1  0  0  0  0
 16  5  2  0  0  0  0
 17 20  1  0  0  0  0
 18 17  1  0  0  0  0
 19 21  1  0  0  0  0
 21 20  1  0  0  0  0
 21  1  1  1  0  0  0
 22 18  1  0  0  0  0
 22 19  1  0  0  0  0
 24 23  1  0  0  0  0
 24 18  1  0  0  0  0
 25 27  1  0  0  0  0
 26 25  2  0  0  0  0
 28 27  1  0  0  0  0
 28 29  1  1  0  0  0
 30 28  1  0  0  0  0
 31 30  1  6  0  0  0
 32 34  1  0  0  0  0
 33 31  1  0  0  0  0
 34 31  1  0  0  0  0
 34 37  1  1  0  0  0
 35 32  1  0  0  0  0
 35 33  1  0  0  0  0
 36 37  1  0  0  0  0
 36 42  1  0  0  0  0
 37 43  2  0  0  0  0
 38 42  1  0  0  0  0
 39 40  1  0  0  0  0
 40 38  1  0  0  0  0
 41 39  1  0  0  0  0
 41 36  1  0  0  0  0
M  END
>  <MODEL>
4

>  <REMARK>
 VINA RESULT:      -7.8      2.907      7.561
  Name = 
  8 active torsions:
  status: ('A' for Active; 'I' for Inactive)
    1  A    between atoms: C_1  and  C_35
    2  A    between atoms: C_2  and  O_6
    3  A    between atoms: C_2  and  C_13
    4  A    between atoms: C_3  and  C_4
    5  A    between atoms: C_3  and  C_12
    6  A    between atoms: O_6  and  C_12
    7  A    between atoms: C_14  and  C_22
    8  A    between atoms: N_19  and  C_37
                            x       y       z     vdW  Elec       q    Type
                         _______ _______ _______ _____ _____    ______ ____

>  <TORSDO>
F 8

$$$$
=
 OpenBabel11052420433D

 43 48  0  0  1  0  0  0  0  0999 V2000
  188.9370  174.3770  140.9660 C   0  0  0  0  0  3  0  0  0  0  0  0
  185.5200  178.0460  146.4440 C   0  0  0  0  0  0  0  0  0  0  0  0
  188.1980  175.6950  142.8880 C   0  0  0  0  0  0  0  0  0  0  0  0
  190.9660  176.0920  143.5050 C   0  0  2  0  0  3  0  0  0  0  0  0
  186.2290  176.9060  144.4300 C   0  0  0  0  0  0  0  0  0  0  0  0
  186.8260  177.9860  146.9400 C   0  0  0  0  0  3  0  0  0  0  0  0
  184.4490  178.6830  147.2520 C   0  0  0  0  0  1  0  0  0  0  0  0
  187.5520  176.8430  144.9220 C   0  0  0  0  0  0  0  0  0  0  0  0
  185.2210  177.5050  145.1910 C   0  0  0  0  0  3  0  0  0  0  0  0
  187.8380  177.3870  146.1830 C   0  0  0  0  0  3  0  0  0  0  0  0
  189.9580  176.0700  144.6550 C   0  0  0  0  0  2  0  0  0  0  0  0
  188.5510  176.2370  144.1390 C   0  0  0  0  0  0  0  0  0  0  0  0
  186.9120  175.7700  142.4460 N   0  0  0  0  0  0  0  0  0  0  0  0
  189.2490  175.0640  142.0660 C   0  0  0  0  0  0  0  0  0  0  0  0
  190.5820  175.1830  142.4740 O   0  0  0  0  0  0  0  0  0  0  0  0
  185.9320  176.3570  143.1820 C   0  0  0  0  0  3  0  0  0  0  0  0
  191.0410  171.5470  139.5080 C   0  0  0  0  0  2  0  0  0  0  0  0
  190.4910  171.7200  138.1620 N   0  0  0  0  0  0  0  0  0  0  0  0
  189.5540  173.7950  138.6480 C   0  0  0  0  0  2  0  0  0  0  0  0
  190.1390  172.2510  140.5150 C   0  0  0  0  0  2  0  0  0  0  0  0
  189.9700  173.7150  140.1130 C   0  0  2  0  0  3  0  0  0  0  0  0
  190.5400  173.0900  137.8270 N   0  0  0  0  0  2  0  0  0  0  0  0
  190.5910  170.5130  136.1320 O   0  0  0  0  0  1  0  0  0  0  0  0
  191.3360  170.9910  137.2170 C   0  0  0  0  0  2  0  0  0  0  0  0
  192.3240  175.7410  144.0050 C   0  0  0  0  0  0  0  0  0  0  0  0
  193.2750  176.5520  143.8380 O   0  0  0  0  0  0  0  0  0  0  0  0
  192.5280  174.5190  144.6490 O   0  0  0  0  0  0  0  0  0  0  0  0
  193.4040  174.3790  145.7590 C   0  0  1  0  0  3  0  0  0  0  0  0
  192.6920  174.5380  146.9350 F   0  0  0  0  0  0  0  0  0  0  0  0
  194.0360  172.9970  145.7480 C   0  0  0  0  0  2  0  0  0  0  0  0
  193.7360  172.2660  144.4470 C   0  0  2  0  0  3  0  0  0  0  0  0
  195.1160  170.9110  143.1720 O   0  0  0  0  0  0  0  0  0  0  0  0
  193.3860  170.9400  144.7030 O   0  0  0  0  0  0  0  0  0  0  0  0
  194.9670  172.2280  143.5920 C   0  0  1  0  0  3  0  0  0  0  0  0
  194.4130  170.1700  144.1320 C   0  0  0  0  0  2  0  0  0  0  0  0
  195.5460  174.3790  142.3520 N   0  0  0  0  0  0  0  0  0  0  0  0
  194.8190  173.1440  142.4140 C   0  0  0  0  0  0  0  0  0  0  0  0
  195.7220  176.6630  141.4990 C   0  0  0  0  0  2  0  0  0  0  0  0
  196.6490  176.2340  143.5020 C   0  0  0  0  0  2  0  0  0  0  0  0
  196.9110  176.7900  142.2380 O   0  0  0  0  0  0  0  0  0  0  0  0
  196.5270  174.7140  143.3860 C   0  0  0  0  0  2  0  0  0  0  0  0
  195.4900  175.1970  141.1390 C   0  0  0  0  0  2  0  0  0  0  0  0
  194.0160  172.8380  141.4900 O   0  0  0  0  0  0  0  0  0  0  0  0
  1 14  2  0  0  0  0
  2  6  1  0  0  0  0
  2  7  1  0  0  0  0
  3 12  1  0  0  0  0
  4 25  1  1  0  0  0
  4 11  1  0  0  0  0
  5  8  1  0  0  0  0
  5  9  1  0  0  0  0
  8 10  1  0  0  0  0
  9  2  2  0  0  0  0
 10  6  2  0  0  0  0
 12 11  1  0  0  0  0
 12  8  2  0  0  0  0
 13  3  2  0  0  0  0
 13 16  1  0  0  0  0
 14 15  1  0  0  0  0
 14  3  1  0  0  0  0
 15  4  1  0  0  0  0
 16  5  2  0  0  0  0
 17 20  1  0  0  0  0
 18 17  1  0  0  0  0
 19 21  1  0  0  0  0
 21 20  1  0  0  0  0
 21  1  1  1  0  0  0
 22 18  1  0  0  0  0
 22 19  1  0  0  0  0
 23 24  1  0  0  0  0
 24 18  1  0  0  0  0
 25 27  1  0  0  0  0
 26 25  2  0  0  0  0
 27 28  1  0  0  0  0
 28 29  1  1  0  0  0
 30 28  1  0  0  0  0
 31 33  1  0  0  0  0
 31 30  1  1  0  0  0
 32 34  1  0  0  0  0
 32 35  1  0  0  0  0
 34 37  1  6  0  0  0
 34 31  1  0  0  0  0
 35 33  1  0  0  0  0
 36 37  1  0  0  0  0
 36 41  1  0  0  0  0
 38 40  1  0  0  0  0
 40 39  1  0  0  0  0
 41 39  1  0  0  0  0
 42 38  1  0  0  0  0
 42 36  1  0  0  0  0
 43 37  2  0  0  0  0
M  END
>  <MODEL>
5

>  <REMARK>
 VINA RESULT:      -7.7      2.794      7.638
  Name = 
  8 active torsions:
  status: ('A' for Active; 'I' for Inactive)
    1  A    between atoms: C_1  and  C_35
    2  A    between atoms: C_2  and  O_6
    3  A    between atoms: C_2  and  C_13
    4  A    between atoms: C_3  and  C_4
    5  A    between atoms: C_3  and  C_12
    6  A    between atoms: O_6  and  C_12
    7  A    between atoms: C_14  and  C_22
    8  A    between atoms: N_19  and  C_37
                            x       y       z     vdW  Elec       q    Type
                         _______ _______ _______ _____ _____    ______ ____

>  <TORSDO>
F 8

$$$$
=
 OpenBabel11052420433D

 43 48  0  0  1  0  0  0  0  0999 V2000
  189.2230  173.6870  139.8100 C   0  0  0  0  0  3  0  0  0  0  0  0
  185.9860  178.9780  143.8940 C   0  0  0  0  0  0  0  0  0  0  0  0
  188.4140  175.3010  141.4590 C   0  0  0  0  0  0  0  0  0  0  0  0
  190.1720  174.0490  143.3410 C   0  0  2  0  0  3  0  0  0  0  0  0
  186.9150  177.5210  142.1990 C   0  0  0  0  0  0  0  0  0  0  0  0
  186.5800  178.1990  144.8920 C   0  0  0  0  0  3  0  0  0  0  0  0
  185.1750  180.1660  144.2640 C   0  0  0  0  0  1  0  0  0  0  0  0
  187.5210  176.7300  143.2000 C   0  0  0  0  0  0  0  0  0  0  0  0
  186.1510  178.6380  142.5480 C   0  0  0  0  0  3  0  0  0  0  0  0
  187.3430  177.0800  144.5480 C   0  0  0  0  0  3  0  0  0  0  0  0
  188.8820  174.6870  143.8600 C   0  0  0  0  0  2  0  0  0  0  0  0
  188.2860  175.6100  142.8270 C   0  0  0  0  0  0  0  0  0  0  0  0
  187.8130  176.0840  140.5190 N   0  0  0  0  0  0  0  0  0  0  0  0
  189.2210  174.1290  141.0680 C   0  0  0  0  0  0  0  0  0  0  0  0
  189.9720  173.4740  142.0500 O   0  0  0  0  0  0  0  0  0  0  0  0
  187.0760  177.1740  140.8570 C   0  0  0  0  0  3  0  0  0  0  0  0
  190.1170  170.5660  137.8050 C   0  0  0  0  0  2  0  0  0  0  0  0
  191.3080  171.1840  137.2160 N   0  0  0  0  0  0  0  0  0  0  0  0
  191.3160  172.9600  138.7220 C   0  0  0  0  0  2  0  0  0  0  0  0
  189.2200  171.6530  138.3850 C   0  0  0  0  0  2  0  0  0  0  0  0
  190.0170  172.4990  139.3760 C   0  0  2  0  0  3  0  0  0  0  0  0
  192.0570  171.7910  138.2460 N   0  0  0  0  0  2  0  0  0  0  0  0
  192.6130  169.2480  137.5830 O   0  0  0  0  0  1  0  0  0  0  0  0
  192.1280  170.1340  136.6140 C   0  0  0  0  0  2  0  0  0  0  0  0
  190.6460  173.0050  144.2900 C   0  0  0  0  0  0  0  0  0  0  0  0
  189.9110  172.0120  144.5370 O   0  0  0  0  0  0  0  0  0  0  0  0
  191.8980  173.1400  144.8950 O   0  0  0  0  0  0  0  0  0  0  0  0
  193.0180  172.3530  144.5130 C   0  0  1  0  0  3  0  0  0  0  0  0
  192.8260  171.8630  143.2330 F   0  0  0  0  0  0  0  0  0  0  0  0
  194.2780  173.2030  144.5310 C   0  0  0  0  0  2  0  0  0  0  0  0
  194.1850  174.3450  143.5280 C   0  0  2  0  0  3  0  0  0  0  0  0
  195.2290  176.4130  143.5560 O   0  0  0  0  0  0  0  0  0  0  0  0
  195.2540  174.2950  142.6330 O   0  0  0  0  0  0  0  0  0  0  0  0
  194.2850  175.6580  144.2440 C   0  0  1  0  0  3  0  0  0  0  0  0
  196.0040  175.4550  142.8890 C   0  0  0  0  0  2  0  0  0  0  0  0
  192.2090  176.4860  145.4720 N   0  0  0  0  0  0  0  0  0  0  0  0
  192.9570  176.3550  144.2540 C   0  0  0  0  0  0  0  0  0  0  0  0
  190.0480  176.7570  146.5800 C   0  0  0  0  0  2  0  0  0  0  0  0
  191.6520  175.6500  147.7010 C   0  0  0  0  0  2  0  0  0  0  0  0
  190.7320  176.7070  147.8080 O   0  0  0  0  0  0  0  0  0  0  0  0
  192.7790  176.0370  146.7430 C   0  0  0  0  0  2  0  0  0  0  0  0
  190.9800  177.2810  145.4890 C   0  0  0  0  0  2  0  0  0  0  0  0
  192.4810  176.7940  143.1710 O   0  0  0  0  0  0  0  0  0  0  0  0
  1 14  2  0  0  0  0
  2  7  1  0  0  0  0
  2  6  1  0  0  0  0
  3 12  1  0  0  0  0
  4 11  1  0  0  0  0
  4 25  1  1  0  0  0
  5  9  1  0  0  0  0
  5  8  1  0  0  0  0
  8 10  1  0  0  0  0
  9  2  2  0  0  0  0
 10  6  2  0  0  0  0
 12  8  2  0  0  0  0
 12 11  1  0  0  0  0
 13 16  1  0  0  0  0
 13  3  2  0  0  0  0
 14  3  1  0  0  0  0
 14 15  1  0  0  0  0
 15  4  1  0  0  0  0
 16  5  2  0  0  0  0
 17 20  1  0  0  0  0
 18 17  1  0  0  0  0
 18 22  1  0  0  0  0
 19 21  1  0  0  0  0
 20 21  1  0  0  0  0
 21  1  1  6  0  0  0
 22 19  1  0  0  0  0
 24 18  1  0  0  0  0
 24 23  1  0  0  0  0
 25 26  2  0  0  0  0
 25 27  1  0  0  0  0
 28 29  1  6  0  0  0
 28 30  1  0  0  0  0
 28 27  1  0  0  0  0
 31 34  1  0  0  0  0
 31 30  1  1  0  0  0
 32 34  1  0  0  0  0
 33 35  1  0  0  0  0
 33 31  1  0  0  0  0
 34 37  1  6  0  0  0
 35 32  1  0  0  0  0
 36 42  1  0  0  0  0
 36 41  1  0  0  0  0
 37 36  1  0  0  0  0
 38 40  1  0  0  0  0
 39 40  1  0  0  0  0
 41 39  1  0  0  0  0
 42 38  1  0  0  0  0
 43 37  2  0  0  0  0
M  END
>  <MODEL>
6

>  <REMARK>
 VINA RESULT:      -7.7      2.098      6.467
  Name = 
  8 active torsions:
  status: ('A' for Active; 'I' for Inactive)
    1  A    between atoms: C_1  and  C_35
    2  A    between atoms: C_2  and  O_6
    3  A    between atoms: C_2  and  C_13
    4  A    between atoms: C_3  and  C_4
    5  A    between atoms: C_3  and  C_12
    6  A    between atoms: O_6  and  C_12
    7  A    between atoms: C_14  and  C_22
    8  A    between atoms: N_19  and  C_37
                            x       y       z     vdW  Elec       q    Type
                         _______ _______ _______ _____ _____    ______ ____

>  <TORSDO>
F 8

$$$$
=
 OpenBabel11052420433D

 43 48  0  0  1  0  0  0  0  0999 V2000
  188.9650  176.4430  145.8890 C   0  0  0  0  0  3  0  0  0  0  0  0
  195.9320  173.8900  145.5890 C   0  0  0  0  0  0  0  0  0  0  0  0
  191.1320  175.4020  145.4450 C   0  0  0  0  0  0  0  0  0  0  0  0
  189.8780  174.0480  143.2550 C   0  0  2  0  0  3  0  0  0  0  0  0
  193.8500  175.0790  145.9240 C   0  0  0  0  0  0  0  0  0  0  0  0
  195.2840  172.9910  144.7360 C   0  0  0  0  0  3  0  0  0  0  0  0
  197.3830  173.7340  145.8660 C   0  0  0  0  0  1  0  0  0  0  0  0
  193.1880  174.1770  145.0620 C   0  0  0  0  0  0  0  0  0  0  0  0
  195.2160  174.9320  146.1850 C   0  0  0  0  0  3  0  0  0  0  0  0
  193.9180  173.1330  144.4730 C   0  0  0  0  0  3  0  0  0  0  0  0
  191.0450  173.3600  143.9670 C   0  0  0  0  0  2  0  0  0  0  0  0
  191.8140  174.3440  144.8120 C   0  0  0  0  0  0  0  0  0  0  0  0
  191.8020  176.2510  146.2750 N   0  0  0  0  0  0  0  0  0  0  0  0
  189.6920  175.5780  145.1780 C   0  0  0  0  0  0  0  0  0  0  0  0
  189.0940  174.8050  144.1770 O   0  0  0  0  0  0  0  0  0  0  0  0
  193.1300  176.1130  146.5230 C   0  0  0  0  0  3  0  0  0  0  0  0
  185.3300  177.2620  146.7110 C   0  0  0  0  0  2  0  0  0  0  0  0
  185.3110  178.4380  145.8370 N   0  0  0  0  0  0  0  0  0  0  0  0
  187.2860  177.8530  144.7540 C   0  0  0  0  0  2  0  0  0  0  0  0
  186.7740  176.8610  146.9820 C   0  0  0  0  0  2  0  0  0  0  0  0
  187.5030  176.6430  145.6570 C   0  0  2  0  0  3  0  0  0  0  0  0
  185.8500  178.0770  144.5840 N   0  0  0  0  0  2  0  0  0  0  0  0
  183.6530  179.0900  144.2820 O   0  0  0  0  0  1  0  0  0  0  0  0
  183.9210  178.8440  145.6340 C   0  0  0  0  0  2  0  0  0  0  0  0
  189.0210  173.0380  142.5770 C   0  0  0  0  0  0  0  0  0  0  0  0
  188.7860  171.9400  143.1510 O   0  0  0  0  0  0  0  0  0  0  0  0
  188.4920  173.3160  141.3160 O   0  0  0  0  0  0  0  0  0  0  0  0
  188.9200  172.6370  140.1420 C   0  0  1  0  0  3  0  0  0  0  0  0
  188.0390  172.9000  139.1070 F   0  0  0  0  0  0  0  0  0  0  0  0
  190.3060  173.1170  139.7440 C   0  0  0  0  0  2  0  0  0  0  0  0
  191.2960  171.9610  139.7020 C   0  0  2  0  0  3  0  0  0  0  0  0
  192.8150  171.2700  141.3090 O   0  0  0  0  0  0  0  0  0  0  0  0
  190.7630  170.8400  140.3390 O   0  0  0  0  0  0  0  0  0  0  0  0
  192.5390  172.3310  140.4540 C   0  0  1  0  0  3  0  0  0  0  0  0
  191.5760  170.6330  141.4650 C   0  0  0  0  0  2  0  0  0  0  0  0
  194.6220  173.6140  139.7370 N   0  0  0  0  0  0  0  0  0  0  0  0
  193.6800  172.5560  139.5070 C   0  0  0  0  0  0  0  0  0  0  0  0
  196.2510  175.1970  138.8340 C   0  0  0  0  0  2  0  0  0  0  0  0
  195.1360  175.8070  140.6880 C   0  0  0  0  0  2  0  0  0  0  0  0
  196.4250  175.6820  140.1420 O   0  0  0  0  0  0  0  0  0  0  0  0
  194.5470  174.4220  140.9560 C   0  0  0  0  0  2  0  0  0  0  0  0
  195.8010  173.7380  138.8780 C   0  0  0  0  0  2  0  0  0  0  0  0
  193.7850  171.8300  138.4810 O   0  0  0  0  0  0  0  0  0  0  0  0
  2  7  1  0  0  0  0
  2  9  1  0  0  0  0
  3 13  1  0  0  0  0
  4 25  1  1  0  0  0
  4 11  1  0  0  0  0
  4 15  1  0  0  0  0
  5  9  2  0  0  0  0
  5 16  1  0  0  0  0
  6  2  2  0  0  0  0
  8  5  1  0  0  0  0
 10  6  1  0  0  0  0
 10  8  2  0  0  0  0
 11 12  1  0  0  0  0
 12  8  1  0  0  0  0
 12  3  2  0  0  0  0
 13 16  2  0  0  0  0
 14  3  1  0  0  0  0
 14  1  2  0  0  0  0
 15 14  1  0  0  0  0
 17 20  1  0  0  0  0
 18 17  1  0  0  0  0
 19 21  1  0  0  0  0
 21  1  1  1  0  0  0
 21 20  1  0  0  0  0
 22 19  1  0  0  0  0
 22 18  1  0  0  0  0
 23 24  1  0  0  0  0
 24 18  1  0  0  0  0
 25 26  2  0  0  0  0
 27 25  1  0  0  0  0
 28 29  1  6  0  0  0
 28 27  1  0  0  0  0
 30 28  1  0  0  0  0
 31 30  1  1  0  0  0
 31 33  1  0  0  0  0
 31 34  1  0  0  0  0
 32 35  1  0  0  0  0
 33 35  1  0  0  0  0
 34 37  1  6  0  0  0
 34 32  1  0  0  0  0
 36 41  1  0  0  0  0
 37 36  1  0  0  0  0
 38 42  1  0  0  0  0
 38 40  1  0  0  0  0
 39 41  1  0  0  0  0
 40 39  1  0  0  0  0
 42 36  1  0  0  0  0
 43 37  2  0  0  0  0
M  END
>  <MODEL>
7

>  <REMARK>
 VINA RESULT:      -7.6      3.059      6.937
  Name = 
  8 active torsions:
  status: ('A' for Active; 'I' for Inactive)
    1  A    between atoms: C_1  and  C_35
    2  A    between atoms: C_2  and  O_6
    3  A    between atoms: C_2  and  C_13
    4  A    between atoms: C_3  and  C_4
    5  A    between atoms: C_3  and  C_12
    6  A    between atoms: O_6  and  C_12
    7  A    between atoms: C_14  and  C_22
    8  A    between atoms: N_19  and  C_37
                            x       y       z     vdW  Elec       q    Type
                         _______ _______ _______ _____ _____    ______ ____

>  <TORSDO>
F 8

$$$$
=
 OpenBabel11052420433D

 43 48  0  0  1  0  0  0  0  0999 V2000
  189.3170  176.5750  146.8360 C   0  0  0  0  0  3  0  0  0  0  0  0
  196.0020  175.6800  143.7290 C   0  0  0  0  0  0  0  0  0  0  0  0
  191.3430  176.4510  145.4730 C   0  0  0  0  0  0  0  0  0  0  0  0
  189.7790  177.4740  143.3030 C   0  0  2  0  0  3  0  0  0  0  0  0
  194.0620  175.9790  145.1450 C   0  0  0  0  0  0  0  0  0  0  0  0
  195.2060  175.8670  142.5940 C   0  0  0  0  0  3  0  0  0  0  0  0
  197.4570  175.4210  143.5790 C   0  0  0  0  0  1  0  0  0  0  0  0
  193.2500  176.1720  144.0040 C   0  0  0  0  0  0  0  0  0  0  0  0
  195.4310  175.7340  145.0030 C   0  0  0  0  0  3  0  0  0  0  0  0
  193.8360  176.1110  142.7300 C   0  0  0  0  0  3  0  0  0  0  0  0
  190.9530  176.5460  142.9830 C   0  0  0  0  0  2  0  0  0  0  0  0
  191.8760  176.4180  144.1690 C   0  0  0  0  0  0  0  0  0  0  0  0
  192.1540  176.2580  146.5510 N   0  0  0  0  0  0  0  0  0  0  0  0
  189.9020  176.7150  145.6450 C   0  0  0  0  0  0  0  0  0  0  0  0
  189.1510  177.0960  144.5270 O   0  0  0  0  0  0  0  0  0  0  0  0
  193.4860  176.0260  146.4150 C   0  0  0  0  0  3  0  0  0  0  0  0
  186.1090  178.5600  147.4100 C   0  0  0  0  0  2  0  0  0  0  0  0
  185.5340  178.1600  146.1230 N   0  0  0  0  0  0  0  0  0  0  0  0
  187.0860  176.4590  145.7850 C   0  0  0  0  0  2  0  0  0  0  0  0
  187.6080  178.2880  147.3960 C   0  0  0  0  0  2  0  0  0  0  0  0
  187.8590  176.8210  147.0490 C   0  0  2  0  0  3  0  0  0  0  0  0
  185.6680  176.7630  145.9830 N   0  0  0  0  0  2  0  0  0  0  0  0
  183.6920  178.9900  144.8950 O   0  0  0  0  0  1  0  0  0  0  0  0
  184.1070  178.4810  146.1310 C   0  0  0  0  0  2  0  0  0  0  0  0
  188.7850  177.4440  142.1960 C   0  0  0  0  0  0  0  0  0  0  0  0
  188.2450  178.5190  141.8180 O   0  0  0  0  0  0  0  0  0  0  0  0
  188.4590  176.2270  141.5930 O   0  0  0  0  0  0  0  0  0  0  0  0
  187.8090  175.1770  142.2970 C   0  0  1  0  0  3  0  0  0  0  0  0
  186.4730  175.4950  142.4740 F   0  0  0  0  0  0  0  0  0  0  0  0
  187.9070  173.8840  141.5040 C   0  0  0  0  0  2  0  0  0  0  0  0
  188.8780  174.0270  140.3400 C   0  0  2  0  0  3  0  0  0  0  0  0
  189.5970  172.4300  138.8230 O   0  0  0  0  0  0  0  0  0  0  0  0
  188.1820  174.2280  139.1480 O   0  0  0  0  0  0  0  0  0  0  0  0
  189.6590  172.7580  140.1730 C   0  0  1  0  0  3  0  0  0  0  0  0
  188.4450  173.0880  138.3700 C   0  0  0  0  0  2  0  0  0  0  0  0
  191.5450  172.4380  141.8590 N   0  0  0  0  0  0  0  0  0  0  0  0
  191.0820  172.9560  140.6030 C   0  0  0  0  0  0  0  0  0  0  0  0
  193.1210  172.5690  143.7230 C   0  0  0  0  0  2  0  0  0  0  0  0
  191.0700  171.7560  144.1590 C   0  0  0  0  0  2  0  0  0  0  0  0
  192.4420  171.4840  144.3030 O   0  0  0  0  0  0  0  0  0  0  0  0
  190.6640  171.6170  142.6920 C   0  0  0  0  0  2  0  0  0  0  0  0
  192.9650  172.5260  142.2040 C   0  0  0  0  0  2  0  0  0  0  0  0
  191.8650  173.6170  139.8660 O   0  0  0  0  0  0  0  0  0  0  0  0
  2  9  1  0  0  0  0
  3 14  1  0  0  0  0
  3 13  1  0  0  0  0
  4 25  1  6  0  0  0
  4 15  1  0  0  0  0
  5 16  1  0  0  0  0
  6 10  1  0  0  0  0
  6  2  2  0  0  0  0
  7  2  1  0  0  0  0
  8 12  1  0  0  0  0
  8  5  1  0  0  0  0
  9  5  2  0  0  0  0
 10  8  2  0  0  0  0
 11  4  1  0  0  0  0
 11 12  1  0  0  0  0
 12  3  2  0  0  0  0
 14  1  2  0  0  0  0
 15 14  1  0  0  0  0
 16 13  2  0  0  0  0
 18 24  1  0  0  0  0
 18 17  1  0  0  0  0
 19 22  1  0  0  0  0
 19 21  1  0  0  0  0
 20 17  1  0  0  0  0
 21  1  1  6  0  0  0
 21 20  1  0  0  0  0
 22 18  1  0  0  0  0
 23 24  1  0  0  0  0
 26 25  2  0  0  0  0
 27 25  1  0  0  0  0
 27 28  1  0  0  0  0
 28 29  1  6  0  0  0
 30 28  1  0  0  0  0
 31 30  1  1  0  0  0
 32 34  1  0  0  0  0
 33 31  1  0  0  0  0
 34 31  1  0  0  0  0
 34 37  1  6  0  0  0
 35 32  1  0  0  0  0
 35 33  1  0  0  0  0
 36 42  1  0  0  0  0
 36 41  1  0  0  0  0
 37 36  1  0  0  0  0
 38 40  1  0  0  0  0
 39 40  1  0  0  0  0
 41 39  1  0  0  0  0
 42 38  1  0  0  0  0
 43 37  2  0  0  0  0
M  END
>  <MODEL>
8

>  <REMARK>
 VINA RESULT:      -7.6      2.598      6.706
  Name = 
  8 active torsions:
  status: ('A' for Active; 'I' for Inactive)
    1  A    between atoms: C_1  and  C_35
    2  A    between atoms: C_2  and  O_6
    3  A    between atoms: C_2  and  C_13
    4  A    between atoms: C_3  and  C_4
    5  A    between atoms: C_3  and  C_12
    6  A    between atoms: O_6  and  C_12
    7  A    between atoms: C_14  and  C_22
    8  A    between atoms: N_19  and  C_37
                            x       y       z     vdW  Elec       q    Type
                         _______ _______ _______ _____ _____    ______ ____

>  <TORSDO>
F 8

$$$$
=
 OpenBabel11052420433D

 43 48  0  0  1  0  0  0  0  0999 V2000
  187.6000  175.6250  141.7680 C   0  0  0  0  0  3  0  0  0  0  0  0
  190.6620  171.2820  136.5800 C   0  0  0  0  0  0  0  0  0  0  0  0
  188.6980  173.9390  140.3780 C   0  0  0  0  0  0  0  0  0  0  0  0
  189.3070  172.5390  142.8010 C   0  0  2  0  0  3  0  0  0  0  0  0
  189.4010  172.8580  137.9170 C   0  0  0  0  0  0  0  0  0  0  0  0
  191.2400  170.7560  137.7400 C   0  0  0  0  0  3  0  0  0  0  0  0
  191.0260  170.7250  135.2520 C   0  0  0  0  0  1  0  0  0  0  0  0
  189.9780  172.3310  139.0940 C   0  0  0  0  0  0  0  0  0  0  0  0
  189.7450  172.3330  136.6680 C   0  0  0  0  0  3  0  0  0  0  0  0
  190.9010  171.2780  138.9920 C   0  0  0  0  0  3  0  0  0  0  0  0
  190.2680  172.4030  141.6180 C   0  0  0  0  0  2  0  0  0  0  0  0
  189.6180  172.8720  140.3410 C   0  0  0  0  0  0  0  0  0  0  0  0
  188.1640  174.4250  139.2230 N   0  0  0  0  0  0  0  0  0  0  0  0
  188.3170  174.5030  141.6880 C   0  0  0  0  0  0  0  0  0  0  0  0
  188.7410  173.8480  142.8500 O   0  0  0  0  0  0  0  0  0  0  0  0
  188.4920  173.9120  138.0080 C   0  0  0  0  0  3  0  0  0  0  0  0
  187.5830  178.1280  144.6480 C   0  0  0  0  0  2  0  0  0  0  0  0
  186.2000  178.5370  144.3930 N   0  0  0  0  0  0  0  0  0  0  0  0
  185.7630  176.7300  142.9920 C   0  0  0  0  0  2  0  0  0  0  0  0
  188.1250  177.3990  143.4240 C   0  0  0  0  0  2  0  0  0  0  0  0
  187.2030  176.2330  143.0730 C   0  0  2  0  0  3  0  0  0  0  0  0
  185.4050  177.3790  144.2540 N   0  0  0  0  0  2  0  0  0  0  0  0
  184.3390  179.1060  145.7350 O   0  0  0  0  0  1  0  0  0  0  0  0
  185.7150  179.2850  145.5530 C   0  0  0  0  0  2  0  0  0  0  0  0
  190.0170  172.2500  144.0760 C   0  0  0  0  0  0  0  0  0  0  0  0
  189.3720  171.7840  145.0540 O   0  0  0  0  0  0  0  0  0  0  0  0
  191.3880  172.5000  144.1750 O   0  0  0  0  0  0  0  0  0  0  0  0
  191.9050  173.7170  144.6970 C   0  0  1  0  0  3  0  0  0  0  0  0
  191.0820  174.1730  145.7120 F   0  0  0  0  0  0  0  0  0  0  0  0
  193.2990  173.4880  145.2580 C   0  0  0  0  0  2  0  0  0  0  0  0
  194.0590  174.8000  145.3940 C   0  0  2  0  0  3  0  0  0  0  0  0
  193.3200  176.9680  145.0440 O   0  0  0  0  0  0  0  0  0  0  0  0
  193.8180  175.3750  146.6420 O   0  0  0  0  0  0  0  0  0  0  0  0
  193.5680  175.7780  144.3680 C   0  0  1  0  0  3  0  0  0  0  0  0
  193.1240  176.5660  146.3720 C   0  0  0  0  0  2  0  0  0  0  0  0
  194.3230  175.6280  141.9380 N   0  0  0  0  0  0  0  0  0  0  0  0
  194.6010  175.9830  143.3000 C   0  0  0  0  0  0  0  0  0  0  0  0
  195.1550  174.9580  139.7390 C   0  0  0  0  0  2  0  0  0  0  0  0
  193.1030  174.2510  140.3270 C   0  0  0  0  0  2  0  0  0  0  0  0
  193.8180  174.9050  139.3090 O   0  0  0  0  0  0  0  0  0  0  0  0
  192.9900  175.1610  141.5500 C   0  0  0  0  0  2  0  0  0  0  0  0
  195.2910  175.9550  140.8890 C   0  0  0  0  0  2  0  0  0  0  0  0
  195.7350  176.4360  143.6150 O   0  0  0  0  0  0  0  0  0  0  0  0
  2  9  2  0  0  0  0
  2  6  1  0  0  0  0
  3 14  1  0  0  0  0
  4 15  1  0  0  0  0
  4 25  1  1  0  0  0
  5 16  2  0  0  0  0
  5  8  1  0  0  0  0
  6 10  2  0  0  0  0
  7  2  1  0  0  0  0
  8 12  2  0  0  0  0
  9  5  1  0  0  0  0
 10  8  1  0  0  0  0
 11  4  1  0  0  0  0
 12  3  1  0  0  0  0
 12 11  1  0  0  0  0
 13  3  2  0  0  0  0
 14  1  2  0  0  0  0
 14 15  1  0  0  0  0
 16 13  1  0  0  0  0
 18 17  1  0  0  0  0
 18 24  1  0  0  0  0
 19 21  1  0  0  0  0
 19 22  1  0  0  0  0
 20 17  1  0  0  0  0
 21  1  1  6  0  0  0
 21 20  1  0  0  0  0
 22 18  1  0  0  0  0
 24 23  1  0  0  0  0
 25 27  1  0  0  0  0
 25 26  2  0  0  0  0
 27 28  1  0  0  0  0
 28 30  1  0  0  0  0
 28 29  1  1  0  0  0
 31 30  1  1  0  0  0
 31 33  1  0  0  0  0
 32 35  1  0  0  0  0
 34 37  1  6  0  0  0
 34 32  1  0  0  0  0
 34 31  1  0  0  0  0
 35 33  1  0  0  0  0
 36 37  1  0  0  0  0
 37 43  2  0  0  0  0
 38 42  1  0  0  0  0
 39 41  1  0  0  0  0
 40 38  1  0  0  0  0
 40 39  1  0  0  0  0
 41 36  1  0  0  0  0
 42 36  1  0  0  0  0
M  END
>  <MODEL>
9

>  <REMARK>
 VINA RESULT:      -7.5      1.944      3.263
  Name = 
  8 active torsions:
  status: ('A' for Active; 'I' for Inactive)
    1  A    between atoms: C_1  and  C_35
    2  A    between atoms: C_2  and  O_6
    3  A    between atoms: C_2  and  C_13
    4  A    between atoms: C_3  and  C_4
    5  A    between atoms: C_3  and  C_12
    6  A    between atoms: O_6  and  C_12
    7  A    between atoms: C_14  and  C_22
    8  A    between atoms: N_19  and  C_37
                            x       y       z     vdW  Elec       q    Type
                         _______ _______ _______ _____ _____    ______ ____

>  <TORSDO>
F 8

$$$$
