=
 OpenBabel11052417313D

 25 28  0  0  1  0  0  0  0  0999 V2000
  186.4730  177.6630  143.8750 C   0  0  0  0  0  0  0  0  0  0  0  0
  185.7610  177.7770  142.6690 C   0  0  0  0  0  0  0  0  0  0  0  0
  188.4850  176.9830  142.6710 C   0  0  0  0  0  3  0  0  0  0  0  0
  186.0120  177.8990  145.1810 C   0  0  0  0  0  0  0  0  0  0  0  0
  185.4620  178.2700  147.8950 C   0  0  0  0  0  3  0  0  0  0  0  0
  187.7830  177.0950  141.4640 C   0  0  0  0  0  3  0  0  0  0  0  0
  186.9940  177.6880  146.1470 C   0  0  0  0  0  0  0  0  0  0  0  0
  186.7470  177.8650  147.5050 C   0  0  0  0  0  3  0  0  0  0  0  0
  185.7130  177.6040  140.2440 C   0  0  0  0  0  0  0  0  0  0  0  0
  186.3450  177.3180  138.9220 C   0  0  0  0  0  1  0  0  0  0  0  0
  184.4550  178.1570  142.6520 N   0  0  0  0  0  0  0  0  0  0  0  0
  184.4600  178.4880  146.9330 C   0  0  0  0  0  3  0  0  0  0  0  0
  187.8120  177.2710  143.8550 C   0  0  0  0  0  0  0  0  0  0  0  0
  188.4380  177.2100  145.4200 S   0  0  0  0  0  0  0  0  0  0  0  0
  184.3730  177.9960  140.2720 C   0  0  0  0  0  3  0  0  0  0  0  0
  184.7290  178.3030  145.5680 C   0  0  0  0  0  3  0  0  0  0  0  0
  183.7520  178.2720  141.4910 C   0  0  0  0  0  0  0  0  0  0  0  0
  186.4280  177.4890  141.4490 C   0  0  0  0  0  0  0  0  0  0  0  0
  182.3800  178.6740  141.5020 N   0  0  0  0  0  0  0  0  0  0  0  0
  181.5280  178.2550  140.6190 C   0  0  0  0  0  3  0  0  0  0  0  0
  180.0970  178.6880  140.6540 C   0  0  2  0  0  3  0  0  0  0  0  0
  179.9630  180.1710  140.3480 C   0  0  0  0  0  1  0  0  0  0  0  0
  179.4400  178.3410  141.9570 C   0  0  0  0  0  0  0  0  0  0  0  0
  179.5840  179.0510  142.9400 O   0  0  0  0  0  0  0  0  0  0  0  0
  178.6040  177.1120  142.0520 C   0  0  0  0  0  1  0  0  0  0  0  0
  1  4  1  0  0  0  0
  2  1  1  0  0  0  0
  3 13  1  0  0  0  0
  4 16  2  0  0  0  0
  4  7  1  0  0  0  0
  6  3  2  0  0  0  0
  7  8  2  0  0  0  0
  8  5  1  0  0  0  0
  9 15  2  0  0  0  0
  9 18  1  0  0  0  0
 10  9  1  0  0  0  0
 11  2  1  0  0  0  0
 12  5  2  0  0  0  0
 13  1  2  0  0  0  0
 13 14  1  0  0  0  0
 14  7  1  0  0  0  0
 15 17  1  0  0  0  0
 16 12  1  0  0  0  0
 17 19  1  0  0  0  0
 17 11  2  0  0  0  0
 18  6  1  0  0  0  0
 18  2  2  0  0  0  0
 20 21  1  0  0  0  0
 20 19  2  0  0  0  0
 21 22  1  1  0  0  0
 21 23  1  0  0  0  0
 23 25  1  0  0  0  0
 23 24  2  0  0  0  0
M  END
>  <MODEL>
1

>  <REMARK>
 VINA RESULT:      -7.9      0.000      0.000
  Name = 
  3 active torsions:
  status: ('A' for Active; 'I' for Inactive)
    1  A    between atoms: C_2  and  C_21
    2  A    between atoms: N_6  and  C_23
    3  A    between atoms: C_15  and  C_21
                            x       y       z     vdW  Elec       q    Type
                         _______ _______ _______ _____ _____    ______ ____

>  <TORSDO>
F 3

$$$$
=
 OpenBabel11052417313D

 25 28  0  0  1  0  0  0  0  0999 V2000
  187.2530  177.6260  144.1660 C   0  0  0  0  0  0  0  0  0  0  0  0
  188.5850  177.2980  144.4740 C   0  0  0  0  0  0  0  0  0  0  0  0
  186.7060  177.8050  146.5380 C   0  0  0  0  0  3  0  0  0  0  0  0
  186.6610  177.7520  142.8980 C   0  0  0  0  0  0  0  0  0  0  0  0
  185.1470  178.0890  140.5740 C   0  0  0  0  0  3  0  0  0  0  0  0
  188.0320  177.4800  146.8530 C   0  0  0  0  0  3  0  0  0  0  0  0
  185.3110  178.0910  142.9650 C   0  0  0  0  0  0  0  0  0  0  0  0
  184.5330  178.2640  141.8230 C   0  0  0  0  0  3  0  0  0  0  0  0
  190.3090  176.8980  146.1410 C   0  0  0  0  0  0  0  0  0  0  0  0
  190.7950  176.8030  147.5490 C   0  0  0  0  0  1  0  0  0  0  0  0
  189.4970  177.0540  143.4950 N   0  0  0  0  0  0  0  0  0  0  0  0
  186.5090  177.7470  140.4900 C   0  0  0  0  0  3  0  0  0  0  0  0
  186.3440  177.8720  145.1960 C   0  0  0  0  0  0  0  0  0  0  0  0
  184.8220  178.2400  144.5710 S   0  0  0  0  0  0  0  0  0  0  0  0
  191.2120  176.6540  145.1050 C   0  0  0  0  0  3  0  0  0  0  0  0
  187.2750  177.5760  141.6540 C   0  0  0  0  0  3  0  0  0  0  0  0
  190.7910  176.7360  143.7770 C   0  0  0  0  0  0  0  0  0  0  0  0
  188.9760  177.2260  145.8370 C   0  0  0  0  0  0  0  0  0  0  0  0
  191.7290  176.4830  142.7280 N   0  0  0  0  0  0  0  0  0  0  0  0
  192.9950  176.3220  142.9550 C   0  0  0  0  0  3  0  0  0  0  0  0
  193.9560  176.0560  141.8390 C   0  0  2  0  0  3  0  0  0  0  0  0
  193.8170  174.6340  141.3200 C   0  0  0  0  0  1  0  0  0  0  0  0
  195.3710  176.3520  142.2390 C   0  0  0  0  0  0  0  0  0  0  0  0
  196.1680  176.8070  141.4310 O   0  0  0  0  0  0  0  0  0  0  0  0
  195.8100  176.0850  143.6370 C   0  0  0  0  0  1  0  0  0  0  0  0
  1  2  2  0  0  0  0
  1 13  1  0  0  0  0
  2 18  1  0  0  0  0
  3  6  1  0  0  0  0
  4  7  1  0  0  0  0
  4  1  1  0  0  0  0
  5  8  1  0  0  0  0
  7 14  1  0  0  0  0
  8  7  2  0  0  0  0
  9 10  1  0  0  0  0
 11 17  2  0  0  0  0
 11  2  1  0  0  0  0
 12  5  2  0  0  0  0
 12 16  1  0  0  0  0
 13  3  2  0  0  0  0
 14 13  1  0  0  0  0
 15  9  2  0  0  0  0
 16  4  2  0  0  0  0
 17 15  1  0  0  0  0
 18  9  1  0  0  0  0
 18  6  2  0  0  0  0
 19 20  2  0  0  0  0
 19 17  1  0  0  0  0
 21 22  1  1  0  0  0
 21 23  1  0  0  0  0
 21 20  1  0  0  0  0
 23 25  1  0  0  0  0
 24 23  2  0  0  0  0
M  END
>  <MODEL>
2

>  <REMARK>
 VINA RESULT:      -7.4      5.029      9.141
  Name = 
  3 active torsions:
  status: ('A' for Active; 'I' for Inactive)
    1  A    between atoms: C_2  and  C_21
    2  A    between atoms: N_6  and  C_23
    3  A    between atoms: C_15  and  C_21
                            x       y       z     vdW  Elec       q    Type
                         _______ _______ _______ _____ _____    ______ ____

>  <TORSDO>
F 3

$$$$
=
 OpenBabel11052417313D

 25 28  0  0  1  0  0  0  0  0999 V2000
  187.8930  176.4630  144.8440 C   0  0  0  0  0  0  0  0  0  0  0  0
  188.5520  175.4960  144.0670 C   0  0  0  0  0  0  0  0  0  0  0  0
  188.8340  175.5200  146.8890 C   0  0  0  0  0  3  0  0  0  0  0  0
  187.0520  177.5010  144.4090 C   0  0  0  0  0  0  0  0  0  0  0  0
  185.3460  179.6610  143.9290 C   0  0  0  0  0  3  0  0  0  0  0  0
  189.4950  174.5520  146.1210 C   0  0  0  0  0  3  0  0  0  0  0  0
  186.5680  178.2790  145.4590 C   0  0  0  0  0  0  0  0  0  0  0  0
  185.7160  179.3600  145.2480 C   0  0  0  0  0  3  0  0  0  0  0  0
  190.0210  173.5620  143.9360 C   0  0  0  0  0  0  0  0  0  0  0  0
  190.8900  172.5140  144.5470 C   0  0  0  0  0  1  0  0  0  0  0  0
  188.4270  175.4720  142.7120 N   0  0  0  0  0  0  0  0  0  0  0  0
  185.8270  178.8860  142.8580 C   0  0  0  0  0  3  0  0  0  0  0  0
  188.0450  176.4580  146.2310 C   0  0  0  0  0  0  0  0  0  0  0  0
  187.1580  177.7110  146.9310 S   0  0  0  0  0  0  0  0  0  0  0  0
  189.8640  173.5740  142.5490 C   0  0  0  0  0  3  0  0  0  0  0  0
  186.6840  177.8000  143.0920 C   0  0  0  0  0  3  0  0  0  0  0  0
  189.0590  174.5410  141.9450 C   0  0  0  0  0  0  0  0  0  0  0  0
  189.3630  174.5280  144.7170 C   0  0  0  0  0  0  0  0  0  0  0  0
  188.9110  174.5390  140.5240 N   0  0  0  0  0  0  0  0  0  0  0  0
  189.5890  173.7450  139.7560 C   0  0  0  0  0  3  0  0  0  0  0  0
  189.4130  173.7610  138.2710 C   0  0  2  0  0  3  0  0  0  0  0  0
  188.1320  174.4780  137.8760 C   0  0  0  0  0  1  0  0  0  0  0  0
  189.4650  172.3800  137.6870 C   0  0  0  0  0  0  0  0  0  0  0  0
  189.3210  172.2010  136.4870 O   0  0  0  0  0  0  0  0  0  0  0  0
  189.6910  171.2130  138.5840 C   0  0  0  0  0  1  0  0  0  0  0  0
  1 13  2  0  0  0  0
  2 18  2  0  0  0  0
  2  1  1  0  0  0  0
  4  1  1  0  0  0  0
  4  7  1  0  0  0  0
  5  8  1  0  0  0  0
  6  3  2  0  0  0  0
  7 14  1  0  0  0  0
  8  7  2  0  0  0  0
  9 10  1  0  0  0  0
  9 18  1  0  0  0  0
 11  2  1  0  0  0  0
 12 16  1  0  0  0  0
 12  5  2  0  0  0  0
 13  3  1  0  0  0  0
 13 14  1  0  0  0  0
 15  9  2  0  0  0  0
 16  4  2  0  0  0  0
 17 15  1  0  0  0  0
 17 11  2  0  0  0  0
 18  6  1  0  0  0  0
 19 17  1  0  0  0  0
 20 19  2  0  0  0  0
 21 22  1  1  0  0  0
 21 20  1  0  0  0  0
 23 21  1  0  0  0  0
 23 25  1  0  0  0  0
 24 23  2  0  0  0  0
M  END
>  <MODEL>
3

>  <REMARK>
 VINA RESULT:      -7.3      4.604      7.175
  Name = 
  3 active torsions:
  status: ('A' for Active; 'I' for Inactive)
    1  A    between atoms: C_2  and  C_21
    2  A    between atoms: N_6  and  C_23
    3  A    between atoms: C_15  and  C_21
                            x       y       z     vdW  Elec       q    Type
                         _______ _______ _______ _____ _____    ______ ____

>  <TORSDO>
F 3

$$$$
=
 OpenBabel11052417313D

 25 28  0  0  1  0  0  0  0  0999 V2000
  185.7000  177.8740  143.4380 C   0  0  0  0  0  0  0  0  0  0  0  0
  186.4890  177.6510  144.5790 C   0  0  0  0  0  0  0  0  0  0  0  0
  183.9130  178.8160  144.8070 C   0  0  0  0  0  3  0  0  0  0  0  0
  186.0110  177.5880  142.0970 C   0  0  0  0  0  0  0  0  0  0  0  0
  186.2700  177.1690  139.3480 C   0  0  0  0  0  3  0  0  0  0  0  0
  184.6940  178.5990  145.9500 C   0  0  0  0  0  3  0  0  0  0  0  0
  184.9890  177.9430  141.2190 C   0  0  0  0  0  0  0  0  0  0  0  0
  185.0920  177.7450  139.8450 C   0  0  0  0  0  3  0  0  0  0  0  0
  186.7690  177.7960  146.9900 C   0  0  0  0  0  0  0  0  0  0  0  0
  186.2990  178.1560  148.3600 C   0  0  0  0  0  1  0  0  0  0  0  0
  187.7270  177.0940  144.4850 N   0  0  0  0  0  0  0  0  0  0  0  0
  187.3110  176.8060  140.2210 C   0  0  0  0  0  3  0  0  0  0  0  0
  184.4350  178.4480  143.5710 C   0  0  0  0  0  0  0  0  0  0  0  0
  183.6930  178.6090  142.0650 S   0  0  0  0  0  0  0  0  0  0  0  0
  188.0330  177.2210  146.8480 C   0  0  0  0  0  3  0  0  0  0  0  0
  187.1870  177.0140  141.6030 C   0  0  0  0  0  3  0  0  0  0  0  0
  188.5040  176.8730  145.5810 C   0  0  0  0  0  0  0  0  0  0  0  0
  185.9760  178.0200  145.8510 C   0  0  0  0  0  0  0  0  0  0  0  0
  189.8010  176.2850  145.4540 N   0  0  0  0  0  0  0  0  0  0  0  0
  190.8630  176.9930  145.2250 C   0  0  0  0  0  3  0  0  0  0  0  0
  192.2100  176.3540  145.0980 C   0  0  2  0  0  3  0  0  0  0  0  0
  192.1000  174.9440  144.5430 C   0  0  0  0  0  1  0  0  0  0  0  0
  192.9600  176.3700  146.3970 C   0  0  0  0  0  0  0  0  0  0  0  0
  192.3850  176.6080  147.4490 O   0  0  0  0  0  0  0  0  0  0  0  0
  194.4230  176.0960  146.4020 C   0  0  0  0  0  1  0  0  0  0  0  0
  1 13  1  0  0  0  0
  1  2  2  0  0  0  0
  2 18  1  0  0  0  0
  3  6  1  0  0  0  0
  4  1  1  0  0  0  0
  5  8  2  0  0  0  0
  5 12  1  0  0  0  0
  7 14  1  0  0  0  0
  7  4  2  0  0  0  0
  8  7  1  0  0  0  0
  9 10  1  0  0  0  0
 11  2  1  0  0  0  0
 11 17  2  0  0  0  0
 12 16  2  0  0  0  0
 13  3  2  0  0  0  0
 14 13  1  0  0  0  0
 15  9  2  0  0  0  0
 16  4  1  0  0  0  0
 17 15  1  0  0  0  0
 18  6  2  0  0  0  0
 18  9  1  0  0  0  0
 19 17  1  0  0  0  0
 20 19  2  0  0  0  0
 21 22  1  1  0  0  0
 21 20  1  0  0  0  0
 21 23  1  0  0  0  0
 23 25  1  0  0  0  0
 23 24  2  0  0  0  0
M  END
>  <MODEL>
4

>  <REMARK>
 VINA RESULT:      -7.2      4.168      8.615
  Name = 
  3 active torsions:
  status: ('A' for Active; 'I' for Inactive)
    1  A    between atoms: C_2  and  C_21
    2  A    between atoms: N_6  and  C_23
    3  A    between atoms: C_15  and  C_21
                            x       y       z     vdW  Elec       q    Type
                         _______ _______ _______ _____ _____    ______ ____

>  <TORSDO>
F 3

$$$$
=
 OpenBabel11052417313D

 25 28  0  0  1  0  0  0  0  0999 V2000
  186.5670  177.0470  144.2980 C   0  0  0  0  0  0  0  0  0  0  0  0
  187.7560  176.3250  144.4980 C   0  0  0  0  0  0  0  0  0  0  0  0
  186.2310  177.2400  146.7080 C   0  0  0  0  0  3  0  0  0  0  0  0
  185.9680  177.4160  143.0810 C   0  0  0  0  0  0  0  0  0  0  0  0
  184.4960  178.3190  140.8860 C   0  0  0  0  0  3  0  0  0  0  0  0
  187.4160  176.5220  146.9160 C   0  0  0  0  0  3  0  0  0  0  0  0
  184.7860  178.1320  143.2570 C   0  0  0  0  0  0  0  0  0  0  0  0
  184.0320  178.5930  142.1810 C   0  0  0  0  0  3  0  0  0  0  0  0
  189.3740  175.3380  146.0210 C   0  0  0  0  0  0  0  0  0  0  0  0
  189.8880  175.0220  147.3860 C   0  0  0  0  0  1  0  0  0  0  0  0
  188.4980  175.8810  143.4480 N   0  0  0  0  0  0  0  0  0  0  0  0
  185.6880  177.5970  140.6920 C   0  0  0  0  0  3  0  0  0  0  0  0
  185.8310  177.4890  145.3990 C   0  0  0  0  0  0  0  0  0  0  0  0
  184.4550  178.3250  144.8980 S   0  0  0  0  0  0  0  0  0  0  0  0
  190.1040  174.9000  144.9150 C   0  0  0  0  0  3  0  0  0  0  0  0
  186.4320  177.1410  141.7900 C   0  0  0  0  0  3  0  0  0  0  0  0
  189.6520  175.1810  143.6240 C   0  0  0  0  0  0  0  0  0  0  0  0
  188.1840  176.0610  145.8260 C   0  0  0  0  0  0  0  0  0  0  0  0
  190.4120  174.7250  142.5030 N   0  0  0  0  0  0  0  0  0  0  0  0
  190.0400  173.7200  141.7750 C   0  0  0  0  0  3  0  0  0  0  0  0
  190.8520  173.2650  140.6040 C   0  0  2  0  0  3  0  0  0  0  0  0
  192.2040  173.9590  140.5690 C   0  0  0  0  0  1  0  0  0  0  0  0
  190.1160  173.4420  139.3100 C   0  0  0  0  0  0  0  0  0  0  0  0
  190.6430  173.1580  138.2450 O   0  0  0  0  0  0  0  0  0  0  0  0
  188.7260  173.9770  139.3240 C   0  0  0  0  0  1  0  0  0  0  0  0
  1  2  2  0  0  0  0
  1 13  1  0  0  0  0
  2 18  1  0  0  0  0
  3  6  1  0  0  0  0
  4  7  1  0  0  0  0
  4  1  1  0  0  0  0
  5  8  1  0  0  0  0
  7 14  1  0  0  0  0
  8  7  2  0  0  0  0
  9 10  1  0  0  0  0
 11 17  2  0  0  0  0
 11  2  1  0  0  0  0
 12  5  2  0  0  0  0
 12 16  1  0  0  0  0
 13  3  2  0  0  0  0
 14 13  1  0  0  0  0
 15  9  2  0  0  0  0
 16  4  2  0  0  0  0
 17 15  1  0  0  0  0
 18  9  1  0  0  0  0
 18  6  2  0  0  0  0
 19 17  1  0  0  0  0
 20 19  2  0  0  0  0
 21 22  1  6  0  0  0
 21 20  1  0  0  0  0
 23 25  1  0  0  0  0
 23 21  1  0  0  0  0
 24 23  2  0  0  0  0
M  END
>  <MODEL>
5

>  <REMARK>
 VINA RESULT:      -7.2      4.137      7.754
  Name = 
  3 active torsions:
  status: ('A' for Active; 'I' for Inactive)
    1  A    between atoms: C_2  and  C_21
    2  A    between atoms: N_6  and  C_23
    3  A    between atoms: C_15  and  C_21
                            x       y       z     vdW  Elec       q    Type
                         _______ _______ _______ _____ _____    ______ ____

>  <TORSDO>
F 3

$$$$
=
 OpenBabel11052417313D

 25 28  0  0  1  0  0  0  0  0999 V2000
  185.8060  177.5770  143.7810 C   0  0  0  0  0  0  0  0  0  0  0  0
  186.5880  176.9290  142.8100 C   0  0  0  0  0  0  0  0  0  0  0  0
  184.4560  178.6370  142.0460 C   0  0  0  0  0  3  0  0  0  0  0  0
  185.9230  177.5050  145.1800 C   0  0  0  0  0  0  0  0  0  0  0  0
  185.8460  177.6140  147.9700 C   0  0  0  0  0  3  0  0  0  0  0  0
  185.2300  177.9940  141.0710 C   0  0  0  0  0  3  0  0  0  0  0  0
  184.9740  178.2830  145.8410 C   0  0  0  0  0  0  0  0  0  0  0  0
  184.9140  178.3560  147.2300 C   0  0  0  0  0  3  0  0  0  0  0  0
  187.0780  176.4930  140.4690 C   0  0  0  0  0  0  0  0  0  0  0  0
  186.8290  176.6670  139.0070 C   0  0  0  0  0  1  0  0  0  0  0  0
  187.6130  176.1060  143.1610 N   0  0  0  0  0  0  0  0  0  0  0  0
  186.8100  176.8240  147.3180 C   0  0  0  0  0  3  0  0  0  0  0  0
  184.7610  178.4130  143.3850 C   0  0  0  0  0  0  0  0  0  0  0  0
  183.9800  179.0680  144.7290 S   0  0  0  0  0  0  0  0  0  0  0  0
  188.1210  175.6570  140.8730 C   0  0  0  0  0  3  0  0  0  0  0  0
  186.8540  176.7650  145.9160 C   0  0  0  0  0  3  0  0  0  0  0  0
  188.3790  175.4710  142.2320 C   0  0  0  0  0  0  0  0  0  0  0  0
  186.2930  177.1420  141.4370 C   0  0  0  0  0  0  0  0  0  0  0  0
  189.4500  174.6120  142.6290 N   0  0  0  0  0  0  0  0  0  0  0  0
  189.9380  174.6210  143.8300 C   0  0  0  0  0  3  0  0  0  0  0  0
  191.0580  173.7090  144.2210 C   0  0  2  0  0  3  0  0  0  0  0  0
  190.5560  172.2970  144.4720 C   0  0  0  0  0  1  0  0  0  0  0  0
  191.8190  174.2340  145.4020 C   0  0  0  0  0  0  0  0  0  0  0  0
  193.0020  173.9660  145.5540 O   0  0  0  0  0  0  0  0  0  0  0  0
  191.1220  175.0900  146.4020 C   0  0  0  0  0  1  0  0  0  0  0  0
  1  4  1  0  0  0  0
  2 11  1  0  0  0  0
  2  1  1  0  0  0  0
  3 13  1  0  0  0  0
  4  7  2  0  0  0  0
  4 16  1  0  0  0  0
  6 18  1  0  0  0  0
  6  3  2  0  0  0  0
  7  8  1  0  0  0  0
  8  5  2  0  0  0  0
  9 15  2  0  0  0  0
  9 18  1  0  0  0  0
 10  9  1  0  0  0  0
 12  5  1  0  0  0  0
 13  1  2  0  0  0  0
 13 14  1  0  0  0  0
 14  7  1  0  0  0  0
 15 17  1  0  0  0  0
 16 12  2  0  0  0  0
 17 19  1  0  0  0  0
 17 11  2  0  0  0  0
 18  2  2  0  0  0  0
 19 20  2  0  0  0  0
 20 21  1  0  0  0  0
 21 22  1  1  0  0  0
 21 23  1  0  0  0  0
 23 24  2  0  0  0  0
 23 25  1  0  0  0  0
M  END
>  <MODEL>
6

>  <REMARK>
 VINA RESULT:      -7.1      4.113      7.046
  Name = 
  3 active torsions:
  status: ('A' for Active; 'I' for Inactive)
    1  A    between atoms: C_2  and  C_21
    2  A    between atoms: N_6  and  C_23
    3  A    between atoms: C_15  and  C_21
                            x       y       z     vdW  Elec       q    Type
                         _______ _______ _______ _____ _____    ______ ____

>  <TORSDO>
F 3

$$$$
=
 OpenBabel11052417313D

 25 28  0  0  1  0  0  0  0  0999 V2000
  185.8220  177.5660  143.7450 C   0  0  0  0  0  0  0  0  0  0  0  0
  186.5800  176.9430  142.7390 C   0  0  0  0  0  0  0  0  0  0  0  0
  184.4220  178.6590  142.0720 C   0  0  0  0  0  3  0  0  0  0  0  0
  185.9770  177.4630  145.1380 C   0  0  0  0  0  0  0  0  0  0  0  0
  185.9760  177.5090  147.9310 C   0  0  0  0  0  3  0  0  0  0  0  0
  185.1710  178.0420  141.0620 C   0  0  0  0  0  3  0  0  0  0  0  0
  185.0440  178.2220  145.8420 C   0  0  0  0  0  0  0  0  0  0  0  0
  185.0210  178.2630  147.2340 C   0  0  0  0  0  3  0  0  0  0  0  0
  187.0070  176.5620  140.3760 C   0  0  0  0  0  0  0  0  0  0  0  0
  186.7190  176.7680  138.9260 C   0  0  0  0  0  1  0  0  0  0  0  0
  187.6160  176.1170  143.0430 N   0  0  0  0  0  0  0  0  0  0  0  0
  186.9250  176.7380  147.2350 C   0  0  0  0  0  3  0  0  0  0  0  0
  184.7640  178.4070  143.3970 C   0  0  0  0  0  0  0  0  0  0  0  0
  184.0170  179.0270  144.7760 S   0  0  0  0  0  0  0  0  0  0  0  0
  188.0640  175.7220  140.7330 C   0  0  0  0  0  3  0  0  0  0  0  0
  186.9310  176.7110  145.8320 C   0  0  0  0  0  3  0  0  0  0  0  0
  188.3600  175.5060  142.0800 C   0  0  0  0  0  0  0  0  0  0  0  0
  186.2470  177.1860  141.3800 C   0  0  0  0  0  0  0  0  0  0  0  0
  189.4440  174.6430  142.4280 N   0  0  0  0  0  0  0  0  0  0  0  0
  189.4010  173.3620  142.2340 C   0  0  0  0  0  3  0  0  0  0  0  0
  190.5510  172.4800  142.6040 C   0  0  2  0  0  3  0  0  0  0  0  0
  190.3570  171.0700  142.0720 C   0  0  0  0  0  1  0  0  0  0  0  0
  190.7960  172.4740  144.0840 C   0  0  0  0  0  0  0  0  0  0  0  0
  191.9160  172.6670  144.5340 O   0  0  0  0  0  0  0  0  0  0  0  0
  189.6600  172.2250  145.0140 C   0  0  0  0  0  1  0  0  0  0  0  0
  1  4  1  0  0  0  0
  2 11  1  0  0  0  0
  2  1  1  0  0  0  0
  3 13  1  0  0  0  0
  4 16  2  0  0  0  0
  4  7  1  0  0  0  0
  6 18  1  0  0  0  0
  6  3  2  0  0  0  0
  7  8  2  0  0  0  0
  8  5  1  0  0  0  0
  9 15  2  0  0  0  0
  9 18  1  0  0  0  0
 10  9  1  0  0  0  0
 12  5  2  0  0  0  0
 13  1  2  0  0  0  0
 13 14  1  0  0  0  0
 14  7  1  0  0  0  0
 15 17  1  0  0  0  0
 16 12  1  0  0  0  0
 17 19  1  0  0  0  0
 17 11  2  0  0  0  0
 18  2  2  0  0  0  0
 20 19  2  0  0  0  0
 20 21  1  0  0  0  0
 21 22  1  1  0  0  0
 21 23  1  0  0  0  0
 23 24  2  0  0  0  0
 23 25  1  0  0  0  0
M  END
>  <MODEL>
7

>  <REMARK>
 VINA RESULT:      -7.1      4.111      6.852
  Name = 
  3 active torsions:
  status: ('A' for Active; 'I' for Inactive)
    1  A    between atoms: C_2  and  C_21
    2  A    between atoms: N_6  and  C_23
    3  A    between atoms: C_15  and  C_21
                            x       y       z     vdW  Elec       q    Type
                         _______ _______ _______ _____ _____    ______ ____

>  <TORSDO>
F 3

$$$$
=
 OpenBabel11052417313D

 25 28  0  0  1  0  0  0  0  0999 V2000
  187.2230  176.7210  144.6400 C   0  0  0  0  0  0  0  0  0  0  0  0
  188.1540  175.8640  144.0270 C   0  0  0  0  0  0  0  0  0  0  0  0
  188.4170  176.5650  146.7630 C   0  0  0  0  0  3  0  0  0  0  0  0
  186.0960  177.3320  144.0660 C   0  0  0  0  0  0  0  0  0  0  0  0
  183.7920  178.7060  143.2850 C   0  0  0  0  0  3  0  0  0  0  0  0
  189.3500  175.7120  146.1600 C   0  0  0  0  0  3  0  0  0  0  0  0
  185.3910  178.1230  144.9720 C   0  0  0  0  0  0  0  0  0  0  0  0
  184.2400  178.8170  144.6090 C   0  0  0  0  0  3  0  0  0  0  0  0
  190.1600  174.4990  144.1830 C   0  0  0  0  0  0  0  0  0  0  0  0
  191.3170  173.9240  144.9290 C   0  0  0  0  0  1  0  0  0  0  0  0
  188.0410  175.5200  142.7160 N   0  0  0  0  0  0  0  0  0  0  0  0
  184.4920  177.9110  142.3590 C   0  0  0  0  0  3  0  0  0  0  0  0
  187.3700  177.0540  145.9880 C   0  0  0  0  0  0  0  0  0  0  0  0
  186.1340  178.0870  146.4840 S   0  0  0  0  0  0  0  0  0  0  0  0
  190.0060  174.1710  142.8350 C   0  0  0  0  0  3  0  0  0  0  0  0
  185.6500  177.2180  142.7450 C   0  0  0  0  0  3  0  0  0  0  0  0
  188.9340  174.6920  142.1080 C   0  0  0  0  0  0  0  0  0  0  0  0
  189.2310  175.3550  144.8000 C   0  0  0  0  0  0  0  0  0  0  0  0
  188.7920  174.3470  140.7280 N   0  0  0  0  0  0  0  0  0  0  0  0
  188.6510  173.1210  140.3310 C   0  0  0  0  0  3  0  0  0  0  0  0
  188.5010  172.7850  138.8810 C   0  0  2  0  0  3  0  0  0  0  0  0
  189.3160  171.5570  138.5130 C   0  0  0  0  0  1  0  0  0  0  0  0
  188.8440  173.9500  138.0000 C   0  0  0  0  0  0  0  0  0  0  0  0
  189.9860  174.1160  137.5990 O   0  0  0  0  0  0  0  0  0  0  0  0
  187.7790  174.9160  137.6130 C   0  0  0  0  0  1  0  0  0  0  0  0
  1 13  1  0  0  0  0
  2  1  2  0  0  0  0
  2 18  1  0  0  0  0
  4  1  1  0  0  0  0
  4  7  1  0  0  0  0
  5  8  1  0  0  0  0
  6  3  1  0  0  0  0
  7 14  1  0  0  0  0
  8  7  2  0  0  0  0
  9 18  1  0  0  0  0
  9 10  1  0  0  0  0
 11  2  1  0  0  0  0
 12 16  1  0  0  0  0
 12  5  2  0  0  0  0
 13 14  1  0  0  0  0
 13  3  2  0  0  0  0
 15  9  2  0  0  0  0
 16  4  2  0  0  0  0
 17 11  2  0  0  0  0
 17 15  1  0  0  0  0
 18  6  2  0  0  0  0
 19 17  1  0  0  0  0
 20 19  2  0  0  0  0
 21 22  1  6  0  0  0
 21 20  1  0  0  0  0
 23 21  1  0  0  0  0
 24 23  2  0  0  0  0
 25 23  1  0  0  0  0
M  END
>  <MODEL>
8

>  <REMARK>
 VINA RESULT:      -7.0      4.092      6.938
  Name = 
  3 active torsions:
  status: ('A' for Active; 'I' for Inactive)
    1  A    between atoms: C_2  and  C_21
    2  A    between atoms: N_6  and  C_23
    3  A    between atoms: C_15  and  C_21
                            x       y       z     vdW  Elec       q    Type
                         _______ _______ _______ _____ _____    ______ ____

>  <TORSDO>
F 3

$$$$
=
 OpenBabel11052417313D

 25 28  0  0  1  0  0  0  0  0999 V2000
  186.7050  177.1300  143.6800 C   0  0  0  0  0  0  0  0  0  0  0  0
  187.7900  176.2980  143.3550 C   0  0  0  0  0  0  0  0  0  0  0  0
  185.9310  177.0920  141.3650 C   0  0  0  0  0  3  0  0  0  0  0  0
  186.3710  177.6730  144.9320 C   0  0  0  0  0  0  0  0  0  0  0  0
  185.3990  178.9190  147.2350 C   0  0  0  0  0  3  0  0  0  0  0  0
  187.0090  176.2610  141.0340 C   0  0  0  0  0  3  0  0  0  0  0  0
  185.2220  178.4590  144.8900 C   0  0  0  0  0  0  0  0  0  0  0  0
  184.7160  179.0920  146.0220 C   0  0  0  0  0  3  0  0  0  0  0  0
  189.0270  175.0260  141.6920 C   0  0  0  0  0  0  0  0  0  0  0  0
  189.2520  174.5240  140.3050 C   0  0  0  0  0  1  0  0  0  0  0  0
  188.6890  175.9080  144.2990 N   0  0  0  0  0  0  0  0  0  0  0  0
  186.5600  178.1280  147.2950 C   0  0  0  0  0  3  0  0  0  0  0  0
  185.8020  177.5100  142.6870 C   0  0  0  0  0  0  0  0  0  0  0  0
  184.5980  178.5040  143.3250 S   0  0  0  0  0  0  0  0  0  0  0  0
  189.9270  174.6500  142.6910 C   0  0  0  0  0  3  0  0  0  0  0  0
  187.0540  177.4990  146.1410 C   0  0  0  0  0  3  0  0  0  0  0  0
  189.7450  175.1010  144.0000 C   0  0  0  0  0  0  0  0  0  0  0  0
  187.9410  175.8590  142.0130 C   0  0  0  0  0  0  0  0  0  0  0  0
  190.6750  174.7070  145.0110 N   0  0  0  0  0  0  0  0  0  0  0  0
  191.3600  175.5670  145.6970 C   0  0  0  0  0  3  0  0  0  0  0  0
  192.3250  175.1280  146.7520 C   0  0  2  0  0  3  0  0  0  0  0  0
  191.7660  175.3710  148.1450 C   0  0  0  0  0  1  0  0  0  0  0  0
  193.6680  175.7750  146.5850 C   0  0  0  0  0  0  0  0  0  0  0  0
  193.8780  176.9010  147.0100 O   0  0  0  0  0  0  0  0  0  0  0  0
  194.7570  175.0360  145.8880 C   0  0  0  0  0  1  0  0  0  0  0  0
  1  4  1  0  0  0  0
  2  1  1  0  0  0  0
  2 11  1  0  0  0  0
  3 13  1  0  0  0  0
  4 16  1  0  0  0  0
  5 12  1  0  0  0  0
  6  3  2  0  0  0  0
  6 18  1  0  0  0  0
  7  4  2  0  0  0  0
  7  8  1  0  0  0  0
  8  5  2  0  0  0  0
  9 18  1  0  0  0  0
  9 15  2  0  0  0  0
 10  9  1  0  0  0  0
 13 14  1  0  0  0  0
 13  1  2  0  0  0  0
 14  7  1  0  0  0  0
 15 17  1  0  0  0  0
 16 12  2  0  0  0  0
 17 11  2  0  0  0  0
 17 19  1  0  0  0  0
 18  2  2  0  0  0  0
 19 20  2  0  0  0  0
 20 21  1  0  0  0  0
 21 22  1  1  0  0  0
 23 21  1  0  0  0  0
 23 24  2  0  0  0  0
 25 23  1  0  0  0  0
M  END
>  <MODEL>
9

>  <REMARK>
 VINA RESULT:      -7.0      4.700      8.056
  Name = 
  3 active torsions:
  status: ('A' for Active; 'I' for Inactive)
    1  A    between atoms: C_2  and  C_21
    2  A    between atoms: N_6  and  C_23
    3  A    between atoms: C_15  and  C_21
                            x       y       z     vdW  Elec       q    Type
                         _______ _______ _______ _____ _____    ______ ____

>  <TORSDO>
F 3

$$$$
