=
 OpenBabel11052419383D

 55 59  0  0  1  0  0  0  0  0999 V2000
  190.9790  174.7890  145.5390 N   0  0  0  0  0  0  0  0  0  0  0  0
  188.1100  177.3810  147.3160 C   0  0  0  0  0  3  0  0  0  0  0  0
  190.0060  175.6700  146.1430 C   0  0  0  0  0  0  0  0  0  0  0  0
  190.3530  176.9840  146.5020 C   0  0  0  0  0  3  0  0  0  0  0  0
  187.7530  176.0780  146.9650 C   0  0  0  0  0  3  0  0  0  0  0  0
  189.4100  177.8360  147.0870 C   0  0  0  0  0  3  0  0  0  0  0  0
  188.6960  175.2250  146.3830 C   0  0  0  0  0  3  0  0  0  0  0  0
  192.4110  175.0600  145.6660 C   0  0  0  0  0  2  0  0  0  0  0  0
  192.9620  175.7220  144.4120 C   0  0  0  0  0  2  0  0  0  0  0  0
  194.7550  177.1340  145.4710 C   0  0  0  0  0  1  0  0  0  0  0  0
  196.5410  175.7470  143.7540 O   0  0  0  0  0  0  0  0  0  0  0  0
  195.3800  175.2770  143.9090 C   0  0  0  0  0  0  0  0  0  0  0  0
  194.3720  176.0510  144.5750 N   0  0  0  0  0  0  0  0  0  0  0  0
  195.0510  173.8940  143.4090 C   0  0  1  0  0  3  0  0  0  0  0  0
  193.8250  174.4630  137.6450 O   0  0  0  0  0  1  0  0  0  0  0  0
  197.4440  173.9880  136.1350 C   0  0  0  0  0  0  0  0  0  0  0  0
  195.6310  172.6120  139.1100 C   0  0  0  0  0  2  0  0  0  0  0  0
  197.6590  175.1900  135.4620 O   0  0  0  0  0  0  0  0  0  0  0  0
  196.8370  173.3060  141.7980 C   0  0  0  0  0  1  0  0  0  0  0  0
  196.9140  172.8810  138.3260 C   0  0  0  0  0  2  0  0  0  0  0  0
  194.6120  174.0660  140.9050 C   0  0  0  0  0  0  0  0  0  0  0  0
  194.7880  174.9050  138.5580 C   0  0  2  0  0  3  0  0  0  0  0  0
  193.5030  174.6320  141.1160 O   0  0  0  0  0  0  0  0  0  0  0  0
  196.0900  175.2160  137.8280 C   0  0  0  0  0  2  0  0  0  0  0  0
  197.9060  172.9170  135.6510 O   0  0  0  0  0  1  0  0  0  0  0  0
  196.7230  173.9790  137.3730 N   0  0  0  0  0  0  0  0  0  0  0  0
  195.4480  173.6790  142.0160 N   0  0  0  0  0  0  0  0  0  0  0  0
  195.0440  173.8720  139.5530 N   0  0  0  0  0  0  0  0  0  0  0  0
  196.4370  172.8790  145.2930 C   0  0  0  0  0  3  0  0  0  0  0  0
  196.7980  171.7830  146.0870 C   0  0  0  0  0  3  0  0  0  0  0  0
  194.8130  171.5040  144.1340 C   0  0  0  0  0  3  0  0  0  0  0  0
  195.1710  170.4090  144.9290 C   0  0  0  0  0  3  0  0  0  0  0  0
  196.1670  170.5470  145.9050 C   0  0  0  0  0  3  0  0  0  0  0  0
  195.4390  172.7470  144.3120 C   0  0  0  0  0  0  0  0  0  0  0  0
  190.5550  173.6140  144.7760 C   0  0  0  0  0  2  0  0  0  0  0  0
  190.5280  173.9260  143.2820 C   0  0  0  0  0  2  0  0  0  0  0  0
  189.1180  174.2860  142.8210 C   0  0  0  0  0  2  0  0  0  0  0  0
  189.1340  175.4270  141.8040 C   0  0  0  0  0  2  0  0  0  0  0  0
  185.1300  177.3940  143.7030 C   0  0  1  0  0  3  0  0  0  0  0  0
  188.0120  176.4690  141.9640 C   0  0  2  0  0  0  0  0  0  0  0  0
  187.5920  178.0610  143.8150 C   0  0  0  0  0  2  0  0  0  0  0  0
  186.2450  177.8050  140.6440 C   0  0  0  0  0  2  0  0  0  0  0  0
  187.3380  176.7370  140.6050 C   0  0  0  0  0  2  0  0  0  0  0  0
  188.4720  177.7990  142.6040 C   0  0  1  0  0  3  0  0  0  0  0  0
  186.5830  176.9260  143.9060 C   0  0  2  0  0  3  0  0  0  0  0  0
  184.7140  178.2330  144.9050 C   0  0  0  0  0  1  0  0  0  0  0  0
  189.9350  177.8700  143.0300 C   0  0  0  0  0  1  0  0  0  0  0  0
  186.9960  175.8560  142.9170 C   0  0  0  0  0  2  0  0  0  0  0  0
  185.1150  177.3070  141.2960 O   0  0  0  0  0  0  0  0  0  0  0  0
  184.9140  178.1580  142.3850 C   0  0  1  0  0  3  0  0  0  0  0  0
  183.5090  178.7470  142.2900 C   0  0  0  0  0  2  0  0  0  0  0  0
  182.7080  177.9090  141.5190 O   0  0  0  0  0  0  0  0  0  0  0  0
  181.5360  178.6390  141.3050 C   0  0  0  0  0  2  0  0  0  0  0  0
  179.3820  178.7860  141.7890 C   0  0  0  0  0  1  0  0  0  0  0  0
  180.4350  177.8730  141.6930 O   0  0  0  0  0  0  0  0  0  0  0  0
  1  8  1  0  0  0  0
  1  3  1  0  0  0  0
  3  7  2  0  0  0  0
  3  4  1  0  0  0  0
  4  6  2  0  0  0  0
  5  2  2  0  0  0  0
  6  2  1  0  0  0  0
  7  5  1  0  0  0  0
  9 13  1  0  0  0  0
  9  8  1  0  0  0  0
 11 12  2  0  0  0  0
 12 13  1  0  0  0  0
 13 10  1  0  0  0  0
 14 12  1  1  0  0  0
 14 34  1  0  0  0  0
 16 26  1  0  0  0  0
 17 28  1  0  0  0  0
 18 16  2  0  0  0  0
 19 27  1  0  0  0  0
 20 17  1  0  0  0  0
 21 23  2  0  0  0  0
 21 27  1  0  0  0  0
 22 15  1  6  0  0  0
 22 28  1  0  0  0  0
 24 22  1  0  0  0  0
 25 16  1  0  0  0  0
 26 24  1  0  0  0  0
 26 20  1  0  0  0  0
 27 14  1  0  0  0  0
 28 21  1  0  0  0  0
 29 30  1  0  0  0  0
 31 34  1  0  0  0  0
 31 32  2  0  0  0  0
 32 33  1  0  0  0  0
 33 30  2  0  0  0  0
 34 29  2  0  0  0  0
 35  1  1  0  0  0  0
 36 35  1  0  0  0  0
 37 36  1  0  0  0  0
 38 37  1  0  0  0  0
 39 45  1  0  0  0  0
 39 46  1  1  0  0  0
 40 38  1  6  0  0  0
 40 44  1  0  0  0  0
 40 48  1  0  0  0  0
 41 45  1  0  0  0  0
 42 49  1  0  0  0  0
 43 42  1  0  0  0  0
 43 40  1  0  0  0  0
 44 47  1  1  0  0  0
 44 41  1  0  0  0  0
 45 48  1  6  0  0  0
 49 50  1  0  0  0  0
 50 51  1  1  0  0  0
 50 39  1  0  0  0  0
 52 51  1  0  0  0  0
 53 52  1  0  0  0  0
 53 55  1  0  0  0  0
 55 54  1  0  0  0  0
M  END
>  <MODEL>
1

>  <REMARK>
 VINA RESULT:      -7.3      0.000      0.000
  Name = 
  16 active torsions:
  status: ('A' for Active; 'I' for Inactive)
    1  A    between atoms: C_3  and  O_25
    2  A    between atoms: C_3  and  O_38
    3  A    between atoms: C_6  and  C_22
    4  A    between atoms: C_8  and  C_43
    5  A    between atoms: C_8  and  C_54
    6  A    between atoms: C_19  and  C_45
    7  A    between atoms: C_22  and  C_43
    8  A    between atoms: C_26  and  C_45
    9  A    between atoms: C_27  and  N_51
   10  A    between atoms: C_29  and  O_38
   11  A    between atoms: C_29  and  C_53
   12  A    between atoms: C_35  and  C_40
   13  A    between atoms: C_35  and  N_51
   14  A    between atoms: N_37  and  C_40
   15  A    between atoms: C_45  and  N_49
   16  A    between atoms: N_51  and  C_54
                            x       y       z     vdW  Elec       q    Type
                         _______ _______ _______ _____ _____    ______ ____

>  <TORSDO>
F 16

$$$$
=
 OpenBabel11052419383D

 55 59  0  0  1  0  0  0  0  0999 V2000
  191.0820  174.7540  144.8000 N   0  0  0  0  0  0  0  0  0  0  0  0
  188.4480  177.1610  147.1180 C   0  0  0  0  0  3  0  0  0  0  0  0
  190.1860  175.5710  145.5870 C   0  0  0  0  0  0  0  0  0  0  0  0
  188.9260  175.0840  145.9770 C   0  0  0  0  0  3  0  0  0  0  0  0
  189.6960  177.6570  146.7380 C   0  0  0  0  0  3  0  0  0  0  0  0
  188.0600  175.8750  146.7380 C   0  0  0  0  0  3  0  0  0  0  0  0
  190.5610  176.8670  145.9740 C   0  0  0  0  0  3  0  0  0  0  0  0
  192.2160  174.0740  145.4270 C   0  0  0  0  0  2  0  0  0  0  0  0
  193.4000  173.9800  144.4760 C   0  0  0  0  0  2  0  0  0  0  0  0
  195.0460  175.3250  145.8210 C   0  0  0  0  0  1  0  0  0  0  0  0
  196.7010  173.0230  145.6700 O   0  0  0  0  0  0  0  0  0  0  0  0
  195.4820  172.8990  145.3660 C   0  0  0  0  0  0  0  0  0  0  0  0
  194.6590  174.0630  145.2040 N   0  0  0  0  0  0  0  0  0  0  0  0
  194.8820  171.5290  145.1880 C   0  0  1  0  0  3  0  0  0  0  0  0
  190.9850  169.5740  141.1820 O   0  0  0  0  0  1  0  0  0  0  0  0
  192.6330  170.9980  137.8870 C   0  0  0  0  0  0  0  0  0  0  0  0
  193.9540  169.7160  141.1490 C   0  0  0  0  0  2  0  0  0  0  0  0
  191.6370  171.8290  137.3760 O   0  0  0  0  0  1  0  0  0  0  0  0
  195.5030  171.7250  142.8000 C   0  0  0  0  0  1  0  0  0  0  0  0
  194.1290  170.4750  139.8350 C   0  0  0  0  0  2  0  0  0  0  0  0
  193.2910  170.6810  143.3860 C   0  0  0  0  0  0  0  0  0  0  0  0
  191.6930  170.7460  141.4670 C   0  0  2  0  0  3  0  0  0  0  0  0
  192.3870  170.4840  144.2450 O   0  0  0  0  0  0  0  0  0  0  0  0
  191.8780  171.5630  140.1930 C   0  0  0  0  0  2  0  0  0  0  0  0
  193.3650  170.3490  137.0880 O   0  0  0  0  0  0  0  0  0  0  0  0
  192.8320  170.9030  139.3020 N   0  0  0  0  0  0  0  0  0  0  0  0
  194.5690  171.2180  143.7920 N   0  0  0  0  0  0  0  0  0  0  0  0
  193.0050  170.4180  142.0080 N   0  0  0  0  0  0  0  0  0  0  0  0
  194.9530  169.6500  146.9110 C   0  0  0  0  0  3  0  0  0  0  0  0
  195.6470  168.6310  147.5730 C   0  0  0  0  0  3  0  0  0  0  0  0
  196.9140  170.1070  145.5620 C   0  0  0  0  0  3  0  0  0  0  0  0
  197.6070  169.0850  146.2210 C   0  0  0  0  0  3  0  0  0  0  0  0
  196.9740  168.3480  147.2320 C   0  0  0  0  0  3  0  0  0  0  0  0
  195.5820  170.3950  145.8980 C   0  0  0  0  0  0  0  0  0  0  0  0
  190.8840  174.5980  143.3590 C   0  0  0  0  0  2  0  0  0  0  0  0
  189.8440  173.5180  143.0740 C   0  0  0  0  0  2  0  0  0  0  0  0
  188.6620  174.0840  142.2930 C   0  0  0  0  0  2  0  0  0  0  0  0
  188.9730  175.4720  141.7310 C   0  0  0  0  0  2  0  0  0  0  0  0
  185.0330  177.4900  143.7080 C   0  0  1  0  0  3  0  0  0  0  0  0
  187.8570  176.5180  141.9000 C   0  0  2  0  0  0  0  0  0  0  0  0
  187.4980  178.1590  143.7210 C   0  0  0  0  0  2  0  0  0  0  0  0
  186.0470  177.8190  140.6030 C   0  0  0  0  0  2  0  0  0  0  0  0
  187.1390  176.7500  140.5570 C   0  0  0  0  0  2  0  0  0  0  0  0
  188.3370  177.8650  142.4890 C   0  0  1  0  0  3  0  0  0  0  0  0
  186.4920  177.0270  143.8750 C   0  0  2  0  0  3  0  0  0  0  0  0
  184.6570  178.3610  144.9000 C   0  0  0  0  0  1  0  0  0  0  0  0
  189.8130  177.9460  142.8650 C   0  0  0  0  0  1  0  0  0  0  0  0
  186.8730  175.9310  142.9020 C   0  0  0  0  0  2  0  0  0  0  0  0
  184.9390  177.3400  141.3060 O   0  0  0  0  0  0  0  0  0  0  0  0
  184.7730  178.2190  142.3770 C   0  0  1  0  0  3  0  0  0  0  0  0
  183.3660  178.8060  142.3130 C   0  0  0  0  0  2  0  0  0  0  0  0
  182.6310  178.1370  141.3390 O   0  0  0  0  0  0  0  0  0  0  0  0
  181.3070  178.5170  141.5710 C   0  0  0  0  0  2  0  0  0  0  0  0
  179.4690  178.0880  140.4160 C   0  0  0  0  0  1  0  0  0  0  0  0
  180.6800  178.7840  140.3530 O   0  0  0  0  0  0  0  0  0  0  0  0
  1  8  1  0  0  0  0
  1  3  1  0  0  0  0
  3  7  1  0  0  0  0
  3  4  2  0  0  0  0
  4  6  1  0  0  0  0
  5  2  1  0  0  0  0
  6  2  2  0  0  0  0
  7  5  2  0  0  0  0
  9 13  1  0  0  0  0
  9  8  1  0  0  0  0
 12 11  2  0  0  0  0
 13 12  1  0  0  0  0
 13 10  1  0  0  0  0
 14 12  1  6  0  0  0
 14 34  1  0  0  0  0
 16 26  1  0  0  0  0
 17 28  1  0  0  0  0
 18 16  1  0  0  0  0
 19 27  1  0  0  0  0
 20 17  1  0  0  0  0
 21 27  1  0  0  0  0
 21 23  2  0  0  0  0
 22 15  1  6  0  0  0
 22 28  1  0  0  0  0
 24 22  1  0  0  0  0
 25 16  2  0  0  0  0
 26 20  1  0  0  0  0
 26 24  1  0  0  0  0
 27 14  1  0  0  0  0
 28 21  1  0  0  0  0
 29 30  1  0  0  0  0
 31 34  1  0  0  0  0
 31 32  2  0  0  0  0
 32 33  1  0  0  0  0
 33 30  2  0  0  0  0
 34 29  2  0  0  0  0
 35  1  1  0  0  0  0
 36 35  1  0  0  0  0
 37 36  1  0  0  0  0
 38 37  1  0  0  0  0
 39 45  1  0  0  0  0
 39 46  1  1  0  0  0
 40 38  1  6  0  0  0
 40 44  1  0  0  0  0
 40 48  1  0  0  0  0
 41 45  1  0  0  0  0
 42 49  1  0  0  0  0
 43 42  1  0  0  0  0
 43 40  1  0  0  0  0
 44 47  1  1  0  0  0
 44 41  1  0  0  0  0
 45 48  1  6  0  0  0
 49 50  1  0  0  0  0
 50 51  1  1  0  0  0
 50 39  1  0  0  0  0
 52 53  1  0  0  0  0
 52 51  1  0  0  0  0
 55 54  1  0  0  0  0
 55 53  1  0  0  0  0
M  END
>  <MODEL>
2

>  <REMARK>
 VINA RESULT:      -7.1      2.476      3.057
  Name = 
  16 active torsions:
  status: ('A' for Active; 'I' for Inactive)
    1  A    between atoms: C_3  and  O_25
    2  A    between atoms: C_3  and  O_38
    3  A    between atoms: C_6  and  C_22
    4  A    between atoms: C_8  and  C_43
    5  A    between atoms: C_8  and  C_54
    6  A    between atoms: C_19  and  C_45
    7  A    between atoms: C_22  and  C_43
    8  A    between atoms: C_26  and  C_45
    9  A    between atoms: C_27  and  N_51
   10  A    between atoms: C_29  and  O_38
   11  A    between atoms: C_29  and  C_53
   12  A    between atoms: C_35  and  C_40
   13  A    between atoms: C_35  and  N_51
   14  A    between atoms: N_37  and  C_40
   15  A    between atoms: C_45  and  N_49
   16  A    between atoms: N_51  and  C_54
                            x       y       z     vdW  Elec       q    Type
                         _______ _______ _______ _____ _____    ______ ____

>  <TORSDO>
F 16

$$$$
=
 OpenBabel11052419383D

 55 59  0  0  1  0  0  0  0  0999 V2000
  190.3570  175.6770  146.0510 N   0  0  0  0  0  0  0  0  0  0  0  0
  186.9070  177.7310  147.4640 C   0  0  0  0  0  3  0  0  0  0  0  0
  189.1860  176.3750  146.5320 C   0  0  0  0  0  0  0  0  0  0  0  0
  189.2600  177.7300  146.9020 C   0  0  0  0  0  3  0  0  0  0  0  0
  186.8210  176.3860  147.1000 C   0  0  0  0  0  3  0  0  0  0  0  0
  188.1260  178.4050  147.3670 C   0  0  0  0  0  3  0  0  0  0  0  0
  187.9540  175.7100  146.6380 C   0  0  0  0  0  3  0  0  0  0  0  0
  191.4260  175.2930  146.9720 C   0  0  0  0  0  2  0  0  0  0  0  0
  192.5210  174.5160  146.2560 C   0  0  0  0  0  2  0  0  0  0  0  0
  193.9260  176.5720  146.6070 C   0  0  0  0  0  1  0  0  0  0  0  0
  194.9670  176.0230  144.0230 O   0  0  0  0  0  0  0  0  0  0  0  0
  194.3150  175.1120  144.6070 C   0  0  0  0  0  0  0  0  0  0  0  0
  193.5790  175.4080  145.8020 N   0  0  0  0  0  0  0  0  0  0  0  0
  194.3220  173.7080  144.0620 C   0  0  1  0  0  3  0  0  0  0  0  0
  190.6670  171.0910  140.2090 O   0  0  0  0  0  1  0  0  0  0  0  0
  190.5430  173.8670  137.4030 C   0  0  0  0  0  0  0  0  0  0  0  0
  193.1490  172.6780  139.8160 C   0  0  0  0  0  2  0  0  0  0  0  0
  189.1890  174.1940  137.3490 O   0  0  0  0  0  1  0  0  0  0  0  0
  194.0950  174.7380  141.8220 C   0  0  0  0  0  1  0  0  0  0  0  0
  192.6040  173.7080  138.8290 C   0  0  0  0  0  2  0  0  0  0  0  0
  192.8040  172.6370  142.3170 C   0  0  0  0  0  0  0  0  0  0  0  0
  190.8580  172.3550  140.7760 C   0  0  2  0  0  3  0  0  0  0  0  0
  192.3540  171.8260  143.1740 O   0  0  0  0  0  0  0  0  0  0  0  0
  190.3080  173.4290  139.8440 C   0  0  0  0  0  2  0  0  0  0  0  0
  191.2220  173.8700  136.3380 O   0  0  0  0  0  0  0  0  0  0  0  0
  191.1560  173.5540  138.6590 N   0  0  0  0  0  0  0  0  0  0  0  0
  193.7890  173.6210  142.7010 N   0  0  0  0  0  0  0  0  0  0  0  0
  192.2790  172.5990  140.9850 N   0  0  0  0  0  0  0  0  0  0  0  0
  196.4570  172.6450  143.1600 C   0  0  0  0  0  3  0  0  0  0  0  0
  197.6170  171.8850  143.3570 C   0  0  0  0  0  3  0  0  0  0  0  0
  195.9230  172.4360  145.5160 C   0  0  0  0  0  3  0  0  0  0  0  0
  197.0840  171.6800  145.7130 C   0  0  0  0  0  3  0  0  0  0  0  0
  197.9310  171.4000  144.6320 C   0  0  0  0  0  3  0  0  0  0  0  0
  195.6020  172.9270  144.2410 C   0  0  0  0  0  0  0  0  0  0  0  0
  190.5040  175.3500  144.6330 C   0  0  0  0  0  2  0  0  0  0  0  0
  189.7330  174.0770  144.2930 C   0  0  0  0  0  2  0  0  0  0  0  0
  188.7680  174.3120  143.1350 C   0  0  0  0  0  2  0  0  0  0  0  0
  189.1180  175.5820  142.3600 C   0  0  0  0  0  2  0  0  0  0  0  0
  184.8730  177.6830  143.3980 C   0  0  1  0  0  3  0  0  0  0  0  0
  187.9740  176.6020  142.2140 C   0  0  2  0  0  0  0  0  0  0  0  0
  187.2910  178.4330  143.7350 C   0  0  0  0  0  2  0  0  0  0  0  0
  186.3890  177.6760  140.4860 C   0  0  0  0  0  2  0  0  0  0  0  0
  187.4880  176.6480  140.7520 C   0  0  0  0  0  2  0  0  0  0  0  0
  188.3290  178.0240  142.7040 C   0  0  1  0  0  3  0  0  0  0  0  0
  186.2890  177.2940  143.8590 C   0  0  2  0  0  3  0  0  0  0  0  0
  184.2900  178.6750  144.3960 C   0  0  0  0  0  1  0  0  0  0  0  0
  189.7200  178.2000  143.3050 C   0  0  0  0  0  1  0  0  0  0  0  0
  186.8450  176.1040  143.1040 C   0  0  0  0  0  2  0  0  0  0  0  0
  185.1860  177.2450  141.0500 O   0  0  0  0  0  0  0  0  0  0  0  0
  184.8300  178.2390  141.9630 C   0  0  1  0  0  3  0  0  0  0  0  0
  183.4450  178.7660  141.5970 C   0  0  0  0  0  2  0  0  0  0  0  0
  183.0810  178.2750  140.3460 O   0  0  0  0  0  0  0  0  0  0  0  0
  181.7240  177.9690  140.4670 C   0  0  0  0  0  2  0  0  0  0  0  0
  179.8410  178.2860  141.5860 C   0  0  0  0  0  1  0  0  0  0  0  0
  181.1940  178.6360  141.5730 O   0  0  0  0  0  0  0  0  0  0  0  0
  1  3  1  0  0  0  0
  1  8  1  0  0  0  0
  3  7  2  0  0  0  0
  3  4  1  0  0  0  0
  4  6  2  0  0  0  0
  5  2  2  0  0  0  0
  6  2  1  0  0  0  0
  7  5  1  0  0  0  0
  9  8  1  0  0  0  0
 11 12  2  0  0  0  0
 12 13  1  0  0  0  0
 13  9  1  0  0  0  0
 13 10  1  0  0  0  0
 14 34  1  0  0  0  0
 14 12  1  6  0  0  0
 16 26  1  0  0  0  0
 17 28  1  0  0  0  0
 18 16  1  0  0  0  0
 19 27  1  0  0  0  0
 20 17  1  0  0  0  0
 21 27  1  0  0  0  0
 21 23  2  0  0  0  0
 22 15  1  6  0  0  0
 22 28  1  0  0  0  0
 24 22  1  0  0  0  0
 25 16  2  0  0  0  0
 26 20  1  0  0  0  0
 26 24  1  0  0  0  0
 27 14  1  0  0  0  0
 28 21  1  0  0  0  0
 29 30  2  0  0  0  0
 29 34  1  0  0  0  0
 30 33  1  0  0  0  0
 31 32  1  0  0  0  0
 33 32  2  0  0  0  0
 34 31  2  0  0  0  0
 35  1  1  0  0  0  0
 36 35  1  0  0  0  0
 37 36  1  0  0  0  0
 38 37  1  0  0  0  0
 39 45  1  0  0  0  0
 39 46  1  1  0  0  0
 40 38  1  1  0  0  0
 40 44  1  0  0  0  0
 40 48  1  0  0  0  0
 41 45  1  0  0  0  0
 42 43  1  0  0  0  0
 42 49  1  0  0  0  0
 43 40  1  0  0  0  0
 44 47  1  1  0  0  0
 44 41  1  0  0  0  0
 45 48  1  6  0  0  0
 49 50  1  0  0  0  0
 50 51  1  6  0  0  0
 50 39  1  0  0  0  0
 52 53  1  0  0  0  0
 52 51  1  0  0  0  0
 53 55  1  0  0  0  0
 55 54  1  0  0  0  0
M  END
>  <MODEL>
3

>  <REMARK>
 VINA RESULT:      -7.1      2.253      2.827
  Name = 
  16 active torsions:
  status: ('A' for Active; 'I' for Inactive)
    1  A    between atoms: C_3  and  O_25
    2  A    between atoms: C_3  and  O_38
    3  A    between atoms: C_6  and  C_22
    4  A    between atoms: C_8  and  C_43
    5  A    between atoms: C_8  and  C_54
    6  A    between atoms: C_19  and  C_45
    7  A    between atoms: C_22  and  C_43
    8  A    between atoms: C_26  and  C_45
    9  A    between atoms: C_27  and  N_51
   10  A    between atoms: C_29  and  O_38
   11  A    between atoms: C_29  and  C_53
   12  A    between atoms: C_35  and  C_40
   13  A    between atoms: C_35  and  N_51
   14  A    between atoms: N_37  and  C_40
   15  A    between atoms: C_45  and  N_49
   16  A    between atoms: N_51  and  C_54
                            x       y       z     vdW  Elec       q    Type
                         _______ _______ _______ _____ _____    ______ ____

>  <TORSDO>
F 16

$$$$
=
 OpenBabel11052419383D

 55 59  0  0  1  0  0  0  0  0999 V2000
  189.4220  173.7630  139.2480 N   0  0  0  0  0  0  0  0  0  0  0  0
  190.8240  172.8600  135.3320 C   0  0  0  0  0  3  0  0  0  0  0  0
  189.8980  173.4580  137.9180 C   0  0  0  0  0  0  0  0  0  0  0  0
  191.1220  173.9760  137.4570 C   0  0  0  0  0  3  0  0  0  0  0  0
  189.6070  172.3390  135.7770 C   0  0  0  0  0  3  0  0  0  0  0  0
  191.5820  173.6790  136.1700 C   0  0  0  0  0  3  0  0  0  0  0  0
  189.1450  172.6380  137.0630 C   0  0  0  0  0  3  0  0  0  0  0  0
  188.2590  174.6300  139.4420 C   0  0  0  0  0  2  0  0  0  0  0  0
  188.1790  175.1340  140.8760 C   0  0  0  0  0  2  0  0  0  0  0  0
  186.7690  176.8980  139.7660 C   0  0  0  0  0  1  0  0  0  0  0  0
  187.1930  178.4020  142.1370 O   0  0  0  0  0  0  0  0  0  0  0  0
  187.4660  177.1690  142.1590 C   0  0  0  0  0  0  0  0  0  0  0  0
  187.4900  176.4160  140.9380 N   0  0  0  0  0  0  0  0  0  0  0  0
  187.7510  176.4800  143.4680 C   0  0  1  0  0  3  0  0  0  0  0  0
  192.6790  173.4950  144.8330 O   0  0  0  0  0  1  0  0  0  0  0  0
  195.3770  176.2960  144.1470 C   0  0  0  0  0  0  0  0  0  0  0  0
  191.8430  176.2930  145.3870 C   0  0  0  0  0  2  0  0  0  0  0  0
  196.1760  175.7210  143.1590 O   0  0  0  0  0  0  0  0  0  0  0  0
  189.8570  177.7710  143.6460 C   0  0  0  0  0  1  0  0  0  0  0  0
  193.0650  177.0100  144.8170 C   0  0  0  0  0  2  0  0  0  0  0  0
  189.9200  175.2950  144.0890 C   0  0  0  0  0  0  0  0  0  0  0  0
  192.2250  174.3630  143.8360 C   0  0  2  0  0  3  0  0  0  0  0  0
  189.3600  174.1680  143.9890 O   0  0  0  0  0  0  0  0  0  0  0  0
  193.4070  175.0940  143.2080 C   0  0  0  0  0  2  0  0  0  0  0  0
  195.9110  177.0350  145.0190 O   0  0  0  0  0  1  0  0  0  0  0  0
  193.9640  176.0620  144.1520 N   0  0  0  0  0  0  0  0  0  0  0  0
  189.1700  176.5010  143.8270 N   0  0  0  0  0  0  0  0  0  0  0  0
  191.3160  175.3490  144.4070 N   0  0  0  0  0  0  0  0  0  0  0  0
  185.5840  177.4220  144.4250 C   0  0  0  0  0  3  0  0  0  0  0  0
  184.7910  177.7770  145.5230 C   0  0  0  0  0  3  0  0  0  0  0  0
  187.3070  176.6240  145.9320 C   0  0  0  0  0  3  0  0  0  0  0  0
  186.5120  176.9760  147.0290 C   0  0  0  0  0  3  0  0  0  0  0  0
  185.2540  177.5570  146.8250 C   0  0  0  0  0  3  0  0  0  0  0  0
  186.8490  176.8400  144.6240 C   0  0  0  0  0  0  0  0  0  0  0  0
  190.0960  173.2230  140.4280 C   0  0  0  0  0  2  0  0  0  0  0  0
  190.2410  171.7080  140.3170 C   0  0  0  0  0  2  0  0  0  0  0  0
  191.7060  171.3040  140.1770 C   0  0  0  0  0  2  0  0  0  0  0  0
  192.6420  172.3960  140.6960 C   0  0  0  0  0  2  0  0  0  0  0  0
  196.2930  174.8400  138.6460 C   0  0  1  0  0  3  0  0  0  0  0  0
  193.9460  172.5800  139.9000 C   0  0  2  0  0  0  0  0  0  0  0  0
  196.1820  173.3030  140.6830 C   0  0  0  0  0  2  0  0  0  0  0  0
  195.1180  171.9260  137.6970 C   0  0  0  0  0  2  0  0  0  0  0  0
  193.8480  171.8540  138.5440 C   0  0  0  0  0  2  0  0  0  0  0  0
  195.2170  172.1290  140.6560 C   0  0  1  0  0  3  0  0  0  0  0  0
  195.5320  174.4530  139.9270 C   0  0  2  0  0  3  0  0  0  0  0  0
  197.6190  175.4800  139.0390 C   0  0  0  0  0  1  0  0  0  0  0  0
  195.0090  171.6270  142.0810 C   0  0  0  0  0  1  0  0  0  0  0  0
  194.0890  174.0760  139.6600 C   0  0  0  0  0  2  0  0  0  0  0  0
  195.2780  173.2160  137.1860 O   0  0  0  0  0  0  0  0  0  0  0  0
  196.5050  173.6590  137.6820 C   0  0  1  0  0  3  0  0  0  0  0  0
  197.4000  174.0370  136.5050 C   0  0  0  0  0  2  0  0  0  0  0  0
  196.6760  174.8140  135.6060 O   0  0  0  0  0  0  0  0  0  0  0  0
  197.4990  175.9120  135.3440 C   0  0  0  0  0  2  0  0  0  0  0  0
  195.4220  176.6500  135.1460 C   0  0  0  0  0  1  0  0  0  0  0  0
  196.7340  177.0790  135.3610 O   0  0  0  0  0  0  0  0  0  0  0  0
  1  8  1  0  0  0  0
  1 35  1  0  0  0  0
  2  5  2  0  0  0  0
  2  6  1  0  0  0  0
  3  1  1  0  0  0  0
  4  3  1  0  0  0  0
  5  7  1  0  0  0  0
  6  4  2  0  0  0  0
  7  3  2  0  0  0  0
  8  9  1  0  0  0  0
  9 13  1  0  0  0  0
 10 13  1  0  0  0  0
 11 12  2  0  0  0  0
 13 12  1  0  0  0  0
 14 12  1  6  0  0  0
 14 27  1  0  0  0  0
 14 34  1  0  0  0  0
 16 26  1  0  0  0  0
 16 25  1  0  0  0  0
 18 16  2  0  0  0  0
 19 27  1  0  0  0  0
 20 17  1  0  0  0  0
 21 28  1  0  0  0  0
 22 28  1  0  0  0  0
 22 15  1  1  0  0  0
 23 21  2  0  0  0  0
 24 22  1  0  0  0  0
 24 26  1  0  0  0  0
 26 20  1  0  0  0  0
 27 21  1  0  0  0  0
 28 17  1  0  0  0  0
 29 34  2  0  0  0  0
 29 30  1  0  0  0  0
 30 33  2  0  0  0  0
 31 32  2  0  0  0  0
 33 32  1  0  0  0  0
 34 31  1  0  0  0  0
 36 35  1  0  0  0  0
 37 36  1  0  0  0  0
 37 38  1  0  0  0  0
 39 46  1  1  0  0  0
 39 45  1  0  0  0  0
 40 44  1  0  0  0  0
 40 38  1  1  0  0  0
 42 43  1  0  0  0  0
 43 40  1  0  0  0  0
 44 41  1  0  0  0  0
 44 47  1  1  0  0  0
 45 48  1  6  0  0  0
 45 41  1  0  0  0  0
 48 40  1  0  0  0  0
 49 50  1  0  0  0  0
 49 42  1  0  0  0  0
 50 51  1  6  0  0  0
 50 39  1  0  0  0  0
 52 51  1  0  0  0  0
 53 55  1  0  0  0  0
 53 52  1  0  0  0  0
 54 55  1  0  0  0  0
M  END
>  <MODEL>
4

>  <REMARK>
 VINA RESULT:      -6.5      2.772     10.118
  Name = 
  16 active torsions:
  status: ('A' for Active; 'I' for Inactive)
    1  A    between atoms: C_3  and  O_25
    2  A    between atoms: C_3  and  O_38
    3  A    between atoms: C_6  and  C_22
    4  A    between atoms: C_8  and  C_43
    5  A    between atoms: C_8  and  C_54
    6  A    between atoms: C_19  and  C_45
    7  A    between atoms: C_22  and  C_43
    8  A    between atoms: C_26  and  C_45
    9  A    between atoms: C_27  and  N_51
   10  A    between atoms: C_29  and  O_38
   11  A    between atoms: C_29  and  C_53
   12  A    between atoms: C_35  and  C_40
   13  A    between atoms: C_35  and  N_51
   14  A    between atoms: N_37  and  C_40
   15  A    between atoms: C_45  and  N_49
   16  A    between atoms: N_51  and  C_54
                            x       y       z     vdW  Elec       q    Type
                         _______ _______ _______ _____ _____    ______ ____

>  <TORSDO>
F 16

$$$$
=
 OpenBabel11052419383D

 55 59  0  0  1  0  0  0  0  0999 V2000
  187.7640  177.1640  142.1500 N   0  0  0  0  0  0  0  0  0  0  0  0
  185.2260  178.5900  145.2540 C   0  0  0  0  0  3  0  0  0  0  0  0
  186.9010  177.6470  143.2040 C   0  0  0  0  0  0  0  0  0  0  0  0
  186.7010  176.8890  144.3720 C   0  0  0  0  0  3  0  0  0  0  0  0
  185.4160  179.3530  144.1000 C   0  0  0  0  0  3  0  0  0  0  0  0
  185.8670  177.3580  145.3920 C   0  0  0  0  0  3  0  0  0  0  0  0
  186.2480  178.8830  143.0790 C   0  0  0  0  0  3  0  0  0  0  0  0
  187.4770  175.9000  141.4730 C   0  0  0  0  0  2  0  0  0  0  0  0
  188.7480  175.0990  141.2330 C   0  0  0  0  0  2  0  0  0  0  0  0
  187.2850  173.2220  142.0480 C   0  0  0  0  0  1  0  0  0  0  0  0
  189.3980  171.5190  141.2120 O   0  0  0  0  0  0  0  0  0  0  0  0
  189.4030  172.7150  140.8070 C   0  0  0  0  0  0  0  0  0  0  0  0
  188.4980  173.6710  141.3760 N   0  0  0  0  0  0  0  0  0  0  0  0
  190.3480  173.1390  139.7130 C   0  0  1  0  0  3  0  0  0  0  0  0
  195.7790  175.3200  138.8170 O   0  0  0  0  0  1  0  0  0  0  0  0
  197.2010  175.1230  142.4960 C   0  0  0  0  0  0  0  0  0  0  0  0
  194.8040  173.0630  140.4870 C   0  0  0  0  0  2  0  0  0  0  0  0
  197.5060  176.4530  142.7820 O   0  0  0  0  0  0  0  0  0  0  0  0
  191.9790  172.9410  141.5650 C   0  0  0  0  0  1  0  0  0  0  0  0
  195.4260  173.4810  141.8170 C   0  0  0  0  0  2  0  0  0  0  0  0
  192.7240  174.0110  139.4140 C   0  0  0  0  0  0  0  0  0  0  0  0
  194.7380  175.4530  139.7410 C   0  0  2  0  0  3  0  0  0  0  0  0
  192.4140  174.5440  138.3130 O   0  0  0  0  0  0  0  0  0  0  0  0
  195.2960  175.8960  141.0900 C   0  0  0  0  0  2  0  0  0  0  0  0
  197.9410  174.2070  142.9530 O   0  0  0  0  0  1  0  0  0  0  0  0
  196.0460  174.8050  141.7100 N   0  0  0  0  0  0  0  0  0  0  0  0
  191.7270  173.2990  140.1780 N   0  0  0  0  0  0  0  0  0  0  0  0
  194.0560  174.1770  139.9130 N   0  0  0  0  0  0  0  0  0  0  0  0
  189.5490  172.8790  137.3060 C   0  0  0  0  0  3  0  0  0  0  0  0
  189.4500  172.1260  136.1300 C   0  0  0  0  0  3  0  0  0  0  0  0
  190.8510  171.1080  138.3280 C   0  0  0  0  0  3  0  0  0  0  0  0
  190.7550  170.3570  137.1510 C   0  0  0  0  0  3  0  0  0  0  0  0
  190.0500  170.8640  136.0510 C   0  0  0  0  0  3  0  0  0  0  0  0
  190.2530  172.3760  138.4140 C   0  0  0  0  0  0  0  0  0  0  0  0
  188.9480  177.9210  141.7450 C   0  0  0  0  0  2  0  0  0  0  0  0
  189.7640  178.3350  142.9670 C   0  0  0  0  0  2  0  0  0  0  0  0
  190.7730  177.2560  143.3470 C   0  0  0  0  0  2  0  0  0  0  0  0
  190.5730  176.7820  144.7870 C   0  0  0  0  0  2  0  0  0  0  0  0
  194.7320  174.3220  145.1890 C   0  0  1  0  0  3  0  0  0  0  0  0
  191.4990  175.6380  145.2390 C   0  0  2  0  0  0  0  0  0  0  0  0
  193.3620  175.6700  146.8710 C   0  0  0  0  0  2  0  0  0  0  0  0
  191.7010  173.0680  145.3170 C   0  0  0  0  0  2  0  0  0  0  0  0
  190.8860  174.2770  144.8590 C   0  0  0  0  0  2  0  0  0  0  0  0
  191.8480  175.6650  146.7450 C   0  0  1  0  0  3  0  0  0  0  0  0
  193.9430  175.6150  145.4650 C   0  0  2  0  0  3  0  0  0  0  0  0
  196.0110  174.3430  146.0170 C   0  0  0  0  0  1  0  0  0  0  0  0
  191.2810  176.8330  147.5450 C   0  0  0  0  0  1  0  0  0  0  0  0
  192.8080  175.8280  144.4850 C   0  0  0  0  0  2  0  0  0  0  0  0
  192.8590  172.9520  144.5440 O   0  0  0  0  0  0  0  0  0  0  0  0
  193.9170  173.0420  145.4490 C   0  0  1  0  0  3  0  0  0  0  0  0
  194.7740  171.7850  145.3250 C   0  0  0  0  0  2  0  0  0  0  0  0
  194.0190  170.7680  144.7470 O   0  0  0  0  0  0  0  0  0  0  0  0
  194.7320  170.4070  143.6010 C   0  0  0  0  0  2  0  0  0  0  0  0
  192.7640  169.3960  143.5270 C   0  0  0  0  0  1  0  0  0  0  0  0
  193.9170  169.6320  142.7730 O   0  0  0  0  0  0  0  0  0  0  0  0
  1  3  1  0  0  0  0
  2  6  1  0  0  0  0
  3  4  1  0  0  0  0
  4  6  2  0  0  0  0
  5  2  2  0  0  0  0
  7  3  2  0  0  0  0
  7  5  1  0  0  0  0
  8  1  1  0  0  0  0
  9 13  1  0  0  0  0
  9  8  1  0  0  0  0
 12 11  2  0  0  0  0
 12 13  1  0  0  0  0
 13 10  1  0  0  0  0
 14 27  1  0  0  0  0
 14 12  1  1  0  0  0
 16 18  2  0  0  0  0
 16 25  1  0  0  0  0
 17 20  1  0  0  0  0
 21 28  1  0  0  0  0
 21 27  1  0  0  0  0
 22 15  1  6  0  0  0
 22 28  1  0  0  0  0
 22 24  1  0  0  0  0
 23 21  2  0  0  0  0
 24 26  1  0  0  0  0
 26 20  1  0  0  0  0
 26 16  1  0  0  0  0
 27 19  1  0  0  0  0
 28 17  1  0  0  0  0
 29 34  1  0  0  0  0
 30 29  2  0  0  0  0
 31 34  2  0  0  0  0
 32 31  1  0  0  0  0
 33 30  1  0  0  0  0
 33 32  2  0  0  0  0
 34 14  1  0  0  0  0
 35  1  1  0  0  0  0
 35 36  1  0  0  0  0
 36 37  1  0  0  0  0
 37 38  1  0  0  0  0
 39 50  1  0  0  0  0
 39 45  1  0  0  0  0
 39 46  1  1  0  0  0
 40 38  1  6  0  0  0
 40 44  1  0  0  0  0
 43 40  1  0  0  0  0
 43 42  1  0  0  0  0
 44 41  1  0  0  0  0
 44 47  1  6  0  0  0
 45 48  1  6  0  0  0
 45 41  1  0  0  0  0
 48 40  1  0  0  0  0
 49 42  1  0  0  0  0
 49 50  1  0  0  0  0
 50 51  1  6  0  0  0
 52 51  1  0  0  0  0
 53 52  1  0  0  0  0
 55 54  1  0  0  0  0
 55 53  1  0  0  0  0
M  END
>  <MODEL>
5

>  <REMARK>
 VINA RESULT:      -6.4      3.211      7.841
  Name = 
  16 active torsions:
  status: ('A' for Active; 'I' for Inactive)
    1  A    between atoms: C_3  and  O_25
    2  A    between atoms: C_3  and  O_38
    3  A    between atoms: C_6  and  C_22
    4  A    between atoms: C_8  and  C_43
    5  A    between atoms: C_8  and  C_54
    6  A    between atoms: C_19  and  C_45
    7  A    between atoms: C_22  and  C_43
    8  A    between atoms: C_26  and  C_45
    9  A    between atoms: C_27  and  N_51
   10  A    between atoms: C_29  and  O_38
   11  A    between atoms: C_29  and  C_53
   12  A    between atoms: C_35  and  C_40
   13  A    between atoms: C_35  and  N_51
   14  A    between atoms: N_37  and  C_40
   15  A    between atoms: C_45  and  N_49
   16  A    between atoms: N_51  and  C_54
                            x       y       z     vdW  Elec       q    Type
                         _______ _______ _______ _____ _____    ______ ____

>  <TORSDO>
F 16

$$$$
=
 OpenBabel11052419383D

 55 59  0  0  1  0  0  0  0  0999 V2000
  191.0200  172.9780  144.4780 N   0  0  0  0  0  0  0  0  0  0  0  0
  189.7130  176.3410  146.7350 C   0  0  0  0  0  3  0  0  0  0  0  0
  190.5750  174.1200  145.2440 C   0  0  0  0  0  0  0  0  0  0  0  0
  189.3540  174.0850  145.9410 C   0  0  0  0  0  3  0  0  0  0  0  0
  190.9270  176.3890  146.0470 C   0  0  0  0  0  3  0  0  0  0  0  0
  188.9240  175.1900  146.6830 C   0  0  0  0  0  3  0  0  0  0  0  0
  191.3560  175.2850  145.3040 C   0  0  0  0  0  3  0  0  0  0  0  0
  192.3460  172.4010  144.7020 C   0  0  0  0  0  2  0  0  0  0  0  0
  193.2810  172.6940  143.5390 C   0  0  0  0  0  2  0  0  0  0  0  0
  194.1090  170.3270  143.3400 C   0  0  0  0  0  1  0  0  0  0  0  0
  196.6670  171.4160  143.9150 O   0  0  0  0  0  0  0  0  0  0  0  0
  195.7430  172.2110  143.5880 C   0  0  0  0  0  0  0  0  0  0  0  0
  194.3880  171.7470  143.5110 N   0  0  0  0  0  0  0  0  0  0  0  0
  196.0600  173.6470  143.2600 C   0  0  1  0  0  3  0  0  0  0  0  0
  197.9410  173.5570  137.6460 O   0  0  0  0  0  1  0  0  0  0  0  0
  194.5160  174.1690  135.7770 C   0  0  0  0  0  0  0  0  0  0  0  0
  195.9670  175.2850  139.0440 C   0  0  0  0  0  2  0  0  0  0  0  0
  194.3870  173.0280  134.9860 O   0  0  0  0  0  0  0  0  0  0  0  0
  194.4670  174.3730  141.5090 C   0  0  0  0  0  1  0  0  0  0  0  0
  194.7840  175.0870  138.0990 C   0  0  0  0  0  2  0  0  0  0  0  0
  196.7850  173.6830  140.8170 C   0  0  0  0  0  0  0  0  0  0  0  0
  196.8830  173.0430  138.4030 C   0  0  2  0  0  3  0  0  0  0  0  0
  197.8660  173.0980  141.1050 O   0  0  0  0  0  0  0  0  0  0  0  0
  195.6750  172.7990  137.5050 C   0  0  0  0  0  2  0  0  0  0  0  0
  194.1050  175.2780  135.3340 O   0  0  0  0  0  1  0  0  0  0  0  0
  195.0900  174.0720  137.0860 N   0  0  0  0  0  0  0  0  0  0  0  0
  195.8240  173.9780  141.8530 N   0  0  0  0  0  0  0  0  0  0  0  0
  196.5080  173.9900  139.4450 N   0  0  0  0  0  0  0  0  0  0  0  0
  195.1280  175.9650  143.7640 C   0  0  0  0  0  3  0  0  0  0  0  0
  194.6580  176.9170  144.6780 C   0  0  0  0  0  3  0  0  0  0  0  0
  195.4200  174.3770  145.5730 C   0  0  0  0  0  3  0  0  0  0  0  0
  194.9470  175.3280  146.4850 C   0  0  0  0  0  3  0  0  0  0  0  0
  194.5690  176.6010  146.0380 C   0  0  0  0  0  3  0  0  0  0  0  0
  195.5110  174.6860  144.2070 C   0  0  0  0  0  0  0  0  0  0  0  0
  190.1630  172.3820  143.4530 C   0  0  0  0  0  2  0  0  0  0  0  0
  190.1940  173.2180  142.1760 C   0  0  0  0  0  2  0  0  0  0  0  0
  188.9560  174.1030  142.0670 C   0  0  0  0  0  2  0  0  0  0  0  0
  189.3260  175.5860  142.0500 C   0  0  0  0  0  2  0  0  0  0  0  0
  185.2540  177.3090  144.0400 C   0  0  1  0  0  3  0  0  0  0  0  0
  188.1500  176.5610  142.2400 C   0  0  2  0  0  0  0  0  0  0  0  0
  187.6760  178.1150  144.1100 C   0  0  0  0  0  2  0  0  0  0  0  0
  186.2840  177.8020  140.9630 C   0  0  0  0  0  2  0  0  0  0  0  0
  187.4350  176.7990  140.8960 C   0  0  0  0  0  2  0  0  0  0  0  0
  188.5450  177.9120  142.8800 C   0  0  1  0  0  3  0  0  0  0  0  0
  186.7340  176.9230  144.2120 C   0  0  2  0  0  3  0  0  0  0  0  0
  184.8140  178.1150  145.2560 C   0  0  0  0  0  1  0  0  0  0  0  0
  190.0100  178.0630  143.2790 C   0  0  0  0  0  1  0  0  0  0  0  0
  187.1890  175.8850  143.2070 C   0  0  0  0  0  2  0  0  0  0  0  0
  185.1960  177.2360  141.6330 O   0  0  0  0  0  0  0  0  0  0  0  0
  184.9690  178.0670  142.7320 C   0  0  1  0  0  3  0  0  0  0  0  0
  183.5310  178.5760  142.6680 C   0  0  0  0  0  2  0  0  0  0  0  0
  182.8790  177.9830  141.5900 O   0  0  0  0  0  0  0  0  0  0  0  0
  181.5430  178.3670  141.7300 C   0  0  0  0  0  2  0  0  0  0  0  0
  180.2600  179.9410  140.8490 C   0  0  0  0  0  1  0  0  0  0  0  0
  181.0700  178.8530  140.5100 O   0  0  0  0  0  0  0  0  0  0  0  0
  1  8  1  0  0  0  0
  1  3  1  0  0  0  0
  3  7  2  0  0  0  0
  3  4  1  0  0  0  0
  4  6  2  0  0  0  0
  5  2  2  0  0  0  0
  6  2  1  0  0  0  0
  7  5  1  0  0  0  0
  9  8  1  0  0  0  0
 10 13  1  0  0  0  0
 12 11  2  0  0  0  0
 13  9  1  0  0  0  0
 13 12  1  0  0  0  0
 14 12  1  1  0  0  0
 14 34  1  0  0  0  0
 16 26  1  0  0  0  0
 17 28  1  0  0  0  0
 18 16  2  0  0  0  0
 19 27  1  0  0  0  0
 20 17  1  0  0  0  0
 21 23  2  0  0  0  0
 21 27  1  0  0  0  0
 22 15  1  6  0  0  0
 22 28  1  0  0  0  0
 24 22  1  0  0  0  0
 25 16  1  0  0  0  0
 26 24  1  0  0  0  0
 26 20  1  0  0  0  0
 27 14  1  0  0  0  0
 28 21  1  0  0  0  0
 29 34  2  0  0  0  0
 29 30  1  0  0  0  0
 30 33  2  0  0  0  0
 31 32  2  0  0  0  0
 33 32  1  0  0  0  0
 34 31  1  0  0  0  0
 35  1  1  0  0  0  0
 36 35  1  0  0  0  0
 37 36  1  0  0  0  0
 38 37  1  0  0  0  0
 39 45  1  0  0  0  0
 39 46  1  1  0  0  0
 40 38  1  6  0  0  0
 40 44  1  0  0  0  0
 40 48  1  0  0  0  0
 41 45  1  0  0  0  0
 42 49  1  0  0  0  0
 43 42  1  0  0  0  0
 43 40  1  0  0  0  0
 44 47  1  1  0  0  0
 44 41  1  0  0  0  0
 45 48  1  6  0  0  0
 49 50  1  0  0  0  0
 50 51  1  1  0  0  0
 50 39  1  0  0  0  0
 52 53  1  0  0  0  0
 52 51  1  0  0  0  0
 55 54  1  0  0  0  0
 55 53  1  0  0  0  0
M  END
>  <MODEL>
6

>  <REMARK>
 VINA RESULT:      -6.3      1.620      2.824
  Name = 
  16 active torsions:
  status: ('A' for Active; 'I' for Inactive)
    1  A    between atoms: C_3  and  O_25
    2  A    between atoms: C_3  and  O_38
    3  A    between atoms: C_6  and  C_22
    4  A    between atoms: C_8  and  C_43
    5  A    between atoms: C_8  and  C_54
    6  A    between atoms: C_19  and  C_45
    7  A    between atoms: C_22  and  C_43
    8  A    between atoms: C_26  and  C_45
    9  A    between atoms: C_27  and  N_51
   10  A    between atoms: C_29  and  O_38
   11  A    between atoms: C_29  and  C_53
   12  A    between atoms: C_35  and  C_40
   13  A    between atoms: C_35  and  N_51
   14  A    between atoms: N_37  and  C_40
   15  A    between atoms: C_45  and  N_49
   16  A    between atoms: N_51  and  C_54
                            x       y       z     vdW  Elec       q    Type
                         _______ _______ _______ _____ _____    ______ ____

>  <TORSDO>
F 16

$$$$
=
 OpenBabel11052419383D

 55 59  0  0  1  0  0  0  0  0999 V2000
  194.4800  171.8750  141.2660 N   0  0  0  0  0  0  0  0  0  0  0  0
  197.7840  173.8020  139.4030 C   0  0  0  0  0  3  0  0  0  0  0  0
  195.6010  172.5280  140.6320 C   0  0  0  0  0  0  0  0  0  0  0  0
  195.5350  172.9220  139.2840 C   0  0  0  0  0  3  0  0  0  0  0  0
  197.8640  173.4170  140.7420 C   0  0  0  0  0  3  0  0  0  0  0  0
  196.6210  173.5550  138.6710 C   0  0  0  0  0  3  0  0  0  0  0  0
  196.7790  172.7820  141.3540 C   0  0  0  0  0  3  0  0  0  0  0  0
  194.5790  171.3930  142.6440 C   0  0  0  0  0  2  0  0  0  0  0  0
  193.3150  171.7050  143.4320 C   0  0  0  0  0  2  0  0  0  0  0  0
  194.2660  171.9340  145.7490 C   0  0  0  0  0  1  0  0  0  0  0  0
  193.2580  174.5860  145.6540 O   0  0  0  0  0  0  0  0  0  0  0  0
  193.3350  173.9400  144.5720 C   0  0  0  0  0  0  0  0  0  0  0  0
  193.6160  172.5340  144.5910 N   0  0  0  0  0  0  0  0  0  0  0  0
  193.1470  174.6470  143.2540 C   0  0  1  0  0  3  0  0  0  0  0  0
  187.3630  174.9760  142.0330 O   0  0  0  0  0  1  0  0  0  0  0  0
  186.4310  178.2380  144.0540 C   0  0  0  0  0  0  0  0  0  0  0  0
  189.4710  177.0650  142.2070 C   0  0  0  0  0  2  0  0  0  0  0  0
  185.4700  177.7800  144.9550 O   0  0  0  0  0  1  0  0  0  0  0  0
  191.9610  176.7240  143.8930 C   0  0  0  0  0  1  0  0  0  0  0  0
  188.7790  178.0010  143.1960 C   0  0  0  0  0  2  0  0  0  0  0  0
  190.6650  174.9040  142.7370 C   0  0  0  0  0  0  0  0  0  0  0  0
  188.2080  175.1120  143.1390 C   0  0  2  0  0  3  0  0  0  0  0  0
  190.5920  173.6960  142.3770 O   0  0  0  0  0  0  0  0  0  0  0  0
  187.5580  176.0190  144.1780 C   0  0  0  0  0  2  0  0  0  0  0  0
  186.3200  179.3990  143.5700 O   0  0  0  0  0  0  0  0  0  0  0  0
  187.5400  177.4020  143.7020 N   0  0  0  0  0  0  0  0  0  0  0  0
  191.9210  175.4450  143.2030 N   0  0  0  0  0  0  0  0  0  0  0  0
  189.4760  175.7020  142.7290 N   0  0  0  0  0  0  0  0  0  0  0  0
  194.3970  175.8580  141.3910 C   0  0  0  0  0  3  0  0  0  0  0  0
  195.5430  176.5050  140.9130 C   0  0  0  0  0  3  0  0  0  0  0  0
  195.4640  175.5640  143.5480 C   0  0  0  0  0  3  0  0  0  0  0  0
  196.6080  176.2140  143.0710 C   0  0  0  0  0  3  0  0  0  0  0  0
  196.6500  176.6820  141.7510 C   0  0  0  0  0  3  0  0  0  0  0  0
  194.3490  175.3850  142.7140 C   0  0  0  0  0  0  0  0  0  0  0  0
  193.2250  171.6680  140.5430 C   0  0  0  0  0  2  0  0  0  0  0  0
  193.1230  170.2280  140.0460 C   0  0  0  0  0  2  0  0  0  0  0  0
  191.9990  170.0760  139.0250 C   0  0  0  0  0  2  0  0  0  0  0  0
  192.0660  171.1620  137.9510 C   0  0  0  0  0  2  0  0  0  0  0  0
  189.2800  174.8340  136.4480 C   0  0  1  0  0  3  0  0  0  0  0  0
  190.7560  171.9330  137.7100 C   0  0  2  0  0  0  0  0  0  0  0  0
  189.6020  172.4540  135.5810 C   0  0  0  0  0  2  0  0  0  0  0  0
  188.5990  172.7330  138.8760 C   0  0  0  0  0  2  0  0  0  0  0  0
  189.9510  172.0340  139.0190 C   0  0  0  0  0  2  0  0  0  0  0  0
  189.8740  171.3450  136.5840 C   0  0  1  0  0  3  0  0  0  0  0  0
  190.2780  173.7170  136.0930 C   0  0  2  0  0  3  0  0  0  0  0  0
  188.6540  175.3570  135.1610 C   0  0  0  0  0  1  0  0  0  0  0  0
  190.4440  170.1380  135.8460 C   0  0  0  0  0  1  0  0  0  0  0  0
  191.1620  173.3300  137.2610 C   0  0  0  0  0  2  0  0  0  0  0  0
  188.7890  174.1040  138.6900 O   0  0  0  0  0  0  0  0  0  0  0  0
  188.2040  174.3930  137.4560 C   0  0  1  0  0  3  0  0  0  0  0  0
  187.1390  175.4670  137.6610 C   0  0  0  0  0  2  0  0  0  0  0  0
  187.3140  176.0580  138.9080 O   0  0  0  0  0  0  0  0  0  0  0  0
  186.1860  176.8660  139.0780 C   0  0  0  0  0  2  0  0  0  0  0  0
  185.1100  178.2930  140.3830 C   0  0  0  0  0  1  0  0  0  0  0  0
  186.3260  177.6180  140.2460 O   0  0  0  0  0  0  0  0  0  0  0  0
  1  8  1  0  0  0  0
  2  5  1  0  0  0  0
  3  1  1  0  0  0  0
  3  7  1  0  0  0  0
  4  3  2  0  0  0  0
  5  7  2  0  0  0  0
  6  4  1  0  0  0  0
  6  2  2  0  0  0  0
  8  9  1  0  0  0  0
  9 13  1  0  0  0  0
 12 13  1  0  0  0  0
 12 11  2  0  0  0  0
 13 10  1  0  0  0  0
 14 12  1  1  0  0  0
 16 18  1  0  0  0  0
 17 28  1  0  0  0  0
 17 20  1  0  0  0  0
 20 26  1  0  0  0  0
 21 27  1  0  0  0  0
 22 15  1  6  0  0  0
 22 24  1  0  0  0  0
 23 21  2  0  0  0  0
 25 16  2  0  0  0  0
 26 16  1  0  0  0  0
 26 24  1  0  0  0  0
 27 14  1  0  0  0  0
 27 19  1  0  0  0  0
 28 21  1  0  0  0  0
 28 22  1  0  0  0  0
 29 34  1  0  0  0  0
 30 29  2  0  0  0  0
 30 33  1  0  0  0  0
 32 31  1  0  0  0  0
 33 32  2  0  0  0  0
 34 14  1  0  0  0  0
 34 31  2  0  0  0  0
 35  1  1  0  0  0  0
 36 35  1  0  0  0  0
 37 36  1  0  0  0  0
 38 37  1  0  0  0  0
 39 46  1  6  0  0  0
 39 50  1  0  0  0  0
 40 38  1  1  0  0  0
 40 43  1  0  0  0  0
 41 44  1  0  0  0  0
 42 43  1  0  0  0  0
 44 47  1  6  0  0  0
 44 40  1  0  0  0  0
 45 41  1  1  0  0  0
 45 39  1  0  0  0  0
 45 48  1  0  0  0  0
 48 40  1  0  0  0  0
 49 42  1  0  0  0  0
 50 51  1  1  0  0  0
 50 49  1  0  0  0  0
 51 52  1  0  0  0  0
 52 53  1  0  0  0  0
 53 55  1  0  0  0  0
 55 54  1  0  0  0  0
M  END
>  <MODEL>
7

>  <REMARK>
 VINA RESULT:      -6.3      3.292      8.083
  Name = 
  16 active torsions:
  status: ('A' for Active; 'I' for Inactive)
    1  A    between atoms: C_3  and  O_25
    2  A    between atoms: C_3  and  O_38
    3  A    between atoms: C_6  and  C_22
    4  A    between atoms: C_8  and  C_43
    5  A    between atoms: C_8  and  C_54
    6  A    between atoms: C_19  and  C_45
    7  A    between atoms: C_22  and  C_43
    8  A    between atoms: C_26  and  C_45
    9  A    between atoms: C_27  and  N_51
   10  A    between atoms: C_29  and  O_38
   11  A    between atoms: C_29  and  C_53
   12  A    between atoms: C_35  and  C_40
   13  A    between atoms: C_35  and  N_51
   14  A    between atoms: N_37  and  C_40
   15  A    between atoms: C_45  and  N_49
   16  A    between atoms: N_51  and  C_54
                            x       y       z     vdW  Elec       q    Type
                         _______ _______ _______ _____ _____    ______ ____

>  <TORSDO>
F 16

$$$$
=
 OpenBabel11052419383D

 55 59  0  0  1  0  0  0  0  0999 V2000
  191.4020  173.5450  144.2320 N   0  0  0  0  0  0  0  0  0  0  0  0
  190.1660  176.2720  147.2560 C   0  0  0  0  0  3  0  0  0  0  0  0
  190.9810  174.4710  145.2580 C   0  0  0  0  0  0  0  0  0  0  0  0
  189.6920  174.3890  145.8150 C   0  0  0  0  0  3  0  0  0  0  0  0
  191.4480  176.3650  146.7120 C   0  0  0  0  0  3  0  0  0  0  0  0
  189.2860  175.2850  146.8090 C   0  0  0  0  0  3  0  0  0  0  0  0
  191.8540  175.4710  145.7170 C   0  0  0  0  0  3  0  0  0  0  0  0
  192.0840  172.3000  144.5850 C   0  0  0  0  0  2  0  0  0  0  0  0
  193.5950  172.4470  144.4830 C   0  0  0  0  0  2  0  0  0  0  0  0
  193.7880  169.9440  144.6400 C   0  0  0  0  0  1  0  0  0  0  0  0
  195.9560  170.2280  142.8300 O   0  0  0  0  0  0  0  0  0  0  0  0
  195.1760  171.2090  142.9800 C   0  0  0  0  0  0  0  0  0  0  0  0
  194.2100  171.2040  144.0400 N   0  0  0  0  0  0  0  0  0  0  0  0
  195.2440  172.3810  142.0360 C   0  0  1  0  0  3  0  0  0  0  0  0
  193.5530  173.7330  136.5250 O   0  0  0  0  0  1  0  0  0  0  0  0
  190.5460  171.2080  136.1030 C   0  0  0  0  0  0  0  0  0  0  0  0
  191.9920  173.1210  138.9800 C   0  0  0  0  0  2  0  0  0  0  0  0
  190.9420  170.4360  135.0110 O   0  0  0  0  0  0  0  0  0  0  0  0
  193.1020  171.4330  141.2330 C   0  0  0  0  0  1  0  0  0  0  0  0
  191.1110  172.0090  138.4150 C   0  0  0  0  0  2  0  0  0  0  0  0
  194.4070  172.9340  139.6930 C   0  0  0  0  0  0  0  0  0  0  0  0
  193.7740  172.5910  137.3010 C   0  0  2  0  0  3  0  0  0  0  0  0
  195.4990  173.5020  139.4130 O   0  0  0  0  0  0  0  0  0  0  0  0
  192.9370  171.4330  136.7670 C   0  0  0  0  0  2  0  0  0  0  0  0
  189.3240  171.4850  136.2530 O   0  0  0  0  0  1  0  0  0  0  0  0
  191.5200  171.6600  137.0510 N   0  0  0  0  0  0  0  0  0  0  0  0
  194.2160  172.3370  140.9940 N   0  0  0  0  0  0  0  0  0  0  0  0
  193.3940  172.8450  138.6840 N   0  0  0  0  0  0  0  0  0  0  0  0
  196.4350  174.0620  143.5380 C   0  0  0  0  0  3  0  0  0  0  0  0
  196.5020  175.3250  144.1400 C   0  0  0  0  0  3  0  0  0  0  0  0
  194.3820  174.7060  142.4210 C   0  0  0  0  0  3  0  0  0  0  0  0
  194.4520  175.9690  143.0200 C   0  0  0  0  0  3  0  0  0  0  0  0
  195.5110  176.2780  143.8840 C   0  0  0  0  0  3  0  0  0  0  0  0
  195.3740  173.7450  142.6720 C   0  0  0  0  0  0  0  0  0  0  0  0
  191.1690  173.8370  142.8170 C   0  0  0  0  0  2  0  0  0  0  0  0
  189.9160  173.1190  142.3210 C   0  0  0  0  0  2  0  0  0  0  0  0
  188.8290  174.1160  141.9310 C   0  0  0  0  0  2  0  0  0  0  0  0
  189.2890  175.5590  142.1380 C   0  0  0  0  0  2  0  0  0  0  0  0
  185.3570  177.2550  144.4120 C   0  0  1  0  0  3  0  0  0  0  0  0
  188.1720  176.5660  142.4660 C   0  0  2  0  0  0  0  0  0  0  0  0
  187.8210  177.9200  144.5110 C   0  0  0  0  0  2  0  0  0  0  0  0
  186.3530  178.0400  141.3850 C   0  0  0  0  0  2  0  0  0  0  0  0
  187.4460  176.9920  141.1760 C   0  0  0  0  0  2  0  0  0  0  0  0
  188.6540  177.8120  143.2450 C   0  0  1  0  0  3  0  0  0  0  0  0
  186.8170  176.7750  144.5020 C   0  0  2  0  0  3  0  0  0  0  0  0
  184.9860  177.9390  145.7220 C   0  0  0  0  0  1  0  0  0  0  0  0
  190.1320  177.8400  143.6210 C   0  0  0  0  0  1  0  0  0  0  0  0
  187.1950  175.8350  143.3760 C   0  0  0  0  0  2  0  0  0  0  0  0
  185.2500  177.4600  142.0150 O   0  0  0  0  0  0  0  0  0  0  0  0
  185.0890  178.1710  143.2050 C   0  0  1  0  0  3  0  0  0  0  0  0
  183.6800  178.7580  143.2360 C   0  0  0  0  0  2  0  0  0  0  0  0
  182.9050  178.1490  142.2530 O   0  0  0  0  0  0  0  0  0  0  0  0
  181.8240  179.0140  142.0690 C   0  0  0  0  0  2  0  0  0  0  0  0
  180.2990  179.8100  140.6770 C   0  0  0  0  0  1  0  0  0  0  0  0
  181.3560  178.8990  140.7590 O   0  0  0  0  0  0  0  0  0  0  0  0
  1  8  1  0  0  0  0
  1  3  1  0  0  0  0
  3  7  2  0  0  0  0
  3  4  1  0  0  0  0
  4  6  2  0  0  0  0
  5  2  2  0  0  0  0
  6  2  1  0  0  0  0
  7  5  1  0  0  0  0
  9  8  1  0  0  0  0
 11 12  2  0  0  0  0
 12 13  1  0  0  0  0
 13  9  1  0  0  0  0
 13 10  1  0  0  0  0
 14 34  1  0  0  0  0
 14 12  1  1  0  0  0
 16 25  1  0  0  0  0
 16 26  1  0  0  0  0
 18 16  2  0  0  0  0
 20 17  1  0  0  0  0
 21 27  1  0  0  0  0
 22 15  1  6  0  0  0
 22 28  1  0  0  0  0
 23 21  2  0  0  0  0
 24 26  1  0  0  0  0
 24 22  1  0  0  0  0
 26 20  1  0  0  0  0
 27 19  1  0  0  0  0
 27 14  1  0  0  0  0
 28 17  1  0  0  0  0
 28 21  1  0  0  0  0
 29 30  1  0  0  0  0
 31 34  1  0  0  0  0
 31 32  2  0  0  0  0
 32 33  1  0  0  0  0
 33 30  2  0  0  0  0
 34 29  2  0  0  0  0
 35  1  1  0  0  0  0
 36 35  1  0  0  0  0
 37 38  1  0  0  0  0
 37 36  1  0  0  0  0
 39 45  1  0  0  0  0
 39 46  1  1  0  0  0
 40 38  1  6  0  0  0
 40 44  1  0  0  0  0
 40 48  1  0  0  0  0
 42 49  1  0  0  0  0
 43 42  1  0  0  0  0
 43 40  1  0  0  0  0
 44 47  1  1  0  0  0
 44 41  1  0  0  0  0
 45 48  1  6  0  0  0
 45 41  1  0  0  0  0
 49 50  1  0  0  0  0
 50 51  1  1  0  0  0
 50 39  1  0  0  0  0
 52 51  1  0  0  0  0
 53 52  1  0  0  0  0
 54 55  1  0  0  0  0
 55 53  1  0  0  0  0
M  END
>  <MODEL>
8

>  <REMARK>
 VINA RESULT:      -6.3      2.322      3.531
  Name = 
  16 active torsions:
  status: ('A' for Active; 'I' for Inactive)
    1  A    between atoms: C_3  and  O_25
    2  A    between atoms: C_3  and  O_38
    3  A    between atoms: C_6  and  C_22
    4  A    between atoms: C_8  and  C_43
    5  A    between atoms: C_8  and  C_54
    6  A    between atoms: C_19  and  C_45
    7  A    between atoms: C_22  and  C_43
    8  A    between atoms: C_26  and  C_45
    9  A    between atoms: C_27  and  N_51
   10  A    between atoms: C_29  and  O_38
   11  A    between atoms: C_29  and  C_53
   12  A    between atoms: C_35  and  C_40
   13  A    between atoms: C_35  and  N_51
   14  A    between atoms: N_37  and  C_40
   15  A    between atoms: C_45  and  N_49
   16  A    between atoms: N_51  and  C_54
                            x       y       z     vdW  Elec       q    Type
                         _______ _______ _______ _____ _____    ______ ____

>  <TORSDO>
F 16

$$$$
=
 OpenBabel11052419383D

 55 59  0  0  1  0  0  0  0  0999 V2000
  189.6700  172.6820  138.8420 N   0  0  0  0  0  0  0  0  0  0  0  0
  190.8350  175.1300  135.5620 C   0  0  0  0  0  3  0  0  0  0  0  0
  190.0670  173.5140  137.7290 C   0  0  0  0  0  0  0  0  0  0  0  0
  191.4140  173.8740  137.5460 C   0  0  0  0  0  3  0  0  0  0  0  0
  189.4940  174.7800  135.7320 C   0  0  0  0  0  3  0  0  0  0  0  0
  191.7960  174.6790  136.4680 C   0  0  0  0  0  3  0  0  0  0  0  0
  189.1110  173.9770  136.8110 C   0  0  0  0  0  3  0  0  0  0  0  0
  189.6160  173.2270  140.1990 C   0  0  0  0  0  2  0  0  0  0  0  0
  190.8810  172.8960  140.9780 C   0  0  0  0  0  2  0  0  0  0  0  0
  190.4340  170.6380  141.9920 C   0  0  0  0  0  1  0  0  0  0  0  0
  189.8730  172.0740  144.3760 O   0  0  0  0  0  0  0  0  0  0  0  0
  190.4700  172.6810  143.4440 C   0  0  0  0  0  0  0  0  0  0  0  0
  190.5730  172.0800  142.1450 N   0  0  0  0  0  0  0  0  0  0  0  0
  191.0910  174.0300  143.6950 C   0  0  1  0  0  3  0  0  0  0  0  0
  187.0210  178.3000  143.1890 O   0  0  0  0  0  1  0  0  0  0  0  0
  185.4000  178.1180  146.7850 C   0  0  0  0  0  0  0  0  0  0  0  0
  188.8410  177.5560  145.4180 C   0  0  0  0  0  2  0  0  0  0  0  0
  184.0660  177.8210  146.5090 O   0  0  0  0  0  0  0  0  0  0  0  0
  189.9310  174.7530  145.7590 C   0  0  0  0  0  1  0  0  0  0  0  0
  187.7980  177.4190  146.5240 C   0  0  0  0  0  2  0  0  0  0  0  0
  189.3510  175.8880  143.5910 C   0  0  0  0  0  0  0  0  0  0  0  0
  187.1140  176.9980  143.6910 C   0  0  2  0  0  3  0  0  0  0  0  0
  189.3890  175.8840  142.3290 O   0  0  0  0  0  0  0  0  0  0  0  0
  186.0750  176.7910  144.7870 C   0  0  0  0  0  2  0  0  0  0  0  0
  185.6760  178.8740  147.7580 O   0  0  0  0  0  1  0  0  0  0  0  0
  186.4420  177.5490  145.9830 N   0  0  0  0  0  0  0  0  0  0  0  0
  190.1740  174.9700  144.3420 N   0  0  0  0  0  0  0  0  0  0  0  0
  188.4390  176.7730  144.2530 N   0  0  0  0  0  0  0  0  0  0  0  0
  193.0620  172.8470  144.7980 C   0  0  0  0  0  3  0  0  0  0  0  0
  194.3220  172.8880  145.4070 C   0  0  0  0  0  3  0  0  0  0  0  0
  193.1440  175.2470  144.4700 C   0  0  0  0  0  3  0  0  0  0  0  0
  194.4040  175.2880  145.0760 C   0  0  0  0  0  3  0  0  0  0  0  0
  194.9930  174.1080  145.5500 C   0  0  0  0  0  3  0  0  0  0  0  0
  192.4650  174.0270  144.3220 C   0  0  0  0  0  0  0  0  0  0  0  0
  189.3260  171.2740  138.6400 C   0  0  0  0  0  2  0  0  0  0  0  0
  190.3170  170.6110  137.6870 C   0  0  0  0  0  2  0  0  0  0  0  0
  191.5580  170.1280  138.4310 C   0  0  0  0  0  2  0  0  0  0  0  0
  192.8090  170.2210  137.5570 C   0  0  0  0  0  2  0  0  0  0  0  0
  195.1780  172.7640  140.9380 C   0  0  1  0  0  3  0  0  0  0  0  0
  193.9960  170.9740  138.1830 C   0  0  2  0  0  0  0  0  0  0  0  0
  195.4110  170.3560  140.1200 C   0  0  0  0  0  2  0  0  0  0  0  0
  195.7500  172.8050  137.7060 C   0  0  0  0  0  2  0  0  0  0  0  0
  194.5280  172.0370  137.2020 C   0  0  0  0  0  2  0  0  0  0  0  0
  195.1490  170.0570  138.6530 C   0  0  1  0  0  3  0  0  0  0  0  0
  194.4560  171.4620  140.5440 C   0  0  2  0  0  3  0  0  0  0  0  0
  195.9300  172.5300  142.2420 C   0  0  0  0  0  1  0  0  0  0  0  0
  194.9270  168.5580  138.4850 C   0  0  0  0  0  1  0  0  0  0  0  0
  193.4540  171.6640  139.4260 C   0  0  0  0  0  2  0  0  0  0  0  0
  195.3740  173.6870  138.7210 O   0  0  0  0  0  0  0  0  0  0  0  0
  196.1150  173.2980  139.8390 C   0  0  1  0  0  3  0  0  0  0  0  0
  196.9350  174.4920  140.3200 C   0  0  0  0  0  2  0  0  0  0  0  0
  196.2870  175.6710  139.9620 O   0  0  0  0  0  0  0  0  0  0  0  0
  196.4570  176.5150  141.0620 C   0  0  0  0  0  2  0  0  0  0  0  0
  197.1870  176.7310  143.1400 C   0  0  0  0  0  1  0  0  0  0  0  0
  196.9890  175.7880  142.1280 O   0  0  0  0  0  0  0  0  0  0  0  0
  1  8  1  0  0  0  0
  2  5  2  0  0  0  0
  2  6  1  0  0  0  0
  3  1  1  0  0  0  0
  4  3  1  0  0  0  0
  5  7  1  0  0  0  0
  6  4  2  0  0  0  0
  7  3  2  0  0  0  0
  8  9  1  0  0  0  0
  9 13  1  0  0  0  0
 10 13  1  0  0  0  0
 12 11  2  0  0  0  0
 13 12  1  0  0  0  0
 14 12  1  1  0  0  0
 14 34  1  0  0  0  0
 14 27  1  0  0  0  0
 16 25  1  0  0  0  0
 17 20  1  0  0  0  0
 18 16  2  0  0  0  0
 21 28  1  0  0  0  0
 21 27  1  0  0  0  0
 22 15  1  1  0  0  0
 22 28  1  0  0  0  0
 22 24  1  0  0  0  0
 23 21  2  0  0  0  0
 24 26  1  0  0  0  0
 26 20  1  0  0  0  0
 26 16  1  0  0  0  0
 27 19  1  0  0  0  0
 28 17  1  0  0  0  0
 29 30  1  0  0  0  0
 30 33  2  0  0  0  0
 31 32  2  0  0  0  0
 32 33  1  0  0  0  0
 34 31  1  0  0  0  0
 34 29  2  0  0  0  0
 35  1  1  0  0  0  0
 36 37  1  0  0  0  0
 36 35  1  0  0  0  0
 38 37  1  0  0  0  0
 39 46  1  1  0  0  0
 40 38  1  6  0  0  0
 40 44  1  0  0  0  0
 40 48  1  0  0  0  0
 41 45  1  0  0  0  0
 42 49  1  0  0  0  0
 43 42  1  0  0  0  0
 43 40  1  0  0  0  0
 44 47  1  1  0  0  0
 44 41  1  0  0  0  0
 45 48  1  6  0  0  0
 45 39  1  0  0  0  0
 49 50  1  0  0  0  0
 50 51  1  1  0  0  0
 50 39  1  0  0  0  0
 52 51  1  0  0  0  0
 52 53  1  0  0  0  0
 53 55  1  0  0  0  0
 55 54  1  0  0  0  0
M  END
>  <MODEL>
9

>  <REMARK>
 VINA RESULT:      -6.3      3.321     10.343
  Name = 
  16 active torsions:
  status: ('A' for Active; 'I' for Inactive)
    1  A    between atoms: C_3  and  O_25
    2  A    between atoms: C_3  and  O_38
    3  A    between atoms: C_6  and  C_22
    4  A    between atoms: C_8  and  C_43
    5  A    between atoms: C_8  and  C_54
    6  A    between atoms: C_19  and  C_45
    7  A    between atoms: C_22  and  C_43
    8  A    between atoms: C_26  and  C_45
    9  A    between atoms: C_27  and  N_51
   10  A    between atoms: C_29  and  O_38
   11  A    between atoms: C_29  and  C_53
   12  A    between atoms: C_35  and  C_40
   13  A    between atoms: C_35  and  N_51
   14  A    between atoms: N_37  and  C_40
   15  A    between atoms: C_45  and  N_49
   16  A    between atoms: N_51  and  C_54
                            x       y       z     vdW  Elec       q    Type
                         _______ _______ _______ _____ _____    ______ ____

>  <TORSDO>
F 16

$$$$
