=
 OpenBabel11052420323D

 34 39  0  0  1  0  0  0  0  0999 V2000
  186.6900  178.0170  144.2770 N   0  0  0  0  0  0  0  0  0  0  0  0
  183.2310  178.6860  142.8220 C   0  0  0  0  0  2  0  0  0  0  0  0
  184.0740  178.6430  145.1030 C   0  0  0  0  0  3  0  0  0  0  0  0
  188.6320  177.5530  146.2450 N   0  0  0  0  0  0  0  0  0  0  0  0
  188.0370  177.6780  143.9080 C   0  0  0  0  0  3  0  0  0  0  0  0
  187.4440  177.8780  146.6600 C   0  0  0  0  0  0  0  0  0  0  0  0
  185.7360  178.3560  148.4260 C   0  0  0  0  0  3  0  0  0  0  0  0
  187.1680  177.9870  148.1310 C   0  0  0  0  0  3  0  0  0  0  0  0
  188.9710  177.4400  144.8470 C   0  0  0  0  0  0  0  0  0  0  0  0
  185.1500  178.4620  146.0890 C   0  0  0  0  0  0  0  0  0  0  0  0
  186.3830  178.1380  145.6780 C   0  0  2  0  0  3  0  0  0  0  0  0
  184.8530  178.5630  147.4900 N   0  0  0  0  0  0  0  0  0  0  0  0
  183.4380  178.2830  141.5630 C   0  0  0  0  0  0  0  0  0  0  0  0
  184.7380  177.6970  141.1640 C   0  0  0  0  0  3  0  0  0  0  0  0
  184.3300  178.6140  143.7940 C   0  0  0  0  0  0  0  0  0  0  0  0
  185.8050  177.7600  141.9710 C   0  0  0  0  0  3  0  0  0  0  0  0
  185.7490  178.5270  143.2700 C   0  0  0  0  0  0  0  0  0  0  0  0
  192.0450  176.6780  142.7510 C   0  0  0  0  0  3  0  0  0  0  0  0
  191.3010  176.7930  145.4520 C   0  0  0  0  0  3  0  0  0  0  0  0
  195.2400  175.7650  144.3920 C   0  0  0  0  0  0  0  0  0  0  0  0
  194.2930  176.0510  143.3960 C   0  0  0  0  0  3  0  0  0  0  0  0
  192.9840  176.3930  143.7440 C   0  0  0  0  0  0  0  0  0  0  0  0
  193.5500  176.1670  146.0970 C   0  0  0  0  0  3  0  0  0  0  0  0
  192.6100  176.4510  145.1040 C   0  0  0  0  0  0  0  0  0  0  0  0
  194.8590  175.8250  145.7410 C   0  0  0  0  0  3  0  0  0  0  0  0
  190.3520  177.0810  144.4590 C   0  0  0  0  0  0  0  0  0  0  0  0
  190.7360  177.0190  143.1070 C   0  0  0  0  0  3  0  0  0  0  0  0
  196.6210  175.4040  144.0250 C   0  0  0  0  0  0  0  0  0  0  0  0
  197.3250  176.1560  143.0420 N   0  0  0  0  0  1  0  0  0  0  0  0
  197.1910  174.4260  144.5770 O   0  0  0  0  0  0  0  0  0  0  0  0
  182.3210  178.3480  140.5760 C   0  0  0  0  0  2  0  0  0  0  0  0
  181.0280  178.7790  141.2500 C   0  0  1  0  0  3  0  0  0  0  0  0
  180.4500  179.9670  140.5120 C   0  0  0  0  0  1  0  0  0  0  0  0
  180.1070  177.7300  141.2280 O   0  0  0  0  0  1  0  0  0  0  0  0
  1 11  1  0  0  0  0
  2 15  1  0  0  0  0
  3 10  1  0  0  0  0
  4  6  2  0  0  0  0
  5  1  1  0  0  0  0
  5  9  2  0  0  0  0
  6  8  1  0  0  0  0
  8  7  2  0  0  0  0
  9  4  1  0  0  0  0
 10 12  2  0  0  0  0
 11 10  1  1  0  0  0
 11  6  1  0  0  0  0
 12  7  1  0  0  0  0
 13  2  1  0  0  0  0
 14 13  2  0  0  0  0
 14 16  1  0  0  0  0
 15  3  2  0  0  0  0
 16 17  2  0  0  0  0
 17 15  1  0  0  0  0
 17  1  1  0  0  0  0
 18 27  2  0  0  0  0
 18 22  1  0  0  0  0
 20 25  1  0  0  0  0
 21 22  1  0  0  0  0
 21 20  2  0  0  0  0
 22 24  2  0  0  0  0
 24 19  1  0  0  0  0
 24 23  1  0  0  0  0
 25 23  2  0  0  0  0
 26  9  1  0  0  0  0
 26 19  2  0  0  0  0
 27 26  1  0  0  0  0
 28 20  1  0  0  0  0
 28 30  2  0  0  0  0
 29 28  1  0  0  0  0
 31 32  1  0  0  0  0
 31 13  1  0  0  0  0
 32 33  1  6  0  0  0
 34 32  1  0  0  0  0
M  END
>  <MODEL>
1

>  <REMARK>
 VINA RESULT:      -8.7      0.000      0.000
  Name = 
  4 active torsions:
  status: ('A' for Active; 'I' for Inactive)
    1  A    between atoms: C_3  and  C_25
    2  A    between atoms: C_7  and  C_11
    3  A    between atoms: C_18  and  C_30
    4  A    between atoms: C_23  and  C_25
                            x       y       z     vdW  Elec       q    Type
                         _______ _______ _______ _____ _____    ______ ____

>  <TORSDO>
F 4

$$$$
=
 OpenBabel11052420323D

 34 39  0  0  1  0  0  0  0  0999 V2000
  194.5360  173.8690  144.5660 N   0  0  0  0  0  0  0  0  0  0  0  0
  196.4350  170.6430  145.2870 C   0  0  0  0  0  2  0  0  0  0  0  0
  197.1350  172.8010  144.4090 C   0  0  0  0  0  3  0  0  0  0  0  0
  194.1030  176.4640  143.5980 N   0  0  0  0  0  0  0  0  0  0  0  0
  193.2240  174.4550  144.6090 C   0  0  0  0  0  3  0  0  0  0  0  0
  195.3220  176.0160  143.5470 C   0  0  0  0  0  0  0  0  0  0  0  0
  197.7560  176.1900  142.9910 C   0  0  0  0  0  3  0  0  0  0  0  0
  196.4140  176.8780  142.9870 C   0  0  0  0  0  2  0  0  0  0  0  0
  193.0060  175.6940  144.1330 C   0  0  0  0  0  0  0  0  0  0  0  0
  196.8640  174.1830  143.9850 C   0  0  0  0  0  0  0  0  0  0  0  0
  195.6150  174.6640  144.0420 C   0  0  0  0  0  0  0  0  0  0  0  0
  197.9270  174.9810  143.4440 N   0  0  0  0  0  0  0  0  0  0  0  0
  195.4010  169.8170  145.4850 C   0  0  0  0  0  0  0  0  0  0  0  0
  194.0100  170.2950  145.3120 C   0  0  0  0  0  3  0  0  0  0  0  0
  196.1810  172.0550  144.9700 C   0  0  0  0  0  0  0  0  0  0  0  0
  193.7360  171.5990  145.1800 C   0  0  0  0  0  3  0  0  0  0  0  0
  194.8240  172.6370  145.3130 C   0  0  0  0  0  0  0  0  0  0  0  0
  189.9770  177.8220  143.2860 C   0  0  0  0  0  3  0  0  0  0  0  0
  190.7330  175.8630  145.1430 C   0  0  0  0  0  3  0  0  0  0  0  0
  186.8690  177.5180  145.2820 C   0  0  0  0  0  0  0  0  0  0  0  0
  187.7840  177.9440  144.3070 C   0  0  0  0  0  3  0  0  0  0  0  0
  189.0680  177.3970  144.2570 C   0  0  0  0  0  0  0  0  0  0  0  0
  188.5400  175.9850  146.1640 C   0  0  0  0  0  3  0  0  0  0  0  0
  189.4490  176.4100  145.1930 C   0  0  0  0  0  0  0  0  0  0  0  0
  187.2560  176.5370  146.2080 C   0  0  0  0  0  3  0  0  0  0  0  0
  191.6500  176.2850  144.1690 C   0  0  0  0  0  0  0  0  0  0  0  0
  191.2600  177.2690  143.2420 C   0  0  0  0  0  3  0  0  0  0  0  0
  185.5140  178.0970  145.3340 C   0  0  0  0  0  0  0  0  0  0  0  0
  184.5770  177.6510  146.3100 N   0  0  0  0  0  1  0  0  0  0  0  0
  185.1730  178.9910  144.5160 O   0  0  0  0  0  0  0  0  0  0  0  0
  195.6560  168.3810  145.8010 C   0  0  0  0  0  2  0  0  0  0  0  0
  195.7490  168.1660  147.3030 C   0  0  1  0  0  3  0  0  0  0  0  0
  197.0900  168.6600  147.7980 C   0  0  0  0  0  1  0  0  0  0  0  0
  194.7310  168.8700  147.9490 O   0  0  0  0  0  1  0  0  0  0  0  0
  1  5  1  0  0  0  0
  1 17  1  0  0  0  0
  2 13  1  0  0  0  0
  3 15  2  0  0  0  0
  4  9  1  0  0  0  0
  6  4  2  0  0  0  0
  6 11  1  0  0  0  0
  7 12  2  0  0  0  0
  8  7  1  0  0  0  0
  8  6  1  0  0  0  0
  9 26  1  0  0  0  0
  9  5  2  0  0  0  0
 10 11  2  0  0  0  0
 10  3  1  0  0  0  0
 11  1  1  0  0  0  0
 12 10  1  0  0  0  0
 13 31  1  0  0  0  0
 14 13  2  0  0  0  0
 15  2  1  0  0  0  0
 15 17  1  0  0  0  0
 16 14  1  0  0  0  0
 16 17  2  0  0  0  0
 18 22  1  0  0  0  0
 19 24  1  0  0  0  0
 20 28  1  0  0  0  0
 20 25  1  0  0  0  0
 21 20  2  0  0  0  0
 22 21  1  0  0  0  0
 22 24  2  0  0  0  0
 23 25  2  0  0  0  0
 24 23  1  0  0  0  0
 26 19  2  0  0  0  0
 27 18  2  0  0  0  0
 27 26  1  0  0  0  0
 28 29  1  0  0  0  0
 30 28  2  0  0  0  0
 31 32  1  0  0  0  0
 32 33  1  1  0  0  0
 32 34  1  0  0  0  0
M  END
>  <MODEL>
2

>  <REMARK>
 VINA RESULT:      -8.0      3.684     11.424
  Name = 
  4 active torsions:
  status: ('A' for Active; 'I' for Inactive)
    1  A    between atoms: C_3  and  C_25
    2  A    between atoms: C_7  and  C_11
    3  A    between atoms: C_18  and  C_30
    4  A    between atoms: C_23  and  C_25
                            x       y       z     vdW  Elec       q    Type
                         _______ _______ _______ _____ _____    ______ ____

>  <TORSDO>
F 4

$$$$
=
 OpenBabel11052420323D

 34 39  0  0  1  0  0  0  0  0999 V2000
  186.5660  177.9550  143.8820 N   0  0  0  0  0  0  0  0  0  0  0  0
  183.0290  178.7110  142.6810 C   0  0  0  0  0  2  0  0  0  0  0  0
  184.0380  178.6650  144.8930 C   0  0  0  0  0  3  0  0  0  0  0  0
  188.6360  177.4530  145.7050 N   0  0  0  0  0  0  0  0  0  0  0  0
  187.8720  177.5730  143.4180 C   0  0  0  0  0  3  0  0  0  0  0  0
  187.4920  177.8170  146.2040 C   0  0  0  0  0  0  0  0  0  0  0  0
  185.9350  178.3620  148.0860 C   0  0  0  0  0  3  0  0  0  0  0  0
  187.3300  177.9480  147.6900 C   0  0  0  0  0  3  0  0  0  0  0  0
  188.8660  177.3170  144.2870 C   0  0  0  0  0  0  0  0  0  0  0  0
  185.1790  178.4630  145.7990 C   0  0  0  0  0  0  0  0  0  0  0  0
  186.3680  178.0980  145.3000 C   0  0  2  0  0  3  0  0  0  0  0  0
  184.9920  178.5850  147.2160 N   0  0  0  0  0  0  0  0  0  0  0  0
  183.1290  178.2910  141.4150 C   0  0  0  0  0  0  0  0  0  0  0  0
  184.3790  177.6630  140.9270 C   0  0  0  0  0  3  0  0  0  0  0  0
  184.1950  178.6170  143.5690 C   0  0  0  0  0  0  0  0  0  0  0  0
  185.5040  177.7020  141.6520 C   0  0  0  0  0  3  0  0  0  0  0  0
  185.5670  178.4820  142.9420 C   0  0  0  0  0  0  0  0  0  0  0  0
  192.6290  177.1580  143.8030 C   0  0  0  0  0  3  0  0  0  0  0  0
  190.3190  175.8810  142.8590 C   0  0  0  0  0  3  0  0  0  0  0  0
  194.1030  174.7010  141.4510 C   0  0  0  0  0  0  0  0  0  0  0  0
  193.9920  175.7350  142.3940 C   0  0  0  0  0  3  0  0  0  0  0  0
  192.7370  176.1300  142.8650 C   0  0  0  0  0  0  0  0  0  0  0  0
  191.6820  174.4580  141.4500 C   0  0  0  0  0  3  0  0  0  0  0  0
  191.5740  175.4860  142.3890 C   0  0  0  0  0  0  0  0  0  0  0  0
  192.9420  174.0680  140.9840 C   0  0  0  0  0  3  0  0  0  0  0  0
  190.2040  176.9130  143.8020 C   0  0  0  0  0  0  0  0  0  0  0  0
  191.3700  177.5470  144.2680 C   0  0  0  0  0  3  0  0  0  0  0  0
  195.4280  174.2860  140.9550 C   0  0  0  0  0  0  0  0  0  0  0  0
  196.6140  174.7370  141.6030 N   0  0  0  0  0  1  0  0  0  0  0  0
  195.5230  173.5280  139.9550 O   0  0  0  0  0  0  0  0  0  0  0  0
  181.9450  178.3790  140.5130 C   0  0  0  0  0  2  0  0  0  0  0  0
  180.7360  178.9200  141.2600 C   0  0  1  0  0  3  0  0  0  0  0  0
  180.1790  180.1130  140.5140 C   0  0  0  0  0  1  0  0  0  0  0  0
  179.7520  177.9340  141.3510 O   0  0  0  0  0  1  0  0  0  0  0  0
  1 11  1  0  0  0  0
  2 15  1  0  0  0  0
  3 10  1  0  0  0  0
  4  6  2  0  0  0  0
  5  1  1  0  0  0  0
  5  9  2  0  0  0  0
  6  8  1  0  0  0  0
  8  7  2  0  0  0  0
  9  4  1  0  0  0  0
 10 12  2  0  0  0  0
 11 10  1  1  0  0  0
 11  6  1  0  0  0  0
 12  7  1  0  0  0  0
 13  2  1  0  0  0  0
 14 13  2  0  0  0  0
 14 16  1  0  0  0  0
 15  3  2  0  0  0  0
 16 17  2  0  0  0  0
 17 15  1  0  0  0  0
 17  1  1  0  0  0  0
 18 27  1  0  0  0  0
 19 26  1  0  0  0  0
 20 21  2  0  0  0  0
 21 22  1  0  0  0  0
 22 18  2  0  0  0  0
 23 24  1  0  0  0  0
 24 19  2  0  0  0  0
 24 22  1  0  0  0  0
 25 23  2  0  0  0  0
 25 20  1  0  0  0  0
 26 27  2  0  0  0  0
 26  9  1  0  0  0  0
 28 20  1  0  0  0  0
 28 29  1  0  0  0  0
 30 28  2  0  0  0  0
 31 32  1  0  0  0  0
 31 13  1  0  0  0  0
 32 33  1  6  0  0  0
 32 34  1  0  0  0  0
M  END
>  <MODEL>
3

>  <REMARK>
 VINA RESULT:      -7.7      1.477      2.012
  Name = 
  4 active torsions:
  status: ('A' for Active; 'I' for Inactive)
    1  A    between atoms: C_3  and  C_25
    2  A    between atoms: C_7  and  C_11
    3  A    between atoms: C_18  and  C_30
    4  A    between atoms: C_23  and  C_25
                            x       y       z     vdW  Elec       q    Type
                         _______ _______ _______ _____ _____    ______ ____

>  <TORSDO>
F 4

$$$$
=
 OpenBabel11052420323D

 34 39  0  0  1  0  0  0  0  0999 V2000
  190.5940  176.8640  144.0300 N   0  0  0  0  0  0  0  0  0  0  0  0
  187.0750  178.2510  144.5030 C   0  0  0  0  0  3  0  0  0  0  0  0
  188.6210  177.1380  146.0170 C   0  0  0  0  0  3  0  0  0  0  0  0
  192.9460  175.4800  144.6710 N   0  0  0  0  0  0  0  0  0  0  0  0
  191.6260  176.6820  143.0450 C   0  0  0  0  0  3  0  0  0  0  0  0
  192.0730  175.6230  145.6230 C   0  0  0  0  0  0  0  0  0  0  0  0
  191.2210  175.3040  147.9550 C   0  0  0  0  0  3  0  0  0  0  0  0
  192.3490  175.0580  146.9850 C   0  0  0  0  0  3  0  0  0  0  0  0
  192.7510  176.0070  143.3420 C   0  0  0  0  0  0  0  0  0  0  0  0
  189.9050  176.4870  146.3180 C   0  0  0  0  0  0  0  0  0  0  0  0
  190.8210  176.3420  145.3510 C   0  0  2  0  0  3  0  0  0  0  0  0
  190.1370  175.9470  147.6270 N   0  0  0  0  0  0  0  0  0  0  0  0
  186.7450  178.4610  143.2240 C   0  0  0  0  0  0  0  0  0  0  0  0
  187.6710  178.0740  142.1340 C   0  0  0  0  0  3  0  0  0  0  0  0
  188.3990  177.7020  144.8280 C   0  0  0  0  0  0  0  0  0  0  0  0
  188.9360  177.7220  142.3910 C   0  0  0  0  0  3  0  0  0  0  0  0
  189.4970  177.8120  143.7890 C   0  0  2  0  0  3  0  0  0  0  0  0
  196.1420  175.8850  141.6370 C   0  0  0  0  0  3  0  0  0  0  0  0
  193.4530  175.3670  141.0370 C   0  0  0  0  0  3  0  0  0  0  0  0
  196.4130  174.8050  138.1020 C   0  0  0  0  0  0  0  0  0  0  0  0
  196.7670  175.2520  139.3840 C   0  0  0  0  0  3  0  0  0  0  0  0
  195.7870  175.4400  140.3620 C   0  0  0  0  0  0  0  0  0  0  0  0
  194.0780  174.7340  138.7840 C   0  0  0  0  0  3  0  0  0  0  0  0
  194.4330  175.1790  140.0590 C   0  0  0  0  0  0  0  0  0  0  0  0
  195.0650  174.5480  137.8100 C   0  0  0  0  0  3  0  0  0  0  0  0
  193.8030  175.8130  142.3200 C   0  0  0  0  0  0  0  0  0  0  0  0
  195.1560  176.0710  142.6100 C   0  0  0  0  0  3  0  0  0  0  0  0
  197.4470  174.6070  137.0710 C   0  0  0  0  0  0  0  0  0  0  0  0
  197.9010  175.7050  136.2840 N   0  0  0  0  0  1  0  0  0  0  0  0
  197.9410  173.4660  136.8760 O   0  0  0  0  0  0  0  0  0  0  0  0
  185.3990  179.0110  142.8920 C   0  0  0  0  0  2  0  0  0  0  0  0
  184.6490  178.0780  141.9550 C   0  0  1  0  0  3  0  0  0  0  0  0
  183.1620  178.2190  142.1920 C   0  0  0  0  0  1  0  0  0  0  0  0
  184.9370  178.4020  140.6280 O   0  0  0  0  0  1  0  0  0  0  0  0
  1 11  1  0  0  0  0
  2 15  1  0  0  0  0
  3 10  1  0  0  0  0
  4  6  2  0  0  0  0
  5  9  2  0  0  0  0
  5  1  1  0  0  0  0
  6  8  1  0  0  0  0
  8  7  2  0  0  0  0
  9  4  1  0  0  0  0
 10 12  2  0  0  0  0
 11  6  1  6  0  0  0
 11 10  1  0  0  0  0
 12  7  1  0  0  0  0
 13  2  2  0  0  0  0
 14 16  2  0  0  0  0
 14 13  1  0  0  0  0
 15  3  2  0  0  0  0
 17 16  1  6  0  0  0
 17  1  1  0  0  0  0
 17 15  1  0  0  0  0
 18 27  1  0  0  0  0
 19 26  1  0  0  0  0
 20 21  2  0  0  0  0
 21 22  1  0  0  0  0
 22 18  2  0  0  0  0
 23 24  1  0  0  0  0
 24 22  1  0  0  0  0
 24 19  2  0  0  0  0
 25 20  1  0  0  0  0
 25 23  2  0  0  0  0
 26 27  2  0  0  0  0
 26  9  1  0  0  0  0
 28 20  1  0  0  0  0
 29 28  1  0  0  0  0
 30 28  2  0  0  0  0
 31 13  1  0  0  0  0
 32 33  1  6  0  0  0
 32 31  1  0  0  0  0
 34 32  1  0  0  0  0
M  END
>  <MODEL>
4

>  <REMARK>
 VINA RESULT:      -7.6      3.441      5.186
  Name = 
  4 active torsions:
  status: ('A' for Active; 'I' for Inactive)
    1  A    between atoms: C_3  and  C_25
    2  A    between atoms: C_7  and  C_11
    3  A    between atoms: C_18  and  C_30
    4  A    between atoms: C_23  and  C_25
                            x       y       z     vdW  Elec       q    Type
                         _______ _______ _______ _____ _____    ______ ____

>  <TORSDO>
F 4

$$$$
=
 OpenBabel11052420323D

 34 39  0  0  1  0  0  0  0  0999 V2000
  193.8760  175.0160  142.3190 N   0  0  0  0  0  0  0  0  0  0  0  0
  196.4220  173.8280  139.7420 C   0  0  0  0  0  2  0  0  0  0  0  0
  196.4960  174.0030  142.1670 C   0  0  0  0  0  3  0  0  0  0  0  0
  192.8840  175.7730  144.8290 N   0  0  0  0  0  0  0  0  0  0  0  0
  192.5490  175.5540  142.4480 C   0  0  0  0  0  3  0  0  0  0  0  0
  194.0830  175.2720  144.8000 C   0  0  0  0  0  0  0  0  0  0  0  0
  196.2370  174.5440  145.8450 C   0  0  0  0  0  3  0  0  0  0  0  0
  194.8650  175.1250  146.0720 C   0  0  0  0  0  3  0  0  0  0  0  0
  192.0720  175.9330  143.6470 C   0  0  0  0  0  0  0  0  0  0  0  0
  195.8970  174.3460  143.4660 C   0  0  0  0  0  0  0  0  0  0  0  0
  194.6580  174.8530  143.5150 C   0  0  2  0  0  3  0  0  0  0  0  0
  196.6730  174.2040  144.6650 N   0  0  0  0  0  0  0  0  0  0  0  0
  195.8230  174.2560  138.6250 C   0  0  0  0  0  0  0  0  0  0  0  0
  194.5630  175.0310  138.6950 C   0  0  0  0  0  3  0  0  0  0  0  0
  195.7810  174.0670  141.0430 C   0  0  0  0  0  0  0  0  0  0  0  0
  193.8730  175.1320  139.8370 C   0  0  0  0  0  3  0  0  0  0  0  0
  194.2960  174.3680  141.0680 C   0  0  0  0  0  0  0  0  0  0  0  0
  188.8830  177.8540  142.8940 C   0  0  0  0  0  3  0  0  0  0  0  0
  189.9360  176.2060  144.9030 C   0  0  0  0  0  3  0  0  0  0  0  0
  186.0590  177.7900  145.2930 C   0  0  0  0  0  0  0  0  0  0  0  0
  186.8300  178.0840  144.1580 C   0  0  0  0  0  3  0  0  0  0  0  0
  188.1180  177.5600  144.0240 C   0  0  0  0  0  0  0  0  0  0  0  0
  187.8820  176.4360  146.1660 C   0  0  0  0  0  3  0  0  0  0  0  0
  188.6480  176.7300  145.0360 C   0  0  0  0  0  0  0  0  0  0  0  0
  186.5940  176.9650  146.2930 C   0  0  0  0  0  3  0  0  0  0  0  0
  190.7100  176.4970  143.7700 C   0  0  0  0  0  0  0  0  0  0  0  0
  190.1720  177.3260  142.7680 C   0  0  0  0  0  3  0  0  0  0  0  0
  184.7000  178.3440  145.4330 C   0  0  0  0  0  0  0  0  0  0  0  0
  184.0860  179.0320  144.3470 N   0  0  0  0  0  1  0  0  0  0  0  0
  184.0690  178.2140  146.5140 O   0  0  0  0  0  0  0  0  0  0  0  0
  196.4750  174.0200  137.3040 C   0  0  0  0  0  2  0  0  0  0  0  0
  196.0480  175.0740  136.2950 C   0  0  1  0  0  3  0  0  0  0  0  0
  197.1900  176.0410  136.0680 C   0  0  0  0  0  1  0  0  0  0  0  0
  195.7120  174.4660  135.0840 O   0  0  0  0  0  1  0  0  0  0  0  0
  1  5  1  0  0  0  0
  1 11  1  0  0  0  0
  2 15  1  0  0  0  0
  3 10  1  0  0  0  0
  5  9  2  0  0  0  0
  6  4  2  0  0  0  0
  6  8  1  0  0  0  0
  7  8  2  0  0  0  0
  9 26  1  0  0  0  0
  9  4  1  0  0  0  0
 10 12  2  0  0  0  0
 11 10  1  6  0  0  0
 11  6  1  0  0  0  0
 12  7  1  0  0  0  0
 13 14  2  0  0  0  0
 13  2  1  0  0  0  0
 14 16  1  0  0  0  0
 15 17  1  0  0  0  0
 15  3  2  0  0  0  0
 16 17  2  0  0  0  0
 17  1  1  0  0  0  0
 18 22  1  0  0  0  0
 19 24  1  0  0  0  0
 20 28  1  0  0  0  0
 20 25  1  0  0  0  0
 21 20  2  0  0  0  0
 22 21  1  0  0  0  0
 22 24  2  0  0  0  0
 23 25  2  0  0  0  0
 24 23  1  0  0  0  0
 26 19  2  0  0  0  0
 27 18  2  0  0  0  0
 27 26  1  0  0  0  0
 28 30  2  0  0  0  0
 29 28  1  0  0  0  0
 31 13  1  0  0  0  0
 32 33  1  6  0  0  0
 32 31  1  0  0  0  0
 34 32  1  0  0  0  0
M  END
>  <MODEL>
5

>  <REMARK>
 VINA RESULT:      -7.6      3.777     10.465
  Name = 
  4 active torsions:
  status: ('A' for Active; 'I' for Inactive)
    1  A    between atoms: C_3  and  C_25
    2  A    between atoms: C_7  and  C_11
    3  A    between atoms: C_18  and  C_30
    4  A    between atoms: C_23  and  C_25
                            x       y       z     vdW  Elec       q    Type
                         _______ _______ _______ _____ _____    ______ ____

>  <TORSDO>
F 4

$$$$
=
 OpenBabel11052420323D

 34 39  0  0  1  0  0  0  0  0999 V2000
  192.3340  173.2320  142.6820 N   0  0  0  0  0  0  0  0  0  0  0  0
  195.5880  171.5390  143.7200 C   0  0  0  0  0  3  0  0  0  0  0  0
  194.4570  171.7510  141.5770 C   0  0  0  0  0  3  0  0  0  0  0  0
  190.2000  173.9490  141.0110 N   0  0  0  0  0  0  0  0  0  0  0  0
  191.2180  173.9750  143.2010 C   0  0  0  0  0  3  0  0  0  0  0  0
  191.1820  173.3000  140.4610 C   0  0  0  0  0  0  0  0  0  0  0  0
  192.3480  172.2010  138.5380 C   0  0  0  0  0  3  0  0  0  0  0  0
  191.1350  172.9690  138.9980 C   0  0  0  0  0  2  0  0  0  0  0  0
  190.1840  174.3100  142.4090 C   0  0  0  0  0  0  0  0  0  0  0  0
  193.3470  172.2190  140.7320 C   0  0  0  0  0  0  0  0  0  0  0  0
  192.3320  172.8990  141.2820 C   0  0  0  0  0  0  0  0  0  0  0  0
  193.3240  171.8780  139.3380 N   0  0  0  0  0  0  0  0  0  0  0  0
  195.4460  171.5820  145.0500 C   0  0  0  0  0  0  0  0  0  0  0  0
  194.2080  172.1210  145.6580 C   0  0  0  0  0  3  0  0  0  0  0  0
  194.5360  172.1010  142.8620 C   0  0  0  0  0  0  0  0  0  0  0  0
  193.3040  172.7810  144.9240 C   0  0  0  0  0  3  0  0  0  0  0  0
  193.5670  173.0940  143.4710 C   0  0  2  0  0  3  0  0  0  0  0  0
  186.7870  175.9800  142.7140 C   0  0  0  0  0  3  0  0  0  0  0  0
  189.0980  175.5890  144.2520 C   0  0  0  0  0  3  0  0  0  0  0  0
  185.8500  177.7390  145.8390 C   0  0  0  0  0  0  0  0  0  0  0  0
  185.7810  177.2150  144.5380 C   0  0  0  0  0  3  0  0  0  0  0  0
  186.8580  176.5000  144.0080 C   0  0  0  0  0  0  0  0  0  0  0  0
  188.0920  176.8240  146.0760 C   0  0  0  0  0  3  0  0  0  0  0  0
  188.0220  176.3040  144.7830 C   0  0  0  0  0  0  0  0  0  0  0  0
  187.0100  177.5390  146.6010 C   0  0  0  0  0  3  0  0  0  0  0  0
  189.0330  175.0630  142.9530 C   0  0  0  0  0  0  0  0  0  0  0  0
  187.8690  175.2660  142.1900 C   0  0  0  0  0  3  0  0  0  0  0  0
  184.7130  178.4940  146.3970 C   0  0  0  0  0  0  0  0  0  0  0  0
  183.7180  179.0410  145.5380 N   0  0  0  0  0  1  0  0  0  0  0  0
  184.6120  178.6620  147.6410 O   0  0  0  0  0  0  0  0  0  0  0  0
  196.5100  171.0060  145.9230 C   0  0  0  0  0  2  0  0  0  0  0  0
  196.2870  169.5170  146.1350 C   0  0  1  0  0  3  0  0  0  0  0  0
  197.5960  168.8640  146.5200 C   0  0  0  0  0  1  0  0  0  0  0  0
  195.3540  169.3150  147.1530 O   0  0  0  0  0  1  0  0  0  0  0  0
  1  5  1  0  0  0  0
  1 17  1  0  0  0  0
  2 13  2  0  0  0  0
  3 15  2  0  0  0  0
  4  9  1  0  0  0  0
  6  4  2  0  0  0  0
  6 11  1  0  0  0  0
  7  8  1  0  0  0  0
  7 12  2  0  0  0  0
  8  6  1  0  0  0  0
  9 26  1  0  0  0  0
  9  5  2  0  0  0  0
 10 11  2  0  0  0  0
 10  3  1  0  0  0  0
 11  1  1  0  0  0  0
 12 10  1  0  0  0  0
 13 14  1  0  0  0  0
 13 31  1  0  0  0  0
 15 17  1  0  0  0  0
 15  2  1  0  0  0  0
 16 14  2  0  0  0  0
 17 16  1  1  0  0  0
 18 22  1  0  0  0  0
 19 24  1  0  0  0  0
 20 28  1  0  0  0  0
 20 25  1  0  0  0  0
 21 20  2  0  0  0  0
 22 21  1  0  0  0  0
 22 24  2  0  0  0  0
 23 25  2  0  0  0  0
 24 23  1  0  0  0  0
 26 19  2  0  0  0  0
 27 18  2  0  0  0  0
 27 26  1  0  0  0  0
 28 30  2  0  0  0  0
 29 28  1  0  0  0  0
 31 32  1  0  0  0  0
 32 33  1  1  0  0  0
 32 34  1  0  0  0  0
M  END
>  <MODEL>
6

>  <REMARK>
 VINA RESULT:      -7.5      4.262     11.247
  Name = 
  4 active torsions:
  status: ('A' for Active; 'I' for Inactive)
    1  A    between atoms: C_3  and  C_25
    2  A    between atoms: C_7  and  C_11
    3  A    between atoms: C_18  and  C_30
    4  A    between atoms: C_23  and  C_25
                            x       y       z     vdW  Elec       q    Type
                         _______ _______ _______ _____ _____    ______ ____

>  <TORSDO>
F 4

$$$$
=
 OpenBabel11052420323D

 34 39  0  0  1  0  0  0  0  0999 V2000
  191.4530  176.3410  144.3540 N   0  0  0  0  0  0  0  0  0  0  0  0
  195.0980  175.3250  143.8890 C   0  0  0  0  0  3  0  0  0  0  0  0
  193.8140  175.9910  145.8450 C   0  0  0  0  0  3  0  0  0  0  0  0
  189.1780  177.3160  145.6710 N   0  0  0  0  0  0  0  0  0  0  0  0
  190.2270  176.5530  143.6340 C   0  0  0  0  0  3  0  0  0  0  0  0
  190.2400  177.1290  146.3970 C   0  0  0  0  0  0  0  0  0  0  0  0
  191.5300  177.1720  148.5420 C   0  0  0  0  0  3  0  0  0  0  0  0
  190.2070  177.4330  147.8660 C   0  0  0  0  0  3  0  0  0  0  0  0
  189.1360  177.0340  144.2560 C   0  0  0  0  0  0  0  0  0  0  0  0
  192.5700  176.4280  146.4980 C   0  0  0  0  0  0  0  0  0  0  0  0
  191.4640  176.6160  145.7660 C   0  0  2  0  0  3  0  0  0  0  0  0
  192.5720  176.7220  147.9030 N   0  0  0  0  0  0  0  0  0  0  0  0
  195.1700  175.3610  142.5540 C   0  0  0  0  0  0  0  0  0  0  0  0
  194.0080  175.8030  141.7480 C   0  0  0  0  0  3  0  0  0  0  0  0
  193.8290  175.6540  144.5540 C   0  0  0  0  0  0  0  0  0  0  0  0
  192.7990  175.9570  142.3020 C   0  0  0  0  0  3  0  0  0  0  0  0
  192.5520  175.5810  143.7420 C   0  0  2  0  0  3  0  0  0  0  0  0
  186.6060  177.2060  141.4290 C   0  0  0  0  0  3  0  0  0  0  0  0
  186.7520  177.7570  144.1740 C   0  0  0  0  0  3  0  0  0  0  0  0
  183.1640  178.4170  142.0790 C   0  0  0  0  0  0  0  0  0  0  0  0
  184.2920  177.9200  141.4070 C   0  0  0  0  0  3  0  0  0  0  0  0
  185.4860  177.7000  142.0990 C   0  0  0  0  0  0  0  0  0  0  0  0
  184.4380  178.4720  144.1520 C   0  0  0  0  0  3  0  0  0  0  0  0
  185.5580  177.9780  143.4820 C   0  0  0  0  0  0  0  0  0  0  0  0
  183.2460  178.6900  143.4520 C   0  0  0  0  0  3  0  0  0  0  0  0
  187.8810  177.2610  143.5060 C   0  0  0  0  0  0  0  0  0  0  0  0
  187.7970  176.9880  142.1290 C   0  0  0  0  0  3  0  0  0  0  0  0
  181.9060  178.6500  141.3480 C   0  0  0  0  0  0  0  0  0  0  0  0
  180.8120  179.3020  141.9850 N   0  0  0  0  0  1  0  0  0  0  0  0
  181.7860  178.2730  140.1520 O   0  0  0  0  0  0  0  0  0  0  0  0
  196.4580  175.0350  141.8770 C   0  0  0  0  0  2  0  0  0  0  0  0
  196.2430  174.7970  140.3910 C   0  0  1  0  0  3  0  0  0  0  0  0
  197.3010  175.5430  139.6070 C   0  0  0  0  0  1  0  0  0  0  0  0
  196.3360  173.4330  140.1080 O   0  0  0  0  0  1  0  0  0  0  0  0
  1 11  1  0  0  0  0
  2 15  1  0  0  0  0
  3 10  1  0  0  0  0
  4  6  2  0  0  0  0
  5  9  2  0  0  0  0
  5  1  1  0  0  0  0
  6  8  1  0  0  0  0
  8  7  2  0  0  0  0
  9  4  1  0  0  0  0
 10 12  2  0  0  0  0
 11  6  1  6  0  0  0
 11 10  1  0  0  0  0
 12  7  1  0  0  0  0
 13  2  2  0  0  0  0
 14 16  2  0  0  0  0
 14 13  1  0  0  0  0
 15  3  2  0  0  0  0
 17 16  1  6  0  0  0
 17  1  1  0  0  0  0
 17 15  1  0  0  0  0
 18 22  2  0  0  0  0
 18 27  1  0  0  0  0
 20 25  1  0  0  0  0
 21 20  2  0  0  0  0
 21 22  1  0  0  0  0
 22 24  1  0  0  0  0
 24 23  1  0  0  0  0
 24 19  2  0  0  0  0
 25 23  2  0  0  0  0
 26 19  1  0  0  0  0
 26  9  1  0  0  0  0
 27 26  2  0  0  0  0
 28 29  1  0  0  0  0
 28 20  1  0  0  0  0
 30 28  2  0  0  0  0
 31 13  1  0  0  0  0
 32 33  1  6  0  0  0
 32 31  1  0  0  0  0
 34 32  1  0  0  0  0
M  END
>  <MODEL>
7

>  <REMARK>
 VINA RESULT:      -7.4      2.297     10.098
  Name = 
  4 active torsions:
  status: ('A' for Active; 'I' for Inactive)
    1  A    between atoms: C_3  and  C_25
    2  A    between atoms: C_7  and  C_11
    3  A    between atoms: C_18  and  C_30
    4  A    between atoms: C_23  and  C_25
                            x       y       z     vdW  Elec       q    Type
                         _______ _______ _______ _____ _____    ______ ____

>  <TORSDO>
F 4

$$$$
=
 OpenBabel11052420323D

 34 39  0  0  1  0  0  0  0  0999 V2000
  191.4650  171.9670  142.5240 N   0  0  0  0  0  0  0  0  0  0  0  0
  191.9000  169.7540  139.4510 C   0  0  0  0  0  2  0  0  0  0  0  0
  193.3770  170.3020  141.3040 C   0  0  0  0  0  3  0  0  0  0  0  0
  192.1980  173.3590  144.8450 N   0  0  0  0  0  0  0  0  0  0  0  0
  190.5300  172.8440  143.1770 C   0  0  0  0  0  3  0  0  0  0  0  0
  193.0920  172.5680  144.3290 C   0  0  0  0  0  0  0  0  0  0  0  0
  195.3490  171.4920  144.2330 C   0  0  0  0  0  3  0  0  0  0  0  0
  194.4390  172.4370  144.9760 C   0  0  0  0  0  3  0  0  0  0  0  0
  190.8800  173.5250  144.2820 C   0  0  0  0  0  0  0  0  0  0  0  0
  193.6810  170.9980  142.5640 C   0  0  0  0  0  0  0  0  0  0  0  0
  192.7670  171.8080  143.1150 C   0  0  2  0  0  3  0  0  0  0  0  0
  194.9820  170.8610  143.1540 N   0  0  0  0  0  0  0  0  0  0  0  0
  190.8220  170.1300  138.7530 C   0  0  0  0  0  0  0  0  0  0  0  0
  189.9360  171.2050  139.2550 C   0  0  0  0  0  3  0  0  0  0  0  0
  192.1590  170.3620  140.7640 C   0  0  0  0  0  0  0  0  0  0  0  0
  190.0480  171.6680  140.5060 C   0  0  0  0  0  3  0  0  0  0  0  0
  191.0080  171.0350  141.4840 C   0  0  0  0  0  0  0  0  0  0  0  0
  188.7630  175.2250  146.9380 C   0  0  0  0  0  3  0  0  0  0  0  0
  189.2260  175.3870  144.1780 C   0  0  0  0  0  3  0  0  0  0  0  0
  186.4760  177.9900  146.0110 C   0  0  0  0  0  0  0  0  0  0  0  0
  187.1650  177.0370  146.7780 C   0  0  0  0  0  3  0  0  0  0  0  0
  188.0790  176.1710  146.1730 C   0  0  0  0  0  0  0  0  0  0  0  0
  187.6280  177.2000  144.0180 C   0  0  0  0  0  3  0  0  0  0  0  0
  188.3120  176.2530  144.7830 C   0  0  0  0  0  0  0  0  0  0  0  0
  186.7140  178.0640  144.6300 C   0  0  0  0  0  3  0  0  0  0  0  0
  189.9160  174.4340  144.9410 C   0  0  0  0  0  0  0  0  0  0  0  0
  189.6760  174.3610  146.3250 C   0  0  0  0  0  3  0  0  0  0  0  0
  185.5120  178.9030  146.6500 C   0  0  0  0  0  0  0  0  0  0  0  0
  184.1910  179.0330  146.1340 N   0  0  0  0  0  1  0  0  0  0  0  0
  185.8470  179.5770  147.6590 O   0  0  0  0  0  0  0  0  0  0  0  0
  190.5610  169.5200  137.4170 C   0  0  0  0  0  2  0  0  0  0  0  0
  190.9260  170.4850  136.3000 C   0  0  1  0  0  3  0  0  0  0  0  0
  191.5650  169.7170  135.1640 C   0  0  0  0  0  1  0  0  0  0  0  0
  189.7790  171.1290  135.8330 O   0  0  0  0  0  1  0  0  0  0  0  0
  1 11  1  0  0  0  0
  1  5  1  0  0  0  0
  2 15  1  0  0  0  0
  3 10  1  0  0  0  0
  5  9  2  0  0  0  0
  6  4  2  0  0  0  0
  6  8  1  0  0  0  0
  7  8  2  0  0  0  0
  9  4  1  0  0  0  0
  9 26  1  0  0  0  0
 10 12  2  0  0  0  0
 11 10  1  6  0  0  0
 11  6  1  0  0  0  0
 12  7  1  0  0  0  0
 13 14  2  0  0  0  0
 13  2  1  0  0  0  0
 14 16  1  0  0  0  0
 15  3  2  0  0  0  0
 15 17  1  0  0  0  0
 16 17  2  0  0  0  0
 17  1  1  0  0  0  0
 19 24  2  0  0  0  0
 19 26  1  0  0  0  0
 20 28  1  0  0  0  0
 20 21  2  0  0  0  0
 22 21  1  0  0  0  0
 22 18  2  0  0  0  0
 23 25  2  0  0  0  0
 23 24  1  0  0  0  0
 24 22  1  0  0  0  0
 25 20  1  0  0  0  0
 26 27  2  0  0  0  0
 27 18  1  0  0  0  0
 28 30  2  0  0  0  0
 29 28  1  0  0  0  0
 31 13  1  0  0  0  0
 32 33  1  6  0  0  0
 32 31  1  0  0  0  0
 34 32  1  0  0  0  0
M  END
>  <MODEL>
8

>  <REMARK>
 VINA RESULT:      -7.4      5.648      9.900
  Name = 
  4 active torsions:
  status: ('A' for Active; 'I' for Inactive)
    1  A    between atoms: C_3  and  C_25
    2  A    between atoms: C_7  and  C_11
    3  A    between atoms: C_18  and  C_30
    4  A    between atoms: C_23  and  C_25
                            x       y       z     vdW  Elec       q    Type
                         _______ _______ _______ _____ _____    ______ ____

>  <TORSDO>
F 4

$$$$
=
 OpenBabel11052420323D

 34 39  0  0  1  0  0  0  0  0999 V2000
  192.9870  173.8960  142.9820 N   0  0  0  0  0  0  0  0  0  0  0  0
  194.5930  172.3060  139.9130 C   0  0  0  0  0  2  0  0  0  0  0  0
  195.4970  173.0310  142.0510 C   0  0  0  0  0  3  0  0  0  0  0  0
  192.8540  175.1430  145.4900 N   0  0  0  0  0  0  0  0  0  0  0  0
  191.7310  174.3700  143.4970 C   0  0  0  0  0  3  0  0  0  0  0  0
  194.0220  174.7210  145.1070 C   0  0  0  0  0  0  0  0  0  0  0  0
  196.4860  174.3770  145.3820 C   0  0  0  0  0  3  0  0  0  0  0  0
  195.2160  174.9130  145.9940 C   0  0  0  0  0  3  0  0  0  0  0  0
  191.6620  174.9820  144.6920 C   0  0  0  0  0  0  0  0  0  0  0  0
  195.3560  173.6240  143.3900 C   0  0  0  0  0  0  0  0  0  0  0  0
  194.1570  174.0550  143.8040 C   0  0  2  0  0  3  0  0  0  0  0  0
  196.5180  173.8050  144.2120 N   0  0  0  0  0  0  0  0  0  0  0  0
  193.5840  172.4320  139.0430 C   0  0  0  0  0  0  0  0  0  0  0  0
  192.3360  173.1280  139.4340 C   0  0  0  0  0  3  0  0  0  0  0  0
  194.4290  172.7960  141.2880 C   0  0  0  0  0  0  0  0  0  0  0  0
  192.0890  173.4450  140.7110 C   0  0  0  0  0  3  0  0  0  0  0  0
  193.0230  173.0070  141.8120 C   0  0  0  0  0  0  0  0  0  0  0  0
  188.6030  175.4610  146.8900 C   0  0  0  0  0  3  0  0  0  0  0  0
  189.6620  176.4570  144.4930 C   0  0  0  0  0  3  0  0  0  0  0  0
  185.9780  177.8940  145.9270 C   0  0  0  0  0  0  0  0  0  0  0  0
  186.6810  176.9150  146.6460 C   0  0  0  0  0  3  0  0  0  0  0  0
  187.9050  176.4350  146.1740 C   0  0  0  0  0  0  0  0  0  0  0  0
  187.7400  177.9110  144.2490 C   0  0  0  0  0  3  0  0  0  0  0  0
  188.4380  176.9370  144.9660 C   0  0  0  0  0  0  0  0  0  0  0  0
  186.5160  178.3870  144.7280 C   0  0  0  0  0  3  0  0  0  0  0  0
  190.3680  175.4780  145.2090 C   0  0  0  0  0  0  0  0  0  0  0  0
  189.8260  174.9860  146.4110 C   0  0  0  0  0  3  0  0  0  0  0  0
  184.6870  178.4000  146.4260 C   0  0  0  0  0  0  0  0  0  0  0  0
  183.7460  178.9840  145.5310 N   0  0  0  0  0  1  0  0  0  0  0  0
  184.4030  178.3200  147.6510 O   0  0  0  0  0  0  0  0  0  0  0  0
  193.7510  171.9420  137.6450 C   0  0  0  0  0  2  0  0  0  0  0  0
  192.4600  171.3250  137.1300 C   0  0  1  0  0  3  0  0  0  0  0  0
  192.4940  171.2820  135.6180 C   0  0  0  0  0  1  0  0  0  0  0  0
  192.3230  170.0270  137.6250 O   0  0  0  0  0  1  0  0  0  0  0  0
  1  5  1  0  0  0  0
  1 11  1  0  0  0  0
  2 15  1  0  0  0  0
  3 10  1  0  0  0  0
  5  9  2  0  0  0  0
  6  4  2  0  0  0  0
  6  8  1  0  0  0  0
  7  8  2  0  0  0  0
  9 26  1  0  0  0  0
  9  4  1  0  0  0  0
 10 12  2  0  0  0  0
 11 10  1  6  0  0  0
 11  6  1  0  0  0  0
 12  7  1  0  0  0  0
 13 14  2  0  0  0  0
 13  2  1  0  0  0  0
 14 16  1  0  0  0  0
 15 17  1  0  0  0  0
 15  3  2  0  0  0  0
 16 17  2  0  0  0  0
 17  1  1  0  0  0  0
 19 24  2  0  0  0  0
 19 26  1  0  0  0  0
 20 28  1  0  0  0  0
 20 21  2  0  0  0  0
 22 21  1  0  0  0  0
 22 18  2  0  0  0  0
 23 25  2  0  0  0  0
 23 24  1  0  0  0  0
 24 22  1  0  0  0  0
 25 20  1  0  0  0  0
 26 27  2  0  0  0  0
 27 18  1  0  0  0  0
 28 30  2  0  0  0  0
 29 28  1  0  0  0  0
 31 13  1  0  0  0  0
 32 33  1  6  0  0  0
 32 34  1  0  0  0  0
 32 31  1  0  0  0  0
M  END
>  <MODEL>
9

>  <REMARK>
 VINA RESULT:      -7.3      4.158     10.026
  Name = 
  4 active torsions:
  status: ('A' for Active; 'I' for Inactive)
    1  A    between atoms: C_3  and  C_25
    2  A    between atoms: C_7  and  C_11
    3  A    between atoms: C_18  and  C_30
    4  A    between atoms: C_23  and  C_25
                            x       y       z     vdW  Elec       q    Type
                         _______ _______ _______ _____ _____    ______ ____

>  <TORSDO>
F 4

$$$$
