=
 OpenBabel11052418033D

 28 31  0  0  1  0  0  0  0  0999 V2000
  187.1060  176.4150  142.6110 C   0  0  0  0  0  0  0  0  0  0  0  0
  188.0550  175.8890  141.6790 N   0  0  0  0  0  2  0  0  0  0  0  0
  184.3040  177.7870  146.1990 C   0  0  0  0  0  1  0  0  0  0  0  0
  185.9710  176.9680  144.5510 C   0  0  0  0  0  0  0  0  0  0  0  0
  185.3710  177.5180  143.3500 C   0  0  0  0  0  0  0  0  0  0  0  0
  185.5430  177.0550  145.8100 C   0  0  0  0  0  3  0  0  0  0  0  0
  184.3310  178.2270  143.2980 O   0  0  0  0  0  0  0  0  0  0  0  0
  186.1150  177.1470  142.2070 N   0  0  0  0  0  0  0  0  0  0  0  0
  187.1970  176.2420  144.1120 C   0  0  2  0  0  3  0  0  0  0  0  0
  188.9200  174.7710  141.9080 C   0  0  0  0  0  0  0  0  0  0  0  0
  189.7590  172.7670  142.2050 C   0  0  0  0  0  0  0  0  0  0  0  0
  190.3020  174.8300  141.9060 C   0  0  0  0  0  3  0  0  0  0  0  0
  187.3010  172.8930  142.0610 O   0  0  0  0  0  1  0  0  0  0  0  0
  188.5750  173.4480  142.0750 C   0  0  0  0  0  0  0  0  0  0  0  0
  189.9100  171.3020  142.4180 C   0  0  0  0  0  1  0  0  0  0  0  0
  190.7640  173.6090  142.0990 O   0  0  0  0  0  0  0  0  0  0  0  0
  188.3290  176.9060  144.6030 O   0  0  0  0  0  0  0  0  0  0  0  0
  191.1510  176.8710  144.3020 C   0  0  0  0  0  3  0  0  0  0  0  0
  191.2800  176.2200  146.6860 C   0  0  2  0  0  3  0  0  0  0  0  0
  189.0790  175.9300  145.2740 C   0  0  1  0  0  3  0  0  0  0  0  0
  193.3280  176.8990  145.4060 C   0  0  0  0  0  0  0  0  0  0  0  0
  190.5320  176.3450  145.3670 C   0  0  0  0  0  0  0  0  0  0  0  0
  189.4000  174.8440  147.5080 C   0  0  0  0  0  3  0  0  0  0  0  0
  192.7800  175.9920  146.4740 C   0  0  0  0  0  2  0  0  0  0  0  0
  190.7150  175.1000  147.5160 C   0  0  0  0  0  3  0  0  0  0  0  0
  195.0110  177.3730  145.4570 Cl  0  0  0  0  0  0  0  0  0  0  0  0
  192.5720  177.2540  144.3640 C   0  0  0  0  0  3  0  0  0  0  0  0
  188.4800  175.6840  146.6680 C   0  0  0  0  0  2  0  0  0  0  0  0
  1  9  1  0  0  0  0
  2 10  1  0  0  0  0
  2  1  1  0  0  0  0
  4  6  2  0  0  0  0
  5  4  1  0  0  0  0
  6  3  1  0  0  0  0
  7  5  2  0  0  0  0
  8  1  2  0  0  0  0
  8  5  1  0  0  0  0
  9  4  1  0  0  0  0
  9 17  1  1  0  0  0
 10 14  1  0  0  0  0
 11 15  1  0  0  0  0
 12 10  2  0  0  0  0
 12 16  1  0  0  0  0
 13 14  1  0  0  0  0
 14 11  2  0  0  0  0
 16 11  1  0  0  0  0
 18 27  1  0  0  0  0
 18 22  2  0  0  0  0
 19 24  1  6  0  0  0
 19 25  1  0  0  0  0
 20 17  1  1  0  0  0
 20 22  1  0  0  0  0
 20 28  1  0  0  0  0
 21 26  1  0  0  0  0
 21 24  1  0  0  0  0
 22 19  1  0  0  0  0
 23 25  2  0  0  0  0
 27 21  2  0  0  0  0
 28 23  1  0  0  0  0
M  END
>  <MODEL>
1

>  <REMARK>
 VINA RESULT:      -8.2      0.000      0.000
  Name = 
  3 active torsions:
  status: ('A' for Active; 'I' for Inactive)
    1  A    between atoms: N_2  and  C_3
    2  A    between atoms: C_10  and  O_17
    3  A    between atoms: O_17  and  C_27
                            x       y       z     vdW  Elec       q    Type
                         _______ _______ _______ _____ _____    ______ ____

>  <TORSDO>
F 3

$$$$
=
 OpenBabel11052418033D

 28 31  0  0  1  0  0  0  0  0999 V2000
  186.9580  176.3800  142.3610 C   0  0  0  0  0  0  0  0  0  0  0  0
  187.8190  175.6030  141.5230 N   0  0  0  0  0  2  0  0  0  0  0  0
  184.3890  178.6040  145.6870 C   0  0  0  0  0  1  0  0  0  0  0  0
  185.9170  177.3410  144.1900 C   0  0  0  0  0  0  0  0  0  0  0  0
  185.4050  177.8120  142.9170 C   0  0  0  0  0  0  0  0  0  0  0  0
  185.5070  177.6540  145.4200 C   0  0  0  0  0  3  0  0  0  0  0  0
  184.4800  178.6520  142.7550 O   0  0  0  0  0  0  0  0  0  0  0  0
  186.0860  177.1900  141.8470 N   0  0  0  0  0  0  0  0  0  0  0  0
  187.0230  176.3930  143.8730 C   0  0  2  0  0  3  0  0  0  0  0  0
  188.5090  174.4100  141.9100 C   0  0  0  0  0  0  0  0  0  0  0  0
  190.0230  172.9220  142.4610 C   0  0  0  0  0  0  0  0  0  0  0  0
  187.8970  173.2600  142.3730 C   0  0  0  0  0  3  0  0  0  0  0  0
  190.8860  175.1060  141.7110 O   0  0  0  0  0  1  0  0  0  0  0  0
  189.8690  174.2020  141.9910 C   0  0  0  0  0  0  0  0  0  0  0  0
  191.3150  172.2280  142.7080 C   0  0  0  0  0  1  0  0  0  0  0  0
  188.8400  172.3900  142.6810 O   0  0  0  0  0  0  0  0  0  0  0  0
  188.2400  176.9430  144.2950 O   0  0  0  0  0  0  0  0  0  0  0  0
  191.0730  176.7620  144.3110 C   0  0  0  0  0  3  0  0  0  0  0  0
  190.9040  176.1540  146.7040 C   0  0  2  0  0  3  0  0  0  0  0  0
  188.8600  175.9450  145.0600 C   0  0  1  0  0  3  0  0  0  0  0  0
  193.1130  176.7060  145.6500 C   0  0  0  0  0  0  0  0  0  0  0  0
  190.3140  176.2890  145.3070 C   0  0  0  0  0  0  0  0  0  0  0  0
  188.8780  174.8890  147.3310 C   0  0  0  0  0  3  0  0  0  0  0  0
  192.4050  175.8490  146.6630 C   0  0  0  0  0  2  0  0  0  0  0  0
  190.1940  175.0800  147.4820 C   0  0  0  0  0  3  0  0  0  0  0  0
  194.8030  177.0980  145.8800 Cl  0  0  0  0  0  0  0  0  0  0  0  0
  192.4960  177.0770  144.5250 C   0  0  0  0  0  3  0  0  0  0  0  0
  188.1000  175.7560  146.3820 C   0  0  0  0  0  2  0  0  0  0  0  0
  1  9  1  0  0  0  0
  2 10  1  0  0  0  0
  2  1  1  0  0  0  0
  4  6  2  0  0  0  0
  5  4  1  0  0  0  0
  6  3  1  0  0  0  0
  7  5  2  0  0  0  0
  8  1  2  0  0  0  0
  8  5  1  0  0  0  0
  9  4  1  0  0  0  0
  9 17  1  6  0  0  0
 10 14  1  0  0  0  0
 10 12  2  0  0  0  0
 11 16  1  0  0  0  0
 11 15  1  0  0  0  0
 12 16  1  0  0  0  0
 13 14  1  0  0  0  0
 14 11  2  0  0  0  0
 18 27  1  0  0  0  0
 18 22  2  0  0  0  0
 19 24  1  6  0  0  0
 19 25  1  0  0  0  0
 20 17  1  1  0  0  0
 20 22  1  0  0  0  0
 20 28  1  0  0  0  0
 21 26  1  0  0  0  0
 21 24  1  0  0  0  0
 22 19  1  0  0  0  0
 23 25  2  0  0  0  0
 27 21  2  0  0  0  0
 28 23  1  0  0  0  0
M  END
>  <MODEL>
2

>  <REMARK>
 VINA RESULT:      -7.9      0.729      1.231
  Name = 
  3 active torsions:
  status: ('A' for Active; 'I' for Inactive)
    1  A    between atoms: N_2  and  C_3
    2  A    between atoms: C_10  and  O_17
    3  A    between atoms: O_17  and  C_27
                            x       y       z     vdW  Elec       q    Type
                         _______ _______ _______ _____ _____    ______ ____

>  <TORSDO>
F 3

$$$$
=
 OpenBabel11052418033D

 28 31  0  0  1  0  0  0  0  0999 V2000
  191.8710  173.4490  144.0640 C   0  0  0  0  0  0  0  0  0  0  0  0
  190.9930  172.5070  143.4400 N   0  0  0  0  0  2  0  0  0  0  0  0
  194.3370  177.0770  145.8970 C   0  0  0  0  0  1  0  0  0  0  0  0
  192.8090  175.3910  144.9020 C   0  0  0  0  0  0  0  0  0  0  0  0
  193.6110  174.2070  145.1450 C   0  0  0  0  0  0  0  0  0  0  0  0
  193.0840  176.6600  145.2070 C   0  0  0  0  0  3  0  0  0  0  0  0
  194.7210  174.1730  145.7400 O   0  0  0  0  0  0  0  0  0  0  0  0
  192.9790  173.0600  144.6130 N   0  0  0  0  0  0  0  0  0  0  0  0
  191.5750  174.9260  144.2060 C   0  0  2  0  0  3  0  0  0  0  0  0
  189.9890  172.8160  142.4670 C   0  0  0  0  0  0  0  0  0  0  0  0
  188.9040  173.4480  140.6700 C   0  0  0  0  0  0  0  0  0  0  0  0
  188.6600  172.4440  142.5610 C   0  0  0  0  0  3  0  0  0  0  0  0
  191.3260  173.9070  140.6800 O   0  0  0  0  0  1  0  0  0  0  0  0
  190.1480  173.4360  141.2470 C   0  0  0  0  0  0  0  0  0  0  0  0
  188.5570  174.0240  139.3430 C   0  0  0  0  0  1  0  0  0  0  0  0
  188.0440  172.8530  141.4680 O   0  0  0  0  0  0  0  0  0  0  0  0
  190.4710  175.1140  145.0480 O   0  0  0  0  0  0  0  0  0  0  0  0
  188.0380  175.9750  146.2290 C   0  0  0  0  0  3  0  0  0  0  0  0
  188.0180  177.8110  144.5710 C   0  0  2  0  0  3  0  0  0  0  0  0
  189.4570  175.6350  144.2310 C   0  0  1  0  0  3  0  0  0  0  0  0
  186.4280  177.7880  146.5110 C   0  0  0  0  0  0  0  0  0  0  0  0
  188.4730  176.4410  145.0520 C   0  0  0  0  0  0  0  0  0  0  0  0
  189.0240  177.2670  142.3810 C   0  0  0  0  0  3  0  0  0  0  0  0
  186.6070  178.1510  145.0620 C   0  0  0  0  0  2  0  0  0  0  0  0
  188.0580  177.8900  143.0690 C   0  0  0  0  0  3  0  0  0  0  0  0
  185.2740  178.6720  147.4850 Cl  0  0  0  0  0  0  0  0  0  0  0  0
  187.0580  176.7320  147.0290 C   0  0  0  0  0  3  0  0  0  0  0  0
  190.0790  176.4870  143.1130 C   0  0  0  0  0  2  0  0  0  0  0  0
  1  9  1  0  0  0  0
  1  8  2  0  0  0  0
  2  1  1  0  0  0  0
  4  5  1  0  0  0  0
  4  6  2  0  0  0  0
  5  7  2  0  0  0  0
  6  3  1  0  0  0  0
  8  5  1  0  0  0  0
  9  4  1  0  0  0  0
  9 17  1  1  0  0  0
 10 12  2  0  0  0  0
 10  2  1  0  0  0  0
 11 14  2  0  0  0  0
 11 16  1  0  0  0  0
 13 14  1  0  0  0  0
 14 10  1  0  0  0  0
 15 11  1  0  0  0  0
 16 12  1  0  0  0  0
 18 27  1  0  0  0  0
 19 25  1  6  0  0  0
 19 22  1  0  0  0  0
 19 24  1  0  0  0  0
 20 17  1  1  0  0  0
 20 22  1  0  0  0  0
 21 27  2  0  0  0  0
 21 26  1  0  0  0  0
 22 18  2  0  0  0  0
 23 25  2  0  0  0  0
 23 28  1  0  0  0  0
 24 21  1  0  0  0  0
 28 20  1  0  0  0  0
M  END
>  <MODEL>
3

>  <REMARK>
 VINA RESULT:      -7.6      3.201      5.964
  Name = 
  3 active torsions:
  status: ('A' for Active; 'I' for Inactive)
    1  A    between atoms: N_2  and  C_3
    2  A    between atoms: C_10  and  O_17
    3  A    between atoms: O_17  and  C_27
                            x       y       z     vdW  Elec       q    Type
                         _______ _______ _______ _____ _____    ______ ____

>  <TORSDO>
F 3

$$$$
=
 OpenBabel11052418033D

 28 31  0  0  1  0  0  0  0  0999 V2000
  188.6350  177.4700  146.2730 C   0  0  0  0  0  0  0  0  0  0  0  0
  190.0150  177.0980  146.2250 N   0  0  0  0  0  2  0  0  0  0  0  0
  184.0660  178.6680  145.7210 C   0  0  0  0  0  1  0  0  0  0  0  0
  186.4430  177.9470  145.7040 C   0  0  0  0  0  0  0  0  0  0  0  0
  186.7160  178.0790  147.1220 C   0  0  0  0  0  0  0  0  0  0  0  0
  185.3090  178.1950  145.0480 C   0  0  0  0  0  3  0  0  0  0  0  0
  185.8890  178.4240  148.0070 O   0  0  0  0  0  0  0  0  0  0  0  0
  188.0670  177.7690  147.3990 N   0  0  0  0  0  0  0  0  0  0  0  0
  187.7120  177.4810  145.0730 C   0  0  2  0  0  3  0  0  0  0  0  0
  190.8550  177.1460  145.0670 C   0  0  0  0  0  0  0  0  0  0  0  0
  192.2970  176.7050  143.4750 C   0  0  0  0  0  0  0  0  0  0  0  0
  190.7670  178.1000  144.0690 C   0  0  0  0  0  3  0  0  0  0  0  0
  192.1940  175.0690  145.3160 O   0  0  0  0  0  1  0  0  0  0  0  0
  191.8160  176.2410  144.6730 C   0  0  0  0  0  0  0  0  0  0  0  0
  193.3640  176.0720  142.6540 C   0  0  0  0  0  1  0  0  0  0  0  0
  191.6570  177.8040  143.1400 O   0  0  0  0  0  0  0  0  0  0  0  0
  187.5370  176.1770  144.5920 O   0  0  0  0  0  0  0  0  0  0  0  0
  189.3060  174.0990  143.8090 C   0  0  0  0  0  3  0  0  0  0  0  0
  188.2410  174.1930  141.5770 C   0  0  2  0  0  3  0  0  0  0  0  0
  188.0680  176.1790  143.2940 C   0  0  1  0  0  3  0  0  0  0  0  0
  189.8030  172.3310  142.2010 C   0  0  0  0  0  0  0  0  0  0  0  0
  188.5850  174.8040  142.9280 C   0  0  0  0  0  0  0  0  0  0  0  0
  187.4430  176.4250  140.8810 C   0  0  0  0  0  3  0  0  0  0  0  0
  189.3290  173.2290  141.0910 C   0  0  0  0  0  2  0  0  0  0  0  0
  188.0240  175.2660  140.5450 C   0  0  0  0  0  3  0  0  0  0  0  0
  190.4420  170.7480  141.8180 Cl  0  0  0  0  0  0  0  0  0  0  0  0
  189.8420  172.7720  143.4610 C   0  0  0  0  0  3  0  0  0  0  0  0
  186.9990  176.6550  142.2970 C   0  0  0  0  0  2  0  0  0  0  0  0
  1  8  2  0  0  0  0
  2  1  1  0  0  0  0
  4  5  1  0  0  0  0
  5  8  1  0  0  0  0
  5  7  2  0  0  0  0
  6  4  2  0  0  0  0
  6  3  1  0  0  0  0
  9 17  1  1  0  0  0
  9  4  1  0  0  0  0
  9  1  1  0  0  0  0
 10  2  1  0  0  0  0
 11 14  2  0  0  0  0
 12 10  2  0  0  0  0
 14 10  1  0  0  0  0
 14 13  1  0  0  0  0
 15 11  1  0  0  0  0
 16 11  1  0  0  0  0
 16 12  1  0  0  0  0
 19 25  1  6  0  0  0
 19 22  1  0  0  0  0
 20 17  1  1  0  0  0
 21 27  2  0  0  0  0
 22 20  1  0  0  0  0
 22 18  2  0  0  0  0
 23 28  1  0  0  0  0
 24 19  1  0  0  0  0
 24 21  1  0  0  0  0
 25 23  2  0  0  0  0
 26 21  1  0  0  0  0
 27 18  1  0  0  0  0
 28 20  1  0  0  0  0
M  END
>  <MODEL>
4

>  <REMARK>
 VINA RESULT:      -7.3      2.935      4.986
  Name = 
  3 active torsions:
  status: ('A' for Active; 'I' for Inactive)
    1  A    between atoms: N_2  and  C_3
    2  A    between atoms: C_10  and  O_17
    3  A    between atoms: O_17  and  C_27
                            x       y       z     vdW  Elec       q    Type
                         _______ _______ _______ _____ _____    ______ ____

>  <TORSDO>
F 3

$$$$
=
 OpenBabel11052418033D

 28 31  0  0  1  0  0  0  0  0999 V2000
  191.8560  174.5840  142.0950 C   0  0  0  0  0  0  0  0  0  0  0  0
  193.1300  175.1390  142.4360 N   0  0  0  0  0  2  0  0  0  0  0  0
  187.4380  172.8870  141.6370 C   0  0  0  0  0  1  0  0  0  0  0  0
  189.6420  173.9110  142.1470 C   0  0  0  0  0  0  0  0  0  0  0  0
  190.3130  173.6050  140.8980 C   0  0  0  0  0  0  0  0  0  0  0  0
  188.3960  173.6160  142.5160 C   0  0  0  0  0  3  0  0  0  0  0  0
  189.8010  173.0250  139.9040 O   0  0  0  0  0  0  0  0  0  0  0  0
  191.6550  174.0460  140.9330 N   0  0  0  0  0  0  0  0  0  0  0  0
  190.6380  174.6310  142.9920 C   0  0  2  0  0  3  0  0  0  0  0  0
  193.6110  175.3760  143.7630 C   0  0  0  0  0  0  0  0  0  0  0  0
  194.0640  176.2290  145.7310 C   0  0  0  0  0  0  0  0  0  0  0  0
  194.2150  174.4240  144.5650 C   0  0  0  0  0  3  0  0  0  0  0  0
  192.8790  177.7160  144.1620 O   0  0  0  0  0  1  0  0  0  0  0  0
  193.4930  176.5220  144.5190 C   0  0  0  0  0  0  0  0  0  0  0  0
  194.1910  177.1560  146.8880 C   0  0  0  0  0  1  0  0  0  0  0  0
  194.4800  174.9810  145.7310 O   0  0  0  0  0  0  0  0  0  0  0  0
  190.2230  175.9570  143.1680 O   0  0  0  0  0  0  0  0  0  0  0  0
  188.1590  177.6610  144.1120 C   0  0  0  0  0  3  0  0  0  0  0  0
  187.8140  176.0340  145.9440 C   0  0  2  0  0  3  0  0  0  0  0  0
  190.0430  176.1170  144.5480 C   0  0  1  0  0  3  0  0  0  0  0  0
  186.1830  177.8930  145.5270 C   0  0  0  0  0  0  0  0  0  0  0  0
  188.6610  176.6610  144.8460 C   0  0  0  0  0  0  0  0  0  0  0  0
  189.8450  174.8470  146.6980 C   0  0  0  0  0  3  0  0  0  0  0  0
  186.8530  177.0470  146.5740 C   0  0  0  0  0  2  0  0  0  0  0  0
  188.6850  175.4360  147.0150 C   0  0  0  0  0  3  0  0  0  0  0  0
  184.6010  178.5700  145.8460 Cl  0  0  0  0  0  0  0  0  0  0  0  0
  186.8280  178.2220  144.4050 C   0  0  0  0  0  3  0  0  0  0  0  0
  190.2790  174.7770  145.2620 C   0  0  0  0  0  2  0  0  0  0  0  0
  1  2  1  0  0  0  0
  1  9  1  0  0  0  0
  2 10  1  0  0  0  0
  3  6  1  0  0  0  0
  4  6  2  0  0  0  0
  4  9  1  0  0  0  0
  5  8  1  0  0  0  0
  5  4  1  0  0  0  0
  7  5  2  0  0  0  0
  8  1  2  0  0  0  0
  9 17  1  6  0  0  0
 10 14  1  0  0  0  0
 10 12  2  0  0  0  0
 11 15  1  0  0  0  0
 12 16  1  0  0  0  0
 13 14  1  0  0  0  0
 14 11  2  0  0  0  0
 16 11  1  0  0  0  0
 18 27  1  0  0  0  0
 18 22  2  0  0  0  0
 19 24  1  1  0  0  0
 19 25  1  0  0  0  0
 20 17  1  6  0  0  0
 20 22  1  0  0  0  0
 20 28  1  0  0  0  0
 21 26  1  0  0  0  0
 21 24  1  0  0  0  0
 22 19  1  0  0  0  0
 23 25  2  0  0  0  0
 27 21  2  0  0  0  0
 28 23  1  0  0  0  0
M  END
>  <MODEL>
5

>  <REMARK>
 VINA RESULT:      -7.3      3.144      5.694
  Name = 
  3 active torsions:
  status: ('A' for Active; 'I' for Inactive)
    1  A    between atoms: N_2  and  C_3
    2  A    between atoms: C_10  and  O_17
    3  A    between atoms: O_17  and  C_27
                            x       y       z     vdW  Elec       q    Type
                         _______ _______ _______ _____ _____    ______ ____

>  <TORSDO>
F 3

$$$$
=
 OpenBabel11052418033D

 28 31  0  0  1  0  0  0  0  0999 V2000
  184.6860  177.8250  143.4620 C   0  0  0  0  0  0  0  0  0  0  0  0
  184.2690  177.8200  144.8310 N   0  0  0  0  0  2  0  0  0  0  0  0
  186.7160  177.6770  139.1640 C   0  0  0  0  0  1  0  0  0  0  0  0
  185.9180  177.6040  141.5150 C   0  0  0  0  0  0  0  0  0  0  0  0
  184.5610  178.0660  141.2940 C   0  0  0  0  0  0  0  0  0  0  0  0
  186.8920  177.4230  140.6230 C   0  0  0  0  0  3  0  0  0  0  0  0
  184.0450  178.3460  140.1790 O   0  0  0  0  0  0  0  0  0  0  0  0
  183.8660  178.1730  142.5200 N   0  0  0  0  0  0  0  0  0  0  0  0
  186.0480  177.3720  142.9820 C   0  0  2  0  0  3  0  0  0  0  0  0
  185.1360  177.8650  145.9680 C   0  0  0  0  0  0  0  0  0  0  0  0
  186.4370  178.4960  147.6180 C   0  0  0  0  0  0  0  0  0  0  0  0
  185.4110  176.7890  146.7940 C   0  0  0  0  0  3  0  0  0  0  0  0
  185.7190  180.2780  146.0730 O   0  0  0  0  0  1  0  0  0  0  0  0
  185.7730  178.9600  146.5110 C   0  0  0  0  0  0  0  0  0  0  0  0
  187.2820  179.3030  148.5370 C   0  0  0  0  0  1  0  0  0  0  0  0
  186.2030  177.2090  147.7620 O   0  0  0  0  0  0  0  0  0  0  0  0
  186.2080  176.0010  143.2210 O   0  0  0  0  0  0  0  0  0  0  0  0
  187.9790  174.1070  142.0670 C   0  0  0  0  0  3  0  0  0  0  0  0
  189.7980  175.7330  142.4760 C   0  0  2  0  0  3  0  0  0  0  0  0
  187.4980  175.8570  143.7490 C   0  0  1  0  0  3  0  0  0  0  0  0
  190.1630  173.6960  141.0570 C   0  0  0  0  0  0  0  0  0  0  0  0
  188.4090  175.1740  142.7500 C   0  0  0  0  0  0  0  0  0  0  0  0
  189.5140  177.1520  144.4770 C   0  0  0  0  0  3  0  0  0  0  0  0
  190.7830  174.6370  142.0540 C   0  0  0  0  0  2  0  0  0  0  0  0
  190.3340  176.4490  143.6860 C   0  0  0  0  0  3  0  0  0  0  0  0
  191.1850  172.8600  139.9090 Cl  0  0  0  0  0  0  0  0  0  0  0  0
  188.8590  173.4120  141.1120 C   0  0  0  0  0  3  0  0  0  0  0  0
  188.0500  177.2330  144.1540 C   0  0  0  0  0  2  0  0  0  0  0  0
  1  2  1  0  0  0  0
  2 10  1  0  0  0  0
  3  6  1  0  0  0  0
  4  9  1  0  0  0  0
  5  4  1  0  0  0  0
  5  8  1  0  0  0  0
  6  4  2  0  0  0  0
  7  5  2  0  0  0  0
  8  1  2  0  0  0  0
  9 17  1  6  0  0  0
  9  1  1  0  0  0  0
 10 14  1  0  0  0  0
 10 12  2  0  0  0  0
 11 16  1  0  0  0  0
 11 15  1  0  0  0  0
 12 16  1  0  0  0  0
 13 14  1  0  0  0  0
 14 11  2  0  0  0  0
 18 22  2  0  0  0  0
 19 24  1  1  0  0  0
 19 22  1  0  0  0  0
 19 25  1  0  0  0  0
 20 17  1  6  0  0  0
 20 28  1  0  0  0  0
 21 27  2  0  0  0  0
 21 24  1  0  0  0  0
 22 20  1  0  0  0  0
 25 23  2  0  0  0  0
 26 21  1  0  0  0  0
 27 18  1  0  0  0  0
 28 23  1  0  0  0  0
M  END
>  <MODEL>
6

>  <REMARK>
 VINA RESULT:      -7.2      3.014      5.679
  Name = 
  3 active torsions:
  status: ('A' for Active; 'I' for Inactive)
    1  A    between atoms: N_2  and  C_3
    2  A    between atoms: C_10  and  O_17
    3  A    between atoms: O_17  and  C_27
                            x       y       z     vdW  Elec       q    Type
                         _______ _______ _______ _____ _____    ______ ____

>  <TORSDO>
F 3

$$$$
=
 OpenBabel11052418033D

 28 31  0  0  1  0  0  0  0  0999 V2000
  192.9980  173.5120  143.8570 C   0  0  0  0  0  0  0  0  0  0  0  0
  192.4550  172.5380  142.9600 N   0  0  0  0  0  2  0  0  0  0  0  0
  194.2730  177.1700  146.6140 C   0  0  0  0  0  1  0  0  0  0  0  0
  193.3290  175.4130  145.1340 C   0  0  0  0  0  0  0  0  0  0  0  0
  194.3660  174.4130  145.3020 C   0  0  0  0  0  0  0  0  0  0  0  0
  193.2460  176.6260  145.6800 C   0  0  0  0  0  3  0  0  0  0  0  0
  195.3770  174.5110  146.0470 O   0  0  0  0  0  0  0  0  0  0  0  0
  194.1000  173.2800  144.5000 N   0  0  0  0  0  0  0  0  0  0  0  0
  192.3320  174.8290  144.1900 C   0  0  2  0  0  3  0  0  0  0  0  0
  191.5210  172.7990  141.9080 C   0  0  0  0  0  0  0  0  0  0  0  0
  189.7210  172.9720  140.6670 C   0  0  0  0  0  0  0  0  0  0  0  0
  191.7900  173.5590  140.7840 C   0  0  0  0  0  3  0  0  0  0  0  0
  189.4500  171.7470  142.7900 O   0  0  0  0  0  1  0  0  0  0  0  0
  190.1910  172.4450  141.8430 C   0  0  0  0  0  0  0  0  0  0  0  0
  188.3340  172.8480  140.1420 C   0  0  0  0  0  1  0  0  0  0  0  0
  190.6870  173.6270  140.0620 O   0  0  0  0  0  0  0  0  0  0  0  0
  191.1300  174.5990  144.8710 O   0  0  0  0  0  0  0  0  0  0  0  0
  188.7390  175.4330  146.1540 C   0  0  0  0  0  3  0  0  0  0  0  0
  188.8030  177.4410  144.7090 C   0  0  2  0  0  3  0  0  0  0  0  0
  190.1410  175.2520  144.1230 C   0  0  1  0  0  3  0  0  0  0  0  0
  187.2140  177.2740  146.6430 C   0  0  0  0  0  0  0  0  0  0  0  0
  189.1950  176.0060  145.0330 C   0  0  0  0  0  0  0  0  0  0  0  0
  189.7820  177.0970  142.4680 C   0  0  0  0  0  3  0  0  0  0  0  0
  187.4080  177.7870  145.2430 C   0  0  0  0  0  2  0  0  0  0  0  0
  188.8460  177.6840  143.2250 C   0  0  0  0  0  3  0  0  0  0  0  0
  186.1020  178.0960  147.7160 Cl  0  0  0  0  0  0  0  0  0  0  0  0
  187.7950  176.1390  147.0380 C   0  0  0  0  0  3  0  0  0  0  0  0
  190.8000  176.1950  143.1030 C   0  0  0  0  0  2  0  0  0  0  0  0
  1  9  1  0  0  0  0
  1  8  2  0  0  0  0
  2  1  1  0  0  0  0
  4  5  1  0  0  0  0
  4  6  2  0  0  0  0
  5  7  2  0  0  0  0
  6  3  1  0  0  0  0
  8  5  1  0  0  0  0
  9 17  1  1  0  0  0
  9  4  1  0  0  0  0
 10  2  1  0  0  0  0
 11 14  2  0  0  0  0
 12 10  2  0  0  0  0
 14 10  1  0  0  0  0
 14 13  1  0  0  0  0
 15 11  1  0  0  0  0
 16 11  1  0  0  0  0
 16 12  1  0  0  0  0
 18 27  1  0  0  0  0
 19 25  1  6  0  0  0
 19 22  1  0  0  0  0
 19 24  1  0  0  0  0
 20 17  1  1  0  0  0
 20 22  1  0  0  0  0
 21 27  2  0  0  0  0
 21 26  1  0  0  0  0
 22 18  2  0  0  0  0
 23 28  1  0  0  0  0
 23 25  2  0  0  0  0
 24 21  1  0  0  0  0
 28 20  1  0  0  0  0
M  END
>  <MODEL>
7

>  <REMARK>
 VINA RESULT:      -7.2      3.453      5.956
  Name = 
  3 active torsions:
  status: ('A' for Active; 'I' for Inactive)
    1  A    between atoms: N_2  and  C_3
    2  A    between atoms: C_10  and  O_17
    3  A    between atoms: O_17  and  C_27
                            x       y       z     vdW  Elec       q    Type
                         _______ _______ _______ _____ _____    ______ ____

>  <TORSDO>
F 3

$$$$
=
 OpenBabel11052418033D

 28 31  0  0  1  0  0  0  0  0999 V2000
  187.2400  176.6640  146.7150 C   0  0  0  0  0  0  0  0  0  0  0  0
  188.1790  175.7850  147.3400 N   0  0  0  0  0  2  0  0  0  0  0  0
  184.6630  179.7910  144.2260 C   0  0  0  0  0  1  0  0  0  0  0  0
  186.2300  178.1880  145.2960 C   0  0  0  0  0  0  0  0  0  0  0  0
  185.3490  177.6920  146.3360 C   0  0  0  0  0  0  0  0  0  0  0  0
  185.9790  179.1020  144.3580 C   0  0  0  0  0  3  0  0  0  0  0  0
  184.1470  178.0240  146.5100 O   0  0  0  0  0  0  0  0  0  0  0  0
  186.0270  176.7640  147.1600 N   0  0  0  0  0  0  0  0  0  0  0  0
  187.5300  177.4790  145.4730 C   0  0  2  0  0  3  0  0  0  0  0  0
  189.6040  175.8720  147.2350 C   0  0  0  0  0  0  0  0  0  0  0  0
  191.7200  175.5200  146.7810 C   0  0  0  0  0  0  0  0  0  0  0  0
  190.3550  176.9800  147.5840 C   0  0  0  0  0  3  0  0  0  0  0  0
  190.1690  173.7160  146.1380 O   0  0  0  0  0  1  0  0  0  0  0  0
  190.4760  174.9490  146.6990 C   0  0  0  0  0  0  0  0  0  0  0  0
  193.0000  174.9040  146.3380 C   0  0  0  0  0  1  0  0  0  0  0  0
  191.6190  176.7220  147.3060 O   0  0  0  0  0  0  0  0  0  0  0  0
  187.7450  176.6280  144.3810 O   0  0  0  0  0  0  0  0  0  0  0  0
  188.8170  174.3310  143.1030 C   0  0  0  0  0  3  0  0  0  0  0  0
  190.5830  175.8070  142.1920 C   0  0  2  0  0  3  0  0  0  0  0  0
  189.1360  176.4830  144.2830 C   0  0  1  0  0  3  0  0  0  0  0  0
  190.2910  173.4570  141.3640 C   0  0  0  0  0  0  0  0  0  0  0  0
  189.4930  175.4830  143.2040 C   0  0  0  0  0  0  0  0  0  0  0  0
  191.2310  177.6970  143.6440 C   0  0  0  0  0  3  0  0  0  0  0  0
  191.2820  174.5430  141.6800 C   0  0  0  0  0  2  0  0  0  0  0  0
  191.6040  176.7380  142.7870 C   0  0  0  0  0  3  0  0  0  0  0  0
  190.6800  172.2600  140.1480 Cl  0  0  0  0  0  0  0  0  0  0  0  0
  189.1680  173.3330  142.0770 C   0  0  0  0  0  3  0  0  0  0  0  0
  189.7820  177.8500  144.0110 C   0  0  0  0  0  2  0  0  0  0  0  0
  1  8  2  0  0  0  0
  1  2  1  0  0  0  0
  3  6  1  0  0  0  0
  4  9  1  0  0  0  0
  4  5  1  0  0  0  0
  5  7  2  0  0  0  0
  5  8  1  0  0  0  0
  6  4  2  0  0  0  0
  9 17  1  6  0  0  0
  9  1  1  0  0  0  0
 10  2  1  0  0  0  0
 10 12  2  0  0  0  0
 11 16  1  0  0  0  0
 13 14  1  0  0  0  0
 14 11  2  0  0  0  0
 14 10  1  0  0  0  0
 15 11  1  0  0  0  0
 16 12  1  0  0  0  0
 18 22  2  0  0  0  0
 19 24  1  1  0  0  0
 19 25  1  0  0  0  0
 19 22  1  0  0  0  0
 20 17  1  6  0  0  0
 21 24  1  0  0  0  0
 21 27  2  0  0  0  0
 22 20  1  0  0  0  0
 23 28  1  0  0  0  0
 25 23  2  0  0  0  0
 26 21  1  0  0  0  0
 27 18  1  0  0  0  0
 28 20  1  0  0  0  0
M  END
>  <MODEL>
8

>  <REMARK>
 VINA RESULT:      -7.2      2.817      4.701
  Name = 
  3 active torsions:
  status: ('A' for Active; 'I' for Inactive)
    1  A    between atoms: N_2  and  C_3
    2  A    between atoms: C_10  and  O_17
    3  A    between atoms: O_17  and  C_27
                            x       y       z     vdW  Elec       q    Type
                         _______ _______ _______ _____ _____    ______ ____

>  <TORSDO>
F 3

$$$$
=
 OpenBabel11052418033D

 28 31  0  0  1  0  0  0  0  0999 V2000
  186.6090  177.0320  145.1510 C   0  0  0  0  0  0  0  0  0  0  0  0
  187.1250  176.6310  146.4250 N   0  0  0  0  0  2  0  0  0  0  0  0
  185.5660  178.2900  140.6860 C   0  0  0  0  0  1  0  0  0  0  0  0
  186.3880  177.5230  142.9010 C   0  0  0  0  0  0  0  0  0  0  0  0
  185.1680  177.7200  143.6610 C   0  0  0  0  0  0  0  0  0  0  0  0
  186.6110  177.7600  141.6080 C   0  0  0  0  0  3  0  0  0  0  0  0
  184.0670  178.1240  143.2030 O   0  0  0  0  0  0  0  0  0  0  0  0
  185.3720  177.3980  145.0220 N   0  0  0  0  0  0  0  0  0  0  0  0
  187.4020  177.0020  143.8620 C   0  0  2  0  0  3  0  0  0  0  0  0
  188.5060  176.6060  146.7970 C   0  0  0  0  0  0  0  0  0  0  0  0
  190.5530  176.0060  147.3050 C   0  0  0  0  0  0  0  0  0  0  0  0
  189.3200  177.7220  146.8850 C   0  0  0  0  0  3  0  0  0  0  0  0
  188.9420  174.1680  146.9840 O   0  0  0  0  0  1  0  0  0  0  0  0
  189.3020  175.5090  147.0420 C   0  0  0  0  0  0  0  0  0  0  0  0
  191.7630  175.2070  147.6400 C   0  0  0  0  0  1  0  0  0  0  0  0
  190.5350  177.3170  147.2020 O   0  0  0  0  0  0  0  0  0  0  0  0
  187.7200  175.6790  143.5270 O   0  0  0  0  0  0  0  0  0  0  0  0
  189.0050  173.2250  142.9110 C   0  0  0  0  0  3  0  0  0  0  0  0
  190.8790  174.5670  142.0110 C   0  0  2  0  0  3  0  0  0  0  0  0
  189.1100  175.5750  143.6770 C   0  0  1  0  0  3  0  0  0  0  0  0
  190.7460  172.0910  141.6300 C   0  0  0  0  0  0  0  0  0  0  0  0
  189.6450  174.4010  142.8850 C   0  0  0  0  0  0  0  0  0  0  0  0
  191.2680  176.7280  143.1420 C   0  0  0  0  0  3  0  0  0  0  0  0
  191.6640  173.2580  141.8740 C   0  0  0  0  0  2  0  0  0  0  0  0
  191.7830  175.6370  142.5610 C   0  0  0  0  0  3  0  0  0  0  0  0
  191.3370  170.6980  140.7500 Cl  0  0  0  0  0  0  0  0  0  0  0  0
  189.5260  172.0620  142.1700 C   0  0  0  0  0  3  0  0  0  0  0  0
  189.7780  176.8890  143.2430 C   0  0  0  0  0  2  0  0  0  0  0  0
  1  2  1  0  0  0  0
  2 10  1  0  0  0  0
  3  6  1  0  0  0  0
  4  5  1  0  0  0  0
  4  9  1  0  0  0  0
  5  8  1  0  0  0  0
  6  4  2  0  0  0  0
  7  5  2  0  0  0  0
  8  1  2  0  0  0  0
  9 17  1  6  0  0  0
  9  1  1  0  0  0  0
 10 12  2  0  0  0  0
 10 14  1  0  0  0  0
 11 15  1  0  0  0  0
 12 16  1  0  0  0  0
 13 14  1  0  0  0  0
 14 11  2  0  0  0  0
 16 11  1  0  0  0  0
 19 24  1  1  0  0  0
 19 25  1  0  0  0  0
 19 22  1  0  0  0  0
 20 17  1  6  0  0  0
 21 24  1  0  0  0  0
 21 27  2  0  0  0  0
 22 18  2  0  0  0  0
 22 20  1  0  0  0  0
 23 28  1  0  0  0  0
 25 23  2  0  0  0  0
 26 21  1  0  0  0  0
 27 18  1  0  0  0  0
 28 20  1  0  0  0  0
M  END
>  <MODEL>
9

>  <REMARK>
 VINA RESULT:      -7.2      2.547      4.858
  Name = 
  3 active torsions:
  status: ('A' for Active; 'I' for Inactive)
    1  A    between atoms: N_2  and  C_3
    2  A    between atoms: C_10  and  O_17
    3  A    between atoms: O_17  and  C_27
                            x       y       z     vdW  Elec       q    Type
                         _______ _______ _______ _____ _____    ______ ____

>  <TORSDO>
F 3

$$$$
