=
 OpenBabel11052420073D

 37 41  0  0  1  0  0  0  0  0999 V2000
  193.6290  172.3270  143.8110 S   0  0  0  0  0  0  0  0  0  0  0  0
  189.8230  174.2990  141.8910 C   0  0  2  0  0  3  0  0  0  0  0  0
  194.1640  172.5350  145.5200 C   0  0  2  0  0  3  0  0  0  0  0  0
  191.1970  176.7410  144.7070 C   0  0  0  0  0  2  0  0  0  0  0  0
  190.5700  174.8160  143.1320 C   0  0  2  0  0  3  0  0  0  0  0  0
  190.8740  174.0230  140.8350 C   0  0  1  0  0  3  0  0  0  0  0  0
  190.3390  176.3100  143.5060 C   0  0  1  0  0  3  0  0  0  0  0  0
  194.4290  173.8920  145.7570 O   0  0  0  0  0  0  0  0  0  0  0  0
  192.1530  173.7510  141.5990 C   0  0  2  0  0  3  0  0  0  0  0  0
  187.7080  175.0150  142.1740 C   0  0  0  0  0  2  0  0  0  0  0  0
  193.4240  174.6670  145.1340 C   0  0  2  0  0  0  0  0  0  0  0  0
  191.1310  175.7220  145.8350 C   0  0  0  0  0  2  0  0  0  0  0  0
  188.8710  175.2070  141.4060 O   0  0  0  0  0  0  0  0  0  0  0  0
  192.0470  174.5100  142.9170 C   0  0  2  0  0  3  0  0  0  0  0  0
  188.8470  176.7660  143.5940 C   0  0  1  0  0  3  0  0  0  0  0  0
  192.5250  175.2460  146.2500 C   0  0  0  0  0  2  0  0  0  0  0  0
  192.6190  173.7770  144.1550 C   0  0  1  0  0  3  0  0  0  0  0  0
  187.8390  175.6210  143.5780 C   0  0  0  0  0  2  0  0  0  0  0  0
  194.1310  175.8080  144.3790 C   0  0  0  0  0  2  0  0  0  0  0  0
  194.8440  176.7780  145.3100 C   0  0  0  0  0  1  0  0  0  0  0  0
  196.6280  172.6310  145.8720 C   0  0  0  0  0  1  0  0  0  0  0  0
  195.4180  171.7210  145.7830 C   0  0  0  0  0  2  0  0  0  0  0  0
  193.3390  174.2190  140.8210 C   0  0  0  0  0  0  0  0  0  0  0  0
  193.8670  173.4460  139.9780 O   0  0  0  0  0  0  0  0  0  0  0  0
  193.8470  175.5040  141.0280 O   0  0  0  0  0  0  0  0  0  0  0  0
  195.1450  175.8890  140.5940 C   0  0  0  0  0  2  0  0  0  0  0  0
  195.5810  176.9930  141.3260 O   0  0  0  0  0  1  0  0  0  0  0  0
  188.5160  177.7450  144.7160 C   0  0  0  0  0  2  0  0  0  0  0  0
  186.3430  178.8300  144.2360 C   0  0  0  0  0  2  0  0  0  0  0  0
  186.8010  177.9430  146.3900 O   0  0  0  0  0  0  0  0  0  0  0  0
  184.7200  178.3210  147.2770 O   0  0  0  0  0  1  0  0  0  0  0  0
  185.2210  179.2180  145.1350 C   0  0  0  0  0  2  0  0  0  0  0  0
  185.7460  178.8680  146.5050 C   0  0  2  0  0  3  0  0  0  0  0  0
  187.0250  177.7380  145.0170 C   0  0  2  0  0  3  0  0  0  0  0  0
  190.4990  172.8070  140.0050 C   0  0  0  0  0  2  0  0  0  0  0  0
  190.1480  171.6390  140.9050 C   0  0  0  0  0  2  0  0  0  0  0  0
  190.9470  170.5440  140.5790 O   0  0  0  0  0  1  0  0  0  0  0  0
  1 17  1  0  0  0  0
  1  3  1  0  0  0  0
  2 13  1  6  0  0  0
  2  5  1  0  0  0  0
  3  8  1  0  0  0  0
  3 22  1  6  0  0  0
  4 12  1  0  0  0  0
  5  7  1  0  0  0  0
  6  9  1  0  0  0  0
  6  2  1  0  0  0  0
  7 15  1  0  0  0  0
  7  4  1  0  0  0  0
  9 14  1  0  0  0  0
 10 18  1  0  0  0  0
 11  8  1  0  0  0  0
 11 16  1  0  0  0  0
 12 16  1  0  0  0  0
 13 10  1  0  0  0  0
 14  5  1  0  0  0  0
 14 17  1  0  0  0  0
 15 28  1  0  0  0  0
 17 11  1  0  0  0  0
 18 15  1  0  0  0  0
 19 11  1  0  0  0  0
 19 20  1  0  0  0  0
 22 21  1  0  0  0  0
 23 25  1  0  0  0  0
 23  9  1  0  0  0  0
 24 23  2  0  0  0  0
 26 25  1  0  0  0  0
 26 27  1  0  0  0  0
 28 34  1  0  0  0  0
 29 34  1  0  0  0  0
 29 32  1  0  0  0  0
 30 33  1  0  0  0  0
 32 33  1  0  0  0  0
 33 31  1  0  0  0  0
 34 30  1  0  0  0  0
 35  6  1  0  0  0  0
 35 36  1  0  0  0  0
 37 36  1  0  0  0  0
M  END
>  <MODEL>
1

>  <REMARK>
 VINA RESULT:      -6.7      0.000      0.000
  Name = 
  9 active torsions:
  status: ('A' for Active; 'I' for Inactive)
    1  A    between atoms: C_3  and  O_32
    2  A    between atoms: C_5  and  C_23
    3  A    between atoms: C_6  and  C_31
    4  A    between atoms: C_6  and  C_35
    5  A    between atoms: C_9  and  C_13
    6  A    between atoms: C_9  and  C_16
    7  A    between atoms: C_11  and  C_26
    8  A    between atoms: C_20  and  C_21
    9  A    between atoms: C_21  and  O_32
                            x       y       z     vdW  Elec       q    Type
                         _______ _______ _______ _____ _____    ______ ____

>  <TORSDO>
F 9

$$$$
=
 OpenBabel11052420073D

 37 41  0  0  1  0  0  0  0  0999 V2000
  192.6660  172.8830  140.3700 S   0  0  0  0  0  0  0  0  0  0  0  0
  192.0390  176.4320  143.3810 C   0  0  2  0  0  3  0  0  0  0  0  0
  191.4500  172.3030  139.1710 C   0  0  2  0  0  3  0  0  0  0  0  0
  188.5130  174.7210  142.7330 C   0  0  0  0  0  2  0  0  0  0  0  0
  190.9190  175.6090  142.7220 C   0  0  2  0  0  3  0  0  0  0  0  0
  193.0450  175.4390  143.9250 C   0  0  1  0  0  3  0  0  0  0  0  0
  189.5300  175.6420  143.4240 C   0  0  1  0  0  3  0  0  0  0  0  0
  190.3050  171.8640  139.8530 O   0  0  0  0  0  0  0  0  0  0  0  0
  192.8850  174.1950  143.0770 C   0  0  2  0  0  3  0  0  0  0  0  0
  191.0940  178.4350  143.7860 C   0  0  0  0  0  2  0  0  0  0  0  0
  190.0250  172.7700  140.9010 C   0  0  2  0  0  0  0  0  0  0  0  0
  188.5350  174.9010  141.2210 C   0  0  0  0  0  2  0  0  0  0  0  0
  191.5740  177.2680  144.4070 O   0  0  0  0  0  0  0  0  0  0  0  0
  191.4450  174.1860  142.5790 C   0  0  2  0  0  3  0  0  0  0  0  0
  188.9740  177.0630  143.7630 C   0  0  1  0  0  3  0  0  0  0  0  0
  188.7670  173.5730  140.4960 C   0  0  0  0  0  2  0  0  0  0  0  0
  191.2470  173.6950  141.1230 C   0  0  1  0  0  3  0  0  0  0  0  0
  189.7370  178.2090  143.1060 C   0  0  0  0  0  2  0  0  0  0  0  0
  189.7360  171.9340  142.1610 C   0  0  0  0  0  2  0  0  0  0  0  0
  190.4620  170.5970  142.1600 C   0  0  0  0  0  1  0  0  0  0  0  0
  191.1540  169.9230  138.4960 C   0  0  0  0  0  1  0  0  0  0  0  0
  192.0210  171.1590  138.3520 C   0  0  0  0  0  2  0  0  0  0  0  0
  193.1670  172.9700  143.8830 C   0  0  0  0  0  0  0  0  0  0  0  0
  192.2570  172.4840  144.6060 O   0  0  0  0  0  0  0  0  0  0  0  0
  194.4290  172.3720  143.8260 O   0  0  0  0  0  0  0  0  0  0  0  0
  195.3640  172.4640  144.8920 C   0  0  0  0  0  2  0  0  0  0  0  0
  195.1870  171.3940  145.7700 O   0  0  0  0  0  1  0  0  0  0  0  0
  187.4710  177.2520  143.5720 C   0  0  0  0  0  2  0  0  0  0  0  0
  187.0320  176.9360  145.9880 C   0  0  0  0  0  2  0  0  0  0  0  0
  185.4660  178.0740  144.6140 O   0  0  0  0  0  0  0  0  0  0  0  0
  184.0320  178.6810  146.2980 O   0  0  0  0  0  1  0  0  0  0  0  0
  185.8140  177.1940  146.8050 C   0  0  0  0  0  2  0  0  0  0  0  0
  184.8040  177.6410  145.7780 C   0  0  2  0  0  3  0  0  0  0  0  0
  186.8420  177.8610  144.8160 C   0  0  2  0  0  3  0  0  0  0  0  0
  194.4600  175.9770  143.7930 C   0  0  0  0  0  2  0  0  0  0  0  0
  195.0760  176.1890  145.1620 C   0  0  0  0  0  2  0  0  0  0  0  0
  194.6120  177.3870  145.7020 O   0  0  0  0  0  1  0  0  0  0  0  0
  1 17  1  0  0  0  0
  2  6  1  0  0  0  0
  2 13  1  1  0  0  0
  3 22  1  1  0  0  0
  3  8  1  0  0  0  0
  3  1  1  0  0  0  0
  4  7  1  0  0  0  0
  5  2  1  0  0  0  0
  5  7  1  0  0  0  0
  7 15  1  0  0  0  0
  8 11  1  0  0  0  0
  9 23  1  0  0  0  0
  9  6  1  0  0  0  0
 10 13  1  0  0  0  0
 11 17  1  0  0  0  0
 11 19  1  0  0  0  0
 12  4  1  0  0  0  0
 14  5  1  0  0  0  0
 14  9  1  0  0  0  0
 16 11  1  0  0  0  0
 16 12  1  0  0  0  0
 17 14  1  0  0  0  0
 18 15  1  0  0  0  0
 18 10  1  0  0  0  0
 20 19  1  0  0  0  0
 22 21  1  0  0  0  0
 23 24  2  0  0  0  0
 25 23  1  0  0  0  0
 25 26  1  0  0  0  0
 26 27  1  0  0  0  0
 28 15  1  0  0  0  0
 28 34  1  0  0  0  0
 29 32  1  0  0  0  0
 30 34  1  0  0  0  0
 30 33  1  0  0  0  0
 33 31  1  0  0  0  0
 33 32  1  0  0  0  0
 34 29  1  0  0  0  0
 35  6  1  0  0  0  0
 35 36  1  0  0  0  0
 36 37  1  0  0  0  0
M  END
>  <MODEL>
2

>  <REMARK>
 VINA RESULT:      -6.6      2.076      5.100
  Name = 
  9 active torsions:
  status: ('A' for Active; 'I' for Inactive)
    1  A    between atoms: C_3  and  O_32
    2  A    between atoms: C_5  and  C_23
    3  A    between atoms: C_6  and  C_31
    4  A    between atoms: C_6  and  C_35
    5  A    between atoms: C_9  and  C_13
    6  A    between atoms: C_9  and  C_16
    7  A    between atoms: C_11  and  C_26
    8  A    between atoms: C_20  and  C_21
    9  A    between atoms: C_21  and  O_32
                            x       y       z     vdW  Elec       q    Type
                         _______ _______ _______ _____ _____    ______ ____

>  <TORSDO>
F 9

$$$$
=
 OpenBabel11052420073D

 37 41  0  0  1  0  0  0  0  0999 V2000
  187.8380  176.4880  141.7120 S   0  0  0  0  0  0  0  0  0  0  0  0
  191.9770  174.3400  141.1450 C   0  0  2  0  0  3  0  0  0  0  0  0
  187.5580  177.9750  142.6920 C   0  0  2  0  0  3  0  0  0  0  0  0
  191.9450  176.0410  144.7360 C   0  0  0  0  0  2  0  0  0  0  0  0
  191.6010  175.2670  142.3150 C   0  0  2  0  0  3  0  0  0  0  0  0
  190.8360  173.3560  140.9880 C   0  0  1  0  0  3  0  0  0  0  0  0
  192.4590  175.1330  143.6070 C   0  0  1  0  0  3  0  0  0  0  0  0
  187.9000  177.7170  144.0280 O   0  0  0  0  0  0  0  0  0  0  0  0
  189.6170  174.0570  141.5490 C   0  0  2  0  0  3  0  0  0  0  0  0
  194.2110  174.5410  140.9700 C   0  0  0  0  0  2  0  0  0  0  0  0
  189.0910  176.9550  144.0530 C   0  0  2  0  0  0  0  0  0  0  0  0
  191.6580  177.4490  144.2320 C   0  0  0  0  0  2  0  0  0  0  0  0
  193.1850  173.6590  141.3520 O   0  0  0  0  0  0  0  0  0  0  0  0
  190.1200  175.0450  142.5950 C   0  0  2  0  0  3  0  0  0  0  0  0
  194.0070  175.1860  143.4030 C   0  0  1  0  0  3  0  0  0  0  0  0
  190.2250  177.8820  144.5500 C   0  0  0  0  0  2  0  0  0  0  0  0
  189.3820  176.4060  142.6350 C   0  0  1  0  0  3  0  0  0  0  0  0
  194.4430  175.6420  142.0140 C   0  0  0  0  0  2  0  0  0  0  0  0
  188.8740  175.8030  145.0510 C   0  0  0  0  0  2  0  0  0  0  0  0
  188.3460  176.2810  146.3970 C   0  0  0  0  0  1  0  0  0  0  0  0
  185.7820  179.4010  143.7010 C   0  0  0  0  0  1  0  0  0  0  0  0
  186.1010  178.3920  142.6140 C   0  0  0  0  0  2  0  0  0  0  0  0
  188.6830  173.0700  142.1690 C   0  0  0  0  0  0  0  0  0  0  0  0
  187.4410  173.2090  142.0070 O   0  0  0  0  0  0  0  0  0  0  0  0
  189.1910  172.0030  142.9170 O   0  0  0  0  0  0  0  0  0  0  0  0
  189.4880  172.1180  144.3020 C   0  0  0  0  0  2  0  0  0  0  0  0
  190.8700  172.1400  144.4890 O   0  0  0  0  0  1  0  0  0  0  0  0
  194.7940  175.9350  144.4750 C   0  0  0  0  0  2  0  0  0  0  0  0
  197.0260  174.8740  144.3350 C   0  0  0  0  0  2  0  0  0  0  0  0
  195.2080  173.7350  145.3530 O   0  0  0  0  0  0  0  0  0  0  0  0
  196.4070  171.9160  146.0700 O   0  0  0  0  0  1  0  0  0  0  0  0
  197.4730  173.4870  144.6420 C   0  0  0  0  0  2  0  0  0  0  0  0
  196.1860  172.7860  145.0010 C   0  0  2  0  0  3  0  0  0  0  0  0
  195.7790  175.0080  145.1690 C   0  0  2  0  0  3  0  0  0  0  0  0
  190.6110  173.0190  139.5240 C   0  0  0  0  0  2  0  0  0  0  0  0
  191.1230  171.6250  139.2170 C   0  0  0  0  0  2  0  0  0  0  0  0
  191.0460  170.8370  140.3640 O   0  0  0  0  0  1  0  0  0  0  0  0
  1 17  1  0  0  0  0
  1  3  1  0  0  0  0
  2 13  1  1  0  0  0
  2  5  1  0  0  0  0
  3 22  1  1  0  0  0
  3  8  1  0  0  0  0
  5 14  1  0  0  0  0
  5  7  1  0  0  0  0
  6  2  1  0  0  0  0
  6  9  1  0  0  0  0
  7  4  1  0  0  0  0
  8 11  1  0  0  0  0
  9 23  1  0  0  0  0
  9 14  1  0  0  0  0
 10 13  1  0  0  0  0
 10 18  1  0  0  0  0
 11 16  1  0  0  0  0
 11 19  1  0  0  0  0
 12 16  1  0  0  0  0
 12  4  1  0  0  0  0
 14 17  1  0  0  0  0
 15  7  1  0  0  0  0
 15 28  1  0  0  0  0
 17 11  1  0  0  0  0
 18 15  1  0  0  0  0
 19 20  1  0  0  0  0
 22 21  1  0  0  0  0
 23 25  1  0  0  0  0
 24 23  2  0  0  0  0
 25 26  1  0  0  0  0
 26 27  1  0  0  0  0
 28 34  1  0  0  0  0
 29 32  1  0  0  0  0
 29 34  1  0  0  0  0
 32 33  1  0  0  0  0
 33 30  1  0  0  0  0
 33 31  1  0  0  0  0
 34 30  1  0  0  0  0
 35  6  1  0  0  0  0
 36 35  1  0  0  0  0
 36 37  1  0  0  0  0
M  END
>  <MODEL>
3

>  <REMARK>
 VINA RESULT:      -6.6      2.167      7.154
  Name = 
  9 active torsions:
  status: ('A' for Active; 'I' for Inactive)
    1  A    between atoms: C_3  and  O_32
    2  A    between atoms: C_5  and  C_23
    3  A    between atoms: C_6  and  C_31
    4  A    between atoms: C_6  and  C_35
    5  A    between atoms: C_9  and  C_13
    6  A    between atoms: C_9  and  C_16
    7  A    between atoms: C_11  and  C_26
    8  A    between atoms: C_20  and  C_21
    9  A    between atoms: C_21  and  O_32
                            x       y       z     vdW  Elec       q    Type
                         _______ _______ _______ _____ _____    ______ ____

>  <TORSDO>
F 9

$$$$
=
 OpenBabel11052420073D

 37 41  0  0  1  0  0  0  0  0999 V2000
  189.1030  176.1170  146.1290 S   0  0  0  0  0  0  0  0  0  0  0  0
  191.6080  172.8880  143.8130 C   0  0  2  0  0  3  0  0  0  0  0  0
  187.4100  176.6010  145.7420 C   0  0  2  0  0  3  0  0  0  0  0  0
  189.1050  174.5940  141.2410 C   0  0  0  0  0  2  0  0  0  0  0  0
  190.4060  173.6650  143.2470 C   0  0  2  0  0  3  0  0  0  0  0  0
  192.5190  173.9110  144.4600 C   0  0  1  0  0  3  0  0  0  0  0  0
  190.2890  173.7250  141.6960 C   0  0  1  0  0  3  0  0  0  0  0  0
  187.3670  177.1250  144.4410 O   0  0  0  0  0  0  0  0  0  0  0  0
  191.6220  175.0690  144.8400 C   0  0  2  0  0  3  0  0  0  0  0  0
  191.6110  170.9520  142.6650 C   0  0  0  0  0  2  0  0  0  0  0  0
  188.1820  176.3300  143.6040 C   0  0  2  0  0  0  0  0  0  0  0  0
  187.8410  174.2680  142.0240 C   0  0  0  0  0  2  0  0  0  0  0  0
  192.3030  172.1650  142.8330 O   0  0  0  0  0  0  0  0  0  0  0  0
  190.4510  175.0570  143.8640 C   0  0  2  0  0  3  0  0  0  0  0  0
  190.3940  172.3540  140.9530 C   0  0  1  0  0  3  0  0  0  0  0  0
  187.2460  175.5140  142.6820 C   0  0  0  0  0  2  0  0  0  0  0  0
  189.0720  175.4080  144.4740 C   0  0  1  0  0  3  0  0  0  0  0  0
  190.3130  171.1360  141.8670 C   0  0  0  0  0  2  0  0  0  0  0  0
  189.0460  177.2890  142.7650 C   0  0  0  0  0  2  0  0  0  0  0  0
  188.2210  178.1530  141.8220 C   0  0  0  0  0  1  0  0  0  0  0  0
  185.9540  178.5980  146.0490 C   0  0  0  0  0  1  0  0  0  0  0  0
  186.9230  177.6490  146.7260 C   0  0  0  0  0  2  0  0  0  0  0  0
  192.3650  176.3610  144.7480 C   0  0  0  0  0  0  0  0  0  0  0  0
  192.4610  176.9400  143.6330 O   0  0  0  0  0  0  0  0  0  0  0  0
  192.9410  176.9180  145.8940 O   0  0  0  0  0  0  0  0  0  0  0  0
  194.3300  176.8100  146.1770 C   0  0  0  0  0  2  0  0  0  0  0  0
  194.9820  177.9840  145.7980 O   0  0  0  0  0  1  0  0  0  0  0  0
  189.4680  172.1760  139.7520 C   0  0  0  0  0  2  0  0  0  0  0  0
  191.6860  171.9610  138.6730 C   0  0  0  0  0  2  0  0  0  0  0  0
  190.1590  173.6390  137.9740 O   0  0  0  0  0  0  0  0  0  0  0  0
  191.4110  174.4170  136.2170 O   0  0  0  0  0  1  0  0  0  0  0  0
  192.3900  172.8380  137.6970 C   0  0  0  0  0  2  0  0  0  0  0  0
  191.4500  174.0080  137.5500 C   0  0  2  0  0  3  0  0  0  0  0  0
  190.2400  172.3180  138.4490 C   0  0  2  0  0  3  0  0  0  0  0  0
  193.1780  173.3360  145.7030 C   0  0  0  0  0  2  0  0  0  0  0  0
  194.6260  172.9870  145.4220 C   0  0  0  0  0  2  0  0  0  0  0  0
  195.1140  173.8070  144.4050 O   0  0  0  0  0  1  0  0  0  0  0  0
  2 13  1  6  0  0  0
  2  6  1  0  0  0  0
  3  1  1  0  0  0  0
  3 22  1  1  0  0  0
  4  7  1  0  0  0  0
  4 12  1  0  0  0  0
  5  2  1  0  0  0  0
  5 14  1  0  0  0  0
  6  9  1  0  0  0  0
  6 35  1  0  0  0  0
  7  5  1  0  0  0  0
  8  3  1  0  0  0  0
 10 13  1  0  0  0  0
 11  8  1  0  0  0  0
 11 17  1  0  0  0  0
 12 16  1  0  0  0  0
 14 17  1  0  0  0  0
 14  9  1  0  0  0  0
 15  7  1  0  0  0  0
 15 18  1  0  0  0  0
 16 11  1  0  0  0  0
 17  1  1  0  0  0  0
 18 10  1  0  0  0  0
 19 11  1  0  0  0  0
 20 19  1  0  0  0  0
 21 22  1  0  0  0  0
 23  9  1  0  0  0  0
 23 25  1  0  0  0  0
 24 23  2  0  0  0  0
 25 26  1  0  0  0  0
 27 26  1  0  0  0  0
 28 15  1  0  0  0  0
 30 34  1  0  0  0  0
 31 33  1  0  0  0  0
 32 29  1  0  0  0  0
 33 32  1  0  0  0  0
 33 30  1  0  0  0  0
 34 29  1  0  0  0  0
 34 28  1  0  0  0  0
 36 35  1  0  0  0  0
 37 36  1  0  0  0  0
M  END
>  <MODEL>
4

>  <REMARK>
 VINA RESULT:      -6.5      2.364      7.128
  Name = 
  9 active torsions:
  status: ('A' for Active; 'I' for Inactive)
    1  A    between atoms: C_3  and  O_32
    2  A    between atoms: C_5  and  C_23
    3  A    between atoms: C_6  and  C_31
    4  A    between atoms: C_6  and  C_35
    5  A    between atoms: C_9  and  C_13
    6  A    between atoms: C_9  and  C_16
    7  A    between atoms: C_11  and  C_26
    8  A    between atoms: C_20  and  C_21
    9  A    between atoms: C_21  and  O_32
                            x       y       z     vdW  Elec       q    Type
                         _______ _______ _______ _____ _____    ______ ____

>  <TORSDO>
F 9

$$$$
=
 OpenBabel11052420073D

 37 41  0  0  1  0  0  0  0  0999 V2000
  193.6470  174.5510  141.8400 S   0  0  0  0  0  0  0  0  0  0  0  0
  191.7890  176.2010  145.8250 C   0  0  2  0  0  3  0  0  0  0  0  0
  192.7710  174.3740  140.2740 C   0  0  2  0  0  3  0  0  0  0  0  0
  188.9090  174.3910  143.7720 C   0  0  0  0  0  2  0  0  0  0  0  0
  190.9990  175.5850  144.6570 C   0  0  2  0  0  3  0  0  0  0  0  0
  192.9360  175.2570  146.1190 C   0  0  1  0  0  3  0  0  0  0  0  0
  189.5700  175.0610  144.9870 C   0  0  1  0  0  3  0  0  0  0  0  0
  191.6970  173.4880  140.4440 O   0  0  0  0  0  0  0  0  0  0  0  0
  193.1970  174.5210  144.8230 C   0  0  2  0  0  3  0  0  0  0  0  0
  190.3310  177.6130  146.7990 C   0  0  0  0  0  2  0  0  0  0  0  0
  191.0730  173.7630  141.6820 C   0  0  2  0  0  0  0  0  0  0  0  0
  189.0700  175.2330  142.5140 C   0  0  0  0  0  2  0  0  0  0  0  0
  191.0070  176.3930  146.9740 O   0  0  0  0  0  0  0  0  0  0  0  0
  191.8770  174.4910  144.0610 C   0  0  2  0  0  3  0  0  0  0  0  0
  188.6400  176.0600  145.7480 C   0  0  1  0  0  3  0  0  0  0  0  0
  189.7140  174.4340  141.3780 C   0  0  0  0  0  2  0  0  0  0  0  0
  191.9880  174.6820  142.5280 C   0  0  1  0  0  3  0  0  0  0  0  0
  189.1670  177.4900  145.8060 C   0  0  0  0  0  2  0  0  0  0  0  0
  190.8500  172.4140  142.3900 C   0  0  0  0  0  2  0  0  0  0  0  0
  190.6000  171.2710  141.4160 C   0  0  0  0  0  1  0  0  0  0  0  0
  193.3190  174.3830  137.8440 C   0  0  0  0  0  1  0  0  0  0  0  0
  193.7060  173.8370  139.2050 C   0  0  0  0  0  2  0  0  0  0  0  0
  193.6750  173.1320  145.0940 C   0  0  0  0  0  0  0  0  0  0  0  0
  192.8650  172.1720  145.0000 O   0  0  0  0  0  0  0  0  0  0  0  0
  195.0100  172.9090  145.4430 O   0  0  0  0  0  0  0  0  0  0  0  0
  196.0930  173.4390  144.6880 C   0  0  0  0  0  2  0  0  0  0  0  0
  196.9730  174.1140  145.5340 O   0  0  0  0  0  1  0  0  0  0  0  0
  187.1730  176.0550  145.3270 C   0  0  0  0  0  2  0  0  0  0  0  0
  185.4160  177.3100  146.5370 C   0  0  0  0  0  2  0  0  0  0  0  0
  186.0440  177.9310  144.3330 O   0  0  0  0  0  0  0  0  0  0  0  0
  184.7370  179.8110  144.2090 O   0  0  0  0  0  1  0  0  0  0  0  0
  184.4760  178.3700  146.0790 C   0  0  0  0  0  2  0  0  0  0  0  0
  184.7730  178.4730  144.6030 C   0  0  2  0  0  3  0  0  0  0  0  0
  186.5440  177.4220  145.5460 C   0  0  2  0  0  3  0  0  0  0  0  0
  194.1770  176.0290  146.5350 C   0  0  0  0  0  2  0  0  0  0  0  0
  194.7130  176.8370  145.3690 C   0  0  0  0  0  2  0  0  0  0  0  0
  194.9130  178.1570  145.7700 O   0  0  0  0  0  1  0  0  0  0  0  0
  1 17  1  0  0  0  0
  2  6  1  0  0  0  0
  2 13  1  1  0  0  0
  3 22  1  6  0  0  0
  3  8  1  0  0  0  0
  3  1  1  0  0  0  0
  4  7  1  0  0  0  0
  5  7  1  0  0  0  0
  5  2  1  0  0  0  0
  6 35  1  0  0  0  0
  7 15  1  0  0  0  0
  8 11  1  0  0  0  0
  9 23  1  0  0  0  0
  9  6  1  0  0  0  0
 10 13  1  0  0  0  0
 11 19  1  0  0  0  0
 11 17  1  0  0  0  0
 12  4  1  0  0  0  0
 14  5  1  0  0  0  0
 14  9  1  0  0  0  0
 15 18  1  0  0  0  0
 16 11  1  0  0  0  0
 16 12  1  0  0  0  0
 17 14  1  0  0  0  0
 18 10  1  0  0  0  0
 20 19  1  0  0  0  0
 21 22  1  0  0  0  0
 23 25  1  0  0  0  0
 24 23  2  0  0  0  0
 26 25  1  0  0  0  0
 26 27  1  0  0  0  0
 28 34  1  0  0  0  0
 28 15  1  0  0  0  0
 30 33  1  0  0  0  0
 30 34  1  0  0  0  0
 31 33  1  0  0  0  0
 32 29  1  0  0  0  0
 33 32  1  0  0  0  0
 34 29  1  0  0  0  0
 36 37  1  0  0  0  0
 36 35  1  0  0  0  0
M  END
>  <MODEL>
5

>  <REMARK>
 VINA RESULT:      -6.5      1.923      5.045
  Name = 
  9 active torsions:
  status: ('A' for Active; 'I' for Inactive)
    1  A    between atoms: C_3  and  O_32
    2  A    between atoms: C_5  and  C_23
    3  A    between atoms: C_6  and  C_31
    4  A    between atoms: C_6  and  C_35
    5  A    between atoms: C_9  and  C_13
    6  A    between atoms: C_9  and  C_16
    7  A    between atoms: C_11  and  C_26
    8  A    between atoms: C_20  and  C_21
    9  A    between atoms: C_21  and  O_32
                            x       y       z     vdW  Elec       q    Type
                         _______ _______ _______ _____ _____    ______ ____

>  <TORSDO>
F 9

$$$$
=
 OpenBabel11052420073D

 37 41  0  0  1  0  0  0  0  0999 V2000
  189.4070  175.8780  146.1510 S   0  0  0  0  0  0  0  0  0  0  0  0
  191.7600  172.6910  143.6270 C   0  0  2  0  0  3  0  0  0  0  0  0
  187.7130  176.4130  145.8400 C   0  0  2  0  0  3  0  0  0  0  0  0
  189.2130  174.5510  141.2100 C   0  0  0  0  0  2  0  0  0  0  0  0
  190.5580  173.5150  143.1330 C   0  0  2  0  0  3  0  0  0  0  0  0
  192.7150  173.6680  144.2830 C   0  0  1  0  0  3  0  0  0  0  0  0
  190.3910  173.6400  141.5900 C   0  0  1  0  0  3  0  0  0  0  0  0
  187.6390  176.9890  144.5630 O   0  0  0  0  0  0  0  0  0  0  0  0
  191.8570  174.8290  144.7380 C   0  0  2  0  0  3  0  0  0  0  0  0
  191.6810  170.8030  142.4050 C   0  0  0  0  0  2  0  0  0  0  0  0
  188.4080  176.2110  143.6680 C   0  0  2  0  0  0  0  0  0  0  0  0
  187.9680  174.2220  142.0210 C   0  0  0  0  0  2  0  0  0  0  0  0
  192.4050  171.9930  142.5970 O   0  0  0  0  0  0  0  0  0  0  0  0
  190.6550  174.8810  143.8020 C   0  0  2  0  0  3  0  0  0  0  0  0
  190.4410  172.2980  140.7900 C   0  0  1  0  0  3  0  0  0  0  0  0
  187.4240  175.4540  142.7480 C   0  0  0  0  0  2  0  0  0  0  0  0
  189.3050  175.2360  144.4720 C   0  0  1  0  0  3  0  0  0  0  0  0
  190.3620  171.0470  141.6590 C   0  0  0  0  0  2  0  0  0  0  0  0
  189.2660  177.1850  142.8390 C   0  0  0  0  0  2  0  0  0  0  0  0
  188.4290  178.1380  141.9980 C   0  0  0  0  0  1  0  0  0  0  0  0
  185.7730  177.5770  146.8830 C   0  0  0  0  0  1  0  0  0  0  0  0
  187.2830  177.4310  146.8810 C   0  0  0  0  0  2  0  0  0  0  0  0
  192.6260  176.1070  144.6720 C   0  0  0  0  0  0  0  0  0  0  0  0
  193.0030  176.5430  143.5510 O   0  0  0  0  0  0  0  0  0  0  0  0
  192.9150  176.8090  145.8450 O   0  0  0  0  0  0  0  0  0  0  0  0
  194.2060  176.7960  146.4410 C   0  0  0  0  0  2  0  0  0  0  0  0
  194.9460  177.8900  145.9920 O   0  0  0  0  0  1  0  0  0  0  0  0
  189.4720  172.1870  139.6160 C   0  0  0  0  0  2  0  0  0  0  0  0
  189.6890  170.2330  138.1120 C   0  0  0  0  0  2  0  0  0  0  0  0
  191.5680  171.6050  138.5890 O   0  0  0  0  0  0  0  0  0  0  0  0
  193.0220  170.5670  137.1520 O   0  0  0  0  0  1  0  0  0  0  0  0
  190.8890  169.5850  137.5130 C   0  0  0  0  0  2  0  0  0  0  0  0
  192.0320  170.3640  138.1150 C   0  0  2  0  0  3  0  0  0  0  0  0
  190.1750  171.6310  138.3870 C   0  0  2  0  0  3  0  0  0  0  0  0
  193.4000  173.0300  145.4790 C   0  0  0  0  0  2  0  0  0  0  0  0
  194.8750  172.8230  145.1960 C   0  0  0  0  0  2  0  0  0  0  0  0
  195.4150  173.9900  144.6570 O   0  0  0  0  0  1  0  0  0  0  0  0
  2 13  1  6  0  0  0
  2  6  1  0  0  0  0
  3  1  1  0  0  0  0
  3 22  1  1  0  0  0
  4  7  1  0  0  0  0
  4 12  1  0  0  0  0
  5  2  1  0  0  0  0
  5 14  1  0  0  0  0
  6  9  1  0  0  0  0
  6 35  1  0  0  0  0
  7  5  1  0  0  0  0
  8  3  1  0  0  0  0
 10 13  1  0  0  0  0
 11 17  1  0  0  0  0
 11  8  1  0  0  0  0
 12 16  1  0  0  0  0
 14 17  1  0  0  0  0
 14  9  1  0  0  0  0
 15  7  1  0  0  0  0
 15 18  1  0  0  0  0
 16 11  1  0  0  0  0
 17  1  1  0  0  0  0
 18 10  1  0  0  0  0
 19 11  1  0  0  0  0
 20 19  1  0  0  0  0
 22 21  1  0  0  0  0
 23  9  1  0  0  0  0
 23 25  1  0  0  0  0
 24 23  2  0  0  0  0
 25 26  1  0  0  0  0
 27 26  1  0  0  0  0
 28 15  1  0  0  0  0
 29 34  1  0  0  0  0
 31 33  1  0  0  0  0
 32 29  1  0  0  0  0
 32 33  1  0  0  0  0
 33 30  1  0  0  0  0
 34 30  1  0  0  0  0
 34 28  1  0  0  0  0
 36 35  1  0  0  0  0
 37 36  1  0  0  0  0
M  END
>  <MODEL>
6

>  <REMARK>
 VINA RESULT:      -6.3      2.332      7.393
  Name = 
  9 active torsions:
  status: ('A' for Active; 'I' for Inactive)
    1  A    between atoms: C_3  and  O_32
    2  A    between atoms: C_5  and  C_23
    3  A    between atoms: C_6  and  C_31
    4  A    between atoms: C_6  and  C_35
    5  A    between atoms: C_9  and  C_13
    6  A    between atoms: C_9  and  C_16
    7  A    between atoms: C_11  and  C_26
    8  A    between atoms: C_20  and  C_21
    9  A    between atoms: C_21  and  O_32
                            x       y       z     vdW  Elec       q    Type
                         _______ _______ _______ _____ _____    ______ ____

>  <TORSDO>
F 9

$$$$
=
 OpenBabel11052420073D

 37 41  0  0  1  0  0  0  0  0999 V2000
  190.3110  177.5390  146.0630 S   0  0  0  0  0  0  0  0  0  0  0  0
  187.3430  177.2340  142.4360 C   0  0  2  0  0  3  0  0  0  0  0  0
  191.7930  176.5360  146.2880 C   0  0  2  0  0  3  0  0  0  0  0  0
  188.8980  173.6340  143.0710 C   0  0  0  0  0  2  0  0  0  0  0  0
  188.2920  176.1210  142.9130 C   0  0  2  0  0  3  0  0  0  0  0  0
  186.6320  177.7560  143.6680 C   0  0  1  0  0  3  0  0  0  0  0  0
  187.9360  174.6710  142.4700 C   0  0  1  0  0  3  0  0  0  0  0  0
  191.4260  175.1840  146.3680 O   0  0  0  0  0  0  0  0  0  0  0  0
  187.5610  177.4600  144.8270 C   0  0  2  0  0  3  0  0  0  0  0  0
  187.0630  176.8260  140.2410 C   0  0  0  0  0  2  0  0  0  0  0  0
  190.4250  174.9270  145.4030 C   0  0  2  0  0  0  0  0  0  0  0  0
  190.3490  174.0700  142.9280 C   0  0  0  0  0  2  0  0  0  0  0  0
  186.4120  176.7910  141.4860 O   0  0  0  0  0  0  0  0  0  0  0  0
  188.3840  176.2400  144.4290 C   0  0  2  0  0  3  0  0  0  0  0  0
  187.6610  174.4750  140.9440 C   0  0  1  0  0  3  0  0  0  0  0  0
  191.0700  174.0850  144.2780 C   0  0  0  0  0  2  0  0  0  0  0  0
  189.8700  176.2700  144.8650 C   0  0  1  0  0  3  0  0  0  0  0  0
  188.0560  175.6670  140.0770 C   0  0  0  0  0  2  0  0  0  0  0  0
  189.3160  174.1180  146.1000 C   0  0  0  0  0  2  0  0  0  0  0  0
  189.0980  174.5410  147.5460 C   0  0  0  0  0  1  0  0  0  0  0  0
  191.5180  177.1940  148.6750 C   0  0  0  0  0  1  0  0  0  0  0  0
  192.5150  176.9400  147.5610 C   0  0  0  0  0  2  0  0  0  0  0  0
  186.7790  177.1800  146.0680 C   0  0  0  0  0  0  0  0  0  0  0  0
  185.7860  176.4080  146.0110 O   0  0  0  0  0  0  0  0  0  0  0  0
  187.1570  177.7690  147.2780 O   0  0  0  0  0  0  0  0  0  0  0  0
  186.2210  178.4000  148.1420 C   0  0  0  0  0  2  0  0  0  0  0  0
  186.3160  179.7850  148.0110 O   0  0  0  0  0  1  0  0  0  0  0  0
  188.1900  173.1800  140.3340 C   0  0  0  0  0  2  0  0  0  0  0  0
  188.7420  172.7570  137.9580 C   0  0  0  0  0  2  0  0  0  0  0  0
  190.4650  173.0500  139.5650 O   0  0  0  0  0  0  0  0  0  0  0  0
  192.2150  172.9940  138.0850 O   0  0  0  0  0  1  0  0  0  0  0  0
  190.0400  172.4660  137.2900 C   0  0  0  0  0  2  0  0  0  0  0  0
  191.0090  172.3930  138.4450 C   0  0  2  0  0  3  0  0  0  0  0  0
  189.1710  173.4750  139.2100 C   0  0  2  0  0  3  0  0  0  0  0  0
  186.3970  179.2530  143.5620 C   0  0  0  0  0  2  0  0  0  0  0  0
  185.1030  179.6360  144.2530 C   0  0  0  0  0  2  0  0  0  0  0  0
  184.1240  178.6850  143.9690 O   0  0  0  0  0  1  0  0  0  0  0  0
  1  3  1  0  0  0  0
  2 13  1  6  0  0  0
  2  5  1  0  0  0  0
  2  6  1  0  0  0  0
  3  8  1  0  0  0  0
  3 22  1  1  0  0  0
  5 14  1  0  0  0  0
  6  9  1  0  0  0  0
  7  5  1  0  0  0  0
  7  4  1  0  0  0  0
  9 23  1  0  0  0  0
 10 13  1  0  0  0  0
 11 19  1  0  0  0  0
 11  8  1  0  0  0  0
 12  4  1  0  0  0  0
 12 16  1  0  0  0  0
 14  9  1  0  0  0  0
 14 17  1  0  0  0  0
 15  7  1  0  0  0  0
 16 11  1  0  0  0  0
 17 11  1  0  0  0  0
 17  1  1  0  0  0  0
 18 10  1  0  0  0  0
 18 15  1  0  0  0  0
 19 20  1  0  0  0  0
 22 21  1  0  0  0  0
 23 25  1  0  0  0  0
 24 23  2  0  0  0  0
 25 26  1  0  0  0  0
 27 26  1  0  0  0  0
 28 15  1  0  0  0  0
 29 34  1  0  0  0  0
 31 33  1  0  0  0  0
 32 29  1  0  0  0  0
 32 33  1  0  0  0  0
 33 30  1  0  0  0  0
 34 30  1  0  0  0  0
 34 28  1  0  0  0  0
 35  6  1  0  0  0  0
 35 36  1  0  0  0  0
 37 36  1  0  0  0  0
M  END
>  <MODEL>
7

>  <REMARK>
 VINA RESULT:      -6.1      2.981      7.412
  Name = 
  9 active torsions:
  status: ('A' for Active; 'I' for Inactive)
    1  A    between atoms: C_3  and  O_32
    2  A    between atoms: C_5  and  C_23
    3  A    between atoms: C_6  and  C_31
    4  A    between atoms: C_6  and  C_35
    5  A    between atoms: C_9  and  C_13
    6  A    between atoms: C_9  and  C_16
    7  A    between atoms: C_11  and  C_26
    8  A    between atoms: C_20  and  C_21
    9  A    between atoms: C_21  and  O_32
                            x       y       z     vdW  Elec       q    Type
                         _______ _______ _______ _____ _____    ______ ____

>  <TORSDO>
F 9

$$$$
=
 OpenBabel11052420073D

 37 41  0  0  1  0  0  0  0  0999 V2000
  192.3910  176.7240  144.5410 S   0  0  0  0  0  0  0  0  0  0  0  0
  189.0510  174.8820  141.8000 C   0  0  2  0  0  3  0  0  0  0  0  0
  194.1560  176.3740  144.4160 C   0  0  2  0  0  3  0  0  0  0  0  0
  191.9800  172.2200  142.1430 C   0  0  0  0  0  2  0  0  0  0  0  0
  190.4380  174.2670  142.0580 C   0  0  2  0  0  3  0  0  0  0  0  0
  188.4860  175.2610  143.1540 C   0  0  1  0  0  3  0  0  0  0  0  0
  190.5840  172.7440  141.7700 C   0  0  1  0  0  3  0  0  0  0  0  0
  194.3700  175.0040  144.6330 O   0  0  0  0  0  0  0  0  0  0  0  0
  189.6880  175.4800  144.0470 C   0  0  2  0  0  3  0  0  0  0  0  0
  188.4730  174.1190  139.7630 C   0  0  0  0  0  2  0  0  0  0  0  0
  193.3610  174.2750  143.9640 C   0  0  2  0  0  0  0  0  0  0  0  0
  193.0780  173.1360  141.6210 C   0  0  0  0  0  2  0  0  0  0  0  0
  188.1800  174.0090  141.1340 O   0  0  0  0  0  0  0  0  0  0  0  0
  190.8100  174.6080  143.4960 C   0  0  2  0  0  3  0  0  0  0  0  0
  190.0760  172.2650  140.3730 C   0  0  1  0  0  3  0  0  0  0  0  0
  194.0160  173.5900  142.7420 C   0  0  0  0  0  2  0  0  0  0  0  0
  192.2240  175.2370  143.5390 C   0  0  1  0  0  3  0  0  0  0  0  0
  189.7750  173.3940  139.3930 C   0  0  0  0  0  2  0  0  0  0  0  0
  192.8370  173.2130  144.9480 C   0  0  0  0  0  2  0  0  0  0  0  0
  193.9180  172.2370  145.3920 C   0  0  0  0  0  1  0  0  0  0  0  0
  194.2000  177.1590  146.7800 C   0  0  0  0  0  1  0  0  0  0  0  0
  194.9270  177.1760  145.4480 C   0  0  0  0  0  2  0  0  0  0  0  0
  189.3720  175.0960  145.4550 C   0  0  0  0  0  0  0  0  0  0  0  0
  189.4250  173.8830  145.7910 O   0  0  0  0  0  0  0  0  0  0  0  0
  189.0280  176.0800  146.3870 O   0  0  0  0  0  0  0  0  0  0  0  0
  187.6880  176.2900  146.8120 C   0  0  0  0  0  2  0  0  0  0  0  0
  187.2680  177.5670  146.4400 O   0  0  0  0  0  1  0  0  0  0  0  0
  190.9170  171.1870  139.6930 C   0  0  0  0  0  2  0  0  0  0  0  0
  190.1610  170.1370  137.5820 C   0  0  0  0  0  2  0  0  0  0  0  0
  192.1570  171.4220  137.6460 O   0  0  0  0  0  0  0  0  0  0  0  0
  192.5940  171.3380  135.3970 O   0  0  0  0  0  1  0  0  0  0  0  0
  190.8330  169.9980  136.2610 C   0  0  0  0  0  2  0  0  0  0  0  0
  192.1970  170.5940  136.5080 C   0  0  2  0  0  3  0  0  0  0  0  0
  190.8590  171.3310  138.1800 C   0  0  2  0  0  3  0  0  0  0  0  0
  187.6710  176.5400  143.0590 C   0  0  0  0  0  2  0  0  0  0  0  0
  188.5840  177.7390  142.8950 C   0  0  0  0  0  2  0  0  0  0  0  0
  188.4160  178.2820  141.6230 O   0  0  0  0  0  1  0  0  0  0  0  0
  2 13  1  1  0  0  0
  2  5  1  0  0  0  0
  2  6  1  0  0  0  0
  3  1  1  0  0  0  0
  3  8  1  0  0  0  0
  3 22  1  1  0  0  0
  5 14  1  0  0  0  0
  6  9  1  0  0  0  0
  7  5  1  0  0  0  0
  7  4  1  0  0  0  0
  9 23  1  0  0  0  0
 10 13  1  0  0  0  0
 11  8  1  0  0  0  0
 11 19  1  0  0  0  0
 12  4  1  0  0  0  0
 12 16  1  0  0  0  0
 14 17  1  0  0  0  0
 14  9  1  0  0  0  0
 15  7  1  0  0  0  0
 16 11  1  0  0  0  0
 17 11  1  0  0  0  0
 17  1  1  0  0  0  0
 18 10  1  0  0  0  0
 18 15  1  0  0  0  0
 19 20  1  0  0  0  0
 22 21  1  0  0  0  0
 23 24  2  0  0  0  0
 23 25  1  0  0  0  0
 25 26  1  0  0  0  0
 27 26  1  0  0  0  0
 28 15  1  0  0  0  0
 29 34  1  0  0  0  0
 30 34  1  0  0  0  0
 31 33  1  0  0  0  0
 32 33  1  0  0  0  0
 32 29  1  0  0  0  0
 33 30  1  0  0  0  0
 34 28  1  0  0  0  0
 35  6  1  0  0  0  0
 36 35  1  0  0  0  0
 37 36  1  0  0  0  0
M  END
>  <MODEL>
8

>  <REMARK>
 VINA RESULT:      -6.1      2.361      7.189
  Name = 
  9 active torsions:
  status: ('A' for Active; 'I' for Inactive)
    1  A    between atoms: C_3  and  O_32
    2  A    between atoms: C_5  and  C_23
    3  A    between atoms: C_6  and  C_31
    4  A    between atoms: C_6  and  C_35
    5  A    between atoms: C_9  and  C_13
    6  A    between atoms: C_9  and  C_16
    7  A    between atoms: C_11  and  C_26
    8  A    between atoms: C_20  and  C_21
    9  A    between atoms: C_21  and  O_32
                            x       y       z     vdW  Elec       q    Type
                         _______ _______ _______ _____ _____    ______ ____

>  <TORSDO>
F 9

$$$$
=
 OpenBabel11052420073D

 37 41  0  0  1  0  0  0  0  0999 V2000
  194.6740  172.7890  143.5220 S   0  0  0  0  0  0  0  0  0  0  0  0
  190.7780  173.6090  141.0300 C   0  0  2  0  0  3  0  0  0  0  0  0
  194.8120  172.9110  145.3160 C   0  0  2  0  0  3  0  0  0  0  0  0
  190.6950  175.9270  144.2560 C   0  0  0  0  0  2  0  0  0  0  0  0
  191.0740  174.1600  142.4360 C   0  0  2  0  0  3  0  0  0  0  0  0
  192.0140  173.8680  140.1930 C   0  0  1  0  0  3  0  0  0  0  0  0
  190.2600  175.4130  142.8750 C   0  0  1  0  0  3  0  0  0  0  0  0
  194.5240  174.2260  145.7110 O   0  0  0  0  0  0  0  0  0  0  0  0
  193.1610  173.9380  141.1780 C   0  0  2  0  0  3  0  0  0  0  0  0
  188.5310  173.5120  140.9310 C   0  0  0  0  0  2  0  0  0  0  0  0
  193.4220  174.6960  144.9600 C   0  0  2  0  0  0  0  0  0  0  0  0
  190.8210  174.7900  145.2600 C   0  0  0  0  0  2  0  0  0  0  0  0
  189.6530  174.2000  140.4360 O   0  0  0  0  0  0  0  0  0  0  0  0
  192.5750  174.4110  142.5030 C   0  0  2  0  0  3  0  0  0  0  0  0
  188.7110  175.3150  142.6910 C   0  0  1  0  0  3  0  0  0  0  0  0
  192.2060  174.7620  145.9120 C   0  0  0  0  0  2  0  0  0  0  0  0
  193.1650  173.7410  143.7690 C   0  0  1  0  0  3  0  0  0  0  0  0
  188.2030  173.9110  142.3770 C   0  0  0  0  0  2  0  0  0  0  0  0
  193.7800  176.1080  144.4610 C   0  0  0  0  0  2  0  0  0  0  0  0
  194.7450  176.8340  145.3870 C   0  0  0  0  0  1  0  0  0  0  0  0
  197.0670  173.7910  145.9040 C   0  0  0  0  0  1  0  0  0  0  0  0
  196.2150  172.5440  145.7630 C   0  0  0  0  0  2  0  0  0  0  0  0
  194.2070  174.8910  140.6990 C   0  0  0  0  0  0  0  0  0  0  0  0
  194.1650  176.0930  141.0760 O   0  0  0  0  0  0  0  0  0  0  0  0
  195.2200  174.4450  139.8460 O   0  0  0  0  0  0  0  0  0  0  0  0
  196.3630  175.2350  139.5450 C   0  0  0  0  0  2  0  0  0  0  0  0
  197.3640  174.9960  140.4870 O   0  0  0  0  0  1  0  0  0  0  0  0
  187.8690  175.9450  143.7980 C   0  0  0  0  0  2  0  0  0  0  0  0
  187.1860  178.2860  144.2210 C   0  0  0  0  0  2  0  0  0  0  0  0
  185.7210  176.7810  143.1150 O   0  0  0  0  0  0  0  0  0  0  0  0
  184.0810  178.3130  142.6410 O   0  0  0  0  0  1  0  0  0  0  0  0
  185.8740  178.9700  144.0530 C   0  0  0  0  0  2  0  0  0  0  0  0
  184.9590  177.8510  143.6220 C   0  0  2  0  0  3  0  0  0  0  0  0
  187.0760  177.1280  143.2650 C   0  0  2  0  0  3  0  0  0  0  0  0
  192.2450  172.7350  139.2080 C   0  0  0  0  0  2  0  0  0  0  0  0
  191.7270  171.4270  139.7740 C   0  0  0  0  0  2  0  0  0  0  0  0
  192.7990  170.5710  140.0250 O   0  0  0  0  0  1  0  0  0  0  0  0
  1 17  1  0  0  0  0
  1  3  1  0  0  0  0
  2 13  1  6  0  0  0
  2  5  1  0  0  0  0
  3  8  1  0  0  0  0
  3 22  1  6  0  0  0
  4 12  1  0  0  0  0
  5 14  1  0  0  0  0
  5  7  1  0  0  0  0
  6  2  1  0  0  0  0
  6  9  1  0  0  0  0
  7  4  1  0  0  0  0
  9 14  1  0  0  0  0
 10 18  1  0  0  0  0
 11  8  1  0  0  0  0
 11 16  1  0  0  0  0
 12 16  1  0  0  0  0
 13 10  1  0  0  0  0
 14 17  1  0  0  0  0
 15  7  1  0  0  0  0
 15 28  1  0  0  0  0
 17 11  1  0  0  0  0
 18 15  1  0  0  0  0
 19 11  1  0  0  0  0
 19 20  1  0  0  0  0
 22 21  1  0  0  0  0
 23 24  2  0  0  0  0
 23  9  1  0  0  0  0
 25 23  1  0  0  0  0
 26 25  1  0  0  0  0
 26 27  1  0  0  0  0
 30 34  1  0  0  0  0
 30 33  1  0  0  0  0
 31 33  1  0  0  0  0
 32 29  1  0  0  0  0
 33 32  1  0  0  0  0
 34 28  1  0  0  0  0
 34 29  1  0  0  0  0
 35 36  1  0  0  0  0
 35  6  1  0  0  0  0
 36 37  1  0  0  0  0
M  END
>  <MODEL>
9

>  <REMARK>
 VINA RESULT:      -6.1      1.550      1.821
  Name = 
  9 active torsions:
  status: ('A' for Active; 'I' for Inactive)
    1  A    between atoms: C_3  and  O_32
    2  A    between atoms: C_5  and  C_23
    3  A    between atoms: C_6  and  C_31
    4  A    between atoms: C_6  and  C_35
    5  A    between atoms: C_9  and  C_13
    6  A    between atoms: C_9  and  C_16
    7  A    between atoms: C_11  and  C_26
    8  A    between atoms: C_20  and  C_21
    9  A    between atoms: C_21  and  O_32
                            x       y       z     vdW  Elec       q    Type
                         _______ _______ _______ _____ _____    ______ ____

>  <TORSDO>
F 9

$$$$
