=
 OpenBabel11052418043D

 28 31  0  0  1  0  0  0  0  0999 V2000
  189.1310  175.7970  145.0470 C   0  0  1  0  0  3  0  0  0  0  0  0
  191.9510  176.8300  142.9440 C   0  0  0  0  0  2  0  0  0  0  0  0
  190.4100  176.2780  144.4240 C   0  0  0  0  0  0  0  0  0  0  0  0
  192.4500  176.9870  144.3430 C   0  0  0  0  0  3  0  0  0  0  0  0
  190.5950  176.3510  143.1490 N   0  0  0  0  0  0  0  0  0  0  0  0
  191.5380  176.6600  145.1920 N   0  0  0  0  0  0  0  0  0  0  0  0
  189.3740  174.7460  146.0910 C   0  0  0  0  0  0  0  0  0  0  0  0
  189.7700  173.4170  145.7270 N   0  0  0  0  0  2  0  0  0  0  0  0
  189.1310  174.9960  147.3020 O   0  0  0  0  0  0  0  0  0  0  0  0
  190.2370  173.0030  144.4370 C   0  0  0  0  0  0  0  0  0  0  0  0
  191.6720  172.3150  142.8040 N   0  0  0  0  0  0  0  0  0  0  0  0
  189.1390  172.2720  143.2390 S   0  0  0  0  0  0  0  0  0  0  0  0
  192.6570  173.2100  144.9800 C   0  0  0  0  0  1  0  0  0  0  0  0
  191.5030  172.9050  144.0830 C   0  0  0  0  0  0  0  0  0  0  0  0
  192.9720  172.1360  142.1810 C   0  0  0  0  0  1  0  0  0  0  0  0
  190.5010  171.8990  142.1500 N   0  0  0  0  0  2  0  0  0  0  0  0
  188.3060  176.9510  145.6250 C   0  0  0  0  0  2  0  0  0  0  0  0
  186.6920  176.7430  143.0630 C   0  0  0  0  0  3  0  0  0  0  0  0
  184.9940  177.9660  144.2920 C   0  0  0  0  0  0  0  0  0  0  0  0
  186.7950  176.6930  145.5800 C   0  0  2  0  0  3  0  0  0  0  0  0
  184.9740  177.9600  141.8700 C   0  0  0  0  0  0  0  0  0  0  0  0
  186.1630  177.1730  144.2880 C   0  0  0  0  0  0  0  0  0  0  0  0
  184.6180  177.3890  146.6760 C   0  0  0  0  0  2  0  0  0  0  0  0
  184.4200  178.3710  143.0840 C   0  0  0  0  0  3  0  0  0  0  0  0
  184.3670  178.4120  145.5770 C   0  0  0  0  0  2  0  0  0  0  0  0
  184.3590  178.3920  140.5880 C   0  0  0  0  0  1  0  0  0  0  0  0
  186.1020  177.1370  141.8590 C   0  0  0  0  0  3  0  0  0  0  0  0
  186.1180  177.2140  146.8560 C   0  0  0  0  0  2  0  0  0  0  0  0
  1 17  1  1  0  0  0
  1  7  1  0  0  0  0
  2  5  1  0  0  0  0
  2  4  1  0  0  0  0
  3  1  1  0  0  0  0
  3  6  1  0  0  0  0
  4  6  2  0  0  0  0
  5  3  2  0  0  0  0
  7  9  2  0  0  0  0
  8  7  1  0  0  0  0
 10  8  1  0  0  0  0
 11 14  1  0  0  0  0
 12 10  1  0  0  0  0
 14 10  2  0  0  0  0
 14 13  1  0  0  0  0
 15 11  1  0  0  0  0
 16 11  1  0  0  0  0
 16 12  1  0  0  0  0
 18 22  1  0  0  0  0
 19 25  1  0  0  0  0
 20 17  1  6  0  0  0
 20 28  1  0  0  0  0
 21 24  2  0  0  0  0
 22 19  2  0  0  0  0
 22 20  1  0  0  0  0
 23 28  1  0  0  0  0
 24 19  1  0  0  0  0
 25 23  1  0  0  0  0
 26 21  1  0  0  0  0
 27 21  1  0  0  0  0
 27 18  2  0  0  0  0
M  END
>  <MODEL>
1

>  <REMARK>
 VINA RESULT:      -7.5      0.000      0.000
  Name = 
  5 active torsions:
  status: ('A' for Active; 'I' for Inactive)
    1  A    between atoms: C_1  and  C_27
    2  A    between atoms: N_2  and  C_3
    3  A    between atoms: C_10  and  C_17
    4  A    between atoms: C_16  and  C_27
    5  A    between atoms: C_17  and  C_27
                            x       y       z     vdW  Elec       q    Type
                         _______ _______ _______ _____ _____    ______ ____

>  <TORSDO>
F 5

$$$$
=
 OpenBabel11052418043D

 28 31  0  0  1  0  0  0  0  0999 V2000
  190.5620  176.7680  144.8530 C   0  0  1  0  0  3  0  0  0  0  0  0
  189.6990  173.2240  145.2230 C   0  0  0  0  0  2  0  0  0  0  0  0
  190.1400  175.3320  144.7390 C   0  0  0  0  0  0  0  0  0  0  0  0
  189.4740  173.5150  143.7750 C   0  0  0  0  0  3  0  0  0  0  0  0
  190.1410  174.5110  145.7340 N   0  0  0  0  0  0  0  0  0  0  0  0
  189.7370  174.7490  143.5120 N   0  0  0  0  0  0  0  0  0  0  0  0
  191.3940  177.2050  143.6820 C   0  0  0  0  0  0  0  0  0  0  0  0
  192.8100  176.9880  143.6560 N   0  0  0  0  0  2  0  0  0  0  0  0
  190.8640  177.8630  142.7460 O   0  0  0  0  0  0  0  0  0  0  0  0
  193.5460  176.1340  144.5400 C   0  0  0  0  0  0  0  0  0  0  0  0
  194.6740  174.3020  145.2930 N   0  0  0  0  0  0  0  0  0  0  0  0
  194.4940  176.7940  145.8970 S   0  0  0  0  0  0  0  0  0  0  0  0
  193.3250  174.0890  143.1390 C   0  0  0  0  0  1  0  0  0  0  0  0
  193.7850  174.8550  144.3370 C   0  0  0  0  0  0  0  0  0  0  0  0
  195.0590  172.9010  145.3000 C   0  0  0  0  0  1  0  0  0  0  0  0
  195.1830  175.1880  146.2570 N   0  0  0  0  0  2  0  0  0  0  0  0
  189.3640  177.7030  145.0430 C   0  0  0  0  0  2  0  0  0  0  0  0
  187.1700  177.1880  143.0080 C   0  0  0  0  0  3  0  0  0  0  0  0
  185.6570  177.6580  144.8470 C   0  0  0  0  0  0  0  0  0  0  0  0
  188.0600  176.9570  145.3540 C   0  0  2  0  0  3  0  0  0  0  0  0
  184.8890  177.8570  142.5580 C   0  0  0  0  0  0  0  0  0  0  0  0
  186.9460  177.3070  144.3870 C   0  0  0  0  0  0  0  0  0  0  0  0
  186.2280  176.7830  147.0980 C   0  0  0  0  0  2  0  0  0  0  0  0
  184.6440  177.9500  143.9300 C   0  0  0  0  0  3  0  0  0  0  0  0
  185.3580  177.7540  146.3110 C   0  0  0  0  0  2  0  0  0  0  0  0
  183.8080  178.1660  141.5870 C   0  0  0  0  0  1  0  0  0  0  0  0
  186.1470  177.4650  142.0980 C   0  0  0  0  0  3  0  0  0  0  0  0
  187.6910  177.1070  146.8380 C   0  0  0  0  0  2  0  0  0  0  0  0
  1 17  1  6  0  0  0
  2  5  1  0  0  0  0
  3  1  1  0  0  0  0
  3  5  2  0  0  0  0
  4  2  1  0  0  0  0
  6  4  2  0  0  0  0
  6  3  1  0  0  0  0
  7  1  1  0  0  0  0
  8  7  1  0  0  0  0
  8 10  1  0  0  0  0
  9  7  2  0  0  0  0
 10 12  1  0  0  0  0
 11 15  1  0  0  0  0
 11 16  1  0  0  0  0
 12 16  1  0  0  0  0
 13 14  1  0  0  0  0
 14 10  2  0  0  0  0
 14 11  1  0  0  0  0
 18 22  1  0  0  0  0
 19 25  1  0  0  0  0
 20 17  1  6  0  0  0
 20 28  1  0  0  0  0
 21 24  2  0  0  0  0
 22 19  2  0  0  0  0
 22 20  1  0  0  0  0
 24 19  1  0  0  0  0
 25 23  1  0  0  0  0
 26 21  1  0  0  0  0
 27 21  1  0  0  0  0
 27 18  2  0  0  0  0
 28 23  1  0  0  0  0
M  END
>  <MODEL>
2

>  <REMARK>
 VINA RESULT:      -7.4      2.390      3.449
  Name = 
  5 active torsions:
  status: ('A' for Active; 'I' for Inactive)
    1  A    between atoms: C_1  and  C_27
    2  A    between atoms: N_2  and  C_3
    3  A    between atoms: C_10  and  C_17
    4  A    between atoms: C_16  and  C_27
    5  A    between atoms: C_17  and  C_27
                            x       y       z     vdW  Elec       q    Type
                         _______ _______ _______ _____ _____    ______ ____

>  <TORSDO>
F 5

$$$$
=
 OpenBabel11052418043D

 28 31  0  0  1  0  0  0  0  0999 V2000
  187.7750  176.7120  142.9020 C   0  0  1  0  0  3  0  0  0  0  0  0
  184.4320  178.0730  143.5470 C   0  0  0  0  0  2  0  0  0  0  0  0
  186.5400  177.5020  143.2250 C   0  0  0  0  0  0  0  0  0  0  0  0
  185.3520  179.2350  143.7340 C   0  0  0  0  0  3  0  0  0  0  0  0
  185.3510  177.0000  143.2100 N   0  0  0  0  0  0  0  0  0  0  0  0
  186.5770  178.8830  143.5420 N   0  0  0  0  0  0  0  0  0  0  0  0
  187.9170  176.4690  141.4270 C   0  0  0  0  0  0  0  0  0  0  0  0
  188.5870  175.3040  140.9290 N   0  0  0  0  0  2  0  0  0  0  0  0
  187.5350  177.3460  140.6070 O   0  0  0  0  0  0  0  0  0  0  0  0
  188.9390  174.1450  141.6940 C   0  0  0  0  0  0  0  0  0  0  0  0
  190.1310  172.7780  143.0750 N   0  0  0  0  0  0  0  0  0  0  0  0
  187.7050  172.9880  142.2540 S   0  0  0  0  0  0  0  0  0  0  0  0
  191.2790  174.8600  142.1510 C   0  0  0  0  0  1  0  0  0  0  0  0
  190.1180  173.9250  142.2410 C   0  0  0  0  0  0  0  0  0  0  0  0
  191.3260  172.3100  143.7580 C   0  0  0  0  0  1  0  0  0  0  0  0
  188.9110  172.0980  143.2210 N   0  0  0  0  0  2  0  0  0  0  0  0
  189.0390  177.3680  143.4660 C   0  0  0  0  0  2  0  0  0  0  0  0
  191.7800  177.2850  144.7690 C   0  0  0  0  0  3  0  0  0  0  0  0
  190.9080  175.3650  145.9700 C   0  0  0  0  0  0  0  0  0  0  0  0
  189.2770  177.0430  144.9460 C   0  0  2  0  0  3  0  0  0  0  0  0
  193.3000  175.6770  145.7480 C   0  0  0  0  0  0  0  0  0  0  0  0
  190.6810  176.5320  145.2080 C   0  0  0  0  0  0  0  0  0  0  0  0
  188.5630  175.4430  146.7780 C   0  0  0  0  0  2  0  0  0  0  0  0
  192.2140  174.9340  146.2170 C   0  0  0  0  0  3  0  0  0  0  0  0
  189.7660  174.5530  146.4990 C   0  0  0  0  0  2  0  0  0  0  0  0
  194.6870  175.2160  146.0150 C   0  0  0  0  0  1  0  0  0  0  0  0
  193.0830  176.8580  145.0350 C   0  0  0  0  0  3  0  0  0  0  0  0
  188.1570  176.1440  145.4910 C   0  0  0  0  0  2  0  0  0  0  0  0
  1  3  1  0  0  0  0
  1 17  1  6  0  0  0
  2  4  1  0  0  0  0
  3  6  1  0  0  0  0
  5  3  2  0  0  0  0
  5  2  1  0  0  0  0
  6  4  2  0  0  0  0
  7  1  1  0  0  0  0
  8  7  1  0  0  0  0
  8 10  1  0  0  0  0
  9  7  2  0  0  0  0
 10 14  2  0  0  0  0
 10 12  1  0  0  0  0
 11 16  1  0  0  0  0
 11 15  1  0  0  0  0
 12 16  1  0  0  0  0
 13 14  1  0  0  0  0
 14 11  1  0  0  0  0
 18 27  2  0  0  0  0
 18 22  1  0  0  0  0
 19 24  1  0  0  0  0
 19 25  1  0  0  0  0
 20 17  1  6  0  0  0
 20 22  1  0  0  0  0
 20 28  1  0  0  0  0
 21 26  1  0  0  0  0
 21 24  2  0  0  0  0
 22 19  2  0  0  0  0
 25 23  1  0  0  0  0
 27 21  1  0  0  0  0
 28 23  1  0  0  0  0
M  END
>  <MODEL>
3

>  <REMARK>
 VINA RESULT:      -7.3      2.562      5.694
  Name = 
  5 active torsions:
  status: ('A' for Active; 'I' for Inactive)
    1  A    between atoms: C_1  and  C_27
    2  A    between atoms: N_2  and  C_3
    3  A    between atoms: C_10  and  C_17
    4  A    between atoms: C_16  and  C_27
    5  A    between atoms: C_17  and  C_27
                            x       y       z     vdW  Elec       q    Type
                         _______ _______ _______ _____ _____    ______ ____

>  <TORSDO>
F 5

$$$$
=
 OpenBabel11052418043D

 28 31  0  0  1  0  0  0  0  0999 V2000
  191.0560  175.1540  144.8680 C   0  0  1  0  0  3  0  0  0  0  0  0
  194.4200  174.1270  143.8360 C   0  0  0  0  0  2  0  0  0  0  0  0
  192.4630  174.6580  144.7080 C   0  0  0  0  0  0  0  0  0  0  0  0
  194.3280  173.7200  145.2700 C   0  0  0  0  0  3  0  0  0  0  0  0
  193.1190  174.7280  143.5990 N   0  0  0  0  0  0  0  0  0  0  0  0
  193.1800  174.0370  145.7620 N   0  0  0  0  0  0  0  0  0  0  0  0
  190.2050  174.1900  145.6440 C   0  0  0  0  0  0  0  0  0  0  0  0
  189.7190  172.9820  145.0450 N   0  0  0  0  0  2  0  0  0  0  0  0
  189.8220  174.4860  146.8080 O   0  0  0  0  0  0  0  0  0  0  0  0
  190.1720  172.4150  143.8100 C   0  0  0  0  0  0  0  0  0  0  0  0
  190.4810  172.1500  141.5670 N   0  0  0  0  0  0  0  0  0  0  0  0
  191.6150  171.3710  143.7380 S   0  0  0  0  0  0  0  0  0  0  0  0
  188.7060  173.8030  142.3550 C   0  0  0  0  0  1  0  0  0  0  0  0
  189.7410  172.7580  142.6130 C   0  0  0  0  0  0  0  0  0  0  0  0
  190.1700  172.3440  140.1610 C   0  0  0  0  0  1  0  0  0  0  0  0
  191.5560  171.3340  141.9550 N   0  0  0  0  0  2  0  0  0  0  0  0
  191.0080  176.5470  145.5030 C   0  0  0  0  0  2  0  0  0  0  0  0
  188.3400  177.5890  146.5100 C   0  0  0  0  0  3  0  0  0  0  0  0
  187.6280  177.3610  144.2010 C   0  0  0  0  0  0  0  0  0  0  0  0
  190.1210  177.5310  144.7290 C   0  0  2  0  0  3  0  0  0  0  0  0
  185.9850  177.4230  145.9800 C   0  0  0  0  0  0  0  0  0  0  0  0
  188.6670  177.4590  145.1530 C   0  0  0  0  0  0  0  0  0  0  0  0
  189.2180  178.0020  142.4070 C   0  0  0  0  0  2  0  0  0  0  0  0
  186.2960  177.3230  144.6230 C   0  0  0  0  0  3  0  0  0  0  0  0
  187.9270  177.2650  142.7370 C   0  0  0  0  0  2  0  0  0  0  0  0
  184.5670  177.3840  146.4230 C   0  0  0  0  0  1  0  0  0  0  0  0
  187.0050  177.5680  146.9220 C   0  0  0  0  0  3  0  0  0  0  0  0
  190.3540  177.3960  143.2160 C   0  0  0  0  0  2  0  0  0  0  0  0
  1 17  1  1  0  0  0
  1  7  1  0  0  0  0
  2  4  1  0  0  0  0
  3  1  1  0  0  0  0
  3  6  1  0  0  0  0
  4  6  2  0  0  0  0
  5  2  1  0  0  0  0
  5  3  2  0  0  0  0
  7  9  2  0  0  0  0
  8  7  1  0  0  0  0
 10  8  1  0  0  0  0
 11 16  1  0  0  0  0
 11 14  1  0  0  0  0
 12 10  1  0  0  0  0
 13 14  1  0  0  0  0
 14 10  2  0  0  0  0
 15 11  1  0  0  0  0
 16 12  1  0  0  0  0
 18 27  1  0  0  0  0
 19 24  2  0  0  0  0
 19 22  1  0  0  0  0
 20 22  1  0  0  0  0
 20 17  1  1  0  0  0
 21 26  1  0  0  0  0
 21 27  2  0  0  0  0
 22 18  2  0  0  0  0
 23 25  1  0  0  0  0
 23 28  1  0  0  0  0
 24 21  1  0  0  0  0
 25 19  1  0  0  0  0
 28 20  1  0  0  0  0
M  END
>  <MODEL>
4

>  <REMARK>
 VINA RESULT:      -7.3      1.923      3.507
  Name = 
  5 active torsions:
  status: ('A' for Active; 'I' for Inactive)
    1  A    between atoms: C_1  and  C_27
    2  A    between atoms: N_2  and  C_3
    3  A    between atoms: C_10  and  C_17
    4  A    between atoms: C_16  and  C_27
    5  A    between atoms: C_17  and  C_27
                            x       y       z     vdW  Elec       q    Type
                         _______ _______ _______ _____ _____    ______ ____

>  <TORSDO>
F 5

$$$$
=
 OpenBabel11052418043D

 28 31  0  0  1  0  0  0  0  0999 V2000
  191.2880  175.5570  144.2410 C   0  0  1  0  0  3  0  0  0  0  0  0
  194.6810  174.2290  143.8400 C   0  0  0  0  0  2  0  0  0  0  0  0
  192.7010  175.2030  143.8790 C   0  0  0  0  0  0  0  0  0  0  0  0
  194.6120  175.3730  142.8820 C   0  0  0  0  0  3  0  0  0  0  0  0
  193.3540  174.2370  144.4310 N   0  0  0  0  0  0  0  0  0  0  0  0
  193.4500  175.9290  142.9190 N   0  0  0  0  0  0  0  0  0  0  0  0
  190.6570  174.5190  145.1230 C   0  0  0  0  0  0  0  0  0  0  0  0
  189.8730  173.4540  144.5720 N   0  0  0  0  0  2  0  0  0  0  0  0
  190.7260  174.6350  146.3760 O   0  0  0  0  0  0  0  0  0  0  0  0
  189.8170  173.0800  143.1890 C   0  0  0  0  0  0  0  0  0  0  0  0
  190.1660  171.8740  141.2870 N   0  0  0  0  0  0  0  0  0  0  0  0
  188.5120  173.6560  142.1210 S   0  0  0  0  0  0  0  0  0  0  0  0
  191.5540  171.3040  143.3490 C   0  0  0  0  0  1  0  0  0  0  0  0
  190.5470  172.1380  142.6260 C   0  0  0  0  0  0  0  0  0  0  0  0
  190.8480  170.9050  140.4460 C   0  0  0  0  0  1  0  0  0  0  0  0
  189.0720  172.6030  140.7940 N   0  0  0  0  0  2  0  0  0  0  0  0
  191.1910  176.9440  144.8840 C   0  0  0  0  0  2  0  0  0  0  0  0
  188.5520  177.5870  146.2400 C   0  0  0  0  0  3  0  0  0  0  0  0
  187.6010  177.3310  144.0220 C   0  0  0  0  0  0  0  0  0  0  0  0
  190.0970  177.8210  144.2620 C   0  0  2  0  0  3  0  0  0  0  0  0
  186.1920  177.1200  145.9810 C   0  0  0  0  0  0  0  0  0  0  0  0
  188.7260  177.5410  144.8490 C   0  0  0  0  0  0  0  0  0  0  0  0
  188.8650  178.2310  142.0850 C   0  0  0  0  0  2  0  0  0  0  0  0
  186.3470  177.1020  144.5930 C   0  0  0  0  0  3  0  0  0  0  0  0
  187.7310  177.3180  142.5290 C   0  0  0  0  0  2  0  0  0  0  0  0
  184.8560  176.8780  146.5830 C   0  0  0  0  0  1  0  0  0  0  0  0
  187.2920  177.3750  146.8030 C   0  0  0  0  0  3  0  0  0  0  0  0
  190.1600  177.7610  142.7290 C   0  0  0  0  0  2  0  0  0  0  0  0
  1 17  1  1  0  0  0
  1  7  1  0  0  0  0
  2  5  1  0  0  0  0
  3  1  1  0  0  0  0
  3  5  2  0  0  0  0
  4  6  2  0  0  0  0
  4  2  1  0  0  0  0
  6  3  1  0  0  0  0
  7  9  2  0  0  0  0
  8  7  1  0  0  0  0
 10  8  1  0  0  0  0
 11 14  1  0  0  0  0
 12 10  1  0  0  0  0
 14 10  2  0  0  0  0
 14 13  1  0  0  0  0
 15 11  1  0  0  0  0
 16 11  1  0  0  0  0
 16 12  1  0  0  0  0
 18 27  1  0  0  0  0
 19 24  2  0  0  0  0
 19 22  1  0  0  0  0
 20 22  1  0  0  0  0
 20 17  1  1  0  0  0
 21 26  1  0  0  0  0
 21 27  2  0  0  0  0
 22 18  2  0  0  0  0
 23 25  1  0  0  0  0
 23 28  1  0  0  0  0
 24 21  1  0  0  0  0
 25 19  1  0  0  0  0
 28 20  1  0  0  0  0
M  END
>  <MODEL>
5

>  <REMARK>
 VINA RESULT:      -7.2      1.936      3.482
  Name = 
  5 active torsions:
  status: ('A' for Active; 'I' for Inactive)
    1  A    between atoms: C_1  and  C_27
    2  A    between atoms: N_2  and  C_3
    3  A    between atoms: C_10  and  C_17
    4  A    between atoms: C_16  and  C_27
    5  A    between atoms: C_17  and  C_27
                            x       y       z     vdW  Elec       q    Type
                         _______ _______ _______ _____ _____    ______ ____

>  <TORSDO>
F 5

$$$$
=
 OpenBabel11052418043D

 28 31  0  0  1  0  0  0  0  0999 V2000
  190.7080  174.8380  144.3730 C   0  0  1  0  0  3  0  0  0  0  0  0
  191.1900  175.6450  147.9160 C   0  0  0  0  0  2  0  0  0  0  0  0
  191.1230  175.3120  145.7350 C   0  0  0  0  0  0  0  0  0  0  0  0
  192.2560  176.4160  147.2090 C   0  0  0  0  0  3  0  0  0  0  0  0
  190.5170  174.9680  146.8210 N   0  0  0  0  0  0  0  0  0  0  0  0
  192.2020  176.2090  145.9380 N   0  0  0  0  0  0  0  0  0  0  0  0
  191.0140  173.3830  144.1660 C   0  0  0  0  0  0  0  0  0  0  0  0
  192.2220  172.9630  143.5200 N   0  0  0  0  0  2  0  0  0  0  0  0
  190.1550  172.5120  144.4720 O   0  0  0  0  0  0  0  0  0  0  0  0
  193.3630  173.7870  143.2530 C   0  0  0  0  0  0  0  0  0  0  0  0
  195.4480  174.6840  143.4680 N   0  0  0  0  0  0  0  0  0  0  0  0
  193.6580  174.4740  141.6350 S   0  0  0  0  0  0  0  0  0  0  0  0
  194.5350  173.2730  145.3870 C   0  0  0  0  0  1  0  0  0  0  0  0
  194.3940  173.9420  144.0590 C   0  0  0  0  0  0  0  0  0  0  0  0
  196.6730  175.0180  144.1740 C   0  0  0  0  0  1  0  0  0  0  0  0
  195.2550  175.0900  142.1380 N   0  0  0  0  0  2  0  0  0  0  0  0
  189.2300  175.1250  144.0920 C   0  0  0  0  0  2  0  0  0  0  0  0
  187.4450  176.7880  145.9000 C   0  0  0  0  0  3  0  0  0  0  0  0
  186.6780  177.8090  143.8360 C   0  0  0  0  0  0  0  0  0  0  0  0
  188.9360  176.6150  143.8760 C   0  0  2  0  0  3  0  0  0  0  0  0
  185.3100  177.9240  145.8320 C   0  0  0  0  0  0  0  0  0  0  0  0
  187.6440  177.0530  144.5370 C   0  0  0  0  0  0  0  0  0  0  0  0
  188.3500  178.2900  142.0650 C   0  0  0  0  0  2  0  0  0  0  0  0
  185.5100  178.2200  144.4820 C   0  0  0  0  0  3  0  0  0  0  0  0
  186.8690  178.1560  142.3910 C   0  0  0  0  0  2  0  0  0  0  0  0
  184.0670  178.3650  146.5140 C   0  0  0  0  0  1  0  0  0  0  0  0
  186.2820  177.2180  146.5430 C   0  0  0  0  0  3  0  0  0  0  0  0
  189.0480  176.9780  142.3870 C   0  0  0  0  0  2  0  0  0  0  0  0
  1 17  1  1  0  0  0
  1  3  1  0  0  0  0
  3  6  1  0  0  0  0
  3  5  2  0  0  0  0
  4  2  1  0  0  0  0
  5  2  1  0  0  0  0
  6  4  2  0  0  0  0
  7  1  1  0  0  0  0
  7  9  2  0  0  0  0
  8  7  1  0  0  0  0
 10  8  1  0  0  0  0
 10 14  2  0  0  0  0
 11 14  1  0  0  0  0
 11 15  1  0  0  0  0
 12 16  1  0  0  0  0
 12 10  1  0  0  0  0
 14 13  1  0  0  0  0
 16 11  1  0  0  0  0
 18 27  1  0  0  0  0
 19 24  2  0  0  0  0
 19 22  1  0  0  0  0
 20 17  1  6  0  0  0
 20 22  1  0  0  0  0
 21 26  1  0  0  0  0
 21 27  2  0  0  0  0
 22 18  2  0  0  0  0
 23 28  1  0  0  0  0
 23 25  1  0  0  0  0
 24 21  1  0  0  0  0
 25 19  1  0  0  0  0
 28 20  1  0  0  0  0
M  END
>  <MODEL>
6

>  <REMARK>
 VINA RESULT:      -7.2      2.449      3.829
  Name = 
  5 active torsions:
  status: ('A' for Active; 'I' for Inactive)
    1  A    between atoms: C_1  and  C_27
    2  A    between atoms: N_2  and  C_3
    3  A    between atoms: C_10  and  C_17
    4  A    between atoms: C_16  and  C_27
    5  A    between atoms: C_17  and  C_27
                            x       y       z     vdW  Elec       q    Type
                         _______ _______ _______ _____ _____    ______ ____

>  <TORSDO>
F 5

$$$$
=
 OpenBabel11052418043D

 28 31  0  0  1  0  0  0  0  0999 V2000
  190.7080  174.5890  143.5060 C   0  0  1  0  0  3  0  0  0  0  0  0
  193.7130  176.3980  144.5730 C   0  0  0  0  0  2  0  0  0  0  0  0
  191.7990  175.3720  144.1770 C   0  0  0  0  0  0  0  0  0  0  0  0
  192.8160  176.4270  145.7660 C   0  0  0  0  0  3  0  0  0  0  0  0
  192.9170  175.6670  143.6020 N   0  0  0  0  0  0  0  0  0  0  0  0
  191.7050  175.8230  145.5170 N   0  0  0  0  0  0  0  0  0  0  0  0
  190.9550  173.1100  143.5710 C   0  0  0  0  0  0  0  0  0  0  0  0
  190.7140  172.2670  142.4380 N   0  0  0  0  0  2  0  0  0  0  0  0
  191.2830  172.5760  144.6650 O   0  0  0  0  0  0  0  0  0  0  0  0
  190.4950  172.7090  141.0920 C   0  0  0  0  0  0  0  0  0  0  0  0
  189.4130  173.5420  139.2670 N   0  0  0  0  0  0  0  0  0  0  0  0
  191.8410  173.2620  140.0630 S   0  0  0  0  0  0  0  0  0  0  0  0
  188.0170  172.8340  141.2810 C   0  0  0  0  0  1  0  0  0  0  0  0
  189.3180  172.9650  140.5590 C   0  0  0  0  0  0  0  0  0  0  0  0
  188.2510  173.8760  138.4620 C   0  0  0  0  0  1  0  0  0  0  0  0
  190.7100  173.7860  138.7870 N   0  0  0  0  0  2  0  0  0  0  0  0
  189.3270  174.9310  144.0740 C   0  0  0  0  0  2  0  0  0  0  0  0
  187.7760  176.8510  145.8420 C   0  0  0  0  0  3  0  0  0  0  0  0
  186.4600  177.2790  143.8480 C   0  0  0  0  0  0  0  0  0  0  0  0
  188.8070  176.2980  143.6100 C   0  0  2  0  0  3  0  0  0  0  0  0
  185.5490  177.7780  146.0360 C   0  0  0  0  0  0  0  0  0  0  0  0
  187.6420  176.7900  144.4470 C   0  0  0  0  0  0  0  0  0  0  0  0
  187.6370  177.4340  141.6680 C   0  0  0  0  0  2  0  0  0  0  0  0
  185.4150  177.7500  144.6460 C   0  0  0  0  0  3  0  0  0  0  0  0
  186.2900  177.2760  142.3600 C   0  0  0  0  0  2  0  0  0  0  0  0
  184.4360  178.2810  146.8810 C   0  0  0  0  0  1  0  0  0  0  0  0
  186.7330  177.3390  146.6330 C   0  0  0  0  0  3  0  0  0  0  0  0
  188.5490  176.2940  142.0950 C   0  0  0  0  0  2  0  0  0  0  0  0
  1  7  1  0  0  0  0
  1 17  1  1  0  0  0
  1  3  1  0  0  0  0
  2  4  1  0  0  0  0
  3  6  1  0  0  0  0
  5  3  2  0  0  0  0
  5  2  1  0  0  0  0
  6  4  2  0  0  0  0
  7  9  2  0  0  0  0
  8  7  1  0  0  0  0
 10  8  1  0  0  0  0
 11 14  1  0  0  0  0
 12 10  1  0  0  0  0
 14 10  2  0  0  0  0
 14 13  1  0  0  0  0
 15 11  1  0  0  0  0
 16 11  1  0  0  0  0
 16 12  1  0  0  0  0
 18 27  1  0  0  0  0
 19 22  1  0  0  0  0
 19 24  2  0  0  0  0
 20 17  1  1  0  0  0
 20 22  1  0  0  0  0
 21 27  2  0  0  0  0
 21 26  1  0  0  0  0
 22 18  2  0  0  0  0
 23 28  1  0  0  0  0
 23 25  1  0  0  0  0
 24 21  1  0  0  0  0
 25 19  1  0  0  0  0
 28 20  1  0  0  0  0
M  END
>  <MODEL>
7

>  <REMARK>
 VINA RESULT:      -7.0      2.414      3.850
  Name = 
  5 active torsions:
  status: ('A' for Active; 'I' for Inactive)
    1  A    between atoms: C_1  and  C_27
    2  A    between atoms: N_2  and  C_3
    3  A    between atoms: C_10  and  C_17
    4  A    between atoms: C_16  and  C_27
    5  A    between atoms: C_17  and  C_27
                            x       y       z     vdW  Elec       q    Type
                         _______ _______ _______ _____ _____    ______ ____

>  <TORSDO>
F 5

$$$$
=
 OpenBabel11052418043D

 28 31  0  0  1  0  0  0  0  0999 V2000
  191.0500  175.3820  143.5160 C   0  0  1  0  0  3  0  0  0  0  0  0
  193.1170  172.6720  142.1670 C   0  0  0  0  0  2  0  0  0  0  0  0
  191.8790  174.4120  142.7270 C   0  0  0  0  0  0  0  0  0  0  0  0
  192.9600  173.6250  141.0280 C   0  0  0  0  0  3  0  0  0  0  0  0
  192.3570  173.3200  143.2220 N   0  0  0  0  0  0  0  0  0  0  0  0
  192.2350  174.6340  141.3740 N   0  0  0  0  0  0  0  0  0  0  0  0
  191.5570  176.7900  143.3870 C   0  0  0  0  0  0  0  0  0  0  0  0
  192.7450  177.2150  144.0670 N   0  0  0  0  0  2  0  0  0  0  0  0
  190.8810  177.6450  142.7560 O   0  0  0  0  0  0  0  0  0  0  0  0
  193.7100  176.3580  144.6890 C   0  0  0  0  0  0  0  0  0  0  0  0
  195.6530  175.2100  145.0140 N   0  0  0  0  0  0  0  0  0  0  0  0
  193.6920  176.0540  146.4450 S   0  0  0  0  0  0  0  0  0  0  0  0
  195.2100  176.2070  142.7090 C   0  0  0  0  0  1  0  0  0  0  0  0
  194.8030  175.8990  144.1120 C   0  0  0  0  0  0  0  0  0  0  0  0
  196.8970  174.5810  144.6050 C   0  0  0  0  0  1  0  0  0  0  0  0
  195.2330  175.1610  146.3530 N   0  0  0  0  0  2  0  0  0  0  0  0
  189.5670  175.3070  143.1410 C   0  0  0  0  0  2  0  0  0  0  0  0
  186.9000  176.7560  143.2160 C   0  0  0  0  0  3  0  0  0  0  0  0
  187.5300  177.3390  145.4860 C   0  0  0  0  0  0  0  0  0  0  0  0
  188.6350  175.3310  144.3600 C   0  0  2  0  0  3  0  0  0  0  0  0
  185.8720  178.6550  144.3080 C   0  0  0  0  0  0  0  0  0  0  0  0
  187.6950  176.5210  144.3470 C   0  0  0  0  0  0  0  0  0  0  0  0
  188.6520  175.6180  146.8790 C   0  0  0  0  0  2  0  0  0  0  0  0
  186.6360  178.4120  145.4520 C   0  0  0  0  0  3  0  0  0  0  0  0
  188.3240  177.0980  146.7330 C   0  0  0  0  0  2  0  0  0  0  0  0
  184.9210  179.7960  144.2770 C   0  0  0  0  0  1  0  0  0  0  0  0
  185.9950  177.8200  143.1950 C   0  0  0  0  0  3  0  0  0  0  0  0
  189.4380  175.1640  145.6590 C   0  0  0  0  0  2  0  0  0  0  0  0
  1 17  1  6  0  0  0
  2  5  1  0  0  0  0
  3  5  2  0  0  0  0
  3  1  1  0  0  0  0
  4  6  2  0  0  0  0
  4  2  1  0  0  0  0
  6  3  1  0  0  0  0
  7  1  1  0  0  0  0
  7  8  1  0  0  0  0
  8 10  1  0  0  0  0
  9  7  2  0  0  0  0
 10 12  1  0  0  0  0
 11 16  1  0  0  0  0
 13 14  1  0  0  0  0
 14 10  2  0  0  0  0
 14 11  1  0  0  0  0
 15 11  1  0  0  0  0
 16 12  1  0  0  0  0
 18 22  1  0  0  0  0
 19 25  1  0  0  0  0
 20 17  1  6  0  0  0
 20 28  1  0  0  0  0
 21 24  2  0  0  0  0
 22 20  1  0  0  0  0
 22 19  2  0  0  0  0
 24 19  1  0  0  0  0
 25 23  1  0  0  0  0
 26 21  1  0  0  0  0
 27 18  2  0  0  0  0
 27 21  1  0  0  0  0
 28 23  1  0  0  0  0
M  END
>  <MODEL>
8

>  <REMARK>
 VINA RESULT:      -6.9      2.640      4.210
  Name = 
  5 active torsions:
  status: ('A' for Active; 'I' for Inactive)
    1  A    between atoms: C_1  and  C_27
    2  A    between atoms: N_2  and  C_3
    3  A    between atoms: C_10  and  C_17
    4  A    between atoms: C_16  and  C_27
    5  A    between atoms: C_17  and  C_27
                            x       y       z     vdW  Elec       q    Type
                         _______ _______ _______ _____ _____    ______ ____

>  <TORSDO>
F 5

$$$$
=
 OpenBabel11052418043D

 28 31  0  0  1  0  0  0  0  0999 V2000
  192.4370  175.3300  143.7340 C   0  0  1  0  0  3  0  0  0  0  0  0
  195.6850  176.4250  142.4330 C   0  0  0  0  0  2  0  0  0  0  0  0
  193.8130  175.8630  143.4590 C   0  0  0  0  0  0  0  0  0  0  0  0
  195.7490  176.7200  143.8960 C   0  0  0  0  0  3  0  0  0  0  0  0
  194.3550  175.8590  142.2880 N   0  0  0  0  0  0  0  0  0  0  0  0
  194.6490  176.3860  144.4780 N   0  0  0  0  0  0  0  0  0  0  0  0
  192.4670  173.8960  144.1790 C   0  0  0  0  0  0  0  0  0  0  0  0
  191.8110  172.8710  143.4220 N   0  0  0  0  0  2  0  0  0  0  0  0
  192.9890  173.5930  145.2860 O   0  0  0  0  0  0  0  0  0  0  0  0
  191.3130  173.0020  142.0850 C   0  0  0  0  0  0  0  0  0  0  0  0
  189.8760  173.4600  140.3760 N   0  0  0  0  0  0  0  0  0  0  0  0
  192.4130  173.2000  140.6970 S   0  0  0  0  0  0  0  0  0  0  0  0
  188.9390  173.3450  142.7450 C   0  0  0  0  0  1  0  0  0  0  0  0
  190.0530  173.2090  141.7600 C   0  0  0  0  0  0  0  0  0  0  0  0
  188.5730  173.6790  139.7710 C   0  0  0  0  0  1  0  0  0  0  0  0
  191.0420  173.4910  139.5940 N   0  0  0  0  0  2  0  0  0  0  0  0
  191.6810  176.1940  144.7480 C   0  0  0  0  0  2  0  0  0  0  0  0
  189.1460  176.9570  143.2620 C   0  0  0  0  0  3  0  0  0  0  0  0
  188.1130  176.9310  145.4580 C   0  0  0  0  0  0  0  0  0  0  0  0
  190.2890  175.6460  145.0860 C   0  0  2  0  0  3  0  0  0  0  0  0
  187.0860  178.1670  143.6450 C   0  0  0  0  0  0  0  0  0  0  0  0
  189.1750  176.5570  144.6050 C   0  0  0  0  0  0  0  0  0  0  0  0
  188.7640  175.1410  147.0480 C   0  0  0  0  0  2  0  0  0  0  0  0
  187.0880  177.7500  144.9780 C   0  0  0  0  0  3  0  0  0  0  0  0
  188.0770  176.4900  146.8890 C   0  0  0  0  0  2  0  0  0  0  0  0
  185.9930  179.0360  143.1390 C   0  0  0  0  0  1  0  0  0  0  0  0
  188.1080  177.7610  142.7840 C   0  0  0  0  0  3  0  0  0  0  0  0
  190.2040  175.2590  146.5700 C   0  0  0  0  0  2  0  0  0  0  0  0
  1  7  1  0  0  0  0
  1 17  1  1  0  0  0
  2  4  1  0  0  0  0
  3  1  1  0  0  0  0
  3  6  1  0  0  0  0
  4  6  2  0  0  0  0
  5  2  1  0  0  0  0
  5  3  2  0  0  0  0
  7  9  2  0  0  0  0
  8  7  1  0  0  0  0
 10  8  1  0  0  0  0
 11 14  1  0  0  0  0
 12 10  1  0  0  0  0
 14 10  2  0  0  0  0
 14 13  1  0  0  0  0
 15 11  1  0  0  0  0
 16 11  1  0  0  0  0
 16 12  1  0  0  0  0
 18 22  1  0  0  0  0
 19 25  1  0  0  0  0
 20 17  1  1  0  0  0
 20 28  1  0  0  0  0
 21 24  2  0  0  0  0
 22 20  1  0  0  0  0
 22 19  2  0  0  0  0
 24 19  1  0  0  0  0
 25 23  1  0  0  0  0
 26 21  1  0  0  0  0
 27 18  2  0  0  0  0
 27 21  1  0  0  0  0
 28 23  1  0  0  0  0
M  END
>  <MODEL>
9

>  <REMARK>
 VINA RESULT:      -6.8      2.484      3.633
  Name = 
  5 active torsions:
  status: ('A' for Active; 'I' for Inactive)
    1  A    between atoms: C_1  and  C_27
    2  A    between atoms: N_2  and  C_3
    3  A    between atoms: C_10  and  C_17
    4  A    between atoms: C_16  and  C_27
    5  A    between atoms: C_17  and  C_27
                            x       y       z     vdW  Elec       q    Type
                         _______ _______ _______ _____ _____    ______ ____

>  <TORSDO>
F 5

$$$$
