=
 OpenBabel11052419113D

 32 36  0  0  1  0  0  0  0  0999 V2000
  186.7140  176.7900  146.5170 C   0  0  1  0  0  3  0  0  0  0  0  0
  187.2230  176.8500  144.0640 C   0  0  0  0  0  0  0  0  0  0  0  0
  186.2600  177.8180  147.5560 C   0  0  0  0  0  2  0  0  0  0  0  0
  186.4990  177.3010  145.1070 C   0  0  0  0  0  0  0  0  0  0  0  0
  186.8800  177.2780  142.6630 C   0  0  0  0  0  0  0  0  0  0  0  0
  189.6530  171.6990  141.7430 C   0  0  0  0  0  1  0  0  0  0  0  0
  188.4520  175.9730  144.2840 C   0  0  1  0  0  3  0  0  0  0  0  0
  188.5760  174.1210  140.7990 S   0  0  0  0  0  0  0  0  0  0  0  0
  188.2620  175.3820  141.8610 C   0  0  0  0  0  0  0  0  0  0  0  0
  185.4070  178.2590  144.8550 C   0  0  0  0  0  0  0  0  0  0  0  0
  187.7060  176.7290  141.5190 C   0  0  0  0  0  2  0  0  0  0  0  0
  185.1790  178.6990  143.5510 O   0  0  0  0  0  0  0  0  0  0  0  0
  184.6590  178.7280  145.8570 C   0  0  0  0  0  3  0  0  0  0  0  0
  188.5040  175.2910  145.6590 C   0  0  0  0  0  2  0  0  0  0  0  0
  188.1300  176.2670  146.7710 C   0  0  1  0  0  3  0  0  0  0  0  0
  188.6130  175.0060  143.1460 C   0  0  0  0  0  0  0  0  0  0  0  0
  185.8810  178.1780  142.4550 C   0  0  0  0  0  0  0  0  0  0  0  0
  184.8180  178.2320  147.2700 C   0  0  0  0  0  2  0  0  0  0  0  0
  189.1590  173.0790  141.9890 C   0  0  0  0  0  0  0  0  0  0  0  0
  189.1280  173.7040  143.2290 C   0  0  0  0  0  3  0  0  0  0  0  0
  185.4940  178.6490  141.1880 O   0  0  0  0  0  0  0  0  0  0  0  0
  184.3000  178.2910  140.5040 C   0  0  0  0  0  1  0  0  0  0  0  0
  189.1590  177.3890  146.9140 C   0  0  0  0  0  2  0  0  0  0  0  0
  190.4920  176.8210  147.3640 C   0  0  0  0  0  2  0  0  0  0  0  0
  191.5290  176.9570  146.2600 C   0  0  0  0  0  2  0  0  0  0  0  0
  192.1810  175.6400  145.9550 C   0  0  0  0  0  0  0  0  0  0  0  0
  191.9650  175.2900  142.3170 O   0  0  0  0  0  0  0  0  0  0  0  0
  192.6920  174.9630  146.8880 O   0  0  0  0  0  0  0  0  0  0  0  0
  192.2360  175.1280  144.6180 N   0  0  0  0  0  2  0  0  0  0  0  0
  192.1300  175.8940  143.4100 C   0  0  0  0  0  0  0  0  0  0  0  0
  192.3200  177.3800  143.4030 C   0  0  0  0  0  2  0  0  0  0  0  0
  191.0100  178.0880  143.1230 C   0  0  0  0  0  1  0  0  0  0  0  0
  1 15  1  0  0  0  0
  1  3  1  1  0  0  0
  2  7  1  0  0  0  0
  2  4  2  0  0  0  0
  4  1  1  0  0  0  0
  5  2  1  0  0  0  0
  6 19  1  0  0  0  0
  7 14  1  1  0  0  0
  8  9  1  0  0  0  0
  8 19  1  0  0  0  0
  9 16  2  0  0  0  0
 10  4  1  0  0  0  0
 10 13  2  0  0  0  0
 11  9  1  0  0  0  0
 11  5  1  0  0  0  0
 12 10  1  0  0  0  0
 13 18  1  0  0  0  0
 14 15  1  0  0  0  0
 15 23  1  6  0  0  0
 16 20  1  0  0  0  0
 16  7  1  0  0  0  0
 17  5  2  0  0  0  0
 17 12  1  0  0  0  0
 18  3  1  0  0  0  0
 19 20  2  0  0  0  0
 21 17  1  0  0  0  0
 22 21  1  0  0  0  0
 23 24  1  0  0  0  0
 25 24  1  0  0  0  0
 26 25  1  0  0  0  0
 26 28  2  0  0  0  0
 27 30  2  0  0  0  0
 29 26  1  0  0  0  0
 30 29  1  0  0  0  0
 31 30  1  0  0  0  0
 32 31  1  0  0  0  0
M  END
>  <MODEL>
1

>  <REMARK>
 VINA RESULT:      -7.9      0.000      0.000
  Name = 
  6 active torsions:
  status: ('A' for Active; 'I' for Inactive)
    1  A    between atoms: C_3  and  C_22
    2  A    between atoms: O_13  and  C_29
    3  A    between atoms: C_15  and  C_26
    4  A    between atoms: C_16  and  C_23
    5  A    between atoms: C_16  and  C_27
    6  A    between atoms: C_22  and  C_23
                            x       y       z     vdW  Elec       q    Type
                         _______ _______ _______ _____ _____    ______ ____

>  <TORSDO>
F 6

$$$$
=
 OpenBabel11052419113D

 32 36  0  0  1  0  0  0  0  0999 V2000
  187.1590  176.7060  146.4250 C   0  0  1  0  0  3  0  0  0  0  0  0
  187.5610  176.7690  143.9520 C   0  0  0  0  0  0  0  0  0  0  0  0
  186.7700  177.7360  147.4870 C   0  0  0  0  0  2  0  0  0  0  0  0
  186.8920  177.2270  145.0280 C   0  0  0  0  0  0  0  0  0  0  0  0
  187.1650  177.2100  142.5700 C   0  0  0  0  0  0  0  0  0  0  0  0
  189.7990  171.5890  141.5050 C   0  0  0  0  0  1  0  0  0  0  0  0
  188.7840  175.8700  144.1150 C   0  0  1  0  0  3  0  0  0  0  0  0
  188.7230  174.0340  140.6200 S   0  0  0  0  0  0  0  0  0  0  0  0
  188.4780  175.2950  141.7000 C   0  0  0  0  0  0  0  0  0  0  0  0
  185.8070  178.2050  144.8280 C   0  0  0  0  0  0  0  0  0  0  0  0
  187.9310  176.6530  141.3890 C   0  0  0  0  0  2  0  0  0  0  0  0
  185.5300  178.6560  143.5370 O   0  0  0  0  0  0  0  0  0  0  0  0
  185.1110  178.6820  145.8650 C   0  0  0  0  0  3  0  0  0  0  0  0
  188.8840  175.1800  145.4830 C   0  0  0  0  0  2  0  0  0  0  0  0
  188.5760  176.1570  146.6140 C   0  0  1  0  0  3  0  0  0  0  0  0
  188.8780  174.9070  142.9660 C   0  0  0  0  0  0  0  0  0  0  0  0
  186.1740  178.1290  142.4100 C   0  0  0  0  0  0  0  0  0  0  0  0
  185.3230  178.1760  147.2670 C   0  0  0  0  0  2  0  0  0  0  0  0
  189.3400  172.9770  141.7780 C   0  0  0  0  0  0  0  0  0  0  0  0
  189.3740  173.5950  143.0210 C   0  0  0  0  0  3  0  0  0  0  0  0
  185.7400  178.6120  141.1620 O   0  0  0  0  0  0  0  0  0  0  0  0
  184.5030  178.2920  140.5380 C   0  0  0  0  0  1  0  0  0  0  0  0
  189.6300  177.2610  146.7170 C   0  0  0  0  0  2  0  0  0  0  0  0
  190.9570  176.6760  147.1620 C   0  0  0  0  0  2  0  0  0  0  0  0
  191.9540  176.6840  146.0130 C   0  0  0  0  0  2  0  0  0  0  0  0
  193.3380  176.3520  146.4870 C   0  0  0  0  0  0  0  0  0  0  0  0
  193.7900  172.8060  145.6960 O   0  0  0  0  0  0  0  0  0  0  0  0
  194.0660  177.2570  146.9770 O   0  0  0  0  0  0  0  0  0  0  0  0
  193.8570  175.0200  146.3950 N   0  0  0  0  0  2  0  0  0  0  0  0
  193.4010  173.9890  145.5080 C   0  0  0  0  0  0  0  0  0  0  0  0
  192.5660  174.3020  144.3050 C   0  0  0  0  0  2  0  0  0  0  0  0
  193.4410  174.6750  143.1250 C   0  0  0  0  0  1  0  0  0  0  0  0
  1 15  1  0  0  0  0
  1  3  1  1  0  0  0
  2  7  1  0  0  0  0
  2  4  2  0  0  0  0
  4  1  1  0  0  0  0
  5  2  1  0  0  0  0
  6 19  1  0  0  0  0
  7 14  1  1  0  0  0
  8  9  1  0  0  0  0
  8 19  1  0  0  0  0
  9 16  2  0  0  0  0
 10  4  1  0  0  0  0
 10 13  2  0  0  0  0
 11  9  1  0  0  0  0
 11  5  1  0  0  0  0
 12 10  1  0  0  0  0
 13 18  1  0  0  0  0
 14 15  1  0  0  0  0
 15 23  1  6  0  0  0
 16 20  1  0  0  0  0
 16  7  1  0  0  0  0
 17  5  2  0  0  0  0
 17 12  1  0  0  0  0
 18  3  1  0  0  0  0
 19 20  2  0  0  0  0
 21 17  1  0  0  0  0
 22 21  1  0  0  0  0
 23 24  1  0  0  0  0
 25 26  1  0  0  0  0
 25 24  1  0  0  0  0
 26 28  2  0  0  0  0
 29 26  1  0  0  0  0
 30 27  2  0  0  0  0
 30 29  1  0  0  0  0
 31 30  1  0  0  0  0
 32 31  1  0  0  0  0
M  END
>  <MODEL>
2

>  <REMARK>
 VINA RESULT:      -7.7      1.375      1.556
  Name = 
  6 active torsions:
  status: ('A' for Active; 'I' for Inactive)
    1  A    between atoms: C_3  and  C_22
    2  A    between atoms: O_13  and  C_29
    3  A    between atoms: C_15  and  C_26
    4  A    between atoms: C_16  and  C_23
    5  A    between atoms: C_16  and  C_27
    6  A    between atoms: C_22  and  C_23
                            x       y       z     vdW  Elec       q    Type
                         _______ _______ _______ _____ _____    ______ ____

>  <TORSDO>
F 6

$$$$
=
 OpenBabel11052419113D

 32 36  0  0  1  0  0  0  0  0999 V2000
  187.7000  176.1430  146.5910 C   0  0  1  0  0  3  0  0  0  0  0  0
  188.3220  176.0760  144.1640 C   0  0  0  0  0  0  0  0  0  0  0  0
  187.3110  177.2440  147.5800 C   0  0  0  0  0  2  0  0  0  0  0  0
  187.6040  176.6300  145.1600 C   0  0  0  0  0  0  0  0  0  0  0  0
  188.0900  176.4950  142.7380 C   0  0  0  0  0  0  0  0  0  0  0  0
  190.3000  170.6320  142.0930 C   0  0  0  0  0  1  0  0  0  0  0  0
  189.4410  175.0830  144.4650 C   0  0  1  0  0  3  0  0  0  0  0  0
  189.5260  173.1240  141.0380 S   0  0  0  0  0  0  0  0  0  0  0  0
  189.2990  174.4420  142.0510 C   0  0  0  0  0  0  0  0  0  0  0  0
  186.6310  177.6890  144.8310 C   0  0  0  0  0  0  0  0  0  0  0  0
  188.9040  175.8290  141.6500 C   0  0  0  0  0  2  0  0  0  0  0  0
  186.5090  178.1100  143.5070 O   0  0  0  0  0  0  0  0  0  0  0  0
  185.8920  178.2640  145.7850 C   0  0  0  0  0  3  0  0  0  0  0  0
  189.3600  174.4410  145.8570 C   0  0  0  0  0  2  0  0  0  0  0  0
  189.0410  175.4830  146.9250 C   0  0  1  0  0  3  0  0  0  0  0  0
  189.5510  174.0710  143.3600 C   0  0  0  0  0  0  0  0  0  0  0  0
  187.2010  177.4870  142.4600 C   0  0  0  0  0  0  0  0  0  0  0  0
  185.9340  177.7960  147.2150 C   0  0  0  0  0  2  0  0  0  0  0  0
  189.9430  172.0630  142.2800 C   0  0  0  0  0  0  0  0  0  0  0  0
  189.9220  172.7250  143.5010 C   0  0  0  0  0  3  0  0  0  0  0  0
  186.9230  177.9570  141.1640 O   0  0  0  0  0  0  0  0  0  0  0  0
  185.6940  177.7850  140.4700 C   0  0  0  0  0  1  0  0  0  0  0  0
  190.1750  176.4970  147.0890 C   0  0  0  0  0  2  0  0  0  0  0  0
  191.4860  175.7770  147.3400 C   0  0  0  0  0  2  0  0  0  0  0  0
  192.6600  176.6460  146.9190 C   0  0  0  0  0  2  0  0  0  0  0  0
  193.6450  175.8750  146.0900 C   0  0  0  0  0  0  0  0  0  0  0  0
  192.3380  176.0250  142.6740 O   0  0  0  0  0  0  0  0  0  0  0  0
  194.6790  175.3970  146.6300 O   0  0  0  0  0  0  0  0  0  0  0  0
  193.4360  175.6660  144.6890 N   0  0  0  0  0  2  0  0  0  0  0  0
  192.6100  176.4590  143.8250 C   0  0  0  0  0  0  0  0  0  0  0  0
  192.1550  177.8310  144.2160 C   0  0  0  0  0  2  0  0  0  0  0  0
  191.0730  178.3260  143.2770 C   0  0  0  0  0  1  0  0  0  0  0  0
  1 15  1  0  0  0  0
  1  3  1  1  0  0  0
  2  7  1  0  0  0  0
  2  4  2  0  0  0  0
  4  1  1  0  0  0  0
  5  2  1  0  0  0  0
  6 19  1  0  0  0  0
  7 14  1  1  0  0  0
  8  9  1  0  0  0  0
  8 19  1  0  0  0  0
  9 16  2  0  0  0  0
 10  4  1  0  0  0  0
 10 13  2  0  0  0  0
 11  9  1  0  0  0  0
 11  5  1  0  0  0  0
 12 10  1  0  0  0  0
 13 18  1  0  0  0  0
 14 15  1  0  0  0  0
 15 23  1  6  0  0  0
 16 20  1  0  0  0  0
 16  7  1  0  0  0  0
 17  5  2  0  0  0  0
 17 12  1  0  0  0  0
 18  3  1  0  0  0  0
 19 20  2  0  0  0  0
 21 17  1  0  0  0  0
 22 21  1  0  0  0  0
 23 24  1  0  0  0  0
 25 24  1  0  0  0  0
 26 28  2  0  0  0  0
 26 25  1  0  0  0  0
 27 30  2  0  0  0  0
 29 26  1  0  0  0  0
 30 31  1  0  0  0  0
 30 29  1  0  0  0  0
 32 31  1  0  0  0  0
M  END
>  <MODEL>
3

>  <REMARK>
 VINA RESULT:      -7.5      1.143      1.331
  Name = 
  6 active torsions:
  status: ('A' for Active; 'I' for Inactive)
    1  A    between atoms: C_3  and  C_22
    2  A    between atoms: O_13  and  C_29
    3  A    between atoms: C_15  and  C_26
    4  A    between atoms: C_16  and  C_23
    5  A    between atoms: C_16  and  C_27
    6  A    between atoms: C_22  and  C_23
                            x       y       z     vdW  Elec       q    Type
                         _______ _______ _______ _____ _____    ______ ____

>  <TORSDO>
F 6

$$$$
=
 OpenBabel11052419113D

 32 36  0  0  1  0  0  0  0  0999 V2000
  188.8740  176.9620  142.9650 C   0  0  1  0  0  3  0  0  0  0  0  0
  189.2090  174.5070  142.5920 C   0  0  0  0  0  0  0  0  0  0  0  0
  188.6790  177.8560  144.1910 C   0  0  0  0  0  2  0  0  0  0  0  0
  189.4050  175.5990  143.3560 C   0  0  0  0  0  0  0  0  0  0  0  0
  189.8750  173.2050  142.9460 C   0  0  0  0  0  0  0  0  0  0  0  0
  189.0840  172.6830  136.7200 C   0  0  0  0  0  1  0  0  0  0  0  0
  188.2430  174.5400  141.4110 C   0  0  1  0  0  3  0  0  0  0  0  0
  189.7580  171.6150  139.2350 S   0  0  0  0  0  0  0  0  0  0  0  0
  189.3700  172.4440  140.6410 C   0  0  0  0  0  0  0  0  0  0  0  0
  190.2370  175.4800  144.5680 C   0  0  0  0  0  0  0  0  0  0  0  0
  189.6430  172.0090  142.0470 C   0  0  0  0  0  2  0  0  0  0  0  0
  190.7640  174.2340  144.9090 O   0  0  0  0  0  0  0  0  0  0  0  0
  190.4650  176.5370  145.3530 C   0  0  0  0  0  3  0  0  0  0  0  0
  187.9140  175.9520  140.9030 C   0  0  0  0  0  2  0  0  0  0  0  0
  187.6360  176.9030  142.0640 C   0  0  1  0  0  3  0  0  0  0  0  0
  188.7210  173.6240  140.3220 C   0  0  0  0  0  0  0  0  0  0  0  0
  190.6220  173.1130  144.0800 C   0  0  0  0  0  0  0  0  0  0  0  0
  189.9790  177.9160  144.9920 C   0  0  0  0  0  2  0  0  0  0  0  0
  189.1000  172.7750  138.2040 C   0  0  0  0  0  0  0  0  0  0  0  0
  188.5570  173.8190  138.9410 C   0  0  0  0  0  3  0  0  0  0  0  0
  191.2730  171.9400  144.5020 O   0  0  0  0  0  0  0  0  0  0  0  0
  192.6650  171.6780  144.3750 C   0  0  0  0  0  1  0  0  0  0  0  0
  186.3680  176.5160  142.8270 C   0  0  0  0  0  2  0  0  0  0  0  0
  185.2880  177.5570  142.6030 C   0  0  0  0  0  2  0  0  0  0  0  0
  184.6130  177.9150  143.9180 C   0  0  0  0  0  2  0  0  0  0  0  0
  185.2090  179.1530  144.5220 C   0  0  0  0  0  0  0  0  0  0  0  0
  185.2740  178.5170  148.1270 O   0  0  0  0  0  0  0  0  0  0  0  0
  185.6000  180.0880  143.7730 O   0  0  0  0  0  0  0  0  0  0  0  0
  185.3440  179.2980  145.9400 N   0  0  0  0  0  2  0  0  0  0  0  0
  185.3840  178.2360  146.9040 C   0  0  0  0  0  0  0  0  0  0  0  0
  185.6610  176.8210  146.5010 C   0  0  0  0  0  2  0  0  0  0  0  0
  187.0720  176.4190  146.8840 C   0  0  0  0  0  1  0  0  0  0  0  0
  1  4  1  0  0  0  0
  1  3  1  1  0  0  0
  2  5  1  0  0  0  0
  2  4  2  0  0  0  0
  3 18  1  0  0  0  0
  4 10  1  0  0  0  0
  5 17  2  0  0  0  0
  6 19  1  0  0  0  0
  7 14  1  6  0  0  0
  7  2  1  0  0  0  0
  8  9  1  0  0  0  0
  9 11  1  0  0  0  0
 10 12  1  0  0  0  0
 10 13  2  0  0  0  0
 11  5  1  0  0  0  0
 14 15  1  0  0  0  0
 15 23  1  1  0  0  0
 15  1  1  0  0  0  0
 16  9  2  0  0  0  0
 16  7  1  0  0  0  0
 17 21  1  0  0  0  0
 17 12  1  0  0  0  0
 18 13  1  0  0  0  0
 19 20  2  0  0  0  0
 19  8  1  0  0  0  0
 20 16  1  0  0  0  0
 22 21  1  0  0  0  0
 24 23  1  0  0  0  0
 24 25  1  0  0  0  0
 25 26  1  0  0  0  0
 26 29  1  0  0  0  0
 28 26  2  0  0  0  0
 29 30  1  0  0  0  0
 30 27  2  0  0  0  0
 31 32  1  0  0  0  0
 31 30  1  0  0  0  0
M  END
>  <MODEL>
4

>  <REMARK>
 VINA RESULT:      -7.3      2.666      6.295
  Name = 
  6 active torsions:
  status: ('A' for Active; 'I' for Inactive)
    1  A    between atoms: C_3  and  C_22
    2  A    between atoms: O_13  and  C_29
    3  A    between atoms: C_15  and  C_26
    4  A    between atoms: C_16  and  C_23
    5  A    between atoms: C_16  and  C_27
    6  A    between atoms: C_22  and  C_23
                            x       y       z     vdW  Elec       q    Type
                         _______ _______ _______ _____ _____    ______ ____

>  <TORSDO>
F 6

$$$$
=
 OpenBabel11052419113D

 32 36  0  0  1  0  0  0  0  0999 V2000
  189.3550  175.1500  144.8130 C   0  0  1  0  0  3  0  0  0  0  0  0
  187.8650  177.0230  144.0710 C   0  0  0  0  0  0  0  0  0  0  0  0
  190.1700  174.8450  146.0720 C   0  0  0  0  0  2  0  0  0  0  0  0
  188.3430  176.2480  145.0640 C   0  0  0  0  0  0  0  0  0  0  0  0
  186.7580  178.0050  144.3430 C   0  0  0  0  0  0  0  0  0  0  0  0
  186.0080  176.7630  138.2140 C   0  0  0  0  0  1  0  0  0  0  0  0
  188.4920  176.9880  142.6800 C   0  0  1  0  0  3  0  0  0  0  0  0
  185.4170  178.2330  140.5390 S   0  0  0  0  0  0  0  0  0  0  0  0
  186.4040  178.1180  141.8910 C   0  0  0  0  0  0  0  0  0  0  0  0
  187.8000  176.4190  146.4250 C   0  0  0  0  0  0  0  0  0  0  0  0
  186.2370  178.8390  143.1920 C   0  0  0  0  0  2  0  0  0  0  0  0
  186.8370  177.4020  146.6520 O   0  0  0  0  0  0  0  0  0  0  0  0
  188.2390  175.6690  147.4400 C   0  0  0  0  0  3  0  0  0  0  0  0
  189.3280  175.7320  142.3940 C   0  0  0  0  0  2  0  0  0  0  0  0
  190.2280  175.3900  143.5780 C   0  0  1  0  0  3  0  0  0  0  0  0
  187.4470  177.2460  141.6320 C   0  0  0  0  0  0  0  0  0  0  0  0
  186.2860  178.1590  145.6090 C   0  0  0  0  0  0  0  0  0  0  0  0
  189.2250  174.5490  147.2340 C   0  0  0  0  0  2  0  0  0  0  0  0
  186.3220  177.1540  139.6130 C   0  0  0  0  0  0  0  0  0  0  0  0
  187.4140  176.6980  140.3410 C   0  0  0  0  0  3  0  0  0  0  0  0
  185.2630  179.0570  145.9660 O   0  0  0  0  0  0  0  0  0  0  0  0
  183.8900  178.7240  146.1200 C   0  0  0  0  0  1  0  0  0  0  0  0
  191.2970  176.4600  143.8080 C   0  0  0  0  0  2  0  0  0  0  0  0
  192.4760  176.2270  142.8830 C   0  0  0  0  0  2  0  0  0  0  0  0
  193.4200  175.1910  143.4730 C   0  0  0  0  0  2  0  0  0  0  0  0
  194.8320  175.6970  143.5170 C   0  0  0  0  0  0  0  0  0  0  0  0
  194.9530  177.9290  146.4170 O   0  0  0  0  0  0  0  0  0  0  0  0
  195.6740  175.2790  142.6780 O   0  0  0  0  0  0  0  0  0  0  0  0
  195.2500  176.6530  144.4990 N   0  0  0  0  0  2  0  0  0  0  0  0
  194.6160  176.9080  145.7610 C   0  0  0  0  0  0  0  0  0  0  0  0
  193.6500  175.9360  146.3650 C   0  0  0  0  0  2  0  0  0  0  0  0
  192.6650  176.6500  147.2700 C   0  0  0  0  0  1  0  0  0  0  0  0
  1  4  1  0  0  0  0
  1  3  1  1  0  0  0
  2  5  1  0  0  0  0
  2  4  2  0  0  0  0
  3 18  1  0  0  0  0
  4 10  1  0  0  0  0
  5 17  2  0  0  0  0
  6 19  1  0  0  0  0
  7 14  1  6  0  0  0
  7  2  1  0  0  0  0
  8  9  1  0  0  0  0
  9 11  1  0  0  0  0
 10 12  1  0  0  0  0
 10 13  2  0  0  0  0
 11  5  1  0  0  0  0
 14 15  1  0  0  0  0
 15 23  1  1  0  0  0
 15  1  1  0  0  0  0
 16  9  2  0  0  0  0
 16  7  1  0  0  0  0
 17 21  1  0  0  0  0
 17 12  1  0  0  0  0
 18 13  1  0  0  0  0
 19 20  2  0  0  0  0
 19  8  1  0  0  0  0
 20 16  1  0  0  0  0
 21 22  1  0  0  0  0
 24 25  1  0  0  0  0
 24 23  1  0  0  0  0
 25 26  1  0  0  0  0
 26 29  1  0  0  0  0
 28 26  2  0  0  0  0
 29 30  1  0  0  0  0
 30 31  1  0  0  0  0
 30 27  2  0  0  0  0
 31 32  1  0  0  0  0
M  END
>  <MODEL>
5

>  <REMARK>
 VINA RESULT:      -7.3      2.282      4.217
  Name = 
  6 active torsions:
  status: ('A' for Active; 'I' for Inactive)
    1  A    between atoms: C_3  and  C_22
    2  A    between atoms: O_13  and  C_29
    3  A    between atoms: C_15  and  C_26
    4  A    between atoms: C_16  and  C_23
    5  A    between atoms: C_16  and  C_27
    6  A    between atoms: C_22  and  C_23
                            x       y       z     vdW  Elec       q    Type
                         _______ _______ _______ _____ _____    ______ ____

>  <TORSDO>
F 6

$$$$
=
 OpenBabel11052419113D

 32 36  0  0  1  0  0  0  0  0999 V2000
  187.7530  177.1220  141.8550 C   0  0  1  0  0  3  0  0  0  0  0  0
  187.8470  176.6080  144.3060 C   0  0  0  0  0  0  0  0  0  0  0  0
  186.6530  177.1370  140.7910 C   0  0  0  0  0  2  0  0  0  0  0  0
  187.1680  177.1010  143.2520 C   0  0  0  0  0  0  0  0  0  0  0  0
  187.2870  176.7370  145.6960 C   0  0  0  0  0  0  0  0  0  0  0  0
  193.4870  176.4160  146.7510 C   0  0  0  0  0  1  0  0  0  0  0  0
  189.1470  175.8340  144.1070 C   0  0  1  0  0  3  0  0  0  0  0  0
  190.8160  176.4270  147.6360 S   0  0  0  0  0  0  0  0  0  0  0  0
  189.5590  176.2210  146.5440 C   0  0  0  0  0  0  0  0  0  0  0  0
  185.8480  177.7170  143.4810 C   0  0  0  0  0  0  0  0  0  0  0  0
  188.0950  176.1880  146.8530 C   0  0  0  0  0  2  0  0  0  0  0  0
  185.3250  177.7370  144.7740 O   0  0  0  0  0  0  0  0  0  0  0  0
  185.1410  178.2250  142.4670 C   0  0  0  0  0  3  0  0  0  0  0  0
  189.8240  176.0710  142.7490 C   0  0  0  0  0  2  0  0  0  0  0  0
  188.8050  176.0350  141.6140 C   0  0  1  0  0  3  0  0  0  0  0  0
  190.0720  176.0610  145.2690 C   0  0  0  0  0  0  0  0  0  0  0  0
  186.0580  177.2920  145.8810 C   0  0  0  0  0  0  0  0  0  0  0  0
  185.6910  178.2910  141.0670 C   0  0  0  0  0  2  0  0  0  0  0  0
  192.0310  176.3190  146.4720 C   0  0  0  0  0  0  0  0  0  0  0  0
  191.4730  176.1100  145.2170 C   0  0  0  0  0  3  0  0  0  0  0  0
  185.4440  177.4460  147.1370 O   0  0  0  0  0  0  0  0  0  0  0  0
  184.9350  178.6650  147.6620 C   0  0  0  0  0  1  0  0  0  0  0  0
  188.1900  174.6450  141.4440 C   0  0  0  0  0  2  0  0  0  0  0  0
  188.6610  174.0220  140.1430 C   0  0  0  0  0  2  0  0  0  0  0  0
  189.1400  172.5980  140.3770 C   0  0  0  0  0  2  0  0  0  0  0  0
  190.6270  172.4850  140.2110 C   0  0  0  0  0  0  0  0  0  0  0  0
  192.0080  173.1260  143.5410 O   0  0  0  0  0  0  0  0  0  0  0  0
  191.1100  172.1680  139.0910 O   0  0  0  0  0  0  0  0  0  0  0  0
  191.5190  172.7310  141.3050 N   0  0  0  0  0  2  0  0  0  0  0  0
  191.1920  172.6620  142.7000 C   0  0  0  0  0  0  0  0  0  0  0  0
  189.9620  171.9590  143.1850 C   0  0  0  0  0  2  0  0  0  0  0  0
  189.6910  172.2910  144.6380 C   0  0  0  0  0  1  0  0  0  0  0  0
  1  3  1  6  0  0  0
  1  4  1  0  0  0  0
  2  5  1  0  0  0  0
  3 18  1  0  0  0  0
  4 10  1  0  0  0  0
  4  2  2  0  0  0  0
  5 17  2  0  0  0  0
  5 11  1  0  0  0  0
  7 14  1  6  0  0  0
  7  2  1  0  0  0  0
  7 16  1  0  0  0  0
  9 11  1  0  0  0  0
  9  8  1  0  0  0  0
 10 12  1  0  0  0  0
 12 17  1  0  0  0  0
 13 10  2  0  0  0  0
 15 23  1  1  0  0  0
 15  1  1  0  0  0  0
 15 14  1  0  0  0  0
 16  9  2  0  0  0  0
 17 21  1  0  0  0  0
 18 13  1  0  0  0  0
 19  6  1  0  0  0  0
 19  8  1  0  0  0  0
 20 16  1  0  0  0  0
 20 19  2  0  0  0  0
 21 22  1  0  0  0  0
 24 25  1  0  0  0  0
 24 23  1  0  0  0  0
 26 25  1  0  0  0  0
 26 29  1  0  0  0  0
 28 26  2  0  0  0  0
 29 30  1  0  0  0  0
 30 31  1  0  0  0  0
 30 27  2  0  0  0  0
 31 32  1  0  0  0  0
M  END
>  <MODEL>
6

>  <REMARK>
 VINA RESULT:      -7.3      2.264      5.299
  Name = 
  6 active torsions:
  status: ('A' for Active; 'I' for Inactive)
    1  A    between atoms: C_3  and  C_22
    2  A    between atoms: O_13  and  C_29
    3  A    between atoms: C_15  and  C_26
    4  A    between atoms: C_16  and  C_23
    5  A    between atoms: C_16  and  C_27
    6  A    between atoms: C_22  and  C_23
                            x       y       z     vdW  Elec       q    Type
                         _______ _______ _______ _____ _____    ______ ____

>  <TORSDO>
F 6

$$$$
=
 OpenBabel11052419113D

 32 36  0  0  1  0  0  0  0  0999 V2000
  191.7000  176.0050  145.5220 C   0  0  1  0  0  3  0  0  0  0  0  0
  191.7100  173.6690  144.6110 C   0  0  0  0  0  0  0  0  0  0  0  0
  192.2490  176.6800  146.7800 C   0  0  0  0  0  2  0  0  0  0  0  0
  192.3270  174.6420  145.3100 C   0  0  0  0  0  0  0  0  0  0  0  0
  192.4280  172.3840  144.3050 C   0  0  0  0  0  0  0  0  0  0  0  0
  188.2660  172.7740  139.5950 C   0  0  0  0  0  1  0  0  0  0  0  0
  190.2490  173.8120  144.1950 C   0  0  1  0  0  3  0  0  0  0  0  0
  190.2090  171.3850  141.0820 S   0  0  0  0  0  0  0  0  0  0  0  0
  190.6980  171.9530  142.5830 C   0  0  0  0  0  0  0  0  0  0  0  0
  193.6930  174.4000  145.8120 C   0  0  0  0  0  0  0  0  0  0  0  0
  191.7030  171.3280  143.4980 C   0  0  0  0  0  2  0  0  0  0  0  0
  194.2900  173.1610  145.5820 O   0  0  0  0  0  0  0  0  0  0  0  0
  194.3470  175.3380  146.5040 C   0  0  0  0  0  3  0  0  0  0  0  0
  189.7250  175.2550  144.2070 C   0  0  0  0  0  2  0  0  0  0  0  0
  190.1700  175.9900  145.4690 C   0  0  1  0  0  3  0  0  0  0  0  0
  190.0100  173.1150  142.8860 C   0  0  0  0  0  0  0  0  0  0  0  0
  193.6800  172.1750  144.7950 C   0  0  0  0  0  0  0  0  0  0  0  0
  193.7750  176.7140  146.7180 C   0  0  0  0  0  2  0  0  0  0  0  0
  189.1130  172.6360  140.8090 C   0  0  0  0  0  0  0  0  0  0  0  0
  189.1040  173.5080  141.8890 C   0  0  0  0  0  3  0  0  0  0  0  0
  194.4280  171.0040  144.5750 O   0  0  0  0  0  0  0  0  0  0  0  0
  194.6580  169.9790  145.5330 C   0  0  0  0  0  1  0  0  0  0  0  0
  189.5400  175.3940  146.7280 C   0  0  0  0  0  2  0  0  0  0  0  0
  188.0980  175.8490  146.8560 C   0  0  0  0  0  2  0  0  0  0  0  0
  188.0020  177.3600  146.7140 C   0  0  0  0  0  2  0  0  0  0  0  0
  186.6100  177.8490  146.9900 C   0  0  0  0  0  0  0  0  0  0  0  0
  185.6560  179.7380  144.0030 O   0  0  0  0  0  0  0  0  0  0  0  0
  186.0330  177.5230  148.0620 O   0  0  0  0  0  0  0  0  0  0  0  0
  185.9160  178.6850  146.0570 N   0  0  0  0  0  2  0  0  0  0  0  0
  186.1890  178.8000  144.6530 C   0  0  0  0  0  0  0  0  0  0  0  0
  186.9980  177.7730  143.9230 C   0  0  0  0  0  2  0  0  0  0  0  0
  186.1360  176.5920  143.5260 C   0  0  0  0  0  1  0  0  0  0  0  0
  1  3  1  1  0  0  0
  2  4  2  0  0  0  0
  4  1  1  0  0  0  0
  4 10  1  0  0  0  0
  5  2  1  0  0  0  0
  5 17  2  0  0  0  0
  6 19  1  0  0  0  0
  7 14  1  6  0  0  0
  7  2  1  0  0  0  0
  8  9  1  0  0  0  0
  9 16  2  0  0  0  0
  9 11  1  0  0  0  0
 10 13  2  0  0  0  0
 11  5  1  0  0  0  0
 12 10  1  0  0  0  0
 13 18  1  0  0  0  0
 14 15  1  0  0  0  0
 15  1  1  0  0  0  0
 15 23  1  1  0  0  0
 16  7  1  0  0  0  0
 17 12  1  0  0  0  0
 18  3  1  0  0  0  0
 19  8  1  0  0  0  0
 19 20  2  0  0  0  0
 20 16  1  0  0  0  0
 21 17  1  0  0  0  0
 21 22  1  0  0  0  0
 23 24  1  0  0  0  0
 25 24  1  0  0  0  0
 25 26  1  0  0  0  0
 26 28  2  0  0  0  0
 27 30  2  0  0  0  0
 29 26  1  0  0  0  0
 30 29  1  0  0  0  0
 31 30  1  0  0  0  0
 32 31  1  0  0  0  0
M  END
>  <MODEL>
7

>  <REMARK>
 VINA RESULT:      -7.0      2.759      6.801
  Name = 
  6 active torsions:
  status: ('A' for Active; 'I' for Inactive)
    1  A    between atoms: C_3  and  C_22
    2  A    between atoms: O_13  and  C_29
    3  A    between atoms: C_15  and  C_26
    4  A    between atoms: C_16  and  C_23
    5  A    between atoms: C_16  and  C_27
    6  A    between atoms: C_22  and  C_23
                            x       y       z     vdW  Elec       q    Type
                         _______ _______ _______ _____ _____    ______ ____

>  <TORSDO>
F 6

$$$$
=
 OpenBabel11052419113D

 32 36  0  0  1  0  0  0  0  0999 V2000
  187.7110  177.0770  141.8700 C   0  0  1  0  0  3  0  0  0  0  0  0
  187.8710  176.5630  144.3180 C   0  0  0  0  0  0  0  0  0  0  0  0
  186.5800  177.1070  140.8400 C   0  0  0  0  0  2  0  0  0  0  0  0
  187.1680  177.0650  143.2840 C   0  0  0  0  0  0  0  0  0  0  0  0
  187.3540  176.7010  145.7240 C   0  0  0  0  0  0  0  0  0  0  0  0
  193.5780  176.2920  146.5950 C   0  0  0  0  0  1  0  0  0  0  0  0
  189.1530  175.7700  144.0810 C   0  0  1  0  0  3  0  0  0  0  0  0
  190.9340  176.3410  147.5580 S   0  0  0  0  0  0  0  0  0  0  0  0
  189.6420  176.1530  146.5040 C   0  0  0  0  0  0  0  0  0  0  0  0
  185.8640  177.7000  143.5520 C   0  0  0  0  0  0  0  0  0  0  0  0
  188.1880  176.1410  146.8560 C   0  0  0  0  0  2  0  0  0  0  0  0
  185.3790  177.7290  144.8590 O   0  0  0  0  0  0  0  0  0  0  0  0
  185.1340  178.2170  142.5590 C   0  0  0  0  0  3  0  0  0  0  0  0
  189.7920  175.9970  142.7040 C   0  0  0  0  0  2  0  0  0  0  0  0
  188.7390  175.9750  141.5990 C   0  0  1  0  0  3  0  0  0  0  0  0
  190.1150  175.9850  145.2140 C   0  0  0  0  0  0  0  0  0  0  0  0
  186.1390  177.2730  145.9450 C   0  0  0  0  0  0  0  0  0  0  0  0
  185.6430  178.2750  141.1430 C   0  0  0  0  0  2  0  0  0  0  0  0
  192.1120  176.2160  146.3590 C   0  0  0  0  0  0  0  0  0  0  0  0
  191.5150  176.0140  145.1210 C   0  0  0  0  0  3  0  0  0  0  0  0
  185.5650  177.4370  147.2190 O   0  0  0  0  0  0  0  0  0  0  0  0
  185.1260  178.6700  147.7730 C   0  0  0  0  0  1  0  0  0  0  0  0
  188.1010  174.5930  141.4490 C   0  0  0  0  0  2  0  0  0  0  0  0
  189.1430  173.5810  141.0130 C   0  0  0  0  0  2  0  0  0  0  0  0
  188.8710  173.1140  139.5920 C   0  0  0  0  0  2  0  0  0  0  0  0
  190.0390  173.3870  138.6920 C   0  0  0  0  0  0  0  0  0  0  0  0
  188.5770  174.7210  135.6120 O   0  0  0  0  0  0  0  0  0  0  0  0
  191.2120  173.1890  139.1090 O   0  0  0  0  0  0  0  0  0  0  0  0
  189.8530  173.8710  137.3560 N   0  0  0  0  0  2  0  0  0  0  0  0
  188.6990  174.5600  136.8550 C   0  0  0  0  0  0  0  0  0  0  0  0
  187.6960  175.1850  137.7750 C   0  0  0  0  0  2  0  0  0  0  0  0
  186.6930  176.0100  136.9960 C   0  0  0  0  0  1  0  0  0  0  0  0
  1  3  1  6  0  0  0
  1  4  1  0  0  0  0
  2  5  1  0  0  0  0
  3 18  1  0  0  0  0
  4 10  1  0  0  0  0
  4  2  2  0  0  0  0
  5 17  2  0  0  0  0
  5 11  1  0  0  0  0
  7 14  1  6  0  0  0
  7  2  1  0  0  0  0
  7 16  1  0  0  0  0
  9 11  1  0  0  0  0
  9  8  1  0  0  0  0
 10 12  1  0  0  0  0
 12 17  1  0  0  0  0
 13 10  2  0  0  0  0
 15 23  1  1  0  0  0
 15  1  1  0  0  0  0
 15 14  1  0  0  0  0
 16  9  2  0  0  0  0
 17 21  1  0  0  0  0
 18 13  1  0  0  0  0
 19  6  1  0  0  0  0
 19  8  1  0  0  0  0
 20 16  1  0  0  0  0
 20 19  2  0  0  0  0
 21 22  1  0  0  0  0
 24 23  1  0  0  0  0
 25 24  1  0  0  0  0
 26 28  2  0  0  0  0
 26 25  1  0  0  0  0
 27 30  2  0  0  0  0
 29 26  1  0  0  0  0
 30 29  1  0  0  0  0
 30 31  1  0  0  0  0
 32 31  1  0  0  0  0
M  END
>  <MODEL>
8

>  <REMARK>
 VINA RESULT:      -6.7      3.124      5.829
  Name = 
  6 active torsions:
  status: ('A' for Active; 'I' for Inactive)
    1  A    between atoms: C_3  and  C_22
    2  A    between atoms: O_13  and  C_29
    3  A    between atoms: C_15  and  C_26
    4  A    between atoms: C_16  and  C_23
    5  A    between atoms: C_16  and  C_27
    6  A    between atoms: C_22  and  C_23
                            x       y       z     vdW  Elec       q    Type
                         _______ _______ _______ _____ _____    ______ ____

>  <TORSDO>
F 6

$$$$
=
 OpenBabel11052419113D

 32 36  0  0  1  0  0  0  0  0999 V2000
  188.9340  175.4670  145.7000 C   0  0  1  0  0  3  0  0  0  0  0  0
  188.3920  175.6620  143.2610 C   0  0  0  0  0  0  0  0  0  0  0  0
  188.8030  176.3850  146.9170 C   0  0  0  0  0  2  0  0  0  0  0  0
  188.0990  175.9680  144.5400 C   0  0  0  0  0  0  0  0  0  0  0  0
  187.4570  176.0610  142.1530 C   0  0  0  0  0  0  0  0  0  0  0  0
  190.3570  171.0200  139.7370 C   0  0  0  0  0  1  0  0  0  0  0  0
  189.7130  174.9880  142.9010 C   0  0  1  0  0  3  0  0  0  0  0  0
  188.6680  173.2590  139.5090 S   0  0  0  0  0  0  0  0  0  0  0  0
  188.6410  174.4290  140.7110 C   0  0  0  0  0  0  0  0  0  0  0  0
  186.8780  176.7440  144.8240 C   0  0  0  0  0  0  0  0  0  0  0  0
  187.8160  175.6780  140.7330 C   0  0  0  0  0  2  0  0  0  0  0  0
  186.0840  177.1720  143.7600 O   0  0  0  0  0  0  0  0  0  0  0  0
  186.5430  177.0660  146.0770 C   0  0  0  0  0  3  0  0  0  0  0  0
  190.4110  174.2920  144.0780 C   0  0  0  0  0  2  0  0  0  0  0  0
  190.3890  175.1700  145.3260 C   0  0  1  0  0  3  0  0  0  0  0  0
  189.5300  174.0860  141.7140 C   0  0  0  0  0  0  0  0  0  0  0  0
  186.3460  176.7950  142.4360 C   0  0  0  0  0  0  0  0  0  0  0  0
  187.3270  176.5690  147.2630 C   0  0  0  0  0  2  0  0  0  0  0  0
  189.8200  172.2970  140.2760 C   0  0  0  0  0  0  0  0  0  0  0  0
  190.2090  172.8810  141.4750 C   0  0  0  0  0  3  0  0  0  0  0  0
  185.4190  177.2260  141.4710 O   0  0  0  0  0  0  0  0  0  0  0  0
  185.6210  178.2910  140.5500 C   0  0  0  0  0  1  0  0  0  0  0  0
  191.2230  176.4400  145.1450 C   0  0  0  0  0  2  0  0  0  0  0  0
  192.2850  176.5250  146.2250 C   0  0  0  0  0  2  0  0  0  0  0  0
  193.5380  175.7760  145.7990 C   0  0  0  0  0  2  0  0  0  0  0  0
  194.5870  176.7140  145.2780 C   0  0  0  0  0  0  0  0  0  0  0  0
  196.2290  174.8890  142.5610 O   0  0  0  0  0  0  0  0  0  0  0  0
  194.6900  177.8720  145.7640 O   0  0  0  0  0  0  0  0  0  0  0  0
  195.4830  176.3210  144.2310 N   0  0  0  0  0  2  0  0  0  0  0  0
  195.2640  175.2760  143.2730 C   0  0  0  0  0  0  0  0  0  0  0  0
  193.8990  174.7120  143.0240 C   0  0  0  0  0  2  0  0  0  0  0  0
  193.3020  175.2920  141.7570 C   0  0  0  0  0  1  0  0  0  0  0  0
  1  3  1  1  0  0  0
  2  4  2  0  0  0  0
  3 18  1  0  0  0  0
  4 10  1  0  0  0  0
  4  1  1  0  0  0  0
  5 17  2  0  0  0  0
  5  2  1  0  0  0  0
  6 19  1  0  0  0  0
  7  2  1  0  0  0  0
  7 14  1  1  0  0  0
  8 19  1  0  0  0  0
  8  9  1  0  0  0  0
  9 11  1  0  0  0  0
  9 16  2  0  0  0  0
 10 13  2  0  0  0  0
 11  5  1  0  0  0  0
 12 10  1  0  0  0  0
 13 18  1  0  0  0  0
 14 15  1  0  0  0  0
 15 23  1  6  0  0  0
 15  1  1  0  0  0  0
 16  7  1  0  0  0  0
 17 12  1  0  0  0  0
 19 20  2  0  0  0  0
 20 16  1  0  0  0  0
 21 17  1  0  0  0  0
 22 21  1  0  0  0  0
 23 24  1  0  0  0  0
 25 24  1  0  0  0  0
 26 28  2  0  0  0  0
 26 25  1  0  0  0  0
 27 30  2  0  0  0  0
 29 26  1  0  0  0  0
 30 29  1  0  0  0  0
 31 30  1  0  0  0  0
 32 31  1  0  0  0  0
M  END
>  <MODEL>
9

>  <REMARK>
 VINA RESULT:      -6.7      1.864      2.529
  Name = 
  6 active torsions:
  status: ('A' for Active; 'I' for Inactive)
    1  A    between atoms: C_3  and  C_22
    2  A    between atoms: O_13  and  C_29
    3  A    between atoms: C_15  and  C_26
    4  A    between atoms: C_16  and  C_23
    5  A    between atoms: C_16  and  C_27
    6  A    between atoms: C_22  and  C_23
                            x       y       z     vdW  Elec       q    Type
                         _______ _______ _______ _____ _____    ______ ____

>  <TORSDO>
F 6

$$$$
