=
 OpenBabel11052420113D

 37 40  0  0  1  0  0  0  0  0999 V2000
  192.0500  177.6970  144.4180 C   0  0  0  0  0  2  0  0  0  0  0  0
  193.3820  175.5280  144.7350 C   0  0  2  0  0  3  0  0  0  0  0  0
  190.5450  177.5810  144.2010 C   0  0  2  0  0  3  0  0  0  0  0  0
  192.7070  176.5020  143.7430 C   0  0  1  0  0  3  0  0  0  0  0  0
  189.8250  177.4360  145.5510 C   0  0  2  0  0  3  0  0  0  0  0  0
  192.4400  174.9550  145.8080 C   0  0  0  0  0  2  0  0  0  0  0  0
  191.6600  175.8920  142.8100 C   0  0  2  0  0  3  0  0  0  0  0  0
  191.2910  175.2420  147.9850 C   0  0  0  0  0  2  0  0  0  0  0  0
  192.3220  175.8420  147.0500 C   0  0  2  0  0  3  0  0  0  0  0  0
  190.9530  176.5080  147.2240 C   0  0  1  0  0  3  0  0  0  0  0  0
  190.3060  176.3900  143.2790 C   0  0  2  0  0  3  0  0  0  0  0  0
  190.0900  176.2060  146.1640 O   0  0  0  0  0  0  0  0  0  0  0  0
  195.5340  174.9460  145.8900 C   0  0  0  0  0  1  0  0  0  0  0  0
  194.7090  176.0670  145.2870 C   0  0  1  0  0  3  0  0  0  0  0  0
  195.4490  176.6680  144.2680 O   0  0  0  0  0  1  0  0  0  0  0  0
  192.7200  173.9750  141.8440 O   0  0  0  0  0  0  0  0  0  0  0  0
  191.4170  173.9510  141.3110 C   0  0  2  0  0  3  0  0  0  0  0  0
  191.6850  174.3700  142.7070 C   0  0  2  0  0  3  0  0  0  0  0  0
  190.9090  172.5430  141.2700 C   0  0  0  0  0  0  0  0  0  0  0  0
  191.7610  171.5510  140.9940 C   0  0  0  0  0  2  0  0  0  0  0  0
  189.4250  172.2920  141.3390 C   0  0  2  0  0  3  0  0  0  0  0  0
  188.7140  172.9460  140.1640 C   0  0  0  0  0  1  0  0  0  0  0  0
  188.8430  172.7650  142.6660 C   0  0  0  0  0  2  0  0  0  0  0  0
  189.3190  171.8920  143.8180 C   0  0  0  0  0  2  0  0  0  0  0  0
  189.6550  172.6790  144.9190 O   0  0  0  0  0  1  0  0  0  0  0  0
  188.3180  177.7190  145.4830 C   0  0  0  0  0  2  0  0  0  0  0  0
  187.4320  176.5290  145.8450 C   0  0  0  0  0  2  0  0  0  0  0  0
  186.0260  176.6810  145.2910 C   0  0  2  0  0  3  0  0  0  0  0  0
  185.9940  177.8670  144.3370 C   0  0  0  0  0  2  0  0  0  0  0  0
  185.1290  177.5600  143.1310 C   0  0  0  0  0  1  0  0  0  0  0  0
  185.0700  176.9170  146.4530 C   0  0  0  0  0  2  0  0  0  0  0  0
  183.7190  178.9650  146.0040 O   0  0  0  0  0  0  0  0  0  0  0  0
  185.5430  179.0600  147.3910 O   0  0  0  0  0  1  0  0  0  0  0  0
  184.8020  178.3720  146.6380 C   0  0  0  0  0  0  0  0  0  0  0  0
  189.4300  176.7800  142.0910 C   0  0  0  0  0  2  0  0  0  0  0  0
  188.2000  176.1180  142.1350 O   0  0  0  0  0  0  0  0  0  0  0  0
  187.6120  176.3910  140.9010 C   0  0  0  0  0  1  0  0  0  0  0  0
  2 14  1  1  0  0  0
  2  6  1  0  0  0  0
  3  1  1  1  0  0  0
  3  5  1  0  0  0  0
  4  1  1  1  0  0  0
  4  2  1  0  0  0  0
  5 26  1  6  0  0  0
  5 12  1  0  0  0  0
  7 18  1  1  0  0  0
  7 11  1  0  0  0  0
  7  4  1  0  0  0  0
  9  6  1  6  0  0  0
  9 10  1  0  0  0  0
  9  8  1  0  0  0  0
 10  8  1  1  0  0  0
 11 35  1  6  0  0  0
 11  3  1  0  0  0  0
 12 10  1  0  0  0  0
 14 13  1  6  0  0  0
 15 14  1  0  0  0  0
 17 19  1  1  0  0  0
 17 16  1  0  0  0  0
 17 18  1  0  0  0  0
 18 16  1  6  0  0  0
 19 21  1  0  0  0  0
 20 19  2  0  0  0  0
 21 22  1  6  0  0  0
 21 23  1  0  0  0  0
 23 24  1  0  0  0  0
 24 25  1  0  0  0  0
 26 27  1  0  0  0  0
 28 29  1  6  0  0  0
 28 27  1  0  0  0  0
 28 31  1  0  0  0  0
 30 29  1  0  0  0  0
 31 34  1  0  0  0  0
 32 34  2  0  0  0  0
 34 33  1  0  0  0  0
 35 36  1  0  0  0  0
 37 36  1  0  0  0  0
M  END
>  <MODEL>
1

>  <REMARK>
 VINA RESULT:      -6.6      0.000      0.000
  Name = 
  14 active torsions:
  status: ('A' for Active; 'I' for Inactive)
    1  A    between atoms: C_1  and  C_5
    2  A    between atoms: C_1  and  C_23
    3  A    between atoms: C_2  and  C_6
    4  A    between atoms: C_5  and  C_26
    5  A    between atoms: C_6  and  C_8
    6  A    between atoms: C_6  and  C_31
    7  A    between atoms: C_7  and  C_14
    8  A    between atoms: C_7  and  C_31
    9  A    between atoms: C_8  and  C_19
   10  A    between atoms: C_9  and  C_30
   11  A    between atoms: C_11  and  C_26
   12  A    between atoms: C_20  and  C_25
   13  A    between atoms: O_27  and  C_33
   14  A    between atoms: C_29  and  C_33
                            x       y       z     vdW  Elec       q    Type
                         _______ _______ _______ _____ _____    ______ ____

>  <TORSDO>
F 14

$$$$
=
 OpenBabel11052420113D

 37 40  0  0  1  0  0  0  0  0999 V2000
  190.2400  177.5190  144.4090 C   0  0  0  0  0  2  0  0  0  0  0  0
  191.9510  175.6710  144.8930 C   0  0  2  0  0  3  0  0  0  0  0  0
  188.8820  177.1010  143.8550 C   0  0  2  0  0  3  0  0  0  0  0  0
  191.2830  176.5740  143.8320 C   0  0  1  0  0  3  0  0  0  0  0  0
  187.9550  176.6630  145.0000 C   0  0  2  0  0  3  0  0  0  0  0  0
  190.9710  174.7970  145.6960 C   0  0  0  0  0  2  0  0  0  0  0  0
  190.6230  175.8510  142.6570 C   0  0  2  0  0  3  0  0  0  0  0  0
  189.3670  174.5960  147.5740 C   0  0  0  0  0  2  0  0  0  0  0  0
  190.3960  175.5010  146.9280 C   0  0  2  0  0  3  0  0  0  0  0  0
  188.9040  175.8310  146.8280 C   0  0  1  0  0  3  0  0  0  0  0  0
  189.1230  175.9910  142.8380 C   0  0  2  0  0  3  0  0  0  0  0  0
  188.3710  175.4620  145.5880 O   0  0  0  0  0  0  0  0  0  0  0  0
  193.9890  175.4650  146.3460 C   0  0  0  0  0  1  0  0  0  0  0  0
  192.9720  176.4250  145.7570 C   0  0  1  0  0  3  0  0  0  0  0  0
  193.6480  177.3750  144.9890 O   0  0  0  0  0  1  0  0  0  0  0  0
  192.4210  174.3010  142.3510 O   0  0  0  0  0  0  0  0  0  0  0  0
  191.6770  174.2020  141.1590 C   0  0  2  0  0  3  0  0  0  0  0  0
  191.0250  174.3910  142.4770 C   0  0  2  0  0  3  0  0  0  0  0  0
  191.5920  172.7700  140.7290 C   0  0  0  0  0  0  0  0  0  0  0  0
  192.2940  171.8470  141.3950 C   0  0  0  0  0  2  0  0  0  0  0  0
  190.8870  172.4270  139.4430 C   0  0  2  0  0  3  0  0  0  0  0  0
  190.7060  173.6670  138.5810 C   0  0  0  0  0  1  0  0  0  0  0  0
  189.5500  171.7430  139.7090 C   0  0  0  0  0  2  0  0  0  0  0  0
  188.4140  172.7550  139.7520 C   0  0  0  0  0  2  0  0  0  0  0  0
  187.9960  172.9610  141.0670 O   0  0  0  0  0  1  0  0  0  0  0  0
  186.4710  176.6160  144.6140 C   0  0  0  0  0  2  0  0  0  0  0  0
  185.5080  176.9390  145.7540 C   0  0  0  0  0  2  0  0  0  0  0  0
  185.3950  178.4350  145.9940 C   0  0  2  0  0  3  0  0  0  0  0  0
  185.3360  178.6940  147.4930 C   0  0  0  0  0  2  0  0  0  0  0  0
  186.7270  178.6750  148.0950 C   0  0  0  0  0  1  0  0  0  0  0  0
  184.1230  178.9390  145.3250 C   0  0  0  0  0  2  0  0  0  0  0  0
  183.3380  178.6150  142.9800 O   0  0  0  0  0  0  0  0  0  0  0  0
  185.3450  179.6430  143.3990 O   0  0  0  0  0  1  0  0  0  0  0  0
  184.3120  179.0790  143.8520 C   0  0  0  0  0  0  0  0  0  0  0  0
  188.4410  176.3040  141.5080 C   0  0  0  0  0  2  0  0  0  0  0  0
  188.0680  177.6480  141.4390 O   0  0  0  0  0  0  0  0  0  0  0  0
  186.8170  177.6320  140.8240 C   0  0  0  0  0  1  0  0  0  0  0  0
  2  6  1  0  0  0  0
  2 14  1  1  0  0  0
  3  1  1  1  0  0  0
  3  5  1  0  0  0  0
  4  1  1  1  0  0  0
  4  2  1  0  0  0  0
  5 26  1  6  0  0  0
  5 12  1  0  0  0  0
  7 18  1  1  0  0  0
  7 11  1  0  0  0  0
  7  4  1  0  0  0  0
  9  6  1  6  0  0  0
  9  8  1  0  0  0  0
 10  9  1  0  0  0  0
 10  8  1  1  0  0  0
 11 35  1  6  0  0  0
 11  3  1  0  0  0  0
 12 10  1  0  0  0  0
 14 13  1  6  0  0  0
 15 14  1  0  0  0  0
 17 19  1  1  0  0  0
 17 16  1  0  0  0  0
 17 18  1  0  0  0  0
 18 16  1  1  0  0  0
 19 20  2  0  0  0  0
 21 22  1  1  0  0  0
 21 23  1  0  0  0  0
 21 19  1  0  0  0  0
 23 24  1  0  0  0  0
 24 25  1  0  0  0  0
 26 27  1  0  0  0  0
 27 28  1  0  0  0  0
 28 31  1  6  0  0  0
 28 29  1  0  0  0  0
 29 30  1  0  0  0  0
 32 34  2  0  0  0  0
 33 34  1  0  0  0  0
 34 31  1  0  0  0  0
 36 35  1  0  0  0  0
 37 36  1  0  0  0  0
M  END
>  <MODEL>
2

>  <REMARK>
 VINA RESULT:      -6.5      1.683      2.373
  Name = 
  14 active torsions:
  status: ('A' for Active; 'I' for Inactive)
    1  A    between atoms: C_1  and  C_5
    2  A    between atoms: C_1  and  C_23
    3  A    between atoms: C_2  and  C_6
    4  A    between atoms: C_5  and  C_26
    5  A    between atoms: C_6  and  C_8
    6  A    between atoms: C_6  and  C_31
    7  A    between atoms: C_7  and  C_14
    8  A    between atoms: C_7  and  C_31
    9  A    between atoms: C_8  and  C_19
   10  A    between atoms: C_9  and  C_30
   11  A    between atoms: C_11  and  C_26
   12  A    between atoms: C_20  and  C_25
   13  A    between atoms: O_27  and  C_33
   14  A    between atoms: C_29  and  C_33
                            x       y       z     vdW  Elec       q    Type
                         _______ _______ _______ _____ _____    ______ ____

>  <TORSDO>
F 14

$$$$
=
 OpenBabel11052420113D

 37 40  0  0  1  0  0  0  0  0999 V2000
  191.9310  177.5180  144.3390 C   0  0  0  0  0  2  0  0  0  0  0  0
  193.2070  175.3170  144.6700 C   0  0  2  0  0  3  0  0  0  0  0  0
  190.4090  177.4510  144.2620 C   0  0  2  0  0  3  0  0  0  0  0  0
  192.4820  176.2600  143.6830 C   0  0  1  0  0  3  0  0  0  0  0  0
  189.8080  177.4140  145.6750 C   0  0  2  0  0  3  0  0  0  0  0  0
  192.3440  174.8460  145.8540 C   0  0  0  0  0  2  0  0  0  0  0  0
  191.3340  175.6400  142.8840 C   0  0  2  0  0  3  0  0  0  0  0  0
  191.4050  175.3050  148.1010 C   0  0  0  0  0  2  0  0  0  0  0  0
  192.3700  175.8080  147.0460 C   0  0  2  0  0  3  0  0  0  0  0  0
  191.0470  176.5380  147.2970 C   0  0  1  0  0  3  0  0  0  0  0  0
  190.0460  176.2200  143.4370 C   0  0  2  0  0  3  0  0  0  0  0  0
  190.0820  176.2120  146.3360 O   0  0  0  0  0  0  0  0  0  0  0  0
  195.4500  174.7020  145.6150 C   0  0  0  0  0  1  0  0  0  0  0  0
  194.5970  175.8320  145.0710 C   0  0  1  0  0  3  0  0  0  0  0  0
  195.2430  176.3900  143.9670 O   0  0  0  0  0  1  0  0  0  0  0  0
  192.2390  173.6290  141.9530 O   0  0  0  0  0  0  0  0  0  0  0  0
  190.8950  173.6280  141.5300 C   0  0  2  0  0  3  0  0  0  0  0  0
  191.2950  174.1160  142.8720 C   0  0  2  0  0  3  0  0  0  0  0  0
  190.3340  172.2430  141.6170 C   0  0  0  0  0  0  0  0  0  0  0  0
  189.2040  172.0390  142.3010 C   0  0  0  0  0  2  0  0  0  0  0  0
  191.1520  171.0830  141.1090 C   0  0  2  0  0  3  0  0  0  0  0  0
  190.6210  170.5980  139.7690 C   0  0  0  0  0  1  0  0  0  0  0  0
  191.1960  169.9480  142.1270 C   0  0  0  0  0  2  0  0  0  0  0  0
  192.4290  170.0520  143.0130 C   0  0  0  0  0  2  0  0  0  0  0  0
  192.1440  170.7990  144.1560 O   0  0  0  0  0  1  0  0  0  0  0  0
  188.3120  177.7550  145.7210 C   0  0  0  0  0  2  0  0  0  0  0  0
  187.4160  176.6130  146.1980 C   0  0  0  0  0  2  0  0  0  0  0  0
  186.0740  176.6120  145.4870 C   0  0  2  0  0  3  0  0  0  0  0  0
  186.0830  177.6880  144.4100 C   0  0  0  0  0  2  0  0  0  0  0  0
  185.3000  177.2330  143.1940 C   0  0  0  0  0  1  0  0  0  0  0  0
  184.9830  176.9050  146.5100 C   0  0  0  0  0  2  0  0  0  0  0  0
  183.6960  178.9440  145.8760 O   0  0  0  0  0  0  0  0  0  0  0  0
  185.4170  179.0820  147.3850 O   0  0  0  0  0  1  0  0  0  0  0  0
  184.7230  178.3690  146.6110 C   0  0  0  0  0  0  0  0  0  0  0  0
  189.0820  176.5770  142.3090 C   0  0  0  0  0  2  0  0  0  0  0  0
  189.0740  177.9540  142.0720 O   0  0  0  0  0  0  0  0  0  0  0  0
  187.9940  178.1530  141.2130 C   0  0  0  0  0  1  0  0  0  0  0  0
  2 14  1  1  0  0  0
  2  6  1  0  0  0  0
  3  1  1  1  0  0  0
  3  5  1  0  0  0  0
  4  1  1  1  0  0  0
  4  2  1  0  0  0  0
  5 26  1  6  0  0  0
  5 12  1  0  0  0  0
  7 18  1  1  0  0  0
  7 11  1  0  0  0  0
  7  4  1  0  0  0  0
  9  6  1  6  0  0  0
  9 10  1  0  0  0  0
  9  8  1  0  0  0  0
 10  8  1  1  0  0  0
 11 35  1  6  0  0  0
 11  3  1  0  0  0  0
 12 10  1  0  0  0  0
 14 13  1  6  0  0  0
 15 14  1  0  0  0  0
 17 19  1  1  0  0  0
 17 16  1  0  0  0  0
 17 18  1  0  0  0  0
 18 16  1  6  0  0  0
 19 20  2  0  0  0  0
 21 22  1  6  0  0  0
 21 19  1  0  0  0  0
 21 23  1  0  0  0  0
 23 24  1  0  0  0  0
 24 25  1  0  0  0  0
 26 27  1  0  0  0  0
 28 29  1  6  0  0  0
 28 27  1  0  0  0  0
 28 31  1  0  0  0  0
 30 29  1  0  0  0  0
 31 34  1  0  0  0  0
 32 34  2  0  0  0  0
 34 33  1  0  0  0  0
 36 35  1  0  0  0  0
 37 36  1  0  0  0  0
M  END
>  <MODEL>
3

>  <REMARK>
 VINA RESULT:      -6.4      1.004      1.385
  Name = 
  14 active torsions:
  status: ('A' for Active; 'I' for Inactive)
    1  A    between atoms: C_1  and  C_5
    2  A    between atoms: C_1  and  C_23
    3  A    between atoms: C_2  and  C_6
    4  A    between atoms: C_5  and  C_26
    5  A    between atoms: C_6  and  C_8
    6  A    between atoms: C_6  and  C_31
    7  A    between atoms: C_7  and  C_14
    8  A    between atoms: C_7  and  C_31
    9  A    between atoms: C_8  and  C_19
   10  A    between atoms: C_9  and  C_30
   11  A    between atoms: C_11  and  C_26
   12  A    between atoms: C_20  and  C_25
   13  A    between atoms: O_27  and  C_33
   14  A    between atoms: C_29  and  C_33
                            x       y       z     vdW  Elec       q    Type
                         _______ _______ _______ _____ _____    ______ ____

>  <TORSDO>
F 14

$$$$
=
 OpenBabel11052420113D

 37 40  0  0  1  0  0  0  0  0999 V2000
  189.8090  173.1670  145.0680 C   0  0  0  0  0  2  0  0  0  0  0  0
  191.1930  173.1610  142.9070 C   0  0  2  0  0  3  0  0  0  0  0  0
  189.8190  174.4370  145.9130 C   0  0  2  0  0  3  0  0  0  0  0  0
  191.1900  173.0170  144.4460 C   0  0  1  0  0  3  0  0  0  0  0  0
  188.8030  175.4490  145.3610 C   0  0  2  0  0  3  0  0  0  0  0  0
  190.6280  174.4960  142.3900 C   0  0  0  0  0  2  0  0  0  0  0  0
  192.1220  173.9580  145.2100 C   0  0  2  0  0  3  0  0  0  0  0  0
  188.6520  175.8690  141.7980 C   0  0  0  0  0  2  0  0  0  0  0  0
  189.1090  174.4810  142.1990 C   0  0  2  0  0  3  0  0  0  0  0  0
  188.3390  175.3590  143.1900 C   0  0  1  0  0  3  0  0  0  0  0  0
  191.2450  174.9770  145.9120 C   0  0  2  0  0  3  0  0  0  0  0  0
  189.1910  175.9660  144.1190 O   0  0  0  0  0  0  0  0  0  0  0  0
  191.1020  171.8750  140.7530 C   0  0  0  0  0  1  0  0  0  0  0  0
  190.6310  171.9230  142.1940 C   0  0  1  0  0  3  0  0  0  0  0  0
  191.0510  170.7590  142.8410 O   0  0  0  0  0  1  0  0  0  0  0  0
  194.2010  173.7100  144.0480 O   0  0  0  0  0  0  0  0  0  0  0  0
  194.4940  174.6170  145.0850 C   0  0  2  0  0  3  0  0  0  0  0  0
  193.1970  174.6380  144.3680 C   0  0  2  0  0  3  0  0  0  0  0  0
  195.3970  175.6970  144.5760 C   0  0  0  0  0  0  0  0  0  0  0  0
  195.2840  176.9310  145.0790 C   0  0  0  0  0  2  0  0  0  0  0  0
  196.2690  175.4270  143.3770 C   0  0  2  0  0  3  0  0  0  0  0  0
  197.5960  174.8200  143.8050 C   0  0  0  0  0  1  0  0  0  0  0  0
  196.4830  176.6910  142.5510 C   0  0  0  0  0  2  0  0  0  0  0  0
  195.9370  176.5250  141.1410 C   0  0  0  0  0  2  0  0  0  0  0  0
  195.0640  175.4380  141.0820 O   0  0  0  0  0  1  0  0  0  0  0  0
  188.4410  176.5660  146.3480 C   0  0  0  0  0  2  0  0  0  0  0  0
  186.9440  176.8360  146.4800 C   0  0  0  0  0  2  0  0  0  0  0  0
  186.4460  177.7990  145.4160 C   0  0  2  0  0  3  0  0  0  0  0  0
  185.6190  178.8900  146.0830 C   0  0  0  0  0  2  0  0  0  0  0  0
  184.4390  178.2900  146.8220 C   0  0  0  0  0  1  0  0  0  0  0  0
  185.5890  177.0250  144.4230 C   0  0  0  0  0  2  0  0  0  0  0  0
  184.0500  178.0280  142.7370 O   0  0  0  0  0  1  0  0  0  0  0  0
  186.3160  178.3390  142.5690 O   0  0  0  0  0  0  0  0  0  0  0  0
  185.3460  177.8240  143.1890 C   0  0  0  0  0  0  0  0  0  0  0  0
  191.7390  175.2330  147.3330 C   0  0  0  0  0  2  0  0  0  0  0  0
  192.2030  176.5430  147.4750 O   0  0  0  0  0  0  0  0  0  0  0  0
  191.3470  177.1170  148.4140 C   0  0  0  0  0  1  0  0  0  0  0  0
  2 14  1  6  0  0  0
  2  4  1  0  0  0  0
  3  1  1  6  0  0  0
  4  1  1  1  0  0  0
  4  7  1  0  0  0  0
  5  3  1  0  0  0  0
  5 26  1  1  0  0  0
  6  2  1  0  0  0  0
  7 18  1  6  0  0  0
  7 11  1  0  0  0  0
  9  8  1  6  0  0  0
  9  6  1  0  0  0  0
  9 10  1  0  0  0  0
 10  8  1  6  0  0  0
 10 12  1  0  0  0  0
 11  3  1  0  0  0  0
 11 35  1  1  0  0  0
 12  5  1  0  0  0  0
 14 13  1  6  0  0  0
 14 15  1  0  0  0  0
 16 17  1  0  0  0  0
 17 19  1  6  0  0  0
 18 16  1  6  0  0  0
 18 17  1  0  0  0  0
 19 20  2  0  0  0  0
 21 22  1  1  0  0  0
 21 19  1  0  0  0  0
 23 21  1  0  0  0  0
 24 23  1  0  0  0  0
 25 24  1  0  0  0  0
 26 27  1  0  0  0  0
 28 31  1  6  0  0  0
 28 29  1  0  0  0  0
 28 27  1  0  0  0  0
 29 30  1  0  0  0  0
 32 34  1  0  0  0  0
 33 34  2  0  0  0  0
 34 31  1  0  0  0  0
 35 36  1  0  0  0  0
 36 37  1  0  0  0  0
M  END
>  <MODEL>
4

>  <REMARK>
 VINA RESULT:      -6.3      2.010      5.429
  Name = 
  14 active torsions:
  status: ('A' for Active; 'I' for Inactive)
    1  A    between atoms: C_1  and  C_5
    2  A    between atoms: C_1  and  C_23
    3  A    between atoms: C_2  and  C_6
    4  A    between atoms: C_5  and  C_26
    5  A    between atoms: C_6  and  C_8
    6  A    between atoms: C_6  and  C_31
    7  A    between atoms: C_7  and  C_14
    8  A    between atoms: C_7  and  C_31
    9  A    between atoms: C_8  and  C_19
   10  A    between atoms: C_9  and  C_30
   11  A    between atoms: C_11  and  C_26
   12  A    between atoms: C_20  and  C_25
   13  A    between atoms: O_27  and  C_33
   14  A    between atoms: C_29  and  C_33
                            x       y       z     vdW  Elec       q    Type
                         _______ _______ _______ _____ _____    ______ ____

>  <TORSDO>
F 14

$$$$
=
 OpenBabel11052420113D

 37 40  0  0  1  0  0  0  0  0999 V2000
  191.0160  177.7310  144.3990 C   0  0  0  0  0  2  0  0  0  0  0  0
  192.6290  175.7790  144.8140 C   0  0  2  0  0  3  0  0  0  0  0  0
  189.5770  177.3950  144.0240 C   0  0  2  0  0  3  0  0  0  0  0  0
  191.9140  176.6730  143.7750 C   0  0  1  0  0  3  0  0  0  0  0  0
  188.7550  177.0980  145.2880 C   0  0  2  0  0  3  0  0  0  0  0  0
  191.6830  175.0340  145.7720 C   0  0  0  0  0  2  0  0  0  0  0  0
  191.0730  175.9430  142.7270 C   0  0  2  0  0  3  0  0  0  0  0  0
  190.2910  175.0700  147.8220 C   0  0  0  0  0  2  0  0  0  0  0  0
  191.3050  175.8510  147.0110 C   0  0  2  0  0  3  0  0  0  0  0  0
  189.8400  176.2950  147.0530 C   0  0  1  0  0  3  0  0  0  0  0  0
  189.6180  176.2140  143.0600 C   0  0  2  0  0  3  0  0  0  0  0  0
  189.1450  175.9020  145.9030 O   0  0  0  0  0  0  0  0  0  0  0  0
  194.7180  175.4910  146.1750 C   0  0  0  0  0  1  0  0  0  0  0  0
  193.7940  176.4950  145.5110 C   0  0  1  0  0  3  0  0  0  0  0  0
  194.5300  177.2360  144.5860 O   0  0  0  0  0  1  0  0  0  0  0  0
  192.5990  174.2450  142.0060 O   0  0  0  0  0  0  0  0  0  0  0  0
  191.4780  174.0750  141.1710 C   0  0  2  0  0  3  0  0  0  0  0  0
  191.3420  174.4470  142.5990 C   0  0  2  0  0  3  0  0  0  0  0  0
  191.2040  172.6160  140.9770 C   0  0  0  0  0  0  0  0  0  0  0  0
  189.9630  172.2200  140.6750 C   0  0  0  0  0  2  0  0  0  0  0  0
  192.2740  171.6120  141.3190 C   0  0  2  0  0  3  0  0  0  0  0  0
  192.7450  170.8810  140.0710 C   0  0  0  0  0  1  0  0  0  0  0  0
  191.7950  170.6310  142.3830 C   0  0  0  0  0  2  0  0  0  0  0  0
  192.4780  170.8890  143.7180 C   0  0  0  0  0  2  0  0  0  0  0  0
  192.7110  169.6870  144.3860 O   0  0  0  0  0  1  0  0  0  0  0  0
  187.2380  177.1510  145.0690 C   0  0  0  0  0  2  0  0  0  0  0  0
  186.5990  178.5030  145.3770 C   0  0  0  0  0  2  0  0  0  0  0  0
  185.2840  178.6890  144.6400 C   0  0  2  0  0  3  0  0  0  0  0  0
  184.1430  178.6550  145.6480 C   0  0  0  0  0  2  0  0  0  0  0  0
  184.6810  178.6050  147.0640 C   0  0  0  0  0  1  0  0  0  0  0  0
  185.1270  177.5570  143.6330 C   0  0  0  0  0  2  0  0  0  0  0  0
  183.6140  178.1240  141.7340 O   0  0  0  0  0  1  0  0  0  0  0  0
  185.8660  178.5350  141.5860 O   0  0  0  0  0  0  0  0  0  0  0  0
  184.8980  178.0900  142.2600 C   0  0  0  0  0  0  0  0  0  0  0  0
  188.8160  176.5060  141.7950 C   0  0  0  0  0  2  0  0  0  0  0  0
  188.3190  175.3280  141.2310 O   0  0  0  0  0  0  0  0  0  0  0  0
  187.5700  174.7430  142.2510 C   0  0  0  0  0  1  0  0  0  0  0  0
  2 14  1  1  0  0  0
  2  6  1  0  0  0  0
  3  1  1  1  0  0  0
  3  5  1  0  0  0  0
  4  1  1  1  0  0  0
  4  2  1  0  0  0  0
  5 26  1  6  0  0  0
  5 12  1  0  0  0  0
  7 18  1  1  0  0  0
  7 11  1  0  0  0  0
  7  4  1  0  0  0  0
  9  6  1  6  0  0  0
  9 10  1  0  0  0  0
  9  8  1  0  0  0  0
 10  8  1  1  0  0  0
 11 35  1  6  0  0  0
 11  3  1  0  0  0  0
 12 10  1  0  0  0  0
 14 13  1  6  0  0  0
 15 14  1  0  0  0  0
 17 19  1  1  0  0  0
 17 16  1  0  0  0  0
 17 18  1  0  0  0  0
 18 16  1  1  0  0  0
 19 21  1  0  0  0  0
 20 19  2  0  0  0  0
 21 22  1  6  0  0  0
 21 23  1  0  0  0  0
 23 24  1  0  0  0  0
 24 25  1  0  0  0  0
 26 27  1  0  0  0  0
 28 31  1  6  0  0  0
 28 27  1  0  0  0  0
 28 29  1  0  0  0  0
 29 30  1  0  0  0  0
 32 34  1  0  0  0  0
 33 34  2  0  0  0  0
 34 31  1  0  0  0  0
 36 35  1  0  0  0  0
 36 37  1  0  0  0  0
M  END
>  <MODEL>
5

>  <REMARK>
 VINA RESULT:      -6.2      1.647      2.391
  Name = 
  14 active torsions:
  status: ('A' for Active; 'I' for Inactive)
    1  A    between atoms: C_1  and  C_5
    2  A    between atoms: C_1  and  C_23
    3  A    between atoms: C_2  and  C_6
    4  A    between atoms: C_5  and  C_26
    5  A    between atoms: C_6  and  C_8
    6  A    between atoms: C_6  and  C_31
    7  A    between atoms: C_7  and  C_14
    8  A    between atoms: C_7  and  C_31
    9  A    between atoms: C_8  and  C_19
   10  A    between atoms: C_9  and  C_30
   11  A    between atoms: C_11  and  C_26
   12  A    between atoms: C_20  and  C_25
   13  A    between atoms: O_27  and  C_33
   14  A    between atoms: C_29  and  C_33
                            x       y       z     vdW  Elec       q    Type
                         _______ _______ _______ _____ _____    ______ ____

>  <TORSDO>
F 14

$$$$
=
 OpenBabel11052420113D

 37 40  0  0  1  0  0  0  0  0999 V2000
  190.3800  177.5570  144.5870 C   0  0  0  0  0  2  0  0  0  0  0  0
  192.0050  175.6170  145.0090 C   0  0  2  0  0  3  0  0  0  0  0  0
  189.0080  177.2210  144.0130 C   0  0  2  0  0  3  0  0  0  0  0  0
  191.3840  176.5880  143.9790 C   0  0  1  0  0  3  0  0  0  0  0  0
  188.0560  176.7820  145.1370 C   0  0  2  0  0  3  0  0  0  0  0  0
  190.9830  174.7590  145.7740 C   0  0  0  0  0  2  0  0  0  0  0  0
  190.6980  175.9400  142.7750 C   0  0  2  0  0  3  0  0  0  0  0  0
  189.3600  174.5600  147.6370 C   0  0  0  0  0  2  0  0  0  0  0  0
  190.4330  175.4420  147.0300 C   0  0  2  0  0  3  0  0  0  0  0  0
  188.9570  175.8420  146.9360 C   0  0  1  0  0  3  0  0  0  0  0  0
  189.2050  176.1400  142.9560 C   0  0  2  0  0  3  0  0  0  0  0  0
  188.4160  175.5430  145.6810 O   0  0  0  0  0  0  0  0  0  0  0  0
  194.0440  175.2720  146.4320 C   0  0  0  0  0  1  0  0  0  0  0  0
  193.0540  176.2920  145.9040 C   0  0  1  0  0  3  0  0  0  0  0  0
  193.7520  177.2630  145.1840 O   0  0  0  0  0  1  0  0  0  0  0  0
  192.3780  174.3560  142.1420 O   0  0  0  0  0  0  0  0  0  0  0  0
  191.4080  174.2540  141.1250 C   0  0  2  0  0  3  0  0  0  0  0  0
  191.0360  174.4720  142.5420 C   0  0  2  0  0  3  0  0  0  0  0  0
  191.2200  172.8180  140.7430 C   0  0  0  0  0  0  0  0  0  0  0  0
  192.2220  171.9550  140.9400 C   0  0  0  0  0  2  0  0  0  0  0  0
  189.9940  172.4160  139.9660 C   0  0  2  0  0  3  0  0  0  0  0  0
  190.1490  171.0100  139.4070 C   0  0  0  0  0  1  0  0  0  0  0  0
  189.6860  173.4170  138.8580 C   0  0  0  0  0  2  0  0  0  0  0  0
  190.3370  173.0030  137.5460 C   0  0  0  0  0  2  0  0  0  0  0  0
  189.3840  172.9340  136.5300 O   0  0  0  0  0  1  0  0  0  0  0  0
  186.5740  176.8160  144.7430 C   0  0  0  0  0  2  0  0  0  0  0  0
  185.9550  178.2120  144.7230 C   0  0  0  0  0  2  0  0  0  0  0  0
  185.0060  178.4280  145.8900 C   0  0  2  0  0  3  0  0  0  0  0  0
  183.6920  178.9870  145.3630 C   0  0  0  0  0  2  0  0  0  0  0  0
  183.7020  179.0410  143.8480 C   0  0  0  0  0  1  0  0  0  0  0  0
  185.6450  179.4150  146.8580 C   0  0  0  0  0  2  0  0  0  0  0  0
  187.2550  179.3720  148.7620 O   0  0  0  0  0  1  0  0  0  0  0  0
  186.0390  177.5020  148.2290 O   0  0  0  0  0  0  0  0  0  0  0  0
  186.3260  178.7030  147.9770 C   0  0  0  0  0  0  0  0  0  0  0  0
  188.5450  176.5320  141.6360 C   0  0  0  0  0  2  0  0  0  0  0  0
  188.0220  175.4130  140.9850 O   0  0  0  0  0  0  0  0  0  0  0  0
  187.4410  174.6570  142.0020 C   0  0  0  0  0  1  0  0  0  0  0  0
  2  6  1  0  0  0  0
  2 14  1  1  0  0  0
  3  1  1  1  0  0  0
  3  5  1  0  0  0  0
  4  1  1  1  0  0  0
  4  2  1  0  0  0  0
  5 26  1  6  0  0  0
  5 12  1  0  0  0  0
  7 18  1  1  0  0  0
  7 11  1  0  0  0  0
  7  4  1  0  0  0  0
  9  6  1  6  0  0  0
  9  8  1  0  0  0  0
 10  9  1  0  0  0  0
 10  8  1  1  0  0  0
 11 35  1  6  0  0  0
 11  3  1  0  0  0  0
 12 10  1  0  0  0  0
 14 13  1  6  0  0  0
 15 14  1  0  0  0  0
 17 19  1  1  0  0  0
 17 16  1  0  0  0  0
 17 18  1  0  0  0  0
 18 16  1  1  0  0  0
 19 20  2  0  0  0  0
 21 22  1  6  0  0  0
 21 19  1  0  0  0  0
 23 21  1  0  0  0  0
 24 23  1  0  0  0  0
 25 24  1  0  0  0  0
 27 26  1  0  0  0  0
 28 27  1  6  0  0  0
 28 31  1  0  0  0  0
 29 28  1  0  0  0  0
 30 29  1  0  0  0  0
 31 34  1  0  0  0  0
 34 33  2  0  0  0  0
 34 32  1  0  0  0  0
 36 35  1  0  0  0  0
 36 37  1  0  0  0  0
M  END
>  <MODEL>
6

>  <REMARK>
 VINA RESULT:      -6.1      1.840      2.603
  Name = 
  14 active torsions:
  status: ('A' for Active; 'I' for Inactive)
    1  A    between atoms: C_1  and  C_5
    2  A    between atoms: C_1  and  C_23
    3  A    between atoms: C_2  and  C_6
    4  A    between atoms: C_5  and  C_26
    5  A    between atoms: C_6  and  C_8
    6  A    between atoms: C_6  and  C_31
    7  A    between atoms: C_7  and  C_14
    8  A    between atoms: C_7  and  C_31
    9  A    between atoms: C_8  and  C_19
   10  A    between atoms: C_9  and  C_30
   11  A    between atoms: C_11  and  C_26
   12  A    between atoms: C_20  and  C_25
   13  A    between atoms: O_27  and  C_33
   14  A    between atoms: C_29  and  C_33
                            x       y       z     vdW  Elec       q    Type
                         _______ _______ _______ _____ _____    ______ ____

>  <TORSDO>
F 14

$$$$
=
 OpenBabel11052420113D

 37 40  0  0  1  0  0  0  0  0999 V2000
  189.6730  172.8290  144.2070 C   0  0  0  0  0  2  0  0  0  0  0  0
  190.8110  172.5610  141.9230 C   0  0  2  0  0  3  0  0  0  0  0  0
  189.7840  174.1820  144.9010 C   0  0  2  0  0  3  0  0  0  0  0  0
  190.9760  172.5850  143.4600 C   0  0  1  0  0  3  0  0  0  0  0  0
  188.7210  175.1470  144.3530 C   0  0  2  0  0  3  0  0  0  0  0  0
  190.2030  173.8420  141.3260 C   0  0  0  0  0  2  0  0  0  0  0  0
  191.9940  173.5860  144.0100 C   0  0  2  0  0  3  0  0  0  0  0  0
  188.1840  175.1800  140.8040 C   0  0  0  0  0  2  0  0  0  0  0  0
  188.6720  173.8350  141.3040 C   0  0  2  0  0  3  0  0  0  0  0  0
  188.0210  174.8300  142.2690 C   0  0  1  0  0  3  0  0  0  0  0  0
  191.2050  174.6920  144.6860 C   0  0  2  0  0  3  0  0  0  0  0  0
  188.9750  175.5180  143.0280 O   0  0  0  0  0  0  0  0  0  0  0  0
  190.5080  171.0310  139.9560 C   0  0  0  0  0  1  0  0  0  0  0  0
  190.1660  171.2630  141.4150 C   0  0  1  0  0  3  0  0  0  0  0  0
  190.6190  170.1740  142.1610 O   0  0  0  0  0  1  0  0  0  0  0  0
  193.8160  173.1230  142.5270 O   0  0  0  0  0  0  0  0  0  0  0  0
  194.3640  174.0040  143.4800 C   0  0  2  0  0  3  0  0  0  0  0  0
  192.9740  174.1500  142.9870 C   0  0  2  0  0  3  0  0  0  0  0  0
  195.2710  174.9860  142.8050 C   0  0  0  0  0  0  0  0  0  0  0  0
  195.9500  174.6040  141.7180 C   0  0  0  0  0  2  0  0  0  0  0  0
  195.5550  176.3070  143.4710 C   0  0  2  0  0  3  0  0  0  0  0  0
  196.9610  176.7830  143.1420 C   0  0  0  0  0  1  0  0  0  0  0  0
  195.3400  176.2260  144.9780 C   0  0  0  0  0  2  0  0  0  0  0  0
  194.6000  177.4510  145.4950 C   0  0  0  0  0  2  0  0  0  0  0  0
  194.4950  177.4050  146.8850 O   0  0  0  0  0  1  0  0  0  0  0  0
  188.4780  176.3710  145.2450 C   0  0  0  0  0  2  0  0  0  0  0  0
  187.8820  177.5760  144.5200 C   0  0  0  0  0  2  0  0  0  0  0  0
  186.3740  177.6480  144.6860 C   0  0  2  0  0  3  0  0  0  0  0  0
  185.7130  177.3450  143.3490 C   0  0  0  0  0  2  0  0  0  0  0  0
  185.1570  178.6120  142.7280 C   0  0  0  0  0  1  0  0  0  0  0  0
  186.0030  179.0520  145.1470 C   0  0  0  0  0  2  0  0  0  0  0  0
  183.9210  178.6600  146.4620 O   0  0  0  0  0  0  0  0  0  0  0  0
  185.8610  179.2730  147.5190 O   0  0  0  0  0  1  0  0  0  0  0  0
  185.2620  179.0130  146.4410 C   0  0  0  0  0  0  0  0  0  0  0  0
  191.8540  175.0910  146.0090 C   0  0  0  0  0  2  0  0  0  0  0  0
  190.9690  174.9160  147.0750 O   0  0  0  0  0  0  0  0  0  0  0  0
  191.2020  176.0110  147.9050 C   0  0  0  0  0  1  0  0  0  0  0  0
  2 14  1  1  0  0  0
  2  4  1  0  0  0  0
  3  1  1  6  0  0  0
  4  7  1  0  0  0  0
  4  1  1  1  0  0  0
  5  3  1  0  0  0  0
  5 26  1  1  0  0  0
  6  2  1  0  0  0  0
  7 18  1  6  0  0  0
  7 11  1  0  0  0  0
  9  8  1  6  0  0  0
  9  6  1  0  0  0  0
  9 10  1  0  0  0  0
 10  8  1  6  0  0  0
 10 12  1  0  0  0  0
 11  3  1  0  0  0  0
 11 35  1  1  0  0  0
 12  5  1  0  0  0  0
 14 13  1  6  0  0  0
 14 15  1  0  0  0  0
 16 17  1  0  0  0  0
 17 19  1  6  0  0  0
 18 16  1  6  0  0  0
 18 17  1  0  0  0  0
 19 21  1  0  0  0  0
 20 19  2  0  0  0  0
 21 22  1  1  0  0  0
 21 23  1  0  0  0  0
 23 24  1  0  0  0  0
 24 25  1  0  0  0  0
 27 28  1  0  0  0  0
 27 26  1  0  0  0  0
 28 29  1  6  0  0  0
 28 31  1  0  0  0  0
 30 29  1  0  0  0  0
 31 34  1  0  0  0  0
 34 32  2  0  0  0  0
 34 33  1  0  0  0  0
 35 36  1  0  0  0  0
 36 37  1  0  0  0  0
M  END
>  <MODEL>
7

>  <REMARK>
 VINA RESULT:      -6.1      1.825      5.261
  Name = 
  14 active torsions:
  status: ('A' for Active; 'I' for Inactive)
    1  A    between atoms: C_1  and  C_5
    2  A    between atoms: C_1  and  C_23
    3  A    between atoms: C_2  and  C_6
    4  A    between atoms: C_5  and  C_26
    5  A    between atoms: C_6  and  C_8
    6  A    between atoms: C_6  and  C_31
    7  A    between atoms: C_7  and  C_14
    8  A    between atoms: C_7  and  C_31
    9  A    between atoms: C_8  and  C_19
   10  A    between atoms: C_9  and  C_30
   11  A    between atoms: C_11  and  C_26
   12  A    between atoms: C_20  and  C_25
   13  A    between atoms: O_27  and  C_33
   14  A    between atoms: C_29  and  C_33
                            x       y       z     vdW  Elec       q    Type
                         _______ _______ _______ _____ _____    ______ ____

>  <TORSDO>
F 14

$$$$
=
 OpenBabel11052420113D

 37 40  0  0  1  0  0  0  0  0999 V2000
  191.5330  177.2860  144.0730 C   0  0  0  0  0  2  0  0  0  0  0  0
  193.1060  175.3600  144.7040 C   0  0  2  0  0  3  0  0  0  0  0  0
  190.0500  176.9680  143.9170 C   0  0  2  0  0  3  0  0  0  0  0  0
  192.3170  176.0760  143.5850 C   0  0  1  0  0  3  0  0  0  0  0  0
  189.3600  176.9690  145.2910 C   0  0  2  0  0  3  0  0  0  0  0  0
  192.2430  174.8710  145.8810 C   0  0  0  0  0  2  0  0  0  0  0  0
  191.3400  175.2070  142.7920 C   0  0  2  0  0  3  0  0  0  0  0  0
  191.0850  175.3840  148.0110 C   0  0  0  0  0  2  0  0  0  0  0  0
  192.0340  175.9320  146.9640 C   0  0  2  0  0  3  0  0  0  0  0  0
  190.6000  176.4610  147.0620 C   0  0  1  0  0  3  0  0  0  0  0  0
  189.9410  175.6230  143.2080 C   0  0  2  0  0  3  0  0  0  0  0  0
  189.7690  175.8950  146.0890 O   0  0  0  0  0  0  0  0  0  0  0  0
  195.3160  175.2210  145.8880 C   0  0  0  0  0  1  0  0  0  0  0  0
  194.3670  176.1280  145.1270 C   0  0  1  0  0  3  0  0  0  0  0  0
  195.0290  176.6270  144.0040 O   0  0  0  0  0  1  0  0  0  0  0  0
  192.7700  173.3340  142.3750 O   0  0  0  0  0  0  0  0  0  0  0  0
  191.6240  173.0690  141.6000 C   0  0  2  0  0  3  0  0  0  0  0  0
  191.5370  173.7020  142.9370 C   0  0  2  0  0  3  0  0  0  0  0  0
  191.2790  171.6140  141.6800 C   0  0  0  0  0  0  0  0  0  0  0  0
  190.0360  171.2570  142.0190 C   0  0  0  0  0  2  0  0  0  0  0  0
  192.3780  170.5890  141.5780 C   0  0  2  0  0  3  0  0  0  0  0  0
  193.0160  170.6210  140.1970 C   0  0  0  0  0  1  0  0  0  0  0  0
  191.8670  169.1920  141.9140 C   0  0  0  0  0  2  0  0  0  0  0  0
  191.7770  168.3240  140.6670 C   0  0  0  0  0  2  0  0  0  0  0  0
  190.4550  168.2310  140.2340 O   0  0  0  0  0  1  0  0  0  0  0  0
  187.8310  177.0670  145.2170 C   0  0  0  0  0  2  0  0  0  0  0  0
  187.3100  178.2370  144.3840 C   0  0  0  0  0  2  0  0  0  0  0  0
  185.7970  178.2120  144.2580 C   0  0  2  0  0  3  0  0  0  0  0  0
  185.4180  178.4060  142.7960 C   0  0  0  0  0  2  0  0  0  0  0  0
  186.6570  178.5720  141.9390 C   0  0  0  0  0  1  0  0  0  0  0  0
  185.2200  179.3410  145.1020 C   0  0  0  0  0  2  0  0  0  0  0  0
  184.1140  177.9620  146.8620 O   0  0  0  0  0  0  0  0  0  0  0  0
  185.8050  179.4100  147.4150 O   0  0  0  0  0  1  0  0  0  0  0  0
  185.0610  178.9190  146.5230 C   0  0  0  0  0  0  0  0  0  0  0  0
  189.0170  175.7110  141.9960 C   0  0  0  0  0  2  0  0  0  0  0  0
  188.3580  174.4990  141.7770 O   0  0  0  0  0  0  0  0  0  0  0  0
  188.5460  174.2390  140.4210 C   0  0  0  0  0  1  0  0  0  0  0  0
  2 14  1  1  0  0  0
  2  6  1  0  0  0  0
  3  1  1  1  0  0  0
  3  5  1  0  0  0  0
  4  1  1  1  0  0  0
  4  2  1  0  0  0  0
  5 26  1  6  0  0  0
  5 12  1  0  0  0  0
  7 18  1  1  0  0  0
  7 11  1  0  0  0  0
  7  4  1  0  0  0  0
  9  6  1  6  0  0  0
  9 10  1  0  0  0  0
  9  8  1  0  0  0  0
 10  8  1  1  0  0  0
 11 35  1  6  0  0  0
 11  3  1  0  0  0  0
 12 10  1  0  0  0  0
 14 13  1  6  0  0  0
 15 14  1  0  0  0  0
 17 19  1  1  0  0  0
 17 16  1  0  0  0  0
 17 18  1  0  0  0  0
 18 16  1  1  0  0  0
 19 20  2  0  0  0  0
 21 22  1  6  0  0  0
 21 19  1  0  0  0  0
 21 23  1  0  0  0  0
 24 23  1  0  0  0  0
 25 24  1  0  0  0  0
 27 26  1  0  0  0  0
 28 29  1  6  0  0  0
 28 27  1  0  0  0  0
 28 31  1  0  0  0  0
 30 29  1  0  0  0  0
 31 34  1  0  0  0  0
 34 32  2  0  0  0  0
 34 33  1  0  0  0  0
 36 35  1  0  0  0  0
 37 36  1  0  0  0  0
M  END
>  <MODEL>
8

>  <REMARK>
 VINA RESULT:      -5.9      1.576      2.195
  Name = 
  14 active torsions:
  status: ('A' for Active; 'I' for Inactive)
    1  A    between atoms: C_1  and  C_5
    2  A    between atoms: C_1  and  C_23
    3  A    between atoms: C_2  and  C_6
    4  A    between atoms: C_5  and  C_26
    5  A    between atoms: C_6  and  C_8
    6  A    between atoms: C_6  and  C_31
    7  A    between atoms: C_7  and  C_14
    8  A    between atoms: C_7  and  C_31
    9  A    between atoms: C_8  and  C_19
   10  A    between atoms: C_9  and  C_30
   11  A    between atoms: C_11  and  C_26
   12  A    between atoms: C_20  and  C_25
   13  A    between atoms: O_27  and  C_33
   14  A    between atoms: C_29  and  C_33
                            x       y       z     vdW  Elec       q    Type
                         _______ _______ _______ _____ _____    ______ ____

>  <TORSDO>
F 14

$$$$
=
 OpenBabel11052420113D

 37 40  0  0  1  0  0  0  0  0999 V2000
  189.5770  172.0030  143.0710 C   0  0  0  0  0  2  0  0  0  0  0  0
  191.8800  171.3980  142.1150 C   0  0  2  0  0  3  0  0  0  0  0  0
  189.3410  173.4500  143.4910 C   0  0  2  0  0  3  0  0  0  0  0  0
  191.0290  171.6650  143.3770 C   0  0  1  0  0  3  0  0  0  0  0  0
  188.9620  174.3010  142.2690 C   0  0  2  0  0  3  0  0  0  0  0  0
  191.9090  172.5600  141.1070 C   0  0  0  0  0  2  0  0  0  0  0  0
  191.5470  172.7560  144.3170 C   0  0  2  0  0  3  0  0  0  0  0  0
  190.8150  173.7690  139.2400 C   0  0  0  0  0  2  0  0  0  0  0  0
  190.7500  172.5260  140.1060 C   0  0  2  0  0  3  0  0  0  0  0  0
  189.7260  173.6500  140.2870 C   0  0  1  0  0  3  0  0  0  0  0  0
  190.6120  173.9420  144.1760 C   0  0  2  0  0  3  0  0  0  0  0  0
  190.0340  174.4640  141.3840 O   0  0  0  0  0  0  0  0  0  0  0  0
  192.8000  169.5320  140.7100 C   0  0  0  0  0  1  0  0  0  0  0  0
  191.5940  170.0270  141.4850 C   0  0  1  0  0  3  0  0  0  0  0  0
  191.2850  169.0950  142.4760 O   0  0  0  0  0  1  0  0  0  0  0  0
  193.8490  172.1200  144.4960 O   0  0  0  0  0  0  0  0  0  0  0  0
  193.7180  173.1940  145.3980 C   0  0  2  0  0  3  0  0  0  0  0  0
  193.0000  173.1670  144.1020 C   0  0  2  0  0  3  0  0  0  0  0  0
  194.9240  174.0780  145.3160 C   0  0  0  0  0  0  0  0  0  0  0  0
  196.1310  173.5210  145.1660 C   0  0  0  0  0  2  0  0  0  0  0  0
  194.7820  175.5500  145.6040 C   0  0  2  0  0  3  0  0  0  0  0  0
  193.5850  175.8070  146.5070 C   0  0  0  0  0  1  0  0  0  0  0  0
  194.6830  176.3600  144.3160 C   0  0  0  0  0  2  0  0  0  0  0  0
  196.0620  176.7690  143.8170 C   0  0  0  0  0  2  0  0  0  0  0  0
  196.0900  176.7800  142.4230 O   0  0  0  0  0  1  0  0  0  0  0  0
  188.3170  175.6460  142.6260 C   0  0  0  0  0  2  0  0  0  0  0  0
  189.2460  176.8500  142.4960 C   0  0  0  0  0  2  0  0  0  0  0  0
  188.9650  177.9000  143.5570 C   0  0  2  0  0  3  0  0  0  0  0  0
  190.1220  177.9270  144.5470 C   0  0  0  0  0  2  0  0  0  0  0  0
  191.4350  178.1670  143.8280 C   0  0  0  0  0  1  0  0  0  0  0  0
  187.6720  177.5310  144.2740 C   0  0  0  0  0  2  0  0  0  0  0  0
  186.3180  178.9970  142.7790 O   0  0  0  0  0  0  0  0  0  0  0  0
  186.0050  179.0520  145.0500 O   0  0  0  0  0  1  0  0  0  0  0  0
  186.6280  178.5740  144.0630 C   0  0  0  0  0  0  0  0  0  0  0  0
  190.3010  174.5540  145.5400 C   0  0  0  0  0  2  0  0  0  0  0  0
  189.3120  173.8240  146.2040 O   0  0  0  0  0  0  0  0  0  0  0  0
  188.9540  174.6270  147.2860 C   0  0  0  0  0  1  0  0  0  0  0  0
  2 14  1  6  0  0  0
  2  4  1  0  0  0  0
  3  1  1  6  0  0  0
  3 11  1  0  0  0  0
  4  1  1  6  0  0  0
  4  7  1  0  0  0  0
  5 26  1  1  0  0  0
  5  3  1  0  0  0  0
  6  2  1  0  0  0  0
  7 18  1  6  0  0  0
  9  8  1  6  0  0  0
  9 10  1  0  0  0  0
  9  6  1  0  0  0  0
 10  8  1  6  0  0  0
 10 12  1  0  0  0  0
 11  7  1  0  0  0  0
 11 35  1  1  0  0  0
 12  5  1  0  0  0  0
 14 13  1  1  0  0  0
 14 15  1  0  0  0  0
 16 17  1  0  0  0  0
 17 19  1  6  0  0  0
 18 16  1  6  0  0  0
 18 17  1  0  0  0  0
 19 21  1  0  0  0  0
 20 19  2  0  0  0  0
 21 22  1  1  0  0  0
 23 21  1  0  0  0  0
 24 23  1  0  0  0  0
 25 24  1  0  0  0  0
 27 26  1  0  0  0  0
 28 27  1  6  0  0  0
 28 31  1  0  0  0  0
 28 29  1  0  0  0  0
 30 29  1  0  0  0  0
 32 34  2  0  0  0  0
 34 31  1  0  0  0  0
 34 33  1  0  0  0  0
 35 36  1  0  0  0  0
 36 37  1  0  0  0  0
M  END
>  <MODEL>
9

>  <REMARK>
 VINA RESULT:      -5.8      1.963      5.844
  Name = 
  14 active torsions:
  status: ('A' for Active; 'I' for Inactive)
    1  A    between atoms: C_1  and  C_5
    2  A    between atoms: C_1  and  C_23
    3  A    between atoms: C_2  and  C_6
    4  A    between atoms: C_5  and  C_26
    5  A    between atoms: C_6  and  C_8
    6  A    between atoms: C_6  and  C_31
    7  A    between atoms: C_7  and  C_14
    8  A    between atoms: C_7  and  C_31
    9  A    between atoms: C_8  and  C_19
   10  A    between atoms: C_9  and  C_30
   11  A    between atoms: C_11  and  C_26
   12  A    between atoms: C_20  and  C_25
   13  A    between atoms: O_27  and  C_33
   14  A    between atoms: C_29  and  C_33
                            x       y       z     vdW  Elec       q    Type
                         _______ _______ _______ _____ _____    ______ ____

>  <TORSDO>
F 14

$$$$
