=
 OpenBabel11052417263D

 25 29  0  0  1  0  0  0  0  0999 V2000
  186.5300  177.5970  144.3600 C   0  0  0  0  0  0  0  0  0  0  0  0
  187.8520  176.9240  144.0290 C   0  0  1  0  0  3  0  0  0  0  0  0
  186.1990  177.9920  141.8900 C   0  0  0  0  0  2  0  0  0  0  0  0
  186.0980  177.8640  145.6770 C   0  0  0  0  0  0  0  0  0  0  0  0
  184.6890  178.6680  147.2680 O   0  0  0  0  0  0  0  0  0  0  0  0
  186.9420  176.7950  141.6830 O   0  0  0  0  0  0  0  0  0  0  0  0
  184.0990  178.9720  144.8930 C   0  0  0  0  0  3  0  0  0  0  0  0
  184.9200  178.5160  145.9200 C   0  0  0  0  0  0  0  0  0  0  0  0
  188.6080  175.2390  142.3380 C   0  0  0  0  0  0  0  0  0  0  0  0
  188.5560  174.6400  140.9740 C   0  0  0  0  0  1  0  0  0  0  0  0
  188.3110  175.9190  145.0850 C   0  0  0  0  0  2  0  0  0  0  0  0
  185.7610  178.1040  148.0180 C   0  0  0  0  0  3  0  0  0  0  0  0
  185.7220  178.0880  143.3040 C   0  0  0  0  0  0  0  0  0  0  0  0
  184.5180  178.7630  143.5730 C   0  0  0  0  0  3  0  0  0  0  0  0
  189.4480  174.5290  143.3680 C   0  0  0  0  0  2  0  0  0  0  0  0
  186.7600  177.5610  146.9780 C   0  0  0  0  0  3  0  0  0  0  0  0
  189.6430  175.3360  144.6520 C   0  0  2  0  0  3  0  0  0  0  0  0
  187.8140  176.2810  142.6500 C   0  0  0  0  0  0  0  0  0  0  0  0
  190.1920  174.4470  145.7560 C   0  0  0  0  0  2  0  0  0  0  0  0
  194.5410  175.7960  146.6040 O   0  0  0  0  0  1  0  0  0  0  0  0
  193.5200  176.5920  146.0860 C   0  0  1  0  0  3  0  0  0  0  0  0
  193.1480  176.1280  144.8790 N   0  0  0  0  0  2  0  0  0  0  0  0
  191.1540  175.2000  146.6120 C   0  0  0  0  0  0  0  0  0  0  0  0
  192.2940  175.8160  146.0250 N   0  0  0  0  0  0  0  0  0  0  0  0
  190.9440  175.3120  147.8470 O   0  0  0  0  0  0  0  0  0  0  0  0
  1  4  1  0  0  0  0
  2  1  1  0  0  0  0
  2 11  1  1  0  0  0
  3 13  1  0  0  0  0
  4  8  2  0  0  0  0
  4 16  1  0  0  0  0
  5 12  1  0  0  0  0
  6  3  1  0  0  0  0
  6 18  1  0  0  0  0
  7  8  1  0  0  0  0
  8  5  1  0  0  0  0
  9 18  2  0  0  0  0
  9 15  1  0  0  0  0
 10  9  1  0  0  0  0
 13 14  1  0  0  0  0
 13  1  2  0  0  0  0
 14  7  2  0  0  0  0
 15 17  1  0  0  0  0
 16 12  2  0  0  0  0
 17 11  1  0  0  0  0
 17 19  1  1  0  0  0
 18  2  1  0  0  0  0
 19 23  1  0  0  0  0
 21 20  1  1  0  0  0
 22 24  1  0  0  0  0
 22 21  1  0  0  0  0
 23 25  2  0  0  0  0
 24 21  1  0  0  0  0
 24 23  1  0  0  0  0
M  END
>  <MODEL>
1

>  <REMARK>
 VINA RESULT:      -8.1      0.000      0.000
  Name = 
  2 active torsions:
  status: ('A' for Active; 'I' for Inactive)
    1  A    between atoms: C_6  and  C_15
    2  A    between atoms: C_6  and  C_23
                            x       y       z     vdW  Elec       q    Type
                         _______ _______ _______ _____ _____    ______ ____

>  <TORSDO>
F 2

$$$$
=
 OpenBabel11052417263D

 25 29  0  0  1  0  0  0  0  0999 V2000
  186.3390  177.5820  144.9880 C   0  0  0  0  0  0  0  0  0  0  0  0
  187.6500  176.8240  145.1170 C   0  0  1  0  0  3  0  0  0  0  0  0
  186.2420  177.6960  147.5070 C   0  0  0  0  0  2  0  0  0  0  0  0
  185.6710  177.7830  143.7610 C   0  0  0  0  0  0  0  0  0  0  0  0
  183.9970  178.5240  142.4140 O   0  0  0  0  0  0  0  0  0  0  0  0
  187.6660  177.7050  147.4790 O   0  0  0  0  0  0  0  0  0  0  0  0
  183.8260  178.9030  144.8440 C   0  0  0  0  0  3  0  0  0  0  0  0
  184.4680  178.4310  143.7040 C   0  0  0  0  0  0  0  0  0  0  0  0
  189.7330  177.1060  146.4790 C   0  0  0  0  0  0  0  0  0  0  0  0
  190.4300  177.4920  147.7380 C   0  0  0  0  0  1  0  0  0  0  0  0
  188.5560  176.9500  143.8930 C   0  0  0  0  0  2  0  0  0  0  0  0
  184.9080  177.9020  141.5130 C   0  0  0  0  0  3  0  0  0  0  0  0
  185.6780  178.0250  146.1610 C   0  0  0  0  0  0  0  0  0  0  0  0
  184.4380  178.6820  146.0850 C   0  0  0  0  0  3  0  0  0  0  0  0
  190.5970  176.7530  145.2960 C   0  0  0  0  0  2  0  0  0  0  0  0
  186.0580  177.3610  142.3840 C   0  0  0  0  0  3  0  0  0  0  0  0
  189.8140  176.1380  144.1350 C   0  0  2  0  0  3  0  0  0  0  0  0
  188.3930  177.2220  146.3840 C   0  0  0  0  0  0  0  0  0  0  0  0
  190.6620  176.1250  142.8740 C   0  0  0  0  0  2  0  0  0  0  0  0
  187.9790  172.8210  141.0470 O   0  0  0  0  0  1  0  0  0  0  0  0
  188.7170  173.7660  140.3360 C   0  0  1  0  0  3  0  0  0  0  0  0
  188.2430  175.0000  140.5910 N   0  0  0  0  0  2  0  0  0  0  0  0
  190.5460  174.8150  142.1720 C   0  0  0  0  0  0  0  0  0  0  0  0
  189.4700  174.5850  141.2700 N   0  0  0  0  0  0  0  0  0  0  0  0
  191.4130  173.9220  142.3570 O   0  0  0  0  0  0  0  0  0  0  0  0
  1  2  1  0  0  0  0
  1 13  1  0  0  0  0
  2 11  1  6  0  0  0
  2 18  1  0  0  0  0
  4  1  2  0  0  0  0
  5  8  1  0  0  0  0
  6  3  1  0  0  0  0
  7 14  1  0  0  0  0
  8  4  1  0  0  0  0
  8  7  2  0  0  0  0
  9 10  1  0  0  0  0
 11 17  1  0  0  0  0
 12 16  2  0  0  0  0
 12  5  1  0  0  0  0
 13  3  1  0  0  0  0
 14 13  2  0  0  0  0
 15  9  1  0  0  0  0
 16  4  1  0  0  0  0
 17 19  1  6  0  0  0
 17 15  1  0  0  0  0
 18  9  2  0  0  0  0
 18  6  1  0  0  0  0
 21 22  1  0  0  0  0
 21 20  1  1  0  0  0
 21 24  1  0  0  0  0
 22 24  1  0  0  0  0
 23 25  2  0  0  0  0
 23 19  1  0  0  0  0
 24 23  1  0  0  0  0
M  END
>  <MODEL>
2

>  <REMARK>
 VINA RESULT:      -7.9      2.647      4.796
  Name = 
  2 active torsions:
  status: ('A' for Active; 'I' for Inactive)
    1  A    between atoms: C_6  and  C_15
    2  A    between atoms: C_6  and  C_23
                            x       y       z     vdW  Elec       q    Type
                         _______ _______ _______ _____ _____    ______ ____

>  <TORSDO>
F 2

$$$$
=
 OpenBabel11052417263D

 25 29  0  0  1  0  0  0  0  0999 V2000
  186.1850  177.4400  145.1010 C   0  0  0  0  0  0  0  0  0  0  0  0
  187.4200  176.5530  145.0910 C   0  0  1  0  0  3  0  0  0  0  0  0
  186.3860  177.5630  147.6140 C   0  0  0  0  0  2  0  0  0  0  0  0
  185.4070  177.7070  143.9550 C   0  0  0  0  0  0  0  0  0  0  0  0
  183.6730  178.6120  142.7970 O   0  0  0  0  0  0  0  0  0  0  0  0
  187.7920  177.4290  147.4250 O   0  0  0  0  0  0  0  0  0  0  0  0
  183.8170  179.0070  145.2260 C   0  0  0  0  0  3  0  0  0  0  0  0
  184.2760  178.4720  144.0260 C   0  0  0  0  0  0  0  0  0  0  0  0
  189.6620  176.6260  146.2060 C   0  0  0  0  0  0  0  0  0  0  0  0
  190.5320  176.9390  147.3740 C   0  0  0  0  0  1  0  0  0  0  0  0
  188.1900  176.5880  143.7710 C   0  0  0  0  0  2  0  0  0  0  0  0
  184.4100  177.9010  141.8060 C   0  0  0  0  0  3  0  0  0  0  0  0
  185.7100  177.9470  146.3360 C   0  0  0  0  0  0  0  0  0  0  0  0
  184.5400  178.7260  146.3920 C   0  0  0  0  0  3  0  0  0  0  0  0
  190.3470  176.1870  144.9370 C   0  0  0  0  0  2  0  0  0  0  0  0
  185.5910  177.2470  142.5480 C   0  0  0  0  0  3  0  0  0  0  0  0
  189.3800  175.6530  143.8800 C   0  0  2  0  0  3  0  0  0  0  0  0
  188.3390  176.8750  146.2610 C   0  0  0  0  0  0  0  0  0  0  0  0
  190.0740  175.5550  142.5320 C   0  0  0  0  0  2  0  0  0  0  0  0
  190.7630  171.0880  141.5210 O   0  0  0  0  0  1  0  0  0  0  0  0
  189.7860  171.5950  142.3770 C   0  0  1  0  0  3  0  0  0  0  0  0
  190.3700  172.1760  143.4410 N   0  0  0  0  0  2  0  0  0  0  0  0
  189.6440  174.3280  141.8030 C   0  0  0  0  0  0  0  0  0  0  0  0
  189.8610  173.0450  142.3800 N   0  0  0  0  0  0  0  0  0  0  0  0
  189.0640  174.4260  140.6910 O   0  0  0  0  0  0  0  0  0  0  0  0
  1 13  1  0  0  0  0
  2 11  1  6  0  0  0
  2  1  1  0  0  0  0
  2 18  1  0  0  0  0
  4  8  1  0  0  0  0
  4  1  2  0  0  0  0
  5  8  1  0  0  0  0
  6  3  1  0  0  0  0
  7 14  1  0  0  0  0
  8  7  2  0  0  0  0
  9 18  2  0  0  0  0
  9 10  1  0  0  0  0
 11 17  1  0  0  0  0
 12 16  2  0  0  0  0
 12  5  1  0  0  0  0
 13 14  2  0  0  0  0
 13  3  1  0  0  0  0
 15  9  1  0  0  0  0
 16  4  1  0  0  0  0
 17 19  1  6  0  0  0
 17 15  1  0  0  0  0
 18  6  1  0  0  0  0
 21 20  1  6  0  0  0
 21 24  1  0  0  0  0
 21 22  1  0  0  0  0
 23 24  1  0  0  0  0
 23 19  1  0  0  0  0
 24 22  1  0  0  0  0
 25 23  2  0  0  0  0
M  END
>  <MODEL>
3

>  <REMARK>
 VINA RESULT:      -7.8      2.607      4.595
  Name = 
  2 active torsions:
  status: ('A' for Active; 'I' for Inactive)
    1  A    between atoms: C_6  and  C_15
    2  A    between atoms: C_6  and  C_23
                            x       y       z     vdW  Elec       q    Type
                         _______ _______ _______ _____ _____    ______ ____

>  <TORSDO>
F 2

$$$$
=
 OpenBabel11052417263D

 25 29  0  0  1  0  0  0  0  0999 V2000
  186.1950  177.1660  143.2410 C   0  0  0  0  0  0  0  0  0  0  0  0
  186.3660  176.8580  144.7200 C   0  0  1  0  0  3  0  0  0  0  0  0
  184.2700  178.6770  143.8540 C   0  0  0  0  0  2  0  0  0  0  0  0
  186.9170  176.5120  142.2190 C   0  0  0  0  0  0  0  0  0  0  0  0
  187.5030  176.0480  140.0730 O   0  0  0  0  0  0  0  0  0  0  0  0
  184.9550  178.9140  145.0800 O   0  0  0  0  0  0  0  0  0  0  0  0
  185.7290  177.7090  140.4900 C   0  0  0  0  0  3  0  0  0  0  0  0
  186.6910  176.7910  140.8990 C   0  0  0  0  0  0  0  0  0  0  0  0
  186.4130  178.2220  146.8190 C   0  0  0  0  0  0  0  0  0  0  0  0
  185.9420  179.3710  147.6440 C   0  0  0  0  0  1  0  0  0  0  0  0
  187.7810  176.4180  145.0960 C   0  0  0  0  0  2  0  0  0  0  0  0
  188.3390  175.1920  140.8460 C   0  0  0  0  0  3  0  0  0  0  0  0
  185.1870  178.0760  142.8370 C   0  0  0  0  0  0  0  0  0  0  0  0
  184.9630  178.3450  141.4750 C   0  0  0  0  0  3  0  0  0  0  0  0
  187.5630  177.4140  147.3620 C   0  0  0  0  0  2  0  0  0  0  0  0
  187.9630  175.4540  142.3170 C   0  0  0  0  0  3  0  0  0  0  0  0
  187.8160  176.1220  146.5840 C   0  0  2  0  0  3  0  0  0  0  0  0
  185.9160  178.0280  145.5820 C   0  0  0  0  0  0  0  0  0  0  0  0
  189.1700  175.5400  146.9540 C   0  0  0  0  0  2  0  0  0  0  0  0
  191.3100  176.1440  142.8910 O   0  0  0  0  0  1  0  0  0  0  0  0
  191.9180  175.7910  144.0940 C   0  0  1  0  0  3  0  0  0  0  0  0
  191.7900  176.7950  144.9810 N   0  0  0  0  0  2  0  0  0  0  0  0
  189.8360  174.9470  145.7580 C   0  0  0  0  0  0  0  0  0  0  0  0
  190.8990  175.6440  145.1180 N   0  0  0  0  0  0  0  0  0  0  0  0
  189.4750  173.8200  145.3310 O   0  0  0  0  0  0  0  0  0  0  0  0
  1  2  1  0  0  0  0
  2 11  1  6  0  0  0
  2 18  1  0  0  0  0
  3  6  1  0  0  0  0
  4 16  1  0  0  0  0
  4  1  2  0  0  0  0
  5 12  1  0  0  0  0
  5  8  1  0  0  0  0
  6 18  1  0  0  0  0
  7  8  2  0  0  0  0
  7 14  1  0  0  0  0
  8  4  1  0  0  0  0
  9 15  1  0  0  0  0
  9 10  1  0  0  0  0
 11 17  1  0  0  0  0
 12 16  2  0  0  0  0
 13  1  1  0  0  0  0
 13  3  1  0  0  0  0
 14 13  2  0  0  0  0
 17 19  1  1  0  0  0
 17 15  1  0  0  0  0
 18  9  2  0  0  0  0
 21 20  1  6  0  0  0
 21 22  1  0  0  0  0
 21 24  1  0  0  0  0
 22 24  1  0  0  0  0
 23 19  1  0  0  0  0
 24 23  1  0  0  0  0
 25 23  2  0  0  0  0
M  END
>  <MODEL>
4

>  <REMARK>
 VINA RESULT:      -7.7      1.737      4.382
  Name = 
  2 active torsions:
  status: ('A' for Active; 'I' for Inactive)
    1  A    between atoms: C_6  and  C_15
    2  A    between atoms: C_6  and  C_23
                            x       y       z     vdW  Elec       q    Type
                         _______ _______ _______ _____ _____    ______ ____

>  <TORSDO>
F 2

$$$$
=
 OpenBabel11052417263D

 25 29  0  0  1  0  0  0  0  0999 V2000
  185.9670  177.6200  143.9570 C   0  0  0  0  0  0  0  0  0  0  0  0
  186.8480  177.1910  145.1190 C   0  0  1  0  0  3  0  0  0  0  0  0
  184.2200  178.3220  145.6360 C   0  0  0  0  0  2  0  0  0  0  0  0
  186.2890  177.3810  142.6030 C   0  0  0  0  0  0  0  0  0  0  0  0
  185.9480  177.4250  140.3570 O   0  0  0  0  0  0  0  0  0  0  0  0
  185.3010  178.6050  146.5190 O   0  0  0  0  0  0  0  0  0  0  0  0
  184.2080  178.3420  141.8430 C   0  0  0  0  0  3  0  0  0  0  0  0
  185.4400  177.7440  141.5950 C   0  0  0  0  0  0  0  0  0  0  0  0
  187.4990  178.2030  147.3150 C   0  0  0  0  0  0  0  0  0  0  0  0
  187.1870  179.0130  148.5270 C   0  0  0  0  0  1  0  0  0  0  0  0
  188.3410  177.1920  144.7920 C   0  0  0  0  0  2  0  0  0  0  0  0
  187.2190  176.7950  140.4960 C   0  0  0  0  0  3  0  0  0  0  0  0
  184.7000  178.1960  144.2260 C   0  0  0  0  0  0  0  0  0  0  0  0
  183.8360  178.5560  143.1770 C   0  0  0  0  0  3  0  0  0  0  0  0
  188.9260  177.7500  147.1410 C   0  0  0  0  0  2  0  0  0  0  0  0
  187.4880  176.7210  142.0110 C   0  0  0  0  0  3  0  0  0  0  0  0
  189.1050  176.7290  146.0180 C   0  0  2  0  0  3  0  0  0  0  0  0
  186.5650  178.0240  146.3610 C   0  0  0  0  0  0  0  0  0  0  0  0
  190.5770  176.5780  145.6720 C   0  0  0  0  0  2  0  0  0  0  0  0
  189.5540  172.0910  145.1490 O   0  0  0  0  0  1  0  0  0  0  0  0
  190.3610  172.8520  144.3060 C   0  0  1  0  0  3  0  0  0  0  0  0
  189.6280  173.8170  143.7200 N   0  0  0  0  0  2  0  0  0  0  0  0
  190.9980  175.1500  145.7650 C   0  0  0  0  0  0  0  0  0  0  0  0
  190.4820  174.1950  144.8460 N   0  0  0  0  0  0  0  0  0  0  0  0
  191.8300  174.7950  146.6400 O   0  0  0  0  0  0  0  0  0  0  0  0
  1 13  1  0  0  0  0
  1  2  1  0  0  0  0
  2 11  1  6  0  0  0
  2 18  1  0  0  0  0
  3  6  1  0  0  0  0
  4  1  2  0  0  0  0
  5 12  1  0  0  0  0
  5  8  1  0  0  0  0
  7 14  1  0  0  0  0
  8  7  2  0  0  0  0
  8  4  1  0  0  0  0
  9 10  1  0  0  0  0
 11 17  1  0  0  0  0
 12 16  2  0  0  0  0
 13  3  1  0  0  0  0
 14 13  2  0  0  0  0
 15  9  1  0  0  0  0
 16  4  1  0  0  0  0
 17 19  1  6  0  0  0
 17 15  1  0  0  0  0
 18  6  1  0  0  0  0
 18  9  2  0  0  0  0
 19 23  1  0  0  0  0
 21 24  1  0  0  0  0
 21 20  1  1  0  0  0
 22 21  1  0  0  0  0
 22 24  1  0  0  0  0
 23 25  2  0  0  0  0
 24 23  1  0  0  0  0
M  END
>  <MODEL>
5

>  <REMARK>
 VINA RESULT:      -7.7      1.836      4.441
  Name = 
  2 active torsions:
  status: ('A' for Active; 'I' for Inactive)
    1  A    between atoms: C_6  and  C_15
    2  A    between atoms: C_6  and  C_23
                            x       y       z     vdW  Elec       q    Type
                         _______ _______ _______ _____ _____    ______ ____

>  <TORSDO>
F 2

$$$$
=
 OpenBabel11052417263D

 25 29  0  0  1  0  0  0  0  0999 V2000
  186.5640  177.0450  142.9290 C   0  0  0  0  0  0  0  0  0  0  0  0
  187.8650  176.3490  142.5610 C   0  0  1  0  0  3  0  0  0  0  0  0
  186.2740  177.6270  140.4910 C   0  0  0  0  0  2  0  0  0  0  0  0
  186.1280  177.2340  144.2580 C   0  0  0  0  0  0  0  0  0  0  0  0
  184.7320  177.9740  145.8910 O   0  0  0  0  0  0  0  0  0  0  0  0
  186.9750  176.4210  140.2040 O   0  0  0  0  0  0  0  0  0  0  0  0
  184.1800  178.4670  143.5390 C   0  0  0  0  0  3  0  0  0  0  0  0
  184.9730  177.9100  144.5380 C   0  0  0  0  0  0  0  0  0  0  0  0
  188.5770  174.7620  140.7600 C   0  0  0  0  0  0  0  0  0  0  0  0
  188.5180  174.2640  139.3570 C   0  0  0  0  0  1  0  0  0  0  0  0
  188.2750  175.2550  143.5460 C   0  0  0  0  0  2  0  0  0  0  0  0
  185.7750  177.3180  146.6070 C   0  0  0  0  0  3  0  0  0  0  0  0
  185.7860  177.6390  141.9040 C   0  0  0  0  0  0  0  0  0  0  0  0
  184.6040  178.3370  142.2110 C   0  0  0  0  0  3  0  0  0  0  0  0
  189.3800  173.9500  141.7430 C   0  0  0  0  0  2  0  0  0  0  0  0
  186.7650  176.8150  145.5390 C   0  0  0  0  0  3  0  0  0  0  0  0
  189.5900  174.6560  143.0830 C   0  0  2  0  0  3  0  0  0  0  0  0
  187.8180  175.8080  141.1400 C   0  0  0  0  0  0  0  0  0  0  0  0
  190.0940  173.6710  144.1250 C   0  0  0  0  0  2  0  0  0  0  0  0
  190.7230  176.8080  147.4740 O   0  0  0  0  0  1  0  0  0  0  0  0
  190.6590  175.4270  147.6450 C   0  0  1  0  0  3  0  0  0  0  0  0
  189.4320  174.9830  147.3150 N   0  0  0  0  0  2  0  0  0  0  0  0
  191.0090  174.3450  145.0910 C   0  0  0  0  0  0  0  0  0  0  0  0
  190.5120  174.7910  146.3480 N   0  0  0  0  0  0  0  0  0  0  0  0
  192.2250  174.4970  144.8060 O   0  0  0  0  0  0  0  0  0  0  0  0
  1  4  1  0  0  0  0
  2  1  1  0  0  0  0
  2 11  1  1  0  0  0
  3 13  1  0  0  0  0
  4  8  2  0  0  0  0
  4 16  1  0  0  0  0
  5 12  1  0  0  0  0
  6  3  1  0  0  0  0
  6 18  1  0  0  0  0
  7  8  1  0  0  0  0
  8  5  1  0  0  0  0
  9 18  2  0  0  0  0
  9 15  1  0  0  0  0
 10  9  1  0  0  0  0
 13 14  1  0  0  0  0
 13  1  2  0  0  0  0
 14  7  2  0  0  0  0
 15 17  1  0  0  0  0
 16 12  2  0  0  0  0
 17 11  1  0  0  0  0
 17 19  1  1  0  0  0
 18  2  1  0  0  0  0
 19 23  1  0  0  0  0
 21 20  1  6  0  0  0
 22 21  1  0  0  0  0
 23 24  1  0  0  0  0
 24 22  1  0  0  0  0
 24 21  1  0  0  0  0
 25 23  2  0  0  0  0
M  END
>  <MODEL>
6

>  <REMARK>
 VINA RESULT:      -7.6      1.662      2.156
  Name = 
  2 active torsions:
  status: ('A' for Active; 'I' for Inactive)
    1  A    between atoms: C_6  and  C_15
    2  A    between atoms: C_6  and  C_23
                            x       y       z     vdW  Elec       q    Type
                         _______ _______ _______ _____ _____    ______ ____

>  <TORSDO>
F 2

$$$$
=
 OpenBabel11052417263D

 25 29  0  0  1  0  0  0  0  0999 V2000
  186.5190  177.6190  144.3400 C   0  0  0  0  0  0  0  0  0  0  0  0
  187.8310  176.9540  143.9540 C   0  0  1  0  0  3  0  0  0  0  0  0
  186.1060  178.0540  141.8890 C   0  0  0  0  0  2  0  0  0  0  0  0
  186.1310  177.8630  145.6740 C   0  0  0  0  0  0  0  0  0  0  0  0
  184.7740  178.6380  147.3250 O   0  0  0  0  0  0  0  0  0  0  0  0
  186.8440  176.8620  141.6370 O   0  0  0  0  0  0  0  0  0  0  0  0
  184.1060  178.9800  144.9760 C   0  0  0  0  0  3  0  0  0  0  0  0
  184.9610  178.5080  145.9680 C   0  0  0  0  0  0  0  0  0  0  0  0
  188.5330  175.2990  142.2110 C   0  0  0  0  0  0  0  0  0  0  0  0
  188.4370  174.7220  140.8400 C   0  0  0  0  0  1  0  0  0  0  0  0
  188.3260  175.9320  144.9770 C   0  0  0  0  0  2  0  0  0  0  0  0
  185.8710  178.0630  148.0290 C   0  0  0  0  0  3  0  0  0  0  0  0
  185.6760  178.1250  143.3200 C   0  0  0  0  0  0  0  0  0  0  0  0
  184.4810  178.7930  143.6390 C   0  0  0  0  0  3  0  0  0  0  0  0
  189.4080  174.5730  143.2010 C   0  0  0  0  0  2  0  0  0  0  0  0
  186.8370  177.5400  146.9480 C   0  0  0  0  0  3  0  0  0  0  0  0
  189.6440  175.3590  144.4910 C   0  0  2  0  0  3  0  0  0  0  0  0
  187.7480  176.3340  142.5670 C   0  0  0  0  0  0  0  0  0  0  0  0
  190.2300  174.4540  145.5610 C   0  0  0  0  0  2  0  0  0  0  0  0
  194.1420  171.9760  145.6950 O   0  0  0  0  0  1  0  0  0  0  0  0
  193.5210  172.4700  144.5480 C   0  0  1  0  0  3  0  0  0  0  0  0
  192.3200  171.8840  144.3920 N   0  0  0  0  0  2  0  0  0  0  0  0
  191.7170  174.4030  145.4550 C   0  0  0  0  0  0  0  0  0  0  0  0
  192.3540  173.2430  144.9330 N   0  0  0  0  0  0  0  0  0  0  0  0
  192.4070  175.3960  145.8020 O   0  0  0  0  0  0  0  0  0  0  0  0
  1  4  1  0  0  0  0
  2  1  1  0  0  0  0
  2 11  1  1  0  0  0
  3 13  1  0  0  0  0
  4  8  2  0  0  0  0
  4 16  1  0  0  0  0
  5 12  1  0  0  0  0
  6  3  1  0  0  0  0
  6 18  1  0  0  0  0
  7  8  1  0  0  0  0
  8  5  1  0  0  0  0
  9 18  2  0  0  0  0
  9 15  1  0  0  0  0
 10  9  1  0  0  0  0
 13 14  1  0  0  0  0
 13  1  2  0  0  0  0
 14  7  2  0  0  0  0
 15 17  1  0  0  0  0
 16 12  2  0  0  0  0
 17 11  1  0  0  0  0
 17 19  1  1  0  0  0
 18  2  1  0  0  0  0
 21 24  1  0  0  0  0
 21 20  1  1  0  0  0
 22 21  1  0  0  0  0
 22 24  1  0  0  0  0
 23 19  1  0  0  0  0
 23 25  2  0  0  0  0
 24 23  1  0  0  0  0
M  END
>  <MODEL>
7

>  <REMARK>
 VINA RESULT:      -7.6      1.624      1.680
  Name = 
  2 active torsions:
  status: ('A' for Active; 'I' for Inactive)
    1  A    between atoms: C_6  and  C_15
    2  A    between atoms: C_6  and  C_23
                            x       y       z     vdW  Elec       q    Type
                         _______ _______ _______ _____ _____    ______ ____

>  <TORSDO>
F 2

$$$$
=
 OpenBabel11052417263D

 25 29  0  0  1  0  0  0  0  0999 V2000
  186.3040  177.6920  144.8020 C   0  0  0  0  0  0  0  0  0  0  0  0
  187.6500  177.0040  144.9630 C   0  0  1  0  0  3  0  0  0  0  0  0
  186.0770  177.6730  147.3150 C   0  0  0  0  0  2  0  0  0  0  0  0
  185.6870  177.9160  143.5520 C   0  0  0  0  0  0  0  0  0  0  0  0
  184.0400  178.6270  142.1570 O   0  0  0  0  0  0  0  0  0  0  0  0
  187.4980  177.7640  147.3610 O   0  0  0  0  0  0  0  0  0  0  0  0
  183.7270  178.8730  144.5900 C   0  0  0  0  0  3  0  0  0  0  0  0
  184.4520  178.4970  143.4630 C   0  0  0  0  0  0  0  0  0  0  0  0
  189.6430  177.3360  146.4430 C   0  0  0  0  0  0  0  0  0  0  0  0
  190.2540  177.6970  147.7540 C   0  0  0  0  0  1  0  0  0  0  0  0
  188.6060  177.2430  143.7950 C   0  0  0  0  0  2  0  0  0  0  0  0
  185.0300  178.1040  141.2760 C   0  0  0  0  0  3  0  0  0  0  0  0
  185.5620  178.0370  145.9590 C   0  0  0  0  0  0  0  0  0  0  0  0
  184.2900  178.6260  145.8490 C   0  0  0  0  0  3  0  0  0  0  0  0
  190.5840  177.0920  145.2910 C   0  0  0  0  0  2  0  0  0  0  0  0
  186.1650  177.5860  142.1790 C   0  0  0  0  0  3  0  0  0  0  0  0
  189.8970  176.4920  144.0640 C   0  0  2  0  0  3  0  0  0  0  0  0
  188.3060  177.3790  146.2840 C   0  0  0  0  0  0  0  0  0  0  0  0
  190.8050  176.5910  142.8490 C   0  0  0  0  0  2  0  0  0  0  0  0
  195.0330  174.7630  142.3680 O   0  0  0  0  0  1  0  0  0  0  0  0
  194.2830  174.7990  143.5420 C   0  0  1  0  0  3  0  0  0  0  0  0
  194.1060  176.0750  143.9310 N   0  0  0  0  0  2  0  0  0  0  0  0
  191.6700  175.3820  142.7360 C   0  0  0  0  0  0  0  0  0  0  0  0
  192.9910  175.4020  143.2650 N   0  0  0  0  0  0  0  0  0  0  0  0
  191.2240  174.3370  142.1970 O   0  0  0  0  0  0  0  0  0  0  0  0
  1  2  1  0  0  0  0
  1 13  1  0  0  0  0
  2 11  1  6  0  0  0
  2 18  1  0  0  0  0
  3  6  1  0  0  0  0
  4  1  2  0  0  0  0
  5  8  1  0  0  0  0
  7 14  1  0  0  0  0
  8  4  1  0  0  0  0
  8  7  2  0  0  0  0
  9 10  1  0  0  0  0
 11 17  1  0  0  0  0
 12  5  1  0  0  0  0
 12 16  2  0  0  0  0
 13  3  1  0  0  0  0
 14 13  2  0  0  0  0
 15  9  1  0  0  0  0
 16  4  1  0  0  0  0
 17 19  1  6  0  0  0
 17 15  1  0  0  0  0
 18  9  2  0  0  0  0
 18  6  1  0  0  0  0
 21 20  1  6  0  0  0
 21 22  1  0  0  0  0
 23 19  1  0  0  0  0
 23 24  1  0  0  0  0
 24 21  1  0  0  0  0
 24 22  1  0  0  0  0
 25 23  2  0  0  0  0
M  END
>  <MODEL>
8

>  <REMARK>
 VINA RESULT:      -7.5      2.219      3.985
  Name = 
  2 active torsions:
  status: ('A' for Active; 'I' for Inactive)
    1  A    between atoms: C_6  and  C_15
    2  A    between atoms: C_6  and  C_23
                            x       y       z     vdW  Elec       q    Type
                         _______ _______ _______ _____ _____    ______ ____

>  <TORSDO>
F 2

$$$$
=
 OpenBabel11052417263D

 25 29  0  0  1  0  0  0  0  0999 V2000
  186.5330  177.6820  144.6560 C   0  0  0  0  0  0  0  0  0  0  0  0
  187.8200  176.9100  144.9050 C   0  0  1  0  0  3  0  0  0  0  0  0
  186.1960  177.7820  147.1540 C   0  0  0  0  0  2  0  0  0  0  0  0
  185.9880  177.8960  143.3710 C   0  0  0  0  0  0  0  0  0  0  0  0
  184.4570  178.6590  141.8750 O   0  0  0  0  0  0  0  0  0  0  0  0
  187.6170  177.7780  147.2630 O   0  0  0  0  0  0  0  0  0  0  0  0
  184.0570  179.0260  144.2800 C   0  0  0  0  0  3  0  0  0  0  0  0
  184.8020  178.5550  143.2030 C   0  0  0  0  0  0  0  0  0  0  0  0
  189.7640  177.1670  146.4620 C   0  0  0  0  0  0  0  0  0  0  0  0
  190.3410  177.5390  147.7850 C   0  0  0  0  0  1  0  0  0  0  0  0
  188.8400  177.0360  143.7740 C   0  0  0  0  0  2  0  0  0  0  0  0
  185.4450  178.0330  141.0610 C   0  0  0  0  0  3  0  0  0  0  0  0
  185.7670  178.1240  145.7630 C   0  0  0  0  0  0  0  0  0  0  0  0
  184.5450  178.7930  145.5720 C   0  0  0  0  0  3  0  0  0  0  0  0
  190.7350  176.8120  145.3650 C   0  0  0  0  0  2  0  0  0  0  0  0
  186.5020  177.4770  142.0350 C   0  0  0  0  0  3  0  0  0  0  0  0
  190.0620  176.2110  144.1310 C   0  0  2  0  0  3  0  0  0  0  0  0
  188.4420  177.2950  146.2400 C   0  0  0  0  0  0  0  0  0  0  0  0
  191.0270  176.1970  142.9570 C   0  0  0  0  0  2  0  0  0  0  0  0
  193.4450  173.4150  145.7610 O   0  0  0  0  0  1  0  0  0  0  0  0
  193.1010  173.1480  144.4370 C   0  0  1  0  0  3  0  0  0  0  0  0
  191.7630  173.0480  144.3260 N   0  0  0  0  0  2  0  0  0  0  0  0
  192.3390  175.6120  143.3580 C   0  0  0  0  0  0  0  0  0  0  0  0
  192.3960  174.2920  143.8880 N   0  0  0  0  0  0  0  0  0  0  0  0
  193.3970  176.2730  143.2030 O   0  0  0  0  0  0  0  0  0  0  0  0
  1  2  1  0  0  0  0
  1 13  1  0  0  0  0
  2 11  1  6  0  0  0
  2 18  1  0  0  0  0
  3  6  1  0  0  0  0
  4  1  2  0  0  0  0
  5  8  1  0  0  0  0
  7 14  1  0  0  0  0
  8  4  1  0  0  0  0
  8  7  2  0  0  0  0
  9 10  1  0  0  0  0
 11 17  1  0  0  0  0
 12  5  1  0  0  0  0
 12 16  2  0  0  0  0
 13  3  1  0  0  0  0
 14 13  2  0  0  0  0
 15  9  1  0  0  0  0
 16  4  1  0  0  0  0
 17 19  1  6  0  0  0
 17 15  1  0  0  0  0
 18  9  2  0  0  0  0
 18  6  1  0  0  0  0
 19 23  1  0  0  0  0
 21 20  1  1  0  0  0
 22 21  1  0  0  0  0
 23 24  1  0  0  0  0
 24 22  1  0  0  0  0
 24 21  1  0  0  0  0
 25 23  2  0  0  0  0
M  END
>  <MODEL>
9

>  <REMARK>
 VINA RESULT:      -7.5      2.083      3.946
  Name = 
  2 active torsions:
  status: ('A' for Active; 'I' for Inactive)
    1  A    between atoms: C_6  and  C_15
    2  A    between atoms: C_6  and  C_23
                            x       y       z     vdW  Elec       q    Type
                         _______ _______ _______ _____ _____    ______ ____

>  <TORSDO>
F 2

$$$$
