=
 OpenBabel11052417403D

 31 34  0  0  1  0  0  0  0  0999 V2000
  185.6100  177.8110  141.1010 C   0  0  0  0  0  0  0  0  0  0  0  0
  187.7260  176.8940  144.0440 C   0  0  0  0  0  0  0  0  0  0  0  0
  186.9620  177.4940  145.2210 C   0  0  1  0  0  3  0  0  0  0  0  0
  184.4990  177.9540  145.6930 C   0  0  0  0  0  2  0  0  0  0  0  0
  187.2420  177.0020  142.7170 C   0  0  0  0  0  0  0  0  0  0  0  0
  186.3040  177.1760  140.0700 C   0  0  0  0  0  3  0  0  0  0  0  0
  185.5470  176.9190  145.2780 C   0  0  0  0  0  2  0  0  0  0  0  0
  189.6360  175.6040  143.2170 C   0  0  0  0  0  0  0  0  0  0  0  0
  184.1510  178.7110  140.7510 Cl  0  0  0  0  0  0  0  0  0  0  0  0
  189.1220  177.2000  146.5160 C   0  0  0  0  0  2  0  0  0  0  0  0
  184.9220  178.8970  146.8230 C   0  0  0  0  0  2  0  0  0  0  0  0
  189.1190  175.6740  141.9210 C   0  0  0  0  0  3  0  0  0  0  0  0
  188.9620  176.2460  144.2660 C   0  0  0  0  0  0  0  0  0  0  0  0
  186.0760  177.7250  142.4150 C   0  0  0  0  0  3  0  0  0  0  0  0
  185.6850  178.1900  147.9330 C   0  0  0  0  0  2  0  0  0  0  0  0
  187.9450  176.3740  141.6610 C   0  0  0  0  0  0  0  0  0  0  0  0
  187.4700  176.4600  140.3490 C   0  0  0  0  0  3  0  0  0  0  0  0
  189.5370  176.2570  145.5390 O   0  0  0  0  0  0  0  0  0  0  0  0
  187.6060  177.2160  146.5970 C   0  0  1  0  0  3  0  0  0  0  0  0
  187.1800  178.2420  147.6420 C   0  0  0  0  0  2  0  0  0  0  0  0
  192.4370  176.5660  142.8070 N   0  0  0  0  0  2  0  0  0  0  0  0
  192.2070  175.3900  143.2920 C   0  0  0  0  0  0  0  0  0  0  0  0
  190.8670  174.9170  143.5000 N   0  0  0  0  0  2  0  0  0  0  0  0
  193.2060  173.2330  143.2940 F   0  0  0  0  0  0  0  0  0  0  0  0
  193.3620  174.5400  143.7200 C   0  0  2  0  0  3  0  0  0  0  0  0
  193.8590  173.3240  145.7450 O   0  0  0  0  0  1  0  0  0  0  0  0
  193.6770  174.6090  145.2260 C   0  0  1  0  0  3  0  0  0  0  0  0
  194.8060  175.5570  145.6840 C   0  0  0  0  0  0  0  0  0  0  0  0
  195.6090  176.0920  144.5100 C   0  0  0  0  0  1  0  0  0  0  0  0
  194.2620  176.7250  146.4870 C   0  0  0  0  0  1  0  0  0  0  0  0
  195.6660  174.8450  146.4990 F   0  0  0  0  0  0  0  0  0  0  0  0
  1 14  1  0  0  0  0
  2 13  2  0  0  0  0
  2  3  1  0  0  0  0
  3  7  1  1  0  0  0
  3 19  1  0  0  0  0
  4 11  1  0  0  0  0
  5  2  1  0  0  0  0
  6 17  1  0  0  0  0
  6  1  2  0  0  0  0
  7  4  1  0  0  0  0
  8 23  1  0  0  0  0
  8 13  1  0  0  0  0
  9  1  1  0  0  0  0
 11 15  1  0  0  0  0
 12  8  2  0  0  0  0
 13 18  1  0  0  0  0
 14  5  2  0  0  0  0
 16 12  1  0  0  0  0
 16  5  1  0  0  0  0
 17 16  2  0  0  0  0
 18 10  1  0  0  0  0
 19 10  1  6  0  0  0
 19 20  1  0  0  0  0
 20 15  1  0  0  0  0
 21 22  2  0  0  0  0
 22 23  1  0  0  0  0
 22 25  1  0  0  0  0
 25 24  1  1  0  0  0
 25 27  1  0  0  0  0
 27 28  1  0  0  0  0
 27 26  1  6  0  0  0
 28 30  1  0  0  0  0
 28 31  1  0  0  0  0
 29 28  1  0  0  0  0
M  END
>  <MODEL>
1

>  <REMARK>
 VINA RESULT:      -8.3      0.000      0.000
  Name = 
  4 active torsions:
  status: ('A' for Active; 'I' for Inactive)
    1  A    between atoms: C_1  and  C_19
    2  A    between atoms: C_9  and  C_22
    3  A    between atoms: C_15  and  N_23
    4  A    between atoms: C_19  and  C_22
                            x       y       z     vdW  Elec       q    Type
                         _______ _______ _______ _____ _____    ______ ____

>  <TORSDO>
F 4

$$$$
=
 OpenBabel11052417403D

 31 34  0  0  1  0  0  0  0  0999 V2000
  185.2970  177.6750  146.3700 C   0  0  0  0  0  0  0  0  0  0  0  0
  187.8200  176.3980  143.9250 C   0  0  0  0  0  0  0  0  0  0  0  0
  187.2090  176.7610  142.5740 C   0  0  1  0  0  3  0  0  0  0  0  0
  185.6850  178.6350  141.7580 C   0  0  0  0  0  2  0  0  0  0  0  0
  187.1750  176.7310  145.1410 C   0  0  0  0  0  0  0  0  0  0  0  0
  185.9350  177.3920  147.5790 C   0  0  0  0  0  3  0  0  0  0  0  0
  186.9790  178.2690  142.4890 C   0  0  0  0  0  2  0  0  0  0  0  0
  189.6680  175.4200  145.2000 C   0  0  0  0  0  0  0  0  0  0  0  0
  183.7280  178.4480  146.3690 Cl  0  0  0  0  0  0  0  0  0  0  0  0
  188.8540  175.0920  141.6050 C   0  0  0  0  0  2  0  0  0  0  0  0
  185.3830  177.8050  140.5070 C   0  0  0  0  0  2  0  0  0  0  0  0
  189.0440  175.8010  146.3910 C   0  0  0  0  0  3  0  0  0  0  0  0
  189.0380  175.6820  143.9740 C   0  0  0  0  0  0  0  0  0  0  0  0
  185.9120  177.3460  145.1600 C   0  0  0  0  0  3  0  0  0  0  0  0
  186.6160  177.5410  139.6560 C   0  0  0  0  0  2  0  0  0  0  0  0
  187.8060  176.4360  146.3730 C   0  0  0  0  0  0  0  0  0  0  0  0
  187.1870  176.7730  147.5800 C   0  0  0  0  0  3  0  0  0  0  0  0
  189.6180  175.2090  142.7950 O   0  0  0  0  0  0  0  0  0  0  0  0
  188.0880  176.3810  141.3630 C   0  0  1  0  0  3  0  0  0  0  0  0
  187.2650  176.2310  140.0860 C   0  0  0  0  0  2  0  0  0  0  0  0
  192.4060  176.5560  144.8080 N   0  0  0  0  0  2  0  0  0  0  0  0
  192.2380  175.2900  145.0030 C   0  0  0  0  0  0  0  0  0  0  0  0
  190.9290  174.7310  145.1990 N   0  0  0  0  0  2  0  0  0  0  0  0
  193.2740  173.4520  146.0990 F   0  0  0  0  0  0  0  0  0  0  0  0
  193.4390  174.4030  145.1090 C   0  0  2  0  0  3  0  0  0  0  0  0
  194.9030  175.6490  146.5690 O   0  0  0  0  0  1  0  0  0  0  0  0
  194.7730  175.1570  145.2670 C   0  0  1  0  0  3  0  0  0  0  0  0
  196.0640  174.4430  144.8120 C   0  0  0  0  0  0  0  0  0  0  0  0
  196.7640  173.7450  145.9660 C   0  0  0  0  0  1  0  0  0  0  0  0
  195.7840  173.4320  143.7140 C   0  0  0  0  0  1  0  0  0  0  0  0
  196.9280  175.3940  144.3020 F   0  0  0  0  0  0  0  0  0  0  0  0
  1  6  1  0  0  0  0
  2 13  2  0  0  0  0
  2  5  1  0  0  0  0
  3  7  1  1  0  0  0
  3  2  1  0  0  0  0
  4  7  1  0  0  0  0
  5 14  1  0  0  0  0
  5 16  2  0  0  0  0
  6 17  2  0  0  0  0
  8 12  2  0  0  0  0
  9  1  1  0  0  0  0
 10 18  1  0  0  0  0
 11  4  1  0  0  0  0
 13  8  1  0  0  0  0
 14  1  2  0  0  0  0
 15 20  1  0  0  0  0
 15 11  1  0  0  0  0
 16 12  1  0  0  0  0
 16 17  1  0  0  0  0
 18 13  1  0  0  0  0
 19 20  1  6  0  0  0
 19 10  1  0  0  0  0
 19  3  1  0  0  0  0
 21 22  2  0  0  0  0
 22 25  1  0  0  0  0
 22 23  1  0  0  0  0
 23  8  1  0  0  0  0
 25 27  1  0  0  0  0
 25 24  1  1  0  0  0
 27 26  1  1  0  0  0
 28 27  1  0  0  0  0
 28 29  1  0  0  0  0
 30 28  1  0  0  0  0
 31 28  1  0  0  0  0
M  END
>  <MODEL>
2

>  <REMARK>
 VINA RESULT:      -8.2      1.823      4.296
  Name = 
  4 active torsions:
  status: ('A' for Active; 'I' for Inactive)
    1  A    between atoms: C_1  and  C_19
    2  A    between atoms: C_9  and  C_22
    3  A    between atoms: C_15  and  N_23
    4  A    between atoms: C_19  and  C_22
                            x       y       z     vdW  Elec       q    Type
                         _______ _______ _______ _____ _____    ______ ____

>  <TORSDO>
F 4

$$$$
=
 OpenBabel11052417403D

 31 34  0  0  1  0  0  0  0  0999 V2000
  193.9410  174.7780  145.2550 C   0  0  0  0  0  0  0  0  0  0  0  0
  190.5410  175.3100  143.7940 C   0  0  0  0  0  0  0  0  0  0  0  0
  190.5220  174.3560  142.6030 C   0  0  1  0  0  3  0  0  0  0  0  0
  191.6370  172.1190  142.1000 C   0  0  0  0  0  2  0  0  0  0  0  0
  191.6680  175.4050  144.6470 C   0  0  0  0  0  0  0  0  0  0  0  0
  193.8780  175.6070  146.3770 C   0  0  0  0  0  3  0  0  0  0  0  0
  190.7720  172.9240  143.0730 C   0  0  0  0  0  2  0  0  0  0  0  0
  189.3820  176.9650  145.1790 C   0  0  0  0  0  0  0  0  0  0  0  0
  195.3920  173.8580  144.9270 Cl  0  0  0  0  0  0  0  0  0  0  0  0
  188.5330  175.7100  141.8030 C   0  0  0  0  0  2  0  0  0  0  0  0
  191.3200  172.3280  140.6160 C   0  0  0  0  0  2  0  0  0  0  0  0
  190.4820  177.0080  146.0410 C   0  0  0  0  0  3  0  0  0  0  0  0
  189.4300  176.1490  144.0390 C   0  0  0  0  0  0  0  0  0  0  0  0
  192.8440  174.6790  144.3970 C   0  0  0  0  0  3  0  0  0  0  0  0
  189.8270  172.4000  140.3310 C   0  0  0  0  0  2  0  0  0  0  0  0
  191.6210  176.2530  145.7790 C   0  0  0  0  0  0  0  0  0  0  0  0
  192.7200  176.3440  146.6380 C   0  0  0  0  0  3  0  0  0  0  0  0
  188.3710  176.1870  143.1300 O   0  0  0  0  0  0  0  0  0  0  0  0
  189.1840  174.3390  141.8310 C   0  0  1  0  0  3  0  0  0  0  0  0
  189.3610  173.8490  140.3970 C   0  0  0  0  0  2  0  0  0  0  0  0
  187.0870  176.4080  147.0120 N   0  0  0  0  0  2  0  0  0  0  0  0
  187.1130  177.4820  146.2930 C   0  0  0  0  0  0  0  0  0  0  0  0
  188.2120  177.7650  145.4120 N   0  0  0  0  0  2  0  0  0  0  0  0
  185.7250  178.7150  147.7780 F   0  0  0  0  0  0  0  0  0  0  0  0
  186.0140  178.4870  146.4440 C   0  0  2  0  0  3  0  0  0  0  0  0
  183.6020  178.4990  146.3730 O   0  0  0  0  0  1  0  0  0  0  0  0
  184.7430  178.1640  145.6380 C   0  0  1  0  0  3  0  0  0  0  0  0
  184.6490  178.7010  144.1930 C   0  0  0  0  0  0  0  0  0  0  0  0
  185.4800  179.9580  144.0000 C   0  0  0  0  0  1  0  0  0  0  0  0
  185.0840  177.6570  143.1810 C   0  0  0  0  0  1  0  0  0  0  0  0
  183.3290  179.0180  143.9340 F   0  0  0  0  0  0  0  0  0  0  0  0
  1  6  1  0  0  0  0
  2 13  2  0  0  0  0
  2  5  1  0  0  0  0
  3  7  1  1  0  0  0
  3  2  1  0  0  0  0
  4  7  1  0  0  0  0
  5 16  2  0  0  0  0
  6 17  2  0  0  0  0
  8 23  1  0  0  0  0
  8 12  2  0  0  0  0
  9  1  1  0  0  0  0
 10 19  1  0  0  0  0
 10 18  1  0  0  0  0
 11  4  1  0  0  0  0
 13  8  1  0  0  0  0
 14  5  1  0  0  0  0
 14  1  2  0  0  0  0
 15 20  1  0  0  0  0
 15 11  1  0  0  0  0
 16 12  1  0  0  0  0
 16 17  1  0  0  0  0
 18 13  1  0  0  0  0
 19 20  1  6  0  0  0
 19  3  1  0  0  0  0
 22 25  1  0  0  0  0
 22 21  2  0  0  0  0
 23 22  1  0  0  0  0
 25 24  1  1  0  0  0
 27 26  1  1  0  0  0
 27 25  1  0  0  0  0
 28 27  1  0  0  0  0
 29 28  1  0  0  0  0
 30 28  1  0  0  0  0
 31 28  1  0  0  0  0
M  END
>  <MODEL>
3

>  <REMARK>
 VINA RESULT:      -8.1      4.383      8.326
  Name = 
  4 active torsions:
  status: ('A' for Active; 'I' for Inactive)
    1  A    between atoms: C_1  and  C_19
    2  A    between atoms: C_9  and  C_22
    3  A    between atoms: C_15  and  N_23
    4  A    between atoms: C_19  and  C_22
                            x       y       z     vdW  Elec       q    Type
                         _______ _______ _______ _____ _____    ______ ____

>  <TORSDO>
F 4

$$$$
=
 OpenBabel11052417403D

 31 34  0  0  1  0  0  0  0  0999 V2000
  192.3470  172.8870  140.7780 C   0  0  0  0  0  0  0  0  0  0  0  0
  191.0950  175.1570  143.4710 C   0  0  0  0  0  0  0  0  0  0  0  0
  192.3260  175.3650  144.3500 C   0  0  1  0  0  3  0  0  0  0  0  0
  194.8370  175.3990  143.9120 C   0  0  0  0  0  2  0  0  0  0  0  0
  191.1480  174.3570  142.3040 C   0  0  0  0  0  0  0  0  0  0  0  0
  191.2160  172.7940  139.9650 C   0  0  0  0  0  3  0  0  0  0  0  0
  193.4670  175.9590  143.5260 C   0  0  0  0  0  2  0  0  0  0  0  0
  188.7420  175.6460  143.0030 C   0  0  0  0  0  0  0  0  0  0  0  0
  193.8120  172.0370  140.3400 Cl  0  0  0  0  0  0  0  0  0  0  0  0
  190.6910  176.1970  146.1000 C   0  0  0  0  0  2  0  0  0  0  0  0
  195.0720  175.2240  145.4150 C   0  0  0  0  0  2  0  0  0  0  0  0
  188.8230  174.8960  141.8270 C   0  0  0  0  0  3  0  0  0  0  0  0
  189.8630  175.7410  143.8410 C   0  0  0  0  0  0  0  0  0  0  0  0
  192.3130  173.6630  141.9390 C   0  0  0  0  0  3  0  0  0  0  0  0
  194.5310  176.3810  146.2410 C   0  0  0  0  0  2  0  0  0  0  0  0
  190.0030  174.2440  141.4800 C   0  0  0  0  0  0  0  0  0  0  0  0
  190.0460  173.4700  140.3160 C   0  0  0  0  0  3  0  0  0  0  0  0
  189.7440  176.4070  145.0640 O   0  0  0  0  0  0  0  0  0  0  0  0
  192.0960  176.3230  145.5390 C   0  0  1  0  0  3  0  0  0  0  0  0
  193.0980  176.0830  146.6650 C   0  0  0  0  0  2  0  0  0  0  0  0
  187.6850  178.3010  142.1260 N   0  0  0  0  0  2  0  0  0  0  0  0
  187.0290  177.5760  142.9710 C   0  0  0  0  0  0  0  0  0  0  0  0
  187.5220  176.2960  143.3980 N   0  0  0  0  0  2  0  0  0  0  0  0
  184.9690  178.6310  142.4260 F   0  0  0  0  0  0  0  0  0  0  0  0
  185.6920  178.0460  143.4510 C   0  0  2  0  0  3  0  0  0  0  0  0
  185.3450  180.2520  144.3660 O   0  0  0  0  0  1  0  0  0  0  0  0
  185.7460  178.9550  144.6940 C   0  0  1  0  0  3  0  0  0  0  0  0
  185.0430  178.4640  145.9770 C   0  0  0  0  0  0  0  0  0  0  0  0
  185.1330  176.9550  146.1330 C   0  0  0  0  0  1  0  0  0  0  0  0
  185.6180  179.1270  147.2170 C   0  0  0  0  0  1  0  0  0  0  0  0
  183.7060  178.8050  145.8960 F   0  0  0  0  0  0  0  0  0  0  0  0
  1 14  1  0  0  0  0
  2 13  2  0  0  0  0
  2  3  1  0  0  0  0
  3  7  1  6  0  0  0
  3 19  1  0  0  0  0
  4 11  1  0  0  0  0
  5  2  1  0  0  0  0
  6 17  1  0  0  0  0
  6  1  2  0  0  0  0
  7  4  1  0  0  0  0
  8 23  1  0  0  0  0
  8 13  1  0  0  0  0
  9  1  1  0  0  0  0
 11 15  1  0  0  0  0
 12  8  2  0  0  0  0
 13 18  1  0  0  0  0
 14  5  2  0  0  0  0
 15 20  1  0  0  0  0
 16 12  1  0  0  0  0
 16  5  1  0  0  0  0
 17 16  2  0  0  0  0
 18 10  1  0  0  0  0
 19 10  1  1  0  0  0
 19 20  1  0  0  0  0
 21 22  2  0  0  0  0
 22 23  1  0  0  0  0
 22 25  1  0  0  0  0
 25 24  1  6  0  0  0
 25 27  1  0  0  0  0
 27 26  1  6  0  0  0
 27 28  1  0  0  0  0
 28 29  1  0  0  0  0
 28 30  1  0  0  0  0
 31 28  1  0  0  0  0
M  END
>  <MODEL>
4

>  <REMARK>
 VINA RESULT:      -7.9      4.059      7.533
  Name = 
  4 active torsions:
  status: ('A' for Active; 'I' for Inactive)
    1  A    between atoms: C_1  and  C_19
    2  A    between atoms: C_9  and  C_22
    3  A    between atoms: C_15  and  N_23
    4  A    between atoms: C_19  and  C_22
                            x       y       z     vdW  Elec       q    Type
                         _______ _______ _______ _____ _____    ______ ____

>  <TORSDO>
F 4

$$$$
=
 OpenBabel11052417403D

 31 34  0  0  1  0  0  0  0  0999 V2000
  194.4200  174.6210  145.6800 C   0  0  0  0  0  0  0  0  0  0  0  0
  191.1270  174.0760  143.9960 C   0  0  0  0  0  0  0  0  0  0  0  0
  191.3180  172.7380  143.2860 C   0  0  1  0  0  3  0  0  0  0  0  0
  192.7080  170.6550  143.7620 C   0  0  0  0  0  2  0  0  0  0  0  0
  192.1570  174.6470  144.7840 C   0  0  0  0  0  0  0  0  0  0  0  0
  194.1680  175.8060  146.3740 C   0  0  0  0  0  3  0  0  0  0  0  0
  191.6780  171.6520  144.2980 C   0  0  0  0  0  2  0  0  0  0  0  0
  189.6770  175.9680  144.5590 C   0  0  0  0  0  0  0  0  0  0  0  0
  195.9850  173.8500  145.8040 Cl  0  0  0  0  0  0  0  0  0  0  0  0
  189.2740  173.3910  141.9350 C   0  0  0  0  0  2  0  0  0  0  0  0
  192.5040  170.2220  142.3070 C   0  0  0  0  0  2  0  0  0  0  0  0
  190.6840  176.4930  145.3740 C   0  0  0  0  0  3  0  0  0  0  0  0
  189.9140  174.7860  143.8420 C   0  0  0  0  0  0  0  0  0  0  0  0
  193.4220  174.0460  144.8910 C   0  0  0  0  0  3  0  0  0  0  0  0
  191.0440  169.9750  141.9590 C   0  0  0  0  0  2  0  0  0  0  0  0
  191.9170  175.8560  145.4800 C   0  0  0  0  0  0  0  0  0  0  0  0
  192.9190  176.4220  146.2730 C   0  0  0  0  0  3  0  0  0  0  0  0
  188.9430  174.3220  142.9530 O   0  0  0  0  0  0  0  0  0  0  0  0
  190.0640  172.2410  142.5340 C   0  0  1  0  0  3  0  0  0  0  0  0
  190.4200  171.2580  141.4220 C   0  0  0  0  0  2  0  0  0  0  0  0
  188.8680  177.9770  142.4990 N   0  0  0  0  0  2  0  0  0  0  0  0
  188.0380  177.5990  143.4140 C   0  0  0  0  0  0  0  0  0  0  0  0
  188.4110  176.6300  144.4070 N   0  0  0  0  0  2  0  0  0  0  0  0
  186.4070  178.8820  142.2540 F   0  0  0  0  0  0  0  0  0  0  0  0
  186.6360  178.1210  143.3870 C   0  0  2  0  0  3  0  0  0  0  0  0
  185.5430  180.0530  144.3370 O   0  0  0  0  0  1  0  0  0  0  0  0
  186.2120  178.8700  144.6650 C   0  0  1  0  0  3  0  0  0  0  0  0
  185.4430  178.0780  145.7440 C   0  0  0  0  0  0  0  0  0  0  0  0
  186.1900  178.0490  147.0670 C   0  0  0  0  0  1  0  0  0  0  0  0
  184.0540  178.6470  145.9700 C   0  0  0  0  0  1  0  0  0  0  0  0
  185.3010  176.7750  145.3060 F   0  0  0  0  0  0  0  0  0  0  0  0
  1  9  1  0  0  0  0
  1  6  1  0  0  0  0
  2  5  1  0  0  0  0
  3  2  1  0  0  0  0
  3  7  1  1  0  0  0
  4  7  1  0  0  0  0
  5 14  1  0  0  0  0
  5 16  2  0  0  0  0
  8 12  2  0  0  0  0
 10 19  1  0  0  0  0
 10 18  1  0  0  0  0
 11  4  1  0  0  0  0
 12 16  1  0  0  0  0
 13  2  2  0  0  0  0
 13  8  1  0  0  0  0
 14  1  2  0  0  0  0
 15 11  1  0  0  0  0
 16 17  1  0  0  0  0
 17  6  2  0  0  0  0
 18 13  1  0  0  0  0
 19 20  1  6  0  0  0
 19  3  1  0  0  0  0
 20 15  1  0  0  0  0
 21 22  2  0  0  0  0
 22 23  1  0  0  0  0
 23  8  1  0  0  0  0
 25 24  1  6  0  0  0
 25 22  1  0  0  0  0
 25 27  1  0  0  0  0
 27 26  1  6  0  0  0
 27 28  1  0  0  0  0
 28 30  1  0  0  0  0
 28 29  1  0  0  0  0
 31 28  1  0  0  0  0
M  END
>  <MODEL>
5

>  <REMARK>
 VINA RESULT:      -7.9      4.276      8.319
  Name = 
  4 active torsions:
  status: ('A' for Active; 'I' for Inactive)
    1  A    between atoms: C_1  and  C_19
    2  A    between atoms: C_9  and  C_22
    3  A    between atoms: C_15  and  N_23
    4  A    between atoms: C_19  and  C_22
                            x       y       z     vdW  Elec       q    Type
                         _______ _______ _______ _____ _____    ______ ____

>  <TORSDO>
F 4

$$$$
=
 OpenBabel11052417403D

 31 34  0  0  1  0  0  0  0  0999 V2000
  195.3160  174.4750  144.7520 C   0  0  0  0  0  0  0  0  0  0  0  0
  191.7530  174.6840  143.6410 C   0  0  0  0  0  0  0  0  0  0  0  0
  191.7200  173.7830  142.4090 C   0  0  1  0  0  3  0  0  0  0  0  0
  193.0140  171.7080  141.6900 C   0  0  0  0  0  2  0  0  0  0  0  0
  192.9410  174.8690  144.3900 C   0  0  0  0  0  0  0  0  0  0  0  0
  195.2740  175.2450  145.9160 C   0  0  0  0  0  3  0  0  0  0  0  0
  192.1670  172.3700  142.7790 C   0  0  0  0  0  2  0  0  0  0  0  0
  190.5640  176.1400  145.2110 C   0  0  0  0  0  0  0  0  0  0  0  0
  196.8190  173.7380  144.2440 Cl  0  0  0  0  0  0  0  0  0  0  0  0
  189.5290  174.9390  141.8680 C   0  0  0  0  0  2  0  0  0  0  0  0
  192.5330  171.9410  140.2550 C   0  0  0  0  0  2  0  0  0  0  0  0
  191.7310  176.2710  145.9690 C   0  0  0  0  0  3  0  0  0  0  0  0
  190.5870  175.3830  144.0310 C   0  0  0  0  0  0  0  0  0  0  0  0
  194.1580  174.2890  143.9940 C   0  0  0  0  0  3  0  0  0  0  0  0
  191.0210  171.8570  140.1130 C   0  0  0  0  0  2  0  0  0  0  0  0
  192.9140  175.6590  145.5640 C   0  0  0  0  0  0  0  0  0  0  0  0
  194.0760  175.8370  146.3200 C   0  0  0  0  0  3  0  0  0  0  0  0
  189.4460  175.3400  143.2260 O   0  0  0  0  0  0  0  0  0  0  0  0
  190.3230  173.6490  141.7640 C   0  0  1  0  0  3  0  0  0  0  0  0
  190.4110  173.2410  140.2970 C   0  0  0  0  0  2  0  0  0  0  0  0
  188.4790  175.2040  147.1380 N   0  0  0  0  0  2  0  0  0  0  0  0
  188.3470  176.3300  146.5170 C   0  0  0  0  0  0  0  0  0  0  0  0
  189.3430  176.7950  145.5920 N   0  0  0  0  0  2  0  0  0  0  0  0
  186.3100  176.5790  147.7180 F   0  0  0  0  0  0  0  0  0  0  0  0
  187.1710  177.2010  146.8300 C   0  0  2  0  0  3  0  0  0  0  0  0
  185.7700  176.6790  144.9350 O   0  0  0  0  0  1  0  0  0  0  0  0
  186.4210  177.7270  145.5910 C   0  0  1  0  0  3  0  0  0  0  0  0
  185.4800  178.9360  145.7770 C   0  0  0  0  0  0  0  0  0  0  0  0
  185.4740  179.8430  144.5580 C   0  0  0  0  0  1  0  0  0  0  0  0
  184.0580  178.4950  146.0750 C   0  0  0  0  0  1  0  0  0  0  0  0
  185.9310  179.6740  146.8550 F   0  0  0  0  0  0  0  0  0  0  0  0
  1  6  1  0  0  0  0
  2 13  2  0  0  0  0
  2  5  1  0  0  0  0
  3  7  1  1  0  0  0
  3  2  1  0  0  0  0
  4  7  1  0  0  0  0
  5 16  2  0  0  0  0
  6 17  2  0  0  0  0
  8 23  1  0  0  0  0
  8 12  2  0  0  0  0
  9  1  1  0  0  0  0
 10 18  1  0  0  0  0
 11  4  1  0  0  0  0
 13  8  1  0  0  0  0
 14  5  1  0  0  0  0
 14  1  2  0  0  0  0
 15 11  1  0  0  0  0
 15 20  1  0  0  0  0
 16 12  1  0  0  0  0
 16 17  1  0  0  0  0
 18 13  1  0  0  0  0
 19 20  1  6  0  0  0
 19 10  1  0  0  0  0
 19  3  1  0  0  0  0
 22 25  1  0  0  0  0
 22 21  2  0  0  0  0
 23 22  1  0  0  0  0
 25 24  1  1  0  0  0
 27 26  1  1  0  0  0
 27 28  1  0  0  0  0
 27 25  1  0  0  0  0
 28 30  1  0  0  0  0
 28 31  1  0  0  0  0
 29 28  1  0  0  0  0
M  END
>  <MODEL>
6

>  <REMARK>
 VINA RESULT:      -7.8      4.185      8.428
  Name = 
  4 active torsions:
  status: ('A' for Active; 'I' for Inactive)
    1  A    between atoms: C_1  and  C_19
    2  A    between atoms: C_9  and  C_22
    3  A    between atoms: C_15  and  N_23
    4  A    between atoms: C_19  and  C_22
                            x       y       z     vdW  Elec       q    Type
                         _______ _______ _______ _____ _____    ______ ____

>  <TORSDO>
F 4

$$$$
=
 OpenBabel11052417403D

 31 34  0  0  1  0  0  0  0  0999 V2000
  186.5680  177.9160  146.4750 C   0  0  0  0  0  0  0  0  0  0  0  0
  189.1700  176.3870  144.2680 C   0  0  0  0  0  0  0  0  0  0  0  0
  190.4190  176.4010  145.1450 C   0  0  1  0  0  3  0  0  0  0  0  0
  190.8310  176.2530  147.6560 C   0  0  0  0  0  2  0  0  0  0  0  0
  187.9270  176.8730  144.7450 C   0  0  0  0  0  0  0  0  0  0  0  0
  185.4370  177.8080  145.6620 C   0  0  0  0  0  3  0  0  0  0  0  0
  190.1670  175.6180  146.4320 C   0  0  0  0  0  2  0  0  0  0  0  0
  188.1000  175.8040  142.1440 C   0  0  0  0  0  0  0  0  0  0  0  0
  186.4360  178.6280  148.0670 Cl  0  0  0  0  0  0  0  0  0  0  0  0
  191.6960  176.0320  142.9850 C   0  0  0  0  0  2  0  0  0  0  0  0
  192.2440  176.7950  147.4270 C   0  0  0  0  0  2  0  0  0  0  0  0
  186.8710  176.2380  142.6470 C   0  0  0  0  0  3  0  0  0  0  0  0
  189.2510  175.9160  142.9380 C   0  0  0  0  0  0  0  0  0  0  0  0
  187.8030  177.4520  146.0190 C   0  0  0  0  0  3  0  0  0  0  0  0
  193.1000  175.8800  146.5640 C   0  0  0  0  0  2  0  0  0  0  0  0
  186.7780  176.7810  143.9250 C   0  0  0  0  0  0  0  0  0  0  0  0
  185.5430  177.2420  144.3900 C   0  0  0  0  0  3  0  0  0  0  0  0
  190.4900  175.5750  142.3930 O   0  0  0  0  0  0  0  0  0  0  0  0
  191.6610  175.7680  144.4800 C   0  0  1  0  0  3  0  0  0  0  0  0
  192.9600  176.2770  145.0990 C   0  0  0  0  0  2  0  0  0  0  0  0
  188.1920  172.9420  141.2840 N   0  0  0  0  0  2  0  0  0  0  0  0
  188.2710  173.8950  140.4160 C   0  0  0  0  0  0  0  0  0  0  0  0
  188.2230  175.2750  140.8130 N   0  0  0  0  0  2  0  0  0  0  0  0
  187.8160  172.2910  138.7210 F   0  0  0  0  0  0  0  0  0  0  0  0
  188.3330  173.5520  138.9600 C   0  0  2  0  0  3  0  0  0  0  0  0
  190.5920  172.7210  138.7810 O   0  0  0  0  0  1  0  0  0  0  0  0
  189.7270  173.7200  138.3260 C   0  0  1  0  0  3  0  0  0  0  0  0
  189.8080  173.8690  136.7920 C   0  0  0  0  0  0  0  0  0  0  0  0
  191.0980  174.5430  136.3550 C   0  0  0  0  0  1  0  0  0  0  0  0
  189.6880  172.5260  136.0940 C   0  0  0  0  0  1  0  0  0  0  0  0
  188.7530  174.6590  136.3770 F   0  0  0  0  0  0  0  0  0  0  0  0
  1  9  1  0  0  0  0
  2  5  1  0  0  0  0
  2  3  1  0  0  0  0
  3  7  1  1  0  0  0
  5 14  2  0  0  0  0
  6  1  2  0  0  0  0
  7  4  1  0  0  0  0
  8 12  2  0  0  0  0
  8 13  1  0  0  0  0
 11  4  1  0  0  0  0
 12 16  1  0  0  0  0
 13  2  2  0  0  0  0
 14  1  1  0  0  0  0
 15 11  1  0  0  0  0
 16 17  2  0  0  0  0
 16  5  1  0  0  0  0
 17  6  1  0  0  0  0
 18 13  1  0  0  0  0
 18 10  1  0  0  0  0
 19 10  1  6  0  0  0
 19 20  1  0  0  0  0
 19  3  1  0  0  0  0
 20 15  1  0  0  0  0
 22 23  1  0  0  0  0
 22 21  2  0  0  0  0
 23  8  1  0  0  0  0
 25 24  1  1  0  0  0
 25 22  1  0  0  0  0
 27 26  1  6  0  0  0
 27 25  1  0  0  0  0
 28 27  1  0  0  0  0
 29 28  1  0  0  0  0
 30 28  1  0  0  0  0
 31 28  1  0  0  0  0
M  END
>  <MODEL>
7

>  <REMARK>
 VINA RESULT:      -7.7      3.775      6.416
  Name = 
  4 active torsions:
  status: ('A' for Active; 'I' for Inactive)
    1  A    between atoms: C_1  and  C_19
    2  A    between atoms: C_9  and  C_22
    3  A    between atoms: C_15  and  N_23
    4  A    between atoms: C_19  and  C_22
                            x       y       z     vdW  Elec       q    Type
                         _______ _______ _______ _____ _____    ______ ____

>  <TORSDO>
F 4

$$$$
=
 OpenBabel11052417403D

 31 34  0  0  1  0  0  0  0  0999 V2000
  185.9190  177.5320  141.2650 C   0  0  0  0  0  0  0  0  0  0  0  0
  187.8310  176.9640  144.4270 C   0  0  0  0  0  0  0  0  0  0  0  0
  186.9500  177.6180  145.4880 C   0  0  1  0  0  3  0  0  0  0  0  0
  184.4400  177.9900  145.7300 C   0  0  0  0  0  2  0  0  0  0  0  0
  187.4510  176.9400  143.0630 C   0  0  0  0  0  0  0  0  0  0  0  0
  186.7210  176.8520  140.3470 C   0  0  0  0  0  3  0  0  0  0  0  0
  185.5620  176.9790  145.4850 C   0  0  0  0  0  2  0  0  0  0  0  0
  189.8570  175.7090  143.8600 C   0  0  0  0  0  0  0  0  0  0  0  0
  184.4550  178.3260  140.7300 Cl  0  0  0  0  0  0  0  0  0  0  0  0
  189.0110  177.5380  146.9640 C   0  0  0  0  0  2  0  0  0  0  0  0
  184.7290  179.0410  146.8060 C   0  0  0  0  0  2  0  0  0  0  0  0
  189.4420  175.6480  142.5270 C   0  0  0  0  0  3  0  0  0  0  0  0
  189.0730  176.3990  144.7970 C   0  0  0  0  0  0  0  0  0  0  0  0
  186.2820  177.5760  142.6130 C   0  0  0  0  0  3  0  0  0  0  0  0
  185.4310  178.4660  148.0270 C   0  0  0  0  0  2  0  0  0  0  0  0
  188.2630  176.2650  142.1200 C   0  0  0  0  0  0  0  0  0  0  0  0
  187.8910  176.2210  140.7740 C   0  0  0  0  0  3  0  0  0  0  0  0
  189.5430  176.5420  146.1040 O   0  0  0  0  0  0  0  0  0  0  0  0
  187.4940  177.4840  146.9270 C   0  0  1  0  0  3  0  0  0  0  0  0
  186.9410  178.5690  147.8470 C   0  0  0  0  0  2  0  0  0  0  0  0
  190.3790  172.8590  144.5980 N   0  0  0  0  0  2  0  0  0  0  0  0
  191.3240  173.7390  144.6490 C   0  0  0  0  0  0  0  0  0  0  0  0
  191.0890  175.1100  144.2930 N   0  0  0  0  0  2  0  0  0  0  0  0
  193.1610  173.9500  146.1450 F   0  0  0  0  0  0  0  0  0  0  0  0
  192.7090  173.2990  145.0100 C   0  0  2  0  0  3  0  0  0  0  0  0
  194.4040  174.6210  143.9110 O   0  0  0  0  0  1  0  0  0  0  0  0
  193.7270  173.3990  143.8590 C   0  0  1  0  0  3  0  0  0  0  0  0
  194.7130  172.2270  143.6640 C   0  0  0  0  0  0  0  0  0  0  0  0
  195.7070  172.1250  144.8090 C   0  0  0  0  0  1  0  0  0  0  0  0
  193.9840  170.9030  143.5190 C   0  0  0  0  0  1  0  0  0  0  0  0
  195.4250  172.4490  142.5000 F   0  0  0  0  0  0  0  0  0  0  0  0
  1 14  1  0  0  0  0
  2 13  2  0  0  0  0
  2  3  1  0  0  0  0
  3  7  1  1  0  0  0
  3 19  1  0  0  0  0
  4 11  1  0  0  0  0
  5  2  1  0  0  0  0
  6 17  1  0  0  0  0
  6  1  2  0  0  0  0
  7  4  1  0  0  0  0
  8 23  1  0  0  0  0
  8 13  1  0  0  0  0
  9  1  1  0  0  0  0
 11 15  1  0  0  0  0
 12  8  2  0  0  0  0
 13 18  1  0  0  0  0
 14  5  2  0  0  0  0
 16 12  1  0  0  0  0
 16  5  1  0  0  0  0
 17 16  2  0  0  0  0
 18 10  1  0  0  0  0
 19 10  1  6  0  0  0
 19 20  1  0  0  0  0
 20 15  1  0  0  0  0
 21 22  2  0  0  0  0
 22 25  1  0  0  0  0
 23 22  1  0  0  0  0
 25 24  1  1  0  0  0
 27 26  1  1  0  0  0
 27 25  1  0  0  0  0
 28 27  1  0  0  0  0
 28 29  1  0  0  0  0
 30 28  1  0  0  0  0
 31 28  1  0  0  0  0
M  END
>  <MODEL>
8

>  <REMARK>
 VINA RESULT:      -7.3      1.571      2.189
  Name = 
  4 active torsions:
  status: ('A' for Active; 'I' for Inactive)
    1  A    between atoms: C_1  and  C_19
    2  A    between atoms: C_9  and  C_22
    3  A    between atoms: C_15  and  N_23
    4  A    between atoms: C_19  and  C_22
                            x       y       z     vdW  Elec       q    Type
                         _______ _______ _______ _____ _____    ______ ____

>  <TORSDO>
F 4

$$$$
=
 OpenBabel11052417403D

 31 34  0  0  1  0  0  0  0  0999 V2000
  191.5320  171.6380  141.4090 C   0  0  0  0  0  0  0  0  0  0  0  0
  191.6470  174.3420  143.9880 C   0  0  0  0  0  0  0  0  0  0  0  0
  193.1350  174.4520  144.3090 C   0  0  1  0  0  3  0  0  0  0  0  0
  195.2740  174.0600  142.9800 C   0  0  0  0  0  2  0  0  0  0  0  0
  191.1650  173.4250  143.0220 C   0  0  0  0  0  0  0  0  0  0  0  0
  190.1720  171.6320  141.0940 C   0  0  0  0  0  3  0  0  0  0  0  0
  193.9240  174.7770  143.0420 C   0  0  0  0  0  2  0  0  0  0  0  0
  189.3560  175.1290  144.3490 C   0  0  0  0  0  0  0  0  0  0  0  0
  192.6220  170.5350  140.6000 Cl  0  0  0  0  0  0  0  0  0  0  0  0
  192.3910  175.7020  146.3870 C   0  0  0  0  0  2  0  0  0  0  0  0
  196.0500  174.0100  144.2990 C   0  0  0  0  0  2  0  0  0  0  0  0
  188.9030  174.2560  143.3560 C   0  0  0  0  0  3  0  0  0  0  0  0
  190.7160  175.1410  144.6900 C   0  0  0  0  0  0  0  0  0  0  0  0
  192.0250  172.5270  142.3660 C   0  0  0  0  0  3  0  0  0  0  0  0
  195.9870  175.3160  145.0760 C   0  0  0  0  0  2  0  0  0  0  0  0
  189.7860  173.4000  142.7050 C   0  0  0  0  0  0  0  0  0  0  0  0
  189.3010  172.5110  141.7420 C   0  0  0  0  0  3  0  0  0  0  0  0
  191.1440  175.9410  145.7520 O   0  0  0  0  0  0  0  0  0  0  0  0
  193.4770  175.5530  145.3360 C   0  0  1  0  0  3  0  0  0  0  0  0
  194.8060  175.2850  146.0380 C   0  0  0  0  0  2  0  0  0  0  0  0
  188.2910  177.7930  143.5090 N   0  0  0  0  0  2  0  0  0  0  0  0
  187.9540  177.2750  144.6440 C   0  0  0  0  0  0  0  0  0  0  0  0
  188.4540  175.9940  145.0580 N   0  0  0  0  0  2  0  0  0  0  0  0
  187.2570  177.8320  146.8470 F   0  0  0  0  0  0  0  0  0  0  0  0
  186.9610  177.9910  145.5050 C   0  0  2  0  0  3  0  0  0  0  0  0
  184.8080  177.3520  146.3900 O   0  0  0  0  0  1  0  0  0  0  0  0
  185.4910  177.6400  145.2050 C   0  0  1  0  0  3  0  0  0  0  0  0
  184.6830  178.6130  144.3210 C   0  0  0  0  0  0  0  0  0  0  0  0
  185.4180  179.9250  144.1030 C   0  0  0  0  0  1  0  0  0  0  0  0
  184.3530  177.9980  142.9720 C   0  0  0  0  0  1  0  0  0  0  0  0
  183.4910  178.8930  144.9620 F   0  0  0  0  0  0  0  0  0  0  0  0
  1 14  1  0  0  0  0
  2  3  1  0  0  0  0
  2 13  2  0  0  0  0
  3  7  1  6  0  0  0
  3 19  1  0  0  0  0
  4  7  1  0  0  0  0
  4 11  1  0  0  0  0
  5  2  1  0  0  0  0
  6  1  2  0  0  0  0
  6 17  1  0  0  0  0
  8 13  1  0  0  0  0
  8 23  1  0  0  0  0
  9  1  1  0  0  0  0
 11 15  1  0  0  0  0
 12  8  2  0  0  0  0
 13 18  1  0  0  0  0
 14  5  2  0  0  0  0
 15 20  1  0  0  0  0
 16  5  1  0  0  0  0
 16 12  1  0  0  0  0
 17 16  2  0  0  0  0
 18 10  1  0  0  0  0
 19 20  1  1  0  0  0
 19 10  1  0  0  0  0
 21 22  2  0  0  0  0
 22 23  1  0  0  0  0
 22 25  1  0  0  0  0
 25 24  1  1  0  0  0
 27 25  1  0  0  0  0
 27 26  1  1  0  0  0
 28 31  1  0  0  0  0
 28 27  1  0  0  0  0
 29 28  1  0  0  0  0
 30 28  1  0  0  0  0
M  END
>  <MODEL>
9

>  <REMARK>
 VINA RESULT:      -7.2      3.983      7.924
  Name = 
  4 active torsions:
  status: ('A' for Active; 'I' for Inactive)
    1  A    between atoms: C_1  and  C_19
    2  A    between atoms: C_9  and  C_22
    3  A    between atoms: C_15  and  N_23
    4  A    between atoms: C_19  and  C_22
                            x       y       z     vdW  Elec       q    Type
                         _______ _______ _______ _____ _____    ______ ____

>  <TORSDO>
F 4

$$$$
