=
 OpenBabel11052421293D

 32 37  0  0  1  0  0  0  0  0999 V2000
  196.1400  174.8820  144.0780 C   0  0  2  0  0  3  0  0  0  0  0  0
  193.7000  174.6140  146.1870 C   0  0  0  0  0  2  0  0  0  0  0  0
  190.5770  177.6800  143.1730 C   0  0  0  0  0  2  0  0  0  0  0  0
  188.5630  172.1880  142.3180 C   0  0  0  0  0  3  0  0  0  0  0  0
  187.4390  172.8800  141.8270 C   0  0  0  0  0  3  0  0  0  0  0  0
  192.4720  176.8900  144.7140 C   0  0  2  0  0  3  0  0  0  0  0  0
  191.0320  174.8940  144.9840 C   0  0  0  0  0  2  0  0  0  0  0  0
  196.0800  174.5480  145.5650 C   0  0  0  0  0  2  0  0  0  0  0  0
  192.5350  175.4380  146.7320 C   0  0  0  0  0  2  0  0  0  0  0  0
  189.6110  172.8870  142.9390 C   0  0  0  0  0  3  0  0  0  0  0  0
  190.4810  175.2450  143.6050 C   0  0  1  0  0  3  0  0  0  0  0  0
  189.4940  174.2710  143.0700 C   0  0  0  0  0  0  0  0  0  0  0  0
  188.5200  176.3430  142.7930 N   0  0  0  0  0  0  0  0  0  0  0  0
  195.3000  176.1290  143.8590 C   0  0  0  0  0  2  0  0  0  0  0  0
  194.9640  176.6280  145.2470 C   0  0  1  0  0  3  0  0  0  0  0  0
  195.6050  173.8280  143.3390 O   0  0  0  0  0  1  0  0  0  0  0  0
  191.7170  176.0170  145.6560 N   0  0  1  0  0  0  0  0  0  0  0  0
  193.7260  177.5230  145.3270 C   0  0  0  0  0  2  0  0  0  0  0  0
  194.9960  175.4190  146.1730 C   0  0  1  0  0  3  0  0  0  0  0  0
  187.3560  174.2770  141.9490 C   0  0  0  0  0  3  0  0  0  0  0  0
  188.4110  174.9460  142.5710 C   0  0  0  0  0  0  0  0  0  0  0  0
  191.5770  178.0550  144.2670 C   0  0  0  0  0  2  0  0  0  0  0  0
  189.6830  176.5540  143.6530 C   0  0  2  0  0  3  0  0  0  0  0  0
  187.4060  177.2810  142.6950 C   0  0  0  0  0  2  0  0  0  0  0  0
  187.1160  176.7820  145.0500 C   0  0  0  0  0  3  0  0  0  0  0  0
  186.7470  177.0490  146.4730 C   0  0  1  0  0  3  0  0  0  0  0  0
  185.2330  179.2180  145.0700 C   0  0  0  0  0  3  0  0  0  0  0  0
  184.6320  178.2750  146.0320 C   0  0  0  0  0  3  0  0  0  0  0  0
  185.2820  177.2780  146.6310 C   0  0  0  0  0  3  0  0  0  0  0  0
  187.1320  175.9770  147.2550 F   0  0  0  0  0  0  0  0  0  0  0  0
  186.2270  178.9460  144.2160 C   0  0  0  0  0  3  0  0  0  0  0  0
  186.9150  177.6480  144.0550 C   0  0  0  0  0  0  0  0  0  0  0  0
  1 16  1  6  0  0  0
  1  8  1  0  0  0  0
  2  9  1  0  0  0  0
  3 22  1  0  0  0  0
  4 10  1  0  0  0  0
  5 20  1  0  0  0  0
  5  4  2  0  0  0  0
  6 22  1  1  0  0  0
  6 18  1  0  0  0  0
  6 17  1  0  0  0  0
 10 12  2  0  0  0  0
 11 23  1  0  0  0  0
 11  7  1  1  0  0  0
 12 11  1  0  0  0  0
 13 23  1  0  0  0  0
 14  1  1  0  0  0  0
 15 14  1  6  0  0  0
 15 18  1  0  0  0  0
 15 19  1  0  0  0  0
 17  7  1  6  0  0  0
 17  9  1  0  0  0  0
 19  8  1  6  0  0  0
 19  2  1  0  0  0  0
 20 21  2  0  0  0  0
 21 13  1  0  0  0  0
 21 12  1  0  0  0  0
 23  3  1  6  0  0  0
 24 13  1  0  0  0  0
 24 32  1  0  0  0  0
 25 26  1  0  0  0  0
 26 29  1  0  0  0  0
 26 30  1  1  0  0  0
 27 28  1  0  0  0  0
 28 29  2  0  0  0  0
 31 27  2  0  0  0  0
 32 31  1  0  0  0  0
 32 25  2  0  0  0  0
M  END
>  <MODEL>
1

>  <REMARK>
 VINA RESULT:      -9.4      0.000      0.000
  Name = 
  2 active torsions:
  status: ('A' for Active; 'I' for Inactive)
    1  A    between atoms: N_16  and  C_27
    2  A    between atoms: C_27  and  C_32
                            x       y       z     vdW  Elec       q    Type
                         _______ _______ _______ _____ _____    ______ ____

>  <TORSDO>
F 2

$$$$
=
 OpenBabel11052421293D

 32 37  0  0  1  0  0  0  0  0999 V2000
  195.2480  175.3590  144.6710 C   0  0  2  0  0  3  0  0  0  0  0  0
  192.4110  174.1190  145.6140 C   0  0  0  0  0  2  0  0  0  0  0  0
  189.7340  177.6870  142.7270 C   0  0  0  0  0  2  0  0  0  0  0  0
  189.3030  172.6500  139.6630 C   0  0  0  0  0  3  0  0  0  0  0  0
  188.2530  173.3440  139.0320 C   0  0  0  0  0  3  0  0  0  0  0  0
  191.2120  176.6190  144.5340 C   0  0  2  0  0  3  0  0  0  0  0  0
  190.2250  174.5110  143.6890 C   0  0  0  0  0  2  0  0  0  0  0  0
  194.8240  174.5270  145.8780 C   0  0  0  0  0  2  0  0  0  0  0  0
  190.9880  174.5740  145.9300 C   0  0  0  0  0  2  0  0  0  0  0  0
  189.9430  173.1970  140.7860 C   0  0  0  0  0  3  0  0  0  0  0  0
  190.0450  175.2570  142.3700 C   0  0  1  0  0  3  0  0  0  0  0  0
  189.4960  174.4300  141.2640 C   0  0  0  0  0  0  0  0  0  0  0  0
  188.2230  176.3530  141.2780 N   0  0  0  0  0  0  0  0  0  0  0  0
  194.2610  176.5080  144.5440 C   0  0  0  0  0  2  0  0  0  0  0  0
  193.4300  176.4560  145.8070 C   0  0  1  0  0  3  0  0  0  0  0  0
  195.1970  174.5750  143.5190 O   0  0  0  0  0  1  0  0  0  0  0  0
  190.4200  175.3980  144.8540 N   0  0  1  0  0  0  0  0  0  0  0  0
  192.0600  177.1310  145.7040 C   0  0  0  0  0  2  0  0  0  0  0  0
  193.4470  175.0120  146.2910 C   0  0  1  0  0  3  0  0  0  0  0  0
  187.8380  174.5950  139.5180 C   0  0  0  0  0  3  0  0  0  0  0  0
  188.4900  175.1160  140.6360 C   0  0  0  0  0  0  0  0  0  0  0  0
  190.2600  177.7640  144.1600 C   0  0  0  0  0  2  0  0  0  0  0  0
  189.0050  176.3760  142.5130 C   0  0  2  0  0  3  0  0  0  0  0  0
  187.0130  177.1420  141.0730 C   0  0  0  0  0  2  0  0  0  0  0  0
  186.2660  178.7940  142.6840 C   0  0  0  0  0  3  0  0  0  0  0  0
  185.6010  179.2960  143.9230 C   0  0  1  0  0  3  0  0  0  0  0  0
  185.9920  176.4090  144.6130 C   0  0  0  0  0  3  0  0  0  0  0  0
  186.4210  177.5320  145.4670 C   0  0  0  0  0  3  0  0  0  0  0  0
  186.2940  178.8210  145.1550 C   0  0  0  0  0  3  0  0  0  0  0  0
  185.5870  180.6780  143.9070 F   0  0  0  0  0  0  0  0  0  0  0  0
  185.9780  176.3980  143.2750 C   0  0  0  0  0  3  0  0  0  0  0  0
  186.3970  177.5000  142.3830 C   0  0  0  0  0  0  0  0  0  0  0  0
  1 16  1  6  0  0  0
  1  8  1  0  0  0  0
  2  9  1  0  0  0  0
  3 22  1  0  0  0  0
  4 10  1  0  0  0  0
  5 20  1  0  0  0  0
  5  4  2  0  0  0  0
  6 22  1  1  0  0  0
  6 17  1  0  0  0  0
  6 18  1  0  0  0  0
  8 19  1  0  0  0  0
 10 12  2  0  0  0  0
 11 23  1  0  0  0  0
 11  7  1  1  0  0  0
 12 11  1  0  0  0  0
 13 23  1  0  0  0  0
 14  1  1  0  0  0  0
 15 14  1  6  0  0  0
 15 19  1  0  0  0  0
 17  7  1  6  0  0  0
 17  9  1  0  0  0  0
 18 15  1  0  0  0  0
 19  2  1  6  0  0  0
 20 21  2  0  0  0  0
 21 12  1  0  0  0  0
 21 13  1  0  0  0  0
 23  3  1  6  0  0  0
 24 13  1  0  0  0  0
 24 32  1  0  0  0  0
 25 26  1  0  0  0  0
 26 30  1  6  0  0  0
 26 29  1  0  0  0  0
 27 28  1  0  0  0  0
 29 28  2  0  0  0  0
 31 27  2  0  0  0  0
 32 25  2  0  0  0  0
 32 31  1  0  0  0  0
M  END
>  <MODEL>
2

>  <REMARK>
 VINA RESULT:      -9.3      1.827      2.240
  Name = 
  2 active torsions:
  status: ('A' for Active; 'I' for Inactive)
    1  A    between atoms: N_16  and  C_27
    2  A    between atoms: C_27  and  C_32
                            x       y       z     vdW  Elec       q    Type
                         _______ _______ _______ _____ _____    ______ ____

>  <TORSDO>
F 2

$$$$
=
 OpenBabel11052421293D

 32 37  0  0  1  0  0  0  0  0999 V2000
  193.9380  174.0290  143.5580 C   0  0  2  0  0  3  0  0  0  0  0  0
  190.9430  172.9740  144.1850 C   0  0  0  0  0  2  0  0  0  0  0  0
  189.1230  177.9510  144.5790 C   0  0  0  0  0  2  0  0  0  0  0  0
  187.1660  176.0470  139.3360 C   0  0  0  0  0  3  0  0  0  0  0  0
  186.2970  177.1480  139.4730 C   0  0  0  0  0  3  0  0  0  0  0  0
  190.3820  175.7640  145.0540 C   0  0  2  0  0  3  0  0  0  0  0  0
  188.8160  174.8350  143.3760 C   0  0  0  0  0  2  0  0  0  0  0  0
  193.3890  172.7170  144.1090 C   0  0  0  0  0  2  0  0  0  0  0  0
  189.7160  173.3690  145.0040 C   0  0  0  0  0  2  0  0  0  0  0  0
  188.0020  175.6660  140.3970 C   0  0  0  0  0  3  0  0  0  0  0  0
  188.7520  176.2520  142.8170 C   0  0  1  0  0  3  0  0  0  0  0  0
  187.9310  176.3930  141.5860 C   0  0  0  0  0  0  0  0  0  0  0  0
  187.2180  178.0760  142.9920 N   0  0  0  0  0  0  0  0  0  0  0  0
  193.2850  175.1570  144.3400 C   0  0  0  0  0  2  0  0  0  0  0  0
  192.5560  174.4770  145.4790 C   0  0  1  0  0  3  0  0  0  0  0  0
  193.6040  174.1480  142.2090 O   0  0  0  0  0  1  0  0  0  0  0  0
  189.3170  174.7630  144.7640 N   0  0  1  0  0  0  0  0  0  0  0  0
  191.4120  175.2920  146.0860 C   0  0  0  0  0  2  0  0  0  0  0  0
  192.2220  173.0670  145.0130 C   0  0  1  0  0  3  0  0  0  0  0  0
  186.2630  177.8790  140.6710 C   0  0  0  0  0  3  0  0  0  0  0  0
  187.1040  177.4780  141.7110 C   0  0  0  0  0  0  0  0  0  0  0  0
  189.7450  177.0350  145.6340 C   0  0  0  0  0  2  0  0  0  0  0  0
  188.0590  177.1990  143.8040 C   0  0  2  0  0  3  0  0  0  0  0  0
  186.2500  179.0140  143.5520 C   0  0  0  0  0  2  0  0  0  0  0  0
  186.0510  179.4310  145.9320 C   0  0  0  0  0  3  0  0  0  0  0  0
  185.6240  179.1660  147.3390 C   0  0  1  0  0  3  0  0  0  0  0  0
  185.3650  176.4360  146.1370 C   0  0  0  0  0  3  0  0  0  0  0  0
  186.1170  176.7320  147.3710 C   0  0  0  0  0  3  0  0  0  0  0  0
  186.2780  177.9460  147.8950 C   0  0  0  0  0  3  0  0  0  0  0  0
  185.9420  180.2560  148.1260 F   0  0  0  0  0  0  0  0  0  0  0  0
  185.2440  177.2430  145.0770 C   0  0  0  0  0  3  0  0  0  0  0  0
  185.8440  178.5850  144.9210 C   0  0  0  0  0  0  0  0  0  0  0  0
  1 16  1  6  0  0  0
  1  8  1  0  0  0  0
  1 14  1  0  0  0  0
  2  9  1  0  0  0  0
  2 19  1  0  0  0  0
  3 22  1  0  0  0  0
  4  5  2  0  0  0  0
  4 10  1  0  0  0  0
  5 20  1  0  0  0  0
  6 22  1  1  0  0  0
  6 18  1  0  0  0  0
 10 12  2  0  0  0  0
 11  7  1  1  0  0  0
 11 23  1  0  0  0  0
 12 21  1  0  0  0  0
 12 11  1  0  0  0  0
 13 24  1  0  0  0  0
 13 23  1  0  0  0  0
 15 14  1  6  0  0  0
 15 18  1  0  0  0  0
 17  7  1  6  0  0  0
 17  9  1  0  0  0  0
 17  6  1  0  0  0  0
 19  8  1  6  0  0  0
 19 15  1  0  0  0  0
 20 21  2  0  0  0  0
 21 13  1  0  0  0  0
 23  3  1  6  0  0  0
 24 32  1  0  0  0  0
 25 26  1  0  0  0  0
 26 29  1  0  0  0  0
 26 30  1  1  0  0  0
 27 28  1  0  0  0  0
 28 29  2  0  0  0  0
 31 27  2  0  0  0  0
 32 31  1  0  0  0  0
 32 25  2  0  0  0  0
M  END
>  <MODEL>
3

>  <REMARK>
 VINA RESULT:      -8.9      2.072      3.097
  Name = 
  2 active torsions:
  status: ('A' for Active; 'I' for Inactive)
    1  A    between atoms: N_16  and  C_27
    2  A    between atoms: C_27  and  C_32
                            x       y       z     vdW  Elec       q    Type
                         _______ _______ _______ _____ _____    ______ ____

>  <TORSDO>
F 2

$$$$
=
 OpenBabel11052421293D

 32 37  0  0  1  0  0  0  0  0999 V2000
  191.2920  169.8970  141.7040 C   0  0  2  0  0  3  0  0  0  0  0  0
  192.8310  172.7260  141.3860 C   0  0  0  0  0  2  0  0  0  0  0  0
  188.4480  175.4170  142.7230 C   0  0  0  0  0  2  0  0  0  0  0  0
  191.9000  175.6960  147.5140 C   0  0  0  0  0  3  0  0  0  0  0  0
  191.0250  176.7480  147.8500 C   0  0  0  0  0  3  0  0  0  0  0  0
  190.1200  173.9520  141.4380 C   0  0  2  0  0  3  0  0  0  0  0  0
  191.7430  174.8840  143.0600 C   0  0  0  0  0  2  0  0  0  0  0  0
  192.5320  170.3270  140.9260 C   0  0  0  0  0  2  0  0  0  0  0  0
  192.5490  174.1630  140.9530 C   0  0  0  0  0  2  0  0  0  0  0  0
  191.8260  175.0870  146.2510 C   0  0  0  0  0  3  0  0  0  0  0  0
  190.5440  175.0540  143.9890 C   0  0  1  0  0  3  0  0  0  0  0  0
  190.8810  175.5660  145.3420 C   0  0  0  0  0  0  0  0  0  0  0  0
  189.1290  176.8760  144.6130 N   0  0  0  0  0  0  0  0  0  0  0  0
  190.1940  170.9030  141.3980 C   0  0  0  0  0  2  0  0  0  0  0  0
  190.7430  171.7560  140.2750 C   0  0  1  0  0  3  0  0  0  0  0  0
  191.5660  169.9110  143.0700 O   0  0  0  0  0  1  0  0  0  0  0  0
  191.3770  174.7270  141.6370 N   0  0  1  0  0  0  0  0  0  0  0  0
  190.0950  173.1360  140.1410 C   0  0  0  0  0  2  0  0  0  0  0  0
  192.2600  171.7200  140.3910 C   0  0  1  0  0  3  0  0  0  0  0  0
  190.0660  177.1950  146.9270 C   0  0  0  0  0  3  0  0  0  0  0  0
  190.0150  176.5740  145.6780 C   0  0  0  0  0  0  0  0  0  0  0  0
  188.9300  174.9190  141.3600 C   0  0  0  0  0  2  0  0  0  0  0  0
  189.5800  176.1170  143.4470 C   0  0  2  0  0  3  0  0  0  0  0  0
  188.3340  178.0970  144.5240 C   0  0  0  0  0  2  0  0  0  0  0  0
  185.9620  178.5170  144.2530 C   0  0  0  0  0  3  0  0  0  0  0  0
  184.4990  178.2910  144.4510 C   0  0  1  0  0  3  0  0  0  0  0  0
  185.6310  176.7910  146.7820 C   0  0  0  0  0  3  0  0  0  0  0  0
  184.5730  177.8130  146.8880 C   0  0  0  0  0  3  0  0  0  0  0  0
  184.0890  178.5200  145.8670 C   0  0  0  0  0  3  0  0  0  0  0  0
  183.7880  179.1400  143.6250 F   0  0  0  0  0  0  0  0  0  0  0  0
  186.6430  176.7920  145.9060 C   0  0  0  0  0  3  0  0  0  0  0  0
  186.9130  177.8190  144.8770 C   0  0  0  0  0  0  0  0  0  0  0  0
  1 16  1  1  0  0  0
  4  5  1  0  0  0  0
  6 18  1  6  0  0  0
  6 17  1  0  0  0  0
  8  1  1  0  0  0  0
  9  2  1  0  0  0  0
 10  4  2  0  0  0  0
 11  7  1  6  0  0  0
 11 12  1  0  0  0  0
 12 21  2  0  0  0  0
 12 10  1  0  0  0  0
 13 21  1  0  0  0  0
 14  1  1  0  0  0  0
 15 18  1  1  0  0  0
 15 19  1  0  0  0  0
 15 14  1  0  0  0  0
 17  9  1  6  0  0  0
 17  7  1  0  0  0  0
 19  8  1  1  0  0  0
 19  2  1  0  0  0  0
 20  5  2  0  0  0  0
 21 20  1  0  0  0  0
 22  6  1  0  0  0  0
 22  3  1  0  0  0  0
 23  3  1  1  0  0  0
 23 11  1  0  0  0  0
 23 13  1  0  0  0  0
 24 13  1  0  0  0  0
 24 32  1  0  0  0  0
 25 26  1  0  0  0  0
 25 32  2  0  0  0  0
 26 30  1  6  0  0  0
 26 29  1  0  0  0  0
 27 28  1  0  0  0  0
 29 28  2  0  0  0  0
 31 27  2  0  0  0  0
 32 31  1  0  0  0  0
M  END
>  <MODEL>
4

>  <REMARK>
 VINA RESULT:      -8.8      2.607      5.008
  Name = 
  2 active torsions:
  status: ('A' for Active; 'I' for Inactive)
    1  A    between atoms: N_16  and  C_27
    2  A    between atoms: C_27  and  C_32
                            x       y       z     vdW  Elec       q    Type
                         _______ _______ _______ _____ _____    ______ ____

>  <TORSDO>
F 2

$$$$
=
 OpenBabel11052421293D

 32 37  0  0  1  0  0  0  0  0999 V2000
  196.8850  175.9720  140.7290 C   0  0  2  0  0  3  0  0  0  0  0  0
  195.7940  173.8130  142.8790 C   0  0  0  0  0  2  0  0  0  0  0  0
  191.6860  176.9400  144.1410 C   0  0  0  0  0  2  0  0  0  0  0  0
  189.3460  172.6670  140.7930 C   0  0  0  0  0  3  0  0  0  0  0  0
  188.1480  173.1370  141.3640 C   0  0  0  0  0  3  0  0  0  0  0  0
  194.0700  176.0200  143.8860 C   0  0  2  0  0  3  0  0  0  0  0  0
  192.8890  173.9170  143.3230 C   0  0  0  0  0  2  0  0  0  0  0  0
  197.5560  174.8400  141.5020 C   0  0  0  0  0  2  0  0  0  0  0  0
  195.0740  173.7710  144.2260 C   0  0  0  0  0  2  0  0  0  0  0  0
  190.5850  173.1530  141.2410 C   0  0  0  0  0  3  0  0  0  0  0  0
  191.7420  174.8160  142.8720 C   0  0  1  0  0  3  0  0  0  0  0  0
  190.5900  174.0910  142.2740 C   0  0  0  0  0  0  0  0  0  0  0  0
  189.6700  175.5270  143.8260 N   0  0  0  0  0  0  0  0  0  0  0  0
  196.0850  176.7910  141.7290 C   0  0  0  0  0  2  0  0  0  0  0  0
  196.4920  176.2640  143.0870 C   0  0  1  0  0  3  0  0  0  0  0  0
  196.0230  175.4400  139.7710 O   0  0  0  0  0  1  0  0  0  0  0  0
  193.8500  174.5860  144.2240 N   0  0  1  0  0  0  0  0  0  0  0  0
  195.4820  176.5230  144.2070 C   0  0  0  0  0  2  0  0  0  0  0  0
  196.9390  174.8220  142.8880 C   0  0  1  0  0  3  0  0  0  0  0  0
  188.1790  174.1000  142.3860 C   0  0  0  0  0  3  0  0  0  0  0  0
  189.4230  174.5650  142.8140 C   0  0  0  0  0  0  0  0  0  0  0  0
  193.1070  176.8920  144.7050 C   0  0  0  0  0  2  0  0  0  0  0  0
  191.1120  175.5400  144.0680 C   0  0  2  0  0  3  0  0  0  0  0  0
  188.6820  175.9590  144.8100 C   0  0  0  0  0  2  0  0  0  0  0  0
  187.0540  177.7270  145.1310 C   0  0  0  0  0  3  0  0  0  0  0  0
  186.3150  178.9850  144.8090 C   0  0  1  0  0  3  0  0  0  0  0  0
  187.4590  178.2910  142.1310 C   0  0  0  0  0  3  0  0  0  0  0  0
  186.0340  178.5800  142.3750 C   0  0  0  0  0  3  0  0  0  0  0  0
  185.5020  178.8480  143.5670 C   0  0  0  0  0  3  0  0  0  0  0  0
  185.4880  179.3120  145.8660 F   0  0  0  0  0  0  0  0  0  0  0  0
  188.2960  177.6850  142.9800 C   0  0  0  0  0  3  0  0  0  0  0  0
  187.9640  177.1730  144.3260 C   0  0  0  0  0  0  0  0  0  0  0  0
  1 16  1  6  0  0  0
  1  8  1  0  0  0  0
  1 14  1  0  0  0  0
  2 19  1  0  0  0  0
  2  9  1  0  0  0  0
  3 22  1  0  0  0  0
  4 10  2  0  0  0  0
  4  5  1  0  0  0  0
  5 20  2  0  0  0  0
  6 18  1  1  0  0  0
  6 17  1  0  0  0  0
  6 22  1  0  0  0  0
 10 12  1  0  0  0  0
 11  7  1  1  0  0  0
 11 23  1  0  0  0  0
 12 21  2  0  0  0  0
 12 11  1  0  0  0  0
 13 23  1  0  0  0  0
 13 24  1  0  0  0  0
 15 14  1  6  0  0  0
 15 18  1  0  0  0  0
 17  7  1  6  0  0  0
 17  9  1  0  0  0  0
 19  8  1  6  0  0  0
 19 15  1  0  0  0  0
 20 21  1  0  0  0  0
 21 13  1  0  0  0  0
 23  3  1  6  0  0  0
 26 25  1  0  0  0  0
 26 30  1  1  0  0  0
 27 28  1  0  0  0  0
 27 31  2  0  0  0  0
 28 29  2  0  0  0  0
 29 26  1  0  0  0  0
 31 32  1  0  0  0  0
 32 24  1  0  0  0  0
 32 25  2  0  0  0  0
M  END
>  <MODEL>
5

>  <REMARK>
 VINA RESULT:      -8.7      1.896      2.741
  Name = 
  2 active torsions:
  status: ('A' for Active; 'I' for Inactive)
    1  A    between atoms: N_16  and  C_27
    2  A    between atoms: C_27  and  C_32
                            x       y       z     vdW  Elec       q    Type
                         _______ _______ _______ _____ _____    ______ ____

>  <TORSDO>
F 2

$$$$
=
 OpenBabel11052421293D

 32 37  0  0  1  0  0  0  0  0999 V2000
  195.7060  170.2620  145.3950 C   0  0  2  0  0  3  0  0  0  0  0  0
  196.5740  173.3690  145.6530 C   0  0  0  0  0  2  0  0  0  0  0  0
  192.5790  174.8900  142.4960 C   0  0  0  0  0  2  0  0  0  0  0  0
  190.8440  176.3970  147.9420 C   0  0  0  0  0  3  0  0  0  0  0  0
  189.9360  177.2000  147.2250 C   0  0  0  0  0  3  0  0  0  0  0  0
  194.7640  173.8350  143.3380 C   0  0  2  0  0  3  0  0  0  0  0  0
  194.3580  175.2710  145.3140 C   0  0  0  0  0  2  0  0  0  0  0  0
  197.0210  170.9510  145.7480 C   0  0  0  0  0  2  0  0  0  0  0  0
  196.5880  174.6480  144.8180 C   0  0  0  0  0  2  0  0  0  0  0  0
  191.8650  175.7060  147.2690 C   0  0  0  0  0  3  0  0  0  0  0  0
  192.8830  175.1810  144.9350 C   0  0  1  0  0  3  0  0  0  0  0  0
  191.9600  175.8550  145.8850 C   0  0  0  0  0  0  0  0  0  0  0  0
  191.3360  176.6010  143.7940 N   0  0  0  0  0  0  0  0  0  0  0  0
  195.1750  170.9190  144.1320 C   0  0  0  0  0  2  0  0  0  0  0  0
  196.3000  171.8080  143.6470 C   0  0  1  0  0  3  0  0  0  0  0  0
  194.7900  170.4410  146.4300 O   0  0  0  0  0  1  0  0  0  0  0  0
  195.2790  174.9270  144.2110 N   0  0  1  0  0  0  0  0  0  0  0  0
  195.8630  172.9550  142.7330 C   0  0  0  0  0  2  0  0  0  0  0  0
  197.1270  172.1830  144.8690 C   0  0  1  0  0  3  0  0  0  0  0  0
  190.0380  177.3140  145.8290 C   0  0  0  0  0  3  0  0  0  0  0  0
  191.0620  176.6180  145.1860 C   0  0  0  0  0  0  0  0  0  0  0  0
  194.0010  174.4450  142.1520 C   0  0  0  0  0  2  0  0  0  0  0  0
  192.6130  175.9120  143.6140 C   0  0  2  0  0  3  0  0  0  0  0  0
  190.7930  177.5600  142.8370 C   0  0  0  0  0  2  0  0  0  0  0  0
  188.4650  178.0960  142.4230 C   0  0  0  0  0  3  0  0  0  0  0  0
  187.0650  177.8570  141.9620 C   0  0  1  0  0  3  0  0  0  0  0  0
  188.0620  175.0480  142.2460 C   0  0  0  0  0  3  0  0  0  0  0  0
  186.8200  175.5540  142.8590 C   0  0  0  0  0  3  0  0  0  0  0  0
  186.3840  176.8100  142.7790 C   0  0  0  0  0  3  0  0  0  0  0  0
  186.3490  179.0370  142.0400 F   0  0  0  0  0  0  0  0  0  0  0  0
  189.1870  175.7480  142.0540 C   0  0  0  0  0  3  0  0  0  0  0  0
  189.4170  177.1600  142.4250 C   0  0  0  0  0  0  0  0  0  0  0  0
  1  8  1  0  0  0  0
  1 16  1  1  0  0  0
  5  4  2  0  0  0  0
  6 22  1  6  0  0  0
  6 17  1  0  0  0  0
  9  2  1  0  0  0  0
 10  4  1  0  0  0  0
 11  7  1  1  0  0  0
 11 12  1  0  0  0  0
 12 10  2  0  0  0  0
 13 21  1  0  0  0  0
 14  1  1  0  0  0  0
 15 18  1  1  0  0  0
 15 14  1  0  0  0  0
 15 19  1  0  0  0  0
 17  9  1  1  0  0  0
 17  7  1  0  0  0  0
 18  6  1  0  0  0  0
 19  2  1  1  0  0  0
 19  8  1  0  0  0  0
 20  5  1  0  0  0  0
 21 20  2  0  0  0  0
 21 12  1  0  0  0  0
 22  3  1  0  0  0  0
 23  3  1  6  0  0  0
 23 13  1  0  0  0  0
 23 11  1  0  0  0  0
 24 13  1  0  0  0  0
 25 32  2  0  0  0  0
 26 30  1  1  0  0  0
 26 25  1  0  0  0  0
 26 29  1  0  0  0  0
 27 28  1  0  0  0  0
 29 28  2  0  0  0  0
 31 27  2  0  0  0  0
 31 32  1  0  0  0  0
 32 24  1  0  0  0  0
M  END
>  <MODEL>
6

>  <REMARK>
 VINA RESULT:      -8.7      2.565      4.638
  Name = 
  2 active torsions:
  status: ('A' for Active; 'I' for Inactive)
    1  A    between atoms: N_16  and  C_27
    2  A    between atoms: C_27  and  C_32
                            x       y       z     vdW  Elec       q    Type
                         _______ _______ _______ _____ _____    ______ ____

>  <TORSDO>
F 2

$$$$
=
 OpenBabel11052421293D

 32 37  0  0  1  0  0  0  0  0999 V2000
  196.0380  176.2580  144.2660 C   0  0  2  0  0  3  0  0  0  0  0  0
  194.4790  173.4310  144.4970 C   0  0  0  0  0  2  0  0  0  0  0  0
  189.7650  175.8320  144.0000 C   0  0  0  0  0  2  0  0  0  0  0  0
  190.7020  173.2660  138.7570 C   0  0  0  0  0  3  0  0  0  0  0  0
  189.3170  173.4800  138.6180 C   0  0  0  0  0  3  0  0  0  0  0  0
  192.0320  175.0690  144.9300 C   0  0  2  0  0  3  0  0  0  0  0  0
  191.8760  173.3750  143.1310 C   0  0  0  0  0  2  0  0  0  0  0  0
  196.4140  174.9060  144.8660 C   0  0  0  0  0  2  0  0  0  0  0  0
  193.1710  172.8620  145.0460 C   0  0  0  0  0  2  0  0  0  0  0  0
  191.3400  173.5220  139.9820 C   0  0  0  0  0  3  0  0  0  0  0  0
  190.9940  174.3880  142.4090 C   0  0  1  0  0  3  0  0  0  0  0  0
  190.5620  173.9710  141.0490 C   0  0  0  0  0  0  0  0  0  0  0  0
  188.6410  174.6790  142.1100 N   0  0  0  0  0  0  0  0  0  0  0  0
  194.6570  176.6180  144.7910 C   0  0  0  0  0  2  0  0  0  0  0  0
  194.3620  175.5900  145.8620 C   0  0  1  0  0  3  0  0  0  0  0  0
  195.9920  176.1580  142.8760 O   0  0  0  0  0  1  0  0  0  0  0  0
  192.0010  173.6210  144.5820 N   0  0  1  0  0  0  0  0  0  0  0  0
  192.8760  175.3910  146.1690 C   0  0  0  0  0  2  0  0  0  0  0  0
  195.1620  174.3430  145.5120 C   0  0  1  0  0  3  0  0  0  0  0  0
  188.5600  173.9560  139.7010 C   0  0  0  0  0  3  0  0  0  0  0  0
  189.2190  174.2010  140.9060 C   0  0  0  0  0  0  0  0  0  0  0  0
  190.6090  175.5520  145.2430 C   0  0  0  0  0  2  0  0  0  0  0  0
  189.6650  174.5820  143.1490 C   0  0  2  0  0  3  0  0  0  0  0  0
  187.2080  174.6920  142.3870 C   0  0  0  0  0  2  0  0  0  0  0  0
  186.0830  176.5270  143.5050 C   0  0  0  0  0  3  0  0  0  0  0  0
  185.5890  177.9240  143.6870 C   0  0  1  0  0  3  0  0  0  0  0  0
  186.0600  177.8630  140.7300 C   0  0  0  0  0  3  0  0  0  0  0  0
  184.7970  178.2910  141.3610 C   0  0  0  0  0  3  0  0  0  0  0  0
  184.5570  178.2830  142.6710 C   0  0  0  0  0  3  0  0  0  0  0  0
  185.0540  178.0600  144.9530 F   0  0  0  0  0  0  0  0  0  0  0  0
  186.8840  176.9110  141.1850 C   0  0  0  0  0  3  0  0  0  0  0  0
  186.6940  176.0920  142.4000 C   0  0  0  0  0  0  0  0  0  0  0  0
  1 16  1  6  0  0  0
  1 14  1  0  0  0  0
  1  8  1  0  0  0  0
  2  9  1  0  0  0  0
  3 22  1  0  0  0  0
  4 10  1  0  0  0  0
  5  4  2  0  0  0  0
  5 20  1  0  0  0  0
  6 22  1  1  0  0  0
  6 18  1  0  0  0  0
  8 19  1  0  0  0  0
 10 12  2  0  0  0  0
 11  7  1  1  0  0  0
 11 23  1  0  0  0  0
 12 11  1  0  0  0  0
 13 24  1  0  0  0  0
 13 23  1  0  0  0  0
 15 14  1  6  0  0  0
 15 18  1  0  0  0  0
 17  7  1  6  0  0  0
 17  6  1  0  0  0  0
 17  9  1  0  0  0  0
 19  2  1  6  0  0  0
 19 15  1  0  0  0  0
 20 21  2  0  0  0  0
 21 12  1  0  0  0  0
 21 13  1  0  0  0  0
 23  3  1  6  0  0  0
 24 32  1  0  0  0  0
 25 26  1  0  0  0  0
 26 30  1  1  0  0  0
 27 31  2  0  0  0  0
 27 28  1  0  0  0  0
 28 29  2  0  0  0  0
 29 26  1  0  0  0  0
 31 32  1  0  0  0  0
 32 25  2  0  0  0  0
M  END
>  <MODEL>
7

>  <REMARK>
 VINA RESULT:      -8.6      2.124      2.784
  Name = 
  2 active torsions:
  status: ('A' for Active; 'I' for Inactive)
    1  A    between atoms: N_16  and  C_27
    2  A    between atoms: C_27  and  C_32
                            x       y       z     vdW  Elec       q    Type
                         _______ _______ _______ _____ _____    ______ ____

>  <TORSDO>
F 2

$$$$
=
 OpenBabel11052421293D

 32 37  0  0  1  0  0  0  0  0999 V2000
  197.0500  173.3230  142.8950 C   0  0  2  0  0  3  0  0  0  0  0  0
  194.5230  172.4310  144.7100 C   0  0  0  0  0  2  0  0  0  0  0  0
  192.3730  177.2770  144.3430 C   0  0  0  0  0  2  0  0  0  0  0  0
  189.1360  173.9200  140.7100 C   0  0  0  0  0  3  0  0  0  0  0  0
  188.2350  174.9970  140.8250 C   0  0  0  0  0  3  0  0  0  0  0  0
  193.9490  175.3420  144.9450 C   0  0  2  0  0  3  0  0  0  0  0  0
  192.0590  173.9420  144.1700 C   0  0  0  0  0  2  0  0  0  0  0  0
  196.8430  172.2120  143.9200 C   0  0  0  0  0  2  0  0  0  0  0  0
  193.5670  173.0200  145.7460 C   0  0  0  0  0  2  0  0  0  0  0  0
  190.2920  173.8730  141.5060 C   0  0  0  0  0  3  0  0  0  0  0  0
  191.6730  175.1400  143.3080 C   0  0  1  0  0  3  0  0  0  0  0  0
  190.5060  174.9080  142.4180 C   0  0  0  0  0  0  0  0  0  0  0  0
  190.0740  176.9080  143.4810 N   0  0  0  0  0  0  0  0  0  0  0  0
  196.5460  174.6140  143.5190 C   0  0  0  0  0  2  0  0  0  0  0  0
  196.2780  174.2730  144.9690 C   0  0  1  0  0  3  0  0  0  0  0  0
  196.3110  173.0460  141.7460 O   0  0  0  0  0  1  0  0  0  0  0  0
  192.9630  174.2790  145.2890 N   0  0  1  0  0  0  0  0  0  0  0  0
  195.2900  175.2040  145.6750 C   0  0  0  0  0  2  0  0  0  0  0  0
  195.9750  172.7820  145.0250 C   0  0  1  0  0  3  0  0  0  0  0  0
  188.4870  176.0390  141.7320 C   0  0  0  0  0  3  0  0  0  0  0  0
  189.6420  175.9670  142.5120 C   0  0  0  0  0  0  0  0  0  0  0  0
  193.3830  176.7130  145.3420 C   0  0  0  0  0  2  0  0  0  0  0  0
  191.2140  176.3150  144.1800 C   0  0  2  0  0  3  0  0  0  0  0  0
  189.2260  177.9470  144.0560 C   0  0  0  0  0  2  0  0  0  0  0  0
  186.8410  177.7330  144.4360 C   0  0  0  0  0  3  0  0  0  0  0  0
  185.5920  177.1530  145.0160 C   0  0  1  0  0  3  0  0  0  0  0  0
  187.6460  176.1250  146.9370 C   0  0  0  0  0  3  0  0  0  0  0  0
  186.4240  176.8490  147.3360 C   0  0  0  0  0  3  0  0  0  0  0  0
  185.5230  177.3500  146.4930 C   0  0  0  0  0  3  0  0  0  0  0  0
  184.4940  177.7450  144.4220 F   0  0  0  0  0  0  0  0  0  0  0  0
  188.3560  176.3350  145.8220 C   0  0  0  0  0  3  0  0  0  0  0  0
  188.0700  177.3360  144.7740 C   0  0  0  0  0  0  0  0  0  0  0  0
  1 16  1  6  0  0  0
  1 14  1  0  0  0  0
  1  8  1  0  0  0  0
  2 19  1  0  0  0  0
  2  9  1  0  0  0  0
  3 22  1  0  0  0  0
  4  5  2  0  0  0  0
  4 10  1  0  0  0  0
  5 20  1  0  0  0  0
  6 17  1  0  0  0  0
  6 22  1  1  0  0  0
  6 18  1  0  0  0  0
 10 12  2  0  0  0  0
 11  7  1  1  0  0  0
 11 23  1  0  0  0  0
 12 21  1  0  0  0  0
 12 11  1  0  0  0  0
 13 24  1  0  0  0  0
 13 23  1  0  0  0  0
 15 14  1  6  0  0  0
 15 19  1  0  0  0  0
 15 18  1  0  0  0  0
 17  7  1  6  0  0  0
 17  9  1  0  0  0  0
 19  8  1  6  0  0  0
 20 21  2  0  0  0  0
 21 13  1  0  0  0  0
 23  3  1  6  0  0  0
 24 32  1  0  0  0  0
 25 32  2  0  0  0  0
 25 26  1  0  0  0  0
 26 30  1  6  0  0  0
 26 29  1  0  0  0  0
 27 28  1  0  0  0  0
 29 28  2  0  0  0  0
 31 27  2  0  0  0  0
 32 31  1  0  0  0  0
M  END
>  <MODEL>
8

>  <REMARK>
 VINA RESULT:      -8.6      1.711      2.411
  Name = 
  2 active torsions:
  status: ('A' for Active; 'I' for Inactive)
    1  A    between atoms: N_16  and  C_27
    2  A    between atoms: C_27  and  C_32
                            x       y       z     vdW  Elec       q    Type
                         _______ _______ _______ _____ _____    ______ ____

>  <TORSDO>
F 2

$$$$
=
 OpenBabel11052421293D

 32 37  0  0  1  0  0  0  0  0999 V2000
  193.1230  170.0310  140.3940 C   0  0  2  0  0  3  0  0  0  0  0  0
  191.8720  173.0010  140.0970 C   0  0  0  0  0  2  0  0  0  0  0  0
  190.0540  172.8850  145.0890 C   0  0  0  0  0  2  0  0  0  0  0  0
  194.7750  176.4370  145.2930 C   0  0  0  0  0  3  0  0  0  0  0  0
  194.1920  176.8270  146.5150 C   0  0  0  0  0  3  0  0  0  0  0  0
  190.3750  172.3780  142.5930 C   0  0  2  0  0  3  0  0  0  0  0  0
  191.6760  174.4850  142.6270 C   0  0  0  0  0  2  0  0  0  0  0  0
  192.6920  170.8650  139.1910 C   0  0  0  0  0  2  0  0  0  0  0  0
  190.6760  173.8160  140.5870 C   0  0  0  0  0  2  0  0  0  0  0  0
  194.0880  175.5770  144.4210 C   0  0  0  0  0  3  0  0  0  0  0  0
  191.9200  174.1770  144.1010 C   0  0  1  0  0  3  0  0  0  0  0  0
  192.8150  175.1420  144.7920 C   0  0  0  0  0  0  0  0  0  0  0  0
  190.9760  174.9220  146.1670 N   0  0  0  0  0  0  0  0  0  0  0  0
  191.9910  170.0780  141.4070 C   0  0  0  0  0  2  0  0  0  0  0  0
  190.8380  170.7360  140.6800 C   0  0  1  0  0  3  0  0  0  0  0  0
  194.2720  170.5820  140.9590 O   0  0  0  0  0  1  0  0  0  0  0  0
  190.5280  173.7570  142.0480 N   0  0  1  0  0  0  0  0  0  0  0  0
  189.7880  171.3780  141.5900 C   0  0  0  0  0  2  0  0  0  0  0  0
  191.4430  171.6230  139.6010 C   0  0  1  0  0  3  0  0  0  0  0  0
  192.9200  176.3550  146.8760 C   0  0  0  0  0  3  0  0  0  0  0  0
  192.2590  175.5020  145.9920 C   0  0  0  0  0  0  0  0  0  0  0  0
  189.4110  172.4040  143.7870 C   0  0  0  0  0  2  0  0  0  0  0  0
  190.6170  174.2790  144.9040 C   0  0  2  0  0  3  0  0  0  0  0  0
  189.9980  175.3690  147.1530 C   0  0  0  0  0  2  0  0  0  0  0  0
  187.7070  176.0410  146.7300 C   0  0  0  0  0  3  0  0  0  0  0  0
  186.6060  176.9150  146.2240 C   0  0  1  0  0  3  0  0  0  0  0  0
  188.9200  177.9150  144.6090 C   0  0  0  0  0  3  0  0  0  0  0  0
  187.6310  177.4880  144.0350 C   0  0  0  0  0  3  0  0  0  0  0  0
  186.6070  177.0000  144.7350 C   0  0  0  0  0  3  0  0  0  0  0  0
  185.3910  176.4160  146.6540 F   0  0  0  0  0  0  0  0  0  0  0  0
  189.5120  177.3940  145.6900 C   0  0  0  0  0  3  0  0  0  0  0  0
  189.0030  176.2820  146.5200 C   0  0  0  0  0  0  0  0  0  0  0  0
  1 16  1  1  0  0  0
  1 14  1  0  0  0  0
  2  9  1  0  0  0  0
  4  5  1  0  0  0  0
  5 20  2  0  0  0  0
  6 18  1  6  0  0  0
  6 22  1  0  0  0  0
  8  1  1  0  0  0  0
 10 12  1  0  0  0  0
 10  4  2  0  0  0  0
 11  7  1  6  0  0  0
 11 12  1  0  0  0  0
 11 23  1  0  0  0  0
 12 21  2  0  0  0  0
 13 24  1  0  0  0  0
 15 14  1  1  0  0  0
 15 18  1  0  0  0  0
 17  9  1  6  0  0  0
 17  6  1  0  0  0  0
 17  7  1  0  0  0  0
 19  8  1  1  0  0  0
 19  2  1  0  0  0  0
 19 15  1  0  0  0  0
 21 13  1  0  0  0  0
 21 20  1  0  0  0  0
 22  3  1  0  0  0  0
 23  3  1  1  0  0  0
 23 13  1  0  0  0  0
 26 30  1  6  0  0  0
 26 25  1  0  0  0  0
 27 31  2  0  0  0  0
 28 27  1  0  0  0  0
 28 29  2  0  0  0  0
 29 26  1  0  0  0  0
 31 32  1  0  0  0  0
 32 25  2  0  0  0  0
 32 24  1  0  0  0  0
M  END
>  <MODEL>
9

>  <REMARK>
 VINA RESULT:      -8.5      2.494      5.614
  Name = 
  2 active torsions:
  status: ('A' for Active; 'I' for Inactive)
    1  A    between atoms: N_16  and  C_27
    2  A    between atoms: C_27  and  C_32
                            x       y       z     vdW  Elec       q    Type
                         _______ _______ _______ _____ _____    ______ ____

>  <TORSDO>
F 2

$$$$
