=
 OpenBabel11072413333D

 36 43  0  0  1  0  0  0  0  0999 V2000
  160.6540  207.2680  155.0080 N   0  0  0  0  0  1  0  0  0  0  0  0
  160.8970  208.3960  154.1720 C   0  0  0  0  0  0  0  0  0  0  0  0
  161.1890  208.3420  152.8250 C   0  0  0  0  0  0  0  0  0  0  0  0
  160.8800  209.6640  154.6260 N   0  0  0  0  0  2  0  0  0  0  0  0
  161.3740  209.6520  152.4430 C   0  0  0  0  0  0  0  0  0  0  0  0
  161.1690  210.4450  153.5610 C   0  0  0  0  0  3  0  0  0  0  0  0
  162.4650  207.2870  151.0560 C   0  0  2  0  0  3  0  0  0  0  0  0
  160.3740  206.8770  150.8540 N   0  0  0  0  0  2  0  0  0  0  0  0
  161.3060  207.1270  151.9490 C   0  0  2  0  0  0  0  0  0  0  0  0
  161.4860  207.0090  149.9320 C   0  0  2  0  0  3  0  0  0  0  0  0
  162.4530  206.2130  152.0610 N   0  0  0  0  0  2  0  0  0  0  0  0
  161.7690  205.6780  149.2410 C   0  0  0  0  0  2  0  0  0  0  0  0
  162.7570  205.4720  145.5230 C   0  0  1  0  0  3  0  0  0  0  0  0
  161.5220  205.8020  147.7430 C   0  0  1  0  0  3  0  0  0  0  0  0
  160.4560  205.8290  145.1670 C   0  0  0  0  0  2  0  0  0  0  0  0
  161.6190  204.9900  144.6340 C   0  0  2  0  0  0  0  0  0  0  0  0
  160.6020  204.4240  145.6460 C   0  0  1  0  0  3  0  0  0  0  0  0
  162.5980  205.0410  146.9840 C   0  0  1  0  0  3  0  0  0  0  0  0
  162.8340  204.2780  144.8480 O   0  0  0  0  0  0  0  0  0  0  0  0
  161.2010  204.4540  147.0710 C   0  0  1  0  0  0  0  0  0  0  0  0
  161.2070  203.1560  147.8730 C   0  0  0  0  0  2  0  0  0  0  0  0
  161.1110  201.9650  146.9400 C   0  0  0  0  0  1  0  0  0  0  0  0
  161.7050  210.1290  151.0700 C   0  0  0  0  0  2  0  0  0  0  0  0
  161.3510  211.5340  150.9280 N   0  0  0  0  0  2  0  0  0  0  0  0
  161.9550  211.6860  148.6450 C   0  0  0  0  0  3  0  0  0  0  0  0
  160.4870  213.5040  149.5240 C   0  0  1  0  0  3  0  0  0  0  0  0
  162.8700  214.3980  147.9850 O   0  0  0  0  0  1  0  0  0  0  0  0
  161.2550  212.1960  149.6640 C   0  0  0  0  0  0  0  0  0  0  0  0
  161.7740  213.8160  147.3300 C   0  0  2  0  0  0  0  0  0  0  0  0
  160.4740  214.0870  148.1030 C   0  0  0  0  0  2  0  0  0  0  0  0
  161.9680  212.3020  147.2780 C   0  0  0  0  0  2  0  0  0  0  0  0
  158.8110  213.3870  151.3660 O   0  0  0  0  0  1  0  0  0  0  0  0
  159.0740  213.3810  150.0050 C   0  0  0  0  0  0  0  0  0  0  0  0
  158.1190  213.3300  149.1850 O   0  0  0  0  0  0  0  0  0  0  0  0
  161.6800  214.2830  145.9990 O   0  0  0  0  0  0  0  0  0  0  0  0
  161.5010  213.1910  145.1300 C   0  0  0  0  0  1  0  0  0  0  0  0
  2  4  1  0  0  0  0
  2  1  1  0  0  0  0
  3  2  2  0  0  0  0
  5  3  1  0  0  0  0
  5  6  2  0  0  0  0
  6  4  1  0  0  0  0
  7  9  1  0  0  0  0
  7 11  1  1  0  0  0
  8  9  1  0  0  0  0
  9 11  1  0  0  0  0
  9  3  1  1  0  0  0
 10 12  1  1  0  0  0
 10  8  1  0  0  0  0
 10  7  1  0  0  0  0
 13 19  1  6  0  0  0
 13 18  1  0  0  0  0
 14 12  1  1  0  0  0
 16 19  1  0  0  0  0
 16 15  1  6  0  0  0
 16 13  1  0  0  0  0
 16 17  1  0  0  0  0
 17 15  1  1  0  0  0
 17 20  1  0  0  0  0
 18 20  1  0  0  0  0
 18 14  1  0  0  0  0
 20 14  1  0  0  0  0
 20 21  1  0  0  0  0
 22 21  1  0  0  0  0
 23  5  1  0  0  0  0
 24 23  1  0  0  0  0
 25 28  2  0  0  0  0
 26 28  1  0  0  0  0
 26 33  1  0  0  0  0
 28 24  1  0  0  0  0
 29 27  1  0  0  0  0
 29 30  1  0  0  0  0
 30 26  1  0  0  0  0
 31 29  1  0  0  0  0
 31 25  1  0  0  0  0
 33 32  1  0  0  0  0
 34 33  2  0  0  0  0
 35 29  1  0  0  0  0
 36 35  1  0  0  0  0
M  END
>  <MODEL>
1

>  <REMARK>
 VINA RESULT:      -7.0      0.000      0.000
  Name = 
  9 active torsions:
  status: ('A' for Active; 'I' for Inactive)
    1  A    between atoms: C_4  and  C_29
    2  A    between atoms: C_6  and  C_9
    3  A    between atoms: C_9  and  C_21
    4  A    between atoms: O_10  and  C_15
    5  A    between atoms: C_13  and  C_32
    6  A    between atoms: C_14  and  N_24
    7  A    between atoms: C_20  and  C_25
    8  A    between atoms: N_24  and  C_36
    9  A    between atoms: C_30  and  C_36
                            x       y       z     vdW  Elec       q    Type
                         _______ _______ _______ _____ _____    ______ ____

>  <TORSDO>
F 9

$$$$
=
 OpenBabel11072413333D

 36 43  0  0  1  0  0  0  0  0999 V2000
  160.1710  207.5850  155.4830 N   0  0  0  0  0  1  0  0  0  0  0  0
  160.8430  207.1270  154.3140 C   0  0  0  0  0  0  0  0  0  0  0  0
  161.2300  207.9200  153.2540 C   0  0  0  0  0  0  0  0  0  0  0  0
  161.1650  205.8340  154.1110 N   0  0  0  0  0  2  0  0  0  0  0  0
  161.8080  207.0560  152.3500 C   0  0  0  0  0  0  0  0  0  0  0  0
  161.7660  205.7860  152.9010 C   0  0  0  0  0  3  0  0  0  0  0  0
  160.7840  210.0030  154.4060 C   0  0  2  0  0  3  0  0  0  0  0  0
  159.8560  209.9700  152.4780 N   0  0  0  0  0  2  0  0  0  0  0  0
  161.0520  209.4020  153.0900 C   0  0  2  0  0  0  0  0  0  0  0  0
  159.5540  210.5980  153.7500 C   0  0  2  0  0  3  0  0  0  0  0  0
  162.0100  210.3540  153.6740 N   0  0  0  0  0  2  0  0  0  0  0  0
  159.6450  212.1180  153.6300 C   0  0  0  0  0  2  0  0  0  0  0  0
  156.0150  212.2150  154.9170 C   0  0  1  0  0  3  0  0  0  0  0  0
  158.2680  212.7420  153.8180 C   0  0  1  0  0  3  0  0  0  0  0  0
  156.0970  214.4530  154.1860 C   0  0  0  0  0  2  0  0  0  0  0  0
  155.5780  213.6070  155.3500 C   0  0  2  0  0  0  0  0  0  0  0  0
  156.9100  214.3810  155.4340 C   0  0  1  0  0  3  0  0  0  0  0  0
  157.5350  212.0300  154.9440 C   0  0  1  0  0  3  0  0  0  0  0  0
  155.7060  212.4920  156.2270 O   0  0  0  0  0  0  0  0  0  0  0  0
  158.0960  213.4190  155.1900 C   0  0  1  0  0  0  0  0  0  0  0  0
  159.2100  213.3780  156.2320 C   0  0  0  0  0  2  0  0  0  0  0  0
  158.9250  212.2990  157.2600 C   0  0  0  0  0  1  0  0  0  0  0  0
  162.3960  207.4290  151.0320 C   0  0  0  0  0  2  0  0  0  0  0  0
  161.3850  207.3360  149.9870 N   0  0  0  0  0  2  0  0  0  0  0  0
  162.3350  206.9090  147.8630 C   0  0  0  0  0  3  0  0  0  0  0  0
  160.6630  205.2450  148.6810 C   0  0  1  0  0  3  0  0  0  0  0  0
  160.2520  206.2310  145.9050 O   0  0  0  0  0  1  0  0  0  0  0  0
  161.5190  206.4960  148.8380 C   0  0  0  0  0  0  0  0  0  0  0  0
  161.2970  205.3420  146.2000 C   0  0  2  0  0  0  0  0  0  0  0  0
  160.9270  204.4480  147.3950 C   0  0  0  0  0  2  0  0  0  0  0  0
  162.5380  206.1390  146.5910 C   0  0  0  0  0  2  0  0  0  0  0  0
  161.8500  203.4220  149.8990 O   0  0  0  0  0  0  0  0  0  0  0  0
  160.7960  204.3220  149.8520 C   0  0  0  0  0  0  0  0  0  0  0  0
  159.9930  204.3940  150.8210 O   0  0  0  0  0  1  0  0  0  0  0  0
  161.6260  204.5630  145.0670 O   0  0  0  0  0  0  0  0  0  0  0  0
  161.2320  203.2290  145.2840 C   0  0  0  0  0  1  0  0  0  0  0  0
  2  1  1  0  0  0  0
  3  2  2  0  0  0  0
  4  2  1  0  0  0  0
  5  6  2  0  0  0  0
  5  3  1  0  0  0  0
  6  4  1  0  0  0  0
  7 11  1  6  0  0  0
  8  9  1  0  0  0  0
  8 10  1  0  0  0  0
  9  3  1  6  0  0  0
  9 11  1  0  0  0  0
  9  7  1  0  0  0  0
 10 12  1  6  0  0  0
 10  7  1  0  0  0  0
 13 18  1  0  0  0  0
 13 16  1  0  0  0  0
 13 19  1  1  0  0  0
 14 12  1  1  0  0  0
 14 18  1  0  0  0  0
 14 20  1  0  0  0  0
 16 15  1  6  0  0  0
 16 17  1  0  0  0  0
 16 19  1  0  0  0  0
 17 15  1  6  0  0  0
 18 20  1  0  0  0  0
 20 17  1  0  0  0  0
 20 21  1  0  0  0  0
 21 22  1  0  0  0  0
 23  5  1  0  0  0  0
 24 23  1  0  0  0  0
 25 28  2  0  0  0  0
 26 28  1  0  0  0  0
 26 33  1  0  0  0  0
 27 29  1  0  0  0  0
 28 24  1  0  0  0  0
 29 31  1  0  0  0  0
 29 30  1  0  0  0  0
 30 26  1  0  0  0  0
 31 25  1  0  0  0  0
 33 32  2  0  0  0  0
 33 34  1  0  0  0  0
 35 36  1  0  0  0  0
 35 29  1  0  0  0  0
M  END
>  <MODEL>
2

>  <REMARK>
 VINA RESULT:      -7.0      3.798      9.033
  Name = 
  9 active torsions:
  status: ('A' for Active; 'I' for Inactive)
    1  A    between atoms: C_4  and  C_29
    2  A    between atoms: C_6  and  C_9
    3  A    between atoms: C_9  and  C_21
    4  A    between atoms: O_10  and  C_15
    5  A    between atoms: C_13  and  C_32
    6  A    between atoms: C_14  and  N_24
    7  A    between atoms: C_20  and  C_25
    8  A    between atoms: N_24  and  C_36
    9  A    between atoms: C_30  and  C_36
                            x       y       z     vdW  Elec       q    Type
                         _______ _______ _______ _____ _____    ______ ____

>  <TORSDO>
F 9

$$$$
=
 OpenBabel11072413333D

 36 43  0  0  1  0  0  0  0  0999 V2000
  162.2760  210.7370  149.2080 N   0  0  0  0  0  1  0  0  0  0  0  0
  161.9500  209.3500  149.1740 C   0  0  0  0  0  0  0  0  0  0  0  0
  161.8370  208.5300  150.2770 C   0  0  1  0  0  3  0  0  0  0  0  0
  161.7250  208.6770  148.0290 N   0  0  0  0  0  0  0  0  0  0  0  0
  161.5410  207.2840  149.7710 C   0  0  0  0  0  0  0  0  0  0  0  0
  161.4670  207.4010  148.3920 C   0  0  0  0  0  3  0  0  0  0  0  0
  160.7090  209.2580  152.2930 C   0  0  2  0  0  3  0  0  0  0  0  0
  162.6530  210.1370  152.1330 N   0  0  0  0  0  2  0  0  0  0  0  0
  162.0140  208.8900  151.7240 C   0  0  2  0  0  0  0  0  0  0  0  0
  161.3910  210.5400  152.7240 C   0  0  2  0  0  3  0  0  0  0  0  0
  161.4200  208.0720  152.7930 N   0  0  0  0  0  2  0  0  0  0  0  0
  161.5200  210.6400  154.2420 C   0  0  0  0  0  2  0  0  0  0  0  0
  157.8570  211.6430  154.8910 C   0  0  1  0  0  3  0  0  0  0  0  0
  160.4150  211.5240  154.8060 C   0  0  1  0  0  3  0  0  0  0  0  0
  158.8270  213.2310  156.3360 C   0  0  0  0  0  2  0  0  0  0  0  0
  157.6480  212.2590  156.2660 C   0  0  2  0  0  0  0  0  0  0  0  0
  158.9520  211.9060  157.0100 C   0  0  1  0  0  3  0  0  0  0  0  0
  159.1030  210.7550  154.8180 C   0  0  1  0  0  3  0  0  0  0  0  0
  157.0830  211.0230  155.8410 O   0  0  0  0  0  0  0  0  0  0  0  0
  159.8320  210.9910  156.1280 C   0  0  1  0  0  0  0  0  0  0  0  0
  160.3160  209.6720  156.7240 C   0  0  0  0  0  2  0  0  0  0  0  0
  159.5770  208.5090  156.0900 C   0  0  0  0  0  1  0  0  0  0  0  0
  161.3140  206.0430  150.5660 C   0  0  0  0  0  2  0  0  0  0  0  0
  160.4360  205.1360  149.8400 N   0  0  0  0  0  2  0  0  0  0  0  0
  161.3190  203.7390  148.1460 C   0  0  0  0  0  3  0  0  0  0  0  0
  160.6200  202.6090  150.2600 C   0  0  1  0  0  3  0  0  0  0  0  0
  159.6140  201.3800  147.7440 O   0  0  0  0  0  1  0  0  0  0  0  0
  160.8430  203.8400  149.3920 C   0  0  0  0  0  0  0  0  0  0  0  0
  160.9630  201.2550  148.1110 C   0  0  2  0  0  0  0  0  0  0  0  0
  161.1150  201.2940  149.6400 C   0  0  0  0  0  2  0  0  0  0  0  0
  161.7480  202.4350  147.5430 C   0  0  0  0  0  2  0  0  0  0  0  0
  160.5160  203.3840  152.6270 O   0  0  0  0  0  1  0  0  0  0  0  0
  161.2320  202.7590  151.6180 C   0  0  0  0  0  0  0  0  0  0  0  0
  162.3680  202.2720  151.8680 O   0  0  0  0  0  0  0  0  0  0  0  0
  161.5190  200.0710  147.5750 O   0  0  0  0  0  0  0  0  0  0  0  0
  161.1320  199.9380  146.2290 C   0  0  0  0  0  1  0  0  0  0  0  0
  2  1  1  0  0  0  0
  3  2  1  6  0  0  0
  3  9  1  0  0  0  0
  4  6  1  0  0  0  0
  4  2  2  0  0  0  0
  5  3  1  0  0  0  0
  5 23  1  0  0  0  0
  6  5  2  0  0  0  0
  7 10  1  0  0  0  0
  7 11  1  1  0  0  0
  8 10  1  0  0  0  0
  9  8  1  1  0  0  0
  9  7  1  0  0  0  0
  9 11  1  0  0  0  0
 10 12  1  1  0  0  0
 13 19  1  1  0  0  0
 13 16  1  0  0  0  0
 14 12  1  6  0  0  0
 14 18  1  0  0  0  0
 14 20  1  0  0  0  0
 16 15  1  1  0  0  0
 16 17  1  0  0  0  0
 17 15  1  6  0  0  0
 18 13  1  0  0  0  0
 18 20  1  0  0  0  0
 19 16  1  0  0  0  0
 20 21  1  0  0  0  0
 20 17  1  0  0  0  0
 22 21  1  0  0  0  0
 24 23  1  0  0  0  0
 25 28  2  0  0  0  0
 26 33  1  0  0  0  0
 27 29  1  0  0  0  0
 28 24  1  0  0  0  0
 28 26  1  0  0  0  0
 29 30  1  0  0  0  0
 30 26  1  0  0  0  0
 31 29  1  0  0  0  0
 31 25  1  0  0  0  0
 33 34  2  0  0  0  0
 33 32  1  0  0  0  0
 35 29  1  0  0  0  0
 36 35  1  0  0  0  0
M  END
>  <MODEL>
3

>  <REMARK>
 VINA RESULT:      -7.0      4.047      9.777
  Name = 
  9 active torsions:
  status: ('A' for Active; 'I' for Inactive)
    1  A    between atoms: C_4  and  C_29
    2  A    between atoms: C_6  and  C_9
    3  A    between atoms: C_9  and  C_21
    4  A    between atoms: O_10  and  C_15
    5  A    between atoms: C_13  and  C_32
    6  A    between atoms: C_14  and  N_24
    7  A    between atoms: C_20  and  C_25
    8  A    between atoms: N_24  and  C_36
    9  A    between atoms: C_30  and  C_36
                            x       y       z     vdW  Elec       q    Type
                         _______ _______ _______ _____ _____    ______ ____

>  <TORSDO>
F 9

$$$$
=
 OpenBabel11072413333D

 36 43  0  0  1  0  0  0  0  0999 V2000
  159.6070  209.5440  156.3320 N   0  0  0  0  0  1  0  0  0  0  0  0
  160.1660  208.7640  155.2790 C   0  0  0  0  0  0  0  0  0  0  0  0
  160.5410  209.2460  154.0420 C   0  0  0  0  0  0  0  0  0  0  0  0
  160.3800  207.4380  155.3810 N   0  0  0  0  0  2  0  0  0  0  0  0
  160.9940  208.1450  153.3490 C   0  0  0  0  0  0  0  0  0  0  0  0
  160.8960  207.0510  154.1930 C   0  0  0  0  0  3  0  0  0  0  0  0
  159.4450  210.7290  152.4710 C   0  0  2  0  0  3  0  0  0  0  0  0
  161.5120  211.2320  152.6990 N   0  0  0  0  0  2  0  0  0  0  0  0
  160.4620  210.6560  153.5320 C   0  0  2  0  0  0  0  0  0  0  0  0
  160.5440  211.3410  151.6250 C   0  0  2  0  0  3  0  0  0  0  0  0
  159.2520  211.4710  153.7250 N   0  0  0  0  0  2  0  0  0  0  0  0
  160.2690  212.8060  151.2990 C   0  0  0  0  0  2  0  0  0  0  0  0
  161.2930  212.1380  147.6460 C   0  0  1  0  0  3  0  0  0  0  0  0
  160.8870  213.1700  149.9550 C   0  0  1  0  0  3  0  0  0  0  0  0
  161.7810  214.4420  147.6410 C   0  0  0  0  0  2  0  0  0  0  0  0
  161.1500  213.3640  146.7570 C   0  0  2  0  0  0  0  0  0  0  0  0
  160.2950  214.3190  147.6160 C   0  0  1  0  0  3  0  0  0  0  0  0
  160.4050  212.1950  148.8920 C   0  0  1  0  0  3  0  0  0  0  0  0
  160.3900  212.1690  146.6120 O   0  0  0  0  0  0  0  0  0  0  0  0
  159.8420  213.6050  148.9100 C   0  0  1  0  0  0  0  0  0  0  0  0
  158.3520  213.5900  149.2360 C   0  0  0  0  0  2  0  0  0  0  0  0
  157.5370  213.7510  147.9670 C   0  0  0  0  0  1  0  0  0  0  0  0
  161.5220  208.1410  151.9540 C   0  0  0  0  0  2  0  0  0  0  0  0
  160.6910  207.2960  151.1070 N   0  0  0  0  0  2  0  0  0  0  0  0
  161.8490  207.4060  149.0460 C   0  0  0  0  0  3  0  0  0  0  0  0
  160.8180  205.2060  149.6200 C   0  0  1  0  0  3  0  0  0  0  0  0
  160.2470  206.2270  146.8840 O   0  0  0  0  0  1  0  0  0  0  0  0
  161.1740  206.6560  149.9230 C   0  0  0  0  0  0  0  0  0  0  0  0
  161.5170  205.7270  147.2100 C   0  0  2  0  0  0  0  0  0  0  0  0
  161.4150  204.6620  148.3140 C   0  0  0  0  0  2  0  0  0  0  0  0
  162.3790  206.8660  147.7520 C   0  0  0  0  0  2  0  0  0  0  0  0
  160.9360  202.9290  150.6290 O   0  0  0  0  0  0  0  0  0  0  0  0
  161.1970  204.2870  150.7390 C   0  0  0  0  0  0  0  0  0  0  0  0
  161.8020  204.7250  151.7540 O   0  0  0  0  0  1  0  0  0  0  0  0
  162.1610  205.2100  146.0630 O   0  0  0  0  0  0  0  0  0  0  0  0
  161.3740  205.4700  144.9260 C   0  0  0  0  0  1  0  0  0  0  0  0
  2  4  1  0  0  0  0
  2  1  1  0  0  0  0
  3  2  2  0  0  0  0
  5  3  1  0  0  0  0
  5  6  2  0  0  0  0
  6  4  1  0  0  0  0
  7  9  1  0  0  0  0
  7 11  1  1  0  0  0
  8  9  1  0  0  0  0
  9 11  1  0  0  0  0
  9  3  1  1  0  0  0
 10 12  1  1  0  0  0
 10  7  1  0  0  0  0
 10  8  1  0  0  0  0
 13 19  1  6  0  0  0
 13 18  1  0  0  0  0
 14 12  1  1  0  0  0
 16 17  1  0  0  0  0
 16 15  1  6  0  0  0
 16 13  1  0  0  0  0
 17 15  1  1  0  0  0
 17 20  1  0  0  0  0
 18 20  1  0  0  0  0
 18 14  1  0  0  0  0
 19 16  1  0  0  0  0
 20 21  1  0  0  0  0
 20 14  1  0  0  0  0
 22 21  1  0  0  0  0
 23  5  1  0  0  0  0
 24 23  1  0  0  0  0
 25 28  2  0  0  0  0
 26 28  1  0  0  0  0
 26 33  1  0  0  0  0
 27 29  1  0  0  0  0
 28 24  1  0  0  0  0
 29 31  1  0  0  0  0
 29 30  1  0  0  0  0
 30 26  1  0  0  0  0
 31 25  1  0  0  0  0
 32 33  2  0  0  0  0
 33 34  1  0  0  0  0
 35 29  1  0  0  0  0
 36 35  1  0  0  0  0
M  END
>  <MODEL>
4

>  <REMARK>
 VINA RESULT:      -6.7      2.160      7.298
  Name = 
  9 active torsions:
  status: ('A' for Active; 'I' for Inactive)
    1  A    between atoms: C_4  and  C_29
    2  A    between atoms: C_6  and  C_9
    3  A    between atoms: C_9  and  C_21
    4  A    between atoms: O_10  and  C_15
    5  A    between atoms: C_13  and  C_32
    6  A    between atoms: C_14  and  N_24
    7  A    between atoms: C_20  and  C_25
    8  A    between atoms: N_24  and  C_36
    9  A    between atoms: C_30  and  C_36
                            x       y       z     vdW  Elec       q    Type
                         _______ _______ _______ _____ _____    ______ ____

>  <TORSDO>
F 9

$$$$
=
 OpenBabel11072413333D

 36 43  0  0  1  0  0  0  0  0999 V2000
  159.8670  214.3530  149.3060 N   0  0  0  0  0  1  0  0  0  0  0  0
  160.3630  213.2340  150.0340 C   0  0  0  0  0  0  0  0  0  0  0  0
  161.2120  212.2690  149.5340 C   0  0  0  0  0  0  0  0  0  0  0  0
  160.0330  212.9880  151.3170 N   0  0  0  0  0  2  0  0  0  0  0  0
  161.3960  211.3790  150.5680 C   0  0  0  0  0  0  0  0  0  0  0  0
  160.6720  211.8460  151.6540 C   0  0  0  0  0  3  0  0  0  0  0  0
  162.5220  213.4260  147.8560 C   0  0  2  0  0  3  0  0  0  0  0  0
  160.9750  212.2520  146.9580 N   0  0  0  0  0  2  0  0  0  0  0  0
  161.8040  212.1780  148.1560 C   0  0  2  0  0  0  0  0  0  0  0  0
  161.6650  213.4790  146.6080 C   0  0  2  0  0  3  0  0  0  0  0  0
  163.2600  212.1580  147.9510 N   0  0  0  0  0  2  0  0  0  0  0  0
  162.4880  213.2860  145.3370 C   0  0  0  0  0  2  0  0  0  0  0  0
  159.6220  213.5090  142.7720 C   0  0  1  0  0  3  0  0  0  0  0  0
  161.6030  212.7610  144.2130 C   0  0  1  0  0  3  0  0  0  0  0  0
  160.5480  211.5000  141.9620 C   0  0  0  0  0  2  0  0  0  0  0  0
  159.9490  212.8140  141.4580 C   0  0  2  0  0  0  0  0  0  0  0  0
  161.4730  212.5950  141.5490 C   0  0  1  0  0  3  0  0  0  0  0  0
  160.8710  213.9210  143.5570 C   0  0  1  0  0  3  0  0  0  0  0  0
  159.7380  214.2150  141.6000 O   0  0  0  0  0  0  0  0  0  0  0  0
  162.0290  213.2700  142.8230 C   0  0  1  0  0  0  0  0  0  0  0  0
  163.1900  214.2480  142.6670 C   0  0  0  0  0  2  0  0  0  0  0  0
  163.5140  214.4450  141.1980 C   0  0  0  0  0  1  0  0  0  0  0  0
  162.2440  210.1530  150.5330 C   0  0  0  0  0  2  0  0  0  0  0  0
  161.4110  208.9640  150.6410 N   0  0  0  0  0  2  0  0  0  0  0  0
  162.1190  207.9920  148.6030 C   0  0  0  0  0  3  0  0  0  0  0  0
  161.0390  206.4530  150.2460 C   0  0  1  0  0  3  0  0  0  0  0  0
  160.0030  206.3030  147.4610 O   0  0  0  0  0  1  0  0  0  0  0  0
  161.5780  207.8100  149.8120 C   0  0  0  0  0  0  0  0  0  0  0  0
  161.2650  205.7780  147.7840 C   0  0  2  0  0  0  0  0  0  0  0  0
  161.3010  205.3150  149.2490 C   0  0  0  0  0  2  0  0  0  0  0  0
  162.3170  206.8730  147.6240 C   0  0  0  0  0  2  0  0  0  0  0  0
  162.8160  206.4710  151.9950 O   0  0  0  0  0  0  0  0  0  0  0  0
  161.5610  206.0440  151.5880 C   0  0  0  0  0  0  0  0  0  0  0  0
  160.8490  205.3630  152.3740 O   0  0  0  0  0  1  0  0  0  0  0  0
  161.6070  204.7230  146.9090 O   0  0  0  0  0  0  0  0  0  0  0  0
  162.7570  205.0730  146.1770 C   0  0  0  0  0  1  0  0  0  0  0  0
  1  2  1  0  0  0  0
  2  4  1  0  0  0  0
  3  2  2  0  0  0  0
  3  5  1  0  0  0  0
  4  6  1  0  0  0  0
  5  6  2  0  0  0  0
  7 11  1  6  0  0  0
  7  9  1  0  0  0  0
  8  9  1  0  0  0  0
  9  3  1  1  0  0  0
 10 12  1  6  0  0  0
 10  8  1  0  0  0  0
 10  7  1  0  0  0  0
 11  9  1  0  0  0  0
 13 19  1  6  0  0  0
 13 18  1  0  0  0  0
 14 12  1  1  0  0  0
 16 17  1  0  0  0  0
 16 19  1  0  0  0  0
 16 15  1  6  0  0  0
 16 13  1  0  0  0  0
 17 15  1  1  0  0  0
 17 20  1  0  0  0  0
 18 14  1  0  0  0  0
 20 18  1  0  0  0  0
 20 14  1  0  0  0  0
 21 20  1  0  0  0  0
 22 21  1  0  0  0  0
 23  5  1  0  0  0  0
 23 24  1  0  0  0  0
 25 28  2  0  0  0  0
 26 33  1  0  0  0  0
 27 29  1  0  0  0  0
 28 26  1  0  0  0  0
 28 24  1  0  0  0  0
 29 30  1  0  0  0  0
 30 26  1  0  0  0  0
 31 29  1  0  0  0  0
 31 25  1  0  0  0  0
 33 32  2  0  0  0  0
 33 34  1  0  0  0  0
 35 29  1  0  0  0  0
 36 35  1  0  0  0  0
M  END
>  <MODEL>
5

>  <REMARK>
 VINA RESULT:      -6.4      3.086      7.828
  Name = 
  9 active torsions:
  status: ('A' for Active; 'I' for Inactive)
    1  A    between atoms: C_4  and  C_29
    2  A    between atoms: C_6  and  C_9
    3  A    between atoms: C_9  and  C_21
    4  A    between atoms: O_10  and  C_15
    5  A    between atoms: C_13  and  C_32
    6  A    between atoms: C_14  and  N_24
    7  A    between atoms: C_20  and  C_25
    8  A    between atoms: N_24  and  C_36
    9  A    between atoms: C_30  and  C_36
                            x       y       z     vdW  Elec       q    Type
                         _______ _______ _______ _____ _____    ______ ____

>  <TORSDO>
F 9

$$$$
=
 OpenBabel11072413333D

 36 43  0  0  1  0  0  0  0  0999 V2000
  160.7560  206.5740  147.6700 N   0  0  0  0  0  1  0  0  0  0  0  0
  160.9360  206.1820  149.0280 C   0  0  0  0  0  0  0  0  0  0  0  0
  161.6320  206.8990  149.9790 C   0  0  1  0  0  3  0  0  0  0  0  0
  160.4450  205.0340  149.5330 N   0  0  0  0  0  0  0  0  0  0  0  0
  161.5710  206.1340  151.1230 C   0  0  0  0  0  0  0  0  0  0  0  0
  160.8300  205.0010  150.8280 C   0  0  0  0  0  3  0  0  0  0  0  0
  161.3730  209.3050  150.0790 C   0  0  2  0  0  3  0  0  0  0  0  0
  162.7090  208.7340  148.5080 N   0  0  0  0  0  2  0  0  0  0  0  0
  162.3310  208.2190  149.8200 C   0  0  2  0  0  0  0  0  0  0  0  0
  161.7900  209.8360  148.7220 C   0  0  2  0  0  3  0  0  0  0  0  0
  162.5310  209.1190  150.9650 N   0  0  0  0  0  2  0  0  0  0  0  0
  162.5510  211.1550  148.8290 C   0  0  0  0  0  2  0  0  0  0  0  0
  160.2250  212.4880  146.0630 C   0  0  1  0  0  3  0  0  0  0  0  0
  162.1710  212.0750  147.6760 C   0  0  1  0  0  3  0  0  0  0  0  0
  161.8270  214.2090  145.9150 C   0  0  0  0  0  2  0  0  0  0  0  0
  160.3120  213.9980  145.8940 C   0  0  2  0  0  0  0  0  0  0  0  0
  161.0550  214.4500  147.1680 C   0  0  1  0  0  3  0  0  0  0  0  0
  160.6690  212.0160  147.4500 C   0  0  1  0  0  3  0  0  0  0  0  0
  159.1510  213.3000  146.3340 O   0  0  0  0  0  0  0  0  0  0  0  0
  161.2680  213.2440  148.1120 C   0  0  1  0  0  0  0  0  0  0  0  0
  160.7880  213.3710  149.5550 C   0  0  0  0  0  2  0  0  0  0  0  0
  159.4600  214.1020  149.6020 C   0  0  0  0  0  1  0  0  0  0  0  0
  162.1710  206.4790  152.4440 C   0  0  0  0  0  2  0  0  0  0  0  0
  161.1210  206.6850  153.4320 N   0  0  0  0  0  2  0  0  0  0  0  0
  160.4900  208.9520  153.1810 C   0  0  0  0  0  3  0  0  0  0  0  0
  161.0170  208.2010  155.5030 C   0  0  1  0  0  3  0  0  0  0  0  0
  162.3410  210.7170  154.6270 O   0  0  0  0  0  1  0  0  0  0  0  0
  160.8270  207.9590  154.0110 C   0  0  0  0  0  0  0  0  0  0  0  0
  160.9690  210.6960  154.9200 C   0  0  2  0  0  0  0  0  0  0  0  0
  160.6550  209.6190  155.9710 C   0  0  0  0  0  2  0  0  0  0  0  0
  160.1910  210.3430  153.6550 C   0  0  0  0  0  2  0  0  0  0  0  0
  158.9280  206.9520  156.0430 O   0  0  0  0  0  0  0  0  0  0  0  0
  160.2590  207.2140  156.3350 C   0  0  0  0  0  0  0  0  0  0  0  0
  160.8320  206.5780  157.2600 O   0  0  0  0  0  1  0  0  0  0  0  0
  160.5310  211.9690  155.3530 O   0  0  0  0  0  0  0  0  0  0  0  0
  159.1250  212.0210  155.3080 C   0  0  0  0  0  1  0  0  0  0  0  0
  1  2  1  0  0  0  0
  2  4  2  0  0  0  0
  3  2  1  6  0  0  0
  3  5  1  0  0  0  0
  4  6  1  0  0  0  0
  5 23  1  0  0  0  0
  6  5  2  0  0  0  0
  7 11  1  1  0  0  0
  8 10  1  0  0  0  0
  9  8  1  6  0  0  0
  9  3  1  0  0  0  0
  9  7  1  0  0  0  0
  9 11  1  0  0  0  0
 10 12  1  1  0  0  0
 10  7  1  0  0  0  0
 13 19  1  1  0  0  0
 13 18  1  0  0  0  0
 14 20  1  0  0  0  0
 14 12  1  1  0  0  0
 16 15  1  6  0  0  0
 16 13  1  0  0  0  0
 16 19  1  0  0  0  0
 16 17  1  0  0  0  0
 17 15  1  6  0  0  0
 17 20  1  0  0  0  0
 18 14  1  0  0  0  0
 18 20  1  0  0  0  0
 20 21  1  0  0  0  0
 21 22  1  0  0  0  0
 23 24  1  0  0  0  0
 24 28  1  0  0  0  0
 25 31  1  0  0  0  0
 25 28  2  0  0  0  0
 26 30  1  0  0  0  0
 26 33  1  0  0  0  0
 27 29  1  0  0  0  0
 28 26  1  0  0  0  0
 29 35  1  0  0  0  0
 29 30  1  0  0  0  0
 31 29  1  0  0  0  0
 32 33  2  0  0  0  0
 33 34  1  0  0  0  0
 36 35  1  0  0  0  0
M  END
>  <MODEL>
6

>  <REMARK>
 VINA RESULT:      -6.4      2.968      7.488
  Name = 
  9 active torsions:
  status: ('A' for Active; 'I' for Inactive)
    1  A    between atoms: C_4  and  C_29
    2  A    between atoms: C_6  and  C_9
    3  A    between atoms: C_9  and  C_21
    4  A    between atoms: O_10  and  C_15
    5  A    between atoms: C_13  and  C_32
    6  A    between atoms: C_14  and  N_24
    7  A    between atoms: C_20  and  C_25
    8  A    between atoms: N_24  and  C_36
    9  A    between atoms: C_30  and  C_36
                            x       y       z     vdW  Elec       q    Type
                         _______ _______ _______ _____ _____    ______ ____

>  <TORSDO>
F 9

$$$$
=
 OpenBabel11072413333D

 36 43  0  0  1  0  0  0  0  0999 V2000
  158.9520  214.4490  147.5920 N   0  0  0  0  0  1  0  0  0  0  0  0
  159.7630  213.5730  148.3700 C   0  0  0  0  0  0  0  0  0  0  0  0
  160.7130  212.7090  147.8680 C   0  0  0  0  0  0  0  0  0  0  0  0
  159.6730  213.4880  149.7110 N   0  0  0  0  0  2  0  0  0  0  0  0
  161.2180  212.0500  148.9670 C   0  0  0  0  0  0  0  0  0  0  0  0
  160.5730  212.5520  150.0860 C   0  0  0  0  0  3  0  0  0  0  0  0
  161.2200  213.8050  145.7680 C   0  0  2  0  0  3  0  0  0  0  0  0
  160.1800  211.9630  145.4490 N   0  0  0  0  0  2  0  0  0  0  0  0
  161.1120  212.4980  146.4350 C   0  0  2  0  0  0  0  0  0  0  0  0
  160.2650  213.2270  144.7440 C   0  0  2  0  0  3  0  0  0  0  0  0
  162.4140  212.9620  145.9300 N   0  0  0  0  0  2  0  0  0  0  0  0
  160.9280  213.0370  143.3820 C   0  0  0  0  0  2  0  0  0  0  0  0
  159.7400  214.3780  139.9710 C   0  0  1  0  0  3  0  0  0  0  0  0
  159.9130  213.2580  142.2680 C   0  0  1  0  0  3  0  0  0  0  0  0
  157.8430  213.0520  140.4110 C   0  0  0  0  0  2  0  0  0  0  0  0
  158.7820  213.4300  139.2640 C   0  0  2  0  0  0  0  0  0  0  0  0
  158.9460  212.1150  140.0530 C   0  0  1  0  0  3  0  0  0  0  0  0
  160.6330  213.6710  140.9950 C   0  0  1  0  0  3  0  0  0  0  0  0
  160.0790  213.7730  138.7850 O   0  0  0  0  0  0  0  0  0  0  0  0
  160.0730  212.2650  141.1020 C   0  0  1  0  0  0  0  0  0  0  0  0
  161.1960  211.2310  141.0990 C   0  0  0  0  0  2  0  0  0  0  0  0
  161.0750  210.3320  139.8830 C   0  0  0  0  0  1  0  0  0  0  0  0
  162.2850  211.0090  148.9540 C   0  0  0  0  0  2  0  0  0  0  0  0
  161.9510  209.9370  149.8830 N   0  0  0  0  0  2  0  0  0  0  0  0
  162.4620  208.2240  148.3330 C   0  0  0  0  0  3  0  0  0  0  0  0
  161.1960  207.5310  150.3710 C   0  0  1  0  0  3  0  0  0  0  0  0
  160.0920  206.5780  147.7780 O   0  0  0  0  0  1  0  0  0  0  0  0
  161.9240  208.5560  149.5110 C   0  0  0  0  0  0  0  0  0  0  0  0
  161.2660  206.0170  148.3040 C   0  0  2  0  0  0  0  0  0  0  0  0
  161.2620  206.0920  149.8390 C   0  0  0  0  0  2  0  0  0  0  0  0
  162.4690  206.8180  147.8100 C   0  0  0  0  0  2  0  0  0  0  0  0
  162.7000  206.6860  152.1700 O   0  0  0  0  0  0  0  0  0  0  0  0
  161.6770  207.5410  151.7880 C   0  0  0  0  0  0  0  0  0  0  0  0
  161.2020  208.3570  152.6220 O   0  0  0  0  0  1  0  0  0  0  0  0
  161.4260  204.6850  147.8610 O   0  0  0  0  0  0  0  0  0  0  0  0
  162.0460  204.6810  146.5980 C   0  0  0  0  0  1  0  0  0  0  0  0
  1  2  1  0  0  0  0
  2  4  1  0  0  0  0
  3  2  2  0  0  0  0
  3  5  1  0  0  0  0
  4  6  1  0  0  0  0
  5  6  2  0  0  0  0
  7 11  1  6  0  0  0
  7  9  1  0  0  0  0
  8  9  1  0  0  0  0
  9  3  1  1  0  0  0
 10 12  1  6  0  0  0
 10  8  1  0  0  0  0
 10  7  1  0  0  0  0
 11  9  1  0  0  0  0
 13 19  1  6  0  0  0
 13 18  1  0  0  0  0
 14 12  1  1  0  0  0
 16 13  1  0  0  0  0
 16 17  1  0  0  0  0
 16 15  1  6  0  0  0
 17 15  1  1  0  0  0
 17 20  1  0  0  0  0
 18 20  1  0  0  0  0
 18 14  1  0  0  0  0
 19 16  1  0  0  0  0
 20 14  1  0  0  0  0
 21 20  1  0  0  0  0
 22 21  1  0  0  0  0
 23  5  1  0  0  0  0
 23 24  1  0  0  0  0
 25 28  2  0  0  0  0
 26 33  1  0  0  0  0
 27 29  1  0  0  0  0
 28 24  1  0  0  0  0
 28 26  1  0  0  0  0
 29 30  1  0  0  0  0
 30 26  1  0  0  0  0
 31 29  1  0  0  0  0
 31 25  1  0  0  0  0
 33 32  2  0  0  0  0
 33 34  1  0  0  0  0
 35 29  1  0  0  0  0
 36 35  1  0  0  0  0
M  END
>  <MODEL>
7

>  <REMARK>
 VINA RESULT:      -6.2      3.899      8.176
  Name = 
  9 active torsions:
  status: ('A' for Active; 'I' for Inactive)
    1  A    between atoms: C_4  and  C_29
    2  A    between atoms: C_6  and  C_9
    3  A    between atoms: C_9  and  C_21
    4  A    between atoms: O_10  and  C_15
    5  A    between atoms: C_13  and  C_32
    6  A    between atoms: C_14  and  N_24
    7  A    between atoms: C_20  and  C_25
    8  A    between atoms: N_24  and  C_36
    9  A    between atoms: C_30  and  C_36
                            x       y       z     vdW  Elec       q    Type
                         _______ _______ _______ _____ _____    ______ ____

>  <TORSDO>
F 9

$$$$
=
 OpenBabel11072413333D

 36 43  0  0  1  0  0  0  0  0999 V2000
  160.8460  203.8410  148.5670 N   0  0  0  0  0  1  0  0  0  0  0  0
  161.1700  204.3830  149.8440 C   0  0  0  0  0  0  0  0  0  0  0  0
  161.4110  205.7140  150.1080 C   0  0  0  0  0  0  0  0  0  0  0  0
  161.2890  203.6270  150.9530 N   0  0  0  0  0  2  0  0  0  0  0  0
  161.7090  205.7670  151.4520 C   0  0  0  0  0  0  0  0  0  0  0  0
  161.6180  204.4780  151.9500 C   0  0  0  0  0  3  0  0  0  0  0  0
  162.7190  207.4800  149.0890 C   0  0  2  0  0  3  0  0  0  0  0  0
  160.7180  208.1270  149.4830 N   0  0  0  0  0  2  0  0  0  0  0  0
  161.3820  206.8710  149.1500 C   0  0  2  0  0  0  0  0  0  0  0  0
  162.0120  208.7790  149.4190 C   0  0  2  0  0  3  0  0  0  0  0  0
  162.1470  206.8410  147.8950 N   0  0  0  0  0  2  0  0  0  0  0  0
  162.0560  209.7680  148.2560 C   0  0  0  0  0  2  0  0  0  0  0  0
  162.7690  213.5510  148.4100 C   0  0  1  0  0  3  0  0  0  0  0  0
  161.8480  211.1880  148.7680 C   0  0  1  0  0  3  0  0  0  0  0  0
  160.8270  213.5930  149.7430 C   0  0  0  0  0  2  0  0  0  0  0  0
  161.5130  214.3820  148.6260 C   0  0  2  0  0  0  0  0  0  0  0  0
  160.3770  213.3780  148.3380 C   0  0  1  0  0  3  0  0  0  0  0  0
  162.4800  212.1760  147.8000 C   0  0  1  0  0  3  0  0  0  0  0  0
  162.3160  214.4240  147.4510 O   0  0  0  0  0  0  0  0  0  0  0  0
  160.9680  212.0410  147.8340 C   0  0  1  0  0  0  0  0  0  0  0  0
  160.4440  211.4770  146.5170 C   0  0  0  0  0  2  0  0  0  0  0  0
  159.9000  212.5960  145.6490 C   0  0  0  0  0  1  0  0  0  0  0  0
  162.0400  206.9950  152.2310 C   0  0  0  0  0  2  0  0  0  0  0  0
  161.2660  207.0300  153.4640 N   0  0  0  0  0  2  0  0  0  0  0  0
  160.5460  209.2760  153.2760 C   0  0  0  0  0  3  0  0  0  0  0  0
  160.7930  208.3840  155.5950 C   0  0  1  0  0  3  0  0  0  0  0  0
  162.0760  211.0180  155.0790 O   0  0  0  0  0  1  0  0  0  0  0  0
  160.8230  208.2430  154.0780 C   0  0  0  0  0  0  0  0  0  0  0  0
  160.6800  210.9100  155.1750 C   0  0  2  0  0  0  0  0  0  0  0  0
  160.2890  209.7450  156.0980 C   0  0  0  0  0  2  0  0  0  0  0  0
  160.1040  210.6120  153.7930 C   0  0  0  0  0  2  0  0  0  0  0  0
  158.7300  206.9920  155.7470 O   0  0  0  0  0  0  0  0  0  0  0  0
  159.9860  207.3040  156.2450 C   0  0  0  0  0  0  0  0  0  0  0  0
  160.4600  206.6380  157.2040 O   0  0  0  0  0  1  0  0  0  0  0  0
  160.1140  212.1250  155.6240 O   0  0  0  0  0  0  0  0  0  0  0  0
  158.7110  212.0250  155.6030 C   0  0  0  0  0  1  0  0  0  0  0  0
  1  2  1  0  0  0  0
  2  3  2  0  0  0  0
  2  4  1  0  0  0  0
  3  5  1  0  0  0  0
  4  6  1  0  0  0  0
  5  6  2  0  0  0  0
  5 23  1  0  0  0  0
  7 11  1  6  0  0  0
  7  9  1  0  0  0  0
  7 10  1  0  0  0  0
  9  8  1  0  0  0  0
  9  3  1  1  0  0  0
 10 12  1  6  0  0  0
 10  8  1  0  0  0  0
 11  9  1  0  0  0  0
 13 19  1  6  0  0  0
 13 16  1  0  0  0  0
 14 12  1  6  0  0  0
 16 15  1  1  0  0  0
 17 16  1  0  0  0  0
 17 15  1  1  0  0  0
 18 20  1  0  0  0  0
 18 13  1  0  0  0  0
 18 14  1  0  0  0  0
 19 16  1  0  0  0  0
 20 17  1  0  0  0  0
 20 14  1  0  0  0  0
 21 20  1  0  0  0  0
 22 21  1  0  0  0  0
 23 24  1  0  0  0  0
 24 28  1  0  0  0  0
 25 31  1  0  0  0  0
 25 28  2  0  0  0  0
 26 30  1  0  0  0  0
 26 33  1  0  0  0  0
 27 29  1  0  0  0  0
 28 26  1  0  0  0  0
 29 35  1  0  0  0  0
 29 30  1  0  0  0  0
 31 29  1  0  0  0  0
 32 33  2  0  0  0  0
 33 34  1  0  0  0  0
 36 35  1  0  0  0  0
M  END
>  <MODEL>
8

>  <REMARK>
 VINA RESULT:      -6.2      3.031      7.354
  Name = 
  9 active torsions:
  status: ('A' for Active; 'I' for Inactive)
    1  A    between atoms: C_4  and  C_29
    2  A    between atoms: C_6  and  C_9
    3  A    between atoms: C_9  and  C_21
    4  A    between atoms: O_10  and  C_15
    5  A    between atoms: C_13  and  C_32
    6  A    between atoms: C_14  and  N_24
    7  A    between atoms: C_20  and  C_25
    8  A    between atoms: N_24  and  C_36
    9  A    between atoms: C_30  and  C_36
                            x       y       z     vdW  Elec       q    Type
                         _______ _______ _______ _____ _____    ______ ____

>  <TORSDO>
F 9

$$$$
=
 OpenBabel11072413333D

 36 43  0  0  1  0  0  0  0  0999 V2000
  162.3270  210.3140  149.0480 N   0  0  0  0  0  1  0  0  0  0  0  0
  161.8390  210.0960  150.3690 C   0  0  0  0  0  0  0  0  0  0  0  0
  161.6790  208.8640  150.9660 C   0  0  0  0  0  0  0  0  0  0  0  0
  161.4610  211.0980  151.1860 N   0  0  0  0  0  2  0  0  0  0  0  0
  161.1600  209.1320  152.2130 C   0  0  0  0  0  0  0  0  0  0  0  0
  161.0450  210.5080  152.3290 C   0  0  0  0  0  3  0  0  0  0  0  0
  161.0080  207.2080  149.3310 C   0  0  2  0  0  3  0  0  0  0  0  0
  161.6980  206.2820  151.1320 N   0  0  0  0  0  2  0  0  0  0  0  0
  161.9800  207.5080  150.3930 C   0  0  2  0  0  0  0  0  0  0  0  0
  160.7390  205.9310  150.1020 C   0  0  2  0  0  3  0  0  0  0  0  0
  162.4350  207.3510  149.0030 N   0  0  0  0  0  2  0  0  0  0  0  0
  161.2020  204.6910  149.3410 C   0  0  0  0  0  2  0  0  0  0  0  0
  162.8480  205.0500  145.8760 C   0  0  1  0  0  3  0  0  0  0  0  0
  161.2090  204.9680  147.8430 C   0  0  1  0  0  3  0  0  0  0  0  0
  160.6190  205.1850  145.1260 C   0  0  0  0  0  2  0  0  0  0  0  0
  161.9600  204.5540  144.7450 C   0  0  2  0  0  0  0  0  0  0  0  0
  160.8650  203.7580  145.4840 C   0  0  1  0  0  3  0  0  0  0  0  0
  162.4930  204.4300  147.2310 C   0  0  1  0  0  3  0  0  0  0  0  0
  163.2020  203.9630  145.1140 O   0  0  0  0  0  0  0  0  0  0  0  0
  161.1930  203.6830  146.9930 C   0  0  1  0  0  0  0  0  0  0  0  0
  161.2310  202.3060  147.6500 C   0  0  0  0  0  2  0  0  0  0  0  0
  160.8260  201.2390  146.6520 C   0  0  0  0  0  1  0  0  0  0  0  0
  160.8140  208.1250  153.2570 C   0  0  0  0  0  2  0  0  0  0  0  0
  161.3130  208.5570  154.5550 N   0  0  0  0  0  2  0  0  0  0  0  0
  159.4070  209.6190  155.4720 C   0  0  0  0  0  3  0  0  0  0  0  0
  161.5840  210.8050  155.7680 C   0  0  1  0  0  3  0  0  0  0  0  0
  159.3400  212.4620  154.7340 O   0  0  0  0  0  1  0  0  0  0  0  0
  160.7330  209.6310  155.3010 C   0  0  0  0  0  0  0  0  0  0  0  0
  159.3680  212.0550  156.0770 C   0  0  2  0  0  0  0  0  0  0  0  0
  160.8160  211.8740  156.5590 C   0  0  0  0  0  2  0  0  0  0  0  0
  158.6720  210.7020  156.2040 C   0  0  0  0  0  2  0  0  0  0  0  0
  162.7060  209.1520  157.2600 O   0  0  0  0  0  1  0  0  0  0  0  0
  162.7600  210.3600  156.5810 C   0  0  0  0  0  0  0  0  0  0  0  0
  163.8180  211.0440  156.6080 O   0  0  0  0  0  0  0  0  0  0  0  0
  158.6720  212.9750  156.8930 O   0  0  0  0  0  0  0  0  0  0  0  0
  157.3000  212.6630  156.8880 C   0  0  0  0  0  1  0  0  0  0  0  0
  1  2  1  0  0  0  0
  2  3  2  0  0  0  0
  2  4  1  0  0  0  0
  3  5  1  0  0  0  0
  4  6  1  0  0  0  0
  5  6  2  0  0  0  0
  5 23  1  0  0  0  0
  7 11  1  6  0  0  0
  7 10  1  0  0  0  0
  7  9  1  0  0  0  0
  9  3  1  1  0  0  0
  9  8  1  0  0  0  0
 10 12  1  6  0  0  0
 10  8  1  0  0  0  0
 11  9  1  0  0  0  0
 13 19  1  6  0  0  0
 13 18  1  0  0  0  0
 14 12  1  1  0  0  0
 16 19  1  0  0  0  0
 16 15  1  6  0  0  0
 16 17  1  0  0  0  0
 16 13  1  0  0  0  0
 17 15  1  1  0  0  0
 17 20  1  0  0  0  0
 18 14  1  0  0  0  0
 20 18  1  0  0  0  0
 20 21  1  0  0  0  0
 20 14  1  0  0  0  0
 22 21  1  0  0  0  0
 23 24  1  0  0  0  0
 24 28  1  0  0  0  0
 25 31  1  0  0  0  0
 26 30  1  0  0  0  0
 26 33  1  0  0  0  0
 27 29  1  0  0  0  0
 28 25  2  0  0  0  0
 28 26  1  0  0  0  0
 29 31  1  0  0  0  0
 29 30  1  0  0  0  0
 29 35  1  0  0  0  0
 33 34  2  0  0  0  0
 33 32  1  0  0  0  0
 36 35  1  0  0  0  0
M  END
>  <MODEL>
9

>  <REMARK>
 VINA RESULT:      -6.2      3.138      5.576
  Name = 
  9 active torsions:
  status: ('A' for Active; 'I' for Inactive)
    1  A    between atoms: C_4  and  C_29
    2  A    between atoms: C_6  and  C_9
    3  A    between atoms: C_9  and  C_21
    4  A    between atoms: O_10  and  C_15
    5  A    between atoms: C_13  and  C_32
    6  A    between atoms: C_14  and  N_24
    7  A    between atoms: C_20  and  C_25
    8  A    between atoms: N_24  and  C_36
    9  A    between atoms: C_30  and  C_36
                            x       y       z     vdW  Elec       q    Type
                         _______ _______ _______ _____ _____    ______ ____

>  <TORSDO>
F 9

$$$$
