=
 OpenBabel11072409463D

 49 56  0  0  1  0  0  0  0  0999 V2000
  162.1760  206.7270  151.5030 O   0  0  0  0  0  0  0  0  0  0  0  0
  161.7020  205.8640  150.5010 C   0  0  1  0  0  3  0  0  0  0  0  0
  161.2230  203.5380  151.0580 C   0  0  2  0  0  3  0  0  0  0  0  0
  160.6160  204.9270  151.0350 C   0  0  2  0  0  0  0  0  0  0  0  0
  160.1830  203.8920  150.0150 C   0  0  0  0  0  2  0  0  0  0  0  0
  160.9350  204.2550  152.3590 C   0  0  0  0  0  2  0  0  0  0  0  0
  161.1630  206.6500  149.2880 C   0  0  1  0  0  3  0  0  0  0  0  0
  161.9620  207.8990  149.0260 C   0  0  0  0  0  0  0  0  0  0  0  0
  163.1080  207.8250  148.5010 O   0  0  0  0  0  0  0  0  0  0  0  0
  162.1080  210.0590  150.1930 C   0  0  0  0  0  1  0  0  0  0  0  0
  161.4140  209.1360  149.3640 O   0  0  0  0  0  0  0  0  0  0  0  0
  159.7780  206.0560  147.4250 O   0  0  0  0  0  1  0  0  0  0  0  0
  160.9930  205.7540  148.0500 C   0  0  1  0  0  3  0  0  0  0  0  0
  160.1630  202.7100  145.5180 C   0  0  0  0  0  2  0  0  0  0  0  0
  161.9430  202.8910  147.5620 C   0  0  1  0  0  3  0  0  0  0  0  0
  163.2100  204.9930  147.2710 O   0  0  0  0  0  0  0  0  0  0  0  0
  162.9100  203.7320  146.6960 C   0  0  2  0  0  3  0  0  0  0  0  0
  160.1520  204.2070  145.2420 C   0  0  0  0  0  2  0  0  0  0  0  0
  160.6200  202.4360  146.9460 C   0  0  2  0  0  0  0  0  0  0  0  0
  161.7680  206.0990  145.5770 C   0  0  0  0  0  2  0  0  0  0  0  0
  161.7930  201.4840  147.0010 C   0  0  0  0  0  2  0  0  0  0  0  0
  162.1610  205.9300  147.0610 C   0  0  1  0  0  3  0  0  0  0  0  0
  161.5330  204.7620  144.8820 C   0  0  1  0  0  3  0  0  0  0  0  0
  162.6900  203.8170  145.1850 C   0  0  0  0  0  2  0  0  0  0  0  0
  159.6330  202.0730  147.8610 O   0  0  0  0  0  1  0  0  0  0  0  0
  161.0550  207.0720  152.2610 C   0  0  0  0  0  2  0  0  0  0  0  0
  161.4060  208.1730  153.2350 C   0  0  0  0  0  2  0  0  0  0  0  0
  160.7110  207.7620  154.8580 S   0  0  0  0  0  0  0  0  0  0  0  0
  160.7870  209.4640  155.4250 C   0  0  0  0  0  0  0  0  0  0  0  0
  161.6490  209.7860  156.3810 C   0  0  0  0  0  2  0  0  0  0  0  0
  159.8770  210.5390  154.8940 C   0  0  0  0  0  2  0  0  0  0  0  0
  157.8280  212.0010  155.5270 C   0  0  2  0  0  3  0  0  0  0  0  0
  158.5510  210.6480  155.6470 C   0  0  1  0  0  3  0  0  0  0  0  0
  157.4400  210.8290  154.6360 C   0  0  0  0  0  2  0  0  0  0  0  0
  159.8820  212.7370  152.8070 N   0  0  0  0  0  0  0  0  0  0  0  0
  156.7750  213.7020  150.2740 C   0  0  0  0  0  3  0  0  0  0  0  0
  158.6140  213.0200  154.8150 N   0  0  0  0  0  0  0  0  0  0  0  0
  157.8050  213.3810  151.1550 C   0  0  0  0  0  0  0  0  0  0  0  0
  160.0460  212.7130  151.4640 C   0  0  0  0  0  3  0  0  0  0  0  0
  156.3360  213.9060  153.0380 C   0  0  0  0  0  0  0  0  0  0  0  0
  158.6960  213.0740  153.3830 C   0  0  0  0  0  0  0  0  0  0  0  0
  156.0210  214.1400  154.4740 C   0  0  0  0  0  1  0  0  0  0  0  0
  157.6000  213.4480  152.5610 C   0  0  0  0  0  0  0  0  0  0  0  0
  155.5320  214.1050  150.7580 C   0  0  0  0  0  0  0  0  0  0  0  0
  159.0120  213.0240  150.6490 N   0  0  0  0  0  0  0  0  0  0  0  0
  155.3200  214.2180  152.1280 C   0  0  0  0  0  3  0  0  0  0  0  0
  154.4400  214.4410  149.8090 C   0  0  0  0  0  1  0  0  0  0  0  0
  159.4430  213.9340  155.5870 C   0  0  0  0  0  2  0  0  0  0  0  0
  159.0000  213.9770  156.9090 O   0  0  0  0  0  1  0  0  0  0  0  0
  1 26  1  0  0  0  0
  2  1  1  1  0  0  0
  3  5  1  1  0  0  0
  3  6  1  0  0  0  0
  4  2  1  6  0  0  0
  4  3  1  0  0  0  0
  4  6  1  0  0  0  0
  5  4  1  0  0  0  0
  7  8  1  6  0  0  0
  7  2  1  0  0  0  0
  8 11  1  0  0  0  0
  9  8  2  0  0  0  0
 11 10  1  0  0  0  0
 13 12  1  6  0  0  0
 13  7  1  0  0  0  0
 14 19  1  0  0  0  0
 15 21  1  6  0  0  0
 17 24  1  6  0  0  0
 17 16  1  0  0  0  0
 17 15  1  0  0  0  0
 18 14  1  0  0  0  0
 19 21  1  0  0  0  0
 19 15  1  0  0  0  0
 19 25  1  1  0  0  0
 20 22  1  0  0  0  0
 22 16  1  0  0  0  0
 22 13  1  1  0  0  0
 23 24  1  1  0  0  0
 23 18  1  0  0  0  0
 23 20  1  0  0  0  0
 26 27  1  0  0  0  0
 27 28  1  0  0  0  0
 28 29  1  0  0  0  0
 29 30  2  0  0  0  0
 31 29  1  0  0  0  0
 32 37  1  6  0  0  0
 32 33  1  0  0  0  0
 33 31  1  6  0  0  0
 34 32  1  0  0  0  0
 34 33  1  0  0  0  0
 35 41  1  0  0  0  0
 36 44  2  0  0  0  0
 36 38  1  0  0  0  0
 37 48  1  0  0  0  0
 38 43  1  0  0  0  0
 39 35  2  0  0  0  0
 40 42  1  0  0  0  0
 41 37  1  0  0  0  0
 43 40  1  0  0  0  0
 43 41  2  0  0  0  0
 44 46  1  0  0  0  0
 45 38  2  0  0  0  0
 45 39  1  0  0  0  0
 46 40  2  0  0  0  0
 47 44  1  0  0  0  0
 48 49  1  0  0  0  0
M  END
>  <MODEL>
1

>  <REMARK>
 VINA RESULT:      -4.9      0.000      0.000
  Name = 
  15 active torsions:
  status: ('A' for Active; 'I' for Inactive)
    1  A    between atoms: C_5  and  N_12
    2  A    between atoms: C_6  and  O_25
    3  A    between atoms: C_6  and  C_29
    4  A    between atoms: C_6  and  C_46
    5  A    between atoms: C_11  and  C_31
    6  A    between atoms: N_12  and  C_38
    7  A    between atoms: C_14  and  C_46
    8  A    between atoms: C_14  and  O_47
    9  A    between atoms: C_15  and  C_31
   10  A    between atoms: C_15  and  S_45
   11  A    between atoms: C_17  and  O_25
   12  A    between atoms: C_17  and  C_48
   13  A    between atoms: C_36  and  C_39
   14  A    between atoms: C_39  and  C_46
   15  A    between atoms: S_45  and  C_48
                            x       y       z     vdW  Elec       q    Type
                         _______ _______ _______ _____ _____    ______ ____

>  <TORSDO>
F 15

$$$$
=
 OpenBabel11072409463D

 49 56  0  0  1  0  0  0  0  0999 V2000
  160.5090  207.2470  151.3700 O   0  0  0  0  0  0  0  0  0  0  0  0
  160.9530  207.2790  150.0370 C   0  0  1  0  0  3  0  0  0  0  0  0
  162.1280  208.7760  148.5110 C   0  0  2  0  0  3  0  0  0  0  0  0
  162.2080  208.1410  149.8860 C   0  0  2  0  0  0  0  0  0  0  0  0
  163.1180  207.6590  148.7720 C   0  0  0  0  0  2  0  0  0  0  0  0
  161.9560  209.6320  149.7460 C   0  0  0  0  0  2  0  0  0  0  0  0
  161.2280  205.8590  149.5000 C   0  0  1  0  0  3  0  0  0  0  0  0
  160.8100  204.7960  150.4810 C   0  0  0  0  0  0  0  0  0  0  0  0
  159.7340  204.1580  150.3090 O   0  0  0  0  0  0  0  0  0  0  0  0
  161.2430  203.6070  152.5900 C   0  0  0  0  0  1  0  0  0  0  0  0
  161.6320  204.5210  151.5730 O   0  0  0  0  0  0  0  0  0  0  0  0
  159.5530  206.4990  147.9110 O   0  0  0  0  0  1  0  0  0  0  0  0
  160.6570  205.6570  148.0880 C   0  0  1  0  0  3  0  0  0  0  0  0
  160.0900  202.3840  145.7780 C   0  0  0  0  0  2  0  0  0  0  0  0
  161.9630  202.9260  147.6690 C   0  0  1  0  0  3  0  0  0  0  0  0
  162.9000  205.1590  147.1800 O   0  0  0  0  0  0  0  0  0  0  0  0
  162.7420  203.8380  146.6920 C   0  0  2  0  0  3  0  0  0  0  0  0
  159.8510  203.8470  145.4310 C   0  0  0  0  0  2  0  0  0  0  0  0
  160.6780  202.2590  147.1790 C   0  0  2  0  0  0  0  0  0  0  0  0
  161.2050  205.9570  145.5490 C   0  0  0  0  0  2  0  0  0  0  0  0
  161.9740  201.4810  147.1910 C   0  0  0  0  0  2  0  0  0  0  0  0
  161.7190  205.9320  147.0050 C   0  0  1  0  0  3  0  0  0  0  0  0
  161.1130  204.5620  144.9400 C   0  0  1  0  0  3  0  0  0  0  0  0
  162.4090  203.8030  145.2000 C   0  0  0  0  0  2  0  0  0  0  0  0
  159.8170  201.8210  148.1820 O   0  0  0  0  0  1  0  0  0  0  0  0
  161.4080  208.0420  152.0830 C   0  0  0  0  0  2  0  0  0  0  0  0
  160.8130  208.4280  153.4190 C   0  0  0  0  0  2  0  0  0  0  0  0
  161.3360  210.1150  153.8260 S   0  0  0  0  0  0  0  0  0  0  0  0
  160.2710  210.1970  155.2690 C   0  0  0  0  0  0  0  0  0  0  0  0
  160.1340  209.1190  156.0300 C   0  0  0  0  0  2  0  0  0  0  0  0
  159.4840  211.4290  155.6290 C   0  0  0  0  0  2  0  0  0  0  0  0
  157.0160  212.2100  155.4520 C   0  0  2  0  0  3  0  0  0  0  0  0
  158.0150  211.1490  155.9430 C   0  0  1  0  0  3  0  0  0  0  0  0
  157.2750  210.9500  154.6370 C   0  0  0  0  0  2  0  0  0  0  0  0
  159.1310  213.4900  152.9940 N   0  0  0  0  0  0  0  0  0  0  0  0
  156.1320  214.0870  150.2280 C   0  0  0  0  0  3  0  0  0  0  0  0
  157.6640  213.4000  154.8810 N   0  0  0  0  0  0  0  0  0  0  0  0
  157.1220  213.8860  151.1860 C   0  0  0  0  0  0  0  0  0  0  0  0
  159.4120  213.5950  151.6740 C   0  0  0  0  0  3  0  0  0  0  0  0
  155.4260  214.0070  152.9430 C   0  0  0  0  0  0  0  0  0  0  0  0
  157.8590  213.5740  153.4690 C   0  0  0  0  0  0  0  0  0  0  0  0
  154.9520  214.0760  154.3520 C   0  0  0  0  0  1  0  0  0  0  0  0
  156.7880  213.8110  152.5670 C   0  0  0  0  0  0  0  0  0  0  0  0
  154.8000  214.2320  150.6100 C   0  0  0  0  0  0  0  0  0  0  0  0
  158.4130  213.7810  150.7810 N   0  0  0  0  0  0  0  0  0  0  0  0
  154.4530  214.2050  151.9570 C   0  0  0  0  0  3  0  0  0  0  0  0
  153.7510  214.4430  149.5800 C   0  0  0  0  0  1  0  0  0  0  0  0
  158.2460  214.3840  155.7820 C   0  0  0  0  0  2  0  0  0  0  0  0
  157.5930  214.3470  157.0130 O   0  0  0  0  0  1  0  0  0  0  0  0
  1 26  1  0  0  0  0
  2  1  1  1  0  0  0
  3  5  1  1  0  0  0
  3  6  1  0  0  0  0
  3  4  1  0  0  0  0
  4  2  1  1  0  0  0
  5  4  1  0  0  0  0
  6  4  1  0  0  0  0
  7  2  1  0  0  0  0
  7  8  1  1  0  0  0
  8 11  1  0  0  0  0
  9  8  2  0  0  0  0
 11 10  1  0  0  0  0
 13 12  1  6  0  0  0
 13  7  1  0  0  0  0
 14 19  1  0  0  0  0
 15 21  1  6  0  0  0
 17 24  1  6  0  0  0
 17 16  1  0  0  0  0
 17 15  1  0  0  0  0
 18 14  1  0  0  0  0
 19 21  1  0  0  0  0
 19 15  1  0  0  0  0
 19 25  1  1  0  0  0
 20 22  1  0  0  0  0
 22 16  1  0  0  0  0
 22 13  1  1  0  0  0
 23 24  1  1  0  0  0
 23 18  1  0  0  0  0
 23 20  1  0  0  0  0
 26 27  1  0  0  0  0
 27 28  1  0  0  0  0
 28 29  1  0  0  0  0
 29 31  1  0  0  0  0
 29 30  2  0  0  0  0
 32 37  1  6  0  0  0
 32 33  1  0  0  0  0
 33 31  1  6  0  0  0
 34 32  1  0  0  0  0
 34 33  1  0  0  0  0
 35 41  1  0  0  0  0
 36 44  2  0  0  0  0
 36 38  1  0  0  0  0
 37 48  1  0  0  0  0
 38 43  1  0  0  0  0
 39 35  2  0  0  0  0
 40 42  1  0  0  0  0
 41 37  1  0  0  0  0
 43 40  1  0  0  0  0
 43 41  2  0  0  0  0
 44 46  1  0  0  0  0
 45 38  2  0  0  0  0
 45 39  1  0  0  0  0
 46 40  2  0  0  0  0
 47 44  1  0  0  0  0
 48 49  1  0  0  0  0
M  END
>  <MODEL>
2

>  <REMARK>
 VINA RESULT:      -4.7      1.098      2.324
  Name = 
  15 active torsions:
  status: ('A' for Active; 'I' for Inactive)
    1  A    between atoms: C_5  and  N_12
    2  A    between atoms: C_6  and  O_25
    3  A    between atoms: C_6  and  C_29
    4  A    between atoms: C_6  and  C_46
    5  A    between atoms: C_11  and  C_31
    6  A    between atoms: N_12  and  C_38
    7  A    between atoms: C_14  and  C_46
    8  A    between atoms: C_14  and  O_47
    9  A    between atoms: C_15  and  C_31
   10  A    between atoms: C_15  and  S_45
   11  A    between atoms: C_17  and  O_25
   12  A    between atoms: C_17  and  C_48
   13  A    between atoms: C_36  and  C_39
   14  A    between atoms: C_39  and  C_46
   15  A    between atoms: S_45  and  C_48
                            x       y       z     vdW  Elec       q    Type
                         _______ _______ _______ _____ _____    ______ ____

>  <TORSDO>
F 15

$$$$
=
 OpenBabel11072409463D

 49 56  0  0  1  0  0  0  0  0999 V2000
  161.1370  209.8210  154.0180 O   0  0  0  0  0  0  0  0  0  0  0  0
  160.3740  209.3850  155.1140 C   0  0  1  0  0  3  0  0  0  0  0  0
  159.7250  207.1980  155.9810 C   0  0  2  0  0  3  0  0  0  0  0  0
  160.9250  208.0820  155.6970 C   0  0  2  0  0  0  0  0  0  0  0  0
  160.4760  207.8450  157.1270 C   0  0  0  0  0  2  0  0  0  0  0  0
  160.6740  206.8410  154.8590 C   0  0  0  0  0  2  0  0  0  0  0  0
  160.3030  210.4610  156.2170 C   0  0  1  0  0  3  0  0  0  0  0  0
  161.5940  211.2270  156.3390 C   0  0  0  0  0  0  0  0  0  0  0  0
  161.5880  212.4260  156.7350 O   0  0  0  0  0  0  0  0  0  0  0  0
  163.8590  210.4910  156.9510 C   0  0  0  0  0  1  0  0  0  0  0  0
  162.7920  210.5910  156.0170 O   0  0  0  0  0  0  0  0  0  0  0  0
  158.8680  212.0730  157.2570 O   0  0  0  0  0  1  0  0  0  0  0  0
  159.0630  211.3570  156.0700 C   0  0  1  0  0  3  0  0  0  0  0  0
  155.5450  213.3240  156.4140 C   0  0  0  0  0  2  0  0  0  0  0  0
  156.2960  211.2910  154.7770 C   0  0  1  0  0  3  0  0  0  0  0  0
  158.4510  211.9150  153.7430 O   0  0  0  0  0  0  0  0  0  0  0  0
  157.0830  212.2630  153.8670 C   0  0  2  0  0  3  0  0  0  0  0  0
  156.9580  213.8650  156.5800 C   0  0  0  0  0  2  0  0  0  0  0  0
  155.5820  211.8560  156.0050 C   0  0  2  0  0  0  0  0  0  0  0  0
  159.0600  213.8250  155.2090 C   0  0  0  0  0  2  0  0  0  0  0  0
  154.8040  211.5940  154.7360 C   0  0  0  0  0  2  0  0  0  0  0  0
  159.2040  212.3240  154.8790 C   0  0  1  0  0  3  0  0  0  0  0  0
  157.6040  214.2750  155.2540 C   0  0  1  0  0  3  0  0  0  0  0  0
  156.8740  213.7700  154.0150 C   0  0  0  0  0  2  0  0  0  0  0  0
  155.2690  210.9230  156.9910 O   0  0  0  0  0  1  0  0  0  0  0  0
  160.5220  209.2700  152.8920 C   0  0  0  0  0  2  0  0  0  0  0  0
  160.7480  210.1590  151.6910 C   0  0  0  0  0  2  0  0  0  0  0  0
  162.4990  210.0800  151.2250 S   0  0  0  0  0  0  0  0  0  0  0  0
  162.1240  209.9520  149.4740 C   0  0  0  0  0  0  0  0  0  0  0  0
  161.7820  211.0470  148.8070 C   0  0  0  0  0  2  0  0  0  0  0  0
  162.1330  208.6400  148.7350 C   0  0  0  0  0  2  0  0  0  0  0  0
  162.4500  206.1170  149.2540 C   0  0  2  0  0  3  0  0  0  0  0  0
  162.9670  207.5570  149.4170 C   0  0  1  0  0  3  0  0  0  0  0  0
  163.5490  206.6560  148.3490 C   0  0  0  0  0  2  0  0  0  0  0  0
  160.7150  206.1330  146.2300 N   0  0  0  0  0  0  0  0  0  0  0  0
  160.9890  202.0610  145.6480 C   0  0  0  0  0  3  0  0  0  0  0  0
  161.1450  206.0410  148.5810 N   0  0  0  0  0  0  0  0  0  0  0  0
  160.9020  203.4310  145.8760 C   0  0  0  0  0  0  0  0  0  0  0  0
  160.5710  205.5950  144.9960 C   0  0  0  0  0  3  0  0  0  0  0  0
  161.1910  203.0350  148.2720 C   0  0  0  0  0  0  0  0  0  0  0  0
  160.9580  205.3670  147.3270 C   0  0  0  0  0  0  0  0  0  0  0  0
  161.2170  203.4290  149.7070 C   0  0  0  0  0  1  0  0  0  0  0  0
  161.0300  203.9540  147.1930 C   0  0  0  0  0  0  0  0  0  0  0  0
  161.1910  201.1800  146.7090 C   0  0  0  0  0  0  0  0  0  0  0  0
  160.6730  204.2570  144.8250 N   0  0  0  0  0  0  0  0  0  0  0  0
  161.2780  201.6630  148.0110 C   0  0  0  0  0  3  0  0  0  0  0  0
  161.2860  199.7200  146.4540 C   0  0  0  0  0  1  0  0  0  0  0  0
  160.0220  206.7820  149.1370 C   0  0  0  0  0  2  0  0  0  0  0  0
  159.5050  206.1050  150.2410 O   0  0  0  0  0  1  0  0  0  0  0  0
  2  1  1  6  0  0  0
  2  7  1  0  0  0  0
  3  6  1  1  0  0  0
  3  5  1  0  0  0  0
  4  2  1  6  0  0  0
  4  3  1  0  0  0  0
  4  5  1  0  0  0  0
  6  4  1  0  0  0  0
  7  8  1  6  0  0  0
  8  9  2  0  0  0  0
 11  8  1  0  0  0  0
 11 10  1  0  0  0  0
 13  7  1  0  0  0  0
 13 12  1  1  0  0  0
 14 18  1  0  0  0  0
 15 21  1  6  0  0  0
 15 19  1  0  0  0  0
 16 17  1  0  0  0  0
 16 22  1  0  0  0  0
 17 24  1  1  0  0  0
 17 15  1  0  0  0  0
 19 14  1  0  0  0  0
 19 25  1  1  0  0  0
 20 23  1  0  0  0  0
 21 19  1  0  0  0  0
 22 20  1  0  0  0  0
 22 13  1  1  0  0  0
 23 24  1  6  0  0  0
 23 18  1  0  0  0  0
 26  1  1  0  0  0  0
 27 26  1  0  0  0  0
 28 27  1  0  0  0  0
 29 28  1  0  0  0  0
 30 29  2  0  0  0  0
 31 29  1  0  0  0  0
 32 37  1  6  0  0  0
 32 33  1  0  0  0  0
 33 31  1  6  0  0  0
 34 32  1  0  0  0  0
 34 33  1  0  0  0  0
 35 41  1  0  0  0  0
 36 38  1  0  0  0  0
 36 44  2  0  0  0  0
 37 48  1  0  0  0  0
 38 43  1  0  0  0  0
 39 35  2  0  0  0  0
 40 42  1  0  0  0  0
 41 37  1  0  0  0  0
 43 41  2  0  0  0  0
 43 40  1  0  0  0  0
 44 46  1  0  0  0  0
 45 39  1  0  0  0  0
 45 38  2  0  0  0  0
 46 40  2  0  0  0  0
 47 44  1  0  0  0  0
 48 49  1  0  0  0  0
M  END
>  <MODEL>
3

>  <REMARK>
 VINA RESULT:      -4.1      3.112     10.633
  Name = 
  15 active torsions:
  status: ('A' for Active; 'I' for Inactive)
    1  A    between atoms: C_5  and  N_12
    2  A    between atoms: C_6  and  O_25
    3  A    between atoms: C_6  and  C_29
    4  A    between atoms: C_6  and  C_46
    5  A    between atoms: C_11  and  C_31
    6  A    between atoms: N_12  and  C_38
    7  A    between atoms: C_14  and  C_46
    8  A    between atoms: C_14  and  O_47
    9  A    between atoms: C_15  and  C_31
   10  A    between atoms: C_15  and  S_45
   11  A    between atoms: C_17  and  O_25
   12  A    between atoms: C_17  and  C_48
   13  A    between atoms: C_36  and  C_39
   14  A    between atoms: C_39  and  C_46
   15  A    between atoms: S_45  and  C_48
                            x       y       z     vdW  Elec       q    Type
                         _______ _______ _______ _____ _____    ______ ____

>  <TORSDO>
F 15

$$$$
=
 OpenBabel11072409463D

 49 56  0  0  1  0  0  0  0  0999 V2000
  161.7840  210.0350  154.3240 O   0  0  0  0  0  0  0  0  0  0  0  0
  160.7230  209.4760  155.0550 C   0  0  1  0  0  3  0  0  0  0  0  0
  159.7360  207.4380  155.9630 C   0  0  2  0  0  3  0  0  0  0  0  0
  161.0480  208.0530  155.5150 C   0  0  2  0  0  0  0  0  0  0  0  0
  160.7740  207.8390  156.9920 C   0  0  0  0  0  2  0  0  0  0  0  0
  160.4050  206.9460  154.6980 C   0  0  0  0  0  2  0  0  0  0  0  0
  160.3560  210.3480  156.2740 C   0  0  1  0  0  3  0  0  0  0  0  0
  161.5320  211.1490  156.7670 C   0  0  0  0  0  0  0  0  0  0  0  0
  161.4330  212.3990  156.9150 O   0  0  0  0  0  0  0  0  0  0  0  0
  163.9790  210.9710  156.6050 C   0  0  0  0  0  1  0  0  0  0  0  0
  162.7230  210.4890  157.0660 O   0  0  0  0  0  0  0  0  0  0  0  0
  158.5640  211.6050  157.2480 O   0  0  0  0  0  1  0  0  0  0  0  0
  159.0950  211.1900  156.0220 C   0  0  1  0  0  3  0  0  0  0  0  0
  155.5790  213.1560  156.3880 C   0  0  0  0  0  2  0  0  0  0  0  0
  156.5230  211.5500  154.4110 C   0  0  1  0  0  3  0  0  0  0  0  0
  158.8020  212.3180  153.8440 O   0  0  0  0  0  0  0  0  0  0  0  0
  157.4320  212.6810  153.8740 C   0  0  2  0  0  3  0  0  0  0  0  0
  156.9610  213.5830  156.8590 C   0  0  0  0  0  2  0  0  0  0  0  0
  155.6580  211.8290  155.6400 C   0  0  2  0  0  0  0  0  0  0  0  0
  159.2270  213.7910  155.7980 C   0  0  0  0  0  2  0  0  0  0  0  0
  155.0530  211.9130  154.2570 C   0  0  0  0  0  2  0  0  0  0  0  0
  159.4000  212.4090  155.1310 C   0  0  1  0  0  3  0  0  0  0  0  0
  157.7810  214.2750  155.7660 C   0  0  1  0  0  3  0  0  0  0  0  0
  157.2180  214.1150  154.3590 C   0  0  0  0  0  2  0  0  0  0  0  0
  155.2090  210.7000  156.3200 O   0  0  0  0  0  1  0  0  0  0  0  0
  161.2920  210.2180  153.0300 C   0  0  0  0  0  2  0  0  0  0  0  0
  162.4100  210.0620  152.0240 C   0  0  0  0  0  2  0  0  0  0  0  0
  161.8070  210.5860  150.3960 S   0  0  0  0  0  0  0  0  0  0  0  0
  162.3720  209.0790  149.5990 C   0  0  0  0  0  0  0  0  0  0  0  0
  163.0390  209.1670  148.4550 C   0  0  0  0  0  2  0  0  0  0  0  0
  162.0790  207.7090  150.1500 C   0  0  0  0  0  2  0  0  0  0  0  0
  160.2410  205.9490  150.6570 C   0  0  2  0  0  3  0  0  0  0  0  0
  160.5880  207.3890  150.2420 C   0  0  1  0  0  3  0  0  0  0  0  0
  160.2530  207.0740  151.6830 C   0  0  0  0  0  2  0  0  0  0  0  0
  161.4800  202.8080  151.5210 N   0  0  0  0  0  0  0  0  0  0  0  0
  160.8670  201.1520  147.7950 C   0  0  0  0  0  3  0  0  0  0  0  0
  161.4170  205.0740  150.7590 N   0  0  0  0  0  0  0  0  0  0  0  0
  161.0740  201.7410  149.0400 C   0  0  0  0  0  0  0  0  0  0  0  0
  161.3970  201.4660  151.3610 C   0  0  0  0  0  3  0  0  0  0  0  0
  161.1380  203.9400  147.9720 C   0  0  0  0  0  0  0  0  0  0  0  0
  161.3640  203.6680  150.4740 C   0  0  0  0  0  0  0  0  0  0  0  0
  161.3600  205.4110  147.9350 C   0  0  0  0  0  1  0  0  0  0  0  0
  161.1850  203.1540  149.1620 C   0  0  0  0  0  0  0  0  0  0  0  0
  160.7790  201.9390  146.6480 C   0  0  0  0  0  0  0  0  0  0  0  0
  161.1870  200.9430  150.1310 N   0  0  0  0  0  0  0  0  0  0  0  0
  160.9260  203.3200  146.7360 C   0  0  0  0  0  3  0  0  0  0  0  0
  160.5550  201.3010  145.3260 C   0  0  0  0  0  1  0  0  0  0  0  0
  162.6570  205.6210  151.2920 C   0  0  0  0  0  2  0  0  0  0  0  0
  162.7020  205.4390  152.6740 O   0  0  0  0  0  1  0  0  0  0  0  0
  2  1  1  1  0  0  0
  2  7  1  0  0  0  0
  3  6  1  6  0  0  0
  3  5  1  0  0  0  0
  4  2  1  6  0  0  0
  4  3  1  0  0  0  0
  4  5  1  0  0  0  0
  6  4  1  0  0  0  0
  7  8  1  6  0  0  0
  8  9  2  0  0  0  0
  8 11  1  0  0  0  0
 10 11  1  0  0  0  0
 13  7  1  0  0  0  0
 13 12  1  1  0  0  0
 14 18  1  0  0  0  0
 15 21  1  6  0  0  0
 15 19  1  0  0  0  0
 16 17  1  0  0  0  0
 16 22  1  0  0  0  0
 17 24  1  1  0  0  0
 17 15  1  0  0  0  0
 19 25  1  1  0  0  0
 19 14  1  0  0  0  0
 21 19  1  0  0  0  0
 22 20  1  0  0  0  0
 22 13  1  1  0  0  0
 23 24  1  6  0  0  0
 23 20  1  0  0  0  0
 23 18  1  0  0  0  0
 26  1  1  0  0  0  0
 27 26  1  0  0  0  0
 28 27  1  0  0  0  0
 29 31  1  0  0  0  0
 29 28  1  0  0  0  0
 30 29  2  0  0  0  0
 32 37  1  1  0  0  0
 32 34  1  0  0  0  0
 33 31  1  1  0  0  0
 33 32  1  0  0  0  0
 33 34  1  0  0  0  0
 36 38  1  0  0  0  0
 37 48  1  0  0  0  0
 38 43  2  0  0  0  0
 38 45  1  0  0  0  0
 39 35  1  0  0  0  0
 40 43  1  0  0  0  0
 41 37  1  0  0  0  0
 41 35  2  0  0  0  0
 42 40  1  0  0  0  0
 43 41  1  0  0  0  0
 44 46  1  0  0  0  0
 44 36  2  0  0  0  0
 45 39  2  0  0  0  0
 46 40  2  0  0  0  0
 47 44  1  0  0  0  0
 48 49  1  0  0  0  0
M  END
>  <MODEL>
4

>  <REMARK>
 VINA RESULT:      -3.6      3.414     10.520
  Name = 
  15 active torsions:
  status: ('A' for Active; 'I' for Inactive)
    1  A    between atoms: C_5  and  N_12
    2  A    between atoms: C_6  and  O_25
    3  A    between atoms: C_6  and  C_29
    4  A    between atoms: C_6  and  C_46
    5  A    between atoms: C_11  and  C_31
    6  A    between atoms: N_12  and  C_38
    7  A    between atoms: C_14  and  C_46
    8  A    between atoms: C_14  and  O_47
    9  A    between atoms: C_15  and  C_31
   10  A    between atoms: C_15  and  S_45
   11  A    between atoms: C_17  and  O_25
   12  A    between atoms: C_17  and  C_48
   13  A    between atoms: C_36  and  C_39
   14  A    between atoms: C_39  and  C_46
   15  A    between atoms: S_45  and  C_48
                            x       y       z     vdW  Elec       q    Type
                         _______ _______ _______ _____ _____    ______ ____

>  <TORSDO>
F 15

$$$$
=
 OpenBabel11072409463D

 49 56  0  0  1  0  0  0  0  0999 V2000
  162.1000  205.3790  151.7810 O   0  0  0  0  0  0  0  0  0  0  0  0
  161.6350  204.7500  150.6140 C   0  0  1  0  0  3  0  0  0  0  0  0
  161.4950  202.3360  150.2850 C   0  0  2  0  0  3  0  0  0  0  0  0
  160.7980  203.5120  150.9420 C   0  0  2  0  0  0  0  0  0  0  0  0
  160.1990  202.8670  149.7070 C   0  0  0  0  0  2  0  0  0  0  0  0
  161.4950  202.4650  151.7920 C   0  0  0  0  0  2  0  0  0  0  0  0
  160.8130  205.7190  149.7390 C   0  0  1  0  0  3  0  0  0  0  0  0
  161.2000  207.1550  149.9750 C   0  0  0  0  0  0  0  0  0  0  0  0
  160.5750  207.8520  150.8220 O   0  0  0  0  0  0  0  0  0  0  0  0
  162.1550  208.9570  148.6020 C   0  0  0  0  0  1  0  0  0  0  0  0
  162.2620  207.6970  149.2520 O   0  0  0  0  0  0  0  0  0  0  0  0
  159.8530  206.0410  147.5680 O   0  0  0  0  0  1  0  0  0  0  0  0
  160.8260  205.3090  148.2580 C   0  0  1  0  0  3  0  0  0  0  0  0
  160.1930  203.5310  144.6800 C   0  0  0  0  0  2  0  0  0  0  0  0
  161.4310  202.6280  146.9230 C   0  0  1  0  0  3  0  0  0  0  0  0
  163.0280  204.3670  147.6510 O   0  0  0  0  0  0  0  0  0  0  0  0
  162.6930  203.4660  146.6100 C   0  0  2  0  0  3  0  0  0  0  0  0
  160.4720  204.9970  144.9780 C   0  0  0  0  0  2  0  0  0  0  0  0
  160.2440  202.7080  145.9630 C   0  0  2  0  0  0  0  0  0  0  0  0
  162.2200  206.2610  146.2610 C   0  0  0  0  0  2  0  0  0  0  0  0
  161.2150  201.5540  145.8660 C   0  0  0  0  0  2  0  0  0  0  0  0
  162.2120  205.5320  147.6230 C   0  0  1  0  0  3  0  0  0  0  0  0
  161.9650  205.3140  145.0930 C   0  0  1  0  0  3  0  0  0  0  0  0
  162.8610  204.0880  145.2230 C   0  0  0  0  0  2  0  0  0  0  0  0
  159.0230  202.2980  146.4930 O   0  0  0  0  0  1  0  0  0  0  0  0
  160.9550  205.7720  152.4770 C   0  0  0  0  0  2  0  0  0  0  0  0
  161.3380  206.3550  153.8180 C   0  0  0  0  0  2  0  0  0  0  0  0
  159.9010  206.2750  154.9220 S   0  0  0  0  0  0  0  0  0  0  0  0
  160.7990  207.0020  156.2960 C   0  0  0  0  0  0  0  0  0  0  0  0
  161.2520  206.2110  157.2600 C   0  0  0  0  0  2  0  0  0  0  0  0
  161.0210  208.4850  156.4270 C   0  0  0  0  0  2  0  0  0  0  0  0
  159.7300  210.7270  156.6310 C   0  0  2  0  0  3  0  0  0  0  0  0
  159.8210  209.2370  157.0030 C   0  0  1  0  0  3  0  0  0  0  0  0
  158.9390  209.6820  155.8550 C   0  0  0  0  0  2  0  0  0  0  0  0
  161.8320  210.3160  153.8810 N   0  0  0  0  0  0  0  0  0  0  0  0
  159.5620  212.6510  151.3520 C   0  0  0  0  0  3  0  0  0  0  0  0
  160.9030  211.2160  155.8920 N   0  0  0  0  0  0  0  0  0  0  0  0
  160.3150  211.8770  152.2320 C   0  0  0  0  0  0  0  0  0  0  0  0
  161.9400  210.1950  152.5360 C   0  0  0  0  0  3  0  0  0  0  0  0
  159.3280  213.0850  154.1150 C   0  0  0  0  0  0  0  0  0  0  0  0
  160.9770  211.2020  154.4590 C   0  0  0  0  0  0  0  0  0  0  0  0
  159.1930  213.4640  155.5480 C   0  0  0  0  0  1  0  0  0  0  0  0
  160.1930  212.0560  153.6380 C   0  0  0  0  0  0  0  0  0  0  0  0
  158.6870  213.6210  151.8380 C   0  0  0  0  0  0  0  0  0  0  0  0
  161.1800  210.9640  151.7240 N   0  0  0  0  0  0  0  0  0  0  0  0
  158.5820  213.8440  153.2070 C   0  0  0  0  0  3  0  0  0  0  0  0
  157.8860  214.4390  150.8910 C   0  0  0  0  0  1  0  0  0  0  0  0
  162.0880  211.6130  156.6380 C   0  0  0  0  0  2  0  0  0  0  0  0
  163.2310  211.1040  156.0210 O   0  0  0  0  0  1  0  0  0  0  0  0
  1 26  1  0  0  0  0
  2  1  1  1  0  0  0
  3  5  1  1  0  0  0
  3  4  1  0  0  0  0
  3  6  1  0  0  0  0
  4  2  1  6  0  0  0
  4  6  1  0  0  0  0
  5  4  1  0  0  0  0
  7  8  1  6  0  0  0
  7  2  1  0  0  0  0
  8  9  2  0  0  0  0
 10 11  1  0  0  0  0
 11  8  1  0  0  0  0
 13 12  1  6  0  0  0
 13  7  1  0  0  0  0
 14 18  1  0  0  0  0
 14 19  1  0  0  0  0
 15 21  1  6  0  0  0
 17 24  1  6  0  0  0
 17 15  1  0  0  0  0
 17 16  1  0  0  0  0
 19 25  1  1  0  0  0
 19 15  1  0  0  0  0
 20 22  1  0  0  0  0
 21 19  1  0  0  0  0
 22 16  1  0  0  0  0
 22 13  1  6  0  0  0
 23 18  1  1  0  0  0
 23 24  1  0  0  0  0
 23 20  1  0  0  0  0
 26 27  1  0  0  0  0
 27 28  1  0  0  0  0
 28 29  1  0  0  0  0
 29 31  1  0  0  0  0
 29 30  2  0  0  0  0
 32 37  1  6  0  0  0
 32 33  1  0  0  0  0
 33 31  1  6  0  0  0
 34 32  1  0  0  0  0
 34 33  1  0  0  0  0
 35 41  1  0  0  0  0
 36 44  2  0  0  0  0
 36 38  1  0  0  0  0
 37 48  1  0  0  0  0
 38 43  1  0  0  0  0
 39 35  2  0  0  0  0
 40 42  1  0  0  0  0
 41 37  1  0  0  0  0
 43 40  1  0  0  0  0
 43 41  2  0  0  0  0
 44 46  1  0  0  0  0
 45 38  2  0  0  0  0
 45 39  1  0  0  0  0
 46 40  2  0  0  0  0
 47 44  1  0  0  0  0
 49 48  1  0  0  0  0
M  END
>  <MODEL>
5

>  <REMARK>
 VINA RESULT:      -2.7      1.751      2.385
  Name = 
  15 active torsions:
  status: ('A' for Active; 'I' for Inactive)
    1  A    between atoms: C_5  and  N_12
    2  A    between atoms: C_6  and  O_25
    3  A    between atoms: C_6  and  C_29
    4  A    between atoms: C_6  and  C_46
    5  A    between atoms: C_11  and  C_31
    6  A    between atoms: N_12  and  C_38
    7  A    between atoms: C_14  and  C_46
    8  A    between atoms: C_14  and  O_47
    9  A    between atoms: C_15  and  C_31
   10  A    between atoms: C_15  and  S_45
   11  A    between atoms: C_17  and  O_25
   12  A    between atoms: C_17  and  C_48
   13  A    between atoms: C_36  and  C_39
   14  A    between atoms: C_39  and  C_46
   15  A    between atoms: S_45  and  C_48
                            x       y       z     vdW  Elec       q    Type
                         _______ _______ _______ _____ _____    ______ ____

>  <TORSDO>
F 15

$$$$
=
 OpenBabel11072409463D

 49 56  0  0  1  0  0  0  0  0999 V2000
  161.3030  209.5790  154.7650 O   0  0  0  0  0  0  0  0  0  0  0  0
  160.3560  209.3740  155.7820 C   0  0  1  0  0  3  0  0  0  0  0  0
  160.4710  206.9390  155.6730 C   0  0  2  0  0  3  0  0  0  0  0  0
  160.6750  208.1210  156.6010 C   0  0  2  0  0  0  0  0  0  0  0  0
  159.4720  207.2150  156.7780 C   0  0  0  0  0  2  0  0  0  0  0  0
  161.8680  207.3160  156.1150 C   0  0  0  0  0  2  0  0  0  0  0  0
  160.2570  210.5970  156.7170 C   0  0  1  0  0  3  0  0  0  0  0  0
  161.5900  211.2730  156.9010 C   0  0  0  0  0  0  0  0  0  0  0  0
  161.6460  212.4940  157.2170 O   0  0  0  0  0  0  0  0  0  0  0  0
  164.0300  211.1510  156.6230 C   0  0  0  0  0  1  0  0  0  0  0  0
  162.7570  210.5290  156.7280 O   0  0  0  0  0  0  0  0  0  0  0  0
  158.9960  212.5600  157.2610 O   0  0  0  0  0  1  0  0  0  0  0  0
  159.1300  211.5540  156.2970 C   0  0  1  0  0  3  0  0  0  0  0  0
  155.6470  213.5440  155.7800 C   0  0  0  0  0  2  0  0  0  0  0  0
  156.4920  211.1510  154.8100 C   0  0  1  0  0  3  0  0  0  0  0  0
  158.7470  211.4810  153.8570 O   0  0  0  0  0  0  0  0  0  0  0  0
  157.3820  211.8490  153.7560 C   0  0  2  0  0  3  0  0  0  0  0  0
  157.0520  214.1090  155.9300 C   0  0  0  0  0  2  0  0  0  0  0  0
  155.6840  212.0200  155.7750 C   0  0  2  0  0  0  0  0  0  0  0  0
  159.2690  213.7090  154.8230 C   0  0  0  0  0  2  0  0  0  0  0  0
  155.0180  211.4330  154.5510 C   0  0  0  0  0  2  0  0  0  0  0  0
  159.4030  212.1730  154.9130 C   0  0  1  0  0  3  0  0  0  0  0  0
  157.8260  214.1560  154.6100 C   0  0  1  0  0  3  0  0  0  0  0  0
  157.2000  213.3430  153.4830 C   0  0  0  0  0  2  0  0  0  0  0  0
  155.2590  211.3800  156.9360 O   0  0  0  0  0  1  0  0  0  0  0  0
  160.7570  208.9920  153.6210 C   0  0  0  0  0  2  0  0  0  0  0  0
  161.4820  209.4840  152.3890 C   0  0  0  0  0  2  0  0  0  0  0  0
  162.5520  208.1580  151.7720 S   0  0  0  0  0  0  0  0  0  0  0  0
  161.8850  208.2680  150.1080 C   0  0  0  0  0  0  0  0  0  0  0  0
  161.8110  209.4560  149.5220 C   0  0  0  0  0  2  0  0  0  0  0  0
  161.3600  207.0700  149.3620 C   0  0  0  0  0  2  0  0  0  0  0  0
  161.2330  206.3840  146.8630 C   0  0  2  0  0  3  0  0  0  0  0  0
  160.8530  207.3950  147.9580 C   0  0  1  0  0  3  0  0  0  0  0  0
  159.8720  206.3210  147.5420 C   0  0  0  0  0  2  0  0  0  0  0  0
  161.8090  203.8070  149.1400 N   0  0  0  0  0  0  0  0  0  0  0  0
  160.0420  200.8910  146.8210 C   0  0  0  0  0  3  0  0  0  0  0  0
  162.1510  205.3360  147.3330 N   0  0  0  0  0  0  0  0  0  0  0  0
  160.6430  201.8940  147.5770 C   0  0  0  0  0  0  0  0  0  0  0  0
  161.3650  202.6530  149.6910 C   0  0  0  0  0  3  0  0  0  0  0  0
  161.0250  203.1830  145.5350 C   0  0  0  0  0  0  0  0  0  0  0  0
  161.6940  204.0610  147.8080 C   0  0  0  0  0  0  0  0  0  0  0  0
  161.5920  204.3070  144.7400 C   0  0  0  0  0  1  0  0  0  0  0  0
  161.1230  203.0790  146.9540 C   0  0  0  0  0  0  0  0  0  0  0  0
  159.9140  201.0290  145.4400 C   0  0  0  0  0  0  0  0  0  0  0  0
  160.7800  201.7120  148.9150 N   0  0  0  0  0  0  0  0  0  0  0  0
  160.4140  202.1600  144.8030 C   0  0  0  0  0  3  0  0  0  0  0  0
  159.2690  199.9540  144.6430 C   0  0  0  0  0  1  0  0  0  0  0  0
  163.5710  205.6410  147.4410 C   0  0  0  0  0  2  0  0  0  0  0  0
  164.3190  204.6570  146.7950 O   0  0  0  0  0  1  0  0  0  0  0  0
  2  1  1  6  0  0  0
  2  7  1  0  0  0  0
  3  6  1  1  0  0  0
  3  4  1  0  0  0  0
  3  5  1  0  0  0  0
  4  2  1  6  0  0  0
  4  5  1  0  0  0  0
  6  4  1  0  0  0  0
  7  8  1  6  0  0  0
  8  9  2  0  0  0  0
 10 11  1  0  0  0  0
 11  8  1  0  0  0  0
 13  7  1  0  0  0  0
 13 12  1  1  0  0  0
 14 18  1  0  0  0  0
 15 21  1  6  0  0  0
 15 19  1  0  0  0  0
 16 22  1  0  0  0  0
 17 24  1  1  0  0  0
 17 16  1  0  0  0  0
 17 15  1  0  0  0  0
 19 14  1  0  0  0  0
 19 25  1  1  0  0  0
 20 22  1  0  0  0  0
 21 19  1  0  0  0  0
 22 13  1  1  0  0  0
 23 24  1  6  0  0  0
 23 20  1  0  0  0  0
 23 18  1  0  0  0  0
 26  1  1  0  0  0  0
 27 26  1  0  0  0  0
 28 27  1  0  0  0  0
 29 28  1  0  0  0  0
 30 29  2  0  0  0  0
 31 29  1  0  0  0  0
 32 37  1  1  0  0  0
 32 34  1  0  0  0  0
 32 33  1  0  0  0  0
 33 31  1  1  0  0  0
 34 33  1  0  0  0  0
 35 39  1  0  0  0  0
 36 38  1  0  0  0  0
 37 48  1  0  0  0  0
 37 41  1  0  0  0  0
 38 45  1  0  0  0  0
 40 43  1  0  0  0  0
 41 35  2  0  0  0  0
 42 40  1  0  0  0  0
 43 38  2  0  0  0  0
 43 41  1  0  0  0  0
 44 36  2  0  0  0  0
 45 39  2  0  0  0  0
 46 44  1  0  0  0  0
 46 40  2  0  0  0  0
 47 44  1  0  0  0  0
 49 48  1  0  0  0  0
M  END
>  <MODEL>
6

>  <REMARK>
 VINA RESULT:      -2.1      3.401     10.961
  Name = 
  15 active torsions:
  status: ('A' for Active; 'I' for Inactive)
    1  A    between atoms: C_5  and  N_12
    2  A    between atoms: C_6  and  O_25
    3  A    between atoms: C_6  and  C_29
    4  A    between atoms: C_6  and  C_46
    5  A    between atoms: C_11  and  C_31
    6  A    between atoms: N_12  and  C_38
    7  A    between atoms: C_14  and  C_46
    8  A    between atoms: C_14  and  O_47
    9  A    between atoms: C_15  and  C_31
   10  A    between atoms: C_15  and  S_45
   11  A    between atoms: C_17  and  O_25
   12  A    between atoms: C_17  and  C_48
   13  A    between atoms: C_36  and  C_39
   14  A    between atoms: C_39  and  C_46
   15  A    between atoms: S_45  and  C_48
                            x       y       z     vdW  Elec       q    Type
                         _______ _______ _______ _____ _____    ______ ____

>  <TORSDO>
F 15

$$$$
