=
 OpenBabel11072410223D

 33 35  0  0  1  0  0  0  0  0999 V2000
  161.1530  204.9360  148.9650 N   0  0  0  0  0  0  0  0  0  0  0  0
  160.8310  201.4650  150.5270 C   0  0  0  0  0  1  0  0  0  0  0  0
  161.1080  205.0410  151.4780 C   0  0  0  0  0  0  0  0  0  0  0  0
  160.9940  205.7910  150.1610 C   0  0  1  0  0  3  0  0  0  0  0  0
  161.1070  207.3070  152.5510 C   0  0  0  0  0  2  0  0  0  0  0  0
  161.2380  205.8010  152.7670 C   0  0  0  0  0  2  0  0  0  0  0  0
  162.0700  207.7970  151.4720 C   0  0  1  0  0  3  0  0  0  0  0  0
  161.9140  207.0020  150.1940 C   0  0  0  0  0  0  0  0  0  0  0  0
  160.9840  203.5110  149.0800 C   0  0  0  0  0  0  0  0  0  0  0  0
  161.0590  203.7130  151.5450 C   0  0  0  0  0  3  0  0  0  0  0  0
  162.5320  207.3520  149.2010 O   0  0  0  0  0  0  0  0  0  0  0  0
  160.9460  202.9060  150.3760 N   0  0  0  0  0  0  0  0  0  0  0  0
  160.8650  202.7930  148.0490 O   0  0  0  0  0  0  0  0  0  0  0  0
  161.0380  205.5570  147.6410 C   0  0  0  0  0  2  0  0  0  0  0  0
  161.5090  204.6240  146.5250 C   0  0  1  0  0  3  0  0  0  0  0  0
  159.7540  206.2410  145.1970 O   0  0  0  0  0  1  0  0  0  0  0  0
  160.7040  205.0880  144.9640 P   0  0  0  0  0  0  0  0  0  0  0  0
  159.8430  203.7640  144.3600 O   0  0  0  0  0  1  0  0  0  0  0  0
  161.8800  205.5480  143.8380 O   0  0  0  0  0  0  0  0  0  0  0  0
  164.1170  204.6810  146.2340 N   0  0  0  0  0  0  0  0  0  0  0  0
  162.9660  204.6590  146.3620 C   0  0  0  0  0  0  0  0  0  0  0  0
  161.8250  209.2140  151.2250 N   0  0  0  0  0  2  0  0  0  0  0  0
  160.1920  211.8080  154.2290 C   0  0  0  0  0  0  0  0  0  0  0  0
  159.5190  211.7660  152.8670 C   0  0  0  0  0  0  0  0  0  0  0  0
  160.4770  211.2780  151.7710 C   0  0  0  0  0  2  0  0  0  0  0  0
  159.0770  213.0270  152.5100 F   0  0  0  0  0  0  0  0  0  0  0  0
  161.6910  210.0120  153.4980 C   0  0  0  0  0  3  0  0  0  0  0  0
  161.3280  210.1200  152.2140 C   0  0  0  0  0  0  0  0  0  0  0  0
  161.1740  210.9440  154.5110 C   0  0  0  0  0  3  0  0  0  0  0  0
  158.4320  210.9120  152.9280 F   0  0  0  0  0  0  0  0  0  0  0  0
  160.4220  213.0080  156.2710 O   0  0  0  0  0  0  0  0  0  0  0  0
  159.6810  212.6720  155.3100 C   0  0  0  0  0  0  0  0  0  0  0  0
  158.4010  213.1250  155.2760 F   0  0  0  0  0  0  0  0  0  0  0  0
  1  9  1  0  0  0  0
  1  4  1  0  0  0  0
  3 10  2  0  0  0  0
  3  6  1  0  0  0  0
  4  8  1  1  0  0  0
  4  3  1  0  0  0  0
  5  6  1  0  0  0  0
  7 22  1  6  0  0  0
  7  5  1  0  0  0  0
  8  7  1  0  0  0  0
  9 12  1  0  0  0  0
 11  8  2  0  0  0  0
 12  2  1  0  0  0  0
 12 10  1  0  0  0  0
 13  9  2  0  0  0  0
 14  1  1  0  0  0  0
 15 21  1  6  0  0  0
 15 14  1  0  0  0  0
 17 16  1  0  0  0  0
 17 15  1  0  0  0  0
 18 17  1  0  0  0  0
 19 17  2  0  0  0  0
 20 21  3  0  0  0  0
 22 28  1  0  0  0  0
 23 29  2  0  0  0  0
 23 32  1  0  0  0  0
 24 30  1  0  0  0  0
 24 23  1  0  0  0  0
 25 28  1  0  0  0  0
 25 24  1  0  0  0  0
 26 24  1  0  0  0  0
 27 29  1  0  0  0  0
 28 27  2  0  0  0  0
 32 31  2  0  0  0  0
 33 32  1  0  0  0  0
M  END
>  <MODEL>
1

>  <REMARK>
 VINA RESULT:      -8.3      0.000      0.000
  Name = 
  7 active torsions:
  status: ('A' for Active; 'I' for Inactive)
    1  A    between atoms: C_1  and  C_21
    2  A    between atoms: C_2  and  N_3
    3  A    between atoms: C_2  and  C_9
    4  A    between atoms: N_5  and  C_22
    5  A    between atoms: N_5  and  C_27
    6  A    between atoms: C_9  and  P_11
    7  A    between atoms: C_9  and  C_23
                            x       y       z     vdW  Elec       q    Type
                         _______ _______ _______ _____ _____    ______ ____

>  <TORSDO>
F 7

$$$$
=
 OpenBabel11072410223D

 33 35  0  0  1  0  0  0  0  0999 V2000
  160.8980  209.1030  154.1160 N   0  0  0  0  0  0  0  0  0  0  0  0
  160.0680  207.0990  157.2610 C   0  0  0  0  0  1  0  0  0  0  0  0
  161.1550  206.6280  153.7440 C   0  0  0  0  0  0  0  0  0  0  0  0
  161.4370  208.0360  153.2450 C   0  0  1  0  0  3  0  0  0  0  0  0
  162.0410  205.8670  151.5250 C   0  0  0  0  0  2  0  0  0  0  0  0
  161.3960  205.4490  152.8450 C   0  0  0  0  0  2  0  0  0  0  0  0
  161.2430  206.9800  150.8470 C   0  0  1  0  0  3  0  0  0  0  0  0
  161.0140  208.1430  151.7870 C   0  0  0  0  0  0  0  0  0  0  0  0
  160.5550  208.8020  155.4820 C   0  0  0  0  0  0  0  0  0  0  0  0
  160.7300  206.3850  154.9820 C   0  0  0  0  0  3  0  0  0  0  0  0
  160.4950  209.1590  151.3540 O   0  0  0  0  0  0  0  0  0  0  0  0
  160.4650  207.4380  155.9040 N   0  0  0  0  0  0  0  0  0  0  0  0
  160.3370  209.7310  156.3080 O   0  0  0  0  0  0  0  0  0  0  0  0
  161.1340  210.5000  153.7370 C   0  0  0  0  0  2  0  0  0  0  0  0
  159.8570  211.1910  153.2580 C   0  0  1  0  0  3  0  0  0  0  0  0
  158.6030  213.4930  154.0210 O   0  0  0  0  0  0  0  0  0  0  0  0
  159.1830  212.2190  154.5940 P   0  0  0  0  0  0  0  0  0  0  0  0
  160.4160  212.6050  155.6850 O   0  0  0  0  0  1  0  0  0  0  0  0
  157.9690  211.3660  155.4050 O   0  0  0  0  0  1  0  0  0  0  0  0
  160.2860  212.6620  151.1270 N   0  0  0  0  0  0  0  0  0  0  0  0
  160.0950  212.0150  152.0680 C   0  0  0  0  0  0  0  0  0  0  0  0
  161.9610  207.4190  149.6550 N   0  0  0  0  0  2  0  0  0  0  0  0
  161.3870  205.4940  145.8630 C   0  0  0  0  0  0  0  0  0  0  0  0
  162.5630  205.0620  146.7210 C   0  0  0  0  0  0  0  0  0  0  0  0
  162.9740  206.1540  147.7190 C   0  0  0  0  0  2  0  0  0  0  0  0
  163.6610  204.7820  145.9270 F   0  0  0  0  0  0  0  0  0  0  0  0
  160.6480  206.9580  147.6840 C   0  0  0  0  0  3  0  0  0  0  0  0
  161.7950  206.8280  148.3630 C   0  0  0  0  0  0  0  0  0  0  0  0
  160.4810  206.3470  146.3580 C   0  0  0  0  0  3  0  0  0  0  0  0
  162.2160  203.9200  147.4210 F   0  0  0  0  0  0  0  0  0  0  0  0
  161.4120  205.4730  143.4830 O   0  0  0  0  0  0  0  0  0  0  0  0
  161.1250  204.8710  144.5510 C   0  0  0  0  0  0  0  0  0  0  0  0
  160.5770  203.6300  144.4810 F   0  0  0  0  0  0  0  0  0  0  0  0
  1  9  1  0  0  0  0
  3 10  2  0  0  0  0
  4  8  1  6  0  0  0
  4  3  1  0  0  0  0
  4  1  1  0  0  0  0
  5  6  1  0  0  0  0
  6  3  1  0  0  0  0
  7 22  1  6  0  0  0
  7  5  1  0  0  0  0
  7  8  1  0  0  0  0
  9 12  1  0  0  0  0
  9 13  2  0  0  0  0
 10 12  1  0  0  0  0
 11  8  2  0  0  0  0
 12  2  1  0  0  0  0
 14  1  1  0  0  0  0
 15 21  1  6  0  0  0
 15 14  1  0  0  0  0
 15 17  1  0  0  0  0
 16 17  2  0  0  0  0
 17 19  1  0  0  0  0
 17 18  1  0  0  0  0
 20 21  3  0  0  0  0
 23 29  2  0  0  0  0
 23 24  1  0  0  0  0
 24 30  1  0  0  0  0
 24 25  1  0  0  0  0
 25 28  1  0  0  0  0
 26 24  1  0  0  0  0
 27 28  2  0  0  0  0
 28 22  1  0  0  0  0
 29 27  1  0  0  0  0
 31 32  2  0  0  0  0
 32 23  1  0  0  0  0
 33 32  1  0  0  0  0
M  END
>  <MODEL>
2

>  <REMARK>
 VINA RESULT:      -7.9      4.580      9.035
  Name = 
  7 active torsions:
  status: ('A' for Active; 'I' for Inactive)
    1  A    between atoms: C_1  and  C_21
    2  A    between atoms: C_2  and  N_3
    3  A    between atoms: C_2  and  C_9
    4  A    between atoms: N_5  and  C_22
    5  A    between atoms: N_5  and  C_27
    6  A    between atoms: C_9  and  P_11
    7  A    between atoms: C_9  and  C_23
                            x       y       z     vdW  Elec       q    Type
                         _______ _______ _______ _____ _____    ______ ____

>  <TORSDO>
F 7

$$$$
=
 OpenBabel11072410223D

 33 35  0  0  1  0  0  0  0  0999 V2000
  161.5260  208.7370  153.0620 N   0  0  0  0  0  0  0  0  0  0  0  0
  160.4950  208.1450  156.6930 C   0  0  0  0  0  1  0  0  0  0  0  0
  161.1090  206.3010  153.5320 C   0  0  0  0  0  0  0  0  0  0  0  0
  161.6950  207.3440  152.5940 C   0  0  1  0  0  3  0  0  0  0  0  0
  161.5700  204.6620  151.6920 C   0  0  0  0  0  2  0  0  0  0  0  0
  160.9600  204.8770  153.0750 C   0  0  0  0  0  2  0  0  0  0  0  0
  161.0260  205.6710  150.6820 C   0  0  1  0  0  3  0  0  0  0  0  0
  161.1860  207.0900  151.1840 C   0  0  0  0  0  0  0  0  0  0  0  0
  161.2400  208.9920  154.4510 C   0  0  0  0  0  0  0  0  0  0  0  0
  160.7480  206.5900  154.7800 C   0  0  0  0  0  3  0  0  0  0  0  0
  160.9070  208.0150  150.4380 O   0  0  0  0  0  0  0  0  0  0  0  0
  160.8430  207.9130  155.3010 N   0  0  0  0  0  0  0  0  0  0  0  0
  161.3410  210.1590  154.9220 O   0  0  0  0  0  0  0  0  0  0  0  0
  162.0770  209.8210  152.2420 C   0  0  0  0  0  2  0  0  0  0  0  0
  161.0370  210.4040  151.2850 C   0  0  1  0  0  3  0  0  0  0  0  0
  160.7870  212.1580  153.3620 O   0  0  0  0  0  1  0  0  0  0  0  0
  160.0370  211.6460  152.1530 P   0  0  0  0  0  0  0  0  0  0  0  0
  158.5800  210.9480  152.6500 O   0  0  0  0  0  1  0  0  0  0  0  0
  159.7090  212.9360  151.1090 O   0  0  0  0  0  0  0  0  0  0  0  0
  162.1580  211.4800  149.1690 N   0  0  0  0  0  0  0  0  0  0  0  0
  161.6620  211.0060  150.1010 C   0  0  0  0  0  0  0  0  0  0  0  0
  161.7230  205.4960  149.4130 N   0  0  0  0  0  2  0  0  0  0  0  0
  160.8650  202.4740  146.4880 C   0  0  0  0  0  0  0  0  0  0  0  0
  161.3980  203.8130  146.0080 C   0  0  0  0  0  0  0  0  0  0  0  0
  161.1300  204.9320  147.0240 C   0  0  0  0  0  2  0  0  0  0  0  0
  160.7950  204.1710  144.8160 F   0  0  0  0  0  0  0  0  0  0  0  0
  161.1650  203.2300  148.8010 C   0  0  0  0  0  3  0  0  0  0  0  0
  161.3750  204.5020  148.4440 C   0  0  0  0  0  0  0  0  0  0  0  0
  160.8120  202.2120  147.8000 C   0  0  0  0  0  3  0  0  0  0  0  0
  162.7630  203.7070  145.8040 F   0  0  0  0  0  0  0  0  0  0  0  0
  161.0380  200.2350  145.6990 O   0  0  0  0  0  0  0  0  0  0  0  0
  160.5550  201.3870  145.5400 C   0  0  0  0  0  0  0  0  0  0  0  0
  159.7300  201.6160  144.4850 F   0  0  0  0  0  0  0  0  0  0  0  0
  1  9  1  0  0  0  0
  3 10  2  0  0  0  0
  4  8  1  6  0  0  0
  4  1  1  0  0  0  0
  4  3  1  0  0  0  0
  5  6  1  0  0  0  0
  6  3  1  0  0  0  0
  7 22  1  6  0  0  0
  7  8  1  0  0  0  0
  7  5  1  0  0  0  0
  9 13  2  0  0  0  0
  9 12  1  0  0  0  0
 10 12  1  0  0  0  0
 11  8  2  0  0  0  0
 12  2  1  0  0  0  0
 14  1  1  0  0  0  0
 15 21  1  6  0  0  0
 15 17  1  0  0  0  0
 15 14  1  0  0  0  0
 17 18  1  0  0  0  0
 17 16  1  0  0  0  0
 19 17  2  0  0  0  0
 20 21  3  0  0  0  0
 23 29  2  0  0  0  0
 24 23  1  0  0  0  0
 24 25  1  0  0  0  0
 25 28  1  0  0  0  0
 26 24  1  0  0  0  0
 28 27  2  0  0  0  0
 28 22  1  0  0  0  0
 29 27  1  0  0  0  0
 30 24  1  0  0  0  0
 32 31  2  0  0  0  0
 32 23  1  0  0  0  0
 33 32  1  0  0  0  0
M  END
>  <MODEL>
3

>  <REMARK>
 VINA RESULT:      -7.4      4.736      8.895
  Name = 
  7 active torsions:
  status: ('A' for Active; 'I' for Inactive)
    1  A    between atoms: C_1  and  C_21
    2  A    between atoms: C_2  and  N_3
    3  A    between atoms: C_2  and  C_9
    4  A    between atoms: N_5  and  C_22
    5  A    between atoms: N_5  and  C_27
    6  A    between atoms: C_9  and  P_11
    7  A    between atoms: C_9  and  C_23
                            x       y       z     vdW  Elec       q    Type
                         _______ _______ _______ _____ _____    ______ ____

>  <TORSDO>
F 7

$$$$
=
 OpenBabel11072410223D

 33 35  0  0  1  0  0  0  0  0999 V2000
  161.0310  212.0400  150.9780 N   0  0  0  0  0  0  0  0  0  0  0  0
  161.6960  214.1580  147.8690 C   0  0  0  0  0  1  0  0  0  0  0  0
  161.7250  210.6280  149.0150 C   0  0  0  0  0  0  0  0  0  0  0  0
  161.1150  210.6790  150.4060 C   0  0  1  0  0  3  0  0  0  0  0  0
  161.7190  208.1390  149.3070 C   0  0  0  0  0  2  0  0  0  0  0  0
  162.1240  209.3100  148.4150 C   0  0  0  0  0  2  0  0  0  0  0  0
  162.2330  208.3240  150.7340 C   0  0  1  0  0  3  0  0  0  0  0  0
  161.8180  209.6660  151.2970 C   0  0  0  0  0  0  0  0  0  0  0  0
  161.1120  213.1850  150.1080 C   0  0  0  0  0  0  0  0  0  0  0  0
  161.8910  211.7210  148.2720 C   0  0  0  0  0  3  0  0  0  0  0  0
  162.0530  209.9130  152.4690 O   0  0  0  0  0  0  0  0  0  0  0  0
  161.5510  213.0170  148.7570 N   0  0  0  0  0  0  0  0  0  0  0  0
  160.7940  214.3330  150.5270 O   0  0  0  0  0  0  0  0  0  0  0  0
  160.4370  212.2040  152.3090 C   0  0  0  0  0  2  0  0  0  0  0  0
  158.9610  211.8060  152.3330 C   0  0  1  0  0  3  0  0  0  0  0  0
  156.9280  211.3130  154.0880 O   0  0  0  0  0  0  0  0  0  0  0  0
  158.4070  211.6240  154.0530 P   0  0  0  0  0  0  0  0  0  0  0  0
  158.6990  213.0610  154.8940 O   0  0  0  0  0  1  0  0  0  0  0  0
  159.2620  210.3640  154.7900 O   0  0  0  0  0  1  0  0  0  0  0  0
  157.4570  213.5660  151.0950 N   0  0  0  0  0  0  0  0  0  0  0  0
  158.1190  212.7880  151.6410 C   0  0  0  0  0  0  0  0  0  0  0  0
  161.7230  207.2410  151.5660 N   0  0  0  0  0  2  0  0  0  0  0  0
  160.9010  203.2420  150.2410 C   0  0  0  0  0  0  0  0  0  0  0  0
  161.3660  203.4470  151.6720 C   0  0  0  0  0  0  0  0  0  0  0  0
  162.1360  204.7650  151.8400 C   0  0  0  0  0  2  0  0  0  0  0  0
  162.2040  202.4160  152.0580 F   0  0  0  0  0  0  0  0  0  0  0  0
  160.8440  205.6760  149.9540 C   0  0  0  0  0  3  0  0  0  0  0  0
  161.5060  205.9070  151.0940 C   0  0  0  0  0  0  0  0  0  0  0  0
  160.6190  204.3040  149.4750 C   0  0  0  0  0  3  0  0  0  0  0  0
  160.2620  203.4610  152.5070 F   0  0  0  0  0  0  0  0  0  0  0  0
  159.4490  201.6240  149.2720 O   0  0  0  0  0  0  0  0  0  0  0  0
  160.5940  201.8970  149.7190 C   0  0  0  0  0  0  0  0  0  0  0  0
  161.5530  200.9350  149.7050 F   0  0  0  0  0  0  0  0  0  0  0  0
  1 14  1  0  0  0  0
  2 12  1  0  0  0  0
  4  3  1  6  0  0  0
  4  1  1  0  0  0  0
  4  8  1  0  0  0  0
  5  7  1  0  0  0  0
  6  3  1  0  0  0  0
  6  5  1  0  0  0  0
  7  8  1  0  0  0  0
  7 22  1  1  0  0  0
  8 11  2  0  0  0  0
  9 13  2  0  0  0  0
  9  1  1  0  0  0  0
 10 12  1  0  0  0  0
 10  3  2  0  0  0  0
 12  9  1  0  0  0  0
 14 15  1  0  0  0  0
 15 21  1  1  0  0  0
 15 17  1  0  0  0  0
 17 16  2  0  0  0  0
 17 19  1  0  0  0  0
 17 18  1  0  0  0  0
 20 21  3  0  0  0  0
 23 24  1  0  0  0  0
 24 25  1  0  0  0  0
 24 26  1  0  0  0  0
 24 30  1  0  0  0  0
 27 28  2  0  0  0  0
 28 22  1  0  0  0  0
 28 25  1  0  0  0  0
 29 27  1  0  0  0  0
 29 23  2  0  0  0  0
 31 32  2  0  0  0  0
 32 23  1  0  0  0  0
 33 32  1  0  0  0  0
M  END
>  <MODEL>
4

>  <REMARK>
 VINA RESULT:      -7.1      4.545      9.240
  Name = 
  7 active torsions:
  status: ('A' for Active; 'I' for Inactive)
    1  A    between atoms: C_1  and  C_21
    2  A    between atoms: C_2  and  N_3
    3  A    between atoms: C_2  and  C_9
    4  A    between atoms: N_5  and  C_22
    5  A    between atoms: N_5  and  C_27
    6  A    between atoms: C_9  and  P_11
    7  A    between atoms: C_9  and  C_23
                            x       y       z     vdW  Elec       q    Type
                         _______ _______ _______ _____ _____    ______ ____

>  <TORSDO>
F 7

$$$$
=
 OpenBabel11072410223D

 33 35  0  0  1  0  0  0  0  0999 V2000
  159.2520  211.3530  152.9580 N   0  0  0  0  0  0  0  0  0  0  0  0
  160.0710  214.4280  150.8430 C   0  0  0  0  0  1  0  0  0  0  0  0
  161.0820  210.8860  151.2960 C   0  0  0  0  0  0  0  0  0  0  0  0
  160.0580  210.3230  152.2670 C   0  0  1  0  0  3  0  0  0  0  0  0
  161.9520  208.5400  151.1470 C   0  0  0  0  0  2  0  0  0  0  0  0
  162.1480  209.9950  150.7260 C   0  0  0  0  0  2  0  0  0  0  0  0
  161.8190  208.4150  152.6640 C   0  0  1  0  0  3  0  0  0  0  0  0
  160.7430  209.3350  153.1990 C   0  0  0  0  0  0  0  0  0  0  0  0
  159.1750  212.6830  152.4100 C   0  0  0  0  0  0  0  0  0  0  0  0
  161.0530  212.1530  150.8890 C   0  0  0  0  0  3  0  0  0  0  0  0
  160.4370  209.2630  154.3780 O   0  0  0  0  0  0  0  0  0  0  0  0
  160.0860  213.0780  151.3800 N   0  0  0  0  0  0  0  0  0  0  0  0
  158.3080  213.5000  152.8280 O   0  0  0  0  0  0  0  0  0  0  0  0
  158.2180  210.9170  153.9010 C   0  0  0  0  0  2  0  0  0  0  0  0
  158.0730  211.8770  155.0820 C   0  0  1  0  0  3  0  0  0  0  0  0
  156.2410  212.3340  157.0550 O   0  0  0  0  0  1  0  0  0  0  0  0
  156.3320  211.9550  155.5940 P   0  0  0  0  0  0  0  0  0  0  0  0
  155.6080  210.4440  155.3600 O   0  0  0  0  0  1  0  0  0  0  0  0
  155.5220  213.1110  154.6630 O   0  0  0  0  0  0  0  0  0  0  0  0
  159.5640  211.1560  157.1190 N   0  0  0  0  0  0  0  0  0  0  0  0
  158.9080  211.4740  156.2200 C   0  0  0  0  0  0  0  0  0  0  0  0
  161.5210  207.0280  153.0010 N   0  0  0  0  0  2  0  0  0  0  0  0
  160.9990  203.8460  150.1700 C   0  0  0  0  0  0  0  0  0  0  0  0
  161.3440  203.4860  151.6040 C   0  0  0  0  0  0  0  0  0  0  0  0
  162.0340  204.6470  152.3350 C   0  0  0  0  0  2  0  0  0  0  0  0
  162.2010  202.4000  151.6360 F   0  0  0  0  0  0  0  0  0  0  0  0
  160.8440  206.1980  150.8400 C   0  0  0  0  0  3  0  0  0  0  0  0
  161.4050  205.9790  152.0350 C   0  0  0  0  0  0  0  0  0  0  0  0
  160.7240  205.1170  149.8510 C   0  0  0  0  0  3  0  0  0  0  0  0
  160.1820  203.1570  152.2790 F   0  0  0  0  0  0  0  0  0  0  0  0
  161.2030  202.9740  147.9640 O   0  0  0  0  0  0  0  0  0  0  0  0
  160.7990  202.8040  149.1440 C   0  0  0  0  0  0  0  0  0  0  0  0
  160.1820  201.6370  149.4670 F   0  0  0  0  0  0  0  0  0  0  0  0
  1 14  1  0  0  0  0
  2 12  1  0  0  0  0
  4  3  1  1  0  0  0
  4  1  1  0  0  0  0
  4  8  1  0  0  0  0
  5  7  1  0  0  0  0
  6  5  1  0  0  0  0
  6  3  1  0  0  0  0
  7 22  1  6  0  0  0
  7  8  1  0  0  0  0
  8 11  2  0  0  0  0
  9 13  2  0  0  0  0
  9  1  1  0  0  0  0
 10  3  2  0  0  0  0
 10 12  1  0  0  0  0
 12  9  1  0  0  0  0
 15 14  1  6  0  0  0
 15 17  1  0  0  0  0
 15 21  1  0  0  0  0
 17 16  1  0  0  0  0
 18 17  1  0  0  0  0
 19 17  2  0  0  0  0
 21 20  3  0  0  0  0
 23 24  1  0  0  0  0
 24 26  1  0  0  0  0
 24 30  1  0  0  0  0
 24 25  1  0  0  0  0
 27 28  2  0  0  0  0
 28 25  1  0  0  0  0
 28 22  1  0  0  0  0
 29 23  2  0  0  0  0
 29 27  1  0  0  0  0
 31 32  2  0  0  0  0
 32 33  1  0  0  0  0
 32 23  1  0  0  0  0
M  END
>  <MODEL>
5

>  <REMARK>
 VINA RESULT:      -6.8      4.683      9.657
  Name = 
  7 active torsions:
  status: ('A' for Active; 'I' for Inactive)
    1  A    between atoms: C_1  and  C_21
    2  A    between atoms: C_2  and  N_3
    3  A    between atoms: C_2  and  C_9
    4  A    between atoms: N_5  and  C_22
    5  A    between atoms: N_5  and  C_27
    6  A    between atoms: C_9  and  P_11
    7  A    between atoms: C_9  and  C_23
                            x       y       z     vdW  Elec       q    Type
                         _______ _______ _______ _____ _____    ______ ____

>  <TORSDO>
F 7

$$$$
=
 OpenBabel11072410223D

 33 35  0  0  1  0  0  0  0  0999 V2000
  160.9200  205.5730  150.2440 N   0  0  0  0  0  0  0  0  0  0  0  0
  161.5270  202.1590  151.8490 C   0  0  0  0  0  1  0  0  0  0  0  0
  160.9630  205.7130  152.7550 C   0  0  0  0  0  0  0  0  0  0  0  0
  160.6100  206.3860  151.4390 C   0  0  1  0  0  3  0  0  0  0  0  0
  160.4560  207.9310  153.8080 C   0  0  0  0  0  2  0  0  0  0  0  0
  160.9600  206.5070  154.0300 C   0  0  0  0  0  2  0  0  0  0  0  0
  161.2200  208.6200  152.6790 C   0  0  1  0  0  3  0  0  0  0  0  0
  161.2070  207.7850  151.4170 C   0  0  0  0  0  0  0  0  0  0  0  0
  161.1100  204.1510  150.3790 C   0  0  0  0  0  0  0  0  0  0  0  0
  161.2440  204.4150  152.8360 C   0  0  0  0  0  3  0  0  0  0  0  0
  161.6750  208.2560  150.3920 O   0  0  0  0  0  0  0  0  0  0  0  0
  161.2790  203.5810  151.6800 N   0  0  0  0  0  0  0  0  0  0  0  0
  161.1240  203.4060  149.3610 O   0  0  0  0  0  0  0  0  0  0  0  0
  160.5980  206.1200  148.9220 C   0  0  0  0  0  2  0  0  0  0  0  0
  161.8180  206.1600  148.0020 C   0  0  1  0  0  3  0  0  0  0  0  0
  160.0630  206.2120  145.9100 O   0  0  0  0  0  1  0  0  0  0  0  0
  161.3560  205.5630  146.3500 P   0  0  0  0  0  0  0  0  0  0  0  0
  161.1540  203.8840  146.3950 O   0  0  0  0  0  1  0  0  0  0  0  0
  162.5800  205.9480  145.2480 O   0  0  0  0  0  0  0  0  0  0  0  0
  162.8300  208.5750  147.8210 N   0  0  0  0  0  0  0  0  0  0  0  0
  162.3820  207.5110  147.9020 C   0  0  0  0  0  0  0  0  0  0  0  0
  160.6250  209.9290  152.4330 N   0  0  0  0  0  2  0  0  0  0  0  0
  158.9650  212.2760  155.6200 C   0  0  0  0  0  0  0  0  0  0  0  0
  158.0120  211.5420  154.6920 C   0  0  0  0  0  0  0  0  0  0  0  0
  158.6600  211.2340  153.3340 C   0  0  0  0  0  2  0  0  0  0  0  0
  156.8840  212.3070  154.4570 F   0  0  0  0  0  0  0  0  0  0  0  0
  160.8460  211.2100  154.4650 C   0  0  0  0  0  3  0  0  0  0  0  0
  160.0830  210.7640  153.4610 C   0  0  0  0  0  0  0  0  0  0  0  0
  160.2840  212.0650  155.5210 C   0  0  0  0  0  3  0  0  0  0  0  0
  157.6300  210.3530  155.2880 F   0  0  0  0  0  0  0  0  0  0  0  0
  159.1760  214.0060  157.2400 O   0  0  0  0  0  0  0  0  0  0  0  0
  158.4650  213.0950  156.7400 C   0  0  0  0  0  0  0  0  0  0  0  0
  157.2210  212.8820  157.2410 F   0  0  0  0  0  0  0  0  0  0  0  0
  1  9  1  0  0  0  0
  1  4  1  0  0  0  0
  3 10  2  0  0  0  0
  3  6  1  0  0  0  0
  4  8  1  6  0  0  0
  4  3  1  0  0  0  0
  5  6  1  0  0  0  0
  7 22  1  6  0  0  0
  7  5  1  0  0  0  0
  8  7  1  0  0  0  0
  9 12  1  0  0  0  0
 11  8  2  0  0  0  0
 12  2  1  0  0  0  0
 12 10  1  0  0  0  0
 13  9  2  0  0  0  0
 14  1  1  0  0  0  0
 15 21  1  6  0  0  0
 15 14  1  0  0  0  0
 16 17  1  0  0  0  0
 17 18  1  0  0  0  0
 17 15  1  0  0  0  0
 19 17  2  0  0  0  0
 20 21  3  0  0  0  0
 22 28  1  0  0  0  0
 23 32  1  0  0  0  0
 24 30  1  0  0  0  0
 24 23  1  0  0  0  0
 25 28  1  0  0  0  0
 25 24  1  0  0  0  0
 26 24  1  0  0  0  0
 27 29  1  0  0  0  0
 28 27  2  0  0  0  0
 29 23  2  0  0  0  0
 32 31  2  0  0  0  0
 32 33  1  0  0  0  0
M  END
>  <MODEL>
6

>  <REMARK>
 VINA RESULT:      -6.7      1.788      2.028
  Name = 
  7 active torsions:
  status: ('A' for Active; 'I' for Inactive)
    1  A    between atoms: C_1  and  C_21
    2  A    between atoms: C_2  and  N_3
    3  A    between atoms: C_2  and  C_9
    4  A    between atoms: N_5  and  C_22
    5  A    between atoms: N_5  and  C_27
    6  A    between atoms: C_9  and  P_11
    7  A    between atoms: C_9  and  C_23
                            x       y       z     vdW  Elec       q    Type
                         _______ _______ _______ _____ _____    ______ ____

>  <TORSDO>
F 7

$$$$
=
 OpenBabel11072410223D

 33 35  0  0  1  0  0  0  0  0999 V2000
  159.2470  211.3650  152.8800 N   0  0  0  0  0  0  0  0  0  0  0  0
  160.0570  214.4500  150.7760 C   0  0  0  0  0  1  0  0  0  0  0  0
  161.1090  210.9220  151.2460 C   0  0  0  0  0  0  0  0  0  0  0  0
  160.0770  210.3460  152.2020 C   0  0  1  0  0  3  0  0  0  0  0  0
  162.0130  208.5880  151.1120 C   0  0  0  0  0  2  0  0  0  0  0  0
  162.1950  210.0450  150.6930 C   0  0  0  0  0  2  0  0  0  0  0  0
  161.8580  208.4620  152.6270 C   0  0  1  0  0  3  0  0  0  0  0  0
  160.7610  209.3670  153.1440 C   0  0  0  0  0  0  0  0  0  0  0  0
  159.1600  212.6940  152.3290 C   0  0  0  0  0  0  0  0  0  0  0  0
  161.0690  212.1890  150.8380 C   0  0  0  0  0  3  0  0  0  0  0  0
  160.4380  209.2910  154.3190 O   0  0  0  0  0  0  0  0  0  0  0  0
  160.0820  213.1000  151.3140 N   0  0  0  0  0  0  0  0  0  0  0  0
  158.2760  213.4990  152.7330 O   0  0  0  0  0  0  0  0  0  0  0  0
  158.2040  210.9150  153.8070 C   0  0  0  0  0  2  0  0  0  0  0  0
  158.0470  211.8590  154.9990 C   0  0  1  0  0  3  0  0  0  0  0  0
  155.5800  212.9100  154.4800 O   0  0  0  0  0  0  0  0  0  0  0  0
  156.2910  211.9880  155.4460 P   0  0  0  0  0  0  0  0  0  0  0  0
  156.1530  212.6050  157.0140 O   0  0  0  0  0  1  0  0  0  0  0  0
  155.5790  210.4550  155.3850 O   0  0  0  0  0  1  0  0  0  0  0  0
  159.4400  211.0530  157.0730 N   0  0  0  0  0  0  0  0  0  0  0  0
  158.8230  211.4080  156.1600 C   0  0  0  0  0  0  0  0  0  0  0  0
  161.5730  207.0710  152.9600 N   0  0  0  0  0  2  0  0  0  0  0  0
  161.0110  204.0330  149.9820 C   0  0  0  0  0  0  0  0  0  0  0  0
  161.0100  205.4860  149.5400 C   0  0  0  0  0  0  0  0  0  0  0  0
  160.6580  206.4340  150.6950 C   0  0  0  0  0  2  0  0  0  0  0  0
  160.0810  205.6820  148.5340 F   0  0  0  0  0  0  0  0  0  0  0  0
  161.5810  204.7650  152.2500 C   0  0  0  0  0  3  0  0  0  0  0  0
  161.3250  206.0520  151.9870 C   0  0  0  0  0  0  0  0  0  0  0  0
  161.3280  203.7220  151.2450 C   0  0  0  0  0  3  0  0  0  0  0  0
  162.2660  205.8110  149.0570 F   0  0  0  0  0  0  0  0  0  0  0  0
  160.5060  201.7810  149.3970 O   0  0  0  0  0  0  0  0  0  0  0  0
  160.8300  202.9360  149.0120 C   0  0  0  0  0  0  0  0  0  0  0  0
  161.0020  203.1630  147.6840 F   0  0  0  0  0  0  0  0  0  0  0  0
  1 14  1  0  0  0  0
  2 12  1  0  0  0  0
  4  3  1  1  0  0  0
  4  1  1  0  0  0  0
  4  8  1  0  0  0  0
  5  7  1  0  0  0  0
  6  5  1  0  0  0  0
  6  3  1  0  0  0  0
  7 22  1  6  0  0  0
  7  8  1  0  0  0  0
  8 11  2  0  0  0  0
  9 13  2  0  0  0  0
  9  1  1  0  0  0  0
 10  3  2  0  0  0  0
 10 12  1  0  0  0  0
 12  9  1  0  0  0  0
 15 14  1  6  0  0  0
 15 17  1  0  0  0  0
 15 21  1  0  0  0  0
 16 17  2  0  0  0  0
 17 18  1  0  0  0  0
 19 17  1  0  0  0  0
 21 20  3  0  0  0  0
 23 29  2  0  0  0  0
 24 23  1  0  0  0  0
 24 25  1  0  0  0  0
 25 28  1  0  0  0  0
 26 24  1  0  0  0  0
 28 27  2  0  0  0  0
 28 22  1  0  0  0  0
 29 27  1  0  0  0  0
 30 24  1  0  0  0  0
 32 31  2  0  0  0  0
 32 23  1  0  0  0  0
 33 32  1  0  0  0  0
M  END
>  <MODEL>
7

>  <REMARK>
 VINA RESULT:      -6.7      4.728      9.510
  Name = 
  7 active torsions:
  status: ('A' for Active; 'I' for Inactive)
    1  A    between atoms: C_1  and  C_21
    2  A    between atoms: C_2  and  N_3
    3  A    between atoms: C_2  and  C_9
    4  A    between atoms: N_5  and  C_22
    5  A    between atoms: N_5  and  C_27
    6  A    between atoms: C_9  and  P_11
    7  A    between atoms: C_9  and  C_23
                            x       y       z     vdW  Elec       q    Type
                         _______ _______ _______ _____ _____    ______ ____

>  <TORSDO>
F 7

$$$$
=
 OpenBabel11072410223D

 33 35  0  0  1  0  0  0  0  0999 V2000
  161.1520  210.0180  153.4920 N   0  0  0  0  0  0  0  0  0  0  0  0
  160.5890  209.6550  157.2530 C   0  0  0  0  0  1  0  0  0  0  0  0
  161.2110  207.6110  154.2200 C   0  0  0  0  0  0  0  0  0  0  0  0
  161.5150  208.6300  153.1340 C   0  0  1  0  0  3  0  0  0  0  0  0
  161.7740  205.8830  152.4930 C   0  0  0  0  0  2  0  0  0  0  0  0
  161.2700  206.1420  153.9110 C   0  0  0  0  0  2  0  0  0  0  0  0
  160.9690  206.6760  151.4650 C   0  0  1  0  0  3  0  0  0  0  0  0
  160.9270  208.1470  151.8170 C   0  0  0  0  0  0  0  0  0  0  0  0
  160.9580  210.3700  154.8750 C   0  0  0  0  0  0  0  0  0  0  0  0
  160.9260  207.9680  155.4700 C   0  0  0  0  0  3  0  0  0  0  0  0
  160.4210  208.9290  151.0280 O   0  0  0  0  0  0  0  0  0  0  0  0
  160.8380  209.3370  155.8570 N   0  0  0  0  0  0  0  0  0  0  0  0
  160.8990  211.5810  155.2270 O   0  0  0  0  0  0  0  0  0  0  0  0
  161.4240  211.0840  152.5230 C   0  0  0  0  0  2  0  0  0  0  0  0
  160.2850  212.1010  152.4490 C   0  0  1  0  0  3  0  0  0  0  0  0
  158.8050  212.5580  150.2010 O   0  0  0  0  0  1  0  0  0  0  0  0
  160.1870  212.7860  150.7700 P   0  0  0  0  0  0  0  0  0  0  0  0
  161.3330  212.0280  149.7850 O   0  0  0  0  0  0  0  0  0  0  0  0
  160.5060  214.4470  150.8190 O   0  0  0  0  0  1  0  0  0  0  0  0
  157.9780  211.0380  153.1090 N   0  0  0  0  0  0  0  0  0  0  0  0
  158.9960  211.5060  152.8200 C   0  0  0  0  0  0  0  0  0  0  0  0
  161.5620  206.4830  150.1460 N   0  0  0  0  0  2  0  0  0  0  0  0
  160.9970  203.0320  147.6580 C   0  0  0  0  0  0  0  0  0  0  0  0
  161.4630  204.3220  147.0070 C   0  0  0  0  0  0  0  0  0  0  0  0
  161.0900  205.5530  147.8460 C   0  0  0  0  0  2  0  0  0  0  0  0
  160.8820  204.4700  145.7610 F   0  0  0  0  0  0  0  0  0  0  0  0
  161.1680  204.1220  149.8470 C   0  0  0  0  0  3  0  0  0  0  0  0
  161.3110  205.3430  149.3190 C   0  0  0  0  0  0  0  0  0  0  0  0
  160.9130  202.9530  148.9920 C   0  0  0  0  0  3  0  0  0  0  0  0
  162.8380  204.2800  146.8570 F   0  0  0  0  0  0  0  0  0  0  0  0
  161.4850  200.7770  147.0730 O   0  0  0  0  0  0  0  0  0  0  0  0
  160.7880  201.8050  146.8660 C   0  0  0  0  0  0  0  0  0  0  0  0
  159.8280  201.7670  145.9060 F   0  0  0  0  0  0  0  0  0  0  0  0
  1  9  1  0  0  0  0
  3 10  2  0  0  0  0
  4  8  1  6  0  0  0
  4  1  1  0  0  0  0
  4  3  1  0  0  0  0
  5  6  1  0  0  0  0
  6  3  1  0  0  0  0
  7 22  1  6  0  0  0
  7  8  1  0  0  0  0
  7  5  1  0  0  0  0
  9 13  2  0  0  0  0
  9 12  1  0  0  0  0
 10 12  1  0  0  0  0
 11  8  2  0  0  0  0
 12  2  1  0  0  0  0
 14  1  1  0  0  0  0
 15 14  1  6  0  0  0
 15 21  1  0  0  0  0
 16 17  1  0  0  0  0
 17 19  1  0  0  0  0
 17 15  1  0  0  0  0
 18 17  2  0  0  0  0
 21 20  3  0  0  0  0
 23 29  2  0  0  0  0
 24 23  1  0  0  0  0
 24 25  1  0  0  0  0
 25 28  1  0  0  0  0
 26 24  1  0  0  0  0
 28 27  2  0  0  0  0
 28 22  1  0  0  0  0
 29 27  1  0  0  0  0
 30 24  1  0  0  0  0
 32 31  2  0  0  0  0
 32 23  1  0  0  0  0
 33 32  1  0  0  0  0
M  END
>  <MODEL>
8

>  <REMARK>
 VINA RESULT:      -6.5      4.522      8.883
  Name = 
  7 active torsions:
  status: ('A' for Active; 'I' for Inactive)
    1  A    between atoms: C_1  and  C_21
    2  A    between atoms: C_2  and  N_3
    3  A    between atoms: C_2  and  C_9
    4  A    between atoms: N_5  and  C_22
    5  A    between atoms: N_5  and  C_27
    6  A    between atoms: C_9  and  P_11
    7  A    between atoms: C_9  and  C_23
                            x       y       z     vdW  Elec       q    Type
                         _______ _______ _______ _____ _____    ______ ____

>  <TORSDO>
F 7

$$$$
=
 OpenBabel11072410223D

 33 35  0  0  1  0  0  0  0  0999 V2000
  160.8530  210.6080  153.5790 N   0  0  0  0  0  0  0  0  0  0  0  0
  159.8400  210.8070  157.2570 C   0  0  0  0  0  1  0  0  0  0  0  0
  160.8500  208.3430  154.6730 C   0  0  0  0  0  0  0  0  0  0  0  0
  161.2730  209.1930  153.4860 C   0  0  1  0  0  3  0  0  0  0  0  0
  161.6390  206.3900  153.3140 C   0  0  0  0  0  2  0  0  0  0  0  0
  160.9630  206.8470  154.6050 C   0  0  0  0  0  2  0  0  0  0  0  0
  160.9570  206.9920  152.0880 C   0  0  1  0  0  3  0  0  0  0  0  0
  160.8550  208.4980  152.2000 C   0  0  0  0  0  0  0  0  0  0  0  0
  160.4880  211.1610  154.8580 C   0  0  0  0  0  0  0  0  0  0  0  0
  160.4110  208.8790  155.8100 C   0  0  0  0  0  3  0  0  0  0  0  0
  160.4400  209.1350  151.2440 O   0  0  0  0  0  0  0  0  0  0  0  0
  160.2610  210.2870  155.9670 N   0  0  0  0  0  0  0  0  0  0  0  0
  160.3720  212.4090  155.0080 O   0  0  0  0  0  0  0  0  0  0  0  0
  161.2290  211.5220  152.4950 C   0  0  0  0  0  2  0  0  0  0  0  0
  160.1140  212.5140  152.1650 C   0  0  1  0  0  3  0  0  0  0  0  0
  160.8290  214.4530  150.3800 O   0  0  0  0  0  1  0  0  0  0  0  0
  160.2680  213.0500  150.4370 P   0  0  0  0  0  0  0  0  0  0  0  0
  158.7450  213.0250  149.7020 O   0  0  0  0  0  1  0  0  0  0  0  0
  161.3030  211.9990  149.6100 O   0  0  0  0  0  0  0  0  0  0  0  0
  157.7370  211.4780  152.5680 N   0  0  0  0  0  0  0  0  0  0  0  0
  158.7840  211.9370  152.3910 C   0  0  0  0  0  0  0  0  0  0  0  0
  161.7080  206.6180  150.8950 N   0  0  0  0  0  2  0  0  0  0  0  0
  161.0240  202.9070  148.8510 C   0  0  0  0  0  0  0  0  0  0  0  0
  160.9200  202.9260  150.3660 C   0  0  0  0  0  0  0  0  0  0  0  0
  161.7070  204.0940  150.9780 C   0  0  0  0  0  2  0  0  0  0  0  0
  161.4250  201.7530  150.8980 F   0  0  0  0  0  0  0  0  0  0  0  0
  161.3520  205.3350  148.8830 C   0  0  0  0  0  3  0  0  0  0  0  0
  161.5430  205.3740  150.2070 C   0  0  0  0  0  0  0  0  0  0  0  0
  161.1790  204.0560  148.1800 C   0  0  0  0  0  3  0  0  0  0  0  0
  159.5890  203.0430  150.7250 F   0  0  0  0  0  0  0  0  0  0  0  0
  160.8790  201.6650  146.8250 O   0  0  0  0  0  0  0  0  0  0  0  0
  160.7950  201.6680  148.0820 C   0  0  0  0  0  0  0  0  0  0  0  0
  160.5000  200.5090  148.7250 F   0  0  0  0  0  0  0  0  0  0  0  0
  1  9  1  0  0  0  0
  3 10  2  0  0  0  0
  4  8  1  6  0  0  0
  4  1  1  0  0  0  0
  4  3  1  0  0  0  0
  5  6  1  0  0  0  0
  6  3  1  0  0  0  0
  7 22  1  6  0  0  0
  7  8  1  0  0  0  0
  7  5  1  0  0  0  0
  9 13  2  0  0  0  0
  9 12  1  0  0  0  0
 10 12  1  0  0  0  0
 11  8  2  0  0  0  0
 12  2  1  0  0  0  0
 14  1  1  0  0  0  0
 15 21  1  6  0  0  0
 15 14  1  0  0  0  0
 16 17  1  0  0  0  0
 17 15  1  0  0  0  0
 18 17  1  0  0  0  0
 19 17  2  0  0  0  0
 21 20  3  0  0  0  0
 23 24  1  0  0  0  0
 24 30  1  0  0  0  0
 24 26  1  0  0  0  0
 24 25  1  0  0  0  0
 27 28  2  0  0  0  0
 28 22  1  0  0  0  0
 28 25  1  0  0  0  0
 29 23  2  0  0  0  0
 29 27  1  0  0  0  0
 31 32  2  0  0  0  0
 32 33  1  0  0  0  0
 32 23  1  0  0  0  0
M  END
>  <MODEL>
9

>  <REMARK>
 VINA RESULT:      -6.4      4.328      8.890
  Name = 
  7 active torsions:
  status: ('A' for Active; 'I' for Inactive)
    1  A    between atoms: C_1  and  C_21
    2  A    between atoms: C_2  and  N_3
    3  A    between atoms: C_2  and  C_9
    4  A    between atoms: N_5  and  C_22
    5  A    between atoms: N_5  and  C_27
    6  A    between atoms: C_9  and  P_11
    7  A    between atoms: C_9  and  C_23
                            x       y       z     vdW  Elec       q    Type
                         _______ _______ _______ _____ _____    ______ ____

>  <TORSDO>
F 7

$$$$
