=
 OpenBabel11072414403D

 26 28  0  0  1  0  0  0  0  0999 V2000
  159.7800  209.5240  156.5170 C   0  0  0  0  0  3  0  0  0  0  0  0
  162.0960  209.7040  157.2530 N   0  0  0  0  0  2  0  0  0  0  0  0
  159.8660  210.7730  155.6700 C   0  0  1  0  0  3  0  0  0  0  0  0
  162.6850  210.3220  156.1040 C   0  0  0  0  0  0  0  0  0  0  0  0
  160.8140  210.6940  154.4520 C   0  0  1  0  0  3  0  0  0  0  0  0
  160.8020  209.0840  157.2560 C   0  0  0  0  0  3  0  0  0  0  0  0
  163.6770  211.0830  156.2450 O   0  0  0  0  0  0  0  0  0  0  0  0
  162.1640  210.0290  154.7330 C   0  0  0  0  0  2  0  0  0  0  0  0
  157.5830  213.6150  154.7100 C   0  0  0  0  0  2  0  0  0  0  0  0
  158.5690  211.3850  155.3400 N   0  0  1  0  0  0  0  0  0  0  0  0
  155.9710  211.5960  154.6070 C   0  0  0  0  0  2  0  0  0  0  0  0
  156.2030  211.4520  156.1170 C   0  0  0  0  0  2  0  0  0  0  0  0
  157.6880  211.4730  156.5160 C   0  0  0  0  0  2  0  0  0  0  0  0
  155.2850  213.8340  154.1070 O   0  0  0  0  0  1  0  0  0  0  0  0
  158.8270  212.7150  154.7680 C   0  0  0  0  0  2  0  0  0  0  0  0
  156.3720  212.9640  154.0340 C   0  0  1  0  0  3  0  0  0  0  0  0
  160.1650  210.0860  153.2110 C   0  0  0  0  0  2  0  0  0  0  0  0
  162.3310  209.4270  150.3100 O   0  0  0  0  0  0  0  0  0  0  0  0
  161.0310  210.2210  152.0480 N   0  0  0  0  0  2  0  0  0  0  0  0
  161.6000  209.1380  151.2960 C   0  0  0  0  0  0  0  0  0  0  0  0
  161.0060  204.9800  152.2170 C   0  0  0  0  0  3  0  0  0  0  0  0
  161.0060  205.4200  150.8910 C   0  0  0  0  0  3  0  0  0  0  0  0
  161.1990  206.7750  150.6040 C   0  0  0  0  0  3  0  0  0  0  0  0
  161.3890  207.2490  152.9640 C   0  0  0  0  0  3  0  0  0  0  0  0
  161.1960  205.8960  153.2540 C   0  0  0  0  0  3  0  0  0  0  0  0
  161.3960  207.7060  151.6370 C   0  0  0  0  0  0  0  0  0  0  0  0
  1  6  2  0  0  0  0
  2  6  1  0  0  0  0
  3  1  1  6  0  0  0
  4  7  2  0  0  0  0
  4  2  1  0  0  0  0
  5 17  1  6  0  0  0
  5  8  1  0  0  0  0
  5  3  1  0  0  0  0
  8  4  1  0  0  0  0
  9 15  1  0  0  0  0
 10 15  1  1  0  0  0
 10  3  1  0  0  0  0
 10 13  1  0  0  0  0
 11 12  1  0  0  0  0
 12 13  1  0  0  0  0
 16 14  1  1  0  0  0
 16 11  1  0  0  0  0
 16  9  1  0  0  0  0
 18 20  2  0  0  0  0
 19 17  1  0  0  0  0
 20 26  1  0  0  0  0
 20 19  1  0  0  0  0
 21 25  1  0  0  0  0
 22 21  2  0  0  0  0
 23 22  1  0  0  0  0
 23 26  2  0  0  0  0
 24 25  2  0  0  0  0
 26 24  1  0  0  0  0
M  END
>  <MODEL>
1

>  <REMARK>
 VINA RESULT:      -6.5      0.000      0.000
  Name = 
  4 active torsions:
  status: ('A' for Active; 'I' for Inactive)
    1  A    between atoms: C_2  and  C_13
    2  A    between atoms: C_2  and  N_16
    3  A    between atoms: C_5  and  N_6
    4  A    between atoms: C_24  and  C_25
                            x       y       z     vdW  Elec       q    Type
                         _______ _______ _______ _____ _____    ______ ____

>  <TORSDO>
F 4

$$$$
=
 OpenBabel11072414403D

 26 28  0  0  1  0  0  0  0  0999 V2000
  159.0520  211.2040  155.0130 C   0  0  0  0  0  3  0  0  0  0  0  0
  160.8750  210.9530  156.6090 N   0  0  0  0  0  2  0  0  0  0  0  0
  159.9810  211.5920  153.8860 C   0  0  1  0  0  3  0  0  0  0  0  0
  161.9260  210.5260  155.7350 C   0  0  0  0  0  0  0  0  0  0  0  0
  160.9520  210.4890  153.4070 C   0  0  1  0  0  3  0  0  0  0  0  0
  159.4860  210.9560  156.2520 C   0  0  0  0  0  3  0  0  0  0  0  0
  163.1200  210.8160  156.0060 O   0  0  0  0  0  0  0  0  0  0  0  0
  161.6210  209.6930  154.5310 C   0  0  0  0  0  2  0  0  0  0  0  0
  159.9180  213.7890  150.8230 C   0  0  0  0  0  2  0  0  0  0  0  0
  159.3350  212.3020  152.7700 N   0  0  1  0  0  0  0  0  0  0  0  0
  157.4600  212.9970  150.9440 C   0  0  0  0  0  2  0  0  0  0  0  0
  157.3770  213.7590  152.2730 C   0  0  0  0  0  2  0  0  0  0  0  0
  158.5340  213.4450  153.2360 C   0  0  0  0  0  2  0  0  0  0  0  0
  158.2730  214.4530  149.2280 O   0  0  0  0  0  1  0  0  0  0  0  0
  160.3870  212.7350  151.8380 C   0  0  0  0  0  2  0  0  0  0  0  0
  158.6490  213.3980  150.0580 C   0  0  1  0  0  3  0  0  0  0  0  0
  160.3420  209.5460  152.3720 C   0  0  0  0  0  2  0  0  0  0  0  0
  162.4400  208.2790  149.6270 O   0  0  0  0  0  0  0  0  0  0  0  0
  161.2010  209.4300  151.2010 N   0  0  0  0  0  2  0  0  0  0  0  0
  161.7080  208.2050  150.6500 C   0  0  0  0  0  0  0  0  0  0  0  0
  160.9170  204.3120  152.2960 C   0  0  0  0  0  3  0  0  0  0  0  0
  160.7480  204.5530  150.9300 C   0  0  0  0  0  3  0  0  0  0  0  0
  161.0070  205.8230  150.4070 C   0  0  0  0  0  3  0  0  0  0  0  0
  161.6000  206.6110  152.6110 C   0  0  0  0  0  3  0  0  0  0  0  0
  161.3420  205.3430  153.1370 C   0  0  0  0  0  3  0  0  0  0  0  0
  161.4400  206.8670  151.2400 C   0  0  0  0  0  0  0  0  0  0  0  0
  1  6  2  0  0  0  0
  3  1  1  1  0  0  0
  4  7  2  0  0  0  0
  4  2  1  0  0  0  0
  5 17  1  6  0  0  0
  5  3  1  0  0  0  0
  5  8  1  0  0  0  0
  6  2  1  0  0  0  0
  8  4  1  0  0  0  0
  9 15  1  0  0  0  0
 10 15  1  6  0  0  0
 10 13  1  0  0  0  0
 10  3  1  0  0  0  0
 11 12  1  0  0  0  0
 12 13  1  0  0  0  0
 16 14  1  1  0  0  0
 16  9  1  0  0  0  0
 16 11  1  0  0  0  0
 18 20  2  0  0  0  0
 19 17  1  0  0  0  0
 20 19  1  0  0  0  0
 20 26  1  0  0  0  0
 21 25  1  0  0  0  0
 22 21  2  0  0  0  0
 23 22  1  0  0  0  0
 23 26  2  0  0  0  0
 24 25  2  0  0  0  0
 26 24  1  0  0  0  0
M  END
>  <MODEL>
2

>  <REMARK>
 VINA RESULT:      -6.4      2.196      2.630
  Name = 
  4 active torsions:
  status: ('A' for Active; 'I' for Inactive)
    1  A    between atoms: C_2  and  C_13
    2  A    between atoms: C_2  and  N_16
    3  A    between atoms: C_5  and  N_6
    4  A    between atoms: C_24  and  C_25
                            x       y       z     vdW  Elec       q    Type
                         _______ _______ _______ _____ _____    ______ ____

>  <TORSDO>
F 4

$$$$
=
 OpenBabel11072414403D

 26 28  0  0  1  0  0  0  0  0999 V2000
  157.0110  212.5620  153.9940 C   0  0  0  0  0  3  0  0  0  0  0  0
  157.9310  213.1100  156.1820 N   0  0  0  0  0  2  0  0  0  0  0  0
  158.2790  212.9540  153.2700 C   0  0  1  0  0  3  0  0  0  0  0  0
  159.3140  212.8130  155.9630 C   0  0  0  0  0  0  0  0  0  0  0  0
  159.5150  212.0720  153.5590 C   0  0  1  0  0  3  0  0  0  0  0  0
  156.8700  212.6810  155.3170 C   0  0  0  0  0  3  0  0  0  0  0  0
  160.1970  213.4510  156.5910 O   0  0  0  0  0  0  0  0  0  0  0  0
  159.7160  211.7110  155.0330 C   0  0  0  0  0  2  0  0  0  0  0  0
  159.2600  214.4500  149.9530 C   0  0  0  0  0  2  0  0  0  0  0  0
  158.1080  213.2400  151.8380 N   0  0  1  0  0  0  0  0  0  0  0  0
  157.1940  213.0410  149.2960 C   0  0  0  0  0  2  0  0  0  0  0  0
  156.3830  213.9780  150.2000 C   0  0  0  0  0  2  0  0  0  0  0  0
  157.0020  214.1800  151.5920 C   0  0  0  0  0  2  0  0  0  0  0  0
  158.4450  214.3280  147.7140 O   0  0  0  0  0  1  0  0  0  0  0  0
  159.3810  213.7720  151.3260 C   0  0  0  0  0  2  0  0  0  0  0  0
  158.5700  213.5890  148.8890 C   0  0  1  0  0  3  0  0  0  0  0  0
  159.5890  210.8210  152.6860 C   0  0  0  0  0  2  0  0  0  0  0  0
  162.6850  209.8330  150.9610 O   0  0  0  0  0  0  0  0  0  0  0  0
  160.8090  210.8090  151.8910 N   0  0  0  0  0  2  0  0  0  0  0  0
  161.6630  209.6750  151.6810 C   0  0  0  0  0  0  0  0  0  0  0  0
  160.9550  205.8480  153.5090 C   0  0  0  0  0  3  0  0  0  0  0  0
  160.9370  207.0150  154.2770 C   0  0  0  0  0  3  0  0  0  0  0  0
  161.1700  208.2530  153.6710 C   0  0  0  0  0  3  0  0  0  0  0  0
  161.4410  207.1590  151.5360 C   0  0  0  0  0  3  0  0  0  0  0  0
  161.2090  205.9200  152.1380 C   0  0  0  0  0  3  0  0  0  0  0  0
  161.4210  208.3410  152.2930 C   0  0  0  0  0  0  0  0  0  0  0  0
  1  6  2  0  0  0  0
  3  5  1  0  0  0  0
  3  1  1  6  0  0  0
  4  2  1  0  0  0  0
  4  7  2  0  0  0  0
  5 17  1  6  0  0  0
  5  8  1  0  0  0  0
  6  2  1  0  0  0  0
  8  4  1  0  0  0  0
  9 15  1  0  0  0  0
 10 15  1  1  0  0  0
 10  3  1  0  0  0  0
 11 12  1  0  0  0  0
 12 13  1  0  0  0  0
 13 10  1  0  0  0  0
 16 14  1  6  0  0  0
 16 11  1  0  0  0  0
 16  9  1  0  0  0  0
 18 20  2  0  0  0  0
 19 17  1  0  0  0  0
 20 19  1  0  0  0  0
 20 26  1  0  0  0  0
 21 22  1  0  0  0  0
 23 22  2  0  0  0  0
 24 25  1  0  0  0  0
 24 26  2  0  0  0  0
 25 21  2  0  0  0  0
 26 23  1  0  0  0  0
M  END
>  <MODEL>
3

>  <REMARK>
 VINA RESULT:      -6.0      2.910      4.046
  Name = 
  4 active torsions:
  status: ('A' for Active; 'I' for Inactive)
    1  A    between atoms: C_2  and  C_13
    2  A    between atoms: C_2  and  N_16
    3  A    between atoms: C_5  and  N_6
    4  A    between atoms: C_24  and  C_25
                            x       y       z     vdW  Elec       q    Type
                         _______ _______ _______ _____ _____    ______ ____

>  <TORSDO>
F 4

$$$$
=
 OpenBabel11072414403D

 26 28  0  0  1  0  0  0  0  0999 V2000
  161.5250  210.5840  154.8310 C   0  0  0  0  0  3  0  0  0  0  0  0
  159.9640  211.4710  156.4780 N   0  0  0  0  0  2  0  0  0  0  0  0
  160.4220  210.1640  153.8880 C   0  0  1  0  0  3  0  0  0  0  0  0
  158.9030  211.9060  155.6210 C   0  0  0  0  0  0  0  0  0  0  0  0
  159.5960  211.3130  153.2670 C   0  0  1  0  0  3  0  0  0  0  0  0
  161.2840  211.1430  156.0200 C   0  0  0  0  0  3  0  0  0  0  0  0
  157.7180  211.8990  156.0400 O   0  0  0  0  0  0  0  0  0  0  0  0
  159.2000  212.4210  154.2470 C   0  0  0  0  0  2  0  0  0  0  0  0
  161.5260  206.7340  152.7810 C   0  0  0  0  0  2  0  0  0  0  0  0
  160.8090  209.1450  152.9000 N   0  0  1  0  0  0  0  0  0  0  0  0
  161.0950  207.8980  150.5130 C   0  0  0  0  0  2  0  0  0  0  0  0
  162.2430  208.8440  150.8850 C   0  0  0  0  0  2  0  0  0  0  0  0
  162.1230  209.4310  152.3020 C   0  0  0  0  0  2  0  0  0  0  0  0
  161.8310  205.6280  150.6890 O   0  0  0  0  0  1  0  0  0  0  0  0
  160.8030  207.8360  153.5710 C   0  0  0  0  0  2  0  0  0  0  0  0
  161.0580  206.5970  151.3280 C   0  0  1  0  0  3  0  0  0  0  0  0
  160.2280  211.9090  152.0110 C   0  0  0  0  0  2  0  0  0  0  0  0
  158.6840  214.3420  149.7230 O   0  0  0  0  0  0  0  0  0  0  0  0
  159.3340  212.8730  151.3830 N   0  0  0  0  0  2  0  0  0  0  0  0
  159.5600  213.5320  150.1280 C   0  0  0  0  0  0  0  0  0  0  0  0
  163.0860  212.8880  147.7530 C   0  0  0  0  0  3  0  0  0  0  0  0
  162.3850  211.8050  148.2890 C   0  0  0  0  0  3  0  0  0  0  0  0
  161.2400  212.0280  149.0610 C   0  0  0  0  0  3  0  0  0  0  0  0
  161.5000  214.4100  148.7630 C   0  0  0  0  0  3  0  0  0  0  0  0
  162.6440  214.1910  147.9910 C   0  0  0  0  0  3  0  0  0  0  0  0
  160.7820  213.3330  149.3050 C   0  0  0  0  0  0  0  0  0  0  0  0
  1  6  2  0  0  0  0
  3  1  1  6  0  0  0
  4  7  2  0  0  0  0
  4  2  1  0  0  0  0
  5 17  1  6  0  0  0
  5  3  1  0  0  0  0
  5  8  1  0  0  0  0
  6  2  1  0  0  0  0
  8  4  1  0  0  0  0
  9 15  1  0  0  0  0
 10 13  1  1  0  0  0
 10 15  1  0  0  0  0
 10  3  1  0  0  0  0
 11 12  1  0  0  0  0
 11 16  1  0  0  0  0
 12 13  1  0  0  0  0
 16 14  1  6  0  0  0
 16  9  1  0  0  0  0
 18 20  2  0  0  0  0
 19 17  1  0  0  0  0
 20 19  1  0  0  0  0
 21 25  2  0  0  0  0
 21 22  1  0  0  0  0
 22 23  2  0  0  0  0
 23 26  1  0  0  0  0
 24 26  2  0  0  0  0
 25 24  1  0  0  0  0
 26 20  1  0  0  0  0
M  END
>  <MODEL>
4

>  <REMARK>
 VINA RESULT:      -6.0      3.203      6.257
  Name = 
  4 active torsions:
  status: ('A' for Active; 'I' for Inactive)
    1  A    between atoms: C_2  and  C_13
    2  A    between atoms: C_2  and  N_16
    3  A    between atoms: C_5  and  N_6
    4  A    between atoms: C_24  and  C_25
                            x       y       z     vdW  Elec       q    Type
                         _______ _______ _______ _____ _____    ______ ____

>  <TORSDO>
F 4

$$$$
=
 OpenBabel11072414403D

 26 28  0  0  1  0  0  0  0  0999 V2000
  157.5660  212.0060  153.9160 C   0  0  0  0  0  3  0  0  0  0  0  0
  158.5440  212.3390  156.1230 N   0  0  0  0  0  2  0  0  0  0  0  0
  158.8230  212.4450  153.2020 C   0  0  1  0  0  3  0  0  0  0  0  0
  159.9170  212.0440  155.8450 C   0  0  0  0  0  0  0  0  0  0  0  0
  160.0520  211.5240  153.3790 C   0  0  1  0  0  3  0  0  0  0  0  0
  157.4570  212.0050  155.2480 C   0  0  0  0  0  3  0  0  0  0  0  0
  160.8230  212.6100  156.5070 O   0  0  0  0  0  0  0  0  0  0  0  0
  160.2800  211.0270  154.8090 C   0  0  0  0  0  2  0  0  0  0  0  0
  159.8040  214.1340  149.9780 C   0  0  0  0  0  2  0  0  0  0  0  0
  158.6260  212.8640  151.8060 N   0  0  1  0  0  0  0  0  0  0  0  0
  157.6070  212.9530  149.2980 C   0  0  0  0  0  2  0  0  0  0  0  0
  156.9090  213.8720  150.3080 C   0  0  0  0  0  2  0  0  0  0  0  0
  157.5930  213.9060  151.6850 C   0  0  0  0  0  2  0  0  0  0  0  0
  158.9020  214.2660  147.7730 O   0  0  0  0  0  1  0  0  0  0  0  0
  159.9180  213.3350  151.2850 C   0  0  0  0  0  2  0  0  0  0  0  0
  159.0080  213.4230  148.8780 C   0  0  1  0  0  3  0  0  0  0  0  0
  160.0870  210.3580  152.3950 C   0  0  0  0  0  2  0  0  0  0  0  0
  161.2630  206.9550  153.1570 O   0  0  0  0  0  0  0  0  0  0  0  0
  160.4560  209.1180  153.0650 N   0  0  0  0  0  2  0  0  0  0  0  0
  160.9930  207.9490  152.4300 C   0  0  0  0  0  0  0  0  0  0  0  0
  161.6030  207.5780  148.1890 C   0  0  0  0  0  3  0  0  0  0  0  0
  160.8680  206.6160  148.8870 C   0  0  0  0  0  3  0  0  0  0  0  0
  160.6780  206.7470  150.2660 C   0  0  0  0  0  3  0  0  0  0  0  0
  161.9560  208.7960  150.2490 C   0  0  0  0  0  3  0  0  0  0  0  0
  162.1480  208.6680  148.8710 C   0  0  0  0  0  3  0  0  0  0  0  0
  161.2170  207.8400  150.9640 C   0  0  0  0  0  0  0  0  0  0  0  0
  1  6  2  0  0  0  0
  3  5  1  0  0  0  0
  3  1  1  6  0  0  0
  4  2  1  0  0  0  0
  4  7  2  0  0  0  0
  5 17  1  6  0  0  0
  5  8  1  0  0  0  0
  6  2  1  0  0  0  0
  8  4  1  0  0  0  0
  9 15  1  0  0  0  0
 10 15  1  1  0  0  0
 10  3  1  0  0  0  0
 11 12  1  0  0  0  0
 12 13  1  0  0  0  0
 13 10  1  0  0  0  0
 16 14  1  6  0  0  0
 16 11  1  0  0  0  0
 16  9  1  0  0  0  0
 17 19  1  0  0  0  0
 20 19  1  0  0  0  0
 20 18  2  0  0  0  0
 21 25  2  0  0  0  0
 21 22  1  0  0  0  0
 22 23  2  0  0  0  0
 23 26  1  0  0  0  0
 24 26  2  0  0  0  0
 25 24  1  0  0  0  0
 26 20  1  0  0  0  0
M  END
>  <MODEL>
5

>  <REMARK>
 VINA RESULT:      -6.0      2.993      4.091
  Name = 
  4 active torsions:
  status: ('A' for Active; 'I' for Inactive)
    1  A    between atoms: C_2  and  C_13
    2  A    between atoms: C_2  and  N_16
    3  A    between atoms: C_5  and  N_6
    4  A    between atoms: C_24  and  C_25
                            x       y       z     vdW  Elec       q    Type
                         _______ _______ _______ _____ _____    ______ ____

>  <TORSDO>
F 4

$$$$
=
 OpenBabel11072414403D

 26 28  0  0  1  0  0  0  0  0999 V2000
  161.9620  210.4480  154.2260 C   0  0  0  0  0  3  0  0  0  0  0  0
  161.0800  211.0640  156.4120 N   0  0  0  0  0  2  0  0  0  0  0  0
  160.7420  209.6280  153.8720 C   0  0  1  0  0  3  0  0  0  0  0  0
  159.6770  211.0830  156.1290 C   0  0  0  0  0  0  0  0  0  0  0  0
  159.4260  210.4210  153.7060 C   0  0  1  0  0  3  0  0  0  0  0  0
  162.1020  211.0590  155.4050 C   0  0  0  0  0  3  0  0  0  0  0  0
  158.8530  210.8010  157.0360 O   0  0  0  0  0  0  0  0  0  0  0  0
  159.1800  211.4880  154.7760 C   0  0  0  0  0  2  0  0  0  0  0  0
  161.6230  206.2370  152.4820 C   0  0  0  0  0  2  0  0  0  0  0  0
  160.9500  208.6430  152.8000 N   0  0  1  0  0  0  0  0  0  0  0  0
  160.8190  207.4750  150.3600 C   0  0  0  0  0  2  0  0  0  0  0  0
  162.0200  208.4090  150.5620 C   0  0  0  0  0  2  0  0  0  0  0  0
  162.1450  208.9480  151.9970 C   0  0  0  0  0  2  0  0  0  0  0  0
  161.5620  205.2000  150.3340 O   0  0  0  0  0  1  0  0  0  0  0  0
  161.0510  207.3120  153.4190 C   0  0  0  0  0  2  0  0  0  0  0  0
  160.9150  206.1470  151.1260 C   0  0  1  0  0  3  0  0  0  0  0  0
  159.2410  211.0100  152.3100 C   0  0  0  0  0  2  0  0  0  0  0  0
  160.3720  214.4150  151.4910 O   0  0  0  0  0  0  0  0  0  0  0  0
  160.0260  212.2260  152.1470 N   0  0  0  0  0  2  0  0  0  0  0  0
  159.5640  213.4500  151.5550 C   0  0  0  0  0  0  0  0  0  0  0  0
  155.6410  213.9300  149.8610 C   0  0  0  0  0  3  0  0  0  0  0  0
  156.6910  213.4250  149.0880 C   0  0  0  0  0  3  0  0  0  0  0  0
  157.9620  213.2750  149.6500 C   0  0  0  0  0  3  0  0  0  0  0  0
  157.1370  214.1340  151.7510 C   0  0  0  0  0  3  0  0  0  0  0  0
  155.8650  214.2850  151.1920 C   0  0  0  0  0  3  0  0  0  0  0  0
  158.2000  213.6240  150.9900 C   0  0  0  0  0  0  0  0  0  0  0  0
  1  6  2  0  0  0  0
  3  1  1  6  0  0  0
  4  2  1  0  0  0  0
  4  7  2  0  0  0  0
  5 17  1  6  0  0  0
  5  3  1  0  0  0  0
  5  8  1  0  0  0  0
  6  2  1  0  0  0  0
  8  4  1  0  0  0  0
  9 15  1  0  0  0  0
 10 13  1  1  0  0  0
 10 15  1  0  0  0  0
 10  3  1  0  0  0  0
 11 12  1  0  0  0  0
 11 16  1  0  0  0  0
 12 13  1  0  0  0  0
 16 14  1  6  0  0  0
 16  9  1  0  0  0  0
 18 20  2  0  0  0  0
 19 17  1  0  0  0  0
 20 19  1  0  0  0  0
 21 25  1  0  0  0  0
 22 23  1  0  0  0  0
 22 21  2  0  0  0  0
 23 26  2  0  0  0  0
 25 24  2  0  0  0  0
 26 20  1  0  0  0  0
 26 24  1  0  0  0  0
M  END
>  <MODEL>
6

>  <REMARK>
 VINA RESULT:      -5.7      2.803      6.564
  Name = 
  4 active torsions:
  status: ('A' for Active; 'I' for Inactive)
    1  A    between atoms: C_2  and  C_13
    2  A    between atoms: C_2  and  N_16
    3  A    between atoms: C_5  and  N_6
    4  A    between atoms: C_24  and  C_25
                            x       y       z     vdW  Elec       q    Type
                         _______ _______ _______ _____ _____    ______ ____

>  <TORSDO>
F 4

$$$$
=
 OpenBabel11072414403D

 26 28  0  0  1  0  0  0  0  0999 V2000
  159.0680  211.6570  152.7020 C   0  0  0  0  0  3  0  0  0  0  0  0
  159.9050  211.6960  154.9890 N   0  0  0  0  0  2  0  0  0  0  0  0
  160.4520  211.5350  152.1090 C   0  0  1  0  0  3  0  0  0  0  0  0
  161.0710  210.8770  154.8520 C   0  0  0  0  0  0  0  0  0  0  0  0
  161.2020  210.2200  152.4180 C   0  0  1  0  0  3  0  0  0  0  0  0
  158.8540  211.7660  154.0160 C   0  0  0  0  0  3  0  0  0  0  0  0
  162.0670  211.0790  155.5920 O   0  0  0  0  0  0  0  0  0  0  0  0
  161.0940  209.7470  153.8710 C   0  0  0  0  0  2  0  0  0  0  0  0
  162.2450  212.0380  148.8310 C   0  0  0  0  0  2  0  0  0  0  0  0
  160.5540  211.9260  150.6940 N   0  0  1  0  0  0  0  0  0  0  0  0
  159.8010  212.5640  148.1720 C   0  0  0  0  0  2  0  0  0  0  0  0
  159.8950  213.7540  149.1360 C   0  0  0  0  0  2  0  0  0  0  0  0
  160.4560  213.3840  150.5180 C   0  0  0  0  0  2  0  0  0  0  0  0
  161.6130  212.6440  146.6120 O   0  0  0  0  0  1  0  0  0  0  0  0
  161.8290  211.4120  150.1710 C   0  0  0  0  0  2  0  0  0  0  0  0
  161.1590  211.9830  147.7520 C   0  0  1  0  0  3  0  0  0  0  0  0
  160.8610  209.0830  151.4580 C   0  0  0  0  0  2  0  0  0  0  0  0
  161.2210  205.5040  152.2370 O   0  0  0  0  0  0  0  0  0  0  0  0
  160.9220  207.7930  152.1330 N   0  0  0  0  0  2  0  0  0  0  0  0
  161.2050  206.5320  151.5080 C   0  0  0  0  0  0  0  0  0  0  0  0
  161.8720  206.0180  147.2910 C   0  0  0  0  0  3  0  0  0  0  0  0
  161.2040  205.0370  148.0280 C   0  0  0  0  0  3  0  0  0  0  0  0
  160.9940  205.2150  149.3990 C   0  0  0  0  0  3  0  0  0  0  0  0
  162.1190  207.3490  149.2950 C   0  0  0  0  0  3  0  0  0  0  0  0
  162.3300  207.1740  147.9250 C   0  0  0  0  0  3  0  0  0  0  0  0
  161.4460  206.3750  150.0490 C   0  0  0  0  0  0  0  0  0  0  0  0
  1  6  2  0  0  0  0
  3  5  1  0  0  0  0
  3  1  1  6  0  0  0
  4  2  1  0  0  0  0
  4  7  2  0  0  0  0
  5 17  1  6  0  0  0
  5  8  1  0  0  0  0
  6  2  1  0  0  0  0
  8  4  1  0  0  0  0
  9 15  1  0  0  0  0
 10 15  1  1  0  0  0
 10  3  1  0  0  0  0
 11 12  1  0  0  0  0
 12 13  1  0  0  0  0
 13 10  1  0  0  0  0
 16 14  1  6  0  0  0
 16 11  1  0  0  0  0
 16  9  1  0  0  0  0
 17 19  1  0  0  0  0
 20 19  1  0  0  0  0
 20 18  2  0  0  0  0
 21 25  2  0  0  0  0
 21 22  1  0  0  0  0
 22 23  2  0  0  0  0
 23 26  1  0  0  0  0
 24 26  2  0  0  0  0
 25 24  1  0  0  0  0
 26 20  1  0  0  0  0
M  END
>  <MODEL>
7

>  <REMARK>
 VINA RESULT:      -5.5      2.929      5.030
  Name = 
  4 active torsions:
  status: ('A' for Active; 'I' for Inactive)
    1  A    between atoms: C_2  and  C_13
    2  A    between atoms: C_2  and  N_16
    3  A    between atoms: C_5  and  N_6
    4  A    between atoms: C_24  and  C_25
                            x       y       z     vdW  Elec       q    Type
                         _______ _______ _______ _____ _____    ______ ____

>  <TORSDO>
F 4

$$$$
=
 OpenBabel11072414403D

 26 28  0  0  1  0  0  0  0  0999 V2000
  162.5690  207.3120  149.2980 C   0  0  0  0  0  3  0  0  0  0  0  0
  161.6170  207.4530  147.0590 N   0  0  0  0  0  2  0  0  0  0  0  0
  161.3320  206.6610  149.8730 C   0  0  1  0  0  3  0  0  0  0  0  0
  160.7770  206.2940  147.0620 C   0  0  0  0  0  0  0  0  0  0  0  0
  161.0130  205.2430  149.3450 C   0  0  1  0  0  3  0  0  0  0  0  0
  162.6540  207.6950  148.0210 C   0  0  0  0  0  3  0  0  0  0  0  0
  159.7230  206.2850  146.3760 O   0  0  0  0  0  0  0  0  0  0  0  0
  161.1700  205.0720  147.8310 C   0  0  0  0  0  2  0  0  0  0  0  0
  161.0590  208.5030  153.1490 C   0  0  0  0  0  2  0  0  0  0  0  0
  161.2030  206.7640  151.3340 N   0  0  1  0  0  0  0  0  0  0  0  0
  160.6850  206.0560  153.8970 C   0  0  0  0  0  2  0  0  0  0  0  0
  162.1250  205.7930  153.4350 C   0  0  0  0  0  2  0  0  0  0  0  0
  162.4270  206.3300  152.0270 C   0  0  0  0  0  2  0  0  0  0  0  0
  160.6510  207.9000  155.4220 O   0  0  0  0  0  1  0  0  0  0  0  0
  160.8710  208.1580  151.6640 C   0  0  0  0  0  2  0  0  0  0  0  0
  160.3510  207.5400  154.1090 C   0  0  1  0  0  3  0  0  0  0  0  0
  161.7520  204.1340  150.0890 C   0  0  0  0  0  2  0  0  0  0  0  0
  159.4880  201.3280  150.8250 O   0  0  0  0  0  0  0  0  0  0  0  0
  160.8160  203.2160  150.7240 N   0  0  0  0  0  2  0  0  0  0  0  0
  160.2910  202.0160  150.1380 C   0  0  0  0  0  0  0  0  0  0  0  0
  161.2790  200.6560  146.1800 C   0  0  0  0  0  3  0  0  0  0  0  0
  161.8050  200.0130  147.3040 C   0  0  0  0  0  3  0  0  0  0  0  0
  161.4770  200.4650  148.5850 C   0  0  0  0  0  3  0  0  0  0  0  0
  160.1030  202.2010  147.6230 C   0  0  0  0  0  3  0  0  0  0  0  0
  160.4280  201.7510  146.3400 C   0  0  0  0  0  3  0  0  0  0  0  0
  160.6190  201.5630  148.7610 C   0  0  0  0  0  0  0  0  0  0  0  0
  2  4  1  0  0  0  0
  2  6  1  0  0  0  0
  3  1  1  1  0  0  0
  3 10  1  0  0  0  0
  4  8  1  0  0  0  0
  5  3  1  0  0  0  0
  5 17  1  1  0  0  0
  6  1  2  0  0  0  0
  7  4  2  0  0  0  0
  8  5  1  0  0  0  0
  9 16  1  0  0  0  0
 10 15  1  6  0  0  0
 10 13  1  0  0  0  0
 11 16  1  0  0  0  0
 12 11  1  0  0  0  0
 13 12  1  0  0  0  0
 15  9  1  0  0  0  0
 16 14  1  1  0  0  0
 17 19  1  0  0  0  0
 20 19  1  0  0  0  0
 20 18  2  0  0  0  0
 21 25  2  0  0  0  0
 21 22  1  0  0  0  0
 22 23  2  0  0  0  0
 23 26  1  0  0  0  0
 24 26  2  0  0  0  0
 25 24  1  0  0  0  0
 26 20  1  0  0  0  0
M  END
>  <MODEL>
8

>  <REMARK>
 VINA RESULT:      -5.4      4.406      7.960
  Name = 
  4 active torsions:
  status: ('A' for Active; 'I' for Inactive)
    1  A    between atoms: C_2  and  C_13
    2  A    between atoms: C_2  and  N_16
    3  A    between atoms: C_5  and  N_6
    4  A    between atoms: C_24  and  C_25
                            x       y       z     vdW  Elec       q    Type
                         _______ _______ _______ _____ _____    ______ ____

>  <TORSDO>
F 4

$$$$
=
 OpenBabel11072414403D

 26 28  0  0  1  0  0  0  0  0999 V2000
  161.0110  207.4600  149.3280 C   0  0  0  0  0  3  0  0  0  0  0  0
  162.1070  207.7530  151.4840 N   0  0  0  0  0  2  0  0  0  0  0  0
  161.8480  206.2520  148.9730 C   0  0  1  0  0  3  0  0  0  0  0  0
  162.4240  206.3940  151.8000 C   0  0  0  0  0  0  0  0  0  0  0  0
  161.6260  205.0010  149.8520 C   0  0  1  0  0  3  0  0  0  0  0  0
  161.1790  208.1450  150.4620 C   0  0  0  0  0  3  0  0  0  0  0  0
  163.4390  206.1350  152.4960 O   0  0  0  0  0  0  0  0  0  0  0  0
  161.5280  205.2810  151.3540 C   0  0  0  0  0  2  0  0  0  0  0  0
  160.3650  205.6720  145.5570 C   0  0  0  0  0  2  0  0  0  0  0  0
  161.8980  205.9350  147.5380 N   0  0  1  0  0  0  0  0  0  0  0  0
  162.8970  205.5740  145.0470 C   0  0  0  0  0  2  0  0  0  0  0  0
  162.9360  204.3290  145.9410 C   0  0  0  0  0  2  0  0  0  0  0  0
  162.2380  204.5230  147.2980 C   0  0  0  0  0  2  0  0  0  0  0  0
  161.2210  205.3060  143.3610 O   0  0  0  0  0  1  0  0  0  0  0  0
  160.5910  206.2740  146.9520 C   0  0  0  0  0  2  0  0  0  0  0  0
  161.4920  205.9610  144.5610 C   0  0  1  0  0  3  0  0  0  0  0  0
  160.4590  204.1310  149.3930 C   0  0  0  0  0  2  0  0  0  0  0  0
  160.3520  200.6280  150.5140 O   0  0  0  0  0  0  0  0  0  0  0  0
  160.3660  202.9150  150.1900 N   0  0  0  0  0  2  0  0  0  0  0  0
  160.4510  201.5740  149.6870 C   0  0  0  0  0  0  0  0  0  0  0  0
  160.9700  200.5730  145.5370 C   0  0  0  0  0  3  0  0  0  0  0  0
  161.5660  199.7970  146.5340 C   0  0  0  0  0  3  0  0  0  0  0  0
  161.3910  200.1330  147.8800 C   0  0  0  0  0  3  0  0  0  0  0  0
  160.0290  202.0190  147.2330 C   0  0  0  0  0  3  0  0  0  0  0  0
  160.2020  201.6860  145.8870 C   0  0  0  0  0  3  0  0  0  0  0  0
  160.6170  201.2460  148.2460 C   0  0  0  0  0  0  0  0  0  0  0  0
  1  6  2  0  0  0  0
  2  4  1  0  0  0  0
  3  1  1  6  0  0  0
  3  5  1  0  0  0  0
  4  7  2  0  0  0  0
  5 17  1  6  0  0  0
  5  8  1  0  0  0  0
  6  2  1  0  0  0  0
  8  4  1  0  0  0  0
  9 15  1  0  0  0  0
 10 15  1  1  0  0  0
 10  3  1  0  0  0  0
 11 12  1  0  0  0  0
 12 13  1  0  0  0  0
 13 10  1  0  0  0  0
 16 14  1  6  0  0  0
 16 11  1  0  0  0  0
 16  9  1  0  0  0  0
 17 19  1  0  0  0  0
 20 19  1  0  0  0  0
 20 18  2  0  0  0  0
 21 25  2  0  0  0  0
 21 22  1  0  0  0  0
 22 23  2  0  0  0  0
 23 26  1  0  0  0  0
 24 26  2  0  0  0  0
 25 24  1  0  0  0  0
 26 20  1  0  0  0  0
M  END
>  <MODEL>
9

>  <REMARK>
 VINA RESULT:      -5.2      5.674      9.317
  Name = 
  4 active torsions:
  status: ('A' for Active; 'I' for Inactive)
    1  A    between atoms: C_2  and  C_13
    2  A    between atoms: C_2  and  N_16
    3  A    between atoms: C_5  and  N_6
    4  A    between atoms: C_24  and  C_25
                            x       y       z     vdW  Elec       q    Type
                         _______ _______ _______ _____ _____    ______ ____

>  <TORSDO>
F 4

$$$$
