=
 OpenBabel11072409573D

 48 52  0  0  1  0  0  0  0  0999 V2000
  161.4660  208.3840  153.8550 C   0  0  0  0  0  3  0  0  0  0  0  0
  161.0800  207.0350  153.7910 C   0  0  0  0  0  0  0  0  0  0  0  0
  160.2250  206.5480  154.7940 C   0  0  0  0  0  3  0  0  0  0  0  0
  161.0100  209.2030  154.8850 C   0  0  0  0  0  0  0  0  0  0  0  0
  160.1660  208.6690  155.8570 C   0  0  0  0  0  3  0  0  0  0  0  0
  159.7910  207.3660  155.7890 N   0  0  0  0  0  0  0  0  0  0  0  0
  160.1210  204.4210  151.8070 C   0  0  2  0  0  3  0  0  0  0  0  0
  160.9910  204.7070  152.9130 C   0  0  2  0  0  3  0  0  0  0  0  0
  161.6070  206.1000  152.7140 C   0  0  1  0  0  0  0  0  0  0  0  0
  161.4700  203.6920  151.8660 C   0  0  0  0  0  0  0  0  0  0  0  0
  161.1810  206.5940  151.3440 C   0  0  0  0  0  2  0  0  0  0  0  0
  160.1570  205.6020  150.8350 C   0  0  1  0  0  3  0  0  0  0  0  0
  162.3030  202.9290  151.4070 O   0  0  0  0  0  0  0  0  0  0  0  0
  163.1340  206.0100  152.7370 C   0  0  0  0  0  1  0  0  0  0  0  0
  160.5110  205.1760  149.4130 C   0  0  0  0  0  2  0  0  0  0  0  0
  160.9850  206.3570  148.5800 C   0  0  0  0  0  2  0  0  0  0  0  0
  160.8590  206.0470  147.0980 C   0  0  1  0  0  3  0  0  0  0  0  0
  162.0720  206.4600  146.4040 C   0  0  0  0  0  2  0  0  0  0  0  0
  161.8690  205.0430  146.7370 N   0  0  0  0  0  0  0  0  0  0  0  0
  161.4100  204.3940  145.5190 C   0  0  0  0  0  2  0  0  0  0  0  0
  161.6470  202.8930  145.5940 C   0  0  0  0  0  2  0  0  0  0  0  0
  160.4860  202.1860  146.2940 C   0  0  1  0  0  3  0  0  0  0  0  0
  159.8190  201.3510  145.3900 O   0  0  0  0  0  1  0  0  0  0  0  0
  161.4990  200.1830  147.1430 O   0  0  0  0  0  1  0  0  0  0  0  0
  160.9310  201.3970  147.5350 C   0  0  0  0  0  0  0  0  0  0  0  0
  161.8960  202.1400  148.2130 O   0  0  0  0  0  1  0  0  0  0  0  0
  159.6400  202.1490  149.4170 F   0  0  0  0  0  0  0  0  0  0  0  0
  159.7720  201.1290  148.4930 C   0  0  0  0  0  2  0  0  0  0  0  0
  161.5220  210.9140  154.9720 S   0  0  0  0  0  0  0  0  0  0  0  0
  159.7370  213.3570  155.2710 O   0  0  0  0  0  0  0  0  0  0  0  0
  160.1470  211.4430  153.9970 N   0  0  0  0  0  2  0  0  0  0  0  0
  159.4460  212.6580  154.2640 C   0  0  0  0  0  0  0  0  0  0  0  0
  158.3680  213.1190  153.3310 C   0  0  1  0  0  3  0  0  0  0  0  0
  158.5840  212.5650  152.0610 O   0  0  0  0  0  0  0  0  0  0  0  0
  157.9960  214.0750  150.3180 C   0  0  0  0  0  1  0  0  0  0  0  0
  159.0780  213.6110  151.2770 C   0  0  2  0  0  3  0  0  0  0  0  0
  160.2900  213.1290  150.4970 C   0  0  0  0  0  2  0  0  0  0  0  0
  160.2080  213.5940  149.0580 C   0  0  0  0  0  2  0  0  0  0  0  0
  162.1780  213.7720  147.7460 O   0  0  0  0  0  1  0  0  0  0  0  0
  161.4280  214.4260  148.7200 C   0  0  0  0  0  2  0  0  0  0  0  0
  156.9820  212.7230  153.8640 C   0  0  1  0  0  3  0  0  0  0  0  0
  155.7660  212.3650  157.2550 C   0  0  0  0  0  2  0  0  0  0  0  0
  156.3690  210.9790  155.3850 C   0  0  0  0  0  2  0  0  0  0  0  0
  156.4320  213.1900  156.1830 C   0  0  0  0  0  2  0  0  0  0  0  0
  157.0690  212.2560  155.2580 N   0  0  0  0  0  0  0  0  0  0  0  0
  155.4350  211.0640  156.5740 C   0  0  0  0  0  2  0  0  0  0  0  0
  155.9490  213.8440  153.6710 C   0  0  0  0  0  2  0  0  0  0  0  0
  155.5060  213.8630  152.3600 F   0  0  0  0  0  0  0  0  0  0  0  0
  1  4  1  0  0  0  0
  2  1  2  0  0  0  0
  2  3  1  0  0  0  0
  3  6  2  0  0  0  0
  4 29  1  0  0  0  0
  4  5  2  0  0  0  0
  6  5  1  0  0  0  0
  7 10  1  6  0  0  0
  7  8  1  0  0  0  0
  8 10  1  6  0  0  0
  9 14  1  1  0  0  0
  9  8  1  0  0  0  0
  9  2  1  0  0  0  0
 11  9  1  0  0  0  0
 12 15  1  6  0  0  0
 12 11  1  0  0  0  0
 12  7  1  0  0  0  0
 13 10  2  0  0  0  0
 16 15  1  0  0  0  0
 17 16  1  1  0  0  0
 18 19  1  0  0  0  0
 18 17  1  0  0  0  0
 19 17  1  0  0  0  0
 20 21  1  0  0  0  0
 20 19  1  0  0  0  0
 21 22  1  0  0  0  0
 22 23  1  6  0  0  0
 22 25  1  0  0  0  0
 24 25  1  0  0  0  0
 25 26  1  0  0  0  0
 25 28  1  0  0  0  0
 28 27  1  0  0  0  0
 31 32  1  0  0  0  0
 31 29  1  0  0  0  0
 32 30  2  0  0  0  0
 33 34  1  6  0  0  0
 33 41  1  0  0  0  0
 33 32  1  0  0  0  0
 36 35  1  6  0  0  0
 36 34  1  0  0  0  0
 37 36  1  0  0  0  0
 38 37  1  0  0  0  0
 39 40  1  0  0  0  0
 40 38  1  0  0  0  0
 41 47  1  1  0  0  0
 41 45  1  0  0  0  0
 43 46  1  0  0  0  0
 44 42  1  0  0  0  0
 45 43  1  0  0  0  0
 45 44  1  0  0  0  0
 46 42  1  0  0  0  0
 48 47  1  0  0  0  0
M  END
>  <MODEL>
1

>  <REMARK>
 VINA RESULT:      -5.2      0.000      0.000
  Name = 
  20 active torsions:
  status: ('A' for Active; 'I' for Inactive)
    1  A    between atoms: C_1  and  C_47
    2  A    between atoms: C_3  and  C_26
    3  A    between atoms: C_4  and  C_18
    4  A    between atoms: C_4  and  C_24
    5  A    between atoms: S_5  and  C_23
    6  A    between atoms: S_5  and  N_39
    7  A    between atoms: C_9  and  C_12
    8  A    between atoms: C_10  and  C_25
    9  A    between atoms: C_10  and  C_38
   10  A    between atoms: C_18  and  N_45
   11  A    between atoms: C_21  and  C_27
   12  A    between atoms: C_21  and  C_47
   13  A    between atoms: C_24  and  C_31
   14  A    between atoms: C_25  and  C_48
   15  A    between atoms: C_26  and  C_33
   16  A    between atoms: C_26  and  N_35
   17  A    between atoms: C_31  and  C_36
   18  A    between atoms: O_32  and  C_33
   19  A    between atoms: O_32  and  C_48
   20  A    between atoms: C_33  and  C_42
                            x       y       z     vdW  Elec       q    Type
                         _______ _______ _______ _____ _____    ______ ____

>  <TORSDO>
F 20

$$$$
=
 OpenBabel11072409573D

 48 52  0  0  1  0  0  0  0  0999 V2000
  161.5780  208.2470  153.4920 C   0  0  0  0  0  3  0  0  0  0  0  0
  161.1310  206.9170  153.5320 C   0  0  0  0  0  0  0  0  0  0  0  0
  160.1830  206.5710  154.5110 C   0  0  0  0  0  3  0  0  0  0  0  0
  161.0890  209.1860  154.3970 C   0  0  0  0  0  0  0  0  0  0  0  0
  160.1520  208.7910  155.3510 C   0  0  0  0  0  3  0  0  0  0  0  0
  159.7190  207.5040  155.3830 N   0  0  0  0  0  0  0  0  0  0  0  0
  160.2280  204.0700  151.8700 C   0  0  2  0  0  3  0  0  0  0  0  0
  161.0670  204.4960  152.9540 C   0  0  2  0  0  3  0  0  0  0  0  0
  161.6880  205.8550  152.5980 C   0  0  1  0  0  0  0  0  0  0  0  0
  161.5740  203.3580  152.0570 C   0  0  0  0  0  0  0  0  0  0  0  0
  161.3000  206.1700  151.1640 C   0  0  0  0  0  2  0  0  0  0  0  0
  160.2910  205.1190  150.7570 C   0  0  1  0  0  3  0  0  0  0  0  0
  162.4200  202.5460  151.7210 O   0  0  0  0  0  0  0  0  0  0  0  0
  163.2140  205.7740  152.6740 C   0  0  0  0  0  1  0  0  0  0  0  0
  160.6840  204.5170  149.4110 C   0  0  0  0  0  2  0  0  0  0  0  0
  160.4420  203.0160  149.3810 C   0  0  0  0  0  2  0  0  0  0  0  0
  161.2440  202.3700  148.2650 C   0  0  1  0  0  3  0  0  0  0  0  0
  161.0810  200.9220  148.3150 C   0  0  0  0  0  2  0  0  0  0  0  0
  160.3160  201.7080  147.3360 N   0  0  0  0  0  0  0  0  0  0  0  0
  161.0080  201.5720  146.0650 C   0  0  0  0  0  2  0  0  0  0  0  0
  160.7100  202.7640  145.1660 C   0  0  0  0  0  2  0  0  0  0  0  0
  161.5760  203.9660  145.5390 C   0  0  1  0  0  3  0  0  0  0  0  0
  162.8540  203.8270  144.9860 O   0  0  0  0  0  1  0  0  0  0  0  0
  161.5710  205.7780  143.9660 O   0  0  0  0  0  1  0  0  0  0  0  0
  160.9470  205.3050  145.1220 C   0  0  0  0  0  0  0  0  0  0  0  0
  159.5970  205.0960  144.8450 O   0  0  0  0  0  1  0  0  0  0  0  0
  159.8740  206.4550  146.9380 F   0  0  0  0  0  0  0  0  0  0  0  0
  161.0530  206.3580  146.2230 C   0  0  0  0  0  2  0  0  0  0  0  0
  161.6770  210.8750  154.3530 S   0  0  0  0  0  0  0  0  0  0  0  0
  159.8400  213.2280  154.9260 O   0  0  0  0  0  0  0  0  0  0  0  0
  160.2330  211.4240  153.4970 N   0  0  0  0  0  2  0  0  0  0  0  0
  159.5130  212.5930  153.8890 C   0  0  0  0  0  0  0  0  0  0  0  0
  158.3690  213.0810  153.0530 C   0  0  1  0  0  3  0  0  0  0  0  0
  158.4920  212.5690  151.7530 O   0  0  0  0  0  0  0  0  0  0  0  0
  157.2890  213.2770  149.8250 C   0  0  0  0  0  1  0  0  0  0  0  0
  158.2890  213.6590  150.9020 C   0  0  2  0  0  3  0  0  0  0  0  0
  159.6100  214.0560  150.2670 C   0  0  0  0  0  2  0  0  0  0  0  0
  160.4270  212.8230  149.9390 C   0  0  0  0  0  2  0  0  0  0  0  0
  161.1010  212.1470  147.7660 O   0  0  0  0  0  1  0  0  0  0  0  0
  161.3230  213.1060  148.7500 C   0  0  0  0  0  2  0  0  0  0  0  0
  157.0260  212.6650  153.6720 C   0  0  1  0  0  3  0  0  0  0  0  0
  156.0220  212.5110  157.1480 C   0  0  0  0  0  2  0  0  0  0  0  0
  156.4940  211.0160  155.3250 C   0  0  0  0  0  2  0  0  0  0  0  0
  156.6270  213.2670  155.9920 C   0  0  0  0  0  2  0  0  0  0  0  0
  157.1970  212.2750  155.0830 N   0  0  0  0  0  0  0  0  0  0  0  0
  155.6380  211.1780  156.5630 C   0  0  0  0  0  2  0  0  0  0  0  0
  155.9440  213.7370  153.4740 C   0  0  0  0  0  2  0  0  0  0  0  0
  154.7210  213.1390  153.2250 F   0  0  0  0  0  0  0  0  0  0  0  0
  1  2  2  0  0  0  0
  1  4  1  0  0  0  0
  2  3  1  0  0  0  0
  3  6  2  0  0  0  0
  4  5  2  0  0  0  0
  5  6  1  0  0  0  0
  7 10  1  6  0  0  0
  7  8  1  0  0  0  0
  8 10  1  6  0  0  0
  9 14  1  1  0  0  0
  9  8  1  0  0  0  0
  9  2  1  0  0  0  0
 11  9  1  0  0  0  0
 12 15  1  6  0  0  0
 12 11  1  0  0  0  0
 12  7  1  0  0  0  0
 13 10  2  0  0  0  0
 16 15  1  0  0  0  0
 17 18  1  0  0  0  0
 17 16  1  1  0  0  0
 19 17  1  0  0  0  0
 19 18  1  0  0  0  0
 20 19  1  0  0  0  0
 21 22  1  0  0  0  0
 21 20  1  0  0  0  0
 22 23  1  6  0  0  0
 24 25  1  0  0  0  0
 25 22  1  0  0  0  0
 25 28  1  0  0  0  0
 26 25  1  0  0  0  0
 28 27  1  0  0  0  0
 29  4  1  0  0  0  0
 31 32  1  0  0  0  0
 31 29  1  0  0  0  0
 32 30  2  0  0  0  0
 33 34  1  6  0  0  0
 33 41  1  0  0  0  0
 33 32  1  0  0  0  0
 36 35  1  6  0  0  0
 36 34  1  0  0  0  0
 37 36  1  0  0  0  0
 38 37  1  0  0  0  0
 39 40  1  0  0  0  0
 40 38  1  0  0  0  0
 41 47  1  1  0  0  0
 41 45  1  0  0  0  0
 43 46  1  0  0  0  0
 44 42  1  0  0  0  0
 45 43  1  0  0  0  0
 45 44  1  0  0  0  0
 46 42  1  0  0  0  0
 48 47  1  0  0  0  0
M  END
>  <MODEL>
2

>  <REMARK>
 VINA RESULT:      -5.1      1.571      2.370
  Name = 
  20 active torsions:
  status: ('A' for Active; 'I' for Inactive)
    1  A    between atoms: C_1  and  C_47
    2  A    between atoms: C_3  and  C_26
    3  A    between atoms: C_4  and  C_18
    4  A    between atoms: C_4  and  C_24
    5  A    between atoms: S_5  and  C_23
    6  A    between atoms: S_5  and  N_39
    7  A    between atoms: C_9  and  C_12
    8  A    between atoms: C_10  and  C_25
    9  A    between atoms: C_10  and  C_38
   10  A    between atoms: C_18  and  N_45
   11  A    between atoms: C_21  and  C_27
   12  A    between atoms: C_21  and  C_47
   13  A    between atoms: C_24  and  C_31
   14  A    between atoms: C_25  and  C_48
   15  A    between atoms: C_26  and  C_33
   16  A    between atoms: C_26  and  N_35
   17  A    between atoms: C_31  and  C_36
   18  A    between atoms: O_32  and  C_33
   19  A    between atoms: O_32  and  C_48
   20  A    between atoms: C_33  and  C_42
                            x       y       z     vdW  Elec       q    Type
                         _______ _______ _______ _____ _____    ______ ____

>  <TORSDO>
F 20

$$$$
=
 OpenBabel11072409573D

 48 52  0  0  1  0  0  0  0  0999 V2000
  160.8000  211.8250  151.2240 C   0  0  0  0  0  3  0  0  0  0  0  0
  161.6800  210.7890  150.8730 C   0  0  0  0  0  0  0  0  0  0  0  0
  162.2110  210.7900  149.5710 C   0  0  0  0  0  3  0  0  0  0  0  0
  160.4710  212.8170  150.3030 C   0  0  0  0  0  0  0  0  0  0  0  0
  161.0230  212.7710  149.0240 C   0  0  0  0  0  3  0  0  0  0  0  0
  161.8780  211.7690  148.6900 N   0  0  0  0  0  0  0  0  0  0  0  0
  160.5670  207.7210  151.8920 C   0  0  2  0  0  3  0  0  0  0  0  0
  160.7080  209.0630  152.3820 C   0  0  2  0  0  3  0  0  0  0  0  0
  162.0130  209.6590  151.8340 C   0  0  1  0  0  0  0  0  0  0  0  0
  160.9490  207.9110  153.3660 C   0  0  0  0  0  0  0  0  0  0  0  0
  162.7440  208.5500  151.0980 C   0  0  0  0  0  2  0  0  0  0  0  0
  161.7850  207.3820  151.0300 C   0  0  1  0  0  3  0  0  0  0  0  0
  161.2570  207.4780  154.4640 O   0  0  0  0  0  0  0  0  0  0  0  0
  162.9010  210.1350  152.9850 C   0  0  0  0  0  1  0  0  0  0  0  0
  162.4870  206.1080  151.4900 C   0  0  0  0  0  2  0  0  0  0  0  0
  161.4880  205.0100  151.8200 C   0  0  0  0  0  2  0  0  0  0  0  0
  161.6610  203.8320  150.8770 C   0  0  1  0  0  3  0  0  0  0  0  0
  160.4360  203.0430  150.8450 C   0  0  0  0  0  2  0  0  0  0  0  0
  160.7250  203.9830  149.7540 N   0  0  0  0  0  0  0  0  0  0  0  0
  161.2490  203.1900  148.6530 C   0  0  0  0  0  2  0  0  0  0  0  0
  161.9850  204.0780  147.6600 C   0  0  0  0  0  2  0  0  0  0  0  0
  161.0400  205.1010  147.0300 C   0  0  1  0  0  3  0  0  0  0  0  0
  161.3900  206.3920  147.4420 O   0  0  0  0  0  1  0  0  0  0  0  0
  161.1150  203.6780  145.1000 O   0  0  0  0  0  1  0  0  0  0  0  0
  161.0030  205.0120  145.4970 C   0  0  0  0  0  0  0  0  0  0  0  0
  159.7780  205.5060  145.0510 O   0  0  0  0  0  1  0  0  0  0  0  0
  162.1350  205.6480  143.4750 F   0  0  0  0  0  0  0  0  0  0  0  0
  162.1160  205.8300  144.8450 C   0  0  0  0  0  2  0  0  0  0  0  0
  159.3340  214.1240  150.7500 S   0  0  0  0  0  0  0  0  0  0  0  0
  156.9830  213.8800  152.6610 O   0  0  0  0  0  0  0  0  0  0  0  0
  159.2900  213.5980  152.4360 N   0  0  0  0  0  2  0  0  0  0  0  0
  158.0710  213.5030  153.1730 C   0  0  0  0  0  0  0  0  0  0  0  0
  158.0780  212.9350  154.5590 C   0  0  1  0  0  3  0  0  0  0  0  0
  159.0540  213.5900  155.3240 O   0  0  0  0  0  0  0  0  0  0  0  0
  160.4860  213.3010  157.2030 C   0  0  0  0  0  1  0  0  0  0  0  0
  159.4510  212.6640  156.2930 C   0  0  2  0  0  3  0  0  0  0  0  0
  160.0420  211.4420  155.6110 C   0  0  0  0  0  2  0  0  0  0  0  0
  161.5120  211.3090  155.9540 C   0  0  0  0  0  2  0  0  0  0  0  0
  160.5370  209.5230  157.1760 O   0  0  0  0  0  1  0  0  0  0  0  0
  161.7480  210.0050  156.6890 C   0  0  0  0  0  2  0  0  0  0  0  0
  156.6950  213.0760  155.2120 C   0  0  1  0  0  3  0  0  0  0  0  0
  154.5280  210.9000  157.1290 C   0  0  0  0  0  2  0  0  0  0  0  0
  156.0900  210.7620  155.3060 C   0  0  0  0  0  2  0  0  0  0  0  0
  155.2730  212.2010  156.9770 C   0  0  0  0  0  2  0  0  0  0  0  0
  156.4180  211.9390  156.1070 N   0  0  0  0  0  0  0  0  0  0  0  0
  154.8170  210.1510  155.8550 C   0  0  0  0  0  2  0  0  0  0  0  0
  156.5200  214.4380  155.9010 C   0  0  0  0  0  2  0  0  0  0  0  0
  157.1500  214.4330  157.1330 F   0  0  0  0  0  0  0  0  0  0  0  0
  2  1  1  0  0  0  0
  2  9  1  0  0  0  0
  3  2  2  0  0  0  0
  4 29  1  0  0  0  0
  4  1  2  0  0  0  0
  5  4  1  0  0  0  0
  6  5  2  0  0  0  0
  6  3  1  0  0  0  0
  7  8  1  0  0  0  0
  7 10  1  1  0  0  0
  8 10  1  1  0  0  0
  9  8  1  0  0  0  0
  9 14  1  1  0  0  0
 10 13  2  0  0  0  0
 11  9  1  0  0  0  0
 12 11  1  0  0  0  0
 12 15  1  1  0  0  0
 12  7  1  0  0  0  0
 15 16  1  0  0  0  0
 17 16  1  1  0  0  0
 18 17  1  0  0  0  0
 19 18  1  0  0  0  0
 19 17  1  0  0  0  0
 20 19  1  0  0  0  0
 21 20  1  0  0  0  0
 22 23  1  6  0  0  0
 22 21  1  0  0  0  0
 24 25  1  0  0  0  0
 25 22  1  0  0  0  0
 26 25  1  0  0  0  0
 27 28  1  0  0  0  0
 28 25  1  0  0  0  0
 29 31  1  0  0  0  0
 30 32  2  0  0  0  0
 31 32  1  0  0  0  0
 33 32  1  6  0  0  0
 33 41  1  0  0  0  0
 33 34  1  0  0  0  0
 34 36  1  0  0  0  0
 36 35  1  1  0  0  0
 37 38  1  0  0  0  0
 37 36  1  0  0  0  0
 38 40  1  0  0  0  0
 40 39  1  0  0  0  0
 41 47  1  1  0  0  0
 41 45  1  0  0  0  0
 43 46  1  0  0  0  0
 43 45  1  0  0  0  0
 44 42  1  0  0  0  0
 45 44  1  0  0  0  0
 46 42  1  0  0  0  0
 47 48  1  0  0  0  0
M  END
>  <MODEL>
3

>  <REMARK>
 VINA RESULT:      -5.0      2.803      4.919
  Name = 
  20 active torsions:
  status: ('A' for Active; 'I' for Inactive)
    1  A    between atoms: C_1  and  C_47
    2  A    between atoms: C_3  and  C_26
    3  A    between atoms: C_4  and  C_18
    4  A    between atoms: C_4  and  C_24
    5  A    between atoms: S_5  and  C_23
    6  A    between atoms: S_5  and  N_39
    7  A    between atoms: C_9  and  C_12
    8  A    between atoms: C_10  and  C_25
    9  A    between atoms: C_10  and  C_38
   10  A    between atoms: C_18  and  N_45
   11  A    between atoms: C_21  and  C_27
   12  A    between atoms: C_21  and  C_47
   13  A    between atoms: C_24  and  C_31
   14  A    between atoms: C_25  and  C_48
   15  A    between atoms: C_26  and  C_33
   16  A    between atoms: C_26  and  N_35
   17  A    between atoms: C_31  and  C_36
   18  A    between atoms: O_32  and  C_33
   19  A    between atoms: O_32  and  C_48
   20  A    between atoms: C_33  and  C_42
                            x       y       z     vdW  Elec       q    Type
                         _______ _______ _______ _____ _____    ______ ____

>  <TORSDO>
F 20

$$$$
=
 OpenBabel11072409573D

 48 52  0  0  1  0  0  0  0  0999 V2000
  161.2730  205.9370  151.3050 C   0  0  0  0  0  3  0  0  0  0  0  0
  161.2630  204.7040  151.9760 C   0  0  0  0  0  0  0  0  0  0  0  0
  161.0750  204.7150  153.3690 C   0  0  0  0  0  3  0  0  0  0  0  0
  161.1010  207.1270  152.0080 C   0  0  0  0  0  0  0  0  0  0  0  0
  160.9210  207.0840  153.3890 C   0  0  0  0  0  3  0  0  0  0  0  0
  160.9070  205.8880  154.0340 N   0  0  0  0  0  0  0  0  0  0  0  0
  159.8570  202.6250  149.6540 C   0  0  2  0  0  3  0  0  0  0  0  0
  160.1660  202.6660  151.0560 C   0  0  2  0  0  3  0  0  0  0  0  0
  161.5060  203.3920  151.2480 C   0  0  1  0  0  0  0  0  0  0  0  0
  160.3170  201.3240  150.3260 C   0  0  0  0  0  0  0  0  0  0  0  0
  162.0790  203.6620  149.8680 C   0  0  0  0  0  2  0  0  0  0  0  0
  160.9930  203.2960  148.8800 C   0  0  1  0  0  3  0  0  0  0  0  0
  160.6190  200.1430  150.2950 O   0  0  0  0  0  0  0  0  0  0  0  0
  162.4870  202.4950  152.0060 C   0  0  0  0  0  1  0  0  0  0  0  0
  161.5670  202.3940  147.7910 C   0  0  0  0  0  2  0  0  0  0  0  0
  160.5170  202.0430  146.7480 C   0  0  0  0  0  2  0  0  0  0  0  0
  160.8640  202.6710  145.4100 C   0  0  1  0  0  3  0  0  0  0  0  0
  159.7340  202.5420  144.4980 C   0  0  0  0  0  2  0  0  0  0  0  0
  159.9760  203.8200  145.1820 N   0  0  0  0  0  0  0  0  0  0  0  0
  160.6380  204.6860  144.2190 C   0  0  0  0  0  2  0  0  0  0  0  0
  161.1830  205.9300  144.9060 C   0  0  0  0  0  2  0  0  0  0  0  0
  161.6680  205.6100  146.3200 C   0  0  1  0  0  3  0  0  0  0  0  0
  163.0430  205.3530  146.3070 O   0  0  0  0  0  1  0  0  0  0  0  0
  160.8980  207.8590  146.6490 O   0  0  0  0  0  1  0  0  0  0  0  0
  161.3320  206.7190  147.3290 C   0  0  0  0  0  0  0  0  0  0  0  0
  160.2990  206.2740  148.1530 O   0  0  0  0  0  1  0  0  0  0  0  0
  162.8020  208.4310  148.1540 F   0  0  0  0  0  0  0  0  0  0  0  0
  162.5270  207.0770  148.2090 C   0  0  0  0  0  2  0  0  0  0  0  0
  161.1350  208.6960  151.1500 S   0  0  0  0  0  0  0  0  0  0  0  0
  160.5450  211.6530  151.5420 O   0  0  0  0  0  0  0  0  0  0  0  0
  160.4160  209.5390  152.5260 N   0  0  0  0  0  2  0  0  0  0  0  0
  160.1710  210.9450  152.5150 C   0  0  0  0  0  0  0  0  0  0  0  0
  159.4470  211.5860  153.6590 C   0  0  1  0  0  3  0  0  0  0  0  0
  160.3720  212.2390  154.4860 O   0  0  0  0  0  0  0  0  0  0  0  0
  160.2530  212.2960  156.8630 C   0  0  0  0  0  1  0  0  0  0  0  0
  160.4800  211.4410  155.6290 C   0  0  2  0  0  3  0  0  0  0  0  0
  161.8630  210.8140  155.6780 C   0  0  0  0  0  2  0  0  0  0  0  0
  162.0840  210.1350  157.0140 C   0  0  0  0  0  2  0  0  0  0  0  0
  160.6300  208.2800  156.7340 O   0  0  0  0  0  1  0  0  0  0  0  0
  161.9720  208.6330  156.8470 C   0  0  0  0  0  2  0  0  0  0  0  0
  158.3890  212.5750  153.1470 C   0  0  1  0  0  3  0  0  0  0  0  0
  156.3610  211.4420  155.9240 C   0  0  0  0  0  2  0  0  0  0  0  0
  156.9860  213.5010  154.8510 C   0  0  0  0  0  2  0  0  0  0  0  0
  157.0840  211.1620  154.6310 C   0  0  0  0  0  2  0  0  0  0  0  0
  157.1220  212.4160  153.8820 N   0  0  0  0  0  0  0  0  0  0  0  0
  156.6260  212.8990  156.1940 C   0  0  0  0  0  2  0  0  0  0  0  0
  158.9040  214.0230  153.1480 C   0  0  0  0  0  2  0  0  0  0  0  0
  159.1450  214.4440  151.8520 F   0  0  0  0  0  0  0  0  0  0  0  0
  1  2  2  0  0  0  0
  1  4  1  0  0  0  0
  2  3  1  0  0  0  0
  3  6  2  0  0  0  0
  4  5  2  0  0  0  0
  5  6  1  0  0  0  0
  7 10  1  6  0  0  0
  7  8  1  0  0  0  0
  8 10  1  6  0  0  0
  8  9  1  0  0  0  0
  9  2  1  0  0  0  0
  9 14  1  1  0  0  0
 11  9  1  0  0  0  0
 12 15  1  6  0  0  0
 12  7  1  0  0  0  0
 12 11  1  0  0  0  0
 13 10  2  0  0  0  0
 16 15  1  0  0  0  0
 17 16  1  1  0  0  0
 18 19  1  0  0  0  0
 18 17  1  0  0  0  0
 19 17  1  0  0  0  0
 20 21  1  0  0  0  0
 20 19  1  0  0  0  0
 21 22  1  0  0  0  0
 22 23  1  6  0  0  0
 22 25  1  0  0  0  0
 24 25  1  0  0  0  0
 25 26  1  0  0  0  0
 25 28  1  0  0  0  0
 27 28  1  0  0  0  0
 29  4  1  0  0  0  0
 29 31  1  0  0  0  0
 30 32  2  0  0  0  0
 32 31  1  0  0  0  0
 33 32  1  6  0  0  0
 33 34  1  0  0  0  0
 34 36  1  0  0  0  0
 36 37  1  0  0  0  0
 36 35  1  1  0  0  0
 37 38  1  0  0  0  0
 39 40  1  0  0  0  0
 40 38  1  0  0  0  0
 41 47  1  1  0  0  0
 41 33  1  0  0  0  0
 41 45  1  0  0  0  0
 42 46  1  0  0  0  0
 43 46  1  0  0  0  0
 44 42  1  0  0  0  0
 45 44  1  0  0  0  0
 45 43  1  0  0  0  0
 48 47  1  0  0  0  0
M  END
>  <MODEL>
4

>  <REMARK>
 VINA RESULT:      -4.4      2.543      4.533
  Name = 
  20 active torsions:
  status: ('A' for Active; 'I' for Inactive)
    1  A    between atoms: C_1  and  C_47
    2  A    between atoms: C_3  and  C_26
    3  A    between atoms: C_4  and  C_18
    4  A    between atoms: C_4  and  C_24
    5  A    between atoms: S_5  and  C_23
    6  A    between atoms: S_5  and  N_39
    7  A    between atoms: C_9  and  C_12
    8  A    between atoms: C_10  and  C_25
    9  A    between atoms: C_10  and  C_38
   10  A    between atoms: C_18  and  N_45
   11  A    between atoms: C_21  and  C_27
   12  A    between atoms: C_21  and  C_47
   13  A    between atoms: C_24  and  C_31
   14  A    between atoms: C_25  and  C_48
   15  A    between atoms: C_26  and  C_33
   16  A    between atoms: C_26  and  N_35
   17  A    between atoms: C_31  and  C_36
   18  A    between atoms: O_32  and  C_33
   19  A    between atoms: O_32  and  C_48
   20  A    between atoms: C_33  and  C_42
                            x       y       z     vdW  Elec       q    Type
                         _______ _______ _______ _____ _____    ______ ____

>  <TORSDO>
F 20

$$$$
=
 OpenBabel11072409573D

 48 52  0  0  1  0  0  0  0  0999 V2000
  161.8100  208.7440  150.5010 C   0  0  0  0  0  3  0  0  0  0  0  0
  162.1830  207.4530  150.0960 C   0  0  0  0  0  0  0  0  0  0  0  0
  162.5680  207.2700  148.7560 C   0  0  0  0  0  3  0  0  0  0  0  0
  161.8250  209.8030  149.5960 C   0  0  0  0  0  0  0  0  0  0  0  0
  162.2120  209.5670  148.2770 C   0  0  0  0  0  3  0  0  0  0  0  0
  162.5770  208.3170  147.8910 N   0  0  0  0  0  0  0  0  0  0  0  0
  159.9540  205.4610  151.7560 C   0  0  2  0  0  3  0  0  0  0  0  0
  160.9510  206.4600  152.0190 C   0  0  2  0  0  3  0  0  0  0  0  0
  162.1210  206.2650  151.0430 C   0  0  1  0  0  0  0  0  0  0  0  0
  160.8130  205.3030  153.0180 C   0  0  0  0  0  0  0  0  0  0  0  0
  161.8530  204.9910  150.2620 C   0  0  0  0  0  2  0  0  0  0  0  0
  160.4470  204.5620  150.6200 C   0  0  1  0  0  3  0  0  0  0  0  0
  161.1560  204.6970  154.0190 O   0  0  0  0  0  0  0  0  0  0  0  0
  163.4290  206.0860  151.8160 C   0  0  0  0  0  1  0  0  0  0  0  0
  160.4380  203.0840  151.0000 C   0  0  0  0  0  2  0  0  0  0  0  0
  161.6550  202.3600  150.4460 C   0  0  0  0  0  2  0  0  0  0  0  0
  161.2710  201.5120  149.2460 C   0  0  1  0  0  3  0  0  0  0  0  0
  159.8270  201.5570  149.0540 C   0  0  0  0  0  2  0  0  0  0  0  0
  160.6990  202.3870  148.2120 N   0  0  0  0  0  0  0  0  0  0  0  0
  160.8330  201.6910  146.9430 C   0  0  0  0  0  2  0  0  0  0  0  0
  161.2220  202.6650  145.8400 C   0  0  0  0  0  2  0  0  0  0  0  0
  161.4890  204.0600  146.4050 C   0  0  1  0  0  3  0  0  0  0  0  0
  162.7750  204.1170  146.9530 O   0  0  0  0  0  1  0  0  0  0  0  0
  162.4250  205.9890  145.3280 O   0  0  0  0  0  1  0  0  0  0  0  0
  161.2930  205.1720  145.3630 C   0  0  0  0  0  0  0  0  0  0  0  0
  161.1310  204.5840  144.1090 O   0  0  0  0  0  1  0  0  0  0  0  0
  160.1600  206.6410  146.8890 F   0  0  0  0  0  0  0  0  0  0  0  0
  160.0610  206.0250  145.6550 C   0  0  0  0  0  2  0  0  0  0  0  0
  161.3290  211.4410  150.1130 S   0  0  0  0  0  0  0  0  0  0  0  0
  159.9510  212.7730  152.4730 O   0  0  0  0  0  0  0  0  0  0  0  0
  161.2610  210.9560  151.8100 N   0  0  0  0  0  2  0  0  0  0  0  0
  160.5180  211.6910  152.7830 C   0  0  0  0  0  0  0  0  0  0  0  0
  160.3940  211.1660  154.1810 C   0  0  1  0  0  3  0  0  0  0  0  0
  161.6600  211.1460  154.7840 O   0  0  0  0  0  0  0  0  0  0  0  0
  162.8560  210.1140  156.5640 C   0  0  0  0  0  1  0  0  0  0  0  0
  161.6400  210.0540  155.6560 C   0  0  2  0  0  3  0  0  0  0  0  0
  161.6550  208.7650  154.8530 C   0  0  0  0  0  2  0  0  0  0  0  0
  161.0970  207.6240  155.6800 C   0  0  0  0  0  2  0  0  0  0  0  0
  159.7950  208.8260  157.2580 O   0  0  0  0  0  1  0  0  0  0  0  0
  159.7040  207.9760  156.1600 C   0  0  0  0  0  2  0  0  0  0  0  0
  159.4200  212.0260  155.0000 C   0  0  1  0  0  3  0  0  0  0  0  0
  156.2110  211.5750  156.6170 C   0  0  0  0  0  2  0  0  0  0  0  0
  157.1440  211.5860  154.4010 C   0  0  0  0  0  2  0  0  0  0  0  0
  157.7170  211.6030  156.6810 C   0  0  0  0  0  2  0  0  0  0  0  0
  158.2090  211.2620  155.3480 N   0  0  0  0  0  0  0  0  0  0  0  0
  155.8910  211.9150  155.1850 C   0  0  0  0  0  2  0  0  0  0  0  0
  160.1000  212.6600  156.2230 C   0  0  0  0  0  2  0  0  0  0  0  0
  159.7320  213.9890  156.3380 F   0  0  0  0  0  0  0  0  0  0  0  0
  2  1  1  0  0  0  0
  2  9  1  0  0  0  0
  3  2  2  0  0  0  0
  4 29  1  0  0  0  0
  4  1  2  0  0  0  0
  5  4  1  0  0  0  0
  6  5  2  0  0  0  0
  6  3  1  0  0  0  0
  7  8  1  0  0  0  0
  7 10  1  1  0  0  0
  8 10  1  1  0  0  0
  9 14  1  1  0  0  0
  9  8  1  0  0  0  0
 10 13  2  0  0  0  0
 11 12  1  0  0  0  0
 11  9  1  0  0  0  0
 12 15  1  1  0  0  0
 12  7  1  0  0  0  0
 16 15  1  0  0  0  0
 17 16  1  1  0  0  0
 18 17  1  0  0  0  0
 19 18  1  0  0  0  0
 19 17  1  0  0  0  0
 20 19  1  0  0  0  0
 21 22  1  0  0  0  0
 21 20  1  0  0  0  0
 22 23  1  6  0  0  0
 24 25  1  0  0  0  0
 25 28  1  0  0  0  0
 25 22  1  0  0  0  0
 26 25  1  0  0  0  0
 28 27  1  0  0  0  0
 29 31  1  0  0  0  0
 30 32  2  0  0  0  0
 31 32  1  0  0  0  0
 33 32  1  6  0  0  0
 33 34  1  0  0  0  0
 33 41  1  0  0  0  0
 34 36  1  0  0  0  0
 36 35  1  1  0  0  0
 37 36  1  0  0  0  0
 37 38  1  0  0  0  0
 38 40  1  0  0  0  0
 40 39  1  0  0  0  0
 41 45  1  0  0  0  0
 41 47  1  1  0  0  0
 42 44  1  0  0  0  0
 43 46  1  0  0  0  0
 43 45  1  0  0  0  0
 45 44  1  0  0  0  0
 46 42  1  0  0  0  0
 47 48  1  0  0  0  0
M  END
>  <MODEL>
5

>  <REMARK>
 VINA RESULT:      -4.3      2.624      4.873
  Name = 
  20 active torsions:
  status: ('A' for Active; 'I' for Inactive)
    1  A    between atoms: C_1  and  C_47
    2  A    between atoms: C_3  and  C_26
    3  A    between atoms: C_4  and  C_18
    4  A    between atoms: C_4  and  C_24
    5  A    between atoms: S_5  and  C_23
    6  A    between atoms: S_5  and  N_39
    7  A    between atoms: C_9  and  C_12
    8  A    between atoms: C_10  and  C_25
    9  A    between atoms: C_10  and  C_38
   10  A    between atoms: C_18  and  N_45
   11  A    between atoms: C_21  and  C_27
   12  A    between atoms: C_21  and  C_47
   13  A    between atoms: C_24  and  C_31
   14  A    between atoms: C_25  and  C_48
   15  A    between atoms: C_26  and  C_33
   16  A    between atoms: C_26  and  N_35
   17  A    between atoms: C_31  and  C_36
   18  A    between atoms: O_32  and  C_33
   19  A    between atoms: O_32  and  C_48
   20  A    between atoms: C_33  and  C_42
                            x       y       z     vdW  Elec       q    Type
                         _______ _______ _______ _____ _____    ______ ____

>  <TORSDO>
F 20

$$$$
=
 OpenBabel11072409573D

 48 52  0  0  1  0  0  0  0  0999 V2000
  161.5860  205.9880  151.3060 C   0  0  0  0  0  3  0  0  0  0  0  0
  161.3140  204.7480  151.9070 C   0  0  0  0  0  0  0  0  0  0  0  0
  160.8400  204.7490  153.2310 C   0  0  0  0  0  3  0  0  0  0  0  0
  161.3880  207.1740  152.0090 C   0  0  0  0  0  0  0  0  0  0  0  0
  160.9200  207.1200  153.3210 C   0  0  0  0  0  3  0  0  0  0  0  0
  160.6530  205.9180  153.8970 N   0  0  0  0  0  0  0  0  0  0  0  0
  159.9340  202.6330  149.6030 C   0  0  2  0  0  3  0  0  0  0  0  0
  160.2440  202.6890  151.0040 C   0  0  2  0  0  3  0  0  0  0  0  0
  161.5750  203.4340  151.1890 C   0  0  1  0  0  0  0  0  0  0  0  0
  160.4120  201.3440  150.2850 C   0  0  0  0  0  0  0  0  0  0  0  0
  162.1420  203.7010  149.8060 C   0  0  0  0  0  2  0  0  0  0  0  0
  161.0600  203.3130  148.8220 C   0  0  1  0  0  3  0  0  0  0  0  0
  160.7300  200.1660  150.2620 O   0  0  0  0  0  0  0  0  0  0  0  0
  162.5690  202.5570  151.9520 C   0  0  0  0  0  1  0  0  0  0  0  0
  161.6450  202.4110  147.7390 C   0  0  0  0  0  2  0  0  0  0  0  0
  160.5830  201.9820  146.7390 C   0  0  0  0  0  2  0  0  0  0  0  0
  160.8420  202.6150  145.3830 C   0  0  1  0  0  3  0  0  0  0  0  0
  159.6920  202.4030  144.5120 C   0  0  0  0  0  2  0  0  0  0  0  0
  159.8740  203.7020  145.1750 N   0  0  0  0  0  0  0  0  0  0  0  0
  160.4450  204.5970  144.1810 C   0  0  0  0  0  2  0  0  0  0  0  0
  160.9530  205.8710  144.8400 C   0  0  0  0  0  2  0  0  0  0  0  0
  161.5980  205.5710  146.1930 C   0  0  1  0  0  3  0  0  0  0  0  0
  162.9760  205.3820  146.0360 O   0  0  0  0  0  1  0  0  0  0  0  0
  160.8450  207.8110  146.6080 O   0  0  0  0  0  1  0  0  0  0  0  0
  161.3160  206.6590  147.2410 C   0  0  0  0  0  0  0  0  0  0  0  0
  160.3290  206.1960  148.1100 O   0  0  0  0  0  1  0  0  0  0  0  0
  162.7470  208.3690  148.1330 F   0  0  0  0  0  0  0  0  0  0  0  0
  162.5560  207.0020  148.0630 C   0  0  0  0  0  2  0  0  0  0  0  0
  161.7550  208.7490  151.2450 S   0  0  0  0  0  0  0  0  0  0  0  0
  162.3900  210.4720  153.6680 O   0  0  0  0  0  0  0  0  0  0  0  0
  160.6720  209.6090  152.3440 N   0  0  0  0  0  2  0  0  0  0  0  0
  161.1570  210.4160  153.4160 C   0  0  0  0  0  0  0  0  0  0  0  0
  160.1980  211.2210  154.2390 C   0  0  1  0  0  3  0  0  0  0  0  0
  158.8850  210.9170  153.8510 O   0  0  0  0  0  0  0  0  0  0  0  0
  156.8250  212.1090  153.8360 C   0  0  0  0  0  1  0  0  0  0  0  0
  158.3060  212.1410  153.5050 C   0  0  2  0  0  3  0  0  0  0  0  0
  158.5000  212.3900  152.0190 C   0  0  0  0  0  2  0  0  0  0  0  0
  159.3410  213.6310  151.8000 C   0  0  0  0  0  2  0  0  0  0  0  0
  159.4550  214.1980  149.4980 O   0  0  0  0  0  1  0  0  0  0  0  0
  158.7520  214.4530  150.6720 C   0  0  0  0  0  2  0  0  0  0  0  0
  160.3970  210.9390  155.7360 C   0  0  1  0  0  3  0  0  0  0  0  0
  158.8650  214.1670  156.3210 C   0  0  0  0  0  2  0  0  0  0  0  0
  158.8390  211.9480  157.2480 C   0  0  0  0  0  2  0  0  0  0  0  0
  159.9550  213.3280  155.7040 C   0  0  0  0  0  2  0  0  0  0  0  0
  160.1040  212.1380  156.5400 N   0  0  0  0  0  0  0  0  0  0  0  0
  157.9770  213.1720  157.0200 C   0  0  0  0  0  2  0  0  0  0  0  0
  159.6130  209.7010  156.1990 C   0  0  0  0  0  2  0  0  0  0  0  0
  160.4730  208.7750  156.7630 F   0  0  0  0  0  0  0  0  0  0  0  0
  1  2  2  0  0  0  0
  1  4  1  0  0  0  0
  2  3  1  0  0  0  0
  3  6  2  0  0  0  0
  4  5  2  0  0  0  0
  5  6  1  0  0  0  0
  7 10  1  6  0  0  0
  7  8  1  0  0  0  0
  8 10  1  6  0  0  0
  8  9  1  0  0  0  0
  9  2  1  0  0  0  0
  9 14  1  1  0  0  0
 11  9  1  0  0  0  0
 12 15  1  6  0  0  0
 12  7  1  0  0  0  0
 12 11  1  0  0  0  0
 13 10  2  0  0  0  0
 16 15  1  0  0  0  0
 17 16  1  1  0  0  0
 18 19  1  0  0  0  0
 18 17  1  0  0  0  0
 19 17  1  0  0  0  0
 20 21  1  0  0  0  0
 20 19  1  0  0  0  0
 21 22  1  0  0  0  0
 22 23  1  6  0  0  0
 22 25  1  0  0  0  0
 24 25  1  0  0  0  0
 25 28  1  0  0  0  0
 25 26  1  0  0  0  0
 28 27  1  0  0  0  0
 29  4  1  0  0  0  0
 29 31  1  0  0  0  0
 31 32  1  0  0  0  0
 32 30  2  0  0  0  0
 33 32  1  6  0  0  0
 33 41  1  0  0  0  0
 34 33  1  0  0  0  0
 36 35  1  6  0  0  0
 36 34  1  0  0  0  0
 37 36  1  0  0  0  0
 38 37  1  0  0  0  0
 39 40  1  0  0  0  0
 40 38  1  0  0  0  0
 41 47  1  1  0  0  0
 41 45  1  0  0  0  0
 42 46  1  0  0  0  0
 44 42  1  0  0  0  0
 44 45  1  0  0  0  0
 45 43  1  0  0  0  0
 46 43  1  0  0  0  0
 47 48  1  0  0  0  0
M  END
>  <MODEL>
6

>  <REMARK>
 VINA RESULT:      -3.6      2.743      4.033
  Name = 
  20 active torsions:
  status: ('A' for Active; 'I' for Inactive)
    1  A    between atoms: C_1  and  C_47
    2  A    between atoms: C_3  and  C_26
    3  A    between atoms: C_4  and  C_18
    4  A    between atoms: C_4  and  C_24
    5  A    between atoms: S_5  and  C_23
    6  A    between atoms: S_5  and  N_39
    7  A    between atoms: C_9  and  C_12
    8  A    between atoms: C_10  and  C_25
    9  A    between atoms: C_10  and  C_38
   10  A    between atoms: C_18  and  N_45
   11  A    between atoms: C_21  and  C_27
   12  A    between atoms: C_21  and  C_47
   13  A    between atoms: C_24  and  C_31
   14  A    between atoms: C_25  and  C_48
   15  A    between atoms: C_26  and  C_33
   16  A    between atoms: C_26  and  N_35
   17  A    between atoms: C_31  and  C_36
   18  A    between atoms: O_32  and  C_33
   19  A    between atoms: O_32  and  C_48
   20  A    between atoms: C_33  and  C_42
                            x       y       z     vdW  Elec       q    Type
                         _______ _______ _______ _____ _____    ______ ____

>  <TORSDO>
F 20

$$$$
=
 OpenBabel11072409573D

 48 52  0  0  1  0  0  0  0  0999 V2000
  161.2200  205.5200  150.8760 C   0  0  0  0  0  3  0  0  0  0  0  0
  161.0720  204.4220  151.7380 C   0  0  0  0  0  0  0  0  0  0  0  0
  161.3420  204.6170  153.1040 C   0  0  0  0  0  3  0  0  0  0  0  0
  161.6240  206.7580  151.3700 C   0  0  0  0  0  0  0  0  0  0  0  0
  161.8830  206.8980  152.7330 C   0  0  0  0  0  3  0  0  0  0  0  0
  161.7320  205.8340  153.5640 N   0  0  0  0  0  0  0  0  0  0  0  0
  160.1310  202.7910  148.8840 C   0  0  2  0  0  3  0  0  0  0  0  0
  159.5960  203.1890  150.1560 C   0  0  2  0  0  3  0  0  0  0  0  0
  160.6910  203.0430  151.2240 C   0  0  1  0  0  0  0  0  0  0  0  0
  159.1470  201.8400  149.5780 C   0  0  0  0  0  0  0  0  0  0  0  0
  161.8880  202.3870  150.5600 C   0  0  0  0  0  2  0  0  0  0  0  0
  161.5820  202.3460  149.0790 C   0  0  1  0  0  3  0  0  0  0  0  0
  158.5250  200.7930  149.6440 O   0  0  0  0  0  0  0  0  0  0  0  0
  160.2090  202.1290  152.3520 C   0  0  0  0  0  1  0  0  0  0  0  0
  161.8390  200.9440  148.5360 C   0  0  0  0  0  2  0  0  0  0  0  0
  160.8710  200.5940  147.4160 C   0  0  0  0  0  2  0  0  0  0  0  0
  161.2480  201.3230  146.1390 C   0  0  1  0  0  3  0  0  0  0  0  0
  160.3260  200.9550  145.0710 C   0  0  0  0  0  2  0  0  0  0  0  0
  160.1540  202.2350  145.7730 N   0  0  0  0  0  0  0  0  0  0  0  0
  160.7220  203.2590  144.9110 C   0  0  0  0  0  2  0  0  0  0  0  0
  161.9490  203.8820  145.5610 C   0  0  0  0  0  2  0  0  0  0  0  0
  161.8970  205.4080  145.4870 C   0  0  1  0  0  3  0  0  0  0  0  0
  160.8780  205.8100  144.6160 O   0  0  0  0  0  1  0  0  0  0  0  0
  162.0660  205.1530  147.8670 O   0  0  0  0  0  1  0  0  0  0  0  0
  161.7250  206.0650  146.8650 C   0  0  0  0  0  0  0  0  0  0  0  0
  162.5860  207.1580  146.9480 O   0  0  0  0  0  1  0  0  0  0  0  0
  159.8330  206.1840  148.3400 F   0  0  0  0  0  0  0  0  0  0  0  0
  160.2990  206.5590  147.0940 C   0  0  0  0  0  2  0  0  0  0  0  0
  161.8310  208.1480  150.2630 S   0  0  0  0  0  0  0  0  0  0  0  0
  162.8180  210.3500  152.1120 O   0  0  0  0  0  0  0  0  0  0  0  0
  160.9270  209.2210  151.3360 N   0  0  0  0  0  2  0  0  0  0  0  0
  161.5630  210.2400  152.1080 C   0  0  0  0  0  0  0  0  0  0  0  0
  160.7340  211.2010  152.9050 C   0  0  1  0  0  3  0  0  0  0  0  0
  159.6050  211.5700  152.1590 O   0  0  0  0  0  0  0  0  0  0  0  0
  158.5060  213.6740  152.3290 C   0  0  0  0  0  1  0  0  0  0  0  0
  159.7600  212.9350  151.8990 C   0  0  2  0  0  3  0  0  0  0  0  0
  160.0000  213.1410  150.4130 C   0  0  0  0  0  2  0  0  0  0  0  0
  159.3460  214.4270  149.9490 C   0  0  0  0  0  2  0  0  0  0  0  0
  160.5710  214.4020  147.9160 O   0  0  0  0  0  1  0  0  0  0  0  0
  159.2800  214.4480  148.4360 C   0  0  0  0  0  2  0  0  0  0  0  0
  160.3150  210.5750  154.2440 C   0  0  1  0  0  3  0  0  0  0  0  0
  162.6360  209.7670  156.9030 C   0  0  0  0  0  2  0  0  0  0  0  0
  160.8950  208.7090  155.6260 C   0  0  0  0  0  2  0  0  0  0  0  0
  162.2160  210.6500  155.7550 C   0  0  0  0  0  2  0  0  0  0  0  0
  161.4300  209.8210  154.8440 N   0  0  0  0  0  0  0  0  0  0  0  0
  161.5530  208.7250  156.9900 C   0  0  0  0  0  2  0  0  0  0  0  0
  159.7120  211.6150  155.2010 C   0  0  0  0  0  2  0  0  0  0  0  0
  158.8480  211.0010  156.0900 F   0  0  0  0  0  0  0  0  0  0  0  0
  1  4  2  0  0  0  0
  1  2  1  0  0  0  0
  2  3  2  0  0  0  0
  3  6  1  0  0  0  0
  4  5  1  0  0  0  0
  5  6  2  0  0  0  0
  7 12  1  0  0  0  0
  7 10  1  1  0  0  0
  7  8  1  0  0  0  0
  8 10  1  1  0  0  0
  8  9  1  0  0  0  0
  9  2  1  0  0  0  0
  9 14  1  1  0  0  0
 10 13  2  0  0  0  0
 11  9  1  0  0  0  0
 12 15  1  1  0  0  0
 12 11  1  0  0  0  0
 16 15  1  0  0  0  0
 17 16  1  1  0  0  0
 18 19  1  0  0  0  0
 18 17  1  0  0  0  0
 19 17  1  0  0  0  0
 20 21  1  0  0  0  0
 20 19  1  0  0  0  0
 22 23  1  6  0  0  0
 22 21  1  0  0  0  0
 22 25  1  0  0  0  0
 25 26  1  0  0  0  0
 25 28  1  0  0  0  0
 25 24  1  0  0  0  0
 28 27  1  0  0  0  0
 29 31  1  0  0  0  0
 29  4  1  0  0  0  0
 31 32  1  0  0  0  0
 32 30  2  0  0  0  0
 33 32  1  6  0  0  0
 33 41  1  0  0  0  0
 34 33  1  0  0  0  0
 36 34  1  0  0  0  0
 36 35  1  6  0  0  0
 37 36  1  0  0  0  0
 38 37  1  0  0  0  0
 39 40  1  0  0  0  0
 40 38  1  0  0  0  0
 41 45  1  0  0  0  0
 41 47  1  1  0  0  0
 42 46  1  0  0  0  0
 43 46  1  0  0  0  0
 44 42  1  0  0  0  0
 45 43  1  0  0  0  0
 45 44  1  0  0  0  0
 47 48  1  0  0  0  0
M  END
>  <MODEL>
7

>  <REMARK>
 VINA RESULT:      -3.4      2.652      4.261
  Name = 
  20 active torsions:
  status: ('A' for Active; 'I' for Inactive)
    1  A    between atoms: C_1  and  C_47
    2  A    between atoms: C_3  and  C_26
    3  A    between atoms: C_4  and  C_18
    4  A    between atoms: C_4  and  C_24
    5  A    between atoms: S_5  and  C_23
    6  A    between atoms: S_5  and  N_39
    7  A    between atoms: C_9  and  C_12
    8  A    between atoms: C_10  and  C_25
    9  A    between atoms: C_10  and  C_38
   10  A    between atoms: C_18  and  N_45
   11  A    between atoms: C_21  and  C_27
   12  A    between atoms: C_21  and  C_47
   13  A    between atoms: C_24  and  C_31
   14  A    between atoms: C_25  and  C_48
   15  A    between atoms: C_26  and  C_33
   16  A    between atoms: C_26  and  N_35
   17  A    between atoms: C_31  and  C_36
   18  A    between atoms: O_32  and  C_33
   19  A    between atoms: O_32  and  C_48
   20  A    between atoms: C_33  and  C_42
                            x       y       z     vdW  Elec       q    Type
                         _______ _______ _______ _____ _____    ______ ____

>  <TORSDO>
F 20

$$$$
=
 OpenBabel11072409573D

 48 52  0  0  1  0  0  0  0  0999 V2000
  160.0420  208.9250  154.1790 C   0  0  0  0  0  3  0  0  0  0  0  0
  160.0560  210.3070  154.4240 C   0  0  0  0  0  0  0  0  0  0  0  0
  160.9840  210.8000  155.3590 C   0  0  0  0  0  3  0  0  0  0  0  0
  160.9240  208.0780  154.8460 C   0  0  0  0  0  0  0  0  0  0  0  0
  161.8220  208.6170  155.7660 C   0  0  0  0  0  3  0  0  0  0  0  0
  161.8360  209.9550  155.9970 N   0  0  0  0  0  0  0  0  0  0  0  0
  159.8270  213.4510  153.0990 C   0  0  2  0  0  3  0  0  0  0  0  0
  159.3540  212.6880  154.2200 C   0  0  2  0  0  3  0  0  0  0  0  0
  159.0680  211.2510  153.7580 C   0  0  1  0  0  0  0  0  0  0  0  0
  158.3990  213.7140  153.5940 C   0  0  0  0  0  0  0  0  0  0  0  0
  159.2500  211.2140  152.2510 C   0  0  0  0  0  2  0  0  0  0  0  0
  159.8420  212.5510  151.8620 C   0  0  1  0  0  3  0  0  0  0  0  0
  157.3180  214.2730  153.5180 O   0  0  0  0  0  0  0  0  0  0  0  0
  157.6200  210.8740  154.0740 C   0  0  0  0  0  1  0  0  0  0  0  0
  159.0550  213.1470  150.6990 C   0  0  0  0  0  2  0  0  0  0  0  0
  159.9540  213.4250  149.5040 C   0  0  0  0  0  2  0  0  0  0  0  0
  159.1300  213.5430  148.2330 C   0  0  1  0  0  3  0  0  0  0  0  0
  159.8240  214.3930  147.2740 C   0  0  0  0  0  2  0  0  0  0  0  0
  159.8790  212.9320  147.1260 N   0  0  0  0  0  0  0  0  0  0  0  0
  158.9110  212.5840  146.0970 C   0  0  0  0  0  2  0  0  0  0  0  0
  159.6200  212.2030  144.8060 C   0  0  0  0  0  2  0  0  0  0  0  0
  159.8810  213.4330  143.9370 C   0  0  1  0  0  3  0  0  0  0  0  0
  161.0540  214.0730  144.3540 O   0  0  0  0  0  1  0  0  0  0  0  0
  158.6620  213.1200  141.8940 O   0  0  0  0  0  1  0  0  0  0  0  0
  159.9480  213.1000  142.4390 C   0  0  0  0  0  0  0  0  0  0  0  0
  160.7160  214.0730  141.7990 O   0  0  0  0  0  1  0  0  0  0  0  0
  161.8870  211.8720  141.7290 F   0  0  0  0  0  0  0  0  0  0  0  0
  160.5870  211.7380  142.1790 C   0  0  0  0  0  2  0  0  0  0  0  0
  160.8870  206.3160  154.5440 S   0  0  0  0  0  0  0  0  0  0  0  0
  161.7930  204.4250  152.3420 O   0  0  0  0  0  0  0  0  0  0  0  0
  160.9330  206.5490  152.7940 N   0  0  0  0  0  2  0  0  0  0  0  0
  161.3530  205.5190  151.8980 C   0  0  0  0  0  0  0  0  0  0  0  0
  161.2540  205.7290  150.4180 C   0  0  1  0  0  3  0  0  0  0  0  0
  162.0530  206.8210  150.0500 O   0  0  0  0  0  0  0  0  0  0  0  0
  161.7180  208.1930  148.1340 C   0  0  0  0  0  1  0  0  0  0  0  0
  161.1780  207.7510  149.4820 C   0  0  2  0  0  3  0  0  0  0  0  0
  161.0440  208.9490  150.4070 C   0  0  0  0  0  2  0  0  0  0  0  0
  162.0300  210.0290  150.0120 C   0  0  0  0  0  2  0  0  0  0  0  0
  162.9100  209.7370  152.1970 O   0  0  0  0  0  1  0  0  0  0  0  0
  162.5720  210.7050  151.2550 C   0  0  0  0  0  2  0  0  0  0  0  0
  161.6850  204.4650  149.6600 C   0  0  1  0  0  3  0  0  0  0  0  0
  160.1550  201.3520  148.6200 C   0  0  0  0  0  2  0  0  0  0  0  0
  160.6150  202.5630  150.6460 C   0  0  0  0  0  2  0  0  0  0  0  0
  160.6370  202.7440  148.3010 C   0  0  0  0  0  2  0  0  0  0  0  0
  160.5630  203.5170  149.5390 N   0  0  0  0  0  0  0  0  0  0  0  0
  160.4860  201.1660  150.0780 C   0  0  0  0  0  2  0  0  0  0  0  0
  162.3350  204.7980  148.3080 C   0  0  0  0  0  2  0  0  0  0  0  0
  161.3600  204.9940  147.3450 F   0  0  0  0  0  0  0  0  0  0  0  0
  1  2  2  0  0  0  0
  1  4  1  0  0  0  0
  2  3  1  0  0  0  0
  3  6  2  0  0  0  0
  4  5  2  0  0  0  0
  5  6  1  0  0  0  0
  7 10  1  6  0  0  0
  7  8  1  0  0  0  0
  8 10  1  6  0  0  0
  9 14  1  1  0  0  0
  9  8  1  0  0  0  0
  9  2  1  0  0  0  0
 11  9  1  0  0  0  0
 12 15  1  6  0  0  0
 12 11  1  0  0  0  0
 12  7  1  0  0  0  0
 13 10  2  0  0  0  0
 16 15  1  0  0  0  0
 17 16  1  1  0  0  0
 18 17  1  0  0  0  0
 19 18  1  0  0  0  0
 19 17  1  0  0  0  0
 20 19  1  0  0  0  0
 21 20  1  0  0  0  0
 22 23  1  1  0  0  0
 22 21  1  0  0  0  0
 24 25  1  0  0  0  0
 25 22  1  0  0  0  0
 26 25  1  0  0  0  0
 27 28  1  0  0  0  0
 28 25  1  0  0  0  0
 29  4  1  0  0  0  0
 31 29  1  0  0  0  0
 32 30  2  0  0  0  0
 32 31  1  0  0  0  0
 33 34  1  6  0  0  0
 33 32  1  0  0  0  0
 36 35  1  6  0  0  0
 36 34  1  0  0  0  0
 36 37  1  0  0  0  0
 38 37  1  0  0  0  0
 38 40  1  0  0  0  0
 40 39  1  0  0  0  0
 41 47  1  6  0  0  0
 41 33  1  0  0  0  0
 42 46  1  0  0  0  0
 44 42  1  0  0  0  0
 44 45  1  0  0  0  0
 45 41  1  0  0  0  0
 45 43  1  0  0  0  0
 46 43  1  0  0  0  0
 48 47  1  0  0  0  0
M  END
>  <MODEL>
8

>  <REMARK>
 VINA RESULT:      -3.3      3.722      9.112
  Name = 
  20 active torsions:
  status: ('A' for Active; 'I' for Inactive)
    1  A    between atoms: C_1  and  C_47
    2  A    between atoms: C_3  and  C_26
    3  A    between atoms: C_4  and  C_18
    4  A    between atoms: C_4  and  C_24
    5  A    between atoms: S_5  and  C_23
    6  A    between atoms: S_5  and  N_39
    7  A    between atoms: C_9  and  C_12
    8  A    between atoms: C_10  and  C_25
    9  A    between atoms: C_10  and  C_38
   10  A    between atoms: C_18  and  N_45
   11  A    between atoms: C_21  and  C_27
   12  A    between atoms: C_21  and  C_47
   13  A    between atoms: C_24  and  C_31
   14  A    between atoms: C_25  and  C_48
   15  A    between atoms: C_26  and  C_33
   16  A    between atoms: C_26  and  N_35
   17  A    between atoms: C_31  and  C_36
   18  A    between atoms: O_32  and  C_33
   19  A    between atoms: O_32  and  C_48
   20  A    between atoms: C_33  and  C_42
                            x       y       z     vdW  Elec       q    Type
                         _______ _______ _______ _____ _____    ______ ____

>  <TORSDO>
F 20

$$$$
=
 OpenBabel11072409573D

 48 52  0  0  1  0  0  0  0  0999 V2000
  161.2300  208.7250  153.6770 C   0  0  0  0  0  3  0  0  0  0  0  0
  161.3390  207.7530  152.6690 C   0  0  0  0  0  0  0  0  0  0  0  0
  161.4670  206.4100  153.0620 C   0  0  0  0  0  3  0  0  0  0  0  0
  161.2490  208.3570  155.0200 C   0  0  0  0  0  0  0  0  0  0  0  0
  161.3810  207.0100  155.3560 C   0  0  0  0  0  3  0  0  0  0  0  0
  161.4810  206.0730  154.3780 N   0  0  0  0  0  0  0  0  0  0  0  0
  162.5290  206.6550  149.6580 C   0  0  2  0  0  3  0  0  0  0  0  0
  162.7380  207.7090  150.6090 C   0  0  2  0  0  3  0  0  0  0  0  0
  161.3820  208.1270  151.1960 C   0  0  1  0  0  0  0  0  0  0  0  0
  162.8710  208.0500  149.1190 C   0  0  0  0  0  0  0  0  0  0  0  0
  160.3070  207.3700  150.4370 C   0  0  0  0  0  2  0  0  0  0  0  0
  161.0290  206.3640  149.5680 C   0  0  1  0  0  3  0  0  0  0  0  0
  163.0560  208.8370  148.2060 O   0  0  0  0  0  0  0  0  0  0  0  0
  161.1530  209.6240  150.9820 C   0  0  0  0  0  1  0  0  0  0  0  0
  160.5050  206.4450  148.1370 C   0  0  0  0  0  2  0  0  0  0  0  0
  161.6290  206.2900  147.1230 C   0  0  0  0  0  2  0  0  0  0  0  0
  161.4570  205.0070  146.3300 C   0  0  1  0  0  3  0  0  0  0  0  0
  162.7420  204.3300  146.2040 C   0  0  0  0  0  2  0  0  0  0  0  0
  161.7680  203.8660  147.2020 N   0  0  0  0  0  0  0  0  0  0  0  0
  161.1130  202.7000  146.6300 C   0  0  0  0  0  2  0  0  0  0  0  0
  161.0620  201.5660  147.6440 C   0  0  0  0  0  2  0  0  0  0  0  0
  160.0490  201.8610  148.7490 C   0  0  1  0  0  3  0  0  0  0  0  0
  158.9990  200.9370  148.6960 O   0  0  0  0  0  1  0  0  0  0  0  0
  159.8980  201.1390  151.0330 O   0  0  0  0  0  1  0  0  0  0  0  0
  160.6840  201.8810  150.1480 C   0  0  0  0  0  0  0  0  0  0  0  0
  161.9450  201.2920  150.0740 O   0  0  0  0  0  1  0  0  0  0  0  0
  161.4930  203.3030  151.9080 F   0  0  0  0  0  0  0  0  0  0  0  0
  160.8480  203.3010  150.6850 C   0  0  0  0  0  2  0  0  0  0  0  0
  161.1310  209.6000  156.2990 S   0  0  0  0  0  0  0  0  0  0  0  0
  158.5380  211.0080  157.0340 O   0  0  0  0  0  0  0  0  0  0  0  0
  160.0650  210.6070  155.3140 N   0  0  0  0  0  2  0  0  0  0  0  0
  158.8970  211.2300  155.8470 C   0  0  0  0  0  0  0  0  0  0  0  0
  158.0990  212.1720  154.9990 C   0  0  1  0  0  3  0  0  0  0  0  0
  157.0960  212.7650  155.7800 O   0  0  0  0  0  0  0  0  0  0  0  0
  155.0160  213.8290  155.3290 C   0  0  0  0  0  1  0  0  0  0  0  0
  155.9220  212.6480  155.0310 C   0  0  2  0  0  3  0  0  0  0  0  0
  155.2190  211.3510  155.3940 C   0  0  0  0  0  2  0  0  0  0  0  0
  154.9750  211.2860  156.8880 C   0  0  0  0  0  2  0  0  0  0  0  0
  153.8740  209.2640  156.3100 O   0  0  0  0  0  1  0  0  0  0  0  0
  153.8160  210.3530  157.1760 C   0  0  0  0  0  2  0  0  0  0  0  0
  159.0050  213.2460  154.3780 C   0  0  1  0  0  3  0  0  0  0  0  0
  159.4400  214.0480  150.8740 C   0  0  0  0  0  2  0  0  0  0  0  0
  158.3100  212.4230  152.2390 C   0  0  0  0  0  2  0  0  0  0  0  0
  159.5030  214.4480  152.3260 C   0  0  0  0  0  2  0  0  0  0  0  0
  158.5250  213.6280  153.0380 N   0  0  0  0  0  0  0  0  0  0  0  0
  158.9920  212.6110  150.9000 C   0  0  0  0  0  2  0  0  0  0  0  0
  159.1950  214.4500  155.3120 C   0  0  0  0  0  2  0  0  0  0  0  0
  160.2390  214.2140  156.1890 F   0  0  0  0  0  0  0  0  0  0  0  0
  1  4  1  0  0  0  0
  2  3  1  0  0  0  0
  2  1  2  0  0  0  0
  3  6  2  0  0  0  0
  4  5  2  0  0  0  0
  4 29  1  0  0  0  0
  6  5  1  0  0  0  0
  7 10  1  6  0  0  0
  7  8  1  0  0  0  0
  8 10  1  6  0  0  0
  8  9  1  0  0  0  0
  9 14  1  6  0  0  0
  9  2  1  0  0  0  0
 11  9  1  0  0  0  0
 12 15  1  6  0  0  0
 12  7  1  0  0  0  0
 12 11  1  0  0  0  0
 13 10  2  0  0  0  0
 16 15  1  0  0  0  0
 17 16  1  1  0  0  0
 17 19  1  0  0  0  0
 18 17  1  0  0  0  0
 18 19  1  0  0  0  0
 20 19  1  0  0  0  0
 20 21  1  0  0  0  0
 21 22  1  0  0  0  0
 22 23  1  1  0  0  0
 22 25  1  0  0  0  0
 25 28  1  0  0  0  0
 25 24  1  0  0  0  0
 26 25  1  0  0  0  0
 28 27  1  0  0  0  0
 31 32  1  0  0  0  0
 31 29  1  0  0  0  0
 32 30  2  0  0  0  0
 33 34  1  1  0  0  0
 33 32  1  0  0  0  0
 36 35  1  1  0  0  0
 36 37  1  0  0  0  0
 36 34  1  0  0  0  0
 37 38  1  0  0  0  0
 38 40  1  0  0  0  0
 39 40  1  0  0  0  0
 41 33  1  0  0  0  0
 41 47  1  1  0  0  0
 42 46  1  0  0  0  0
 42 44  1  0  0  0  0
 43 45  1  0  0  0  0
 44 45  1  0  0  0  0
 45 41  1  0  0  0  0
 46 43  1  0  0  0  0
 47 48  1  0  0  0  0
M  END
>  <MODEL>
9

>  <REMARK>
 VINA RESULT:      -3.2      2.335      4.604
  Name = 
  20 active torsions:
  status: ('A' for Active; 'I' for Inactive)
    1  A    between atoms: C_1  and  C_47
    2  A    between atoms: C_3  and  C_26
    3  A    between atoms: C_4  and  C_18
    4  A    between atoms: C_4  and  C_24
    5  A    between atoms: S_5  and  C_23
    6  A    between atoms: S_5  and  N_39
    7  A    between atoms: C_9  and  C_12
    8  A    between atoms: C_10  and  C_25
    9  A    between atoms: C_10  and  C_38
   10  A    between atoms: C_18  and  N_45
   11  A    between atoms: C_21  and  C_27
   12  A    between atoms: C_21  and  C_47
   13  A    between atoms: C_24  and  C_31
   14  A    between atoms: C_25  and  C_48
   15  A    between atoms: C_26  and  C_33
   16  A    between atoms: C_26  and  N_35
   17  A    between atoms: C_31  and  C_36
   18  A    between atoms: O_32  and  C_33
   19  A    between atoms: O_32  and  C_48
   20  A    between atoms: C_33  and  C_42
                            x       y       z     vdW  Elec       q    Type
                         _______ _______ _______ _____ _____    ______ ____

>  <TORSDO>
F 20

$$$$
