=
 OpenBabel11072410193D

 33 35  0  0  1  0  0  0  0  0999 V2000
  160.9710  206.5460  153.8090 C   0  0  0  0  0  3  0  0  0  0  0  0
  160.9290  208.9720  153.8760 C   0  0  0  0  0  0  0  0  0  0  0  0
  160.8460  207.7350  154.5330 C   0  0  0  0  0  3  0  0  0  0  0  0
  161.1210  209.0070  152.4930 C   0  0  0  0  0  3  0  0  0  0  0  0
  161.2430  207.8200  151.7640 C   0  0  0  0  0  0  0  0  0  0  0  0
  161.1670  206.5870  152.4260 C   0  0  0  0  0  3  0  0  0  0  0  0
  160.7520  210.2600  154.6160 C   0  0  2  0  0  3  0  0  0  0  0  0
  161.8240  210.5010  155.4810 O   0  0  0  0  0  1  0  0  0  0  0  0
  159.5590  210.5940  156.8380 C   0  0  0  0  0  1  0  0  0  0  0  0
  159.4090  210.3130  155.3490 C   0  0  1  0  0  3  0  0  0  0  0  0
  157.7530  212.9820  153.6430 C   0  0  0  0  0  0  0  0  0  0  0  0
  158.5250  211.2880  154.7250 N   0  0  0  0  0  0  0  0  0  0  0  0
  157.2070  211.3130  154.8590 N   0  0  0  0  0  0  0  0  0  0  0  0
  156.7050  212.3420  154.1960 N   0  0  0  0  0  0  0  0  0  0  0  0
  158.9220  212.3240  153.9680 C   0  0  0  0  0  3  0  0  0  0  0  0
  157.6370  214.1880  152.7770 C   0  0  0  0  0  2  0  0  0  0  0  0
  157.7480  213.1990  150.4900 O   0  0  0  0  0  0  0  0  0  0  0  0
  159.4890  214.4490  151.3040 O   0  0  0  0  0  1  0  0  0  0  0  0
  158.3420  213.9650  151.4840 C   0  0  0  0  0  0  0  0  0  0  0  0
  161.4070  207.9000  150.2750 C   0  0  1  0  0  3  0  0  0  0  0  0
  161.9000  209.1950  149.8640 N   0  0  0  0  0  0  0  0  0  0  0  0
  162.1050  209.4580  148.6630 N   0  0  0  0  0  2  0  0  0  0  0  0
  162.2740  206.8380  149.7730 N   0  0  0  0  0  2  0  0  0  0  0  0
  160.0490  206.5210  148.3780 O   0  0  0  0  0  0  0  0  0  0  0  0
  161.4030  205.9060  148.5950 S   0  0  0  0  0  0  0  0  0  0  0  0
  162.1510  205.9230  147.2900 O   0  0  0  0  0  0  0  0  0  0  0  0
  160.8570  201.6030  149.9920 C   0  0  0  0  0  3  0  0  0  0  0  0
  160.8110  202.3630  152.2520 F   0  0  0  0  0  0  0  0  0  0  0  0
  160.9170  202.6390  150.9290 C   0  0  0  0  0  0  0  0  0  0  0  0
  161.1400  203.2080  148.2000 C   0  0  0  0  0  3  0  0  0  0  0  0
  161.2040  204.2460  149.1370 C   0  0  0  0  0  0  0  0  0  0  0  0
  161.0890  203.9600  150.5020 C   0  0  0  0  0  3  0  0  0  0  0  0
  160.9680  201.8870  148.6280 C   0  0  0  0  0  3  0  0  0  0  0  0
  1  3  1  0  0  0  0
  2  3  2  0  0  0  0
  2  7  1  0  0  0  0
  4  2  1  0  0  0  0
  5  6  1  0  0  0  0
  5  4  2  0  0  0  0
  6  1  2  0  0  0  0
  7 10  1  0  0  0  0
  7  8  1  1  0  0  0
 10  9  1  1  0  0  0
 11 15  2  0  0  0  0
 11 14  1  0  0  0  0
 12 13  1  0  0  0  0
 12 10  1  0  0  0  0
 14 13  2  0  0  0  0
 15 12  1  0  0  0  0
 16 11  1  0  0  0  0
 17 19  2  0  0  0  0
 18 19  1  0  0  0  0
 19 16  1  0  0  0  0
 20 23  1  1  0  0  0
 20  5  1  0  0  0  0
 21 20  1  0  0  0  0
 22 21  2  0  0  0  0
 24 25  2  0  0  0  0
 25 31  1  0  0  0  0
 25 23  1  0  0  0  0
 26 25  2  0  0  0  0
 27 29  1  0  0  0  0
 29 28  1  0  0  0  0
 30 33  1  0  0  0  0
 30 31  2  0  0  0  0
 31 32  1  0  0  0  0
 32 29  2  0  0  0  0
 33 27  2  0  0  0  0
M  END
>  <MODEL>
1

>  <REMARK>
 VINA RESULT:      -8.2      0.000      0.000
  Name = 
  10 active torsions:
  status: ('A' for Active; 'I' for Inactive)
    1  A    between atoms: C_2  and  C_18
    2  A    between atoms: N_4  and  C_15
    3  A    between atoms: C_6  and  C_20
    4  A    between atoms: N_10  and  C_26
    5  A    between atoms: C_15  and  C_27
    6  A    between atoms: C_15  and  N_30
    7  A    between atoms: S_17  and  C_21
    8  A    between atoms: S_17  and  N_30
    9  A    between atoms: C_18  and  C_33
   10  A    between atoms: C_20  and  C_26
                            x       y       z     vdW  Elec       q    Type
                         _______ _______ _______ _____ _____    ______ ____

>  <TORSDO>
F 10

$$$$
=
 OpenBabel11072410193D

 33 35  0  0  1  0  0  0  0  0999 V2000
  161.2560  205.9120  153.2310 C   0  0  0  0  0  3  0  0  0  0  0  0
  161.1920  208.3350  153.3620 C   0  0  0  0  0  0  0  0  0  0  0  0
  161.2030  207.0830  153.9940 C   0  0  0  0  0  3  0  0  0  0  0  0
  161.2180  208.4050  151.9680 C   0  0  0  0  0  3  0  0  0  0  0  0
  161.2680  207.2370  151.2000 C   0  0  0  0  0  0  0  0  0  0  0  0
  161.2860  205.9880  151.8360 C   0  0  0  0  0  3  0  0  0  0  0  0
  161.0870  209.6040  154.1490 C   0  0  2  0  0  3  0  0  0  0  0  0
  161.6160  209.4490  155.4340 O   0  0  0  0  0  1  0  0  0  0  0  0
  159.1980  210.5160  155.5900 C   0  0  0  0  0  1  0  0  0  0  0  0
  159.6490  210.1290  154.1880 C   0  0  1  0  0  3  0  0  0  0  0  0
  158.6600  212.7660  151.9860 C   0  0  0  0  0  0  0  0  0  0  0  0
  159.4900  211.2470  153.2660 N   0  0  0  0  0  0  0  0  0  0  0  0
  160.4810  211.8620  152.6400 N   0  0  0  0  0  0  0  0  0  0  0  0
  159.9990  212.8080  151.8510 N   0  0  0  0  0  0  0  0  0  0  0  0
  158.3150  211.7780  152.8860 C   0  0  0  0  0  3  0  0  0  0  0  0
  157.7180  213.6900  151.2940 C   0  0  0  0  0  2  0  0  0  0  0  0
  158.8260  213.9780  149.0780 O   0  0  0  0  0  0  0  0  0  0  0  0
  156.8350  212.8530  149.2470 O   0  0  0  0  0  1  0  0  0  0  0  0
  157.7680  213.4720  149.8210 C   0  0  0  0  0  0  0  0  0  0  0  0
  161.2520  207.3540  149.7040 C   0  0  1  0  0  3  0  0  0  0  0  0
  161.4250  208.7230  149.2770 N   0  0  0  0  0  0  0  0  0  0  0  0
  162.4390  209.0820  148.6480 N   0  0  0  0  0  2  0  0  0  0  0  0
  162.2590  206.4930  149.0890 N   0  0  0  0  0  2  0  0  0  0  0  0
  160.1860  206.1550  147.4810 O   0  0  0  0  0  0  0  0  0  0  0  0
  161.5050  205.5370  147.8510 S   0  0  0  0  0  0  0  0  0  0  0  0
  162.3830  205.5150  146.6310 O   0  0  0  0  0  0  0  0  0  0  0  0
  160.8330  201.2740  149.3170 C   0  0  0  0  0  3  0  0  0  0  0  0
  161.3020  200.4670  147.1230 F   0  0  0  0  0  0  0  0  0  0  0  0
  161.1710  201.5080  147.9800 C   0  0  0  0  0  0  0  0  0  0  0  0
  160.9000  203.6570  149.7490 C   0  0  0  0  0  3  0  0  0  0  0  0
  161.2360  203.8930  148.4110 C   0  0  0  0  0  0  0  0  0  0  0  0
  161.3730  202.8160  147.5280 C   0  0  0  0  0  3  0  0  0  0  0  0
  160.6980  202.3490  150.2010 C   0  0  0  0  0  3  0  0  0  0  0  0
  1  3  1  0  0  0  0
  2  3  2  0  0  0  0
  2  7  1  0  0  0  0
  4  2  1  0  0  0  0
  5  6  1  0  0  0  0
  5  4  2  0  0  0  0
  6  1  2  0  0  0  0
  7 10  1  0  0  0  0
  7  8  1  1  0  0  0
 10  9  1  1  0  0  0
 11 15  2  0  0  0  0
 12 10  1  0  0  0  0
 13 12  1  0  0  0  0
 14 11  1  0  0  0  0
 14 13  2  0  0  0  0
 15 12  1  0  0  0  0
 16 11  1  0  0  0  0
 17 19  2  0  0  0  0
 18 19  1  0  0  0  0
 19 16  1  0  0  0  0
 20 23  1  6  0  0  0
 20  5  1  0  0  0  0
 21 20  1  0  0  0  0
 22 21  2  0  0  0  0
 24 25  2  0  0  0  0
 25 31  1  0  0  0  0
 25 23  1  0  0  0  0
 26 25  2  0  0  0  0
 27 33  1  0  0  0  0
 28 29  1  0  0  0  0
 29 27  2  0  0  0  0
 30 33  2  0  0  0  0
 31 30  1  0  0  0  0
 32 29  1  0  0  0  0
 32 31  2  0  0  0  0
M  END
>  <MODEL>
2

>  <REMARK>
 VINA RESULT:      -8.0      1.589      2.026
  Name = 
  10 active torsions:
  status: ('A' for Active; 'I' for Inactive)
    1  A    between atoms: C_2  and  C_18
    2  A    between atoms: N_4  and  C_15
    3  A    between atoms: C_6  and  C_20
    4  A    between atoms: N_10  and  C_26
    5  A    between atoms: C_15  and  C_27
    6  A    between atoms: C_15  and  N_30
    7  A    between atoms: S_17  and  C_21
    8  A    between atoms: S_17  and  N_30
    9  A    between atoms: C_18  and  C_33
   10  A    between atoms: C_20  and  C_26
                            x       y       z     vdW  Elec       q    Type
                         _______ _______ _______ _____ _____    ______ ____

>  <TORSDO>
F 10

$$$$
=
 OpenBabel11072410193D

 33 35  0  0  1  0  0  0  0  0999 V2000
  160.5570  207.2900  155.1540 C   0  0  0  0  0  3  0  0  0  0  0  0
  160.7260  209.2590  153.7450 C   0  0  0  0  0  0  0  0  0  0  0  0
  160.4500  208.6740  154.9890 C   0  0  0  0  0  3  0  0  0  0  0  0
  161.0930  208.4490  152.6680 C   0  0  0  0  0  3  0  0  0  0  0  0
  161.1990  207.0630  152.8260 C   0  0  0  0  0  0  0  0  0  0  0  0
  160.9290  206.4850  154.0740 C   0  0  0  0  0  3  0  0  0  0  0  0
  160.5730  210.7310  153.5240 C   0  0  2  0  0  3  0  0  0  0  0  0
  160.9370  211.4550  154.6630 O   0  0  0  0  0  1  0  0  0  0  0  0
  158.2430  211.5030  154.1930 C   0  0  0  0  0  1  0  0  0  0  0  0
  159.1620  211.0900  153.0510 C   0  0  1  0  0  3  0  0  0  0  0  0
  159.8770  213.4730  150.4840 C   0  0  0  0  0  0  0  0  0  0  0  0
  159.2150  212.1260  152.0280 N   0  0  0  0  0  0  0  0  0  0  0  0
  158.2330  212.9690  151.7500 N   0  0  0  0  0  0  0  0  0  0  0  0
  158.6100  213.8040  150.7970 N   0  0  0  0  0  0  0  0  0  0  0  0
  160.2810  212.4020  151.2570 C   0  0  0  0  0  3  0  0  0  0  0  0
  160.6840  214.1430  149.4260 C   0  0  0  0  0  2  0  0  0  0  0  0
  162.4450  212.6350  148.5070 O   0  0  0  0  0  1  0  0  0  0  0  0
  160.3950  212.7850  147.4910 O   0  0  0  0  0  0  0  0  0  0  0  0
  161.1560  213.1450  148.4260 C   0  0  0  0  0  0  0  0  0  0  0  0
  161.5550  206.2240  151.6350 C   0  0  1  0  0  3  0  0  0  0  0  0
  161.5090  204.8140  151.9470 N   0  0  0  0  0  0  0  0  0  0  0  0
  160.6840  204.0570  151.4000 N   0  0  0  0  0  2  0  0  0  0  0  0
  160.6980  206.5260  150.4910 N   0  0  0  0  0  2  0  0  0  0  0  0
  161.2180  208.3280  148.6270 O   0  0  0  0  0  0  0  0  0  0  0  0
  161.6920  207.0000  149.1490 S   0  0  0  0  0  0  0  0  0  0  0  0
  163.1160  207.1460  149.6070 O   0  0  0  0  0  0  0  0  0  0  0  0
  161.5010  203.9050  145.8100 C   0  0  0  0  0  3  0  0  0  0  0  0
  161.5450  205.6660  144.2020 F   0  0  0  0  0  0  0  0  0  0  0  0
  161.5510  205.2670  145.4970 C   0  0  0  0  0  0  0  0  0  0  0  0
  161.5600  204.4450  148.1700 C   0  0  0  0  0  3  0  0  0  0  0  0
  161.6070  205.8090  147.8590 C   0  0  0  0  0  0  0  0  0  0  0  0
  161.6050  206.2180  146.5210 C   0  0  0  0  0  3  0  0  0  0  0  0
  161.5060  203.4940  147.1460 C   0  0  0  0  0  3  0  0  0  0  0  0
  2  3  2  0  0  0  0
  3  1  1  0  0  0  0
  4  5  2  0  0  0  0
  4  2  1  0  0  0  0
  5  6  1  0  0  0  0
  6  1  2  0  0  0  0
  7  2  1  0  0  0  0
  7  8  1  1  0  0  0
 10  7  1  0  0  0  0
 10  9  1  1  0  0  0
 11 14  1  0  0  0  0
 11 15  2  0  0  0  0
 12 10  1  0  0  0  0
 13 12  1  0  0  0  0
 14 13  2  0  0  0  0
 15 12  1  0  0  0  0
 16 11  1  0  0  0  0
 18 19  2  0  0  0  0
 19 17  1  0  0  0  0
 19 16  1  0  0  0  0
 20 23  1  6  0  0  0
 20 21  1  0  0  0  0
 20  5  1  0  0  0  0
 22 21  2  0  0  0  0
 24 25  2  0  0  0  0
 25 26  2  0  0  0  0
 25 23  1  0  0  0  0
 27 33  1  0  0  0  0
 28 29  1  0  0  0  0
 29 27  2  0  0  0  0
 29 32  1  0  0  0  0
 31 30  1  0  0  0  0
 31 25  1  0  0  0  0
 32 31  2  0  0  0  0
 33 30  2  0  0  0  0
M  END
>  <MODEL>
3

>  <REMARK>
 VINA RESULT:      -7.6      2.863      3.596
  Name = 
  10 active torsions:
  status: ('A' for Active; 'I' for Inactive)
    1  A    between atoms: C_2  and  C_18
    2  A    between atoms: N_4  and  C_15
    3  A    between atoms: C_6  and  C_20
    4  A    between atoms: N_10  and  C_26
    5  A    between atoms: C_15  and  C_27
    6  A    between atoms: C_15  and  N_30
    7  A    between atoms: S_17  and  C_21
    8  A    between atoms: S_17  and  N_30
    9  A    between atoms: C_18  and  C_33
   10  A    between atoms: C_20  and  C_26
                            x       y       z     vdW  Elec       q    Type
                         _______ _______ _______ _____ _____    ______ ____

>  <TORSDO>
F 10

$$$$
=
 OpenBabel11072410193D

 33 35  0  0  1  0  0  0  0  0999 V2000
  161.2100  204.8260  153.0250 C   0  0  0  0  0  3  0  0  0  0  0  0
  161.7590  206.7960  151.7170 C   0  0  0  0  0  0  0  0  0  0  0  0
  161.6920  205.4010  151.8450 C   0  0  0  0  0  3  0  0  0  0  0  0
  161.3580  207.6070  152.7810 C   0  0  0  0  0  3  0  0  0  0  0  0
  160.8780  207.0380  153.9650 C   0  0  0  0  0  0  0  0  0  0  0  0
  160.8060  205.6430  154.0850 C   0  0  0  0  0  3  0  0  0  0  0  0
  162.3140  207.4400  150.4860 C   0  0  2  0  0  3  0  0  0  0  0  0
  162.6750  208.7690  150.7270 O   0  0  0  0  0  1  0  0  0  0  0  0
  161.4870  208.4690  148.3110 C   0  0  0  0  0  1  0  0  0  0  0  0
  161.3520  207.3200  149.3010 C   0  0  1  0  0  3  0  0  0  0  0  0
  161.3620  203.9690  148.0560 C   0  0  0  0  0  0  0  0  0  0  0  0
  161.5250  206.0380  148.6310 N   0  0  0  0  0  0  0  0  0  0  0  0
  162.4320  205.7830  147.7010 N   0  0  0  0  0  0  0  0  0  0  0  0
  162.3490  204.5180  147.3220 N   0  0  0  0  0  0  0  0  0  0  0  0
  160.8230  204.9230  148.8950 C   0  0  0  0  0  3  0  0  0  0  0  0
  160.9080  202.5560  147.9270 C   0  0  0  0  0  2  0  0  0  0  0  0
  161.2380  202.2920  150.3860 O   0  0  0  0  0  1  0  0  0  0  0  0
  159.4450  201.3170  149.3410 O   0  0  0  0  0  0  0  0  0  0  0  0
  160.4800  202.0280  149.2530 C   0  0  0  0  0  0  0  0  0  0  0  0
  160.4970  207.9420  155.1000 C   0  0  1  0  0  3  0  0  0  0  0  0
  159.6500  207.2650  156.0550 N   0  0  0  0  0  0  0  0  0  0  0  0
  160.0810  206.9230  157.1730 N   0  0  0  0  0  2  0  0  0  0  0  0
  161.6750  208.4980  155.7610 N   0  0  0  0  0  2  0  0  0  0  0  0
  160.9420  210.5500  157.2610 O   0  0  0  0  0  0  0  0  0  0  0  0
  161.4860  210.2180  155.8990 S   0  0  0  0  0  0  0  0  0  0  0  0
  162.8250  210.8830  155.7430 O   0  0  0  0  0  0  0  0  0  0  0  0
  158.6350  211.8170  152.7230 C   0  0  0  0  0  3  0  0  0  0  0  0
  156.8670  211.7850  154.3230 F   0  0  0  0  0  0  0  0  0  0  0  0
  158.1670  211.5580  154.0150 C   0  0  0  0  0  0  0  0  0  0  0  0
  160.8500  211.0870  153.3800 C   0  0  0  0  0  3  0  0  0  0  0  0
  160.3820  210.8240  154.6730 C   0  0  0  0  0  0  0  0  0  0  0  0
  159.0400  211.0630  154.9890 C   0  0  0  0  0  3  0  0  0  0  0  0
  159.9770  211.5820  152.4060 C   0  0  0  0  0  3  0  0  0  0  0  0
  1  6  1  0  0  0  0
  2  3  1  0  0  0  0
  2  4  2  0  0  0  0
  3  1  2  0  0  0  0
  4  5  1  0  0  0  0
  5  6  2  0  0  0  0
  5 20  1  0  0  0  0
  7  8  1  1  0  0  0
  7  2  1  0  0  0  0
 10  9  1  6  0  0  0
 10  7  1  0  0  0  0
 11 15  2  0  0  0  0
 12 15  1  0  0  0  0
 12 10  1  0  0  0  0
 13 12  1  0  0  0  0
 14 13  2  0  0  0  0
 14 11  1  0  0  0  0
 16 11  1  0  0  0  0
 16 19  1  0  0  0  0
 19 18  2  0  0  0  0
 19 17  1  0  0  0  0
 20 23  1  1  0  0  0
 20 21  1  0  0  0  0
 21 22  2  0  0  0  0
 23 25  1  0  0  0  0
 25 24  2  0  0  0  0
 26 25  2  0  0  0  0
 27 29  1  0  0  0  0
 29 28  1  0  0  0  0
 29 32  2  0  0  0  0
 30 31  2  0  0  0  0
 31 32  1  0  0  0  0
 31 25  1  0  0  0  0
 33 27  2  0  0  0  0
 33 30  1  0  0  0  0
M  END
>  <MODEL>
4

>  <REMARK>
 VINA RESULT:      -7.3      3.704      8.724
  Name = 
  10 active torsions:
  status: ('A' for Active; 'I' for Inactive)
    1  A    between atoms: C_2  and  C_18
    2  A    between atoms: N_4  and  C_15
    3  A    between atoms: C_6  and  C_20
    4  A    between atoms: N_10  and  C_26
    5  A    between atoms: C_15  and  C_27
    6  A    between atoms: C_15  and  N_30
    7  A    between atoms: S_17  and  C_21
    8  A    between atoms: S_17  and  N_30
    9  A    between atoms: C_18  and  C_33
   10  A    between atoms: C_20  and  C_26
                            x       y       z     vdW  Elec       q    Type
                         _______ _______ _______ _____ _____    ______ ____

>  <TORSDO>
F 10

$$$$
=
 OpenBabel11072410193D

 33 35  0  0  1  0  0  0  0  0999 V2000
  160.8270  204.0060  151.2870 C   0  0  0  0  0  3  0  0  0  0  0  0
  161.4470  206.1350  152.2760 C   0  0  0  0  0  0  0  0  0  0  0  0
  161.1140  204.7800  152.4160 C   0  0  0  0  0  3  0  0  0  0  0  0
  161.4750  206.7110  151.0040 C   0  0  0  0  0  3  0  0  0  0  0  0
  161.1860  205.9430  149.8710 C   0  0  0  0  0  0  0  0  0  0  0  0
  160.8610  204.5870  150.0170 C   0  0  0  0  0  3  0  0  0  0  0  0
  161.7120  207.0000  153.4680 C   0  0  2  0  0  3  0  0  0  0  0  0
  162.4020  206.2980  154.4610 O   0  0  0  0  0  1  0  0  0  0  0  0
  160.0800  207.1540  155.4140 C   0  0  0  0  0  1  0  0  0  0  0  0
  160.4250  207.6290  154.0090 C   0  0  1  0  0  3  0  0  0  0  0  0
  160.3310  211.1790  154.4190 C   0  0  0  0  0  0  0  0  0  0  0  0
  160.5080  209.0830  153.9600 N   0  0  0  0  0  0  0  0  0  0  0  0
  160.9620  209.7830  152.9310 N   0  0  0  0  0  0  0  0  0  0  0  0
  160.8730  211.0770  153.1910 N   0  0  0  0  0  0  0  0  0  0  0  0
  160.0930  209.9180  154.9280 C   0  0  0  0  0  3  0  0  0  0  0  0
  160.0810  212.4690  155.1220 C   0  0  0  0  0  2  0  0  0  0  0  0
  157.8100  213.2670  155.7730 O   0  0  0  0  0  1  0  0  0  0  0  0
  158.4190  213.1650  153.5650 O   0  0  0  0  0  0  0  0  0  0  0  0
  158.7320  212.9950  154.7720 C   0  0  0  0  0  0  0  0  0  0  0  0
  161.1850  206.6080  148.5270 C   0  0  1  0  0  3  0  0  0  0  0  0
  161.2380  208.0470  148.6470 N   0  0  0  0  0  0  0  0  0  0  0  0
  162.3090  208.6690  148.5080 N   0  0  0  0  0  2  0  0  0  0  0  0
  162.2780  206.1220  147.6880 N   0  0  0  0  0  2  0  0  0  0  0  0
  160.3520  206.2250  145.8780 O   0  0  0  0  0  0  0  0  0  0  0  0
  161.6190  205.4890  146.2120 S   0  0  0  0  0  0  0  0  0  0  0  0
  162.6030  205.6970  145.0940 O   0  0  0  0  0  0  0  0  0  0  0  0
  160.7310  201.0380  146.6260 C   0  0  0  0  0  3  0  0  0  0  0  0
  159.9310  201.0090  144.3800 F   0  0  0  0  0  0  0  0  0  0  0  0
  160.4570  201.6960  145.4230 C   0  0  0  0  0  0  0  0  0  0  0  0
  161.5410  203.1140  147.5750 C   0  0  0  0  0  3  0  0  0  0  0  0
  161.2650  203.7750  146.3720 C   0  0  0  0  0  0  0  0  0  0  0  0
  160.7250  203.0630  145.2960 C   0  0  0  0  0  3  0  0  0  0  0  0
  161.2730  201.7470  147.7020 C   0  0  0  0  0  3  0  0  0  0  0  0
  1  3  1  0  0  0  0
  2  3  2  0  0  0  0
  2  7  1  0  0  0  0
  4  2  1  0  0  0  0
  5  6  1  0  0  0  0
  5  4  2  0  0  0  0
  6  1  2  0  0  0  0
  7 10  1  0  0  0  0
  7  8  1  1  0  0  0
 10  9  1  1  0  0  0
 11 15  2  0  0  0  0
 11 16  1  0  0  0  0
 12 10  1  0  0  0  0
 12 15  1  0  0  0  0
 13 14  2  0  0  0  0
 13 12  1  0  0  0  0
 14 11  1  0  0  0  0
 18 19  2  0  0  0  0
 19 16  1  0  0  0  0
 19 17  1  0  0  0  0
 20 23  1  6  0  0  0
 20 21  1  0  0  0  0
 20  5  1  0  0  0  0
 22 21  2  0  0  0  0
 24 25  2  0  0  0  0
 25 31  1  0  0  0  0
 25 23  1  0  0  0  0
 26 25  2  0  0  0  0
 27 33  1  0  0  0  0
 28 29  1  0  0  0  0
 29 27  2  0  0  0  0
 30 33  2  0  0  0  0
 31 30  1  0  0  0  0
 32 29  1  0  0  0  0
 32 31  2  0  0  0  0
M  END
>  <MODEL>
5

>  <REMARK>
 VINA RESULT:      -7.3      2.585      3.585
  Name = 
  10 active torsions:
  status: ('A' for Active; 'I' for Inactive)
    1  A    between atoms: C_2  and  C_18
    2  A    between atoms: N_4  and  C_15
    3  A    between atoms: C_6  and  C_20
    4  A    between atoms: N_10  and  C_26
    5  A    between atoms: C_15  and  C_27
    6  A    between atoms: C_15  and  N_30
    7  A    between atoms: S_17  and  C_21
    8  A    between atoms: S_17  and  N_30
    9  A    between atoms: C_18  and  C_33
   10  A    between atoms: C_20  and  C_26
                            x       y       z     vdW  Elec       q    Type
                         _______ _______ _______ _____ _____    ______ ____

>  <TORSDO>
F 10

$$$$
=
 OpenBabel11072410193D

 33 35  0  0  1  0  0  0  0  0999 V2000
  161.4790  210.3240  151.7850 C   0  0  0  0  0  3  0  0  0  0  0  0
  161.9560  210.6640  149.4290 C   0  0  0  0  0  0  0  0  0  0  0  0
  161.6640  211.1840  150.6980 C   0  0  0  0  0  3  0  0  0  0  0  0
  162.0440  209.2810  149.2530 C   0  0  0  0  0  3  0  0  0  0  0  0
  161.8570  208.4160  150.3360 C   0  0  0  0  0  0  0  0  0  0  0  0
  161.5730  208.9410  151.6040 C   0  0  0  0  0  3  0  0  0  0  0  0
  162.1120  211.5570  148.2380 C   0  0  2  0  0  3  0  0  0  0  0  0
  163.3520  212.2020  148.2460 O   0  0  0  0  0  1  0  0  0  0  0  0
  161.3150  213.9400  148.6360 C   0  0  0  0  0  1  0  0  0  0  0  0
  160.9550  212.5530  148.1210 C   0  0  1  0  0  3  0  0  0  0  0  0
  160.3080  212.9950  144.6330 C   0  0  0  0  0  0  0  0  0  0  0  0
  160.4760  212.6190  146.7470 N   0  0  0  0  0  0  0  0  0  0  0  0
  159.2620  212.2700  146.3480 N   0  0  0  0  0  0  0  0  0  0  0  0
  159.1350  212.4830  145.0490 N   0  0  0  0  0  0  0  0  0  0  0  0
  161.1780  213.0880  145.7010 C   0  0  0  0  0  3  0  0  0  0  0  0
  160.6140  213.3530  143.2200 C   0  0  0  0  0  2  0  0  0  0  0  0
  160.4540  211.1010  142.1580 O   0  0  0  0  0  0  0  0  0  0  0  0
  162.4660  212.1960  142.2690 O   0  0  0  0  0  1  0  0  0  0  0  0
  161.2320  212.1940  142.5150 C   0  0  0  0  0  0  0  0  0  0  0  0
  161.9190  206.9360  150.0970 C   0  0  1  0  0  3  0  0  0  0  0  0
  162.1050  206.2070  151.3310 N   0  0  0  0  0  0  0  0  0  0  0  0
  161.2100  205.4710  151.7880 N   0  0  0  0  0  2  0  0  0  0  0  0
  160.7330  206.4570  149.3910 N   0  0  0  0  0  2  0  0  0  0  0  0
  160.3350  206.2000  146.7890 O   0  0  0  0  0  0  0  0  0  0  0  0
  161.2240  205.7150  147.9000 S   0  0  0  0  0  0  0  0  0  0  0  0
  162.6410  206.1070  147.5880 O   0  0  0  0  0  0  0  0  0  0  0  0
  160.8980  201.1770  148.1690 C   0  0  0  0  0  3  0  0  0  0  0  0
  160.4760  201.3650  150.5080 F   0  0  0  0  0  0  0  0  0  0  0  0
  160.7340  201.9580  149.3170 C   0  0  0  0  0  0  0  0  0  0  0  0
  161.2690  203.1810  146.8600 C   0  0  0  0  0  3  0  0  0  0  0  0
  161.1080  203.9640  148.0090 C   0  0  0  0  0  0  0  0  0  0  0  0
  160.8380  203.3500  149.2370 C   0  0  0  0  0  3  0  0  0  0  0  0
  161.1650  201.7880  146.9400 C   0  0  0  0  0  3  0  0  0  0  0  0
  2  3  1  0  0  0  0
  3  1  2  0  0  0  0
  4  2  2  0  0  0  0
  4  5  1  0  0  0  0
  5  6  2  0  0  0  0
  6  1  1  0  0  0  0
  7  8  1  1  0  0  0
  7  2  1  0  0  0  0
 10  7  1  0  0  0  0
 10  9  1  6  0  0  0
 11 14  1  0  0  0  0
 11 15  2  0  0  0  0
 12 10  1  0  0  0  0
 13 12  1  0  0  0  0
 14 13  2  0  0  0  0
 15 12  1  0  0  0  0
 16 11  1  0  0  0  0
 17 19  2  0  0  0  0
 18 19  1  0  0  0  0
 19 16  1  0  0  0  0
 20 23  1  1  0  0  0
 20  5  1  0  0  0  0
 20 21  1  0  0  0  0
 21 22  2  0  0  0  0
 24 25  2  0  0  0  0
 25 31  1  0  0  0  0
 25 23  1  0  0  0  0
 26 25  2  0  0  0  0
 27 29  1  0  0  0  0
 29 28  1  0  0  0  0
 30 33  1  0  0  0  0
 30 31  2  0  0  0  0
 31 32  1  0  0  0  0
 32 29  2  0  0  0  0
 33 27  2  0  0  0  0
M  END
>  <MODEL>
6

>  <REMARK>
 VINA RESULT:      -7.2      4.169      5.941
  Name = 
  10 active torsions:
  status: ('A' for Active; 'I' for Inactive)
    1  A    between atoms: C_2  and  C_18
    2  A    between atoms: N_4  and  C_15
    3  A    between atoms: C_6  and  C_20
    4  A    between atoms: N_10  and  C_26
    5  A    between atoms: C_15  and  C_27
    6  A    between atoms: C_15  and  N_30
    7  A    between atoms: S_17  and  C_21
    8  A    between atoms: S_17  and  N_30
    9  A    between atoms: C_18  and  C_33
   10  A    between atoms: C_20  and  C_26
                            x       y       z     vdW  Elec       q    Type
                         _______ _______ _______ _____ _____    ______ ____

>  <TORSDO>
F 10

$$$$
=
 OpenBabel11072410193D

 33 35  0  0  1  0  0  0  0  0999 V2000
  160.4560  206.8400  155.1510 C   0  0  0  0  0  3  0  0  0  0  0  0
  161.3300  207.2060  152.9160 C   0  0  0  0  0  0  0  0  0  0  0  0
  160.9670  206.3330  153.9530 C   0  0  0  0  0  3  0  0  0  0  0  0
  161.1930  208.5850  153.0950 C   0  0  0  0  0  3  0  0  0  0  0  0
  160.6860  209.0970  154.2930 C   0  0  0  0  0  0  0  0  0  0  0  0
  160.3170  208.2200  155.3230 C   0  0  0  0  0  3  0  0  0  0  0  0
  161.9240  206.6970  151.6410 C   0  0  2  0  0  3  0  0  0  0  0  0
  162.6860  207.6830  151.0070 O   0  0  0  0  0  1  0  0  0  0  0  0
  160.9300  206.6910  149.2980 C   0  0  0  0  0  1  0  0  0  0  0  0
  160.8550  206.1210  150.7080 C   0  0  1  0  0  3  0  0  0  0  0  0
  160.6400  202.5900  150.1890 C   0  0  0  0  0  0  0  0  0  0  0  0
  160.9310  204.6660  150.6820 N   0  0  0  0  0  0  0  0  0  0  0  0
  161.5830  203.9240  151.5650 N   0  0  0  0  0  0  0  0  0  0  0  0
  161.4280  202.6420  151.2790 N   0  0  0  0  0  0  0  0  0  0  0  0
  160.3140  203.8720  149.7910 C   0  0  0  0  0  3  0  0  0  0  0  0
  160.2350  201.3300  149.5040 C   0  0  0  0  0  2  0  0  0  0  0  0
  160.8310  201.9640  147.1660 O   0  0  0  0  0  0  0  0  0  0  0  0
  161.8770  200.2040  148.1980 O   0  0  0  0  0  1  0  0  0  0  0  0
  161.0350  201.1370  148.2630 C   0  0  0  0  0  0  0  0  0  0  0  0
  160.5930  210.5850  154.4620 C   0  0  1  0  0  3  0  0  0  0  0  0
  161.5790  211.0750  155.3980 N   0  0  0  0  0  0  0  0  0  0  0  0
  162.7670  210.7040  155.3400 N   0  0  0  0  0  2  0  0  0  0  0  0
  160.7110  211.2780  153.1820 N   0  0  0  0  0  2  0  0  0  0  0  0
  158.0730  211.4540  153.1780 O   0  0  0  0  0  0  0  0  0  0  0  0
  159.3100  212.2760  152.9470 S   0  0  0  0  0  0  0  0  0  0  0  0
  159.3270  213.4050  153.9380 O   0  0  0  0  0  0  0  0  0  0  0  0
  159.2080  213.9370  148.7040 C   0  0  0  0  0  3  0  0  0  0  0  0
  161.5680  213.6320  148.5490 F   0  0  0  0  0  0  0  0  0  0  0  0
  160.4230  213.5320  149.2670 C   0  0  0  0  0  0  0  0  0  0  0  0
  158.0600  213.3290  150.7490 C   0  0  0  0  0  3  0  0  0  0  0  0
  159.2750  212.9260  151.3140 C   0  0  0  0  0  0  0  0  0  0  0  0
  160.4560  213.0270  150.5710 C   0  0  0  0  0  3  0  0  0  0  0  0
  158.0270  213.8340  149.4450 C   0  0  0  0  0  3  0  0  0  0  0  0
  1  6  1  0  0  0  0
  2  4  2  0  0  0  0
  2  3  1  0  0  0  0
  3  1  2  0  0  0  0
  4  5  1  0  0  0  0
  5 20  1  0  0  0  0
  5  6  2  0  0  0  0
  7  8  1  6  0  0  0
  7  2  1  0  0  0  0
 10  9  1  6  0  0  0
 10  7  1  0  0  0  0
 11 14  1  0  0  0  0
 12 10  1  0  0  0  0
 12 13  1  0  0  0  0
 14 13  2  0  0  0  0
 15 11  2  0  0  0  0
 15 12  1  0  0  0  0
 16 11  1  0  0  0  0
 17 19  2  0  0  0  0
 18 19  1  0  0  0  0
 19 16  1  0  0  0  0
 20 23  1  6  0  0  0
 20 21  1  0  0  0  0
 22 21  2  0  0  0  0
 25 24  2  0  0  0  0
 25 23  1  0  0  0  0
 25 26  2  0  0  0  0
 27 29  2  0  0  0  0
 27 33  1  0  0  0  0
 28 29  1  0  0  0  0
 29 32  1  0  0  0  0
 30 31  1  0  0  0  0
 31 25  1  0  0  0  0
 32 31  2  0  0  0  0
 33 30  2  0  0  0  0
M  END
>  <MODEL>
7

>  <REMARK>
 VINA RESULT:      -7.2      3.531      8.945
  Name = 
  10 active torsions:
  status: ('A' for Active; 'I' for Inactive)
    1  A    between atoms: C_2  and  C_18
    2  A    between atoms: N_4  and  C_15
    3  A    between atoms: C_6  and  C_20
    4  A    between atoms: N_10  and  C_26
    5  A    between atoms: C_15  and  C_27
    6  A    between atoms: C_15  and  N_30
    7  A    between atoms: S_17  and  C_21
    8  A    between atoms: S_17  and  N_30
    9  A    between atoms: C_18  and  C_33
   10  A    between atoms: C_20  and  C_26
                            x       y       z     vdW  Elec       q    Type
                         _______ _______ _______ _____ _____    ______ ____

>  <TORSDO>
F 10

$$$$
=
 OpenBabel11072410193D

 33 35  0  0  1  0  0  0  0  0999 V2000
  161.2600  205.7940  153.2360 C   0  0  0  0  0  3  0  0  0  0  0  0
  161.7870  207.8040  151.9820 C   0  0  0  0  0  0  0  0  0  0  0  0
  161.7640  206.4050  152.0850 C   0  0  0  0  0  3  0  0  0  0  0  0
  161.3170  208.5820  153.0430 C   0  0  0  0  0  3  0  0  0  0  0  0
  160.8150  207.9750  154.1980 C   0  0  0  0  0  0  0  0  0  0  0  0
  160.7870  206.5770  154.2930 C   0  0  0  0  0  3  0  0  0  0  0  0
  162.3640  208.4880  150.7830 C   0  0  2  0  0  3  0  0  0  0  0  0
  162.8380  209.7630  151.1050 O   0  0  0  0  0  1  0  0  0  0  0  0
  161.5870  209.7220  148.6980 C   0  0  0  0  0  1  0  0  0  0  0  0
  161.3690  208.5300  149.6200 C   0  0  1  0  0  3  0  0  0  0  0  0
  161.9370  205.7160  147.4890 C   0  0  0  0  0  0  0  0  0  0  0  0
  161.4070  207.2820  148.8700 N   0  0  0  0  0  0  0  0  0  0  0  0
  160.5030  206.3180  148.9530 N   0  0  0  0  0  0  0  0  0  0  0  0
  160.8100  205.3370  148.1200 N   0  0  0  0  0  0  0  0  0  0  0  0
  162.3360  206.9530  147.9560 C   0  0  0  0  0  3  0  0  0  0  0  0
  162.6540  204.8870  146.4810 C   0  0  0  0  0  2  0  0  0  0  0  0
  161.0730  205.3630  144.6110 O   0  0  0  0  0  0  0  0  0  0  0  0
  161.4720  203.2060  145.2770 O   0  0  0  0  0  1  0  0  0  0  0  0
  161.7120  204.4330  145.4200 C   0  0  0  0  0  0  0  0  0  0  0  0
  160.3590  208.8460  155.3320 C   0  0  1  0  0  3  0  0  0  0  0  0
  160.7830  208.3190  156.6090 N   0  0  0  0  0  0  0  0  0  0  0  0
  161.8520  208.6800  157.1350 N   0  0  0  0  0  2  0  0  0  0  0  0
  160.8170  210.2230  155.1680 N   0  0  0  0  0  2  0  0  0  0  0  0
  158.2100  210.4860  155.5250 O   0  0  0  0  0  0  0  0  0  0  0  0
  159.4650  211.2960  155.3600 S   0  0  0  0  0  0  0  0  0  0  0  0
  159.6610  212.1330  156.5930 O   0  0  0  0  0  0  0  0  0  0  0  0
  159.0010  214.0000  151.7210 C   0  0  0  0  0  3  0  0  0  0  0  0
  160.4520  212.5610  150.4920 F   0  0  0  0  0  0  0  0  0  0  0  0
  159.8100  212.8610  151.6460 C   0  0  0  0  0  0  0  0  0  0  0  0
  158.4860  213.4820  154.0310 C   0  0  0  0  0  3  0  0  0  0  0  0
  159.2970  212.3430  153.9590 C   0  0  0  0  0  0  0  0  0  0  0  0
  159.9560  212.0330  152.7640 C   0  0  0  0  0  3  0  0  0  0  0  0
  158.3390  214.3100  152.9130 C   0  0  0  0  0  3  0  0  0  0  0  0
  1  6  1  0  0  0  0
  2  3  1  0  0  0  0
  2  4  2  0  0  0  0
  3  1  2  0  0  0  0
  4  5  1  0  0  0  0
  5  6  2  0  0  0  0
  5 20  1  0  0  0  0
  7  8  1  1  0  0  0
  7  2  1  0  0  0  0
 10  9  1  6  0  0  0
 10  7  1  0  0  0  0
 11 15  2  0  0  0  0
 11 14  1  0  0  0  0
 12 13  1  0  0  0  0
 12 10  1  0  0  0  0
 14 13  2  0  0  0  0
 15 12  1  0  0  0  0
 16 11  1  0  0  0  0
 17 19  2  0  0  0  0
 18 19  1  0  0  0  0
 19 16  1  0  0  0  0
 20 23  1  6  0  0  0
 20 21  1  0  0  0  0
 21 22  2  0  0  0  0
 23 25  1  0  0  0  0
 25 24  2  0  0  0  0
 25 26  2  0  0  0  0
 27 33  1  0  0  0  0
 28 29  1  0  0  0  0
 29 27  2  0  0  0  0
 29 32  1  0  0  0  0
 31 30  1  0  0  0  0
 31 25  1  0  0  0  0
 32 31  2  0  0  0  0
 33 30  2  0  0  0  0
M  END
>  <MODEL>
8

>  <REMARK>
 VINA RESULT:      -7.1      3.636      8.691
  Name = 
  10 active torsions:
  status: ('A' for Active; 'I' for Inactive)
    1  A    between atoms: C_2  and  C_18
    2  A    between atoms: N_4  and  C_15
    3  A    between atoms: C_6  and  C_20
    4  A    between atoms: N_10  and  C_26
    5  A    between atoms: C_15  and  C_27
    6  A    between atoms: C_15  and  N_30
    7  A    between atoms: S_17  and  C_21
    8  A    between atoms: S_17  and  N_30
    9  A    between atoms: C_18  and  C_33
   10  A    between atoms: C_20  and  C_26
                            x       y       z     vdW  Elec       q    Type
                         _______ _______ _______ _____ _____    ______ ____

>  <TORSDO>
F 10

$$$$
=
 OpenBabel11072410193D

 33 35  0  0  1  0  0  0  0  0999 V2000
  161.6960  210.8710  150.7870 C   0  0  0  0  0  3  0  0  0  0  0  0
  161.9200  208.4820  150.4170 C   0  0  0  0  0  0  0  0  0  0  0  0
  161.9470  209.7970  149.9280 C   0  0  0  0  0  3  0  0  0  0  0  0
  161.6240  208.2520  151.7620 C   0  0  0  0  0  3  0  0  0  0  0  0
  161.3690  209.3230  152.6250 C   0  0  0  0  0  0  0  0  0  0  0  0
  161.4050  210.6350  152.1330 C   0  0  0  0  0  3  0  0  0  0  0  0
  162.1370  207.3100  149.5130 C   0  0  2  0  0  3  0  0  0  0  0  0
  162.7060  207.7040  148.2980 O   0  0  0  0  0  1  0  0  0  0  0  0
  160.5370  206.2680  147.8310 C   0  0  0  0  0  1  0  0  0  0  0  0
  160.8480  206.5110  149.3010 C   0  0  1  0  0  3  0  0  0  0  0  0
  160.9620  203.1620  150.5470 C   0  0  0  0  0  0  0  0  0  0  0  0
  160.9020  205.2520  150.0330 N   0  0  0  0  0  0  0  0  0  0  0  0
  160.8320  205.1360  151.3510 N   0  0  0  0  0  0  0  0  0  0  0  0
  160.8750  203.8600  151.6950 N   0  0  0  0  0  0  0  0  0  0  0  0
  160.9830  204.0320  149.4760 C   0  0  0  0  0  3  0  0  0  0  0  0
  161.0670  201.6780  150.4730 C   0  0  0  0  0  2  0  0  0  0  0  0
  161.2460  200.5790  148.2410 O   0  0  0  0  0  0  0  0  0  0  0  0
  159.2200  201.3250  149.0130 O   0  0  0  0  0  1  0  0  0  0  0  0
  160.4540  201.1780  149.2110 C   0  0  0  0  0  0  0  0  0  0  0  0
  161.0140  209.0320  154.0540 C   0  0  1  0  0  3  0  0  0  0  0  0
  161.2070  207.6360  154.3740 N   0  0  0  0  0  0  0  0  0  0  0  0
  160.2930  206.9560  154.8790 N   0  0  0  0  0  2  0  0  0  0  0  0
  161.7660  209.8790  154.9760 N   0  0  0  0  0  2  0  0  0  0  0  0
  160.1240  209.5240  157.0190 O   0  0  0  0  0  0  0  0  0  0  0  0
  160.6660  210.5940  156.1120 S   0  0  0  0  0  0  0  0  0  0  0  0
  161.3970  211.6070  156.9490 O   0  0  0  0  0  0  0  0  0  0  0  0
  157.2010  212.6400  153.9720 C   0  0  0  0  0  3  0  0  0  0  0  0
  155.7320  210.9370  154.7630 F   0  0  0  0  0  0  0  0  0  0  0  0
  156.9780  211.4650  154.6960 C   0  0  0  0  0  0  0  0  0  0  0  0
  159.5510  212.5530  154.5550 C   0  0  0  0  0  3  0  0  0  0  0  0
  159.3300  211.3750  155.2780 C   0  0  0  0  0  0  0  0  0  0  0  0
  158.0420  210.8340  155.3500 C   0  0  0  0  0  3  0  0  0  0  0  0
  158.4870  213.1850  153.9020 C   0  0  0  0  0  3  0  0  0  0  0  0
  1  6  1  0  0  0  0
  2  4  2  0  0  0  0
  3  2  1  0  0  0  0
  3  1  2  0  0  0  0
  4  5  1  0  0  0  0
  5 20  1  0  0  0  0
  6  5  2  0  0  0  0
  7  8  1  6  0  0  0
  7  2  1  0  0  0  0
 10  9  1  6  0  0  0
 10  7  1  0  0  0  0
 10 12  1  0  0  0  0
 11 14  1  0  0  0  0
 12 13  1  0  0  0  0
 13 14  2  0  0  0  0
 15 12  1  0  0  0  0
 15 11  2  0  0  0  0
 16 11  1  0  0  0  0
 17 19  2  0  0  0  0
 18 19  1  0  0  0  0
 19 16  1  0  0  0  0
 20 21  1  1  0  0  0
 20 23  1  0  0  0  0
 21 22  2  0  0  0  0
 23 25  1  0  0  0  0
 25 26  2  0  0  0  0
 25 24  2  0  0  0  0
 27 29  1  0  0  0  0
 29 28  1  0  0  0  0
 29 32  2  0  0  0  0
 30 31  2  0  0  0  0
 31 32  1  0  0  0  0
 31 25  1  0  0  0  0
 33 27  2  0  0  0  0
 33 30  1  0  0  0  0
M  END
>  <MODEL>
9

>  <REMARK>
 VINA RESULT:      -7.1      3.679      9.069
  Name = 
  10 active torsions:
  status: ('A' for Active; 'I' for Inactive)
    1  A    between atoms: C_2  and  C_18
    2  A    between atoms: N_4  and  C_15
    3  A    between atoms: C_6  and  C_20
    4  A    between atoms: N_10  and  C_26
    5  A    between atoms: C_15  and  C_27
    6  A    between atoms: C_15  and  N_30
    7  A    between atoms: S_17  and  C_21
    8  A    between atoms: S_17  and  N_30
    9  A    between atoms: C_18  and  C_33
   10  A    between atoms: C_20  and  C_26
                            x       y       z     vdW  Elec       q    Type
                         _______ _______ _______ _____ _____    ______ ____

>  <TORSDO>
F 10

$$$$
