=
 OpenBabel11072412173D

 38 42  0  0  1  0  0  0  0  0999 V2000
  161.1470  210.8190  152.3510 C   0  0  0  0  0  2  0  0  0  0  0  0
  162.2060  209.7620  152.6430 C   0  0  1  0  0  3  0  0  0  0  0  0
  161.6640  208.7130  153.6300 C   0  0  1  0  0  3  0  0  0  0  0  0
  162.6310  209.1640  151.4560 O   0  0  0  0  0  1  0  0  0  0  0  0
  160.1540  210.1940  154.5620 C   0  0  0  0  0  2  0  0  0  0  0  0
  161.2420  209.3310  154.8320 O   0  0  0  0  0  0  0  0  0  0  0  0
  160.5760  211.3610  153.6590 C   0  0  2  0  0  3  0  0  0  0  0  0
  158.8270  213.0080  154.6050 C   0  0  1  0  0  0  0  0  0  0  0  0
  156.0640  211.5290  157.2590 O   0  0  0  0  0  1  0  0  0  0  0  0
  158.3380  214.3950  154.1790 C   0  0  0  0  0  1  0  0  0  0  0  0
  157.7370  213.7630  157.1510 O   0  0  0  0  0  0  0  0  0  0  0  0
  156.6690  212.7630  156.2710 P   0  0  2  0  0  0  0  0  0  0  0  0
  158.2310  211.6470  152.6680 C   0  0  0  0  0  2  0  0  0  0  0  0
  157.0380  211.7160  153.6270 C   0  0  0  0  0  2  0  0  0  0  0  0
  159.4250  212.3420  153.3660 C   0  0  2  0  0  3  0  0  0  0  0  0
  155.5320  213.5850  155.7090 O   0  0  0  0  0  0  0  0  0  0  0  0
  159.7490  213.1880  155.8280 C   0  0  0  0  0  2  0  0  0  0  0  0
  157.6870  212.0700  154.9400 C   0  0  1  0  0  3  0  0  0  0  0  0
  158.9850  213.1010  157.1760 C   0  0  0  0  0  2  0  0  0  0  0  0
  160.5800  207.8070  153.0360 C   0  0  0  0  0  2  0  0  0  0  0  0
  160.8680  206.3460  153.3320 C   0  0  0  0  0  2  0  0  0  0  0  0
  162.1370  205.9140  152.6190 C   0  0  0  0  0  2  0  0  0  0  0  0
  161.8510  204.7620  151.6680 C   0  0  0  0  0  2  0  0  0  0  0  0
  161.2460  205.2930  150.3730 C   0  0  2  0  0  3  0  0  0  0  0  0
  162.2900  204.3100  145.2330 C   0  0  0  0  0  2  0  0  0  0  0  0
  160.4260  207.7950  149.7030 F   0  0  0  0  0  0  0  0  0  0  0  0
  160.8660  204.1800  149.3380 C   0  0  1  0  0  3  0  0  0  0  0  0
  161.6880  205.5820  145.8180 C   0  0  0  0  0  2  0  0  0  0  0  0
  161.7830  205.5830  147.3520 C   0  0  1  0  0  3  0  0  0  0  0  0
  161.5390  203.1360  145.7790 C   0  0  0  0  0  3  0  0  0  0  0  0
  161.4200  207.1420  148.9890 C   0  0  0  0  0  0  0  0  0  0  0  0
  160.8310  206.4730  147.8870 O   0  0  0  0  0  0  0  0  0  0  0  0
  161.2500  203.0860  147.0840 C   0  0  0  0  0  3  0  0  0  0  0  0
  162.1300  206.2550  149.8410 O   0  0  0  0  0  0  0  0  0  0  0  0
  162.3010  208.1020  148.5180 F   0  0  0  0  0  0  0  0  0  0  0  0
  161.6990  204.1780  148.0330 C   0  0  2  0  0  3  0  0  0  0  0  0
  159.7660  202.0970  149.6080 O   0  0  0  0  0  0  0  0  0  0  0  0
  160.7110  202.8020  149.9250 C   0  0  0  0  0  3  0  0  0  0  0  0
  1  2  1  0  0  0  0
  2  4  1  6  0  0  0
  2  3  1  0  0  0  0
  3 20  1  6  0  0  0
  3  6  1  0  0  0  0
  5  6  1  0  0  0  0
  7  1  1  6  0  0  0
  7  5  1  0  0  0  0
  8 10  1  6  0  0  0
  8 18  1  0  0  0  0
  8 17  1  0  0  0  0
 11 19  1  0  0  0  0
 12 16  2  6  0  0  0
 12 11  1  0  0  0  0
 12  9  1  0  0  0  0
 13 14  1  0  0  0  0
 15 13  1  1  0  0  0
 15  7  1  0  0  0  0
 15  8  1  0  0  0  0
 17 19  1  0  0  0  0
 18 14  1  6  0  0  0
 18 12  1  0  0  0  0
 20 21  1  0  0  0  0
 22 21  1  0  0  0  0
 23 22  1  0  0  0  0
 24 23  1  1  0  0  0
 25 30  1  0  0  0  0
 25 28  1  0  0  0  0
 27 38  1  1  0  0  0
 27 24  1  0  0  0  0
 29 28  1  6  0  0  0
 29 32  1  0  0  0  0
 29 36  1  0  0  0  0
 30 33  2  0  0  0  0
 31 26  1  0  0  0  0
 31 34  1  0  0  0  0
 32 31  1  0  0  0  0
 34 24  1  0  0  0  0
 35 31  1  0  0  0  0
 36 33  1  6  0  0  0
 36 27  1  0  0  0  0
 37 38  2  0  0  0  0
M  END
>  <MODEL>
1

>  <REMARK>
 VINA RESULT:      -8.4      0.000      0.000
  Name = 
  7 active torsions:
  status: ('A' for Active; 'I' for Inactive)
    1  A    between atoms: C_2  and  C_34
    2  A    between atoms: C_7  and  C_26
    3  A    between atoms: C_16  and  C_38
    4  A    between atoms: C_20  and  C_22
    5  A    between atoms: C_20  and  C_34
    6  A    between atoms: C_21  and  C_32
    7  A    between atoms: C_22  and  C_32
                            x       y       z     vdW  Elec       q    Type
                         _______ _______ _______ _____ _____    ______ ____

>  <TORSDO>
F 7

$$$$
=
 OpenBabel11072412173D

 38 42  0  0  1  0  0  0  0  0999 V2000
  160.8160  208.7770  154.6040 C   0  0  0  0  0  2  0  0  0  0  0  0
  160.8940  207.7220  153.5060 C   0  0  1  0  0  3  0  0  0  0  0  0
  160.9510  208.3880  152.1200 C   0  0  1  0  0  3  0  0  0  0  0  0
  161.9980  206.8930  153.7120 O   0  0  0  0  0  1  0  0  0  0  0  0
  159.8530  210.2860  152.8530 C   0  0  0  0  0  2  0  0  0  0  0  0
  159.8240  209.2220  151.9210 O   0  0  0  0  0  0  0  0  0  0  0  0
  159.7020  209.7730  154.2920 C   0  0  2  0  0  3  0  0  0  0  0  0
  158.3080  211.3280  155.8120 C   0  0  1  0  0  0  0  0  0  0  0  0
  155.6040  213.8320  154.0000 O   0  0  0  0  0  0  0  0  0  0  0  0
  158.4520  211.8010  157.2610 C   0  0  0  0  0  1  0  0  0  0  0  0
  155.5630  212.0840  156.1790 O   0  0  0  0  0  0  0  0  0  0  0  0
  156.4530  213.2900  155.3600 P   0  0  2  0  0  0  0  0  0  0  0  0
  160.3470  212.2020  154.7930 C   0  0  0  0  0  2  0  0  0  0  0  0
  159.2530  213.2720  154.7380 C   0  0  0  0  0  2  0  0  0  0  0  0
  159.6980  210.9060  155.3360 C   0  0  2  0  0  3  0  0  0  0  0  0
  156.7410  214.4460  156.2890 O   0  0  0  0  0  1  0  0  0  0  0  0
  157.1920  210.2640  155.7710 C   0  0  0  0  0  2  0  0  0  0  0  0
  157.9880  212.4620  154.8610 C   0  0  1  0  0  3  0  0  0  0  0  0
  155.7920  210.8730  155.4890 C   0  0  0  0  0  2  0  0  0  0  0  0
  162.2670  209.1220  151.8400 C   0  0  0  0  0  2  0  0  0  0  0  0
  162.3930  209.4710  150.3670 C   0  0  0  0  0  2  0  0  0  0  0  0
  161.5770  208.5000  149.5330 C   0  0  0  0  0  2  0  0  0  0  0  0
  162.3290  207.1920  149.3450 C   0  0  0  0  0  2  0  0  0  0  0  0
  161.5450  206.2690  148.4180 C   0  0  2  0  0  3  0  0  0  0  0  0
  161.3390  200.9580  147.9430 C   0  0  0  0  0  2  0  0  0  0  0  0
  160.9590  206.5040  145.7750 F   0  0  0  0  0  0  0  0  0  0  0  0
  160.8060  205.0990  149.1520 C   0  0  1  0  0  3  0  0  0  0  0  0
  161.0570  201.9860  146.8550 C   0  0  0  0  0  2  0  0  0  0  0  0
  161.4700  203.3960  147.3050 C   0  0  1  0  0  3  0  0  0  0  0  0
  160.5640  201.3380  149.1660 C   0  0  0  0  0  3  0  0  0  0  0  0
  161.6800  205.4250  146.2650 C   0  0  0  0  0  0  0  0  0  0  0  0
  160.7860  204.3610  146.5410 O   0  0  0  0  0  0  0  0  0  0  0  0
  160.5520  202.6120  149.5710 C   0  0  0  0  0  3  0  0  0  0  0  0
  162.4220  205.8140  147.4110 O   0  0  0  0  0  0  0  0  0  0  0  0
  162.5670  205.0270  145.2780 F   0  0  0  0  0  0  0  0  0  0  0  0
  161.3380  203.6790  148.8370 C   0  0  2  0  0  3  0  0  0  0  0  0
  161.0550  204.5430  151.4430 O   0  0  0  0  0  0  0  0  0  0  0  0
  160.5880  205.3190  150.6260 C   0  0  0  0  0  3  0  0  0  0  0  0
  2  4  1  1  0  0  0
  2  1  1  0  0  0  0
  3 20  1  1  0  0  0
  3  2  1  0  0  0  0
  6  3  1  0  0  0  0
  6  5  1  0  0  0  0
  7  5  1  6  0  0  0
  7  1  1  0  0  0  0
  7 15  1  0  0  0  0
  8 10  1  1  0  0  0
 12  9  2  6  0  0  0
 12 11  1  0  0  0  0
 12 16  1  0  0  0  0
 14 13  1  0  0  0  0
 15 13  1  6  0  0  0
 15  8  1  0  0  0  0
 17  8  1  0  0  0  0
 18 14  1  1  0  0  0
 18 12  1  0  0  0  0
 18  8  1  0  0  0  0
 19 17  1  0  0  0  0
 19 11  1  0  0  0  0
 21 20  1  0  0  0  0
 22 21  1  0  0  0  0
 23 22  1  0  0  0  0
 24 27  1  0  0  0  0
 24 23  1  1  0  0  0
 25 30  1  0  0  0  0
 26 31  1  0  0  0  0
 27 38  1  1  0  0  0
 28 25  1  0  0  0  0
 29 28  1  1  0  0  0
 29 36  1  0  0  0  0
 30 33  2  0  0  0  0
 31 32  1  0  0  0  0
 31 34  1  0  0  0  0
 32 29  1  0  0  0  0
 34 24  1  0  0  0  0
 35 31  1  0  0  0  0
 36 27  1  0  0  0  0
 36 33  1  6  0  0  0
 38 37  2  0  0  0  0
M  END
>  <MODEL>
2

>  <REMARK>
 VINA RESULT:      -7.3      1.762      3.053
  Name = 
  7 active torsions:
  status: ('A' for Active; 'I' for Inactive)
    1  A    between atoms: C_2  and  C_34
    2  A    between atoms: C_7  and  C_26
    3  A    between atoms: C_16  and  C_38
    4  A    between atoms: C_20  and  C_22
    5  A    between atoms: C_20  and  C_34
    6  A    between atoms: C_21  and  C_32
    7  A    between atoms: C_22  and  C_32
                            x       y       z     vdW  Elec       q    Type
                         _______ _______ _______ _____ _____    ______ ____

>  <TORSDO>
F 7

$$$$
=
 OpenBabel11072412173D

 38 42  0  0  1  0  0  0  0  0999 V2000
  160.7320  205.0330  151.2440 C   0  0  0  0  0  2  0  0  0  0  0  0
  161.2120  204.4970  152.5880 C   0  0  1  0  0  3  0  0  0  0  0  0
  161.6050  205.6550  153.5220 C   0  0  1  0  0  3  0  0  0  0  0  0
  160.2260  203.6950  153.1660 O   0  0  0  0  0  1  0  0  0  0  0  0
  162.0930  207.0700  151.7610 C   0  0  0  0  0  2  0  0  0  0  0  0
  162.6080  206.4570  152.9270 O   0  0  0  0  0  0  0  0  0  0  0  0
  161.7470  206.0290  150.6870 C   0  0  2  0  0  3  0  0  0  0  0  0
  161.1000  205.6920  148.2100 C   0  0  1  0  0  0  0  0  0  0  0  0
  164.0290  204.3990  145.6380 O   0  0  0  0  0  1  0  0  0  0  0  0
  159.9270  206.1660  147.3480 C   0  0  0  0  0  1  0  0  0  0  0  0
  161.3770  203.6980  146.1640 O   0  0  0  0  0  0  0  0  0  0  0  0
  162.4730  204.9890  145.9490 P   0  0  2  0  0  0  0  0  0  0  0  0
  162.1180  207.8080  148.8810 C   0  0  0  0  0  2  0  0  0  0  0  0
  162.7000  207.3680  147.5340 C   0  0  0  0  0  2  0  0  0  0  0  0
  161.2110  206.6590  149.3880 C   0  0  2  0  0  3  0  0  0  0  0  0
  162.0170  205.8760  144.8140 O   0  0  0  0  0  0  0  0  0  0  0  0
  160.8750  204.2020  148.5360 C   0  0  0  0  0  2  0  0  0  0  0  0
  162.4370  205.8840  147.5260 C   0  0  1  0  0  3  0  0  0  0  0  0
  161.5300  203.2540  147.4970 C   0  0  0  0  0  2  0  0  0  0  0  0
  160.4140  206.4890  154.0080 C   0  0  0  0  0  2  0  0  0  0  0  0
  160.6140  206.9380  155.4450 C   0  0  0  0  0  2  0  0  0  0  0  0
  159.9520  208.2870  155.6630 C   0  0  0  0  0  2  0  0  0  0  0  0
  160.9930  209.3480  155.9880 C   0  0  0  0  0  2  0  0  0  0  0  0
  161.0610  210.3730  154.8610 C   0  0  2  0  0  3  0  0  0  0  0  0
  157.3740  213.4960  152.5970 C   0  0  0  0  0  2  0  0  0  0  0  0
  162.4320  210.3320  152.5160 F   0  0  0  0  0  0  0  0  0  0  0  0
  160.3830  211.7440  155.2000 C   0  0  1  0  0  3  0  0  0  0  0  0
  158.6570  212.9820  151.9560 C   0  0  0  0  0  2  0  0  0  0  0  0
  159.3220  211.9100  152.8330 C   0  0  1  0  0  3  0  0  0  0  0  0
  157.7140  214.0840  153.9310 C   0  0  0  0  0  3  0  0  0  0  0  0
  161.0490  210.4340  152.5460 C   0  0  0  0  0  0  0  0  0  0  0  0
  160.6870  211.8030  152.5040 O   0  0  0  0  0  0  0  0  0  0  0  0
  158.5410  213.4270  154.7520 C   0  0  0  0  0  3  0  0  0  0  0  0
  160.5360  209.7770  153.6960 O   0  0  0  0  0  0  0  0  0  0  0  0
  160.5540  209.7990  151.4180 F   0  0  0  0  0  0  0  0  0  0  0  0
  159.1160  212.0770  154.3740 C   0  0  2  0  0  3  0  0  0  0  0  0
  160.9430  212.7740  157.2610 O   0  0  0  0  0  0  0  0  0  0  0  0
  160.1980  212.0090  156.6710 C   0  0  0  0  0  3  0  0  0  0  0  0
  1  2  1  0  0  0  0
  2  4  1  1  0  0  0
  2  3  1  0  0  0  0
  3 20  1  6  0  0  0
  5  6  1  0  0  0  0
  6  3  1  0  0  0  0
  7  1  1  1  0  0  0
  7  5  1  0  0  0  0
  8 10  1  6  0  0  0
  8 17  1  0  0  0  0
  8 15  1  0  0  0  0
  9 12  1  0  0  0  0
 11 19  1  0  0  0  0
 12 16  2  6  0  0  0
 12 11  1  0  0  0  0
 12 18  1  0  0  0  0
 14 13  1  0  0  0  0
 15 13  1  6  0  0  0
 15  7  1  0  0  0  0
 18 14  1  6  0  0  0
 18  8  1  0  0  0  0
 19 17  1  0  0  0  0
 20 21  1  0  0  0  0
 21 22  1  0  0  0  0
 22 23  1  0  0  0  0
 24 27  1  0  0  0  0
 24 23  1  1  0  0  0
 25 30  1  0  0  0  0
 26 31  1  0  0  0  0
 27 38  1  1  0  0  0
 28 25  1  0  0  0  0
 29 28  1  6  0  0  0
 29 36  1  0  0  0  0
 30 33  2  0  0  0  0
 31 34  1  0  0  0  0
 32 31  1  0  0  0  0
 32 29  1  0  0  0  0
 34 24  1  0  0  0  0
 35 31  1  0  0  0  0
 36 33  1  6  0  0  0
 36 27  1  0  0  0  0
 38 37  2  0  0  0  0
M  END
>  <MODEL>
3

>  <REMARK>
 VINA RESULT:      -7.1      3.203      9.471
  Name = 
  7 active torsions:
  status: ('A' for Active; 'I' for Inactive)
    1  A    between atoms: C_2  and  C_34
    2  A    between atoms: C_7  and  C_26
    3  A    between atoms: C_16  and  C_38
    4  A    between atoms: C_20  and  C_22
    5  A    between atoms: C_20  and  C_34
    6  A    between atoms: C_21  and  C_32
    7  A    between atoms: C_22  and  C_32
                            x       y       z     vdW  Elec       q    Type
                         _______ _______ _______ _____ _____    ______ ____

>  <TORSDO>
F 7

$$$$
=
 OpenBabel11072412173D

 38 42  0  0  1  0  0  0  0  0999 V2000
  161.1720  210.6910  152.2370 C   0  0  0  0  0  2  0  0  0  0  0  0
  162.1780  209.5670  152.4560 C   0  0  1  0  0  3  0  0  0  0  0  0
  161.7020  208.6260  153.5760 C   0  0  1  0  0  3  0  0  0  0  0  0
  162.3860  208.8680  151.2660 O   0  0  0  0  0  1  0  0  0  0  0  0
  160.4540  210.2800  154.6000 C   0  0  0  0  0  2  0  0  0  0  0  0
  161.5000  209.3460  154.7790 O   0  0  0  0  0  0  0  0  0  0  0  0
  160.8320  211.3540  153.5700 C   0  0  2  0  0  3  0  0  0  0  0  0
  159.1360  212.9640  154.6640 C   0  0  1  0  0  0  0  0  0  0  0  0
  156.2640  211.3320  157.1030 O   0  0  0  0  0  1  0  0  0  0  0  0
  158.7140  214.4090  154.3820 C   0  0  0  0  0  1  0  0  0  0  0  0
  158.0320  213.4890  157.2610 O   0  0  0  0  0  0  0  0  0  0  0  0
  156.9390  212.6370  156.2630 P   0  0  2  0  0  0  0  0  0  0  0  0
  158.5200  211.8460  152.5830 C   0  0  0  0  0  2  0  0  0  0  0  0
  157.3140  211.8640  153.5270 C   0  0  0  0  0  2  0  0  0  0  0  0
  159.7290  212.4100  153.3690 C   0  0  2  0  0  3  0  0  0  0  0  0
  155.8480  213.5630  155.7770 O   0  0  0  0  0  0  0  0  0  0  0  0
  160.0420  212.9720  155.9110 C   0  0  0  0  0  2  0  0  0  0  0  0
  157.9520  212.0460  154.8790 C   0  0  1  0  0  3  0  0  0  0  0  0
  159.2500  212.7740  157.2310 C   0  0  0  0  0  2  0  0  0  0  0  0
  160.4800  207.7820  153.1980 C   0  0  0  0  0  2  0  0  0  0  0  0
  160.7320  206.3090  153.4650 C   0  0  0  0  0  2  0  0  0  0  0  0
  161.5700  205.7160  152.3470 C   0  0  0  0  0  2  0  0  0  0  0  0
  160.7010  205.3830  151.1440 C   0  0  0  0  0  2  0  0  0  0  0  0
  161.2740  204.1800  150.4030 C   0  0  2  0  0  3  0  0  0  0  0  0
  160.4250  202.2090  145.5180 C   0  0  0  0  0  2  0  0  0  0  0  0
  161.8580  201.6770  151.2860 F   0  0  0  0  0  0  0  0  0  0  0  0
  161.7790  204.4990  148.9560 C   0  0  1  0  0  3  0  0  0  0  0  0
  160.8890  201.4390  146.7480 C   0  0  0  0  0  2  0  0  0  0  0  0
  160.7670  202.2970  148.0160 C   0  0  1  0  0  3  0  0  0  0  0  0
  161.2770  203.4310  145.3760 C   0  0  0  0  0  3  0  0  0  0  0  0
  160.9460  201.8920  150.2630 C   0  0  0  0  0  0  0  0  0  0  0  0
  161.6170  201.7910  149.0190 O   0  0  0  0  0  0  0  0  0  0  0  0
  161.5460  204.1780  146.4520 C   0  0  0  0  0  3  0  0  0  0  0  0
  160.3110  203.1500  150.4310 O   0  0  0  0  0  0  0  0  0  0  0  0
  159.9840  200.8970  150.3400 F   0  0  0  0  0  0  0  0  0  0  0  0
  160.9750  203.8330  147.8120 C   0  0  2  0  0  3  0  0  0  0  0  0
  161.4200  206.5650  147.8490 O   0  0  0  0  0  0  0  0  0  0  0  0
  162.0580  205.9550  148.6920 C   0  0  0  0  0  3  0  0  0  0  0  0
  1  2  1  0  0  0  0
  2  4  1  6  0  0  0
  2  3  1  0  0  0  0
  3 20  1  6  0  0  0
  3  6  1  0  0  0  0
  5  6  1  0  0  0  0
  7  1  1  6  0  0  0
  7  5  1  0  0  0  0
  8 10  1  6  0  0  0
  8 18  1  0  0  0  0
  8 17  1  0  0  0  0
 12 16  2  6  0  0  0
 12  9  1  0  0  0  0
 12 11  1  0  0  0  0
 13 14  1  0  0  0  0
 15 13  1  6  0  0  0
 15  7  1  0  0  0  0
 15  8  1  0  0  0  0
 17 19  1  0  0  0  0
 18 14  1  6  0  0  0
 18 12  1  0  0  0  0
 19 11  1  0  0  0  0
 20 21  1  0  0  0  0
 22 21  1  0  0  0  0
 23 22  1  0  0  0  0
 24 34  1  0  0  0  0
 24 23  1  6  0  0  0
 25 28  1  0  0  0  0
 27 38  1  6  0  0  0
 27 24  1  0  0  0  0
 29 28  1  6  0  0  0
 29 32  1  0  0  0  0
 30 25  1  0  0  0  0
 30 33  2  0  0  0  0
 31 35  1  0  0  0  0
 31 34  1  0  0  0  0
 31 26  1  0  0  0  0
 32 31  1  0  0  0  0
 36 33  1  6  0  0  0
 36 29  1  0  0  0  0
 36 27  1  0  0  0  0
 37 38  2  0  0  0  0
M  END
>  <MODEL>
4

>  <REMARK>
 VINA RESULT:      -7.1      1.743      2.599
  Name = 
  7 active torsions:
  status: ('A' for Active; 'I' for Inactive)
    1  A    between atoms: C_2  and  C_34
    2  A    between atoms: C_7  and  C_26
    3  A    between atoms: C_16  and  C_38
    4  A    between atoms: C_20  and  C_22
    5  A    between atoms: C_20  and  C_34
    6  A    between atoms: C_21  and  C_32
    7  A    between atoms: C_22  and  C_32
                            x       y       z     vdW  Elec       q    Type
                         _______ _______ _______ _____ _____    ______ ____

>  <TORSDO>
F 7

$$$$
=
 OpenBabel11072412173D

 38 42  0  0  1  0  0  0  0  0999 V2000
  161.4520  214.1960  145.3190 C   0  0  0  0  0  2  0  0  0  0  0  0
  160.7340  214.0890  146.6600 C   0  0  1  0  0  3  0  0  0  0  0  0
  160.1580  212.6750  146.8540 C   0  0  1  0  0  3  0  0  0  0  0  0
  161.6030  214.4250  147.7000 O   0  0  0  0  0  1  0  0  0  0  0  0
  159.9920  212.3000  144.5780 C   0  0  0  0  0  2  0  0  0  0  0  0
  159.2740  212.3480  145.7960 O   0  0  0  0  0  0  0  0  0  0  0  0
  160.5470  213.6820  144.2020 C   0  0  2  0  0  3  0  0  0  0  0  0
  160.4190  213.7080  141.6230 C   0  0  1  0  0  0  0  0  0  0  0  0
  158.4340  210.6190  139.7850 O   0  0  0  0  0  1  0  0  0  0  0  0
  161.1930  214.4530  140.5310 C   0  0  0  0  0  1  0  0  0  0  0  0
  158.4440  213.4030  139.5620 O   0  0  0  0  0  0  0  0  0  0  0  0
  159.4060  212.0030  139.7360 P   0  0  2  0  0  0  0  0  0  0  0  0
  162.1880  212.4130  142.6970 C   0  0  0  0  0  2  0  0  0  0  0  0
  161.6260  211.6210  141.5120 C   0  0  0  0  0  2  0  0  0  0  0  0
  161.3110  213.6780  142.8640 C   0  0  2  0  0  3  0  0  0  0  0  0
  160.3940  211.9050  138.5970 O   0  0  0  0  0  0  0  0  0  0  0  0
  159.0360  214.3760  141.7610 C   0  0  0  0  0  2  0  0  0  0  0  0
  160.2630  212.2340  141.3180 C   0  0  1  0  0  3  0  0  0  0  0  0
  157.9610  213.7260  140.8500 C   0  0  0  0  0  2  0  0  0  0  0  0
  161.2250  211.5960  147.0670 C   0  0  0  0  0  2  0  0  0  0  0  0
  161.3480  211.2340  148.5360 C   0  0  0  0  0  2  0  0  0  0  0  0
  162.5120  210.2810  148.7390 C   0  0  0  0  0  2  0  0  0  0  0  0
  162.3250  209.4690  150.0120 C   0  0  0  0  0  2  0  0  0  0  0  0
  161.4760  208.2360  149.7240 C   0  0  2  0  0  3  0  0  0  0  0  0
  161.5700  203.2610  151.6510 C   0  0  0  0  0  2  0  0  0  0  0  0
  160.4810  207.2850  147.3820 F   0  0  0  0  0  0  0  0  0  0  0  0
  160.9400  207.5140  151.0060 C   0  0  1  0  0  3  0  0  0  0  0  0
  161.0550  203.7050  150.2870 C   0  0  0  0  0  2  0  0  0  0  0  0
  161.4330  205.1670  150.0030 C   0  0  1  0  0  3  0  0  0  0  0  0
  160.9650  204.1440  152.6970 C   0  0  0  0  0  3  0  0  0  0  0  0
  161.3410  206.5290  148.1650 C   0  0  0  0  0  0  0  0  0  0  0  0
  160.5750  205.6990  149.0210 O   0  0  0  0  0  0  0  0  0  0  0  0
  160.9250  205.4670  152.5020 C   0  0  0  0  0  3  0  0  0  0  0  0
  162.2200  207.3800  148.8860 O   0  0  0  0  0  0  0  0  0  0  0  0
  162.0940  205.7330  147.3170 F   0  0  0  0  0  0  0  0  0  0  0  0
  161.5150  206.0980  151.2570 C   0  0  2  0  0  3  0  0  0  0  0  0
  160.1310  209.2730  152.3740 O   0  0  0  0  0  0  0  0  0  0  0  0
  160.9320  208.3610  152.2510 C   0  0  0  0  0  3  0  0  0  0  0  0
  1  2  1  0  0  0  0
  2  3  1  0  0  0  0
  2  4  1  1  0  0  0
  3 20  1  6  0  0  0
  5  6  1  0  0  0  0
  6  3  1  0  0  0  0
  7  5  1  1  0  0  0
  7  1  1  0  0  0  0
  8 10  1  6  0  0  0
  8 17  1  0  0  0  0
  8 15  1  0  0  0  0
 11 12  1  0  0  0  0
 11 19  1  0  0  0  0
 12 16  2  6  0  0  0
 12  9  1  0  0  0  0
 12 18  1  0  0  0  0
 14 13  1  0  0  0  0
 15 13  1  6  0  0  0
 15  7  1  0  0  0  0
 18 14  1  6  0  0  0
 18  8  1  0  0  0  0
 19 17  1  0  0  0  0
 20 21  1  0  0  0  0
 21 22  1  0  0  0  0
 22 23  1  0  0  0  0
 24 23  1  1  0  0  0
 24 27  1  0  0  0  0
 25 30  1  0  0  0  0
 26 31  1  0  0  0  0
 27 36  1  0  0  0  0
 27 38  1  1  0  0  0
 28 25  1  0  0  0  0
 29 28  1  1  0  0  0
 29 36  1  0  0  0  0
 31 34  1  0  0  0  0
 31 32  1  0  0  0  0
 32 29  1  0  0  0  0
 33 30  2  0  0  0  0
 34 24  1  0  0  0  0
 35 31  1  0  0  0  0
 36 33  1  1  0  0  0
 38 37  2  0  0  0  0
M  END
>  <MODEL>
5

>  <REMARK>
 VINA RESULT:      -7.0      6.677      9.776
  Name = 
  7 active torsions:
  status: ('A' for Active; 'I' for Inactive)
    1  A    between atoms: C_2  and  C_34
    2  A    between atoms: C_7  and  C_26
    3  A    between atoms: C_16  and  C_38
    4  A    between atoms: C_20  and  C_22
    5  A    between atoms: C_20  and  C_34
    6  A    between atoms: C_21  and  C_32
    7  A    between atoms: C_22  and  C_32
                            x       y       z     vdW  Elec       q    Type
                         _______ _______ _______ _____ _____    ______ ____

>  <TORSDO>
F 7

$$$$
=
 OpenBabel11072412173D

 38 42  0  0  1  0  0  0  0  0999 V2000
  160.8690  208.5830  154.6850 C   0  0  0  0  0  2  0  0  0  0  0  0
  160.8600  207.4080  153.7140 C   0  0  1  0  0  3  0  0  0  0  0  0
  160.9230  207.9070  152.2600 C   0  0  1  0  0  3  0  0  0  0  0  0
  161.9180  206.5420  153.9950 O   0  0  0  0  0  1  0  0  0  0  0  0
  159.9540  209.9390  152.7890 C   0  0  0  0  0  2  0  0  0  0  0  0
  159.8420  208.7800  151.9850 O   0  0  0  0  0  0  0  0  0  0  0  0
  159.8070  209.6020  154.2790 C   0  0  2  0  0  3  0  0  0  0  0  0
  158.5540  211.3060  155.7610 C   0  0  1  0  0  0  0  0  0  0  0  0
  155.6240  213.5730  153.9890 O   0  0  0  0  0  0  0  0  0  0  0  0
  158.8430  211.9390  157.1250 C   0  0  0  0  0  1  0  0  0  0  0  0
  155.8500  212.0790  156.3380 O   0  0  0  0  0  0  0  0  0  0  0  0
  156.6240  213.1920  155.2990 P   0  0  2  0  0  0  0  0  0  0  0  0
  160.4550  212.0760  154.4370 C   0  0  0  0  0  2  0  0  0  0  0  0
  159.3410  213.1260  154.3840 C   0  0  0  0  0  2  0  0  0  0  0  0
  159.8930  210.8440  155.1870 C   0  0  2  0  0  3  0  0  0  0  0  0
  156.9870  214.4470  156.0590 O   0  0  0  0  0  1  0  0  0  0  0  0
  157.4610  210.2370  155.9580 C   0  0  0  0  0  2  0  0  0  0  0  0
  158.1130  212.3250  154.7320 C   0  0  1  0  0  3  0  0  0  0  0  0
  156.0270  210.8000  155.7650 C   0  0  0  0  0  2  0  0  0  0  0  0
  162.2720  208.5240  151.8760 C   0  0  0  0  0  2  0  0  0  0  0  0
  162.8080  207.9090  150.5950 C   0  0  0  0  0  2  0  0  0  0  0  0
  162.0720  208.4810  149.3980 C   0  0  0  0  0  2  0  0  0  0  0  0
  161.0500  207.4850  148.8700 C   0  0  0  0  0  2  0  0  0  0  0  0
  161.5230  206.0610  149.1410 C   0  0  2  0  0  3  0  0  0  0  0  0
  160.2560  201.3620  146.9530 C   0  0  0  0  0  2  0  0  0  0  0  0
  162.0680  204.7970  151.4830 F   0  0  0  0  0  0  0  0  0  0  0  0
  161.9370  205.2680  147.8550 C   0  0  1  0  0  3  0  0  0  0  0  0
  160.7740  201.6050  148.3650 C   0  0  0  0  0  2  0  0  0  0  0  0
  160.7760  203.1030  148.7040 C   0  0  1  0  0  3  0  0  0  0  0  0
  161.1430  202.0890  145.9920 C   0  0  0  0  0  3  0  0  0  0  0  0
  161.0960  204.3260  150.6130 C   0  0  0  0  0  0  0  0  0  0  0  0
  161.6730  203.3530  149.7600 O   0  0  0  0  0  0  0  0  0  0  0  0
  161.5160  203.3460  146.2570 C   0  0  0  0  0  3  0  0  0  0  0  0
  160.5230  205.4050  149.8900 O   0  0  0  0  0  0  0  0  0  0  0  0
  160.1030  203.7290  151.3740 F   0  0  0  0  0  0  0  0  0  0  0  0
  161.0280  204.0660  147.4980 C   0  0  2  0  0  3  0  0  0  0  0  0
  161.5890  206.0370  145.6400 O   0  0  0  0  0  0  0  0  0  0  0  0
  162.2530  206.1270  146.6600 C   0  0  0  0  0  3  0  0  0  0  0  0
  2  4  1  1  0  0  0
  2  1  1  0  0  0  0
  3 20  1  1  0  0  0
  3  2  1  0  0  0  0
  6  3  1  0  0  0  0
  6  5  1  0  0  0  0
  7  5  1  6  0  0  0
  7  1  1  0  0  0  0
  7 15  1  0  0  0  0
  8 17  1  0  0  0  0
  8 10  1  1  0  0  0
 12  9  2  6  0  0  0
 12 16  1  0  0  0  0
 12 11  1  0  0  0  0
 14 13  1  0  0  0  0
 15 13  1  6  0  0  0
 15  8  1  0  0  0  0
 18 14  1  1  0  0  0
 18 12  1  0  0  0  0
 18  8  1  0  0  0  0
 19 17  1  0  0  0  0
 19 11  1  0  0  0  0
 21 20  1  0  0  0  0
 22 21  1  0  0  0  0
 23 22  1  0  0  0  0
 24 23  1  6  0  0  0
 24 34  1  0  0  0  0
 25 28  1  0  0  0  0
 27 38  1  6  0  0  0
 27 24  1  0  0  0  0
 29 28  1  6  0  0  0
 29 32  1  0  0  0  0
 30 33  2  0  0  0  0
 30 25  1  0  0  0  0
 31 35  1  0  0  0  0
 31 26  1  0  0  0  0
 32 31  1  0  0  0  0
 34 31  1  0  0  0  0
 36 33  1  6  0  0  0
 36 27  1  0  0  0  0
 36 29  1  0  0  0  0
 37 38  2  0  0  0  0
M  END
>  <MODEL>
6

>  <REMARK>
 VINA RESULT:      -6.9      1.778      3.219
  Name = 
  7 active torsions:
  status: ('A' for Active; 'I' for Inactive)
    1  A    between atoms: C_2  and  C_34
    2  A    between atoms: C_7  and  C_26
    3  A    between atoms: C_16  and  C_38
    4  A    between atoms: C_20  and  C_22
    5  A    between atoms: C_20  and  C_34
    6  A    between atoms: C_21  and  C_32
    7  A    between atoms: C_22  and  C_32
                            x       y       z     vdW  Elec       q    Type
                         _______ _______ _______ _____ _____    ______ ____

>  <TORSDO>
F 7

$$$$
=
 OpenBabel11072412173D

 38 42  0  0  1  0  0  0  0  0999 V2000
  160.6800  204.9710  151.1650 C   0  0  0  0  0  2  0  0  0  0  0  0
  161.1940  204.3980  152.4800 C   0  0  1  0  0  3  0  0  0  0  0  0
  161.7820  205.5130  153.3630 C   0  0  1  0  0  3  0  0  0  0  0  0
  160.1710  203.7180  153.1420 O   0  0  0  0  0  1  0  0  0  0  0  0
  162.2950  206.8470  151.5450 C   0  0  0  0  0  2  0  0  0  0  0  0
  162.8230  206.1900  152.6820 O   0  0  0  0  0  0  0  0  0  0  0  0
  161.7560  205.8400  150.5180 C   0  0  2  0  0  3  0  0  0  0  0  0
  161.0720  205.5900  148.0410 C   0  0  1  0  0  0  0  0  0  0  0  0
  163.9640  204.3940  145.3820 O   0  0  0  0  0  1  0  0  0  0  0  0
  159.8850  206.0910  147.2130 C   0  0  0  0  0  1  0  0  0  0  0  0
  161.3220  203.6690  145.9220 O   0  0  0  0  0  0  0  0  0  0  0  0
  162.4130  204.9690  145.7360 P   0  0  2  0  0  0  0  0  0  0  0  0
  162.0960  207.6830  148.7710 C   0  0  0  0  0  2  0  0  0  0  0  0
  162.6590  207.2920  147.4010 C   0  0  0  0  0  2  0  0  0  0  0  0
  161.1990  206.5150  149.2510 C   0  0  2  0  0  3  0  0  0  0  0  0
  161.9370  205.8940  144.6400 O   0  0  0  0  0  0  0  0  0  0  0  0
  160.8540  204.0890  148.3180 C   0  0  0  0  0  2  0  0  0  0  0  0
  162.3980  205.8090  147.3440 C   0  0  1  0  0  3  0  0  0  0  0  0
  161.4950  203.1790  147.2360 C   0  0  0  0  0  2  0  0  0  0  0  0
  160.7320  206.4800  153.9180 C   0  0  0  0  0  2  0  0  0  0  0  0
  161.2560  207.2080  155.1440 C   0  0  0  0  0  2  0  0  0  0  0  0
  160.1180  207.9290  155.8440 C   0  0  0  0  0  2  0  0  0  0  0  0
  160.2970  209.4370  155.7450 C   0  0  0  0  0  2  0  0  0  0  0  0
  159.1730  210.0410  154.9110 C   0  0  2  0  0  3  0  0  0  0  0  0
  158.8780  214.4400  151.9040 C   0  0  0  0  0  2  0  0  0  0  0  0
  156.5090  210.2320  155.4090 F   0  0  0  0  0  0  0  0  0  0  0  0
  159.5990  210.4450  153.4580 C   0  0  1  0  0  3  0  0  0  0  0  0
  157.7250  213.7300  152.6030 C   0  0  0  0  0  2  0  0  0  0  0  0
  158.2440  212.6600  153.5760 C   0  0  1  0  0  3  0  0  0  0  0  0
  159.6720  213.4220  151.1470 C   0  0  0  0  0  3  0  0  0  0  0  0
  157.2910  211.3590  155.2020 C   0  0  0  0  0  0  0  0  0  0  0  0
  157.2300  211.7160  153.8320 O   0  0  0  0  0  0  0  0  0  0  0  0
  159.9850  212.2600  151.7310 C   0  0  0  0  0  3  0  0  0  0  0  0
  158.6210  211.1170  155.6370 O   0  0  0  0  0  0  0  0  0  0  0  0
  156.7580  212.3880  155.9620 F   0  0  0  0  0  0  0  0  0  0  0  0
  159.5820  211.9650  153.1620 C   0  0  2  0  0  3  0  0  0  0  0  0
  161.9480  210.2570  153.1950 O   0  0  0  0  0  0  0  0  0  0  0  0
  160.8520  209.7740  152.9600 C   0  0  0  0  0  3  0  0  0  0  0  0
  1  2  1  0  0  0  0
  2  4  1  1  0  0  0
  2  3  1  0  0  0  0
  3 20  1  6  0  0  0
  5  6  1  0  0  0  0
  6  3  1  0  0  0  0
  7  1  1  1  0  0  0
  7  5  1  0  0  0  0
  8 10  1  6  0  0  0
  8 17  1  0  0  0  0
  8 15  1  0  0  0  0
  9 12  1  0  0  0  0
 11 19  1  0  0  0  0
 12 16  2  6  0  0  0
 12 11  1  0  0  0  0
 12 18  1  0  0  0  0
 14 13  1  0  0  0  0
 15 13  1  6  0  0  0
 15  7  1  0  0  0  0
 18 14  1  6  0  0  0
 18  8  1  0  0  0  0
 19 17  1  0  0  0  0
 20 21  1  0  0  0  0
 21 22  1  0  0  0  0
 23 22  1  0  0  0  0
 24 34  1  0  0  0  0
 24 23  1  1  0  0  0
 25 28  1  0  0  0  0
 27 38  1  1  0  0  0
 27 24  1  0  0  0  0
 29 28  1  6  0  0  0
 29 32  1  0  0  0  0
 30 33  2  0  0  0  0
 30 25  1  0  0  0  0
 31 26  1  0  0  0  0
 31 34  1  0  0  0  0
 31 35  1  0  0  0  0
 32 31  1  0  0  0  0
 36 33  1  6  0  0  0
 36 27  1  0  0  0  0
 36 29  1  0  0  0  0
 38 37  2  0  0  0  0
M  END
>  <MODEL>
7

>  <REMARK>
 VINA RESULT:      -6.3      3.549      9.476
  Name = 
  7 active torsions:
  status: ('A' for Active; 'I' for Inactive)
    1  A    between atoms: C_2  and  C_34
    2  A    between atoms: C_7  and  C_26
    3  A    between atoms: C_16  and  C_38
    4  A    between atoms: C_20  and  C_22
    5  A    between atoms: C_20  and  C_34
    6  A    between atoms: C_21  and  C_32
    7  A    between atoms: C_22  and  C_32
                            x       y       z     vdW  Elec       q    Type
                         _______ _______ _______ _____ _____    ______ ____

>  <TORSDO>
F 7

$$$$
=
 OpenBabel11072412173D

 38 42  0  0  1  0  0  0  0  0999 V2000
  160.6770  208.4040  154.8680 C   0  0  0  0  0  2  0  0  0  0  0  0
  160.5220  206.9160  154.5780 C   0  0  1  0  0  3  0  0  0  0  0  0
  160.9420  206.6000  153.1320 C   0  0  1  0  0  3  0  0  0  0  0  0
  161.2640  206.1660  155.4930 O   0  0  0  0  0  1  0  0  0  0  0  0
  160.4550  208.7370  152.3960 C   0  0  0  0  0  2  0  0  0  0  0  0
  160.1780  207.3610  152.2140 O   0  0  0  0  0  0  0  0  0  0  0  0
  159.9910  209.2220  153.7770 C   0  0  2  0  0  3  0  0  0  0  0  0
  159.2060  211.4220  154.8790 C   0  0  1  0  0  0  0  0  0  0  0  0
  155.4940  212.8440  153.8510 O   0  0  0  0  0  0  0  0  0  0  0  0
  159.9270  212.5510  155.6200 C   0  0  0  0  0  1  0  0  0  0  0  0
  156.8930  212.4450  156.2350 O   0  0  0  0  0  0  0  0  0  0  0  0
  156.9890  213.0070  154.6260 P   0  0  2  0  0  0  0  0  0  0  0  0
  160.2530  211.5200  152.6750 C   0  0  0  0  0  2  0  0  0  0  0  0
  159.0660  212.4880  152.7180 C   0  0  0  0  0  2  0  0  0  0  0  0
  160.2470  210.7240  154.0030 C   0  0  2  0  0  3  0  0  0  0  0  0
  157.4310  214.4520  154.6060 O   0  0  0  0  0  1  0  0  0  0  0  0
  158.4720  210.5620  155.9270 C   0  0  0  0  0  2  0  0  0  0  0  0
  158.2290  211.9390  153.8440 C   0  0  1  0  0  3  0  0  0  0  0  0
  157.0160  211.0390  156.1810 C   0  0  0  0  0  2  0  0  0  0  0  0
  162.4470  206.7360  152.8810 C   0  0  0  0  0  2  0  0  0  0  0  0
  163.0250  205.4480  152.3220 C   0  0  0  0  0  2  0  0  0  0  0  0
  161.9440  204.3840  152.2490 C   0  0  0  0  0  2  0  0  0  0  0  0
  162.0150  203.6380  150.9250 C   0  0  0  0  0  2  0  0  0  0  0  0
  161.2160  204.3840  149.8630 C   0  0  2  0  0  3  0  0  0  0  0  0
  161.7620  204.8060  144.5710 C   0  0  0  0  0  2  0  0  0  0  0  0
  160.0760  206.8490  149.9180 F   0  0  0  0  0  0  0  0  0  0  0  0
  160.8360  203.5130  148.6170 C   0  0  1  0  0  3  0  0  0  0  0  0
  161.1050  205.8130  145.5070 C   0  0  0  0  0  2  0  0  0  0  0  0
  161.3730  205.4570  146.9770 C   0  0  1  0  0  3  0  0  0  0  0  0
  161.2010  203.4490  144.8660 C   0  0  0  0  0  3  0  0  0  0  0  0
  161.0430  206.5180  148.9800 C   0  0  0  0  0  0  0  0  0  0  0  0
  160.4030  206.0640  147.7990 O   0  0  0  0  0  0  0  0  0  0  0  0
  161.0690  203.0500  146.1350 C   0  0  0  0  0  3  0  0  0  0  0  0
  161.9310  205.5490  149.5160 O   0  0  0  0  0  0  0  0  0  0  0  0
  161.7630  207.6660  148.6930 F   0  0  0  0  0  0  0  0  0  0  0  0
  161.5110  203.9310  147.2870 C   0  0  2  0  0  3  0  0  0  0  0  0
  159.8770  201.4070  149.1330 O   0  0  0  0  0  0  0  0  0  0  0  0
  160.8890  202.0260  148.8480 C   0  0  0  0  0  3  0  0  0  0  0  0
  2  1  1  0  0  0  0
  2  4  1  1  0  0  0
  3 20  1  1  0  0  0
  3  2  1  0  0  0  0
  6  5  1  0  0  0  0
  6  3  1  0  0  0  0
  7  5  1  6  0  0  0
  7 15  1  0  0  0  0
  7  1  1  0  0  0  0
  8 10  1  1  0  0  0
  8 17  1  0  0  0  0
 12  9  2  6  0  0  0
 12 11  1  0  0  0  0
 13 14  1  0  0  0  0
 15 13  1  6  0  0  0
 15  8  1  0  0  0  0
 16 12  1  0  0  0  0
 17 19  1  0  0  0  0
 18 14  1  6  0  0  0
 18 12  1  0  0  0  0
 18  8  1  0  0  0  0
 19 11  1  0  0  0  0
 21 20  1  0  0  0  0
 22 21  1  0  0  0  0
 23 22  1  0  0  0  0
 24 23  1  1  0  0  0
 25 30  1  0  0  0  0
 25 28  1  0  0  0  0
 27 38  1  1  0  0  0
 27 24  1  0  0  0  0
 29 28  1  6  0  0  0
 29 36  1  0  0  0  0
 29 32  1  0  0  0  0
 30 33  2  0  0  0  0
 31 34  1  0  0  0  0
 31 26  1  0  0  0  0
 32 31  1  0  0  0  0
 34 24  1  0  0  0  0
 35 31  1  0  0  0  0
 36 33  1  6  0  0  0
 36 27  1  0  0  0  0
 38 37  2  0  0  0  0
M  END
>  <MODEL>
8

>  <REMARK>
 VINA RESULT:      -5.9      1.383      2.173
  Name = 
  7 active torsions:
  status: ('A' for Active; 'I' for Inactive)
    1  A    between atoms: C_2  and  C_34
    2  A    between atoms: C_7  and  C_26
    3  A    between atoms: C_16  and  C_38
    4  A    between atoms: C_20  and  C_22
    5  A    between atoms: C_20  and  C_34
    6  A    between atoms: C_21  and  C_32
    7  A    between atoms: C_22  and  C_32
                            x       y       z     vdW  Elec       q    Type
                         _______ _______ _______ _____ _____    ______ ____

>  <TORSDO>
F 7

$$$$
=
 OpenBabel11072412173D

 38 42  0  0  1  0  0  0  0  0999 V2000
  161.5040  211.3210  152.6000 C   0  0  0  0  0  2  0  0  0  0  0  0
  162.4310  210.1170  152.7210 C   0  0  1  0  0  3  0  0  0  0  0  0
  161.6310  208.8070  152.6120 C   0  0  1  0  0  3  0  0  0  0  0  0
  163.4310  210.1790  151.7490 O   0  0  0  0  0  1  0  0  0  0  0  0
  159.6860  209.7890  153.3830 C   0  0  0  0  0  2  0  0  0  0  0  0
  160.6240  208.7540  153.6060 O   0  0  0  0  0  0  0  0  0  0  0  0
  160.3270  211.1720  153.5610 C   0  0  2  0  0  3  0  0  0  0  0  0
  158.8410  212.9820  154.6500 C   0  0  1  0  0  0  0  0  0  0  0  0
  155.9080  211.7310  157.2370 O   0  0  0  0  0  1  0  0  0  0  0  0
  158.5560  214.4520  154.3300 C   0  0  0  0  0  1  0  0  0  0  0  0
  157.8880  213.7010  157.2600 O   0  0  0  0  0  0  0  0  0  0  0  0
  156.6800  212.9320  156.3290 P   0  0  2  0  0  0  0  0  0  0  0  0
  158.0420  211.8650  152.6310 C   0  0  0  0  0  2  0  0  0  0  0  0
  156.8780  212.0360  153.6120 C   0  0  0  0  0  2  0  0  0  0  0  0
  159.3290  212.3280  153.3570 C   0  0  2  0  0  3  0  0  0  0  0  0
  155.6710  213.9480  155.8440 O   0  0  0  0  0  0  0  0  0  0  0  0
  159.7870  212.9380  155.8660 C   0  0  0  0  0  2  0  0  0  0  0  0
  157.5790  212.1970  154.9360 C   0  0  1  0  0  3  0  0  0  0  0  0
  159.0260  212.8660  157.2170 C   0  0  0  0  0  2  0  0  0  0  0  0
  161.0720  208.5380  151.2100 C   0  0  0  0  0  2  0  0  0  0  0  0
  161.9480  209.1710  150.1440 C   0  0  0  0  0  2  0  0  0  0  0  0
  161.8830  208.3520  148.8670 C   0  0  0  0  0  2  0  0  0  0  0  0
  162.2500  206.9010  149.1430 C   0  0  0  0  0  2  0  0  0  0  0  0
  161.4170  205.9770  148.2630 C   0  0  2  0  0  3  0  0  0  0  0  0
  161.4580  200.6920  147.5240 C   0  0  0  0  0  2  0  0  0  0  0  0
  160.5120  206.3010  145.7210 F   0  0  0  0  0  0  0  0  0  0  0  0
  160.8360  204.7290  149.0110 C   0  0  1  0  0  3  0  0  0  0  0  0
  160.9920  201.7520  146.5330 C   0  0  0  0  0  2  0  0  0  0  0  0
  161.3750  203.1610  147.0100 C   0  0  1  0  0  3  0  0  0  0  0  0
  160.8110  200.9640  148.8470 C   0  0  0  0  0  3  0  0  0  0  0  0
  161.3460  205.2470  146.0660 C   0  0  0  0  0  0  0  0  0  0  0  0
  160.5520  204.1160  146.3830 O   0  0  0  0  0  0  0  0  0  0  0  0
  160.7740  202.2140  149.3200 C   0  0  0  0  0  3  0  0  0  0  0  0
  162.1940  205.6260  147.1390 O   0  0  0  0  0  0  0  0  0  0  0  0
  162.1320  204.9530  144.9640 F   0  0  0  0  0  0  0  0  0  0  0  0
  161.4070  203.3620  148.5600 C   0  0  2  0  0  3  0  0  0  0  0  0
  161.5850  204.2770  151.2150 O   0  0  0  0  0  0  0  0  0  0  0  0
  160.7800  204.8640  150.5100 C   0  0  0  0  0  3  0  0  0  0  0  0
  1  2  1  0  0  0  0
  2  4  1  6  0  0  0
  3 20  1  6  0  0  0
  3  2  1  0  0  0  0
  3  6  1  0  0  0  0
  5  7  1  0  0  0  0
  5  6  1  0  0  0  0
  7  1  1  6  0  0  0
  8 10  1  6  0  0  0
  8 18  1  0  0  0  0
  8 17  1  0  0  0  0
 12 16  2  6  0  0  0
 12  9  1  0  0  0  0
 12 11  1  0  0  0  0
 13 14  1  0  0  0  0
 15 13  1  1  0  0  0
 15  7  1  0  0  0  0
 15  8  1  0  0  0  0
 17 19  1  0  0  0  0
 18 14  1  6  0  0  0
 18 12  1  0  0  0  0
 19 11  1  0  0  0  0
 21 20  1  0  0  0  0
 22 23  1  0  0  0  0
 22 21  1  0  0  0  0
 24 27  1  0  0  0  0
 24 23  1  1  0  0  0
 25 30  1  0  0  0  0
 26 31  1  0  0  0  0
 27 38  1  1  0  0  0
 28 25  1  0  0  0  0
 29 28  1  1  0  0  0
 29 36  1  0  0  0  0
 30 33  2  0  0  0  0
 31 32  1  0  0  0  0
 31 34  1  0  0  0  0
 32 29  1  0  0  0  0
 34 24  1  0  0  0  0
 35 31  1  0  0  0  0
 36 27  1  0  0  0  0
 36 33  1  1  0  0  0
 38 37  2  0  0  0  0
M  END
>  <MODEL>
9

>  <REMARK>
 VINA RESULT:      -5.8      1.549      2.376
  Name = 
  7 active torsions:
  status: ('A' for Active; 'I' for Inactive)
    1  A    between atoms: C_2  and  C_34
    2  A    between atoms: C_7  and  C_26
    3  A    between atoms: C_16  and  C_38
    4  A    between atoms: C_20  and  C_22
    5  A    between atoms: C_20  and  C_34
    6  A    between atoms: C_21  and  C_32
    7  A    between atoms: C_22  and  C_32
                            x       y       z     vdW  Elec       q    Type
                         _______ _______ _______ _____ _____    ______ ____

>  <TORSDO>
F 7

$$$$
