=
 OpenBabel11072413203D

 44 49  0  0  1  0  0  0  0  0999 V2000
  163.1900  207.2230  150.9060 C   0  0  0  0  0  3  0  0  0  0  0  0
  163.8310  211.4480  149.4380 C   0  0  0  0  0  2  0  0  0  0  0  0
  160.8180  209.2750  148.4370 C   0  0  0  0  0  3  0  0  0  0  0  0
  161.1110  203.9320  148.8520 N   0  0  0  0  0  2  0  0  0  0  0  0
  160.3740  208.0190  148.3300 C   0  0  0  0  0  3  0  0  0  0  0  0
  163.9550  206.7430  150.0280 O   0  0  0  0  0  0  0  0  0  0  0  0
  161.8580  209.9560  152.3470 C   0  0  0  0  0  2  0  0  0  0  0  0
  160.8930  207.6250  151.8580 C   0  0  2  0  0  3  0  0  0  0  0  0
  162.7460  211.4140  150.5030 C   0  0  2  0  0  3  0  0  0  0  0  0
  159.5150  209.5400  152.2570 O   0  0  0  0  0  1  0  0  0  0  0  0
  163.0000  210.1920  151.3750 C   0  0  0  0  0  2  0  0  0  0  0  0
  161.7660  207.0430  150.8370 N   0  0  0  0  0  0  0  0  0  0  0  0
  161.2560  206.8110  148.4190 C   0  0  1  0  0  3  0  0  0  0  0  0
  161.7210  204.7750  149.8740 C   0  0  0  0  0  2  0  0  0  0  0  0
  161.4740  204.4710  147.5460 C   0  0  0  0  0  2  0  0  0  0  0  0
  162.2610  209.6330  148.6110 C   0  0  0  0  0  2  0  0  0  0  0  0
  162.4140  211.0960  149.0450 C   0  0  2  0  0  0  0  0  0  0  0  0
  161.1380  206.1930  149.8240 C   0  0  1  0  0  3  0  0  0  0  0  0
  160.8000  205.8230  147.3470 C   0  0  0  0  0  2  0  0  0  0  0  0
  160.7340  209.1470  151.7060 C   0  0  1  0  0  3  0  0  0  0  0  0
  159.7450  211.8170  145.9150 C   0  0  0  0  0  2  0  0  0  0  0  0
  162.0180  213.0610  144.8760 C   0  0  1  0  0  3  0  0  0  0  0  0
  163.0880  213.8850  144.1850 C   0  0  0  0  0  1  0  0  0  0  0  0
  159.8870  213.2840  146.3250 C   0  0  1  0  0  3  0  0  0  0  0  0
  160.3860  212.6820  148.8110 C   0  0  1  0  0  3  0  0  0  0  0  0
  162.7360  213.3600  147.9000 C   0  0  0  0  0  2  0  0  0  0  0  0
  159.5450  213.4970  147.8100 C   0  0  0  0  0  2  0  0  0  0  0  0
  161.7580  212.2380  148.2630 C   0  0  1  0  0  3  0  0  0  0  0  0
  161.2340  213.9240  145.8770 C   0  0  1  0  0  3  0  0  0  0  0  0
  162.1110  214.4520  147.0280 C   0  0  0  0  0  2  0  0  0  0  0  0
  161.0740  212.4970  143.8170 C   0  0  0  0  0  2  0  0  0  0  0  0
  159.9600  211.6230  144.4110 C   0  0  0  0  0  2  0  0  0  0  0  0
  160.5100  213.4430  150.1260 C   0  0  0  0  0  2  0  0  0  0  0  0
  159.2040  213.4080  150.9030 C   0  0  0  0  0  2  0  0  0  0  0  0
  158.4720  212.8960  153.1340 N   0  0  0  0  0  2  0  0  0  0  0  0
  159.4210  212.8620  152.2740 C   0  0  0  0  0  3  0  0  0  0  0  0
  161.2710  207.1790  153.2680 C   0  0  0  0  0  2  0  0  0  0  0  0
  160.1040  207.2320  154.1310 N   0  0  0  0  0  2  0  0  0  0  0  0
  160.5910  207.4470  155.4820 C   0  0  0  0  0  2  0  0  0  0  0  0
  161.7380  210.8680  156.1410 C   0  0  0  0  0  3  0  0  0  0  0  0
  161.9880  209.5730  156.0400 C   0  0  0  0  0  2  0  0  0  0  0  0
  160.7360  208.9060  155.7340 C   0  0  0  0  0  0  0  0  0  0  0  0
  160.2860  211.1400  155.9050 C   0  0  0  0  0  3  0  0  0  0  0  0
  159.7490  209.7760  155.6310 C   0  0  0  0  0  3  0  0  0  0  0  0
  3 16  1  0  0  0  0
  4 14  1  0  0  0  0
  5 13  1  0  0  0  0
  5  3  2  0  0  0  0
  6  1  2  0  0  0  0
  8 37  1  1  0  0  0
  9  2  1  6  0  0  0
  9 11  1  0  0  0  0
 11  7  1  0  0  0  0
 12  1  1  0  0  0  0
 12  8  1  0  0  0  0
 13 19  1  6  0  0  0
 13 18  1  0  0  0  0
 15  4  1  0  0  0  0
 17 16  1  6  0  0  0
 17  2  1  0  0  0  0
 17  9  1  0  0  0  0
 18 14  1  6  0  0  0
 18 12  1  0  0  0  0
 19 15  1  0  0  0  0
 20  8  1  0  0  0  0
 20 10  1  1  0  0  0
 20  7  1  0  0  0  0
 22 23  1  6  0  0  0
 22 29  1  0  0  0  0
 24 21  1  1  0  0  0
 24 27  1  0  0  0  0
 25 33  1  1  0  0  0
 27 25  1  0  0  0  0
 28 26  1  1  0  0  0
 28 25  1  0  0  0  0
 28 17  1  0  0  0  0
 29 24  1  0  0  0  0
 29 30  1  1  0  0  0
 30 26  1  0  0  0  0
 31 32  1  0  0  0  0
 31 22  1  0  0  0  0
 32 21  1  0  0  0  0
 33 34  1  0  0  0  0
 34 36  1  0  0  0  0
 36 35  2  0  0  0  0
 37 38  1  0  0  0  0
 38 39  1  0  0  0  0
 39 42  1  0  0  0  0
 41 40  1  0  0  0  0
 42 41  1  0  0  0  0
 43 40  2  0  0  0  0
 44 42  2  0  0  0  0
 44 43  1  0  0  0  0
M  END
>  <MODEL>
1

>  <REMARK>
 VINA RESULT:       2.8      0.000      0.000
  Name = 
  8 active torsions:
  status: ('A' for Active; 'I' for Inactive)
    1  A    between atoms: C_6  and  C_25
    2  A    between atoms: C_6  and  C_33
    3  A    between atoms: C_16  and  C_42
    4  A    between atoms: C_17  and  N_18
    5  A    between atoms: C_17  and  C_19
    6  A    between atoms: N_18  and  C_42
    7  A    between atoms: C_22  and  C_25
    8  A    between atoms: C_32  and  C_35
                            x       y       z     vdW  Elec       q    Type
                         _______ _______ _______ _____ _____    ______ ____

>  <TORSDO>
F 8

$$$$
=
 OpenBabel11072413203D

 44 49  0  0  1  0  0  0  0  0999 V2000
  162.8330  203.9470  148.4480 C   0  0  0  0  0  3  0  0  0  0  0  0
  163.6270  207.2230  151.4570 C   0  0  0  0  0  2  0  0  0  0  0  0
  160.5180  207.1110  149.1930 C   0  0  0  0  0  3  0  0  0  0  0  0
  160.6000  204.2310  144.6650 N   0  0  0  0  0  2  0  0  0  0  0  0
  160.0230  206.6200  148.0540 C   0  0  0  0  0  3  0  0  0  0  0  0
  163.5680  204.4890  147.5810 O   0  0  0  0  0  0  0  0  0  0  0  0
  161.6280  203.9720  151.5900 C   0  0  0  0  0  2  0  0  0  0  0  0
  160.5650  203.3170  149.3440 C   0  0  2  0  0  3  0  0  0  0  0  0
  162.5540  206.2770  151.9710 C   0  0  2  0  0  3  0  0  0  0  0  0
  159.2700  203.8770  151.2760 O   0  0  0  0  0  1  0  0  0  0  0  0
  162.7680  204.9300  151.2940 C   0  0  0  0  0  2  0  0  0  0  0  0
  161.4020  203.9360  148.3150 N   0  0  0  0  0  0  0  0  0  0  0  0
  160.8570  205.9660  146.9940 C   0  0  1  0  0  3  0  0  0  0  0  0
  161.2560  203.7190  145.8650 C   0  0  0  0  0  2  0  0  0  0  0  0
  160.9700  205.6330  144.5120 C   0  0  0  0  0  2  0  0  0  0  0  0
  161.9770  207.1130  149.5310 C   0  0  0  0  0  2  0  0  0  0  0  0
  162.1930  207.4170  151.0190 C   0  0  2  0  0  0  0  0  0  0  0  0
  160.7290  204.4360  147.1140 C   0  0  1  0  0  3  0  0  0  0  0  0
  160.3490  206.4510  145.6380 C   0  0  0  0  0  2  0  0  0  0  0  0
  160.4660  204.1680  150.6200 C   0  0  1  0  0  3  0  0  0  0  0  0
  162.9410  210.2640  153.9820 C   0  0  0  0  0  2  0  0  0  0  0  0
  160.5990  209.1410  155.0060 C   0  0  1  0  0  3  0  0  0  0  0  0
  159.2900  208.7590  155.6700 C   0  0  0  0  0  1  0  0  0  0  0  0
  161.6620  210.9260  153.4640 C   0  0  1  0  0  3  0  0  0  0  0  0
  161.9930  209.9930  151.0530 C   0  0  1  0  0  3  0  0  0  0  0  0
  160.0840  208.4850  151.9970 C   0  0  0  0  0  2  0  0  0  0  0  0
  161.7400  211.2170  151.9560 C   0  0  0  0  0  2  0  0  0  0  0  0
  161.5750  208.6500  151.6850 C   0  0  1  0  0  3  0  0  0  0  0  0
  160.3620  210.1940  153.9110 C   0  0  1  0  0  3  0  0  0  0  0  0
  159.4860  209.6720  152.7570 C   0  0  0  0  0  2  0  0  0  0  0  0
  161.5460  209.6920  156.0690 C   0  0  0  0  0  2  0  0  0  0  0  0
  162.9160  210.0910  155.5020 C   0  0  0  0  0  2  0  0  0  0  0  0
  161.3500  210.2130  149.6880 C   0  0  0  0  0  2  0  0  0  0  0  0
  162.3470  210.8000  148.7020 C   0  0  0  0  0  2  0  0  0  0  0  0
  162.8260  212.9630  147.7730 N   0  0  0  0  0  2  0  0  0  0  0  0
  161.9720  212.1990  148.3440 C   0  0  0  0  0  3  0  0  0  0  0  0
  160.9410  201.8590  149.5990 C   0  0  0  0  0  2  0  0  0  0  0  0
  160.4590  201.0290  148.5090 N   0  0  0  0  0  2  0  0  0  0  0  0
  161.6250  200.4000  147.9130 C   0  0  0  0  0  2  0  0  0  0  0  0
  161.1220  198.3920  144.8860 C   0  0  0  0  0  3  0  0  0  0  0  0
  161.6690  198.5520  146.0800 C   0  0  0  0  0  2  0  0  0  0  0  0
  161.2700  199.8550  146.5750 C   0  0  0  0  0  0  0  0  0  0  0  0
  160.3170  199.5960  144.5150 C   0  0  0  0  0  3  0  0  0  0  0  0
  160.4810  200.4680  145.7130 C   0  0  0  0  0  3  0  0  0  0  0  0
  2  9  1  0  0  0  0
  3 16  1  0  0  0  0
  4 14  1  0  0  0  0
  5  3  2  0  0  0  0
  6  1  2  0  0  0  0
  8 37  1  1  0  0  0
  8 20  1  0  0  0  0
  9 11  1  6  0  0  0
 11  7  1  0  0  0  0
 12  1  1  0  0  0  0
 12  8  1  0  0  0  0
 13 19  1  6  0  0  0
 13 18  1  0  0  0  0
 13  5  1  0  0  0  0
 15  4  1  0  0  0  0
 15 19  1  0  0  0  0
 17 16  1  6  0  0  0
 17  2  1  0  0  0  0
 17 28  1  0  0  0  0
 17  9  1  0  0  0  0
 18 14  1  6  0  0  0
 18 12  1  0  0  0  0
 20 10  1  1  0  0  0
 20  7  1  0  0  0  0
 21 32  1  0  0  0  0
 22 23  1  1  0  0  0
 22 31  1  0  0  0  0
 24 27  1  6  0  0  0
 24 29  1  0  0  0  0
 24 21  1  0  0  0  0
 25 33  1  6  0  0  0
 25 28  1  0  0  0  0
 25 27  1  0  0  0  0
 26 30  1  0  0  0  0
 28 26  1  6  0  0  0
 29 30  1  6  0  0  0
 29 22  1  0  0  0  0
 32 31  1  0  0  0  0
 34 33  1  0  0  0  0
 35 36  2  0  0  0  0
 36 34  1  0  0  0  0
 38 37  1  0  0  0  0
 39 38  1  0  0  0  0
 40 41  1  0  0  0  0
 41 42  1  0  0  0  0
 42 39  1  0  0  0  0
 43 40  2  0  0  0  0
 43 44  1  0  0  0  0
 44 42  2  0  0  0  0
M  END
>  <MODEL>
2

>  <REMARK>
 VINA RESULT:       2.8      2.876      7.917
  Name = 
  8 active torsions:
  status: ('A' for Active; 'I' for Inactive)
    1  A    between atoms: C_6  and  C_25
    2  A    between atoms: C_6  and  C_33
    3  A    between atoms: C_16  and  C_42
    4  A    between atoms: C_17  and  N_18
    5  A    between atoms: C_17  and  C_19
    6  A    between atoms: N_18  and  C_42
    7  A    between atoms: C_22  and  C_25
    8  A    between atoms: C_32  and  C_35
                            x       y       z     vdW  Elec       q    Type
                         _______ _______ _______ _____ _____    ______ ____

>  <TORSDO>
F 8

$$$$
=
 OpenBabel11072413203D

 44 49  0  0  1  0  0  0  0  0999 V2000
  162.6850  210.8540  153.2760 C   0  0  0  0  0  3  0  0  0  0  0  0
  163.2930  208.3280  149.5800 C   0  0  0  0  0  2  0  0  0  0  0  0
  160.7380  207.5000  152.3350 C   0  0  0  0  0  3  0  0  0  0  0  0
  161.3500  209.5430  157.2610 N   0  0  0  0  0  2  0  0  0  0  0  0
  160.4260  207.6960  153.6190 C   0  0  0  0  0  3  0  0  0  0  0  0
  163.6540  210.3130  153.8730 O   0  0  0  0  0  0  0  0  0  0  0  0
  160.8700  211.1470  150.4590 C   0  0  0  0  0  2  0  0  0  0  0  0
  160.2140  211.2130  152.9430 C   0  0  2  0  0  3  0  0  0  0  0  0
  162.0130  209.1420  149.4640 C   0  0  2  0  0  3  0  0  0  0  0  0
  158.6390  210.7650  151.1980 O   0  0  0  0  0  1  0  0  0  0  0  0
  162.1700  210.3700  150.3490 C   0  0  0  0  0  2  0  0  0  0  0  0
  161.3260  210.5880  153.6610 N   0  0  0  0  0  0  0  0  0  0  0  0
  161.3600  208.3000  154.6230 C   0  0  1  0  0  3  0  0  0  0  0  0
  161.6630  210.3580  156.0910 C   0  0  0  0  0  2  0  0  0  0  0  0
  161.9390  208.2230  157.0620 C   0  0  0  0  0  2  0  0  0  0  0  0
  162.0800  207.8150  151.7500 C   0  0  0  0  0  2  0  0  0  0  0  0
  162.0220  207.8110  150.2170 C   0  0  2  0  0  0  0  0  0  0  0  0
  160.9950  209.7800  154.8370 C   0  0  1  0  0  3  0  0  0  0  0  0
  161.2200  207.5100  155.9230 C   0  0  0  0  0  2  0  0  0  0  0  0
  159.9740  210.5860  151.5600 C   0  0  1  0  0  3  0  0  0  0  0  0
  163.1580  204.8240  147.5290 C   0  0  0  0  0  2  0  0  0  0  0  0
  161.2250  206.1180  145.9860 C   0  0  1  0  0  3  0  0  0  0  0  0
  160.1410  206.5940  145.0370 C   0  0  0  0  0  1  0  0  0  0  0  0
  161.7390  204.2920  147.7460 C   0  0  1  0  0  3  0  0  0  0  0  0
  161.5990  205.2630  150.1600 C   0  0  1  0  0  3  0  0  0  0  0  0
  160.1020  206.9050  148.7920 C   0  0  0  0  0  2  0  0  0  0  0  0
  161.4450  204.0400  149.2340 C   0  0  0  0  0  2  0  0  0  0  0  0
  161.4610  206.6190  149.4380 C   0  0  1  0  0  3  0  0  0  0  0  0
  160.6490  205.1230  147.0060 C   0  0  1  0  0  3  0  0  0  0  0  0
  159.5850  205.7540  147.9250 C   0  0  0  0  0  2  0  0  0  0  0  0
  162.3330  205.4550  145.1730 C   0  0  0  0  0  2  0  0  0  0  0  0
  163.4960  204.9540  146.0410 C   0  0  0  0  0  2  0  0  0  0  0  0
  160.6450  205.1400  151.3430 C   0  0  0  0  0  2  0  0  0  0  0  0
  161.2160  204.2250  152.4150 C   0  0  0  0  0  2  0  0  0  0  0  0
  161.1940  201.9850  151.5490 N   0  0  0  0  0  2  0  0  0  0  0  0
  160.6350  202.8560  152.3020 C   0  0  0  0  0  3  0  0  0  0  0  0
  160.3190  212.7360  152.9230 C   0  0  0  0  0  2  0  0  0  0  0  0
  159.0160  213.3150  152.6480 N   0  0  0  0  0  2  0  0  0  0  0  0
  159.2210  214.3610  151.6610 C   0  0  0  0  0  2  0  0  0  0  0  0
  158.0340  213.5910  148.2780 C   0  0  0  0  0  3  0  0  0  0  0  0
  159.0100  213.9370  149.1000 C   0  0  0  0  0  2  0  0  0  0  0  0
  158.4440  214.0470  150.4320 C   0  0  0  0  0  0  0  0  0  0  0  0
  156.7470  213.4470  149.0250 C   0  0  0  0  0  3  0  0  0  0  0  0
  157.1580  213.7540  150.4250 C   0  0  0  0  0  3  0  0  0  0  0  0
  1 12  1  0  0  0  0
  1  6  2  0  0  0  0
  3  5  2  0  0  0  0
  7 20  1  0  0  0  0
  8 37  1  6  0  0  0
  8 12  1  0  0  0  0
  9  2  1  6  0  0  0
  9 17  1  0  0  0  0
  9 11  1  0  0  0  0
 11  7  1  0  0  0  0
 12 18  1  0  0  0  0
 13  5  1  6  0  0  0
 13 18  1  0  0  0  0
 13 19  1  0  0  0  0
 14  4  1  0  0  0  0
 15  4  1  0  0  0  0
 16  3  1  0  0  0  0
 17  2  1  6  0  0  0
 17 16  1  0  0  0  0
 18 14  1  1  0  0  0
 19 15  1  0  0  0  0
 20 10  1  6  0  0  0
 20  8  1  0  0  0  0
 22 23  1  6  0  0  0
 22 29  1  0  0  0  0
 24 21  1  1  0  0  0
 24 27  1  0  0  0  0
 25 33  1  1  0  0  0
 27 25  1  0  0  0  0
 28 26  1  1  0  0  0
 28 25  1  0  0  0  0
 28 17  1  0  0  0  0
 29 24  1  0  0  0  0
 29 30  1  1  0  0  0
 30 26  1  0  0  0  0
 31 22  1  0  0  0  0
 31 32  1  0  0  0  0
 32 21  1  0  0  0  0
 33 34  1  0  0  0  0
 35 36  2  0  0  0  0
 36 34  1  0  0  0  0
 38 37  1  0  0  0  0
 39 38  1  0  0  0  0
 40 43  2  0  0  0  0
 40 41  1  0  0  0  0
 41 42  1  0  0  0  0
 42 39  1  0  0  0  0
 43 44  1  0  0  0  0
 44 42  2  0  0  0  0
M  END
>  <MODEL>
3

>  <REMARK>
 VINA RESULT:       3.3      2.673      7.153
  Name = 
  8 active torsions:
  status: ('A' for Active; 'I' for Inactive)
    1  A    between atoms: C_6  and  C_25
    2  A    between atoms: C_6  and  C_33
    3  A    between atoms: C_16  and  C_42
    4  A    between atoms: C_17  and  N_18
    5  A    between atoms: C_17  and  C_19
    6  A    between atoms: N_18  and  C_42
    7  A    between atoms: C_22  and  C_25
    8  A    between atoms: C_32  and  C_35
                            x       y       z     vdW  Elec       q    Type
                         _______ _______ _______ _____ _____    ______ ____

>  <TORSDO>
F 8

$$$$
=
 OpenBabel11072413203D

 44 49  0  0  1  0  0  0  0  0999 V2000
  162.6800  210.8490  153.2730 C   0  0  0  0  0  3  0  0  0  0  0  0
  163.3130  208.3280  149.5780 C   0  0  0  0  0  2  0  0  0  0  0  0
  160.7740  207.4700  152.3380 C   0  0  0  0  0  3  0  0  0  0  0  0
  161.3690  209.5240  157.2610 N   0  0  0  0  0  2  0  0  0  0  0  0
  160.4620  207.6630  153.6230 C   0  0  0  0  0  3  0  0  0  0  0  0
  163.6570  210.3210  153.8690 O   0  0  0  0  0  0  0  0  0  0  0  0
  160.8570  211.1160  150.4580 C   0  0  0  0  0  2  0  0  0  0  0  0
  160.2050  211.1760  152.9430 C   0  0  2  0  0  3  0  0  0  0  0  0
  162.0230  209.1250  149.4630 C   0  0  2  0  0  3  0  0  0  0  0  0
  158.6320  210.7070  151.2020 O   0  0  0  0  0  1  0  0  0  0  0  0
  162.1660  210.3560  150.3470 C   0  0  0  0  0  2  0  0  0  0  0  0
  161.3260  210.5660  153.6600 N   0  0  0  0  0  0  0  0  0  0  0  0
  161.3900  208.2790  154.6240 C   0  0  1  0  0  3  0  0  0  0  0  0
  161.6690  210.3420  156.0900 C   0  0  0  0  0  2  0  0  0  0  0  0
  161.9740  208.2120  157.0620 C   0  0  0  0  0  2  0  0  0  0  0  0
  162.1100  207.8020  151.7500 C   0  0  0  0  0  2  0  0  0  0  0  0
  162.0510  207.7950  150.2170 C   0  0  2  0  0  0  0  0  0  0  0  0
  161.0070  209.7550  154.8370 C   0  0  1  0  0  3  0  0  0  0  0  0
  161.2620  207.4890  155.9250 C   0  0  0  0  0  2  0  0  0  0  0  0
  159.9700  210.5450  151.5620 C   0  0  1  0  0  3  0  0  0  0  0  0
  163.1990  204.8700  147.4670 C   0  0  0  0  0  2  0  0  0  0  0  0
  161.1890  206.1230  145.9910 C   0  0  1  0  0  3  0  0  0  0  0  0
  160.0670  206.5780  145.0760 C   0  0  0  0  0  1  0  0  0  0  0  0
  161.8020  204.2950  147.7150 C   0  0  1  0  0  3  0  0  0  0  0  0
  161.6990  205.2360  150.1430 C   0  0  1  0  0  3  0  0  0  0  0  0
  160.1190  206.8480  148.8330 C   0  0  0  0  0  2  0  0  0  0  0  0
  161.5560  204.0190  149.2080 C   0  0  0  0  0  2  0  0  0  0  0  0
  161.5030  206.5950  149.4400 C   0  0  1  0  0  3  0  0  0  0  0  0
  160.6690  205.1010  147.0150 C   0  0  1  0  0  3  0  0  0  0  0  0
  159.6130  205.6920  147.9680 C   0  0  0  0  0  2  0  0  0  0  0  0
  162.2940  205.5010  145.1410 C   0  0  0  0  0  2  0  0  0  0  0  0
  163.4930  205.0250  145.9730 C   0  0  0  0  0  2  0  0  0  0  0  0
  160.7810  205.0740  151.3500 C   0  0  0  0  0  2  0  0  0  0  0  0
  160.1180  203.7060  151.3540 C   0  0  0  0  0  2  0  0  0  0  0  0
  161.6440  201.8670  151.6010 N   0  0  0  0  0  2  0  0  0  0  0  0
  160.9060  202.7420  152.1750 C   0  0  0  0  0  3  0  0  0  0  0  0
  160.2900  212.7010  152.9220 C   0  0  0  0  0  2  0  0  0  0  0  0
  159.0750  213.2690  153.4780 N   0  0  0  0  0  2  0  0  0  0  0  0
  159.1230  213.0410  154.9120 C   0  0  0  0  0  2  0  0  0  0  0  0
  155.6020  212.8520  155.9190 C   0  0  0  0  0  3  0  0  0  0  0  0
  156.6400  213.5580  155.5020 C   0  0  0  0  0  3  0  0  0  0  0  0
  157.7730  212.6560  155.4020 C   0  0  0  0  0  0  0  0  0  0  0  0
  155.9900  211.4220  156.1220 C   0  0  0  0  0  2  0  0  0  0  0  0
  157.4290  211.4250  155.7310 C   0  0  0  0  0  3  0  0  0  0  0  0
  1 12  1  0  0  0  0
  1  6  2  0  0  0  0
  3  5  2  0  0  0  0
  7 20  1  0  0  0  0
  8 37  1  6  0  0  0
  8 12  1  0  0  0  0
  9  2  1  6  0  0  0
  9 17  1  0  0  0  0
  9 11  1  0  0  0  0
 11  7  1  0  0  0  0
 12 18  1  0  0  0  0
 13  5  1  6  0  0  0
 13 18  1  0  0  0  0
 13 19  1  0  0  0  0
 14  4  1  0  0  0  0
 15  4  1  0  0  0  0
 16  3  1  0  0  0  0
 17  2  1  6  0  0  0
 17 16  1  0  0  0  0
 18 14  1  1  0  0  0
 19 15  1  0  0  0  0
 20 10  1  6  0  0  0
 20  8  1  0  0  0  0
 22 23  1  6  0  0  0
 22 29  1  0  0  0  0
 24 21  1  1  0  0  0
 24 27  1  0  0  0  0
 25 33  1  1  0  0  0
 27 25  1  0  0  0  0
 28 26  1  1  0  0  0
 28 25  1  0  0  0  0
 28 17  1  0  0  0  0
 29 24  1  0  0  0  0
 29 30  1  1  0  0  0
 30 26  1  0  0  0  0
 31 32  1  0  0  0  0
 31 22  1  0  0  0  0
 32 21  1  0  0  0  0
 33 34  1  0  0  0  0
 34 36  1  0  0  0  0
 35 36  2  0  0  0  0
 37 38  1  0  0  0  0
 38 39  1  0  0  0  0
 39 42  1  0  0  0  0
 40 43  1  0  0  0  0
 41 40  2  0  0  0  0
 42 41  1  0  0  0  0
 42 44  2  0  0  0  0
 44 43  1  0  0  0  0
M  END
>  <MODEL>
4

>  <REMARK>
 VINA RESULT:       3.6      3.074      6.801
  Name = 
  8 active torsions:
  status: ('A' for Active; 'I' for Inactive)
    1  A    between atoms: C_6  and  C_25
    2  A    between atoms: C_6  and  C_33
    3  A    between atoms: C_16  and  C_42
    4  A    between atoms: C_17  and  N_18
    5  A    between atoms: C_17  and  C_19
    6  A    between atoms: N_18  and  C_42
    7  A    between atoms: C_22  and  C_25
    8  A    between atoms: C_32  and  C_35
                            x       y       z     vdW  Elec       q    Type
                         _______ _______ _______ _____ _____    ______ ____

>  <TORSDO>
F 8

$$$$
=
 OpenBabel11072413203D

 44 49  0  0  1  0  0  0  0  0999 V2000
  160.5250  207.5090  149.9530 C   0  0  0  0  0  3  0  0  0  0  0  0
  158.5810  210.8640  152.2720 C   0  0  0  0  0  2  0  0  0  0  0  0
  161.0590  208.3580  153.8160 C   0  0  0  0  0  3  0  0  0  0  0  0
  161.8750  203.6020  151.4670 N   0  0  0  0  0  2  0  0  0  0  0  0
  161.5950  207.1420  153.6840 C   0  0  0  0  0  3  0  0  0  0  0  0
  159.5230  206.7570  150.0930 O   0  0  0  0  0  0  0  0  0  0  0  0
  161.9180  210.5320  150.4440 C   0  0  0  0  0  2  0  0  0  0  0  0
  162.8970  208.1570  150.4990 C   0  0  2  0  0  3  0  0  0  0  0  0
  160.0320  211.2010  151.9650 C   0  0  2  0  0  3  0  0  0  0  0  0
  163.9650  210.0230  151.5480 O   0  0  0  0  0  1  0  0  0  0  0  0
  160.4290  210.4190  150.7200 C   0  0  0  0  0  2  0  0  0  0  0  0
  161.7510  207.2600  150.6610 N   0  0  0  0  0  0  0  0  0  0  0  0
  161.0730  206.0960  152.7460 C   0  0  1  0  0  3  0  0  0  0  0  0
  161.6990  204.7970  150.6480 C   0  0  0  0  0  2  0  0  0  0  0  0
  160.8500  203.6110  152.5040 C   0  0  0  0  0  2  0  0  0  0  0  0
  159.8380  208.8110  153.0780 C   0  0  0  0  0  2  0  0  0  0  0  0
  159.6750  210.3330  153.1720 C   0  0  2  0  0  0  0  0  0  0  0  0
  161.9470  206.0620  151.4790 C   0  0  1  0  0  3  0  0  0  0  0  0
  161.1160  204.7550  153.4750 C   0  0  0  0  0  2  0  0  0  0  0  0
  162.7130  209.4950  151.2320 C   0  0  1  0  0  3  0  0  0  0  0  0
  157.7540  210.3790  156.8800 C   0  0  0  0  0  2  0  0  0  0  0  0
  157.1800  212.9770  156.0340 C   0  0  1  0  0  3  0  0  0  0  0  0
  156.8600  214.4450  155.8230 C   0  0  0  0  0  1  0  0  0  0  0  0
  158.8270  211.4020  157.2600 C   0  0  1  0  0  3  0  0  0  0  0  0
  160.5650  210.3990  155.5970 C   0  0  1  0  0  3  0  0  0  0  0  0
  159.8030  212.5810  154.3860 C   0  0  0  0  0  2  0  0  0  0  0  0
  160.2460  210.8520  157.0360 C   0  0  0  0  0  2  0  0  0  0  0  0
  159.6810  211.0600  154.5200 C   0  0  1  0  0  3  0  0  0  0  0  0
  158.5800  212.8130  156.6470 C   0  0  1  0  0  3  0  0  0  0  0  0
  159.7030  213.3200  155.7230 C   0  0  0  0  0  2  0  0  0  0  0  0
  156.1270  212.3730  156.9600 C   0  0  0  0  0  2  0  0  0  0  0  0
  156.3480  210.8760  157.2230 C   0  0  0  0  0  2  0  0  0  0  0  0
  162.0520  210.5820  155.3130 C   0  0  0  0  0  2  0  0  0  0  0  0
  162.8590  210.5840  156.6020 C   0  0  0  0  0  2  0  0  0  0  0  0
  164.6500  212.0460  157.2550 N   0  0  0  0  0  2  0  0  0  0  0  0
  164.1900  211.2230  156.3890 C   0  0  0  0  0  3  0  0  0  0  0  0
  163.3170  208.3030  149.0370 C   0  0  0  0  0  2  0  0  0  0  0  0
  162.3500  207.6410  148.1790 N   0  0  0  0  0  2  0  0  0  0  0  0
  162.9510  206.3860  147.7620 C   0  0  0  0  0  2  0  0  0  0  0  0
  160.4060  205.4470  145.2930 C   0  0  0  0  0  3  0  0  0  0  0  0
  160.9100  206.3250  146.1460 C   0  0  0  0  0  2  0  0  0  0  0  0
  162.0630  205.7110  146.7780 C   0  0  0  0  0  0  0  0  0  0  0  0
  161.2070  204.1850  145.3090 C   0  0  0  0  0  3  0  0  0  0  0  0
  162.2700  204.4960  146.3070 C   0  0  0  0  0  3  0  0  0  0  0  0
  1  6  2  0  0  0  0
  1 12  1  0  0  0  0
  4 15  1  0  0  0  0
  5  3  2  0  0  0  0
  7 11  1  0  0  0  0
  7 20  1  0  0  0  0
  8 37  1  6  0  0  0
  8 12  1  0  0  0  0
  8 20  1  0  0  0  0
  9 11  1  6  0  0  0
  9  2  1  0  0  0  0
  9 17  1  0  0  0  0
 12 18  1  0  0  0  0
 13 19  1  1  0  0  0
 13  5  1  0  0  0  0
 14  4  1  0  0  0  0
 15 19  1  0  0  0  0
 16 17  1  0  0  0  0
 16  3  1  0  0  0  0
 17  2  1  6  0  0  0
 17 28  1  0  0  0  0
 18 14  1  6  0  0  0
 18 13  1  0  0  0  0
 20 10  1  6  0  0  0
 21 32  1  0  0  0  0
 22 23  1  1  0  0  0
 22 29  1  0  0  0  0
 22 31  1  0  0  0  0
 24 21  1  6  0  0  0
 25 33  1  6  0  0  0
 25 27  1  0  0  0  0
 26 30  1  0  0  0  0
 27 24  1  0  0  0  0
 28 26  1  6  0  0  0
 28 25  1  0  0  0  0
 29 30  1  6  0  0  0
 29 24  1  0  0  0  0
 31 32  1  0  0  0  0
 33 34  1  0  0  0  0
 36 34  1  0  0  0  0
 36 35  2  0  0  0  0
 38 37  1  0  0  0  0
 39 38  1  0  0  0  0
 40 43  2  0  0  0  0
 40 41  1  0  0  0  0
 41 42  1  0  0  0  0
 42 39  1  0  0  0  0
 43 44  1  0  0  0  0
 44 42  2  0  0  0  0
M  END
>  <MODEL>
5

>  <REMARK>
 VINA RESULT:       4.4      3.353      7.791
  Name = 
  8 active torsions:
  status: ('A' for Active; 'I' for Inactive)
    1  A    between atoms: C_6  and  C_25
    2  A    between atoms: C_6  and  C_33
    3  A    between atoms: C_16  and  C_42
    4  A    between atoms: C_17  and  N_18
    5  A    between atoms: C_17  and  C_19
    6  A    between atoms: N_18  and  C_42
    7  A    between atoms: C_22  and  C_25
    8  A    between atoms: C_32  and  C_35
                            x       y       z     vdW  Elec       q    Type
                         _______ _______ _______ _____ _____    ______ ____

>  <TORSDO>
F 8

$$$$
=
 OpenBabel11072413203D

 44 49  0  0  1  0  0  0  0  0999 V2000
  163.3600  206.6710  149.9320 C   0  0  0  0  0  3  0  0  0  0  0  0
  163.7780  211.1440  149.4490 C   0  0  0  0  0  2  0  0  0  0  0  0
  160.8520  209.1050  148.0060 C   0  0  0  0  0  3  0  0  0  0  0  0
  161.3990  203.8270  147.2040 N   0  0  0  0  0  2  0  0  0  0  0  0
  160.4650  207.8860  147.6210 C   0  0  0  0  0  3  0  0  0  0  0  0
  164.1310  206.4380  148.9630 O   0  0  0  0  0  0  0  0  0  0  0  0
  161.9290  208.9410  151.9620 C   0  0  0  0  0  2  0  0  0  0  0  0
  161.0640  206.7360  150.9660 C   0  0  2  0  0  3  0  0  0  0  0  0
  162.7160  210.8180  150.4870 C   0  0  2  0  0  3  0  0  0  0  0  0
  159.6060  208.4420  151.7960 O   0  0  0  0  0  1  0  0  0  0  0  0
  163.0410  209.4450  151.0590 C   0  0  0  0  0  2  0  0  0  0  0  0
  161.9450  206.4410  149.8350 N   0  0  0  0  0  0  0  0  0  0  0  0
  161.4040  206.7340  147.4300 C   0  0  1  0  0  3  0  0  0  0  0  0
  161.9880  204.4480  148.3860 C   0  0  0  0  0  2  0  0  0  0  0  0
  161.7140  204.6630  146.0510 C   0  0  0  0  0  2  0  0  0  0  0  0
  162.2800  209.4860  148.2460 C   0  0  0  0  0  2  0  0  0  0  0  0
  162.3720  210.8200  148.9970 C   0  0  2  0  0  0  0  0  0  0  0  0
  161.3390  205.8100  148.6600 C   0  0  1  0  0  3  0  0  0  0  0  0
  160.9750  205.9900  146.1670 C   0  0  0  0  0  2  0  0  0  0  0  0
  160.8320  208.2420  151.1620 C   0  0  1  0  0  3  0  0  0  0  0  0
  159.3330  212.0400  146.4060 C   0  0  0  0  0  2  0  0  0  0  0  0
  161.4810  213.4160  145.2730 C   0  0  1  0  0  3  0  0  0  0  0  0
  162.4730  214.3310  144.5800 C   0  0  0  0  0  1  0  0  0  0  0  0
  159.5690  213.4240  147.0160 C   0  0  1  0  0  3  0  0  0  0  0  0
  160.3770  212.4360  149.2870 C   0  0  1  0  0  3  0  0  0  0  0  0
  162.6020  213.2330  148.1820 C   0  0  0  0  0  2  0  0  0  0  0  0
  159.4330  213.4040  148.5480 C   0  0  0  0  0  2  0  0  0  0  0  0
  161.6510  212.0740  148.4970 C   0  0  1  0  0  3  0  0  0  0  0  0
  160.8620  214.1170  146.4930 C   0  0  1  0  0  3  0  0  0  0  0  0
  161.8980  214.4530  147.5820 C   0  0  0  0  0  2  0  0  0  0  0  0
  160.3900  213.0310  144.2780 C   0  0  0  0  0  2  0  0  0  0  0  0
  159.3400  212.0830  144.8760 C   0  0  0  0  0  2  0  0  0  0  0  0
  160.6950  212.9810  150.6750 C   0  0  0  0  0  2  0  0  0  0  0  0
  159.4680  212.9450  151.5720 C   0  0  0  0  0  2  0  0  0  0  0  0
  159.9040  211.8750  153.6790 N   0  0  0  0  0  2  0  0  0  0  0  0
  159.5050  211.7530  152.4680 C   0  0  0  0  0  3  0  0  0  0  0  0
  161.4880  206.0030  152.2380 C   0  0  0  0  0  2  0  0  0  0  0  0
  161.9120  204.6540  151.9100 N   0  0  0  0  0  2  0  0  0  0  0  0
  160.7670  203.7890  152.1320 C   0  0  0  0  0  2  0  0  0  0  0  0
  161.2010  200.9590  149.8390 C   0  0  0  0  0  3  0  0  0  0  0  0
  161.6210  201.6800  150.8660 C   0  0  0  0  0  2  0  0  0  0  0  0
  160.6880  202.7760  151.0450 C   0  0  0  0  0  0  0  0  0  0  0  0
  159.9470  201.5420  149.2700 C   0  0  0  0  0  3  0  0  0  0  0  0
  159.7100  202.7140  150.1610 C   0  0  0  0  0  3  0  0  0  0  0  0
  3 16  1  0  0  0  0
  4 14  1  0  0  0  0
  5  3  2  0  0  0  0
  6  1  2  0  0  0  0
  8 20  1  0  0  0  0
  8 37  1  1  0  0  0
  9  2  1  6  0  0  0
  9 11  1  0  0  0  0
 11  7  1  0  0  0  0
 12  1  1  0  0  0  0
 12  8  1  0  0  0  0
 13 19  1  6  0  0  0
 13  5  1  0  0  0  0
 13 18  1  0  0  0  0
 15 19  1  0  0  0  0
 15  4  1  0  0  0  0
 17 16  1  6  0  0  0
 17  2  1  0  0  0  0
 17  9  1  0  0  0  0
 18 14  1  6  0  0  0
 18 12  1  0  0  0  0
 20 10  1  1  0  0  0
 20  7  1  0  0  0  0
 22 23  1  6  0  0  0
 22 29  1  0  0  0  0
 24 21  1  1  0  0  0
 24 27  1  0  0  0  0
 25 33  1  1  0  0  0
 27 25  1  0  0  0  0
 28 26  1  1  0  0  0
 28 17  1  0  0  0  0
 28 25  1  0  0  0  0
 29 24  1  0  0  0  0
 29 30  1  1  0  0  0
 30 26  1  0  0  0  0
 31 32  1  0  0  0  0
 31 22  1  0  0  0  0
 32 21  1  0  0  0  0
 33 34  1  0  0  0  0
 34 36  1  0  0  0  0
 36 35  2  0  0  0  0
 38 39  1  0  0  0  0
 38 37  1  0  0  0  0
 40 41  1  0  0  0  0
 41 42  1  0  0  0  0
 42 39  1  0  0  0  0
 43 40  2  0  0  0  0
 43 44  1  0  0  0  0
 44 42  2  0  0  0  0
M  END
>  <MODEL>
6

>  <REMARK>
 VINA RESULT:       4.8      1.792      3.630
  Name = 
  8 active torsions:
  status: ('A' for Active; 'I' for Inactive)
    1  A    between atoms: C_6  and  C_25
    2  A    between atoms: C_6  and  C_33
    3  A    between atoms: C_16  and  C_42
    4  A    between atoms: C_17  and  N_18
    5  A    between atoms: C_17  and  C_19
    6  A    between atoms: N_18  and  C_42
    7  A    between atoms: C_22  and  C_25
    8  A    between atoms: C_32  and  C_35
                            x       y       z     vdW  Elec       q    Type
                         _______ _______ _______ _____ _____    ______ ____

>  <TORSDO>
F 8

$$$$
=
 OpenBabel11072413203D

 44 49  0  0  1  0  0  0  0  0999 V2000
  163.5450  206.7010  149.5450 C   0  0  0  0  0  3  0  0  0  0  0  0
  163.5140  211.1890  149.0320 C   0  0  0  0  0  2  0  0  0  0  0  0
  160.7420  208.8710  147.7120 C   0  0  0  0  0  3  0  0  0  0  0  0
  161.7600  203.6630  146.9060 N   0  0  0  0  0  2  0  0  0  0  0  0
  160.4580  207.6180  147.3470 C   0  0  0  0  0  3  0  0  0  0  0  0
  164.2950  206.5360  148.5470 O   0  0  0  0  0  0  0  0  0  0  0  0
  161.9830  208.8380  151.6220 C   0  0  0  0  0  2  0  0  0  0  0  0
  161.2950  206.5530  150.6690 C   0  0  2  0  0  3  0  0  0  0  0  0
  162.5290  210.7710  150.1120 C   0  0  2  0  0  3  0  0  0  0  0  0
  159.7150  208.1180  151.5510 O   0  0  0  0  0  1  0  0  0  0  0  0
  163.0060  209.4390  150.6750 C   0  0  0  0  0  2  0  0  0  0  0  0
  162.1550  206.3360  149.5040 N   0  0  0  0  0  0  0  0  0  0  0  0
  161.4950  206.5590  147.1220 C   0  0  1  0  0  3  0  0  0  0  0  0
  162.3320  204.3460  148.0620 C   0  0  0  0  0  2  0  0  0  0  0  0
  161.9480  204.5180  145.7380 C   0  0  0  0  0  2  0  0  0  0  0  0
  162.1350  209.3880  147.8940 C   0  0  0  0  0  2  0  0  0  0  0  0
  162.1290  210.7290  148.6370 C   0  0  2  0  0  0  0  0  0  0  0  0
  161.5670  205.6420  148.3560 C   0  0  1  0  0  3  0  0  0  0  0  0
  161.0900  205.7690  145.8790 C   0  0  0  0  0  2  0  0  0  0  0  0
  160.9280  208.0320  150.8690 C   0  0  1  0  0  3  0  0  0  0  0  0
  160.2600  214.1960  150.0260 C   0  0  0  0  0  2  0  0  0  0  0  0
  158.0250  212.8180  149.0810 C   0  0  1  0  0  3  0  0  0  0  0  0
  156.7090  212.3000  148.5310 C   0  0  0  0  0  1  0  0  0  0  0  0
  159.9590  214.4510  148.5480 C   0  0  1  0  0  3  0  0  0  0  0  0
  162.0760  213.1570  147.7520 C   0  0  1  0  0  3  0  0  0  0  0  0
  160.1440  211.4880  147.2130 C   0  0  0  0  0  2  0  0  0  0  0  0
  161.2390  214.4500  147.6960 C   0  0  0  0  0  2  0  0  0  0  0  0
  161.2720  211.9060  148.1620 C   0  0  1  0  0  3  0  0  0  0  0  0
  158.8120  213.5580  147.9880 C   0  0  1  0  0  3  0  0  0  0  0  0
  159.2200  212.6430  146.8190 C   0  0  0  0  0  2  0  0  0  0  0  0
  157.7330  213.7580  150.2470 C   0  0  0  0  0  2  0  0  0  0  0  0
  159.0050  214.3240  150.8940 C   0  0  0  0  0  2  0  0  0  0  0  0
  162.8170  212.9600  146.4350 C   0  0  0  0  0  2  0  0  0  0  0  0
  162.5360  214.1030  145.4720 C   0  0  0  0  0  2  0  0  0  0  0  0
  161.3960  212.8340  143.7800 N   0  0  0  0  0  2  0  0  0  0  0  0
  162.3840  213.5920  144.0790 C   0  0  0  0  0  3  0  0  0  0  0  0
  161.8370  205.8730  151.9250 C   0  0  0  0  0  2  0  0  0  0  0  0
  162.1140  204.4750  151.6460 N   0  0  0  0  0  2  0  0  0  0  0  0
  160.8590  203.7600  151.8000 C   0  0  0  0  0  2  0  0  0  0  0  0
  161.1140  200.9010  149.5170 C   0  0  0  0  0  3  0  0  0  0  0  0
  161.5700  201.5890  150.5510 C   0  0  0  0  0  2  0  0  0  0  0  0
  160.7220  202.7540  150.7120 C   0  0  0  0  0  0  0  0  0  0  0  0
  159.9200  201.5790  148.9250 C   0  0  0  0  0  3  0  0  0  0  0  0
  159.7580  202.7670  149.8110 C   0  0  0  0  0  3  0  0  0  0  0  0
  3 16  1  0  0  0  0
  4 14  1  0  0  0  0
  5  3  2  0  0  0  0
  6  1  2  0  0  0  0
  8 20  1  0  0  0  0
  8 37  1  1  0  0  0
  9  2  1  6  0  0  0
  9 11  1  0  0  0  0
 11  7  1  0  0  0  0
 12  1  1  0  0  0  0
 12  8  1  0  0  0  0
 13 19  1  6  0  0  0
 13  5  1  0  0  0  0
 13 18  1  0  0  0  0
 15 19  1  0  0  0  0
 15  4  1  0  0  0  0
 17 16  1  6  0  0  0
 17  2  1  0  0  0  0
 17  9  1  0  0  0  0
 18 14  1  6  0  0  0
 18 12  1  0  0  0  0
 20 10  1  1  0  0  0
 20  7  1  0  0  0  0
 21 32  1  0  0  0  0
 22 23  1  6  0  0  0
 22 31  1  0  0  0  0
 24 27  1  6  0  0  0
 24 21  1  0  0  0  0
 25 33  1  6  0  0  0
 25 28  1  0  0  0  0
 27 25  1  0  0  0  0
 28 26  1  6  0  0  0
 28 17  1  0  0  0  0
 29 30  1  6  0  0  0
 29 24  1  0  0  0  0
 29 22  1  0  0  0  0
 30 26  1  0  0  0  0
 31 32  1  0  0  0  0
 34 33  1  0  0  0  0
 35 36  2  0  0  0  0
 36 34  1  0  0  0  0
 38 39  1  0  0  0  0
 38 37  1  0  0  0  0
 40 41  1  0  0  0  0
 41 42  1  0  0  0  0
 42 39  1  0  0  0  0
 43 40  2  0  0  0  0
 43 44  1  0  0  0  0
 44 42  2  0  0  0  0
M  END
>  <MODEL>
7

>  <REMARK>
 VINA RESULT:       5.0      2.511      5.035
  Name = 
  8 active torsions:
  status: ('A' for Active; 'I' for Inactive)
    1  A    between atoms: C_6  and  C_25
    2  A    between atoms: C_6  and  C_33
    3  A    between atoms: C_16  and  C_42
    4  A    between atoms: C_17  and  N_18
    5  A    between atoms: C_17  and  C_19
    6  A    between atoms: N_18  and  C_42
    7  A    between atoms: C_22  and  C_25
    8  A    between atoms: C_32  and  C_35
                            x       y       z     vdW  Elec       q    Type
                         _______ _______ _______ _____ _____    ______ ____

>  <TORSDO>
F 8

$$$$
