=
 OpenBabel11072414463D

 45 50  0  0  1  0  0  0  0  0999 V2000
  161.4070  206.2430  152.4750 C   0  0  1  0  0  0  0  0  0  0  0  0
  160.8210  202.5700  151.8180 C   0  0  0  0  0  2  0  0  0  0  0  0
  160.6700  203.1860  150.3890 C   0  0  1  0  0  3  0  0  0  0  0  0
  161.6230  204.7490  152.5180 C   0  0  1  0  0  3  0  0  0  0  0  0
  160.7100  203.6230  152.9460 C   0  0  0  0  0  2  0  0  0  0  0  0
  161.2030  204.6380  150.2640 C   0  0  0  0  0  2  0  0  0  0  0  0
  160.6770  205.3750  151.4810 C   0  0  2  0  0  3  0  0  0  0  0  0
  160.4590  206.8450  153.4990 C   0  0  0  0  0  2  0  0  0  0  0  0
  161.2030  207.1990  154.7750 C   0  0  0  0  0  2  0  0  0  0  0  0
  160.2360  207.6610  155.8570 C   0  0  1  0  0  3  0  0  0  0  0  0
  160.5320  206.9560  157.1640 C   0  0  0  0  0  1  0  0  0  0  0  0
  160.1970  209.1830  156.0370 C   0  0  0  0  0  2  0  0  0  0  0  0
  159.1090  209.8900  155.2190 C   0  0  0  0  0  2  0  0  0  0  0  0
  158.4370  212.8200  153.8000 C   0  0  0  0  0  2  0  0  0  0  0  0
  156.3850  212.5770  156.1490 C   0  0  0  0  0  2  0  0  0  0  0  0
  157.0930  213.4690  154.1700 C   0  0  0  0  0  2  0  0  0  0  0  0
  157.0400  211.2240  155.7920 C   0  0  0  0  0  2  0  0  0  0  0  0
  157.0080  213.6960  155.5570 O   0  0  0  0  0  0  0  0  0  0  0  0
  159.0620  211.3180  157.2610 C   0  0  0  0  0  1  0  0  0  0  0  0
  158.5830  211.2000  155.8230 C   0  0  1  0  0  0  0  0  0  0  0  0
  159.2300  212.3520  155.0330 C   0  0  0  0  0  2  0  0  0  0  0  0
  162.4350  207.1430  151.7780 C   0  0  0  0  0  2  0  0  0  0  0  0
  160.2630  209.2080  151.9410 O   0  0  0  0  0  0  0  0  0  0  0  0
  161.2960  210.1570  151.8530 C   0  0  1  0  0  0  0  0  0  0  0  0
  162.4500  209.5350  151.1510 C   0  0  2  0  0  3  0  0  0  0  0  0
  160.4640  208.3090  150.9770 O   0  0  0  0  0  0  0  0  0  0  0  0
  161.6850  210.6870  150.4910 C   0  0  0  0  0  2  0  0  0  0  0  0
  161.8590  208.1890  150.8020 C   0  0  2  0  0  0  0  0  0  0  0  0
  161.2040  207.7190  148.4570 C   0  0  0  0  0  2  0  0  0  0  0  0
  162.1690  207.8220  149.3690 C   0  0  0  0  0  0  0  0  0  0  0  0
  163.4820  207.5750  148.9840 O   0  0  0  0  0  1  0  0  0  0  0  0
  161.6910  210.9220  153.1030 C   0  0  0  0  0  2  0  0  0  0  0  0
  162.8270  210.2080  153.8080 C   0  0  0  0  0  1  0  0  0  0  0  0
  161.2810  202.3180  149.3840 N   0  0  0  0  0  2  0  0  0  0  0  0
  160.7680  201.6800  147.1130 C   0  0  0  0  0  3  0  0  0  0  0  0
  160.9230  203.3360  145.2370 C   0  0  0  0  0  2  0  0  0  0  0  0
  160.7910  201.8670  145.6230 C   0  0  2  0  0  3  0  0  0  0  0  0
  162.1050  203.9340  145.9910 C   0  0  2  0  0  3  0  0  0  0  0  0
  161.8240  203.8990  147.4950 C   0  0  0  0  0  2  0  0  0  0  0  0
  159.6340  201.3270  145.0620 O   0  0  0  0  0  1  0  0  0  0  0  0
  161.3020  202.5650  147.9710 C   0  0  0  0  0  0  0  0  0  0  0  0
  162.3420  205.3720  145.5550 C   0  0  0  0  0  2  0  0  0  0  0  0
  161.2290  205.8490  144.6860 C   0  0  0  0  0  0  0  0  0  0  0  0
  160.0610  206.3370  145.2580 O   0  0  0  0  0  1  0  0  0  0  0  0
  161.3600  205.8420  143.4330 O   0  0  0  0  0  0  0  0  0  0  0  0
  1 22  1  6  0  0  0
  1  4  1  0  0  0  0
  1  8  1  0  0  0  0
  2  5  1  0  0  0  0
  3 34  1  6  0  0  0
  3  2  1  0  0  0  0
  4  5  1  1  0  0  0
  6  3  1  0  0  0  0
  7  6  1  6  0  0  0
  7  1  1  0  0  0  0
  7  4  1  0  0  0  0
  8  9  1  0  0  0  0
  9 10  1  0  0  0  0
 10 12  1  0  0  0  0
 10 11  1  1  0  0  0
 13 20  1  0  0  0  0
 13 12  1  0  0  0  0
 14 16  1  0  0  0  0
 14 21  1  0  0  0  0
 16 18  1  0  0  0  0
 17 20  1  0  0  0  0
 17 15  1  0  0  0  0
 18 15  1  0  0  0  0
 20 19  1  1  0  0  0
 21 20  1  0  0  0  0
 24 23  1  0  0  0  0
 24 32  1  1  0  0  0
 25 27  1  6  0  0  0
 25 24  1  0  0  0  0
 26 23  1  0  0  0  0
 27 24  1  0  0  0  0
 28 26  1  0  0  0  0
 28 25  1  0  0  0  0
 28 22  1  1  0  0  0
 29 30  2  0  0  0  0
 30 28  1  0  0  0  0
 31 30  1  0  0  0  0
 32 33  1  0  0  0  0
 35 41  2  0  0  0  0
 36 37  1  0  0  0  0
 36 38  1  0  0  0  0
 37 40  1  6  0  0  0
 37 35  1  0  0  0  0
 38 42  1  6  0  0  0
 38 39  1  0  0  0  0
 39 41  1  0  0  0  0
 41 34  1  0  0  0  0
 43 44  1  0  0  0  0
 43 42  1  0  0  0  0
 45 43  2  0  0  0  0
M  END
>  <MODEL>
1

>  <REMARK>
 VINA RESULT:      -7.4      0.000      0.000
  Name = 
  14 active torsions:
  status: ('A' for Active; 'I' for Inactive)
    1  A    between atoms: C_1  and  C_5
    2  A    between atoms: C_1  and  C_38
    3  A    between atoms: C_2  and  C_31
    4  A    between atoms: C_5  and  C_30
    5  A    between atoms: C_6  and  C_27
    6  A    between atoms: C_8  and  C_40
    7  A    between atoms: C_15  and  N_43
    8  A    between atoms: C_16  and  C_28
    9  A    between atoms: C_16  and  C_38
   10  A    between atoms: C_25  and  C_28
   11  A    between atoms: C_25  and  C_39
   12  A    between atoms: C_30  and  C_40
   13  A    between atoms: C_31  and  C_34
   14  A    between atoms: N_43  and  C_45
                            x       y       z     vdW  Elec       q    Type
                         _______ _______ _______ _____ _____    ______ ____

>  <TORSDO>
F 14

$$$$
=
 OpenBabel11072414463D

 45 50  0  0  1  0  0  0  0  0999 V2000
  161.6700  209.4130  152.5430 C   0  0  1  0  0  0  0  0  0  0  0  0
  162.2450  210.0990  148.8730 C   0  0  0  0  0  2  0  0  0  0  0  0
  161.3780  211.3250  149.3030 C   0  0  1  0  0  3  0  0  0  0  0  0
  162.4080  209.5660  151.2340 C   0  0  1  0  0  3  0  0  0  0  0  0
  162.1810  208.9280  149.8830 C   0  0  0  0  0  2  0  0  0  0  0  0
  161.2710  211.5200  150.8390 C   0  0  0  0  0  2  0  0  0  0  0  0
  160.9940  210.1430  151.4100 C   0  0  2  0  0  3  0  0  0  0  0  0
  161.0090  208.0730  152.8240 C   0  0  0  0  0  2  0  0  0  0  0  0
  160.7380  207.3280  151.5280 C   0  0  0  0  0  2  0  0  0  0  0  0
  161.4580  205.9860  151.5140 C   0  0  1  0  0  3  0  0  0  0  0  0
  161.3130  205.2980  152.8550 C   0  0  0  0  0  1  0  0  0  0  0  0
  161.0260  205.0690  150.3630 C   0  0  0  0  0  2  0  0  0  0  0  0
  160.5330  205.8110  149.1140 C   0  0  0  0  0  2  0  0  0  0  0  0
  161.2000  203.1810  147.1940 C   0  0  0  0  0  2  0  0  0  0  0  0
  161.3340  205.6380  145.2630 C   0  0  0  0  0  2  0  0  0  0  0  0
  161.1190  203.4030  145.6740 C   0  0  0  0  0  2  0  0  0  0  0  0
  160.6210  205.9690  146.5930 C   0  0  0  0  0  2  0  0  0  0  0  0
  162.0190  204.4050  145.2630 O   0  0  0  0  0  0  0  0  0  0  0  0
  162.5840  206.6580  147.9800 C   0  0  0  0  0  1  0  0  0  0  0  0
  161.4290  205.6750  147.8750 C   0  0  1  0  0  0  0  0  0  0  0  0
  162.0330  204.2590  147.9080 C   0  0  0  0  0  2  0  0  0  0  0  0
  161.9800  210.3610  153.7090 C   0  0  0  0  0  2  0  0  0  0  0  0
  160.1580  212.4830  154.7970 O   0  0  0  0  0  0  0  0  0  0  0  0
  159.1080  211.7090  154.2730 C   0  0  1  0  0  0  0  0  0  0  0  0
  159.5570  210.2940  154.1970 C   0  0  2  0  0  3  0  0  0  0  0  0
  160.9550  211.6630  155.4820 O   0  0  0  0  0  0  0  0  0  0  0  0
  158.4390  210.6890  155.1670 C   0  0  0  0  0  2  0  0  0  0  0  0
  160.9240  210.4110  154.8310 C   0  0  2  0  0  0  0  0  0  0  0  0
  162.2220  209.2860  156.6190 C   0  0  0  0  0  2  0  0  0  0  0  0
  161.1470  209.3030  155.8350 C   0  0  0  0  0  0  0  0  0  0  0  0
  160.2230  208.2690  155.9450 O   0  0  0  0  0  1  0  0  0  0  0  0
  158.4070  212.1880  153.0150 C   0  0  0  0  0  2  0  0  0  0  0  0
  158.5420  213.6930  152.8880 C   0  0  0  0  0  1  0  0  0  0  0  0
  161.8520  212.5470  148.6540 N   0  0  0  0  0  2  0  0  0  0  0  0
  162.6840  213.2500  146.5000 C   0  0  0  0  0  3  0  0  0  0  0  0
  161.2610  213.0750  144.4430 C   0  0  0  0  0  2  0  0  0  0  0  0
  162.5280  213.6550  145.0620 C   0  0  2  0  0  3  0  0  0  0  0  0
  160.0800  213.4070  145.3490 C   0  0  2  0  0  3  0  0  0  0  0  0
  160.2640  212.7160  146.7010 C   0  0  0  0  0  2  0  0  0  0  0  0
  163.6460  213.2470  144.3340 O   0  0  0  0  0  1  0  0  0  0  0  0
  161.6480  212.8920  147.2760 C   0  0  0  0  0  0  0  0  0  0  0  0
  158.7770  212.9420  144.7160 C   0  0  0  0  0  2  0  0  0  0  0  0
  157.6200  213.2540  145.6010 C   0  0  0  0  0  0  0  0  0  0  0  0
  156.8860  212.2230  146.1760 O   0  0  0  0  0  1  0  0  0  0  0  0
  157.3260  214.4530  145.8560 O   0  0  0  0  0  0  0  0  0  0  0  0
  1  8  1  1  0  0  0
  1 22  1  0  0  0  0
  2  3  1  0  0  0  0
  2  5  1  0  0  0  0
  3 34  1  6  0  0  0
  3  6  1  0  0  0  0
  4  5  1  6  0  0  0
  4  7  1  0  0  0  0
  4  1  1  0  0  0  0
  7  6  1  1  0  0  0
  7  1  1  0  0  0  0
  9  8  1  0  0  0  0
 10  9  1  0  0  0  0
 10 11  1  1  0  0  0
 12 10  1  0  0  0  0
 13 12  1  0  0  0  0
 14 21  1  0  0  0  0
 15 17  1  0  0  0  0
 16 14  1  0  0  0  0
 17 20  1  0  0  0  0
 18 15  1  0  0  0  0
 18 16  1  0  0  0  0
 20 21  1  0  0  0  0
 20 19  1  1  0  0  0
 20 13  1  0  0  0  0
 23 26  1  0  0  0  0
 24 32  1  6  0  0  0
 24 23  1  0  0  0  0
 24 27  1  0  0  0  0
 25 24  1  0  0  0  0
 25 28  1  0  0  0  0
 25 27  1  1  0  0  0
 28 22  1  6  0  0  0
 28 26  1  0  0  0  0
 28 30  1  0  0  0  0
 30 31  1  0  0  0  0
 30 29  2  0  0  0  0
 33 32  1  0  0  0  0
 35 41  2  0  0  0  0
 36 37  1  0  0  0  0
 36 38  1  0  0  0  0
 37 40  1  6  0  0  0
 37 35  1  0  0  0  0
 38 42  1  6  0  0  0
 38 39  1  0  0  0  0
 39 41  1  0  0  0  0
 41 34  1  0  0  0  0
 42 43  1  0  0  0  0
 43 45  2  0  0  0  0
 43 44  1  0  0  0  0
M  END
>  <MODEL>
2

>  <REMARK>
 VINA RESULT:      -7.2      3.800      8.474
  Name = 
  14 active torsions:
  status: ('A' for Active; 'I' for Inactive)
    1  A    between atoms: C_1  and  C_5
    2  A    between atoms: C_1  and  C_38
    3  A    between atoms: C_2  and  C_31
    4  A    between atoms: C_5  and  C_30
    5  A    between atoms: C_6  and  C_27
    6  A    between atoms: C_8  and  C_40
    7  A    between atoms: C_15  and  N_43
    8  A    between atoms: C_16  and  C_28
    9  A    between atoms: C_16  and  C_38
   10  A    between atoms: C_25  and  C_28
   11  A    between atoms: C_25  and  C_39
   12  A    between atoms: C_30  and  C_40
   13  A    between atoms: C_31  and  C_34
   14  A    between atoms: N_43  and  C_45
                            x       y       z     vdW  Elec       q    Type
                         _______ _______ _______ _____ _____    ______ ____

>  <TORSDO>
F 14

$$$$
=
 OpenBabel11072414463D

 45 50  0  0  1  0  0  0  0  0999 V2000
  159.6980  211.2390  153.2350 C   0  0  1  0  0  0  0  0  0  0  0  0
  161.6390  208.7270  151.1880 C   0  0  0  0  0  2  0  0  0  0  0  0
  161.8330  208.1850  152.6400 C   0  0  1  0  0  3  0  0  0  0  0  0
  160.0120  210.2590  152.1290 C   0  0  1  0  0  3  0  0  0  0  0  0
  161.1600  210.1980  151.1480 C   0  0  0  0  0  2  0  0  0  0  0  0
  160.8620  208.8000  153.6830 C   0  0  0  0  0  2  0  0  0  0  0  0
  160.8590  210.2920  153.4110 C   0  0  2  0  0  3  0  0  0  0  0  0
  160.1660  212.6740  153.0540 C   0  0  0  0  0  2  0  0  0  0  0  0
  159.1140  213.4920  152.3240 C   0  0  0  0  0  2  0  0  0  0  0  0
  159.2090  213.2770  150.8190 C   0  0  1  0  0  3  0  0  0  0  0  0
  158.1520  214.0920  150.1040 C   0  0  0  0  0  1  0  0  0  0  0  0
  160.6060  213.5450  150.2470 C   0  0  0  0  0  2  0  0  0  0  0  0
  160.6070  214.2170  148.8680 C   0  0  0  0  0  2  0  0  0  0  0  0
  159.3940  213.2310  145.9340 C   0  0  0  0  0  2  0  0  0  0  0  0
  162.4510  213.6650  145.4340 C   0  0  0  0  0  2  0  0  0  0  0  0
  160.2960  213.4530  144.7090 C   0  0  0  0  0  2  0  0  0  0  0  0
  161.9650  214.3320  146.7390 C   0  0  0  0  0  2  0  0  0  0  0  0
  161.5210  212.7740  144.8560 O   0  0  0  0  0  0  0  0  0  0  0  0
  162.2590  212.4300  148.3360 C   0  0  0  0  0  1  0  0  0  0  0  0
  161.2500  213.3980  147.7410 C   0  0  1  0  0  0  0  0  0  0  0  0
  160.1330  212.5540  147.1010 C   0  0  0  0  0  2  0  0  0  0  0  0
  158.5730  210.9320  154.2310 C   0  0  0  0  0  2  0  0  0  0  0  0
  159.4570  210.5120  157.0680 O   0  0  0  0  0  0  0  0  0  0  0  0
  160.4340  211.4870  156.8030 C   0  0  1  0  0  0  0  0  0  0  0  0
  159.9390  212.3660  155.7100 C   0  0  2  0  0  3  0  0  0  0  0  0
  158.2890  210.9910  156.6400 O   0  0  0  0  0  0  0  0  0  0  0  0
  160.1260  212.9330  157.1220 C   0  0  0  0  0  2  0  0  0  0  0  0
  158.5550  211.7930  155.5090 C   0  0  2  0  0  0  0  0  0  0  0  0
  156.2480  212.6270  155.1560 C   0  0  0  0  0  2  0  0  0  0  0  0
  157.5270  212.8960  155.4060 C   0  0  0  0  0  0  0  0  0  0  0  0
  157.9130  214.2220  155.5630 O   0  0  0  0  0  1  0  0  0  0  0  0
  161.8730  211.0430  156.6150 C   0  0  0  0  0  2  0  0  0  0  0  0
  162.0330  209.6020  157.0560 C   0  0  0  0  0  1  0  0  0  0  0  0
  161.7640  206.7240  152.6620 N   0  0  0  0  0  2  0  0  0  0  0  0
  161.0200  206.4340  150.3840 C   0  0  0  0  0  3  0  0  0  0  0  0
  161.0850  204.1860  149.2770 C   0  0  0  0  0  2  0  0  0  0  0  0
  160.5660  205.6170  149.2080 C   0  0  2  0  0  3  0  0  0  0  0  0
  160.7460  203.6090  150.6470 C   0  0  2  0  0  3  0  0  0  0  0  0
  161.4840  204.3970  151.7300 C   0  0  0  0  0  2  0  0  0  0  0  0
  160.9850  206.2220  148.0230 O   0  0  0  0  0  1  0  0  0  0  0  0
  161.3700  205.8920  151.5610 C   0  0  0  0  0  0  0  0  0  0  0  0
  161.1500  202.1440  150.7220 C   0  0  0  0  0  2  0  0  0  0  0  0
  160.5810  201.3810  149.5750 C   0  0  0  0  0  0  0  0  0  0  0  0
  159.2130  201.4040  149.3350 O   0  0  0  0  0  1  0  0  0  0  0  0
  161.3450  200.7410  148.8040 O   0  0  0  0  0  0  0  0  0  0  0  0
  1  8  1  6  0  0  0
  1  7  1  0  0  0  0
  1 22  1  0  0  0  0
  2  3  1  0  0  0  0
  3 34  1  6  0  0  0
  3  6  1  0  0  0  0
  4  5  1  6  0  0  0
  4  1  1  0  0  0  0
  4  7  1  0  0  0  0
  5  2  1  0  0  0  0
  7  6  1  1  0  0  0
  9  8  1  0  0  0  0
 10 11  1  6  0  0  0
 10  9  1  0  0  0  0
 12 10  1  0  0  0  0
 13 12  1  0  0  0  0
 14 21  1  0  0  0  0
 15 17  1  0  0  0  0
 16 18  1  0  0  0  0
 16 14  1  0  0  0  0
 17 20  1  0  0  0  0
 18 15  1  0  0  0  0
 20 19  1  1  0  0  0
 20 13  1  0  0  0  0
 21 20  1  0  0  0  0
 24 32  1  6  0  0  0
 24 23  1  0  0  0  0
 24 27  1  0  0  0  0
 25 24  1  0  0  0  0
 25 27  1  1  0  0  0
 26 23  1  0  0  0  0
 28 22  1  6  0  0  0
 28 25  1  0  0  0  0
 28 26  1  0  0  0  0
 29 30  2  0  0  0  0
 30 28  1  0  0  0  0
 30 31  1  0  0  0  0
 32 33  1  0  0  0  0
 35 41  2  0  0  0  0
 36 38  1  0  0  0  0
 37 40  1  6  0  0  0
 37 36  1  0  0  0  0
 37 35  1  0  0  0  0
 38 42  1  6  0  0  0
 38 39  1  0  0  0  0
 41 39  1  0  0  0  0
 41 34  1  0  0  0  0
 43 42  1  0  0  0  0
 44 43  1  0  0  0  0
 45 43  2  0  0  0  0
M  END
>  <MODEL>
3

>  <REMARK>
 VINA RESULT:      -6.5      3.109      7.261
  Name = 
  14 active torsions:
  status: ('A' for Active; 'I' for Inactive)
    1  A    between atoms: C_1  and  C_5
    2  A    between atoms: C_1  and  C_38
    3  A    between atoms: C_2  and  C_31
    4  A    between atoms: C_5  and  C_30
    5  A    between atoms: C_6  and  C_27
    6  A    between atoms: C_8  and  C_40
    7  A    between atoms: C_15  and  N_43
    8  A    between atoms: C_16  and  C_28
    9  A    between atoms: C_16  and  C_38
   10  A    between atoms: C_25  and  C_28
   11  A    between atoms: C_25  and  C_39
   12  A    between atoms: C_30  and  C_40
   13  A    between atoms: C_31  and  C_34
   14  A    between atoms: N_43  and  C_45
                            x       y       z     vdW  Elec       q    Type
                         _______ _______ _______ _____ _____    ______ ____

>  <TORSDO>
F 14

$$$$
=
 OpenBabel11072414463D

 45 50  0  0  1  0  0  0  0  0999 V2000
  160.9010  207.4150  153.3950 C   0  0  1  0  0  0  0  0  0  0  0  0
  160.0810  208.3380  156.9660 C   0  0  0  0  0  2  0  0  0  0  0  0
  160.7270  209.6550  156.4270 C   0  0  1  0  0  3  0  0  0  0  0  0
  160.1020  207.5570  154.6690 C   0  0  1  0  0  3  0  0  0  0  0  0
  160.3910  207.1060  156.0830 C   0  0  0  0  0  2  0  0  0  0  0  0
  160.8520  209.7160  154.8820 C   0  0  0  0  0  2  0  0  0  0  0  0
  161.3930  208.3640  154.4600 C   0  0  2  0  0  3  0  0  0  0  0  0
  161.8030  206.1980  153.2650 C   0  0  0  0  0  2  0  0  0  0  0  0
  160.9760  204.9330  153.1150 C   0  0  0  0  0  2  0  0  0  0  0  0
  161.2030  204.2960  151.7510 C   0  0  1  0  0  3  0  0  0  0  0  0
  162.6290  204.5240  151.2950 C   0  0  0  0  0  1  0  0  0  0  0  0
  160.8280  202.8100  151.6960 C   0  0  0  0  0  2  0  0  0  0  0  0
  161.5720  202.0090  150.6200 C   0  0  0  0  0  2  0  0  0  0  0  0
  161.5790  203.4710  147.6350 C   0  0  0  0  0  2  0  0  0  0  0  0
  160.9230  200.4670  147.0560 C   0  0  0  0  0  2  0  0  0  0  0  0
  161.6410  202.5370  146.4140 C   0  0  0  0  0  2  0  0  0  0  0  0
  161.5090  200.6840  148.4690 C   0  0  0  0  0  2  0  0  0  0  0  0
  160.5430  201.6560  146.3970 O   0  0  0  0  0  0  0  0  0  0  0  0
  159.4070  201.1360  149.7470 C   0  0  0  0  0  1  0  0  0  0  0  0
  160.7610  201.7050  149.3530 C   0  0  1  0  0  0  0  0  0  0  0  0
  160.5010  203.0500  148.6490 C   0  0  0  0  0  2  0  0  0  0  0  0
  160.4670  208.1720  152.1340 C   0  0  0  0  0  2  0  0  0  0  0  0
  162.6720  207.2380  150.3250 O   0  0  0  0  0  0  0  0  0  0  0  0
  161.9770  207.9010  149.2990 C   0  0  1  0  0  0  0  0  0  0  0  0
  161.1640  208.9890  149.9070 C   0  0  2  0  0  3  0  0  0  0  0  0
  162.7630  208.0800  151.3540 O   0  0  0  0  0  0  0  0  0  0  0  0
  162.3370  209.3360  148.9840 C   0  0  0  0  0  2  0  0  0  0  0  0
  161.5950  208.8720  151.3510 C   0  0  2  0  0  0  0  0  0  0  0  0
  160.9710  211.1930  151.9590 C   0  0  0  0  0  2  0  0  0  0  0  0
  161.8940  210.2350  151.9330 C   0  0  0  0  0  0  0  0  0  0  0  0
  163.1570  210.5080  152.4460 O   0  0  0  0  0  1  0  0  0  0  0  0
  161.2120  207.0730  148.2840 C   0  0  0  0  0  2  0  0  0  0  0  0
  160.1410  206.2570  148.9820 C   0  0  0  0  0  1  0  0  0  0  0  0
  160.0180  210.8270  156.9400 N   0  0  0  0  0  2  0  0  0  0  0  0
  157.6650  211.1810  156.5340 C   0  0  0  0  0  3  0  0  0  0  0  0
  156.8530  213.2180  155.3180 C   0  0  0  0  0  2  0  0  0  0  0  0
  156.4990  211.8330  155.8460 C   0  0  2  0  0  3  0  0  0  0  0  0
  158.1290  213.1130  154.4890 C   0  0  2  0  0  3  0  0  0  0  0  0
  159.2870  212.6750  155.3870 C   0  0  0  0  0  2  0  0  0  0  0  0
  155.4200  211.9170  156.7250 O   0  0  0  0  0  1  0  0  0  0  0  0
  158.9420  211.5060  156.2760 C   0  0  0  0  0  0  0  0  0  0  0  0
  158.4610  214.4530  153.8510 C   0  0  0  0  0  2  0  0  0  0  0  0
  158.3720  214.3670  152.3660 C   0  0  0  0  0  0  0  0  0  0  0  0
  157.1310  214.3020  151.7460 O   0  0  0  0  0  1  0  0  0  0  0  0
  159.4230  214.3850  151.6690 O   0  0  0  0  0  0  0  0  0  0  0  0
  1 22  1  6  0  0  0
  1  7  1  0  0  0  0
  1  4  1  0  0  0  0
  3 34  1  6  0  0  0
  3  2  1  0  0  0  0
  4  5  1  1  0  0  0
  5  2  1  0  0  0  0
  6  3  1  0  0  0  0
  7  4  1  0  0  0  0
  7  6  1  6  0  0  0
  8  1  1  0  0  0  0
  9  8  1  0  0  0  0
 10 11  1  1  0  0  0
 10  9  1  0  0  0  0
 12 10  1  0  0  0  0
 13 12  1  0  0  0  0
 14 21  1  0  0  0  0
 15 17  1  0  0  0  0
 16 14  1  0  0  0  0
 17 20  1  0  0  0  0
 18 16  1  0  0  0  0
 18 15  1  0  0  0  0
 20 19  1  1  0  0  0
 20 13  1  0  0  0  0
 21 20  1  0  0  0  0
 23 26  1  0  0  0  0
 24 32  1  6  0  0  0
 24 25  1  0  0  0  0
 24 23  1  0  0  0  0
 25 27  1  6  0  0  0
 25 28  1  0  0  0  0
 27 24  1  0  0  0  0
 28 26  1  0  0  0  0
 28 30  1  0  0  0  0
 28 22  1  1  0  0  0
 30 29  2  0  0  0  0
 30 31  1  0  0  0  0
 32 33  1  0  0  0  0
 36 37  1  0  0  0  0
 37 35  1  0  0  0  0
 37 40  1  1  0  0  0
 38 42  1  1  0  0  0
 38 36  1  0  0  0  0
 38 39  1  0  0  0  0
 39 41  1  0  0  0  0
 41 35  2  0  0  0  0
 41 34  1  0  0  0  0
 43 42  1  0  0  0  0
 44 43  1  0  0  0  0
 45 43  2  0  0  0  0
M  END
>  <MODEL>
4

>  <REMARK>
 VINA RESULT:      -6.3      2.476      9.616
  Name = 
  14 active torsions:
  status: ('A' for Active; 'I' for Inactive)
    1  A    between atoms: C_1  and  C_5
    2  A    between atoms: C_1  and  C_38
    3  A    between atoms: C_2  and  C_31
    4  A    between atoms: C_5  and  C_30
    5  A    between atoms: C_6  and  C_27
    6  A    between atoms: C_8  and  C_40
    7  A    between atoms: C_15  and  N_43
    8  A    between atoms: C_16  and  C_28
    9  A    between atoms: C_16  and  C_38
   10  A    between atoms: C_25  and  C_28
   11  A    between atoms: C_25  and  C_39
   12  A    between atoms: C_30  and  C_40
   13  A    between atoms: C_31  and  C_34
   14  A    between atoms: N_43  and  C_45
                            x       y       z     vdW  Elec       q    Type
                         _______ _______ _______ _____ _____    ______ ____

>  <TORSDO>
F 14

$$$$
=
 OpenBabel11072414463D

 45 50  0  0  1  0  0  0  0  0999 V2000
  160.1990  210.2230  153.1430 C   0  0  1  0  0  0  0  0  0  0  0  0
  161.8130  207.4230  151.1890 C   0  0  0  0  0  2  0  0  0  0  0  0
  161.8110  206.8480  152.6420 C   0  0  1  0  0  3  0  0  0  0  0  0
  160.4140  209.2090  152.0450 C   0  0  1  0  0  3  0  0  0  0  0  0
  161.5990  208.9540  151.1420 C   0  0  0  0  0  2  0  0  0  0  0  0
  160.8920  207.6170  153.6280 C   0  0  0  0  0  2  0  0  0  0  0  0
  161.1640  209.0880  153.3810 C   0  0  2  0  0  3  0  0  0  0  0  0
  160.9190  211.5570  153.0180 C   0  0  0  0  0  2  0  0  0  0  0  0
  160.8830  212.0510  151.5820 C   0  0  0  0  0  2  0  0  0  0  0  0
  159.6030  212.8290  151.3090 C   0  0  1  0  0  3  0  0  0  0  0  0
  159.4720  213.9830  152.2810 C   0  0  0  0  0  1  0  0  0  0  0  0
  159.4700  213.3020  149.8570 C   0  0  0  0  0  2  0  0  0  0  0  0
  160.7830  213.7830  149.2240 C   0  0  0  0  0  2  0  0  0  0  0  0
  159.3450  213.7710  146.2270 C   0  0  0  0  0  2  0  0  0  0  0  0
  162.4060  213.4830  145.6500 C   0  0  0  0  0  2  0  0  0  0  0  0
  160.2720  213.9960  145.0210 C   0  0  0  0  0  2  0  0  0  0  0  0
  162.1180  213.9720  147.0870 C   0  0  0  0  0  2  0  0  0  0  0  0
  161.2710  213.0050  144.9610 O   0  0  0  0  0  0  0  0  0  0  0  0
  161.8960  211.7740  148.2590 C   0  0  0  0  0  1  0  0  0  0  0  0
  161.1820  213.0730  147.9230 C   0  0  1  0  0  0  0  0  0  0  0  0
  159.8780  212.7000  147.1950 C   0  0  0  0  0  2  0  0  0  0  0  0
  158.9730  210.1100  154.0570 C   0  0  0  0  0  2  0  0  0  0  0  0
  159.7630  209.9490  156.9480 O   0  0  0  0  0  0  0  0  0  0  0  0
  160.7640  210.8800  156.6230 C   0  0  1  0  0  0  0  0  0  0  0  0
  160.3180  211.6590  155.4380 C   0  0  2  0  0  3  0  0  0  0  0  0
  158.6170  210.4020  156.4400 O   0  0  0  0  0  0  0  0  0  0  0  0
  160.4720  212.3540  156.7950 C   0  0  0  0  0  2  0  0  0  0  0  0
  158.9310  211.0890  155.2480 C   0  0  2  0  0  0  0  0  0  0  0  0
  156.7330  211.9360  154.4740 C   0  0  0  0  0  2  0  0  0  0  0  0
  157.9250  212.1920  155.0090 C   0  0  0  0  0  0  0  0  0  0  0  0
  158.2420  213.5040  155.3400 O   0  0  0  0  0  1  0  0  0  0  0  0
  162.2010  210.4010  156.5230 C   0  0  0  0  0  2  0  0  0  0  0  0
  162.2950  208.9530  156.9630 C   0  0  0  0  0  1  0  0  0  0  0  0
  161.4900  205.4220  152.6340 N   0  0  0  0  0  2  0  0  0  0  0  0
  161.3060  203.2620  151.5730 C   0  0  0  0  0  3  0  0  0  0  0  0
  160.6540  203.0560  149.1600 C   0  0  0  0  0  2  0  0  0  0  0  0
  161.2230  202.3470  150.3840 C   0  0  2  0  0  3  0  0  0  0  0  0
  161.4330  204.3480  148.9400 C   0  0  2  0  0  3  0  0  0  0  0  0
  161.2170  205.2850  150.1300 C   0  0  0  0  0  2  0  0  0  0  0  0
  160.4420  201.2350  150.6980 O   0  0  0  0  0  1  0  0  0  0  0  0
  161.3790  204.5980  151.4640 C   0  0  0  0  0  0  0  0  0  0  0  0
  160.9720  205.0370  147.6640 C   0  0  0  0  0  2  0  0  0  0  0  0
  162.0680  205.8620  147.0840 C   0  0  0  0  0  0  0  0  0  0  0  0
  162.5750  205.5610  145.8260 O   0  0  0  0  0  0  0  0  0  0  0  0
  162.5150  206.8540  147.7210 O   0  0  0  0  0  1  0  0  0  0  0  0
  1  8  1  6  0  0  0
  1  7  1  0  0  0  0
  1 22  1  0  0  0  0
  2  3  1  0  0  0  0
  3 34  1  6  0  0  0
  3  6  1  0  0  0  0
  4  5  1  6  0  0  0
  4  1  1  0  0  0  0
  4  7  1  0  0  0  0
  5  2  1  0  0  0  0
  7  6  1  1  0  0  0
  9  8  1  0  0  0  0
 10  9  1  0  0  0  0
 10 11  1  1  0  0  0
 12 10  1  0  0  0  0
 13 12  1  0  0  0  0
 14 21  1  0  0  0  0
 15 17  1  0  0  0  0
 16 14  1  0  0  0  0
 17 20  1  0  0  0  0
 18 16  1  0  0  0  0
 18 15  1  0  0  0  0
 20 19  1  1  0  0  0
 20 13  1  0  0  0  0
 21 20  1  0  0  0  0
 24 32  1  1  0  0  0
 24 27  1  0  0  0  0
 24 23  1  0  0  0  0
 25 24  1  0  0  0  0
 25 27  1  1  0  0  0
 26 23  1  0  0  0  0
 28 22  1  6  0  0  0
 28 25  1  0  0  0  0
 28 26  1  0  0  0  0
 29 30  2  0  0  0  0
 30 28  1  0  0  0  0
 30 31  1  0  0  0  0
 32 33  1  0  0  0  0
 36 37  1  0  0  0  0
 37 40  1  1  0  0  0
 37 35  1  0  0  0  0
 38 42  1  6  0  0  0
 38 36  1  0  0  0  0
 38 39  1  0  0  0  0
 39 41  1  0  0  0  0
 41 35  2  0  0  0  0
 41 34  1  0  0  0  0
 43 42  1  0  0  0  0
 43 45  1  0  0  0  0
 44 43  2  0  0  0  0
M  END
>  <MODEL>
5

>  <REMARK>
 VINA RESULT:      -6.2      2.999      6.477
  Name = 
  14 active torsions:
  status: ('A' for Active; 'I' for Inactive)
    1  A    between atoms: C_1  and  C_5
    2  A    between atoms: C_1  and  C_38
    3  A    between atoms: C_2  and  C_31
    4  A    between atoms: C_5  and  C_30
    5  A    between atoms: C_6  and  C_27
    6  A    between atoms: C_8  and  C_40
    7  A    between atoms: C_15  and  N_43
    8  A    between atoms: C_16  and  C_28
    9  A    between atoms: C_16  and  C_38
   10  A    between atoms: C_25  and  C_28
   11  A    between atoms: C_25  and  C_39
   12  A    between atoms: C_30  and  C_40
   13  A    between atoms: C_31  and  C_34
   14  A    between atoms: N_43  and  C_45
                            x       y       z     vdW  Elec       q    Type
                         _______ _______ _______ _____ _____    ______ ____

>  <TORSDO>
F 14

$$$$
=
 OpenBabel11072414463D

 45 50  0  0  1  0  0  0  0  0999 V2000
  161.6250  206.2980  152.0550 C   0  0  1  0  0  0  0  0  0  0  0  0
  160.6920  209.7910  150.9600 C   0  0  0  0  0  2  0  0  0  0  0  0
  162.1790  209.6870  150.4900 C   0  0  1  0  0  3  0  0  0  0  0  0
  160.8230  207.4150  151.4300 C   0  0  1  0  0  3  0  0  0  0  0  0
  160.3100  208.7160  152.0050 C   0  0  0  0  0  2  0  0  0  0  0  0
  162.7420  208.2410  150.4790 C   0  0  0  0  0  2  0  0  0  0  0  0
  162.3030  207.6190  151.7910 C   0  0  2  0  0  3  0  0  0  0  0  0
  161.4390  206.0490  153.5430 C   0  0  0  0  0  2  0  0  0  0  0  0
  161.7670  207.2990  154.3400 C   0  0  0  0  0  2  0  0  0  0  0  0
  160.5240  207.8420  155.0320 C   0  0  1  0  0  3  0  0  0  0  0  0
  160.0970  206.9140  156.1510 C   0  0  0  0  0  1  0  0  0  0  0  0
  160.6770  209.2840  155.5280 C   0  0  0  0  0  2  0  0  0  0  0  0
  159.3510  210.0350  155.7110 C   0  0  0  0  0  2  0  0  0  0  0  0
  158.6830  211.9430  153.0730 C   0  0  0  0  0  2  0  0  0  0  0  0
  157.9450  213.7090  155.5480 C   0  0  0  0  0  2  0  0  0  0  0  0
  157.8170  213.1880  153.3280 C   0  0  0  0  0  2  0  0  0  0  0  0
  158.0840  212.2130  155.9080 C   0  0  0  0  0  2  0  0  0  0  0  0
  158.4280  214.0440  154.2650 O   0  0  0  0  0  0  0  0  0  0  0  0
  160.5310  212.1130  156.4160 C   0  0  0  0  0  1  0  0  0  0  0  0
  159.4290  211.5570  155.5280 C   0  0  1  0  0  0  0  0  0  0  0  0
  159.8480  211.8160  154.0700 C   0  0  0  0  0  2  0  0  0  0  0  0
  162.2060  205.1880  151.1700 C   0  0  0  0  0  2  0  0  0  0  0  0
  160.3210  206.0290  148.9910 O   0  0  0  0  0  0  0  0  0  0  0  0
  161.1500  205.2930  148.1260 C   0  0  1  0  0  0  0  0  0  0  0  0
  161.8380  204.2380  148.9170 C   0  0  2  0  0  3  0  0  0  0  0  0
  160.0570  205.2560  150.0440 O   0  0  0  0  0  0  0  0  0  0  0  0
  160.8120  203.8460  147.8490 C   0  0  0  0  0  2  0  0  0  0  0  0
  161.1950  204.4520  150.2680 C   0  0  2  0  0  0  0  0  0  0  0  0
  160.4610  202.0890  150.1210 C   0  0  0  0  0  2  0  0  0  0  0  0
  160.7820  203.1330  150.8810 C   0  0  0  0  0  0  0  0  0  0  0  0
  160.7240  202.9980  152.2630 O   0  0  0  0  0  1  0  0  0  0  0  0
  162.0780  206.0460  147.1910 C   0  0  0  0  0  2  0  0  0  0  0  0
  162.8220  205.0690  146.3030 C   0  0  0  0  0  1  0  0  0  0  0  0
  162.3560  210.3250  149.1860 N   0  0  0  0  0  0  0  0  0  0  0  0
  161.0780  212.3210  149.6480 C   0  0  0  0  0  2  0  0  0  0  0  0
  161.4250  214.4170  148.3170 C   0  0  0  0  0  2  0  0  0  0  0  0
  160.5370  213.6820  149.3140 C   0  0  2  0  0  3  0  0  0  0  0  0
  161.6800  213.5020  147.1240 C   0  0  2  0  0  3  0  0  0  0  0  0
  162.4610  212.2690  147.5820 C   0  0  0  0  0  2  0  0  0  0  0  0
  160.4030  214.4350  150.4800 O   0  0  0  0  0  1  0  0  0  0  0  0
  161.8960  211.6370  148.8310 C   0  0  0  0  0  0  0  0  0  0  0  0
  162.4730  214.2340  146.0520 C   0  0  0  0  0  2  0  0  0  0  0  0
  162.4870  213.4540  144.7820 C   0  0  0  0  0  0  0  0  0  0  0  0
  161.3170  212.8730  144.3090 O   0  0  0  0  0  1  0  0  0  0  0  0
  163.5540  213.3480  144.1190 O   0  0  0  0  0  0  0  0  0  0  0  0
  1 22  1  6  0  0  0
  1  8  1  0  0  0  0
  2  5  1  0  0  0  0
  3 34  1  6  0  0  0
  3  2  1  0  0  0  0
  4  7  1  0  0  0  0
  4  5  1  1  0  0  0
  4  1  1  0  0  0  0
  6  3  1  0  0  0  0
  7  6  1  6  0  0  0
  7  1  1  0  0  0  0
  8  9  1  0  0  0  0
  9 10  1  0  0  0  0
 10 12  1  0  0  0  0
 10 11  1  1  0  0  0
 12 13  1  0  0  0  0
 14 16  1  0  0  0  0
 14 21  1  0  0  0  0
 15 17  1  0  0  0  0
 16 18  1  0  0  0  0
 18 15  1  0  0  0  0
 20 13  1  0  0  0  0
 20 17  1  0  0  0  0
 20 19  1  1  0  0  0
 21 20  1  0  0  0  0
 23 26  1  0  0  0  0
 24 32  1  6  0  0  0
 24 25  1  0  0  0  0
 24 23  1  0  0  0  0
 25 27  1  6  0  0  0
 25 28  1  0  0  0  0
 26 28  1  0  0  0  0
 27 24  1  0  0  0  0
 28 30  1  0  0  0  0
 28 22  1  1  0  0  0
 29 30  2  0  0  0  0
 30 31  1  0  0  0  0
 33 32  1  0  0  0  0
 36 37  1  0  0  0  0
 37 35  1  0  0  0  0
 37 40  1  1  0  0  0
 38 42  1  6  0  0  0
 38 39  1  0  0  0  0
 38 36  1  0  0  0  0
 39 41  1  0  0  0  0
 41 34  2  0  0  0  0
 41 35  1  0  0  0  0
 43 42  1  0  0  0  0
 44 43  1  0  0  0  0
 45 43  2  0  0  0  0
M  END
>  <MODEL>
6

>  <REMARK>
 VINA RESULT:      -6.0      3.095      6.255
  Name = 
  14 active torsions:
  status: ('A' for Active; 'I' for Inactive)
    1  A    between atoms: C_1  and  C_5
    2  A    between atoms: C_1  and  C_38
    3  A    between atoms: C_2  and  C_31
    4  A    between atoms: C_5  and  C_30
    5  A    between atoms: C_6  and  C_27
    6  A    between atoms: C_8  and  C_40
    7  A    between atoms: C_15  and  N_43
    8  A    between atoms: C_16  and  C_28
    9  A    between atoms: C_16  and  C_38
   10  A    between atoms: C_25  and  C_28
   11  A    between atoms: C_25  and  C_39
   12  A    between atoms: C_30  and  C_40
   13  A    between atoms: C_31  and  C_34
   14  A    between atoms: N_43  and  C_45
                            x       y       z     vdW  Elec       q    Type
                         _______ _______ _______ _____ _____    ______ ____

>  <TORSDO>
F 14

$$$$
=
 OpenBabel11072414463D

 45 50  0  0  1  0  0  0  0  0999 V2000
  161.6430  206.4860  152.1790 C   0  0  1  0  0  0  0  0  0  0  0  0
  160.6890  209.9830  151.1150 C   0  0  0  0  0  2  0  0  0  0  0  0
  162.1710  209.8850  150.6260 C   0  0  1  0  0  3  0  0  0  0  0  0
  160.8310  207.6050  151.5700 C   0  0  1  0  0  3  0  0  0  0  0  0
  160.3230  208.9010  152.1580 C   0  0  0  0  0  2  0  0  0  0  0  0
  162.7370  208.4400  150.6010 C   0  0  0  0  0  2  0  0  0  0  0  0
  162.3150  207.8110  151.9140 C   0  0  2  0  0  3  0  0  0  0  0  0
  161.4760  206.2280  153.6680 C   0  0  0  0  0  2  0  0  0  0  0  0
  161.7400  207.4950  154.4640 C   0  0  0  0  0  2  0  0  0  0  0  0
  160.5140  207.8890  155.2780 C   0  0  1  0  0  3  0  0  0  0  0  0
  160.3170  206.9260  156.4300 C   0  0  0  0  0  1  0  0  0  0  0  0
  160.5390  209.3440  155.7600 C   0  0  0  0  0  2  0  0  0  0  0  0
  159.1680  210.0330  155.7630 C   0  0  0  0  0  2  0  0  0  0  0  0
  156.6390  211.8710  154.6320 C   0  0  0  0  0  2  0  0  0  0  0  0
  158.6810  213.9400  155.7890 C   0  0  0  0  0  2  0  0  0  0  0  0
  156.5880  213.3330  155.1070 C   0  0  0  0  0  2  0  0  0  0  0  0
  158.9590  212.5000  156.2730 C   0  0  0  0  0  2  0  0  0  0  0  0
  157.7540  214.0270  154.7280 O   0  0  0  0  0  0  0  0  0  0  0  0
  160.4550  211.7030  154.4340 C   0  0  0  0  0  1  0  0  0  0  0  0
  159.1450  211.4450  155.1610 C   0  0  1  0  0  0  0  0  0  0  0  0
  158.0260  211.4660  154.1030 C   0  0  0  0  0  2  0  0  0  0  0  0
  162.2150  205.3830  151.2810 C   0  0  0  0  0  2  0  0  0  0  0  0
  160.3820  206.2360  149.0630 O   0  0  0  0  0  0  0  0  0  0  0  0
  161.2030  205.4650  148.2220 C   0  0  1  0  0  0  0  0  0  0  0  0
  161.8520  204.4050  149.0390 C   0  0  2  0  0  3  0  0  0  0  0  0
  160.0840  205.4880  150.1250 O   0  0  0  0  0  0  0  0  0  0  0  0
  160.8300  204.0220  147.9630 C   0  0  0  0  0  2  0  0  0  0  0  0
  161.1980  204.6580  150.3780 C   0  0  2  0  0  0  0  0  0  0  0  0
  160.4560  202.2960  150.2610 C   0  0  0  0  0  2  0  0  0  0  0  0
  160.7420  203.3610  151.0060 C   0  0  0  0  0  0  0  0  0  0  0  0
  160.6050  203.2690  152.3860 O   0  0  0  0  0  1  0  0  0  0  0  0
  162.1630  206.1780  147.2870 C   0  0  0  0  0  2  0  0  0  0  0  0
  162.7520  205.1900  146.2990 C   0  0  0  0  0  1  0  0  0  0  0  0
  162.3300  210.5310  149.3240 N   0  0  0  0  0  2  0  0  0  0  0  0
  162.7190  212.6350  148.2080 C   0  0  0  0  0  3  0  0  0  0  0  0
  160.9060  214.3560  148.0200 C   0  0  0  0  0  2  0  0  0  0  0  0
  162.3940  214.0630  147.8710 C   0  0  2  0  0  3  0  0  0  0  0  0
  160.4520  213.8880  149.3980 C   0  0  2  0  0  3  0  0  0  0  0  0
  160.6120  212.3700  149.5010 C   0  0  0  0  0  2  0  0  0  0  0  0
  162.8100  214.3470  146.5700 O   0  0  0  0  0  1  0  0  0  0  0  0
  161.9520  211.8790  149.0100 C   0  0  0  0  0  0  0  0  0  0  0  0
  158.9950  214.2590  149.6330 C   0  0  0  0  0  2  0  0  0  0  0  0
  158.6220  214.0510  151.0610 C   0  0  0  0  0  0  0  0  0  0  0  0
  159.5840  214.1710  152.0560 O   0  0  0  0  0  1  0  0  0  0  0  0
  157.4260  213.7990  151.3700 O   0  0  0  0  0  0  0  0  0  0  0  0
  1 22  1  6  0  0  0
  1  8  1  0  0  0  0
  2  5  1  0  0  0  0
  3 34  1  6  0  0  0
  3  2  1  0  0  0  0
  4  7  1  0  0  0  0
  4  5  1  1  0  0  0
  4  1  1  0  0  0  0
  6  3  1  0  0  0  0
  7  6  1  6  0  0  0
  7  1  1  0  0  0  0
  8  9  1  0  0  0  0
  9 10  1  0  0  0  0
 10 12  1  0  0  0  0
 10 11  1  1  0  0  0
 12 13  1  0  0  0  0
 14 16  1  0  0  0  0
 15 17  1  0  0  0  0
 18 16  1  0  0  0  0
 18 15  1  0  0  0  0
 20 19  1  6  0  0  0
 20 13  1  0  0  0  0
 20 17  1  0  0  0  0
 21 14  1  0  0  0  0
 21 20  1  0  0  0  0
 23 26  1  0  0  0  0
 24 32  1  6  0  0  0
 24 25  1  0  0  0  0
 24 23  1  0  0  0  0
 25 27  1  6  0  0  0
 25 28  1  0  0  0  0
 26 28  1  0  0  0  0
 27 24  1  0  0  0  0
 28 30  1  0  0  0  0
 28 22  1  1  0  0  0
 29 30  2  0  0  0  0
 30 31  1  0  0  0  0
 33 32  1  0  0  0  0
 35 41  2  0  0  0  0
 36 38  1  0  0  0  0
 37 40  1  6  0  0  0
 37 36  1  0  0  0  0
 37 35  1  0  0  0  0
 38 39  1  0  0  0  0
 38 42  1  6  0  0  0
 41 34  1  0  0  0  0
 41 39  1  0  0  0  0
 42 43  1  0  0  0  0
 43 45  2  0  0  0  0
 43 44  1  0  0  0  0
M  END
>  <MODEL>
7

>  <REMARK>
 VINA RESULT:      -5.9      2.755      6.684
  Name = 
  14 active torsions:
  status: ('A' for Active; 'I' for Inactive)
    1  A    between atoms: C_1  and  C_5
    2  A    between atoms: C_1  and  C_38
    3  A    between atoms: C_2  and  C_31
    4  A    between atoms: C_5  and  C_30
    5  A    between atoms: C_6  and  C_27
    6  A    between atoms: C_8  and  C_40
    7  A    between atoms: C_15  and  N_43
    8  A    between atoms: C_16  and  C_28
    9  A    between atoms: C_16  and  C_38
   10  A    between atoms: C_25  and  C_28
   11  A    between atoms: C_25  and  C_39
   12  A    between atoms: C_30  and  C_40
   13  A    between atoms: C_31  and  C_34
   14  A    between atoms: N_43  and  C_45
                            x       y       z     vdW  Elec       q    Type
                         _______ _______ _______ _____ _____    ______ ____

>  <TORSDO>
F 14

$$$$
=
 OpenBabel11072414463D

 45 50  0  0  1  0  0  0  0  0999 V2000
  160.1980  210.0560  153.3860 C   0  0  1  0  0  0  0  0  0  0  0  0
  161.7980  207.3670  151.2700 C   0  0  0  0  0  2  0  0  0  0  0  0
  161.8800  206.7480  152.7020 C   0  0  1  0  0  3  0  0  0  0  0  0
  160.3900  209.0830  152.2460 C   0  0  1  0  0  3  0  0  0  0  0  0
  161.5390  208.8920  151.2830 C   0  0  0  0  0  2  0  0  0  0  0  0
  160.9850  207.4580  153.7530 C   0  0  0  0  0  2  0  0  0  0  0  0
  161.2040  208.9430  153.5420 C   0  0  2  0  0  3  0  0  0  0  0  0
  160.8720  211.4130  153.2720 C   0  0  0  0  0  2  0  0  0  0  0  0
  160.9030  211.8750  151.8250 C   0  0  0  0  0  2  0  0  0  0  0  0
  159.6620  212.6900  151.4900 C   0  0  1  0  0  3  0  0  0  0  0  0
  159.6700  213.9990  152.2520 C   0  0  0  0  0  1  0  0  0  0  0  0
  159.4630  212.9180  149.9870 C   0  0  0  0  0  2  0  0  0  0  0  0
  160.6090  213.6780  149.3050 C   0  0  0  0  0  2  0  0  0  0  0  0
  159.4900  213.5760  146.1770 C   0  0  0  0  0  2  0  0  0  0  0  0
  162.6070  213.5110  145.9170 C   0  0  0  0  0  2  0  0  0  0  0  0
  160.5170  213.8720  145.0710 C   0  0  0  0  0  2  0  0  0  0  0  0
  162.1390  213.9720  147.3150 C   0  0  0  0  0  2  0  0  0  0  0  0
  161.5860  212.9560  145.1170 O   0  0  0  0  0  0  0  0  0  0  0  0
  161.9570  211.7590  148.4650 C   0  0  0  0  0  1  0  0  0  0  0  0
  161.1890  213.0050  148.0540 C   0  0  1  0  0  0  0  0  0  0  0  0
  159.9970  212.5420  147.1970 C   0  0  0  0  0  2  0  0  0  0  0  0
  159.0180  209.8780  154.3510 C   0  0  0  0  0  2  0  0  0  0  0  0
  157.4740  212.4440  154.5340 O   0  0  0  0  0  0  0  0  0  0  0  0
  156.7150  211.8010  155.5270 C   0  0  1  0  0  0  0  0  0  0  0  0
  157.5520  210.7390  156.1450 C   0  0  2  0  0  3  0  0  0  0  0  0
  158.7600  212.2440  154.8220 O   0  0  0  0  0  0  0  0  0  0  0  0
  157.1270  211.9560  156.9740 C   0  0  0  0  0  2  0  0  0  0  0  0
  158.8590  210.9720  155.4250 C   0  0  2  0  0  0  0  0  0  0  0  0
  160.3310  209.8500  157.0740 C   0  0  0  0  0  2  0  0  0  0  0  0
  160.0180  210.9510  156.3960 C   0  0  0  0  0  0  0  0  0  0  0  0
  160.7730  212.1000  156.6000 O   0  0  0  0  0  1  0  0  0  0  0  0
  155.3100  211.3400  155.1860 C   0  0  0  0  0  2  0  0  0  0  0  0
  154.7930  210.4110  156.2670 C   0  0  0  0  0  1  0  0  0  0  0  0
  161.5990  205.3130  152.6620 N   0  0  0  0  0  2  0  0  0  0  0  0
  161.3500  203.1900  151.5420 C   0  0  0  0  0  3  0  0  0  0  0  0
  160.6030  203.0670  149.1510 C   0  0  0  0  0  2  0  0  0  0  0  0
  161.2110  202.3140  150.3290 C   0  0  2  0  0  3  0  0  0  0  0  0
  161.3870  204.3580  148.9410 C   0  0  2  0  0  3  0  0  0  0  0  0
  161.2280  205.2580  150.1680 C   0  0  0  0  0  2  0  0  0  0  0  0
  160.4300  201.2000  150.6390 O   0  0  0  0  0  1  0  0  0  0  0  0
  161.4330  204.5280  151.4730 C   0  0  0  0  0  0  0  0  0  0  0  0
  160.8840  205.0910  147.7070 C   0  0  0  0  0  2  0  0  0  0  0  0
  161.9790  205.8890  147.0850 C   0  0  0  0  0  0  0  0  0  0  0  0
  162.3980  205.6050  145.7910 O   0  0  0  0  0  0  0  0  0  0  0  0
  162.5030  206.8430  147.7210 O   0  0  0  0  0  1  0  0  0  0  0  0
  1  8  1  6  0  0  0
  1  7  1  0  0  0  0
  1 22  1  0  0  0  0
  2  5  1  0  0  0  0
  2  3  1  0  0  0  0
  3 34  1  6  0  0  0
  3  6  1  0  0  0  0
  4  5  1  6  0  0  0
  4  1  1  0  0  0  0
  4  7  1  0  0  0  0
  7  6  1  1  0  0  0
  9  8  1  0  0  0  0
 10  9  1  0  0  0  0
 10 11  1  1  0  0  0
 12 10  1  0  0  0  0
 13 12  1  0  0  0  0
 14 21  1  0  0  0  0
 15 17  1  0  0  0  0
 16 18  1  0  0  0  0
 16 14  1  0  0  0  0
 17 20  1  0  0  0  0
 18 15  1  0  0  0  0
 20 19  1  1  0  0  0
 20 13  1  0  0  0  0
 21 20  1  0  0  0  0
 23 26  1  0  0  0  0
 23 24  1  0  0  0  0
 24 32  1  6  0  0  0
 24 25  1  0  0  0  0
 24 27  1  0  0  0  0
 25 27  1  1  0  0  0
 26 28  1  0  0  0  0
 28 22  1  6  0  0  0
 28 25  1  0  0  0  0
 28 30  1  0  0  0  0
 30 31  1  0  0  0  0
 30 29  2  0  0  0  0
 32 33  1  0  0  0  0
 36 37  1  0  0  0  0
 37 40  1  1  0  0  0
 37 35  1  0  0  0  0
 38 42  1  6  0  0  0
 38 36  1  0  0  0  0
 38 39  1  0  0  0  0
 39 41  1  0  0  0  0
 41 35  2  0  0  0  0
 41 34  1  0  0  0  0
 43 42  1  0  0  0  0
 43 45  1  0  0  0  0
 44 43  2  0  0  0  0
M  END
>  <MODEL>
8

>  <REMARK>
 VINA RESULT:      -5.8      2.865      6.637
  Name = 
  14 active torsions:
  status: ('A' for Active; 'I' for Inactive)
    1  A    between atoms: C_1  and  C_5
    2  A    between atoms: C_1  and  C_38
    3  A    between atoms: C_2  and  C_31
    4  A    between atoms: C_5  and  C_30
    5  A    between atoms: C_6  and  C_27
    6  A    between atoms: C_8  and  C_40
    7  A    between atoms: C_15  and  N_43
    8  A    between atoms: C_16  and  C_28
    9  A    between atoms: C_16  and  C_38
   10  A    between atoms: C_25  and  C_28
   11  A    between atoms: C_25  and  C_39
   12  A    between atoms: C_30  and  C_40
   13  A    between atoms: C_31  and  C_34
   14  A    between atoms: N_43  and  C_45
                            x       y       z     vdW  Elec       q    Type
                         _______ _______ _______ _____ _____    ______ ____

>  <TORSDO>
F 14

$$$$
=
 OpenBabel11072414463D

 45 50  0  0  1  0  0  0  0  0999 V2000
  161.8430  208.5770  149.6600 C   0  0  1  0  0  0  0  0  0  0  0  0
  160.8770  206.3460  146.7680 C   0  0  0  0  0  2  0  0  0  0  0  0
  162.4190  206.1090  146.8640 C   0  0  1  0  0  3  0  0  0  0  0  0
  161.0750  207.5460  148.8670 C   0  0  1  0  0  3  0  0  0  0  0  0
  160.4140  207.6230  147.5100 C   0  0  0  0  0  2  0  0  0  0  0  0
  163.0590  206.6150  148.1840 C   0  0  0  0  0  2  0  0  0  0  0  0
  162.4750  207.9950  148.4210 C   0  0  2  0  0  3  0  0  0  0  0  0
  161.4640  210.0370  149.4660 C   0  0  0  0  0  2  0  0  0  0  0  0
  162.3200  210.6720  148.3840 C   0  0  0  0  0  2  0  0  0  0  0  0
  162.2660  212.1920  148.4730 C   0  0  1  0  0  3  0  0  0  0  0  0
  163.5070  212.7990  147.8520 C   0  0  0  0  0  1  0  0  0  0  0  0
  160.9880  212.7970  147.8810 C   0  0  0  0  0  2  0  0  0  0  0  0
  160.4880  212.0980  146.6100 C   0  0  0  0  0  2  0  0  0  0  0  0
  162.4760  212.9790  144.0960 C   0  0  0  0  0  2  0  0  0  0  0  0
  159.5950  212.9740  142.8770 C   0  0  0  0  0  2  0  0  0  0  0  0
  161.8700  212.9080  142.6840 C   0  0  0  0  0  2  0  0  0  0  0  0
  159.6700  212.2170  144.2210 C   0  0  0  0  0  2  0  0  0  0  0  0
  160.7400  213.7430  142.5790 O   0  0  0  0  0  0  0  0  0  0  0  0
  159.2470  214.1040  145.8060 C   0  0  0  0  0  1  0  0  0  0  0  0
  160.2380  213.0230  145.4100 C   0  0  1  0  0  0  0  0  0  0  0  0
  161.5720  213.7230  145.0940 C   0  0  0  0  0  2  0  0  0  0  0  0
  162.6040  208.1570  150.9230 C   0  0  0  0  0  2  0  0  0  0  0  0
  162.2860  210.0420  153.2360 O   0  0  0  0  0  0  0  0  0  0  0  0
  160.9690  210.2230  152.7790 C   0  0  1  0  0  0  0  0  0  0  0  0
  160.5610  209.0080  152.0250 C   0  0  2  0  0  3  0  0  0  0  0  0
  162.5170  208.7300  153.2790 O   0  0  0  0  0  0  0  0  0  0  0  0
  159.8730  209.3510  153.3510 C   0  0  0  0  0  2  0  0  0  0  0  0
  161.7830  208.1420  152.2280 C   0  0  2  0  0  0  0  0  0  0  0  0
  161.5260  205.7240  151.7450 C   0  0  0  0  0  2  0  0  0  0  0  0
  161.3850  206.7320  152.6020 C   0  0  0  0  0  0  0  0  0  0  0  0
  160.8510  206.4720  153.8600 O   0  0  0  0  0  1  0  0  0  0  0  0
  160.6140  211.5190  152.0740 C   0  0  0  0  0  2  0  0  0  0  0  0
  159.1260  211.7820  152.1920 C   0  0  0  0  0  1  0  0  0  0  0  0
  162.7410  204.7010  146.6350 N   0  0  0  0  0  2  0  0  0  0  0  0
  161.2050  203.0320  145.8100 C   0  0  0  0  0  3  0  0  0  0  0  0
  160.4920  201.1050  147.2460 C   0  0  0  0  0  2  0  0  0  0  0  0
  160.2330  201.8980  145.9700 C   0  0  2  0  0  3  0  0  0  0  0  0
  160.5650  202.0770  148.4190 C   0  0  2  0  0  3  0  0  0  0  0  0
  161.7600  203.0130  148.2330 C   0  0  0  0  0  2  0  0  0  0  0  0
  160.3040  201.0560  144.8610 O   0  0  0  0  0  1  0  0  0  0  0  0
  161.8490  203.5970  146.8440 C   0  0  0  0  0  0  0  0  0  0  0  0
  160.7140  201.3190  149.7290 C   0  0  0  0  0  2  0  0  0  0  0  0
  160.8920  202.2650  150.8670 C   0  0  0  0  0  0  0  0  0  0  0  0
  159.9800  203.2940  151.0660 O   0  0  0  0  0  0  0  0  0  0  0  0
  161.8520  202.1120  151.6700 O   0  0  0  0  0  1  0  0  0  0  0  0
  1  8  1  6  0  0  0
  1 22  1  0  0  0  0
  2  3  1  0  0  0  0
  2  5  1  0  0  0  0
  3 34  1  1  0  0  0
  3  6  1  0  0  0  0
  4  5  1  6  0  0  0
  4  1  1  0  0  0  0
  7  6  1  1  0  0  0
  7  4  1  0  0  0  0
  7  1  1  0  0  0  0
  9 10  1  0  0  0  0
  9  8  1  0  0  0  0
 10 11  1  6  0  0  0
 12 10  1  0  0  0  0
 13 12  1  0  0  0  0
 14 21  1  0  0  0  0
 15 17  1  0  0  0  0
 16 14  1  0  0  0  0
 17 20  1  0  0  0  0
 18 16  1  0  0  0  0
 18 15  1  0  0  0  0
 20 19  1  1  0  0  0
 20 13  1  0  0  0  0
 21 20  1  0  0  0  0
 23 26  1  0  0  0  0
 24 32  1  6  0  0  0
 24 23  1  0  0  0  0
 24 27  1  0  0  0  0
 25 28  1  0  0  0  0
 25 24  1  0  0  0  0
 25 27  1  1  0  0  0
 28 22  1  6  0  0  0
 28 30  1  0  0  0  0
 28 26  1  0  0  0  0
 29 30  2  0  0  0  0
 30 31  1  0  0  0  0
 32 33  1  0  0  0  0
 34 41  1  0  0  0  0
 35 37  1  0  0  0  0
 35 41  2  0  0  0  0
 36 38  1  0  0  0  0
 37 40  1  6  0  0  0
 37 36  1  0  0  0  0
 38 42  1  1  0  0  0
 39 38  1  0  0  0  0
 41 39  1  0  0  0  0
 42 43  1  0  0  0  0
 43 44  2  0  0  0  0
 43 45  1  0  0  0  0
M  END
>  <MODEL>
9

>  <REMARK>
 VINA RESULT:      -5.8      3.576      6.896
  Name = 
  14 active torsions:
  status: ('A' for Active; 'I' for Inactive)
    1  A    between atoms: C_1  and  C_5
    2  A    between atoms: C_1  and  C_38
    3  A    between atoms: C_2  and  C_31
    4  A    between atoms: C_5  and  C_30
    5  A    between atoms: C_6  and  C_27
    6  A    between atoms: C_8  and  C_40
    7  A    between atoms: C_15  and  N_43
    8  A    between atoms: C_16  and  C_28
    9  A    between atoms: C_16  and  C_38
   10  A    between atoms: C_25  and  C_28
   11  A    between atoms: C_25  and  C_39
   12  A    between atoms: C_30  and  C_40
   13  A    between atoms: C_31  and  C_34
   14  A    between atoms: N_43  and  C_45
                            x       y       z     vdW  Elec       q    Type
                         _______ _______ _______ _____ _____    ______ ____

>  <TORSDO>
F 14

$$$$
