=
 OpenBabel11072410033D

 55 59  0  0  1  0  0  0  0  0999 V2000
  161.6380  206.2990  154.8260 N   0  0  0  0  0  0  0  0  0  0  0  0
  161.1630  207.5610  154.9280 C   0  0  0  0  0  2  0  0  0  0  0  0
  160.7610  207.9570  153.6660 C   0  0  0  0  0  0  0  0  0  0  0  0
  161.0280  206.8900  152.8400 C   0  0  0  0  0  0  0  0  0  0  0  0
  161.5600  205.8920  153.5640 N   0  0  0  0  0  0  0  0  0  0  0  0
  159.6510  206.6590  150.9340 O   0  0  0  0  0  0  0  0  0  0  0  0
  160.8160  206.8410  151.3890 C   0  0  0  0  0  0  0  0  0  0  0  0
  161.9590  207.1760  150.4770 C   0  0  0  0  0  2  0  0  0  0  0  0
  161.8300  206.5690  149.0790 C   0  0  1  0  0  3  0  0  0  0  0  0
  162.8550  208.6160  148.4050 O   0  0  0  0  0  0  0  0  0  0  0  0
  162.2690  207.2360  146.6350 N   0  0  0  0  0  2  0  0  0  0  0  0
  162.3100  207.5360  148.0380 C   0  0  0  0  0  0  0  0  0  0  0  0
  161.6730  206.1130  145.9690 C   0  0  0  0  0  0  0  0  0  0  0  0
  162.5140  205.1050  145.4840 C   0  0  0  0  0  3  0  0  0  0  0  0
  159.7550  204.9080  145.0890 C   0  0  0  0  0  3  0  0  0  0  0  0
  160.6010  203.9000  144.6160 C   0  0  0  0  0  3  0  0  0  0  0  0
  161.9820  204.0010  144.8140 C   0  0  0  0  0  3  0  0  0  0  0  0
  160.2890  206.0100  145.7610 C   0  0  0  0  0  3  0  0  0  0  0  0
  162.6240  205.4150  149.0180 O   0  0  0  0  0  0  0  0  0  0  0  0
  161.6240  203.8090  150.8570 O   0  0  0  0  0  1  0  0  0  0  0  0
  160.0320  204.5040  148.8980 O   0  0  0  0  0  0  0  0  0  0  0  0
  161.6060  204.1060  149.3750 P   0  0  1  0  0  0  0  0  0  0  0  0
  162.1340  202.6850  148.4880 N   0  0  0  0  0  2  0  0  0  0  0  0
  160.9580  201.8730  148.2370 C   0  0  2  0  0  3  0  0  0  0  0  0
  160.0670  201.8930  149.4610 C   0  0  0  0  0  1  0  0  0  0  0  0
  161.3830  200.4440  147.9380 C   0  0  0  0  0  2  0  0  0  0  0  0
  161.0180  200.0720  146.5340 C   0  0  0  0  0  0  0  0  0  0  0  0
  161.4110  199.0170  146.0610 O   0  0  0  0  0  0  0  0  0  0  0  0
  159.8930  200.3590  144.3460 C   0  0  0  0  0  1  0  0  0  0  0  0
  160.1370  200.9650  145.7180 C   0  0  0  0  0  2  0  0  0  0  0  0
  160.1540  209.2660  153.2630 C   0  0  0  0  0  2  0  0  0  0  0  0
  159.4540  209.9850  154.4200 C   0  0  0  0  0  2  0  0  0  0  0  0
  159.1040  214.4510  155.2520 C   0  0  0  0  0  2  0  0  0  0  0  0
  158.0140  214.2500  154.1920 C   0  0  0  0  0  2  0  0  0  0  0  0
  158.5240  211.9970  153.1930 C   0  0  0  0  0  0  0  0  0  0  0  0
  159.5140  213.1570  155.9380 C   0  0  2  0  0  3  0  0  0  0  0  0
  158.4750  213.4760  152.9460 C   0  0  2  0  0  3  0  0  0  0  0  0
  159.3690  211.4280  154.2130 N   0  0  0  0  0  0  0  0  0  0  0  0
  157.7930  211.2460  152.4890 O   0  0  0  0  0  0  0  0  0  0  0  0
  160.3990  213.4820  157.1240 C   0  0  0  0  0  1  0  0  0  0  0  0
  160.2870  212.2560  154.9870 C   0  0  0  0  0  2  0  0  0  0  0  0
  159.7930  213.9830  152.3670 C   0  0  0  0  0  2  0  0  0  0  0  0
  159.6470  214.2770  150.9430 N   0  0  0  0  0  2  0  0  0  0  0  0
  161.9690  212.7040  148.5440 C   0  0  0  0  0  2  0  0  0  0  0  0
  161.5730  211.5770  149.5040 C   0  0  0  0  0  2  0  0  0  0  0  0
  160.7680  213.5120  148.1480 C   0  0  0  0  0  0  0  0  0  0  0  0
  159.5570  212.9890  150.2720 C   0  0  1  0  0  3  0  0  0  0  0  0
  159.4190  213.1650  148.7410 C   0  0  1  0  0  3  0  0  0  0  0  0
  160.9010  214.4470  147.3760 O   0  0  0  0  0  0  0  0  0  0  0  0
  160.7550  212.1130  150.6850 C   0  0  0  0  0  2  0  0  0  0  0  0
  158.3700  214.1170  148.3480 N   0  0  2  0  0  0  0  0  0  0  0  0
  156.1950  214.1970  148.0780 C   0  0  0  0  0  2  0  0  0  0  0  0
  157.1970  213.7490  148.9410 O   0  0  0  0  0  0  0  0  0  0  0  0
  158.2020  213.9790  146.9550 N   0  0  0  0  0  2  0  0  0  0  0  0
  156.7900  214.1610  146.7160 C   0  0  0  0  0  2  0  0  0  0  0  0
  1  2  1  0  0  0  0
  3  2  1  0  0  0  0
  4  5  1  0  0  0  0
  4  3  2  0  0  0  0
  5  1  2  0  0  0  0
  6  7  2  0  0  0  0
  7  4  1  0  0  0  0
  8  7  1  0  0  0  0
  9  8  1  1  0  0  0
 11 12  1  0  0  0  0
 12 10  2  0  0  0  0
 12  9  1  0  0  0  0
 13 11  1  0  0  0  0
 14 13  2  0  0  0  0
 15 18  2  0  0  0  0
 16 17  2  0  0  0  0
 16 15  1  0  0  0  0
 17 14  1  0  0  0  0
 18 13  1  0  0  0  0
 19  9  1  0  0  0  0
 19 22  1  0  0  0  0
 22 21  2  6  0  0  0
 22 20  1  0  0  0  0
 23 22  1  0  0  0  0
 24 23  1  0  0  0  0
 24 25  1  1  0  0  0
 26 24  1  0  0  0  0
 27 26  1  0  0  0  0
 28 27  2  0  0  0  0
 29 30  1  0  0  0  0
 30 27  1  0  0  0  0
 31  3  1  0  0  0  0
 31 32  1  0  0  0  0
 33 36  1  0  0  0  0
 34 33  1  0  0  0  0
 35 38  1  0  0  0  0
 36 40  1  1  0  0  0
 37 42  1  1  0  0  0
 37 35  1  0  0  0  0
 37 34  1  0  0  0  0
 38 32  1  0  0  0  0
 38 41  1  0  0  0  0
 39 35  2  0  0  0  0
 41 36  1  0  0  0  0
 43 42  1  0  0  0  0
 44 45  1  0  0  0  0
 45 50  1  0  0  0  0
 46 44  1  0  0  0  0
 47 50  1  0  0  0  0
 47 43  1  1  0  0  0
 48 46  1  1  0  0  0
 48 47  1  0  0  0  0
 49 46  2  0  0  0  0
 51 54  1  6  0  0  0
 51 48  1  0  0  0  0
 51 53  1  0  0  0  0
 52 53  1  0  0  0  0
 55 54  1  0  0  0  0
 55 52  1  0  0  0  0
M  END
>  <MODEL>
1

>  <REMARK>
 VINA RESULT:      -1.6      0.000      0.000
  Name = 
  19 active torsions:
  status: ('A' for Active; 'I' for Inactive)
    1  A    between atoms: C_1  and  N_28
    2  A    between atoms: N_2  and  C_19
    3  A    between atoms: C_4  and  C_10
    4  A    between atoms: C_4  and  C_36
    5  A    between atoms: C_7  and  C_37
    6  A    between atoms: C_7  and  C_50
    7  A    between atoms: O_9  and  P_29
    8  A    between atoms: O_9  and  C_45
    9  A    between atoms: C_10  and  N_44
   10  A    between atoms: C_12  and  C_39
   11  A    between atoms: C_12  and  C_46
   12  A    between atoms: N_15  and  C_26
   13  A    between atoms: N_15  and  P_29
   14  A    between atoms: C_17  and  N_54
   15  A    between atoms: C_26  and  C_50
   16  A    between atoms: C_38  and  C_42
   17  A    between atoms: C_39  and  C_45
   18  A    between atoms: C_42  and  N_54
   19  A    between atoms: C_43  and  C_45
                            x       y       z     vdW  Elec       q    Type
                         _______ _______ _______ _____ _____    ______ ____

>  <TORSDO>
F 19

$$$$
=
 OpenBabel11072410033D

 55 59  0  0  1  0  0  0  0  0999 V2000
  161.8850  210.3240  150.5440 N   0  0  0  0  0  0  0  0  0  0  0  0
  161.6330  209.0520  150.9250 C   0  0  0  0  0  3  0  0  0  0  0  0
  161.1800  209.0910  152.2310 C   0  0  0  0  0  0  0  0  0  0  0  0
  161.1910  210.4200  152.5860 C   0  0  0  0  0  0  0  0  0  0  0  0
  161.6220  211.1530  151.5470 N   0  0  0  0  0  2  0  0  0  0  0  0
  161.5730  211.8510  154.4270 O   0  0  0  0  0  0  0  0  0  0  0  0
  160.8350  210.9710  153.8990 C   0  0  0  0  0  0  0  0  0  0  0  0
  159.5150  210.6010  154.5070 C   0  0  0  0  0  2  0  0  0  0  0  0
  158.6340  211.8040  154.8450 C   0  0  1  0  0  3  0  0  0  0  0  0
  158.1010  213.1290  156.7570 O   0  0  0  0  0  0  0  0  0  0  0  0
  159.2740  211.1920  157.2590 N   0  0  0  0  0  2  0  0  0  0  0  0
  158.6810  212.0960  156.3160 C   0  0  0  0  0  0  0  0  0  0  0  0
  160.0210  209.9920  157.0120 C   0  0  0  0  0  0  0  0  0  0  0  0
  159.3180  208.7910  156.8660 C   0  0  0  0  0  3  0  0  0  0  0  0
  162.1080  208.7820  156.7240 C   0  0  0  0  0  3  0  0  0  0  0  0
  161.3980  207.5870  156.5690 C   0  0  0  0  0  3  0  0  0  0  0  0
  160.0010  207.5930  156.6410 C   0  0  0  0  0  3  0  0  0  0  0  0
  161.4220  209.9780  156.9450 C   0  0  0  0  0  3  0  0  0  0  0  0
  159.1200  212.9220  154.1520 O   0  0  0  0  0  0  0  0  0  0  0  0
  158.1190  211.7350  152.0190 O   0  0  0  0  0  0  0  0  0  0  0  0
  156.6260  213.5470  153.1760 O   0  0  0  0  0  1  0  0  0  0  0  0
  158.1870  213.0610  152.7420 P   0  0  1  0  0  0  0  0  0  0  0  0
  158.8930  214.2690  151.6800 N   0  0  0  0  0  2  0  0  0  0  0  0
  158.9610  213.6870  150.3530 C   0  0  2  0  0  3  0  0  0  0  0  0
  160.3830  213.7760  149.8410 C   0  0  0  0  0  1  0  0  0  0  0  0
  158.0340  214.4490  149.4180 C   0  0  0  0  0  2  0  0  0  0  0  0
  157.6880  213.6110  148.2250 C   0  0  0  0  0  0  0  0  0  0  0  0
  156.5350  213.5630  147.8290 O   0  0  0  0  0  0  0  0  0  0  0  0
  158.7930  213.2960  146.0320 C   0  0  0  0  0  1  0  0  0  0  0  0
  158.7560  212.8650  147.4890 C   0  0  0  0  0  2  0  0  0  0  0  0
  160.7580  207.9410  153.0930 C   0  0  0  0  0  2  0  0  0  0  0  0
  161.7270  206.7580  153.0330 C   0  0  0  0  0  2  0  0  0  0  0  0
  160.9100  203.0590  150.5020 C   0  0  0  0  0  2  0  0  0  0  0  0
  162.1290  203.6560  149.7880 C   0  0  0  0  0  2  0  0  0  0  0  0
  162.2840  206.0050  150.6790 C   0  0  0  0  0  0  0  0  0  0  0  0
  160.7450  203.5670  151.9250 C   0  0  2  0  0  3  0  0  0  0  0  0
  162.0080  205.1560  149.4730 C   0  0  2  0  0  3  0  0  0  0  0  0
  161.4890  205.8970  151.8770 N   0  0  0  0  0  0  0  0  0  0  0  0
  163.2470  206.8200  150.6320 O   0  0  0  0  0  0  0  0  0  0  0  0
  159.6810  202.7480  152.6260 C   0  0  0  0  0  1  0  0  0  0  0  0
  160.3200  205.0280  151.9370 C   0  0  0  0  0  2  0  0  0  0  0  0
  160.6800  205.5370  148.8220 C   0  0  0  0  0  2  0  0  0  0  0  0
  160.3390  204.5900  147.7630 N   0  0  0  0  0  2  0  0  0  0  0  0
  161.0790  205.2060  144.2000 C   0  0  0  0  0  2  0  0  0  0  0  0
  162.3170  205.7090  144.9520 C   0  0  0  0  0  2  0  0  0  0  0  0
  160.6230  203.8860  144.7500 C   0  0  0  0  0  0  0  0  0  0  0  0
  161.5660  204.3590  147.0170 C   0  0  1  0  0  3  0  0  0  0  0  0
  161.3630  203.2820  145.9250 C   0  0  1  0  0  3  0  0  0  0  0  0
  159.6520  203.3350  144.2600 O   0  0  0  0  0  0  0  0  0  0  0  0
  162.0900  205.7000  146.4680 C   0  0  0  0  0  2  0  0  0  0  0  0
  160.7250  202.0530  146.4190 N   0  0  2  0  0  0  0  0  0  0  0  0
  161.2730  200.0720  147.1830 C   0  0  0  0  0  2  0  0  0  0  0  0
  161.5810  201.4300  147.2820 O   0  0  0  0  0  0  0  0  0  0  0  0
  160.5600  201.2080  145.3030 N   0  0  0  0  0  2  0  0  0  0  0  0
  160.7810  199.8700  145.7950 C   0  0  0  0  0  2  0  0  0  0  0  0
  1  2  2  0  0  0  0
  1  5  1  0  0  0  0
  2  3  1  0  0  0  0
  3  4  2  0  0  0  0
  3 31  1  0  0  0  0
  4  7  1  0  0  0  0
  5  4  1  0  0  0  0
  7  6  2  0  0  0  0
  7  8  1  0  0  0  0
  9  8  1  1  0  0  0
  9 12  1  0  0  0  0
 12 10  2  0  0  0  0
 12 11  1  0  0  0  0
 13 11  1  0  0  0  0
 14 13  2  0  0  0  0
 15 18  2  0  0  0  0
 16 17  2  0  0  0  0
 16 15  1  0  0  0  0
 17 14  1  0  0  0  0
 18 13  1  0  0  0  0
 19  9  1  0  0  0  0
 22 20  2  6  0  0  0
 22 21  1  0  0  0  0
 22 19  1  0  0  0  0
 23 22  1  0  0  0  0
 24 25  1  6  0  0  0
 24 23  1  0  0  0  0
 26 24  1  0  0  0  0
 27 26  1  0  0  0  0
 28 27  2  0  0  0  0
 29 30  1  0  0  0  0
 30 27  1  0  0  0  0
 32 31  1  0  0  0  0
 33 36  1  0  0  0  0
 34 33  1  0  0  0  0
 35 38  1  0  0  0  0
 36 41  1  0  0  0  0
 36 40  1  6  0  0  0
 37 42  1  1  0  0  0
 37 34  1  0  0  0  0
 37 35  1  0  0  0  0
 38 41  1  0  0  0  0
 38 32  1  0  0  0  0
 39 35  2  0  0  0  0
 43 42  1  0  0  0  0
 44 46  1  0  0  0  0
 44 45  1  0  0  0  0
 45 50  1  0  0  0  0
 47 43  1  6  0  0  0
 48 46  1  6  0  0  0
 48 51  1  0  0  0  0
 48 47  1  0  0  0  0
 49 46  2  0  0  0  0
 50 47  1  0  0  0  0
 51 54  1  6  0  0  0
 51 53  1  0  0  0  0
 52 53  1  0  0  0  0
 54 55  1  0  0  0  0
 55 52  1  0  0  0  0
M  END
>  <MODEL>
2

>  <REMARK>
 VINA RESULT:      -1.3      2.673     10.413
  Name = 
  19 active torsions:
  status: ('A' for Active; 'I' for Inactive)
    1  A    between atoms: C_1  and  N_28
    2  A    between atoms: N_2  and  C_19
    3  A    between atoms: C_4  and  C_10
    4  A    between atoms: C_4  and  C_36
    5  A    between atoms: C_7  and  C_37
    6  A    between atoms: C_7  and  C_50
    7  A    between atoms: O_9  and  P_29
    8  A    between atoms: O_9  and  C_45
    9  A    between atoms: C_10  and  N_44
   10  A    between atoms: C_12  and  C_39
   11  A    between atoms: C_12  and  C_46
   12  A    between atoms: N_15  and  C_26
   13  A    between atoms: N_15  and  P_29
   14  A    between atoms: C_17  and  N_54
   15  A    between atoms: C_26  and  C_50
   16  A    between atoms: C_38  and  C_42
   17  A    between atoms: C_39  and  C_45
   18  A    between atoms: C_42  and  N_54
   19  A    between atoms: C_43  and  C_45
                            x       y       z     vdW  Elec       q    Type
                         _______ _______ _______ _____ _____    ______ ____

>  <TORSDO>
F 19

$$$$
=
 OpenBabel11072410033D

 55 59  0  0  1  0  0  0  0  0999 V2000
  159.0170  209.0060  155.6850 N   0  0  0  0  0  0  0  0  0  0  0  0
  159.8950  208.8310  154.6720 C   0  0  0  0  0  3  0  0  0  0  0  0
  160.2670  210.0850  154.2230 C   0  0  0  0  0  0  0  0  0  0  0  0
  159.5700  210.9790  155.0030 C   0  0  0  0  0  0  0  0  0  0  0  0
  158.8180  210.3030  155.8850 N   0  0  0  0  0  2  0  0  0  0  0  0
  159.9490  213.1440  155.8680 O   0  0  0  0  0  0  0  0  0  0  0  0
  159.5950  212.4400  154.8800 C   0  0  0  0  0  0  0  0  0  0  0  0
  159.3630  213.0600  153.5340 C   0  0  0  0  0  2  0  0  0  0  0  0
  158.1760  212.4630  152.7780 C   0  0  1  0  0  3  0  0  0  0  0  0
  156.9740  214.2720  151.7890 O   0  0  0  0  0  0  0  0  0  0  0  0
  155.9500  213.3890  153.6730 N   0  0  0  0  0  2  0  0  0  0  0  0
  157.0350  213.4370  152.7350 C   0  0  0  0  0  0  0  0  0  0  0  0
  155.8060  212.5750  154.8460 C   0  0  0  0  0  0  0  0  0  0  0  0
  156.0900  213.1480  156.0910 C   0  0  0  0  0  3  0  0  0  0  0  0
  155.3170  210.4670  155.9510 C   0  0  0  0  0  3  0  0  0  0  0  0
  155.5930  211.0500  157.1930 C   0  0  0  0  0  3  0  0  0  0  0  0
  155.9800  212.3920  157.2600 C   0  0  0  0  0  3  0  0  0  0  0  0
  155.4240  211.2260  154.7840 C   0  0  0  0  0  3  0  0  0  0  0  0
  158.5760  212.1880  151.4620 O   0  0  0  0  0  0  0  0  0  0  0  0
  158.4040  214.4440  150.1050 O   0  0  0  0  0  0  0  0  0  0  0  0
  159.9420  214.4510  152.2230 O   0  0  0  0  0  1  0  0  0  0  0  0
  159.3610  213.5800  150.8940 P   0  0  1  0  0  0  0  0  0  0  0  0
  160.7140  213.1230  149.8700 N   0  0  0  0  0  2  0  0  0  0  0  0
  160.1620  212.6780  148.6040 C   0  0  2  0  0  3  0  0  0  0  0  0
  161.0380  211.5820  148.0340 C   0  0  0  0  0  1  0  0  0  0  0  0
  160.1140  213.8490  147.6330 C   0  0  0  0  0  2  0  0  0  0  0  0
  161.3290  213.8540  146.7580 C   0  0  0  0  0  0  0  0  0  0  0  0
  162.3970  214.2450  147.2010 O   0  0  0  0  0  0  0  0  0  0  0  0
  162.5720  213.5750  144.6340 C   0  0  0  0  0  1  0  0  0  0  0  0
  161.2540  213.3400  145.3550 C   0  0  0  0  0  2  0  0  0  0  0  0
  161.2300  210.4200  153.1250 C   0  0  0  0  0  2  0  0  0  0  0  0
  160.7550  209.9510  151.7470 C   0  0  0  0  0  2  0  0  0  0  0  0
  162.3930  205.7240  152.1970 C   0  0  0  0  0  2  0  0  0  0  0  0
  163.3110  206.2940  151.1080 C   0  0  0  0  0  2  0  0  0  0  0  0
  162.1260  208.3700  150.3200 C   0  0  0  0  0  0  0  0  0  0  0  0
  161.6860  206.8000  153.0040 C   0  0  2  0  0  3  0  0  0  0  0  0
  162.5700  206.9850  149.9510 C   0  0  2  0  0  3  0  0  0  0  0  0
  161.2260  208.6080  151.4200 N   0  0  0  0  0  0  0  0  0  0  0  0
  162.5700  209.3410  149.6470 O   0  0  0  0  0  0  0  0  0  0  0  0
  161.0070  206.1620  154.1980 C   0  0  0  0  0  1  0  0  0  0  0  0
  160.6300  207.5050  152.1650 C   0  0  0  0  0  2  0  0  0  0  0  0
  161.4100  206.1630  149.3940 C   0  0  0  0  0  2  0  0  0  0  0  0
  161.6390  204.7380  149.6180 N   0  0  0  0  0  2  0  0  0  0  0  0
  161.1120  201.1590  148.8850 C   0  0  0  0  0  2  0  0  0  0  0  0
  159.8450  201.5990  149.6260 C   0  0  0  0  0  2  0  0  0  0  0  0
  161.5090  202.1800  147.8580 C   0  0  0  0  0  0  0  0  0  0  0  0
  160.4510  204.0560  149.1280 C   0  0  1  0  0  3  0  0  0  0  0  0
  160.6920  203.4480  147.7260 C   0  0  1  0  0  3  0  0  0  0  0  0
  162.4940  201.9840  147.1670 O   0  0  0  0  0  0  0  0  0  0  0  0
  159.9870  203.0250  150.1740 C   0  0  0  0  0  2  0  0  0  0  0  0
  161.2760  204.3950  146.7650 N   0  0  2  0  0  0  0  0  0  0  0  0
  160.6720  206.0750  145.4920 C   0  0  0  0  0  2  0  0  0  0  0  0
  160.5380  205.5430  146.7760 O   0  0  0  0  0  0  0  0  0  0  0  0
  161.1330  203.8120  145.4890 N   0  0  0  0  0  2  0  0  0  0  0  0
  160.8670  204.9090  144.5900 C   0  0  0  0  0  2  0  0  0  0  0  0
  1  5  1  0  0  0  0
  2  1  2  0  0  0  0
  3  2  1  0  0  0  0
  3  4  2  0  0  0  0
  4  5  1  0  0  0  0
  7  4  1  0  0  0  0
  7  6  2  0  0  0  0
  8  7  1  0  0  0  0
  9  8  1  1  0  0  0
 10 12  2  0  0  0  0
 11 13  1  0  0  0  0
 12  9  1  0  0  0  0
 12 11  1  0  0  0  0
 13 14  1  0  0  0  0
 14 17  2  0  0  0  0
 15 16  2  0  0  0  0
 16 17  1  0  0  0  0
 18 13  2  0  0  0  0
 18 15  1  0  0  0  0
 19  9  1  0  0  0  0
 22 20  2  6  0  0  0
 22 19  1  0  0  0  0
 22 21  1  0  0  0  0
 23 22  1  0  0  0  0
 24 25  1  6  0  0  0
 24 23  1  0  0  0  0
 26 24  1  0  0  0  0
 27 28  2  0  0  0  0
 27 26  1  0  0  0  0
 29 30  1  0  0  0  0
 30 27  1  0  0  0  0
 31  3  1  0  0  0  0
 32 31  1  0  0  0  0
 33 36  1  0  0  0  0
 34 33  1  0  0  0  0
 35 38  1  0  0  0  0
 36 40  1  1  0  0  0
 37 42  1  1  0  0  0
 37 35  1  0  0  0  0
 37 34  1  0  0  0  0
 38 32  1  0  0  0  0
 38 41  1  0  0  0  0
 39 35  2  0  0  0  0
 41 36  1  0  0  0  0
 42 43  1  0  0  0  0
 44 45  1  0  0  0  0
 45 50  1  0  0  0  0
 46 44  1  0  0  0  0
 47 43  1  1  0  0  0
 47 50  1  0  0  0  0
 48 46  1  1  0  0  0
 48 47  1  0  0  0  0
 49 46  2  0  0  0  0
 51 54  1  6  0  0  0
 51 53  1  0  0  0  0
 51 48  1  0  0  0  0
 52 53  1  0  0  0  0
 55 54  1  0  0  0  0
 55 52  1  0  0  0  0
M  END
>  <MODEL>
3

>  <REMARK>
 VINA RESULT:      -1.1      2.662      9.910
  Name = 
  19 active torsions:
  status: ('A' for Active; 'I' for Inactive)
    1  A    between atoms: C_1  and  N_28
    2  A    between atoms: N_2  and  C_19
    3  A    between atoms: C_4  and  C_10
    4  A    between atoms: C_4  and  C_36
    5  A    between atoms: C_7  and  C_37
    6  A    between atoms: C_7  and  C_50
    7  A    between atoms: O_9  and  P_29
    8  A    between atoms: O_9  and  C_45
    9  A    between atoms: C_10  and  N_44
   10  A    between atoms: C_12  and  C_39
   11  A    between atoms: C_12  and  C_46
   12  A    between atoms: N_15  and  C_26
   13  A    between atoms: N_15  and  P_29
   14  A    between atoms: C_17  and  N_54
   15  A    between atoms: C_26  and  C_50
   16  A    between atoms: C_38  and  C_42
   17  A    between atoms: C_39  and  C_45
   18  A    between atoms: C_42  and  N_54
   19  A    between atoms: C_43  and  C_45
                            x       y       z     vdW  Elec       q    Type
                         _______ _______ _______ _____ _____    ______ ____

>  <TORSDO>
F 19

$$$$
=
 OpenBabel11072410033D

 55 60  0  0  1  0  0  0  0  0999 V2000
  159.9230  205.6010  144.9410 N   0  0  0  0  0  0  0  0  0  0  0  0
  160.4030  206.7640  145.4340 C   0  0  0  0  0  3  0  0  0  0  0  0
  161.3540  206.4510  146.3880 C   0  0  0  0  0  0  0  0  0  0  0  0
  161.3960  205.0760  146.4310 C   0  0  0  0  0  0  0  0  0  0  0  0
  160.5200  204.5790  145.5440 N   0  0  0  0  0  2  0  0  0  0  0  0
  163.3270  203.8020  146.9090 O   0  0  0  0  0  0  0  0  0  0  0  0
  162.2250  204.2610  147.3250 C   0  0  0  0  0  0  0  0  0  0  0  0
  161.8280  204.1310  148.7660 C   0  0  2  0  0  3  0  0  0  0  0  0
  160.7850  203.0420  149.0210 C   0  0  1  0  0  3  0  0  0  0  0  0
  161.8720  201.7200  150.6850 O   0  0  0  0  0  0  0  0  0  0  0  0
  161.5190  200.6010  148.6850 N   0  0  0  0  0  2  0  0  0  0  0  0
  161.4450  201.7810  149.4970 C   0  0  0  0  0  0  0  0  0  0  0  0
  161.1510  200.4270  147.3080 C   0  0  0  0  0  0  0  0  0  0  0  0
  160.4080  201.4380  146.6870 C   0  0  0  0  0  3  0  0  0  0  0  0
  161.0840  199.1400  145.2480 C   0  0  0  0  0  3  0  0  0  0  0  0
  160.3500  200.1590  144.6320 C   0  0  0  0  0  3  0  0  0  0  0  0
  160.0120  201.3080  145.3540 C   0  0  0  0  0  3  0  0  0  0  0  0
  161.4810  199.2740  146.5800 C   0  0  0  0  0  3  0  0  0  0  0  0
  159.9070  203.4890  150.0190 O   0  0  0  0  0  0  0  0  0  0  0  0
  162.1060  204.9070  150.3640 O   0  0  0  0  0  0  0  0  0  0  0  0
  159.8530  206.2320  150.2210 O   0  0  0  0  0  0  0  0  0  0  0  0
  160.6450  204.8320  150.7470 P   0  0  1  0  0  0  0  0  0  0  0  0
  160.5040  204.7120  152.4930 N   0  0  0  0  0  2  0  0  0  0  0  0
  161.1400  205.8890  153.0570 C   0  0  2  0  0  3  0  0  0  0  0  0
  162.6190  205.6190  153.2380 C   0  0  0  0  0  1  0  0  0  0  0  0
  160.5100  206.2080  154.4050 C   0  0  0  0  0  2  0  0  0  0  0  0
  161.1550  207.4170  155.0110 C   0  0  0  0  0  0  0  0  0  0  0  0
  161.6490  208.2690  154.2890 O   0  0  0  0  0  0  0  0  0  0  0  0
  159.9520  206.9300  157.1200 C   0  0  0  0  0  1  0  0  0  0  0  0
  161.1600  207.6090  156.4940 C   0  0  0  0  0  2  0  0  0  0  0  0
  162.1790  207.3940  147.2080 C   0  0  0  0  0  2  0  0  0  0  0  0
  161.8760  207.3110  148.7060 C   0  0  0  0  0  2  0  0  0  0  0  0
  162.0230  211.8220  149.3270 C   0  0  0  0  0  2  0  0  0  0  0  0
  162.7190  211.3150  150.5950 C   0  0  0  0  0  2  0  0  0  0  0  0
  162.1420  208.8670  150.6880 C   0  0  0  0  0  0  0  0  0  0  0  0
  161.9950  210.7910  148.2100 C   0  0  2  0  0  3  0  0  0  0  0  0
  161.9570  210.2060  151.3390 C   0  0  2  0  0  3  0  0  0  0  0  0
  161.7410  208.6280  149.3240 N   0  0  0  0  0  0  0  0  0  0  0  0
  162.6740  207.9410  151.3600 O   0  0  0  0  0  0  0  0  0  0  0  0
  161.5190  211.4540  146.9330 C   0  0  0  0  0  1  0  0  0  0  0  0
  161.0480  209.6480  148.5460 C   0  0  0  0  0  2  0  0  0  0  0  0
  160.4770  210.5190  151.5470 C   0  0  0  0  0  2  0  0  0  0  0  0
  160.0940  210.2800  152.9360 N   0  0  0  0  0  2  0  0  0  0  0  0
  159.4920  211.1490  156.4730 C   0  0  0  0  0  2  0  0  0  0  0  0
  160.9130  211.6440  156.1830 C   0  0  0  0  0  2  0  0  0  0  0  0
  158.5650  211.5070  155.3470 C   0  0  0  0  0  0  0  0  0  0  0  0
  160.4080  211.5040  153.6580 C   0  0  1  0  0  3  0  0  0  0  0  0
  159.1210  212.2190  154.1330 C   0  0  1  0  0  3  0  0  0  0  0  0
  157.3870  211.1960  155.4180 O   0  0  0  0  0  0  0  0  0  0  0  0
  161.3920  211.1850  154.8000 C   0  0  0  0  0  2  0  0  0  0  0  0
  158.1160  212.3920  153.0740 N   0  0  2  0  0  0  0  0  0  0  0  0
  157.5190  213.8570  151.5550 C   0  0  0  0  0  2  0  0  0  0  0  0
  158.6270  213.2180  152.1140 O   0  0  0  0  0  0  0  0  0  0  0  0
  157.0200  213.0560  153.6630 N   0  0  0  0  0  2  0  0  0  0  0  0
  156.5090  213.9390  152.6430 C   0  0  0  0  0  2  0  0  0  0  0  0
  1  2  2  0  0  0  0
  1  5  1  0  0  0  0
  2  3  1  0  0  0  0
  3  4  2  0  0  0  0
  3 31  1  0  0  0  0
  4  7  1  0  0  0  0
  5  4  1  0  0  0  0
  6  7  2  0  0  0  0
  8  7  1  6  0  0  0
  8  9  1  0  0  0  0
  8 20  1  0  0  0  0
  9 12  1  1  0  0  0
  9 19  1  0  0  0  0
 11 12  1  0  0  0  0
 12 10  2  0  0  0  0
 13 11  1  0  0  0  0
 14 13  1  0  0  0  0
 15 18  1  0  0  0  0
 16 15  2  0  0  0  0
 16 17  1  0  0  0  0
 17 14  2  0  0  0  0
 18 13  2  0  0  0  0
 19 22  1  0  0  0  0
 20 22  1  0  0  0  0
 22 21  2  6  0  0  0
 22 23  1  0  0  0  0
 23 24  1  0  0  0  0
 24 25  1  1  0  0  0
 24 26  1  0  0  0  0
 26 27  1  0  0  0  0
 27 30  1  0  0  0  0
 28 27  2  0  0  0  0
 30 29  1  0  0  0  0
 31 32  1  0  0  0  0
 32 38  1  0  0  0  0
 33 34  1  0  0  0  0
 34 37  1  0  0  0  0
 35 37  1  0  0  0  0
 35 39  2  0  0  0  0
 36 40  1  6  0  0  0
 36 41  1  0  0  0  0
 36 33  1  0  0  0  0
 37 42  1  6  0  0  0
 38 35  1  0  0  0  0
 41 38  1  0  0  0  0
 42 43  1  0  0  0  0
 45 44  1  0  0  0  0
 46 49  2  0  0  0  0
 46 44  1  0  0  0  0
 47 43  1  1  0  0  0
 47 48  1  0  0  0  0
 47 50  1  0  0  0  0
 48 46  1  1  0  0  0
 50 45  1  0  0  0  0
 51 53  1  6  0  0  0
 51 54  1  0  0  0  0
 51 48  1  0  0  0  0
 52 53  1  0  0  0  0
 52 55  1  0  0  0  0
 55 54  1  0  0  0  0
M  END
>  <MODEL>
4

>  <REMARK>
 VINA RESULT:       0.5      2.477      6.911
  Name = 
  19 active torsions:
  status: ('A' for Active; 'I' for Inactive)
    1  A    between atoms: C_1  and  N_28
    2  A    between atoms: N_2  and  C_19
    3  A    between atoms: C_4  and  C_10
    4  A    between atoms: C_4  and  C_36
    5  A    between atoms: C_7  and  C_37
    6  A    between atoms: C_7  and  C_50
    7  A    between atoms: O_9  and  P_29
    8  A    between atoms: O_9  and  C_45
    9  A    between atoms: C_10  and  N_44
   10  A    between atoms: C_12  and  C_39
   11  A    between atoms: C_12  and  C_46
   12  A    between atoms: N_15  and  C_26
   13  A    between atoms: N_15  and  P_29
   14  A    between atoms: C_17  and  N_54
   15  A    between atoms: C_26  and  C_50
   16  A    between atoms: C_38  and  C_42
   17  A    between atoms: C_39  and  C_45
   18  A    between atoms: C_42  and  N_54
   19  A    between atoms: C_43  and  C_45
                            x       y       z     vdW  Elec       q    Type
                         _______ _______ _______ _____ _____    ______ ____

>  <TORSDO>
F 19

$$$$
=
 OpenBabel11072410033D

 55 59  0  0  1  0  0  0  0  0999 V2000
  162.8040  210.3490  156.4630 N   0  0  0  0  0  0  0  0  0  0  0  0
  162.3260  209.3340  155.7090 C   0  0  0  0  0  3  0  0  0  0  0  0
  161.0530  209.6840  155.2980 C   0  0  0  0  0  0  0  0  0  0  0  0
  160.8150  210.9230  155.8470 C   0  0  0  0  0  0  0  0  0  0  0  0
  161.8920  211.3100  156.5500 N   0  0  0  0  0  2  0  0  0  0  0  0
  158.9480  212.0290  156.7780 O   0  0  0  0  0  0  0  0  0  0  0  0
  159.5760  211.6990  155.7330 C   0  0  0  0  0  0  0  0  0  0  0  0
  159.1720  212.2290  154.3880 C   0  0  0  0  0  2  0  0  0  0  0  0
  157.6620  212.4030  154.2240 C   0  0  1  0  0  3  0  0  0  0  0  0
  157.5940  214.4480  155.4530 O   0  0  0  0  0  0  0  0  0  0  0  0
  155.9890  212.9080  156.1100 N   0  0  0  0  0  2  0  0  0  0  0  0
  157.1130  213.2890  155.3040 C   0  0  0  0  0  0  0  0  0  0  0  0
  155.3010  211.6500  156.1640 C   0  0  0  0  0  0  0  0  0  0  0  0
  155.4010  210.7910  155.0630 C   0  0  0  0  0  3  0  0  0  0  0  0
  153.8450  210.0420  157.2590 C   0  0  0  0  0  3  0  0  0  0  0  0
  153.9570  209.1860  156.1590 C   0  0  0  0  0  3  0  0  0  0  0  0
  154.7360  209.5630  155.0600 C   0  0  0  0  0  3  0  0  0  0  0  0
  154.5130  211.2690  157.2600 C   0  0  0  0  0  3  0  0  0  0  0  0
  157.4150  213.0080  152.9830 O   0  0  0  0  0  0  0  0  0  0  0  0
  159.8440  214.0220  152.8060 O   0  0  0  0  0  1  0  0  0  0  0  0
  159.5710  211.4900  152.2030 O   0  0  0  0  0  0  0  0  0  0  0  0
  158.8960  213.0400  152.1560 P   0  0  1  0  0  0  0  0  0  0  0  0
  158.6310  213.5030  150.4830 N   0  0  0  0  0  2  0  0  0  0  0  0
  159.8410  213.1750  149.7510 C   0  0  2  0  0  3  0  0  0  0  0  0
  160.6120  214.4460  149.4650 C   0  0  0  0  0  1  0  0  0  0  0  0
  159.4710  212.4970  148.4400 C   0  0  0  0  0  2  0  0  0  0  0  0
  159.0940  213.5180  147.4110 C   0  0  0  0  0  0  0  0  0  0  0  0
  159.9570  214.2140  146.8990 O   0  0  0  0  0  0  0  0  0  0  0  0
  156.7360  213.5460  148.1650 C   0  0  0  0  0  1  0  0  0  0  0  0
  157.6710  213.6620  146.9720 C   0  0  0  0  0  2  0  0  0  0  0  0
  160.1170  208.8970  154.4340 C   0  0  0  0  0  2  0  0  0  0  0  0
  160.5510  207.4400  154.2500 C   0  0  0  0  0  2  0  0  0  0  0  0
  162.8340  205.4790  150.8300 C   0  0  0  0  0  2  0  0  0  0  0  0
  163.3220  206.9300  150.7330 C   0  0  0  0  0  2  0  0  0  0  0  0
  161.6820  208.2340  152.1270 C   0  0  0  0  0  0  0  0  0  0  0  0
  162.2330  205.1420  152.1850 C   0  0  2  0  0  3  0  0  0  0  0  0
  162.1990  207.9800  150.7420 C   0  0  2  0  0  3  0  0  0  0  0  0
  161.0980  207.1820  152.9210 N   0  0  0  0  0  0  0  0  0  0  0  0
  161.7780  209.4000  152.5990 O   0  0  0  0  0  0  0  0  0  0  0  0
  162.0110  203.6470  152.2740 C   0  0  0  0  0  1  0  0  0  0  0  0
  160.8960  205.8440  152.3780 C   0  0  0  0  0  2  0  0  0  0  0  0
  161.0590  207.6600  149.7770 C   0  0  0  0  0  2  0  0  0  0  0  0
  161.5000  206.7060  148.7620 N   0  0  0  0  0  2  0  0  0  0  0  0
  161.3410  203.0190  148.7850 C   0  0  0  0  0  2  0  0  0  0  0  0
  160.0830  203.4710  149.5330 C   0  0  0  0  0  2  0  0  0  0  0  0
  161.5520  203.8460  147.5500 C   0  0  0  0  0  0  0  0  0  0  0  0
  160.3690  205.8250  148.5180 C   0  0  1  0  0  3  0  0  0  0  0  0
  160.5880  204.9730  147.2450 C   0  0  1  0  0  3  0  0  0  0  0  0
  162.5070  203.6130  146.8270 O   0  0  0  0  0  0  0  0  0  0  0  0
  160.0950  204.9850  149.7800 C   0  0  0  0  0  2  0  0  0  0  0  0
  160.9960  205.7590  146.0720 N   0  0  2  0  0  0  0  0  0  0  0  0
  161.4720  205.4770  143.9490 C   0  0  0  0  0  2  0  0  0  0  0  0
  160.5580  205.1260  144.9440 O   0  0  0  0  0  0  0  0  0  0  0  0
  162.4060  205.7420  146.0450 N   0  0  0  0  0  2  0  0  0  0  0  0
  162.7660  205.6930  144.6490 C   0  0  0  0  0  2  0  0  0  0  0  0
  1  5  1  0  0  0  0
  2  1  2  0  0  0  0
  3  2  1  0  0  0  0
  3  4  2  0  0  0  0
  4  5  1  0  0  0  0
  7  4  1  0  0  0  0
  7  6  2  0  0  0  0
  8  7  1  0  0  0  0
  9  8  1  1  0  0  0
  9 12  1  0  0  0  0
 11 13  1  0  0  0  0
 12 10  2  0  0  0  0
 12 11  1  0  0  0  0
 13 18  1  0  0  0  0
 14 13  2  0  0  0  0
 15 18  2  0  0  0  0
 16 15  1  0  0  0  0
 17 14  1  0  0  0  0
 17 16  2  0  0  0  0
 19  9  1  0  0  0  0
 22 21  2  1  0  0  0
 22 20  1  0  0  0  0
 22 19  1  0  0  0  0
 23 22  1  0  0  0  0
 24 25  1  6  0  0  0
 24 23  1  0  0  0  0
 26 24  1  0  0  0  0
 27 26  1  0  0  0  0
 28 27  2  0  0  0  0
 30 27  1  0  0  0  0
 30 29  1  0  0  0  0
 31  3  1  0  0  0  0
 32 31  1  0  0  0  0
 33 36  1  0  0  0  0
 34 37  1  0  0  0  0
 34 33  1  0  0  0  0
 35 39  2  0  0  0  0
 35 38  1  0  0  0  0
 36 40  1  6  0  0  0
 36 41  1  0  0  0  0
 37 42  1  6  0  0  0
 37 35  1  0  0  0  0
 38 32  1  0  0  0  0
 41 38  1  0  0  0  0
 43 42  1  0  0  0  0
 44 45  1  0  0  0  0
 45 50  1  0  0  0  0
 46 44  1  0  0  0  0
 47 43  1  1  0  0  0
 47 50  1  0  0  0  0
 48 46  1  1  0  0  0
 48 47  1  0  0  0  0
 49 46  2  0  0  0  0
 51 53  1  6  0  0  0
 51 48  1  0  0  0  0
 52 55  1  0  0  0  0
 52 53  1  0  0  0  0
 54 51  1  0  0  0  0
 55 54  1  0  0  0  0
M  END
>  <MODEL>
5

>  <REMARK>
 VINA RESULT:       0.9      3.013      9.859
  Name = 
  19 active torsions:
  status: ('A' for Active; 'I' for Inactive)
    1  A    between atoms: C_1  and  N_28
    2  A    between atoms: N_2  and  C_19
    3  A    between atoms: C_4  and  C_10
    4  A    between atoms: C_4  and  C_36
    5  A    between atoms: C_7  and  C_37
    6  A    between atoms: C_7  and  C_50
    7  A    between atoms: O_9  and  P_29
    8  A    between atoms: O_9  and  C_45
    9  A    between atoms: C_10  and  N_44
   10  A    between atoms: C_12  and  C_39
   11  A    between atoms: C_12  and  C_46
   12  A    between atoms: N_15  and  C_26
   13  A    between atoms: N_15  and  P_29
   14  A    between atoms: C_17  and  N_54
   15  A    between atoms: C_26  and  C_50
   16  A    between atoms: C_38  and  C_42
   17  A    between atoms: C_39  and  C_45
   18  A    between atoms: C_42  and  N_54
   19  A    between atoms: C_43  and  C_45
                            x       y       z     vdW  Elec       q    Type
                         _______ _______ _______ _____ _____    ______ ____

>  <TORSDO>
F 19

$$$$
=
 OpenBabel11072410033D

 55 59  0  0  1  0  0  0  0  0999 V2000
  162.3270  207.0870  152.8280 N   0  0  0  0  0  0  0  0  0  0  0  0
  162.3340  206.7760  151.5120 C   0  0  0  0  0  3  0  0  0  0  0  0
  161.7860  207.8470  150.8300 C   0  0  0  0  0  0  0  0  0  0  0  0
  161.4580  208.7720  151.7940 C   0  0  0  0  0  0  0  0  0  0  0  0
  161.7960  208.2910  153.0010 N   0  0  0  0  0  2  0  0  0  0  0  0
  159.6760  210.2930  152.0920 O   0  0  0  0  0  0  0  0  0  0  0  0
  160.8030  210.0650  151.5690 C   0  0  0  0  0  0  0  0  0  0  0  0
  161.5620  211.1490  150.8620 C   0  0  0  0  0  2  0  0  0  0  0  0
  160.6670  212.2220  150.2410 C   0  0  1  0  0  3  0  0  0  0  0  0
  160.2260  212.8510  152.5000 O   0  0  0  0  0  0  0  0  0  0  0  0
  158.6890  213.6900  150.9790 N   0  0  0  0  0  2  0  0  0  0  0  0
  159.8440  212.8990  151.2970 C   0  0  0  0  0  0  0  0  0  0  0  0
  158.0350  213.8650  149.7140 C   0  0  0  0  0  0  0  0  0  0  0  0
  158.8130  214.2330  148.6100 C   0  0  0  0  0  3  0  0  0  0  0  0
  156.0540  213.9140  148.3080 C   0  0  0  0  0  3  0  0  0  0  0  0
  156.8390  214.2730  147.2080 C   0  0  0  0  0  3  0  0  0  0  0  0
  158.2200  214.4330  147.3610 C   0  0  0  0  0  3  0  0  0  0  0  0
  156.6490  213.7130  149.5560 C   0  0  0  0  0  3  0  0  0  0  0  0
  161.4830  213.1830  149.6270 O   0  0  0  0  0  0  0  0  0  0  0  0
  163.1940  211.7790  148.1900 O   0  0  0  0  0  1  0  0  0  0  0  0
  160.6590  211.5420  147.5800 O   0  0  0  0  0  0  0  0  0  0  0  0
  161.9030  212.5620  148.1050 P   0  0  1  0  0  0  0  0  0  0  0  0
  162.0910  213.8780  146.9580 N   0  0  0  0  0  2  0  0  0  0  0  0
  161.8170  213.3400  145.6380 C   0  0  2  0  0  3  0  0  0  0  0  0
  163.0950  213.3280  144.8280 C   0  0  0  0  0  1  0  0  0  0  0  0
  160.7790  214.2090  144.9430 C   0  0  0  0  0  2  0  0  0  0  0  0
  159.7070  213.3590  144.3350 C   0  0  0  0  0  0  0  0  0  0  0  0
  159.7490  212.1450  144.4590 O   0  0  0  0  0  0  0  0  0  0  0  0
  158.9000  214.1790  142.1420 C   0  0  0  0  0  1  0  0  0  0  0  0
  158.5590  213.9890  143.6120 C   0  0  0  0  0  2  0  0  0  0  0  0
  161.5880  207.9900  149.3520 C   0  0  0  0  0  2  0  0  0  0  0  0
  162.7140  207.3580  148.5300 C   0  0  0  0  0  2  0  0  0  0  0  0
  162.5710  204.3650  145.0980 C   0  0  0  0  0  2  0  0  0  0  0  0
  161.3110  205.1980  144.8320 C   0  0  0  0  0  2  0  0  0  0  0  0
  160.9270  206.4520  146.9810 C   0  0  0  0  0  0  0  0  0  0  0  0
  163.5720  205.0710  145.9990 C   0  0  2  0  0  3  0  0  0  0  0  0
  160.4050  205.3890  146.0600 C   0  0  2  0  0  3  0  0  0  0  0  0
  162.2260  206.3470  147.5960 N   0  0  0  0  0  0  0  0  0  0  0  0
  160.2040  207.4620  147.2030 O   0  0  0  0  0  0  0  0  0  0  0  0
  164.8720  204.2930  146.0040 C   0  0  0  0  0  1  0  0  0  0  0  0
  163.0530  205.1580  147.4270 C   0  0  0  0  0  2  0  0  0  0  0  0
  160.1230  204.0930  146.8160 C   0  0  0  0  0  2  0  0  0  0  0  0
  160.6280  204.1790  148.1840 N   0  0  0  0  0  2  0  0  0  0  0  0
  159.7220  200.6930  147.3770 C   0  0  0  0  0  2  0  0  0  0  0  0
  161.1960  200.8190  146.9760 C   0  0  0  0  0  2  0  0  0  0  0  0
  159.4760  201.3410  148.7080 C   0  0  0  0  0  0  0  0  0  0  0  0
  161.3690  202.9490  148.4200 C   0  0  1  0  0  3  0  0  0  0  0  0
  160.6240  202.0290  149.4160 C   0  0  1  0  0  3  0  0  0  0  0  0
  158.3530  201.3240  149.1860 O   0  0  0  0  0  0  0  0  0  0  0  0
  161.6770  202.2720  147.0710 C   0  0  0  0  0  2  0  0  0  0  0  0
  160.1970  202.7130  150.6450 N   0  0  2  0  0  0  0  0  0  0  0  0
  160.6180  204.5450  151.7750 C   0  0  0  0  0  2  0  0  0  0  0  0
  160.3840  204.0570  150.4880 O   0  0  0  0  0  0  0  0  0  0  0  0
  161.0650  202.2810  151.6690 N   0  0  0  0  0  2  0  0  0  0  0  0
  161.2620  203.4300  152.5190 C   0  0  0  0  0  2  0  0  0  0  0  0
  1  5  1  0  0  0  0
  2  1  2  0  0  0  0
  3  2  1  0  0  0  0
  3  4  2  0  0  0  0
  4  5  1  0  0  0  0
  7  4  1  0  0  0  0
  7  6  2  0  0  0  0
  8  7  1  0  0  0  0
  9  8  1  1  0  0  0
  9 12  1  0  0  0  0
 11 12  1  0  0  0  0
 12 10  2  0  0  0  0
 13 11  1  0  0  0  0
 14 13  2  0  0  0  0
 15 18  2  0  0  0  0
 16 17  2  0  0  0  0
 16 15  1  0  0  0  0
 17 14  1  0  0  0  0
 18 13  1  0  0  0  0
 19  9  1  0  0  0  0
 22 21  2  6  0  0  0
 22 20  1  0  0  0  0
 22 19  1  0  0  0  0
 23 22  1  0  0  0  0
 24 25  1  6  0  0  0
 24 23  1  0  0  0  0
 26 24  1  0  0  0  0
 27 28  2  0  0  0  0
 27 26  1  0  0  0  0
 29 30  1  0  0  0  0
 30 27  1  0  0  0  0
 31  3  1  0  0  0  0
 32 31  1  0  0  0  0
 33 36  1  0  0  0  0
 34 33  1  0  0  0  0
 34 37  1  0  0  0  0
 35 39  2  0  0  0  0
 35 38  1  0  0  0  0
 36 40  1  1  0  0  0
 36 41  1  0  0  0  0
 37 42  1  1  0  0  0
 37 35  1  0  0  0  0
 38 32  1  0  0  0  0
 41 38  1  0  0  0  0
 42 43  1  0  0  0  0
 44 46  1  0  0  0  0
 45 50  1  0  0  0  0
 45 44  1  0  0  0  0
 46 49  2  0  0  0  0
 47 43  1  6  0  0  0
 47 48  1  0  0  0  0
 48 46  1  6  0  0  0
 48 51  1  0  0  0  0
 50 47  1  0  0  0  0
 51 53  1  6  0  0  0
 51 54  1  0  0  0  0
 52 55  1  0  0  0  0
 53 52  1  0  0  0  0
 54 55  1  0  0  0  0
M  END
>  <MODEL>
6

>  <REMARK>
 VINA RESULT:       1.4      2.710     10.221
  Name = 
  19 active torsions:
  status: ('A' for Active; 'I' for Inactive)
    1  A    between atoms: C_1  and  N_28
    2  A    between atoms: N_2  and  C_19
    3  A    between atoms: C_4  and  C_10
    4  A    between atoms: C_4  and  C_36
    5  A    between atoms: C_7  and  C_37
    6  A    between atoms: C_7  and  C_50
    7  A    between atoms: O_9  and  P_29
    8  A    between atoms: O_9  and  C_45
    9  A    between atoms: C_10  and  N_44
   10  A    between atoms: C_12  and  C_39
   11  A    between atoms: C_12  and  C_46
   12  A    between atoms: N_15  and  C_26
   13  A    between atoms: N_15  and  P_29
   14  A    between atoms: C_17  and  N_54
   15  A    between atoms: C_26  and  C_50
   16  A    between atoms: C_38  and  C_42
   17  A    between atoms: C_39  and  C_45
   18  A    between atoms: C_42  and  N_54
   19  A    between atoms: C_43  and  C_45
                            x       y       z     vdW  Elec       q    Type
                         _______ _______ _______ _____ _____    ______ ____

>  <TORSDO>
F 19

$$$$
