=
 OpenBabel11072414373D

 26 28  0  0  1  0  0  0  0  0999 V2000
  160.6970  202.6290  151.5140 C   0  0  0  0  0  3  0  0  0  0  0  0
  161.4750  204.8750  151.0760 C   0  0  0  0  0  0  0  0  0  0  0  0
  161.1940  203.8450  151.9830 C   0  0  0  0  0  3  0  0  0  0  0  0
  161.2620  204.6670  149.7020 C   0  0  0  0  0  0  0  0  0  0  0  0
  160.7610  203.4260  149.2820 C   0  0  0  0  0  3  0  0  0  0  0  0
  160.4930  202.4460  150.1830 N   0  0  0  0  0  0  0  0  0  0  0  0
  162.1670  206.1900  153.0980 C   0  0  0  0  0  2  0  0  0  0  0  0
  162.0230  206.1840  151.5670 C   0  0  2  0  0  3  0  0  0  0  0  0
  161.4690  207.4550  153.6040 C   0  0  1  0  0  3  0  0  0  0  0  0
  160.1540  209.0670  152.3690 O   0  0  0  0  0  0  0  0  0  0  0  0
  161.1400  207.2830  151.2160 N   0  0  0  0  0  2  0  0  0  0  0  0
  160.8500  208.0180  152.3840 C   0  0  0  0  0  0  0  0  0  0  0  0
  160.4500  207.1420  154.7060 C   0  0  0  0  0  2  0  0  0  0  0  0
  160.0300  207.1780  157.0690 O   0  0  0  0  0  1  0  0  0  0  0  0
  160.7830  207.7750  156.0570 C   0  0  2  0  0  3  0  0  0  0  0  0
  159.3660  209.6700  155.7110 O   0  0  0  0  0  0  0  0  0  0  0  0
  160.5090  209.2400  156.0170 C   0  0  0  0  0  0  0  0  0  0  0  0
  161.5300  210.1370  156.3020 O   0  0  0  0  0  1  0  0  0  0  0  0
  161.5560  205.7210  148.7680 N   0  0  0  0  0  2  0  0  0  0  0  0
  162.6180  205.0970  146.6070 C   0  0  0  0  0  3  0  0  0  0  0  0
  160.4900  206.2200  146.6310 C   0  0  0  0  0  3  0  0  0  0  0  0
  161.4830  205.6360  144.5550 C   0  0  0  0  0  0  0  0  0  0  0  0
  162.5800  205.0770  145.2120 C   0  0  0  0  0  3  0  0  0  0  0  0
  161.5670  205.6720  147.3340 C   0  0  0  0  0  0  0  0  0  0  0  0
  160.4690  206.1910  145.2710 N   0  0  0  0  0  0  0  0  0  0  0  0
  161.4280  205.6250  143.2010 F   0  0  0  0  0  0  0  0  0  0  0  0
  1  3  1  0  0  0  0
  2  3  2  0  0  0  0
  4  2  1  0  0  0  0
  5  4  2  0  0  0  0
  5  6  1  0  0  0  0
  6  1  2  0  0  0  0
  7  9  1  0  0  0  0
  8  2  1  1  0  0  0
  8  7  1  0  0  0  0
  9 13  1  1  0  0  0
 10 12  2  0  0  0  0
 11  8  1  0  0  0  0
 11 12  1  0  0  0  0
 12  9  1  0  0  0  0
 13 15  1  0  0  0  0
 15 14  1  1  0  0  0
 16 17  2  0  0  0  0
 17 15  1  0  0  0  0
 17 18  1  0  0  0  0
 19  4  1  0  0  0  0
 20 24  1  0  0  0  0
 21 24  2  0  0  0  0
 22 23  1  0  0  0  0
 22 25  2  0  0  0  0
 23 20  2  0  0  0  0
 24 19  1  0  0  0  0
 25 21  1  0  0  0  0
 26 22  1  0  0  0  0
M  END
>  <MODEL>
1

>  <REMARK>
 VINA RESULT:      -8.2      0.000      0.000
  Name = 
  6 active torsions:
  status: ('A' for Active; 'I' for Inactive)
    1  A    between atoms: N_5  and  C_14
    2  A    between atoms: N_5  and  C_19
    3  A    between atoms: C_8  and  C_9
    4  A    between atoms: C_11  and  C_25
    5  A    between atoms: C_15  and  C_16
    6  A    between atoms: C_15  and  C_25
                            x       y       z     vdW  Elec       q    Type
                         _______ _______ _______ _____ _____    ______ ____

>  <TORSDO>
F 6

$$$$
=
 OpenBabel11072414373D

 26 28  0  0  1  0  0  0  0  0999 V2000
  160.6880  202.5820  150.4170 C   0  0  0  0  0  3  0  0  0  0  0  0
  160.9420  204.9860  150.4020 C   0  0  0  0  0  0  0  0  0  0  0  0
  160.4840  203.8110  149.7910 C   0  0  0  0  0  3  0  0  0  0  0  0
  161.5940  204.9120  151.6450 C   0  0  0  0  0  0  0  0  0  0  0  0
  161.7750  203.6520  152.2330 C   0  0  0  0  0  3  0  0  0  0  0  0
  161.3250  202.5280  151.6170 N   0  0  0  0  0  0  0  0  0  0  0  0
  160.2130  206.1480  148.3010 C   0  0  0  0  0  2  0  0  0  0  0  0
  160.7160  206.3160  149.7430 C   0  0  2  0  0  3  0  0  0  0  0  0
  161.1160  207.0050  147.4120 C   0  0  1  0  0  3  0  0  0  0  0  0
  163.1180  208.2270  148.0050 O   0  0  0  0  0  0  0  0  0  0  0  0
  161.9490  207.0830  149.6800 N   0  0  0  0  0  2  0  0  0  0  0  0
  162.1550  207.4920  148.3460 C   0  0  0  0  0  0  0  0  0  0  0  0
  161.6920  206.2020  146.2390 C   0  0  0  0  0  2  0  0  0  0  0  0
  163.5510  204.6860  146.3240 O   0  0  0  0  0  1  0  0  0  0  0  0
  162.1950  204.8120  146.6280 C   0  0  2  0  0  3  0  0  0  0  0  0
  160.9330  203.9960  144.7670 O   0  0  0  0  0  0  0  0  0  0  0  0
  161.4150  203.7650  145.9070 C   0  0  0  0  0  0  0  0  0  0  0  0
  161.2040  202.5310  146.5090 O   0  0  0  0  0  1  0  0  0  0  0  0
  162.0600  206.1180  152.2770 N   0  0  0  0  0  2  0  0  0  0  0  0
  160.8820  206.3990  154.4510 C   0  0  0  0  0  3  0  0  0  0  0  0
  161.2650  208.2990  153.0250 C   0  0  0  0  0  3  0  0  0  0  0  0
  160.1370  208.5950  155.0930 C   0  0  0  0  0  0  0  0  0  0  0  0
  160.2480  207.2320  155.3730 C   0  0  0  0  0  3  0  0  0  0  0  0
  161.3990  206.9280  153.2610 C   0  0  0  0  0  0  0  0  0  0  0  0
  160.6440  209.0970  153.9360 N   0  0  0  0  0  0  0  0  0  0  0  0
  159.5250  209.4190  155.9780 F   0  0  0  0  0  0  0  0  0  0  0  0
  1  6  1  0  0  0  0
  2  4  2  0  0  0  0
  3  2  1  0  0  0  0
  3  1  2  0  0  0  0
  4  5  1  0  0  0  0
  4 19  1  0  0  0  0
  6  5  2  0  0  0  0
  7  8  1  0  0  0  0
  8  2  1  6  0  0  0
  9 13  1  6  0  0  0
  9  7  1  0  0  0  0
  9 12  1  0  0  0  0
 10 12  2  0  0  0  0
 11  8  1  0  0  0  0
 12 11  1  0  0  0  0
 13 15  1  0  0  0  0
 15 14  1  6  0  0  0
 16 17  2  0  0  0  0
 17 18  1  0  0  0  0
 17 15  1  0  0  0  0
 19 24  1  0  0  0  0
 20 23  1  0  0  0  0
 21 24  1  0  0  0  0
 21 25  2  0  0  0  0
 22 23  2  0  0  0  0
 22 26  1  0  0  0  0
 24 20  2  0  0  0  0
 25 22  1  0  0  0  0
M  END
>  <MODEL>
2

>  <REMARK>
 VINA RESULT:      -7.6      4.399      7.733
  Name = 
  6 active torsions:
  status: ('A' for Active; 'I' for Inactive)
    1  A    between atoms: N_5  and  C_14
    2  A    between atoms: N_5  and  C_19
    3  A    between atoms: C_8  and  C_9
    4  A    between atoms: C_11  and  C_25
    5  A    between atoms: C_15  and  C_16
    6  A    between atoms: C_15  and  C_25
                            x       y       z     vdW  Elec       q    Type
                         _______ _______ _______ _____ _____    ______ ____

>  <TORSDO>
F 6

$$$$
=
 OpenBabel11072414373D

 26 28  0  0  1  0  0  0  0  0999 V2000
  160.7500  203.2720  151.7970 C   0  0  0  0  0  3  0  0  0  0  0  0
  161.7740  205.3540  151.1180 C   0  0  0  0  0  0  0  0  0  0  0  0
  161.4340  204.4420  152.1260 C   0  0  0  0  0  3  0  0  0  0  0  0
  161.4270  205.0750  149.7840 C   0  0  0  0  0  0  0  0  0  0  0  0
  160.7380  203.8850  149.5060 C   0  0  0  0  0  3  0  0  0  0  0  0
  160.4180  203.0200  150.5040 N   0  0  0  0  0  0  0  0  0  0  0  0
  161.8920  207.3290  152.6620 C   0  0  0  0  0  2  0  0  0  0  0  0
  162.5230  206.6100  151.4580 C   0  0  2  0  0  3  0  0  0  0  0  0
  161.6720  208.7850  152.2450 C   0  0  1  0  0  3  0  0  0  0  0  0
  161.9820  209.8100  150.0760 O   0  0  0  0  0  0  0  0  0  0  0  0
  162.5070  207.5440  150.3460 N   0  0  0  0  0  2  0  0  0  0  0  0
  162.0420  208.7910  150.8130 C   0  0  0  0  0  0  0  0  0  0  0  0
  160.2290  209.2380  152.4950 C   0  0  0  0  0  2  0  0  0  0  0  0
  160.6730  211.5820  152.7640 O   0  0  0  0  0  1  0  0  0  0  0  0
  160.1130  210.4690  153.3940 C   0  0  2  0  0  3  0  0  0  0  0  0
  161.8150  210.8960  155.0190 O   0  0  0  0  0  0  0  0  0  0  0  0
  160.8030  210.2220  154.6920 C   0  0  0  0  0  0  0  0  0  0  0  0
  160.3350  209.2250  155.5390 O   0  0  0  0  0  1  0  0  0  0  0  0
  161.7790  206.0080  148.7470 N   0  0  0  0  0  2  0  0  0  0  0  0
  160.5100  206.3310  146.6320 C   0  0  0  0  0  3  0  0  0  0  0  0
  162.6550  205.2410  146.6030 C   0  0  0  0  0  3  0  0  0  0  0  0
  161.4640  205.5350  144.5710 C   0  0  0  0  0  0  0  0  0  0  0  0
  160.4200  206.1670  145.2490 C   0  0  0  0  0  3  0  0  0  0  0  0
  161.6350  205.8660  147.3260 C   0  0  0  0  0  0  0  0  0  0  0  0
  162.5500  205.0900  145.2550 N   0  0  0  0  0  0  0  0  0  0  0  0
  161.3940  205.3680  143.2280 F   0  0  0  0  0  0  0  0  0  0  0  0
  1  3  1  0  0  0  0
  2  3  2  0  0  0  0
  4  2  1  0  0  0  0
  5  4  2  0  0  0  0
  5  6  1  0  0  0  0
  6  1  2  0  0  0  0
  8  2  1  6  0  0  0
  8  7  1  0  0  0  0
  9 13  1  6  0  0  0
  9  7  1  0  0  0  0
 10 12  2  0  0  0  0
 11 12  1  0  0  0  0
 11  8  1  0  0  0  0
 12  9  1  0  0  0  0
 13 15  1  0  0  0  0
 15 14  1  6  0  0  0
 15 17  1  0  0  0  0
 17 16  2  0  0  0  0
 17 18  1  0  0  0  0
 19  4  1  0  0  0  0
 20 24  1  0  0  0  0
 21 24  2  0  0  0  0
 22 23  1  0  0  0  0
 22 25  2  0  0  0  0
 23 20  2  0  0  0  0
 24 19  1  0  0  0  0
 25 21  1  0  0  0  0
 26 22  1  0  0  0  0
M  END
>  <MODEL>
3

>  <REMARK>
 VINA RESULT:      -7.1      1.408      2.180
  Name = 
  6 active torsions:
  status: ('A' for Active; 'I' for Inactive)
    1  A    between atoms: N_5  and  C_14
    2  A    between atoms: N_5  and  C_19
    3  A    between atoms: C_8  and  C_9
    4  A    between atoms: C_11  and  C_25
    5  A    between atoms: C_15  and  C_16
    6  A    between atoms: C_15  and  C_25
                            x       y       z     vdW  Elec       q    Type
                         _______ _______ _______ _____ _____    ______ ____

>  <TORSDO>
F 6

$$$$
=
 OpenBabel11072414373D

 26 28  0  0  1  0  0  0  0  0999 V2000
  161.3230  205.1900  153.0990 C   0  0  0  0  0  3  0  0  0  0  0  0
  160.9870  206.9290  151.4520 C   0  0  0  0  0  0  0  0  0  0  0  0
  161.1580  205.5740  151.7690 C   0  0  0  0  0  3  0  0  0  0  0  0
  160.9750  207.8850  152.4840 C   0  0  0  0  0  0  0  0  0  0  0  0
  161.1450  207.4470  153.8050 C   0  0  0  0  0  3  0  0  0  0  0  0
  161.3130  206.1270  154.0830 N   0  0  0  0  0  0  0  0  0  0  0  0
  160.1940  206.2160  149.1810 C   0  0  0  0  0  2  0  0  0  0  0  0
  160.7950  207.3520  150.0250 C   0  0  2  0  0  3  0  0  0  0  0  0
  161.0880  206.0590  147.9480 C   0  0  1  0  0  3  0  0  0  0  0  0
  163.1870  207.1490  147.4400 O   0  0  0  0  0  0  0  0  0  0  0  0
  162.0620  207.7150  149.4140 N   0  0  0  0  0  2  0  0  0  0  0  0
  162.2070  206.9880  148.2150 C   0  0  0  0  0  0  0  0  0  0  0  0
  161.5430  204.6080  147.7550 C   0  0  0  0  0  2  0  0  0  0  0  0
  161.2440  202.6220  146.4400 O   0  0  0  0  0  1  0  0  0  0  0  0
  161.1650  204.0150  146.3980 C   0  0  2  0  0  3  0  0  0  0  0  0
  163.3210  204.5110  145.4890 O   0  0  0  0  0  1  0  0  0  0  0  0
  162.0710  204.5420  145.3380 C   0  0  0  0  0  0  0  0  0  0  0  0
  161.5300  205.0900  144.1820 O   0  0  0  0  0  0  0  0  0  0  0  0
  160.7930  209.2750  152.1630 N   0  0  0  0  0  2  0  0  0  0  0  0
  159.0880  210.9580  152.8340 C   0  0  0  0  0  3  0  0  0  0  0  0
  161.1570  210.7770  154.0510 C   0  0  0  0  0  3  0  0  0  0  0  0
  159.5470  212.3920  154.7110 C   0  0  0  0  0  0  0  0  0  0  0  0
  158.6900  211.9890  153.6860 C   0  0  0  0  0  3  0  0  0  0  0  0
  160.3330  210.3390  153.0090 C   0  0  0  0  0  0  0  0  0  0  0  0
  160.7520  211.7830  154.8710 N   0  0  0  0  0  0  0  0  0  0  0  0
  159.1760  213.3910  155.5480 F   0  0  0  0  0  0  0  0  0  0  0  0
  1  6  1  0  0  0  0
  2  3  1  0  0  0  0
  2  4  2  0  0  0  0
  3  1  2  0  0  0  0
  4  5  1  0  0  0  0
  5  6  2  0  0  0  0
  7  8  1  0  0  0  0
  8  2  1  1  0  0  0
  9 13  1  1  0  0  0
  9 12  1  0  0  0  0
  9  7  1  0  0  0  0
 10 12  2  0  0  0  0
 11  8  1  0  0  0  0
 12 11  1  0  0  0  0
 15 14  1  1  0  0  0
 15 13  1  0  0  0  0
 17 16  1  0  0  0  0
 17 15  1  0  0  0  0
 18 17  2  0  0  0  0
 19  4  1  0  0  0  0
 19 24  1  0  0  0  0
 20 24  2  0  0  0  0
 20 23  1  0  0  0  0
 21 25  2  0  0  0  0
 22 25  1  0  0  0  0
 22 26  1  0  0  0  0
 23 22  2  0  0  0  0
 24 21  1  0  0  0  0
M  END
>  <MODEL>
4

>  <REMARK>
 VINA RESULT:      -6.9      4.973      8.433
  Name = 
  6 active torsions:
  status: ('A' for Active; 'I' for Inactive)
    1  A    between atoms: N_5  and  C_14
    2  A    between atoms: N_5  and  C_19
    3  A    between atoms: C_8  and  C_9
    4  A    between atoms: C_11  and  C_25
    5  A    between atoms: C_15  and  C_16
    6  A    between atoms: C_15  and  C_25
                            x       y       z     vdW  Elec       q    Type
                         _______ _______ _______ _____ _____    ______ ____

>  <TORSDO>
F 6

$$$$
=
 OpenBabel11072414373D

 26 28  0  0  1  0  0  0  0  0999 V2000
  161.1060  200.8680  150.0770 C   0  0  0  0  0  3  0  0  0  0  0  0
  160.6820  203.2400  150.2790 C   0  0  0  0  0  0  0  0  0  0  0  0
  160.7250  201.9620  150.8530 C   0  0  0  0  0  3  0  0  0  0  0  0
  161.0330  203.4040  148.9270 C   0  0  0  0  0  0  0  0  0  0  0  0
  161.4080  202.2710  148.1900 C   0  0  0  0  0  3  0  0  0  0  0  0
  161.4370  201.0430  148.7710 N   0  0  0  0  0  0  0  0  0  0  0  0
  160.4150  205.7340  150.3090 C   0  0  0  0  0  2  0  0  0  0  0  0
  160.2870  204.4270  151.1080 C   0  0  2  0  0  3  0  0  0  0  0  0
  161.2450  206.6960  151.1620 C   0  0  1  0  0  3  0  0  0  0  0  0
  162.3920  206.2780  153.2500 O   0  0  0  0  0  0  0  0  0  0  0  0
  161.1420  204.5540  152.2760 N   0  0  0  0  0  2  0  0  0  0  0  0
  161.6650  205.8640  152.3100 C   0  0  0  0  0  0  0  0  0  0  0  0
  162.4280  207.2780  150.3770 C   0  0  0  0  0  2  0  0  0  0  0  0
  162.8320  207.8480  148.0810 O   0  0  0  0  0  1  0  0  0  0  0  0
  162.0150  208.1300  149.1770 C   0  0  2  0  0  3  0  0  0  0  0  0
  162.2040  209.9480  150.7190 O   0  0  0  0  0  1  0  0  0  0  0  0
  162.1110  209.5780  149.5200 C   0  0  0  0  0  0  0  0  0  0  0  0
  162.0760  210.5270  148.5060 O   0  0  0  0  0  0  0  0  0  0  0  0
  160.9960  204.7150  148.3360 N   0  0  0  0  0  2  0  0  0  0  0  0
  162.2680  204.6660  146.1990 C   0  0  0  0  0  3  0  0  0  0  0  0
  160.2040  205.8940  146.3520 C   0  0  0  0  0  3  0  0  0  0  0  0
  161.4000  205.8640  144.3010 C   0  0  0  0  0  0  0  0  0  0  0  0
  162.3880  205.0550  144.8650 C   0  0  0  0  0  3  0  0  0  0  0  0
  161.1690  205.0840  146.9600 C   0  0  0  0  0  0  0  0  0  0  0  0
  160.3370  206.2630  145.0500 N   0  0  0  0  0  0  0  0  0  0  0  0
  161.4990  206.2520  143.0070 F   0  0  0  0  0  0  0  0  0  0  0  0
  1  3  1  0  0  0  0
  2  3  2  0  0  0  0
  4  2  1  0  0  0  0
  5  6  1  0  0  0  0
  5  4  2  0  0  0  0
  6  1  2  0  0  0  0
  7  8  1  0  0  0  0
  7  9  1  0  0  0  0
  8  2  1  6  0  0  0
  8 11  1  0  0  0  0
  9 13  1  6  0  0  0
  9 12  1  0  0  0  0
 11 12  1  0  0  0  0
 12 10  2  0  0  0  0
 15 14  1  6  0  0  0
 15 17  1  0  0  0  0
 15 13  1  0  0  0  0
 17 16  1  0  0  0  0
 18 17  2  0  0  0  0
 19  4  1  0  0  0  0
 20 24  1  0  0  0  0
 21 24  2  0  0  0  0
 22 23  1  0  0  0  0
 22 25  2  0  0  0  0
 23 20  2  0  0  0  0
 24 19  1  0  0  0  0
 25 21  1  0  0  0  0
 26 22  1  0  0  0  0
M  END
>  <MODEL>
5

>  <REMARK>
 VINA RESULT:      -6.9      2.538      3.820
  Name = 
  6 active torsions:
  status: ('A' for Active; 'I' for Inactive)
    1  A    between atoms: N_5  and  C_14
    2  A    between atoms: N_5  and  C_19
    3  A    between atoms: C_8  and  C_9
    4  A    between atoms: C_11  and  C_25
    5  A    between atoms: C_15  and  C_16
    6  A    between atoms: C_15  and  C_25
                            x       y       z     vdW  Elec       q    Type
                         _______ _______ _______ _____ _____    ______ ____

>  <TORSDO>
F 6

$$$$
=
 OpenBabel11072414373D

 26 28  0  0  1  0  0  0  0  0999 V2000
  161.1970  205.6390  153.8400 C   0  0  0  0  0  3  0  0  0  0  0  0
  161.2100  207.4470  152.2340 C   0  0  0  0  0  0  0  0  0  0  0  0
  161.2170  207.0060  153.5650 C   0  0  0  0  0  3  0  0  0  0  0  0
  161.1910  206.5030  151.1920 C   0  0  0  0  0  0  0  0  0  0  0  0
  161.1710  205.1400  151.5220 C   0  0  0  0  0  3  0  0  0  0  0  0
  161.1740  204.7410  152.8210 N   0  0  0  0  0  0  0  0  0  0  0  0
  162.2410  209.6540  152.8340 C   0  0  0  0  0  2  0  0  0  0  0  0
  161.2450  208.9150  151.9260 C   0  0  2  0  0  3  0  0  0  0  0  0
  161.4900  210.8370  153.4480 C   0  0  1  0  0  3  0  0  0  0  0  0
  159.1410  211.3940  153.2940 O   0  0  0  0  0  0  0  0  0  0  0  0
  159.9430  209.5230  152.1360 N   0  0  0  0  0  2  0  0  0  0  0  0
  160.0980  210.6360  152.9880 C   0  0  0  0  0  0  0  0  0  0  0  0
  161.6200  210.8650  154.9760 C   0  0  0  0  0  2  0  0  0  0  0  0
  159.7840  210.1900  156.3670 O   0  0  0  0  0  1  0  0  0  0  0  0
  160.9020  209.7130  155.6800 C   0  0  2  0  0  3  0  0  0  0  0  0
  161.6080  207.8580  157.0140 O   0  0  0  0  0  0  0  0  0  0  0  0
  161.8300  209.0370  156.6300 C   0  0  0  0  0  0  0  0  0  0  0  0
  162.9390  209.7210  157.1120 O   0  0  0  0  0  1  0  0  0  0  0  0
  161.1900  206.9520  149.8260 N   0  0  0  0  0  2  0  0  0  0  0  0
  161.2240  204.8210  148.5410 C   0  0  0  0  0  3  0  0  0  0  0  0
  161.9790  206.8650  147.5190 C   0  0  0  0  0  3  0  0  0  0  0  0
  162.0230  204.8460  146.2710 C   0  0  0  0  0  0  0  0  0  0  0  0
  161.5060  204.1380  147.3580 C   0  0  0  0  0  3  0  0  0  0  0  0
  161.4600  206.2000  148.6330 C   0  0  0  0  0  0  0  0  0  0  0  0
  162.2470  206.1830  146.3730 N   0  0  0  0  0  0  0  0  0  0  0  0
  162.3020  204.1980  145.1140 F   0  0  0  0  0  0  0  0  0  0  0  0
  2  3  2  0  0  0  0
  3  1  1  0  0  0  0
  4  5  2  0  0  0  0
  4  2  1  0  0  0  0
  5  6  1  0  0  0  0
  6  1  2  0  0  0  0
  7  9  1  0  0  0  0
  8 11  1  0  0  0  0
  8  2  1  1  0  0  0
  8  7  1  0  0  0  0
  9 13  1  1  0  0  0
 11 12  1  0  0  0  0
 12 10  2  0  0  0  0
 12  9  1  0  0  0  0
 13 15  1  0  0  0  0
 15 14  1  1  0  0  0
 15 17  1  0  0  0  0
 17 16  2  0  0  0  0
 17 18  1  0  0  0  0
 19  4  1  0  0  0  0
 20 24  1  0  0  0  0
 21 24  2  0  0  0  0
 22 25  2  0  0  0  0
 22 23  1  0  0  0  0
 23 20  2  0  0  0  0
 24 19  1  0  0  0  0
 25 21  1  0  0  0  0
 26 22  1  0  0  0  0
M  END
>  <MODEL>
6

>  <REMARK>
 VINA RESULT:      -6.8      1.816      2.737
  Name = 
  6 active torsions:
  status: ('A' for Active; 'I' for Inactive)
    1  A    between atoms: N_5  and  C_14
    2  A    between atoms: N_5  and  C_19
    3  A    between atoms: C_8  and  C_9
    4  A    between atoms: C_11  and  C_25
    5  A    between atoms: C_15  and  C_16
    6  A    between atoms: C_15  and  C_25
                            x       y       z     vdW  Elec       q    Type
                         _______ _______ _______ _____ _____    ______ ____

>  <TORSDO>
F 6

$$$$
=
 OpenBabel11072414373D

 26 28  0  0  1  0  0  0  0  0999 V2000
  162.3030  209.7050  149.2540 C   0  0  0  0  0  3  0  0  0  0  0  0
  161.3960  208.6780  151.2460 C   0  0  0  0  0  0  0  0  0  0  0  0
  161.8540  209.8170  150.5700 C   0  0  0  0  0  3  0  0  0  0  0  0
  161.3850  207.4370  150.5850 C   0  0  0  0  0  0  0  0  0  0  0  0
  161.8470  207.3780  149.2620 C   0  0  0  0  0  3  0  0  0  0  0  0
  162.2900  208.4970  148.6320 N   0  0  0  0  0  0  0  0  0  0  0  0
  159.7600  209.8170  152.7710 C   0  0  0  0  0  2  0  0  0  0  0  0
  160.8970  208.7890  152.6580 C   0  0  2  0  0  3  0  0  0  0  0  0
  160.1360  210.7720  153.9060 C   0  0  1  0  0  3  0  0  0  0  0  0
  162.1910  210.8940  155.1760 O   0  0  0  0  0  0  0  0  0  0  0  0
  161.9570  209.2240  153.5520 N   0  0  0  0  0  2  0  0  0  0  0  0
  161.5010  210.3430  154.2780 C   0  0  0  0  0  0  0  0  0  0  0  0
  160.0650  212.2390  153.4640 C   0  0  0  0  0  2  0  0  0  0  0  0
  160.0740  212.9560  151.1740 O   0  0  0  0  0  1  0  0  0  0  0  0
  159.2520  212.4640  152.1890 C   0  0  2  0  0  3  0  0  0  0  0  0
  157.9050  214.3650  151.6520 O   0  0  0  0  0  0  0  0  0  0  0  0
  158.1420  213.4220  152.4520 C   0  0  0  0  0  0  0  0  0  0  0  0
  157.3740  213.2850  153.6010 O   0  0  0  0  0  1  0  0  0  0  0  0
  160.9090  206.2680  151.2750 N   0  0  0  0  0  2  0  0  0  0  0  0
  160.8030  204.5110  149.5170 C   0  0  0  0  0  3  0  0  0  0  0  0
  161.1660  203.9030  151.8160 C   0  0  0  0  0  3  0  0  0  0  0  0
  161.0680  202.2070  150.1580 C   0  0  0  0  0  0  0  0  0  0  0  0
  160.8570  203.1630  149.1620 C   0  0  0  0  0  3  0  0  0  0  0  0
  160.9570  204.8960  150.8550 C   0  0  0  0  0  0  0  0  0  0  0  0
  161.2170  202.5930  151.4530 N   0  0  0  0  0  0  0  0  0  0  0  0
  161.1240  200.8930  149.8320 F   0  0  0  0  0  0  0  0  0  0  0  0
  1  3  1  0  0  0  0
  3  2  2  0  0  0  0
  4  2  1  0  0  0  0
  4 19  1  0  0  0  0
  5  4  2  0  0  0  0
  6  1  2  0  0  0  0
  6  5  1  0  0  0  0
  7  9  1  0  0  0  0
  8  2  1  6  0  0  0
  8  7  1  0  0  0  0
  8 11  1  0  0  0  0
  9 13  1  6  0  0  0
  9 12  1  0  0  0  0
 11 12  1  0  0  0  0
 12 10  2  0  0  0  0
 15 14  1  6  0  0  0
 15 17  1  0  0  0  0
 15 13  1  0  0  0  0
 16 17  2  0  0  0  0
 17 18  1  0  0  0  0
 20 24  1  0  0  0  0
 22 25  2  0  0  0  0
 23 20  2  0  0  0  0
 23 22  1  0  0  0  0
 24 19  1  0  0  0  0
 24 21  2  0  0  0  0
 25 21  1  0  0  0  0
 26 22  1  0  0  0  0
M  END
>  <MODEL>
7

>  <REMARK>
 VINA RESULT:      -6.6      3.339      5.366
  Name = 
  6 active torsions:
  status: ('A' for Active; 'I' for Inactive)
    1  A    between atoms: N_5  and  C_14
    2  A    between atoms: N_5  and  C_19
    3  A    between atoms: C_8  and  C_9
    4  A    between atoms: C_11  and  C_25
    5  A    between atoms: C_15  and  C_16
    6  A    between atoms: C_15  and  C_25
                            x       y       z     vdW  Elec       q    Type
                         _______ _______ _______ _____ _____    ______ ____

>  <TORSDO>
F 6

$$$$
=
 OpenBabel11072414373D

 26 28  0  0  1  0  0  0  0  0999 V2000
  161.5810  205.7520  153.6980 C   0  0  0  0  0  3  0  0  0  0  0  0
  161.0200  207.2430  151.8790 C   0  0  0  0  0  0  0  0  0  0  0  0
  161.3410  205.9590  152.3400 C   0  0  0  0  0  3  0  0  0  0  0  0
  160.9360  208.3070  152.7940 C   0  0  0  0  0  0  0  0  0  0  0  0
  161.1880  208.0470  154.1490 C   0  0  0  0  0  3  0  0  0  0  0  0
  161.5000  206.7930  154.5680 N   0  0  0  0  0  0  0  0  0  0  0  0
  160.2570  206.1900  149.7330 C   0  0  0  0  0  2  0  0  0  0  0  0
  160.7450  207.4750  150.4210 C   0  0  2  0  0  3  0  0  0  0  0  0
  161.1310  205.9900  148.4930 C   0  0  1  0  0  3  0  0  0  0  0  0
  163.0810  207.2370  147.7870 O   0  0  0  0  0  0  0  0  0  0  0  0
  161.9480  207.9020  149.7260 N   0  0  0  0  0  2  0  0  0  0  0  0
  162.1450  207.0610  148.6110 C   0  0  0  0  0  0  0  0  0  0  0  0
  161.7440  204.5850  148.4470 C   0  0  0  0  0  2  0  0  0  0  0  0
  161.1810  203.1990  150.3240 O   0  0  0  0  0  1  0  0  0  0  0  0
  160.8310  203.4930  149.0050 C   0  0  2  0  0  3  0  0  0  0  0  0
  160.8480  202.3330  146.9130 O   0  0  0  0  0  0  0  0  0  0  0  0
  160.9330  202.2640  148.1680 C   0  0  0  0  0  0  0  0  0  0  0  0
  161.1040  201.0280  148.7800 O   0  0  0  0  0  1  0  0  0  0  0  0
  160.6010  209.6250  152.3250 N   0  0  0  0  0  2  0  0  0  0  0  0
  158.6400  211.0920  152.7620 C   0  0  0  0  0  3  0  0  0  0  0  0
  160.6640  211.3640  154.0340 C   0  0  0  0  0  3  0  0  0  0  0  0
  158.8070  212.7780  154.4700 C   0  0  0  0  0  0  0  0  0  0  0  0
  158.0600  212.1370  153.4800 C   0  0  0  0  0  3  0  0  0  0  0  0
  159.9550  210.6930  153.0330 C   0  0  0  0  0  0  0  0  0  0  0  0
  160.0820  212.3810  154.7250 N   0  0  0  0  0  0  0  0  0  0  0  0
  158.2600  213.7950  155.1780 F   0  0  0  0  0  0  0  0  0  0  0  0
  1  6  1  0  0  0  0
  2  3  1  0  0  0  0
  2  4  2  0  0  0  0
  3  1  2  0  0  0  0
  4  5  1  0  0  0  0
  5  6  2  0  0  0  0
  7  8  1  0  0  0  0
  8  2  1  1  0  0  0
  9 13  1  1  0  0  0
  9 12  1  0  0  0  0
  9  7  1  0  0  0  0
 10 12  2  0  0  0  0
 11  8  1  0  0  0  0
 12 11  1  0  0  0  0
 13 15  1  0  0  0  0
 15 14  1  1  0  0  0
 16 17  2  0  0  0  0
 17 18  1  0  0  0  0
 17 15  1  0  0  0  0
 19  4  1  0  0  0  0
 19 24  1  0  0  0  0
 20 24  2  0  0  0  0
 20 23  1  0  0  0  0
 21 25  2  0  0  0  0
 22 25  1  0  0  0  0
 22 26  1  0  0  0  0
 23 22  2  0  0  0  0
 24 21  1  0  0  0  0
M  END
>  <MODEL>
8

>  <REMARK>
 VINA RESULT:      -6.6      4.831      8.085
  Name = 
  6 active torsions:
  status: ('A' for Active; 'I' for Inactive)
    1  A    between atoms: N_5  and  C_14
    2  A    between atoms: N_5  and  C_19
    3  A    between atoms: C_8  and  C_9
    4  A    between atoms: C_11  and  C_25
    5  A    between atoms: C_15  and  C_16
    6  A    between atoms: C_15  and  C_25
                            x       y       z     vdW  Elec       q    Type
                         _______ _______ _______ _____ _____    ______ ____

>  <TORSDO>
F 6

$$$$
=
 OpenBabel11072414373D

 26 28  0  0  1  0  0  0  0  0999 V2000
  162.0860  209.6910  150.6480 C   0  0  0  0  0  3  0  0  0  0  0  0
  161.2090  208.2560  152.3850 C   0  0  0  0  0  0  0  0  0  0  0  0
  161.5200  209.5390  151.9130 C   0  0  0  0  0  3  0  0  0  0  0  0
  161.4650  207.1380  151.5720 C   0  0  0  0  0  0  0  0  0  0  0  0
  162.0360  207.3450  150.3080 C   0  0  0  0  0  3  0  0  0  0  0  0
  162.3310  208.6000  149.8770 N   0  0  0  0  0  0  0  0  0  0  0  0
  159.9480  209.3890  154.2350 C   0  0  0  0  0  2  0  0  0  0  0  0
  160.5860  208.0810  153.7400 C   0  0  2  0  0  3  0  0  0  0  0  0
  160.4940  209.6440  155.6420 C   0  0  1  0  0  3  0  0  0  0  0  0
  162.2080  208.4400  156.8520 O   0  0  0  0  0  0  0  0  0  0  0  0
  161.5810  207.6910  154.7240 N   0  0  0  0  0  2  0  0  0  0  0  0
  161.5020  208.5770  155.8190 C   0  0  0  0  0  0  0  0  0  0  0  0
  161.0800  211.0550  155.7790 C   0  0  0  0  0  2  0  0  0  0  0  0
  159.1530  211.3120  157.1880 O   0  0  0  0  0  1  0  0  0  0  0  0
  160.2210  212.0040  156.6140 C   0  0  2  0  0  3  0  0  0  0  0  0
  159.6590  214.2920  156.2010 O   0  0  0  0  0  1  0  0  0  0  0  0
  159.7070  213.1130  155.7610 C   0  0  0  0  0  0  0  0  0  0  0  0
  159.2570  212.8380  154.4760 O   0  0  0  0  0  0  0  0  0  0  0  0
  161.1410  205.8210  152.0510 N   0  0  0  0  0  2  0  0  0  0  0  0
  160.8870  204.5470  149.9290 C   0  0  0  0  0  3  0  0  0  0  0  0
  161.2070  203.3830  152.0100 C   0  0  0  0  0  3  0  0  0  0  0  0
  160.9660  202.1430  150.0000 C   0  0  0  0  0  0  0  0  0  0  0  0
  160.8310  203.3220  149.2640 C   0  0  0  0  0  3  0  0  0  0  0  0
  161.0760  204.5890  151.3170 C   0  0  0  0  0  0  0  0  0  0  0  0
  161.1500  202.1970  151.3450 N   0  0  0  0  0  0  0  0  0  0  0  0
  160.9140  200.9440  149.3700 F   0  0  0  0  0  0  0  0  0  0  0  0
  1  3  1  0  0  0  0
  3  2  2  0  0  0  0
  4 19  1  0  0  0  0
  4  2  1  0  0  0  0
  5  4  2  0  0  0  0
  6  5  1  0  0  0  0
  6  1  2  0  0  0  0
  7  9  1  0  0  0  0
  8  2  1  6  0  0  0
  8  7  1  0  0  0  0
  8 11  1  0  0  0  0
  9 13  1  6  0  0  0
  9 12  1  0  0  0  0
 11 12  1  0  0  0  0
 12 10  2  0  0  0  0
 13 15  1  0  0  0  0
 15 14  1  6  0  0  0
 17 16  1  0  0  0  0
 17 15  1  0  0  0  0
 18 17  2  0  0  0  0
 20 24  1  0  0  0  0
 22 25  2  0  0  0  0
 23 20  2  0  0  0  0
 23 22  1  0  0  0  0
 24 21  2  0  0  0  0
 24 19  1  0  0  0  0
 25 21  1  0  0  0  0
 26 22  1  0  0  0  0
M  END
>  <MODEL>
9

>  <REMARK>
 VINA RESULT:      -6.6      3.023      4.878
  Name = 
  6 active torsions:
  status: ('A' for Active; 'I' for Inactive)
    1  A    between atoms: N_5  and  C_14
    2  A    between atoms: N_5  and  C_19
    3  A    between atoms: C_8  and  C_9
    4  A    between atoms: C_11  and  C_25
    5  A    between atoms: C_15  and  C_16
    6  A    between atoms: C_15  and  C_25
                            x       y       z     vdW  Elec       q    Type
                         _______ _______ _______ _____ _____    ______ ____

>  <TORSDO>
F 6

$$$$
