=
 OpenBabel11072413573D

 29 31  0  0  0  0  0  0  0  0999 V2000
  161.1400  207.9230  154.3640 C   0  0  0  0  0  3  0  0  0  0  0  0
  161.1070  208.5800  153.1350 C   0  0  0  0  0  3  0  0  0  0  0  0
  161.0940  206.4300  152.0150 C   0  0  0  0  0  0  0  0  0  0  0  0
  161.1270  205.8160  153.2750 C   0  0  0  0  0  3  0  0  0  0  0  0
  161.1500  206.5650  154.4090 N   0  0  0  0  0  0  0  0  0  0  0  0
  161.0850  207.8330  151.9500 C   0  0  0  0  0  0  0  0  0  0  0  0
  161.0470  208.4840  150.6740 N   0  0  0  0  0  2  0  0  0  0  0  0
  162.2360  208.9290  149.9610 C   0  0  0  0  0  2  0  0  0  0  0  0
  162.1020  208.6250  148.5450 N   0  0  0  0  0  2  0  0  0  0  0  0
  162.7670  207.3530  148.3130 C   0  0  0  0  0  2  0  0  0  0  0  0
  162.0050  206.5430  147.3180 C   0  0  0  0  0  0  0  0  0  0  0  0
  162.6970  205.3990  146.6550 C   0  0  0  0  0  2  0  0  0  0  0  0
  160.1970  205.5370  145.0240 C   0  0  0  0  0  3  0  0  0  0  0  0
  161.6690  205.5660  143.0590 O   0  0  0  0  0  1  0  0  0  0  0  0
  161.5540  205.5520  144.4420 C   0  0  0  0  0  0  0  0  0  0  0  0
  160.6990  206.7660  147.1580 C   0  0  0  0  0  3  0  0  0  0  0  0
  162.6740  205.5250  145.1670 C   0  0  0  0  0  3  0  0  0  0  0  0
  159.8240  206.0630  146.1990 C   0  0  0  0  0  3  0  0  0  0  0  0
  161.0680  205.6670  150.7970 N   0  0  0  0  0  2  0  0  0  0  0  0
  161.0780  204.2400  150.6330 C   0  0  0  0  0  0  0  0  0  0  0  0
  161.1570  202.0440  151.6620 C   0  0  0  0  0  3  0  0  0  0  0  0
  161.0230  203.6300  149.3710 C   0  0  0  0  0  3  0  0  0  0  0  0
  161.1020  201.4440  150.4020 C   0  0  0  0  0  3  0  0  0  0  0  0
  161.1440  203.4360  151.7750 C   0  0  0  0  0  3  0  0  0  0  0  0
  161.0350  202.2330  149.2460 C   0  0  0  0  0  0  0  0  0  0  0  0
  161.2420  200.3780  147.7840 O   0  0  0  0  0  0  0  0  0  0  0  0
  160.5500  201.8090  145.4370 C   0  0  0  0  0  1  0  0  0  0  0  0
  160.6210  202.3840  146.7700 N   0  0  0  0  0  2  0  0  0  0  0  0
  160.9770  201.6050  147.9150 C   0  0  0  0  0  0  0  0  0  0  0  0
  1  5  1  0  0  0  0
  2  1  2  0  0  0  0
  3  4  1  0  0  0  0
  4  5  2  0  0  0  0
  6  3  2  0  0  0  0
  6  2  1  0  0  0  0
  7  6  1  0  0  0  0
  8  7  1  0  0  0  0
  9  8  1  0  0  0  0
 10  9  1  0  0  0  0
 11 10  1  0  0  0  0
 12 11  1  0  0  0  0
 13 18  2  0  0  0  0
 14 15  1  0  0  0  0
 15 13  1  0  0  0  0
 15 17  2  0  0  0  0
 16 11  2  0  0  0  0
 17 12  1  0  0  0  0
 18 16  1  0  0  0  0
 19  3  1  0  0  0  0
 20 19  1  0  0  0  0
 20 24  1  0  0  0  0
 21 24  2  0  0  0  0
 22 20  2  0  0  0  0
 23 21  1  0  0  0  0
 25 22  1  0  0  0  0
 25 23  2  0  0  0  0
 26 29  2  0  0  0  0
 27 28  1  0  0  0  0
 28 29  1  0  0  0  0
 29 25  1  0  0  0  0
M  END
>  <MODEL>
1

>  <REMARK>
 VINA RESULT:      -8.2      0.000      0.000
  Name = 
  8 active torsions:
  status: ('A' for Active; 'I' for Inactive)
    1  A    between atoms: C_1  and  C_20
    2  A    between atoms: C_7  and  N_26
    3  A    between atoms: N_9  and  C_23
    4  A    between atoms: N_9  and  C_27
    5  A    between atoms: C_11  and  N_26
    6  A    between atoms: N_14  and  C_20
    7  A    between atoms: N_14  and  C_23
    8  A    between atoms: C_21  and  C_29
                            x       y       z     vdW  Elec       q    Type
                         _______ _______ _______ _____ _____    ______ ____

>  <TORSDO>
F 8

$$$$
=
 OpenBabel11072413573D

 29 31  0  0  0  0  0  0  0  0999 V2000
  161.2470  204.7420  152.4210 C   0  0  0  0  0  3  0  0  0  0  0  0
  161.1940  205.2820  151.1370 C   0  0  0  0  0  3  0  0  0  0  0  0
  161.1090  207.5040  152.1030 C   0  0  0  0  0  0  0  0  0  0  0  0
  161.1650  206.9120  153.3740 C   0  0  0  0  0  3  0  0  0  0  0  0
  161.2310  205.5610  153.5050 N   0  0  0  0  0  0  0  0  0  0  0  0
  161.1230  206.6720  150.9720 C   0  0  0  0  0  0  0  0  0  0  0  0
  161.0710  207.2520  149.6630 N   0  0  0  0  0  2  0  0  0  0  0  0
  162.2510  207.6570  148.9130 C   0  0  0  0  0  2  0  0  0  0  0  0
  162.4800  206.7280  147.8170 N   0  0  0  0  0  2  0  0  0  0  0  0
  161.1980  206.1270  147.4880 C   0  0  0  0  0  2  0  0  0  0  0  0
  161.3520  204.6580  147.2790 C   0  0  0  0  0  0  0  0  0  0  0  0
  161.9870  204.1840  146.0130 C   0  0  0  0  0  2  0  0  0  0  0  0
  160.9770  201.5960  147.1140 C   0  0  0  0  0  3  0  0  0  0  0  0
  159.9390  201.2480  144.9150 O   0  0  0  0  0  1  0  0  0  0  0  0
  160.6770  202.0760  145.7500 C   0  0  0  0  0  0  0  0  0  0  0  0
  161.0610  203.8220  148.2770 C   0  0  0  0  0  3  0  0  0  0  0  0
  161.0970  203.2470  145.2650 C   0  0  0  0  0  3  0  0  0  0  0  0
  161.1420  202.3500  148.2090 C   0  0  0  0  0  3  0  0  0  0  0  0
  161.0400  208.9300  151.9300 N   0  0  0  0  0  2  0  0  0  0  0  0
  160.6730  209.9320  152.8900 C   0  0  0  0  0  0  0  0  0  0  0  0
  161.1880  211.1030  154.9540 C   0  0  0  0  0  3  0  0  0  0  0  0
  159.5130  210.7090  152.7570 C   0  0  0  0  0  3  0  0  0  0  0  0
  160.0310  211.8720  154.8130 C   0  0  0  0  0  3  0  0  0  0  0  0
  161.5060  210.1380  153.9950 C   0  0  0  0  0  3  0  0  0  0  0  0
  159.1840  211.6800  153.7130 C   0  0  0  0  0  0  0  0  0  0  0  0
  157.7460  213.1130  152.4860 O   0  0  0  0  0  0  0  0  0  0  0  0
  155.7990  213.3540  154.5320 C   0  0  0  0  0  1  0  0  0  0  0  0
  157.0190  212.5690  154.6340 N   0  0  0  0  0  2  0  0  0  0  0  0
  157.9620  212.4890  153.5620 C   0  0  0  0  0  0  0  0  0  0  0  0
  1  5  1  0  0  0  0
  2  1  2  0  0  0  0
  3  4  1  0  0  0  0
  4  5  2  0  0  0  0
  6  2  1  0  0  0  0
  6  3  2  0  0  0  0
  7  6  1  0  0  0  0
  8  7  1  0  0  0  0
  9  8  1  0  0  0  0
 10  9  1  0  0  0  0
 11 10  1  0  0  0  0
 11 16  2  0  0  0  0
 12 11  1  0  0  0  0
 13 18  2  0  0  0  0
 14 15  1  0  0  0  0
 15 13  1  0  0  0  0
 17 15  2  0  0  0  0
 17 12  1  0  0  0  0
 18 16  1  0  0  0  0
 19  3  1  0  0  0  0
 19 20  1  0  0  0  0
 20 24  1  0  0  0  0
 22 20  2  0  0  0  0
 22 25  1  0  0  0  0
 23 21  1  0  0  0  0
 24 21  2  0  0  0  0
 25 23  2  0  0  0  0
 26 29  2  0  0  0  0
 27 28  1  0  0  0  0
 29 25  1  0  0  0  0
 29 28  1  0  0  0  0
M  END
>  <MODEL>
2

>  <REMARK>
 VINA RESULT:      -8.2      3.608      7.009
  Name = 
  8 active torsions:
  status: ('A' for Active; 'I' for Inactive)
    1  A    between atoms: C_1  and  C_20
    2  A    between atoms: C_7  and  N_26
    3  A    between atoms: N_9  and  C_23
    4  A    between atoms: N_9  and  C_27
    5  A    between atoms: C_11  and  N_26
    6  A    between atoms: N_14  and  C_20
    7  A    between atoms: N_14  and  C_23
    8  A    between atoms: C_21  and  C_29
                            x       y       z     vdW  Elec       q    Type
                         _______ _______ _______ _____ _____    ______ ____

>  <TORSDO>
F 8

$$$$
=
 OpenBabel11072413573D

 29 31  0  0  0  0  0  0  0  0999 V2000
  161.9680  208.7990  148.5760 C   0  0  0  0  0  3  0  0  0  0  0  0
  162.0400  207.7740  149.5170 C   0  0  0  0  0  3  0  0  0  0  0  0
  162.0890  209.4340  151.2830 C   0  0  0  0  0  0  0  0  0  0  0  0
  162.0160  210.4290  150.2970 C   0  0  0  0  0  3  0  0  0  0  0  0
  161.9580  210.0960  148.9810 N   0  0  0  0  0  0  0  0  0  0  0  0
  162.1020  208.0890  150.8820 C   0  0  0  0  0  0  0  0  0  0  0  0
  162.1730  207.0530  151.8690 N   0  0  0  0  0  2  0  0  0  0  0  0
  161.1700  206.0080  152.0160 C   0  0  0  0  0  2  0  0  0  0  0  0
  161.5920  204.8160  151.2980 N   0  0  0  0  0  2  0  0  0  0  0  0
  160.5060  204.4420  150.4070 C   0  0  0  0  0  2  0  0  0  0  0  0
  160.9530  203.3770  149.4630 C   0  0  0  0  0  0  0  0  0  0  0  0
  161.7750  203.7740  148.2820 C   0  0  0  0  0  2  0  0  0  0  0  0
  161.1780  200.9290  147.5930 C   0  0  0  0  0  3  0  0  0  0  0  0
  160.4250  201.7810  145.4160 O   0  0  0  0  0  1  0  0  0  0  0  0
  160.9160  202.0620  146.6830 C   0  0  0  0  0  0  0  0  0  0  0  0
  160.7360  202.0970  149.7730 C   0  0  0  0  0  3  0  0  0  0  0  0
  161.1490  203.3380  146.9990 C   0  0  0  0  0  3  0  0  0  0  0  0
  161.1000  200.9420  148.9300 C   0  0  0  0  0  3  0  0  0  0  0  0
  162.1500  209.7530  152.6840 N   0  0  0  0  0  2  0  0  0  0  0  0
  161.0670  209.9940  153.5960 C   0  0  0  0  0  0  0  0  0  0  0  0
  159.9760  209.4520  155.6950 C   0  0  0  0  0  3  0  0  0  0  0  0
  160.0690  210.9470  153.3410 C   0  0  0  0  0  3  0  0  0  0  0  0
  158.9870  210.4020  155.4330 C   0  0  0  0  0  3  0  0  0  0  0  0
  161.0120  209.2500  154.7790 C   0  0  0  0  0  3  0  0  0  0  0  0
  159.0260  211.1570  154.2530 C   0  0  0  0  0  0  0  0  0  0  0  0
  156.9810  212.2580  154.7330 O   0  0  0  0  0  0  0  0  0  0  0  0
  157.1060  214.0290  152.5240 C   0  0  0  0  0  1  0  0  0  0  0  0
  158.1080  213.0240  152.8410 N   0  0  0  0  0  2  0  0  0  0  0  0
  157.9840  212.1600  153.9740 C   0  0  0  0  0  0  0  0  0  0  0  0
  1  5  2  0  0  0  0
  1  2  1  0  0  0  0
  2  6  2  0  0  0  0
  3 19  1  0  0  0  0
  4  3  2  0  0  0  0
  5  4  1  0  0  0  0
  6  3  1  0  0  0  0
  6  7  1  0  0  0  0
  7  8  1  0  0  0  0
  9  8  1  0  0  0  0
 10  9  1  0  0  0  0
 11 16  2  0  0  0  0
 11 10  1  0  0  0  0
 12 11  1  0  0  0  0
 13 18  2  0  0  0  0
 14 15  1  0  0  0  0
 15 17  2  0  0  0  0
 15 13  1  0  0  0  0
 17 12  1  0  0  0  0
 18 16  1  0  0  0  0
 19 20  1  0  0  0  0
 20 24  1  0  0  0  0
 22 20  2  0  0  0  0
 22 25  1  0  0  0  0
 23 21  1  0  0  0  0
 24 21  2  0  0  0  0
 25 23  2  0  0  0  0
 27 28  1  0  0  0  0
 28 29  1  0  0  0  0
 29 25  1  0  0  0  0
 29 26  2  0  0  0  0
M  END
>  <MODEL>
3

>  <REMARK>
 VINA RESULT:      -7.8      3.667      7.332
  Name = 
  8 active torsions:
  status: ('A' for Active; 'I' for Inactive)
    1  A    between atoms: C_1  and  C_20
    2  A    between atoms: C_7  and  N_26
    3  A    between atoms: N_9  and  C_23
    4  A    between atoms: N_9  and  C_27
    5  A    between atoms: C_11  and  N_26
    6  A    between atoms: N_14  and  C_20
    7  A    between atoms: N_14  and  C_23
    8  A    between atoms: C_21  and  C_29
                            x       y       z     vdW  Elec       q    Type
                         _______ _______ _______ _____ _____    ______ ____

>  <TORSDO>
F 8

$$$$
=
 OpenBabel11072413573D

 29 31  0  0  0  0  0  0  0  0999 V2000
  161.5550  208.0820  148.4720 C   0  0  0  0  0  3  0  0  0  0  0  0
  161.0810  206.8770  148.9880 C   0  0  0  0  0  3  0  0  0  0  0  0
  161.8250  207.5570  151.1930 C   0  0  0  0  0  0  0  0  0  0  0  0
  162.2860  208.7540  150.6260 C   0  0  0  0  0  3  0  0  0  0  0  0
  162.1440  208.9880  149.2950 N   0  0  0  0  0  0  0  0  0  0  0  0
  161.2150  206.6080  150.3570 C   0  0  0  0  0  0  0  0  0  0  0  0
  160.7320  205.3780  150.9120 N   0  0  0  0  0  2  0  0  0  0  0  0
  161.5760  204.4280  151.6230 C   0  0  0  0  0  2  0  0  0  0  0  0
  161.6070  203.1640  150.9040 N   0  0  0  0  0  2  0  0  0  0  0  0
  160.4410  203.1340  150.0350 C   0  0  0  0  0  2  0  0  0  0  0  0
  160.8440  202.7980  148.6390 C   0  0  0  0  0  0  0  0  0  0  0  0
  161.9540  203.5760  148.0130 C   0  0  0  0  0  2  0  0  0  0  0  0
  160.9410  202.0730  145.6370 C   0  0  0  0  0  3  0  0  0  0  0  0
  160.8390  204.2490  144.5030 O   0  0  0  0  0  1  0  0  0  0  0  0
  161.1080  203.5410  145.6660 C   0  0  0  0  0  0  0  0  0  0  0  0
  160.3120  201.7280  148.0450 C   0  0  0  0  0  3  0  0  0  0  0  0
  161.5270  204.2200  146.7360 C   0  0  0  0  0  3  0  0  0  0  0  0
  160.5960  201.2870  146.6660 C   0  0  0  0  0  3  0  0  0  0  0  0
  161.9580  207.2790  152.5970 N   0  0  0  0  0  2  0  0  0  0  0  0
  161.1940  207.8080  153.6920 C   0  0  0  0  0  0  0  0  0  0  0  0
  160.1260  207.4290  155.8380 C   0  0  0  0  0  3  0  0  0  0  0  0
  160.7680  209.1440  153.7330 C   0  0  0  0  0  3  0  0  0  0  0  0
  159.7060  208.7600  155.8710 C   0  0  0  0  0  3  0  0  0  0  0  0
  160.8680  206.9570  154.7530 C   0  0  0  0  0  3  0  0  0  0  0  0
  160.0240  209.6280  154.8180 C   0  0  0  0  0  0  0  0  0  0  0  0
  159.3040  211.5840  155.9490 O   0  0  0  0  0  0  0  0  0  0  0  0
  159.0350  213.1620  153.6100 C   0  0  0  0  0  1  0  0  0  0  0  0
  159.4670  211.7740  153.6300 N   0  0  0  0  0  2  0  0  0  0  0  0
  159.5820  211.0330  154.8490 C   0  0  0  0  0  0  0  0  0  0  0  0
  1  2  2  0  0  0  0
  1  5  1  0  0  0  0
  2  6  1  0  0  0  0
  3 19  1  0  0  0  0
  4  3  1  0  0  0  0
  5  4  2  0  0  0  0
  6  7  1  0  0  0  0
  6  3  2  0  0  0  0
  7  8  1  0  0  0  0
  9  8  1  0  0  0  0
 10  9  1  0  0  0  0
 11 10  1  0  0  0  0
 12 11  1  0  0  0  0
 13 15  1  0  0  0  0
 13 18  2  0  0  0  0
 14 15  1  0  0  0  0
 15 17  2  0  0  0  0
 16 11  2  0  0  0  0
 17 12  1  0  0  0  0
 18 16  1  0  0  0  0
 19 20  1  0  0  0  0
 20 22  2  0  0  0  0
 20 24  1  0  0  0  0
 21 23  1  0  0  0  0
 22 25  1  0  0  0  0
 24 21  2  0  0  0  0
 25 29  1  0  0  0  0
 25 23  2  0  0  0  0
 27 28  1  0  0  0  0
 28 29  1  0  0  0  0
 29 26  2  0  0  0  0
M  END
>  <MODEL>
4

>  <REMARK>
 VINA RESULT:      -7.6      3.274      6.687
  Name = 
  8 active torsions:
  status: ('A' for Active; 'I' for Inactive)
    1  A    between atoms: C_1  and  C_20
    2  A    between atoms: C_7  and  N_26
    3  A    between atoms: N_9  and  C_23
    4  A    between atoms: N_9  and  C_27
    5  A    between atoms: C_11  and  N_26
    6  A    between atoms: N_14  and  C_20
    7  A    between atoms: N_14  and  C_23
    8  A    between atoms: C_21  and  C_29
                            x       y       z     vdW  Elec       q    Type
                         _______ _______ _______ _____ _____    ______ ____

>  <TORSDO>
F 8

$$$$
=
 OpenBabel11072413573D

 29 31  0  0  0  0  0  0  0  0999 V2000
  161.9560  210.9520  148.7830 C   0  0  0  0  0  3  0  0  0  0  0  0
  161.9860  209.6450  148.2990 C   0  0  0  0  0  3  0  0  0  0  0  0
  161.9900  208.8260  150.5800 C   0  0  0  0  0  0  0  0  0  0  0  0
  161.9600  210.1580  151.0180 C   0  0  0  0  0  3  0  0  0  0  0  0
  161.9440  211.1800  150.1230 N   0  0  0  0  0  0  0  0  0  0  0  0
  162.0040  208.5720  149.2000 C   0  0  0  0  0  0  0  0  0  0  0  0
  162.0320  207.2190  148.7260 N   0  0  0  0  0  2  0  0  0  0  0  0
  162.1780  206.8590  147.3230 C   0  0  0  0  0  2  0  0  0  0  0  0
  161.1710  205.8750  146.9610 N   0  0  0  0  0  2  0  0  0  0  0  0
  161.8190  204.5730  146.9680 C   0  0  0  0  0  2  0  0  0  0  0  0
  161.2210  203.7020  148.0210 C   0  0  0  0  0  0  0  0  0  0  0  0
  160.5120  204.3530  149.1620 C   0  0  0  0  0  2  0  0  0  0  0  0
  160.6290  201.5310  150.1380 C   0  0  0  0  0  3  0  0  0  0  0  0
  161.5760  202.4540  152.2070 O   0  0  0  0  0  1  0  0  0  0  0  0
  161.1060  202.6880  150.9220 C   0  0  0  0  0  0  0  0  0  0  0  0
  161.2060  202.3800  147.8440 C   0  0  0  0  0  3  0  0  0  0  0  0
  161.0880  203.9460  150.4770 C   0  0  0  0  0  3  0  0  0  0  0  0
  160.6720  201.3950  148.8060 C   0  0  0  0  0  3  0  0  0  0  0  0
  162.0060  207.7220  151.5010 N   0  0  0  0  0  2  0  0  0  0  0  0
  161.4150  207.6360  152.8070 C   0  0  0  0  0  0  0  0  0  0  0  0
  160.6340  206.2390  154.6320 C   0  0  0  0  0  3  0  0  0  0  0  0
  161.0420  208.7730  153.5380 C   0  0  0  0  0  3  0  0  0  0  0  0
  160.2660  207.3760  155.3530 C   0  0  0  0  0  3  0  0  0  0  0  0
  161.2060  206.3700  153.3640 C   0  0  0  0  0  3  0  0  0  0  0  0
  160.4670  208.6530  154.8120 C   0  0  0  0  0  0  0  0  0  0  0  0
  160.5230  210.0360  156.7370 O   0  0  0  0  0  0  0  0  0  0  0  0
  158.7910  212.0210  155.6900 C   0  0  0  0  0  1  0  0  0  0  0  0
  159.2010  210.8190  154.9820 N   0  0  0  0  0  2  0  0  0  0  0  0
  160.0800  209.8550  155.5690 C   0  0  0  0  0  0  0  0  0  0  0  0
  1  5  1  0  0  0  0
  2  1  2  0  0  0  0
  2  6  1  0  0  0  0
  3  4  1  0  0  0  0
  3 19  1  0  0  0  0
  5  4  2  0  0  0  0
  6  3  2  0  0  0  0
  7  6  1  0  0  0  0
  8  7  1  0  0  0  0
  9 10  1  0  0  0  0
  9  8  1  0  0  0  0
 10 11  1  0  0  0  0
 11 12  1  0  0  0  0
 12 17  1  0  0  0  0
 13 15  1  0  0  0  0
 15 14  1  0  0  0  0
 16 11  2  0  0  0  0
 16 18  1  0  0  0  0
 17 15  2  0  0  0  0
 18 13  2  0  0  0  0
 19 20  1  0  0  0  0
 20 24  2  0  0  0  0
 20 22  1  0  0  0  0
 21 23  2  0  0  0  0
 22 25  2  0  0  0  0
 24 21  1  0  0  0  0
 25 23  1  0  0  0  0
 25 29  1  0  0  0  0
 28 29  1  0  0  0  0
 28 27  1  0  0  0  0
 29 26  2  0  0  0  0
M  END
>  <MODEL>
5

>  <REMARK>
 VINA RESULT:      -7.6      3.221      6.870
  Name = 
  8 active torsions:
  status: ('A' for Active; 'I' for Inactive)
    1  A    between atoms: C_1  and  C_20
    2  A    between atoms: C_7  and  N_26
    3  A    between atoms: N_9  and  C_23
    4  A    between atoms: N_9  and  C_27
    5  A    between atoms: C_11  and  N_26
    6  A    between atoms: N_14  and  C_20
    7  A    between atoms: N_14  and  C_23
    8  A    between atoms: C_21  and  C_29
                            x       y       z     vdW  Elec       q    Type
                         _______ _______ _______ _____ _____    ______ ____

>  <TORSDO>
F 8

$$$$
=
 OpenBabel11072413573D

 29 31  0  0  0  0  0  0  0  0999 V2000
  161.6330  208.2390  151.9400 C   0  0  0  0  0  3  0  0  0  0  0  0
  161.8530  209.2620  151.0180 C   0  0  0  0  0  3  0  0  0  0  0  0
  161.8350  207.6220  149.2330 C   0  0  0  0  0  0  0  0  0  0  0  0
  161.6150  206.6290  150.1980 C   0  0  0  0  0  3  0  0  0  0  0  0
  161.5200  206.9540  151.5150 N   0  0  0  0  0  0  0  0  0  0  0  0
  161.9560  208.9560  149.6550 C   0  0  0  0  0  0  0  0  0  0  0  0
  162.1780  209.9900  148.6880 N   0  0  0  0  0  2  0  0  0  0  0  0
  161.9610  211.4040  148.9550 C   0  0  0  0  0  2  0  0  0  0  0  0
  162.3850  212.1930  147.8090 N   0  0  0  0  0  2  0  0  0  0  0  0
  161.1850  212.7280  147.1870 C   0  0  0  0  0  2  0  0  0  0  0  0
  161.4330  213.0150  145.7440 C   0  0  0  0  0  0  0  0  0  0  0  0
  160.2560  213.1670  144.8380 C   0  0  0  0  0  2  0  0  0  0  0  0
  162.4730  213.0860  142.8360 C   0  0  0  0  0  3  0  0  0  0  0  0
  161.1730  211.3370  141.7030 O   0  0  0  0  0  1  0  0  0  0  0  0
  161.2890  212.2050  142.7800 C   0  0  0  0  0  0  0  0  0  0  0  0
  162.6760  213.2720  145.3330 C   0  0  0  0  0  3  0  0  0  0  0  0
  160.3130  212.2130  143.6910 C   0  0  0  0  0  3  0  0  0  0  0  0
  163.0750  213.5480  143.9400 C   0  0  0  0  0  3  0  0  0  0  0  0
  161.9390  207.3130  147.8320 N   0  0  0  0  0  2  0  0  0  0  0  0
  161.8160  206.0370  147.1850 C   0  0  0  0  0  0  0  0  0  0  0  0
  161.8910  204.7490  145.1290 C   0  0  0  0  0  3  0  0  0  0  0  0
  161.5170  204.8630  147.8920 C   0  0  0  0  0  3  0  0  0  0  0  0
  161.5940  203.5850  145.8410 C   0  0  0  0  0  3  0  0  0  0  0  0
  162.0020  205.9690  145.8000 C   0  0  0  0  0  3  0  0  0  0  0  0
  161.4050  203.6330  147.2280 C   0  0  0  0  0  0  0  0  0  0  0  0
  161.0500  201.2930  147.3890 O   0  0  0  0  0  0  0  0  0  0  0  0
  160.5170  201.2950  150.1730 C   0  0  0  0  0  1  0  0  0  0  0  0
  160.8310  202.4770  149.3870 N   0  0  0  0  0  2  0  0  0  0  0  0
  161.0910  202.4070  147.9820 C   0  0  0  0  0  0  0  0  0  0  0  0
  2  1  2  0  0  0  0
  3  6  2  0  0  0  0
  3  4  1  0  0  0  0
  4  5  2  0  0  0  0
  5  1  1  0  0  0  0
  6  2  1  0  0  0  0
  7  8  1  0  0  0  0
  7  6  1  0  0  0  0
  9  8  1  0  0  0  0
 10  9  1  0  0  0  0
 11 10  1  0  0  0  0
 12 11  1  0  0  0  0
 13 18  2  0  0  0  0
 14 15  1  0  0  0  0
 15 13  1  0  0  0  0
 15 17  2  0  0  0  0
 16 11  2  0  0  0  0
 17 12  1  0  0  0  0
 18 16  1  0  0  0  0
 19  3  1  0  0  0  0
 20 19  1  0  0  0  0
 20 22  1  0  0  0  0
 21 24  1  0  0  0  0
 21 23  2  0  0  0  0
 23 25  1  0  0  0  0
 24 20  2  0  0  0  0
 25 22  2  0  0  0  0
 25 29  1  0  0  0  0
 26 29  2  0  0  0  0
 28 27  1  0  0  0  0
 29 28  1  0  0  0  0
M  END
>  <MODEL>
6

>  <REMARK>
 VINA RESULT:      -7.6      3.921      5.032
  Name = 
  8 active torsions:
  status: ('A' for Active; 'I' for Inactive)
    1  A    between atoms: C_1  and  C_20
    2  A    between atoms: C_7  and  N_26
    3  A    between atoms: N_9  and  C_23
    4  A    between atoms: N_9  and  C_27
    5  A    between atoms: C_11  and  N_26
    6  A    between atoms: N_14  and  C_20
    7  A    between atoms: N_14  and  C_23
    8  A    between atoms: C_21  and  C_29
                            x       y       z     vdW  Elec       q    Type
                         _______ _______ _______ _____ _____    ______ ____

>  <TORSDO>
F 8

$$$$
=
 OpenBabel11072413573D

 29 31  0  0  0  0  0  0  0  0999 V2000
  161.9490  209.2470  150.5650 C   0  0  0  0  0  3  0  0  0  0  0  0
  161.4790  208.8300  151.8090 C   0  0  0  0  0  3  0  0  0  0  0  0
  161.4580  206.5430  151.0050 C   0  0  0  0  0  0  0  0  0  0  0  0
  161.9310  207.0130  149.7710 C   0  0  0  0  0  3  0  0  0  0  0  0
  162.1620  208.3380  149.5780 N   0  0  0  0  0  0  0  0  0  0  0  0
  161.2300  207.4690  152.0350 C   0  0  0  0  0  0  0  0  0  0  0  0
  160.7500  207.0140  153.3060 N   0  0  0  0  0  2  0  0  0  0  0  0
  161.3220  207.4280  154.5790 C   0  0  0  0  0  2  0  0  0  0  0  0
  160.4340  208.3760  155.2330 N   0  0  0  0  0  2  0  0  0  0  0  0
  161.1200  209.6590  155.2620 C   0  0  0  0  0  2  0  0  0  0  0  0
  160.1460  210.7710  155.0670 C   0  0  0  0  0  0  0  0  0  0  0  0
  159.1880  211.0780  156.1700 C   0  0  0  0  0  2  0  0  0  0  0  0
  158.0560  212.7730  153.9850 C   0  0  0  0  0  3  0  0  0  0  0  0
  155.9030  211.7040  154.4870 O   0  0  0  0  0  1  0  0  0  0  0  0
  157.2620  211.7940  154.7540 C   0  0  0  0  0  0  0  0  0  0  0  0
  160.2510  211.5510  153.9890 C   0  0  0  0  0  3  0  0  0  0  0  0
  157.7700  211.0100  155.7070 C   0  0  0  0  0  3  0  0  0  0  0  0
  159.3490  212.6690  153.6520 C   0  0  0  0  0  3  0  0  0  0  0  0
  161.2030  205.1480  151.2410 N   0  0  0  0  0  2  0  0  0  0  0  0
  161.1030  204.0800  150.2860 C   0  0  0  0  0  0  0  0  0  0  0  0
  160.7810  201.7120  149.8610 C   0  0  0  0  0  3  0  0  0  0  0  0
  161.2160  204.2970  148.9040 C   0  0  0  0  0  3  0  0  0  0  0  0
  160.8950  201.9370  148.4880 C   0  0  0  0  0  3  0  0  0  0  0  0
  160.8850  202.7810  150.7550 C   0  0  0  0  0  3  0  0  0  0  0  0
  161.1130  203.2320  147.9990 C   0  0  0  0  0  0  0  0  0  0  0  0
  161.2320  202.5000  145.7460 O   0  0  0  0  0  0  0  0  0  0  0  0
  161.4760  205.0960  144.6350 C   0  0  0  0  0  1  0  0  0  0  0  0
  161.3550  204.8090  146.0550 N   0  0  0  0  0  2  0  0  0  0  0  0
  161.2340  203.4730  146.5500 C   0  0  0  0  0  0  0  0  0  0  0  0
  1  2  1  0  0  0  0
  2  6  2  0  0  0  0
  3 19  1  0  0  0  0
  3  6  1  0  0  0  0
  4  3  2  0  0  0  0
  5  4  1  0  0  0  0
  5  1  2  0  0  0  0
  6  7  1  0  0  0  0
  7  8  1  0  0  0  0
  8  9  1  0  0  0  0
  9 10  1  0  0  0  0
 11 10  1  0  0  0  0
 11 12  1  0  0  0  0
 13 15  1  0  0  0  0
 14 15  1  0  0  0  0
 15 17  2  0  0  0  0
 16 11  2  0  0  0  0
 17 12  1  0  0  0  0
 18 13  2  0  0  0  0
 18 16  1  0  0  0  0
 20 24  1  0  0  0  0
 20 19  1  0  0  0  0
 21 24  2  0  0  0  0
 22 20  2  0  0  0  0
 23 21  1  0  0  0  0
 25 23  2  0  0  0  0
 25 22  1  0  0  0  0
 26 29  2  0  0  0  0
 27 28  1  0  0  0  0
 28 29  1  0  0  0  0
 29 25  1  0  0  0  0
M  END
>  <MODEL>
7

>  <REMARK>
 VINA RESULT:      -7.6      3.619      6.693
  Name = 
  8 active torsions:
  status: ('A' for Active; 'I' for Inactive)
    1  A    between atoms: C_1  and  C_20
    2  A    between atoms: C_7  and  N_26
    3  A    between atoms: N_9  and  C_23
    4  A    between atoms: N_9  and  C_27
    5  A    between atoms: C_11  and  N_26
    6  A    between atoms: N_14  and  C_20
    7  A    between atoms: N_14  and  C_23
    8  A    between atoms: C_21  and  C_29
                            x       y       z     vdW  Elec       q    Type
                         _______ _______ _______ _____ _____    ______ ____

>  <TORSDO>
F 8

$$$$
=
 OpenBabel11072413573D

 29 31  0  0  0  0  0  0  0  0999 V2000
  160.6330  208.7810  152.5700 C   0  0  0  0  0  3  0  0  0  0  0  0
  161.0900  207.8980  151.5930 C   0  0  0  0  0  3  0  0  0  0  0  0
  161.8230  209.7890  150.2640 C   0  0  0  0  0  0  0  0  0  0  0  0
  161.3470  210.6360  151.2760 C   0  0  0  0  0  3  0  0  0  0  0  0
  160.7690  210.1210  152.3930 N   0  0  0  0  0  0  0  0  0  0  0  0
  161.6890  208.4020  150.4300 C   0  0  0  0  0  0  0  0  0  0  0  0
  162.1700  207.5150  149.4120 N   0  0  0  0  0  2  0  0  0  0  0  0
  161.5000  207.3130  148.1360 C   0  0  0  0  0  2  0  0  0  0  0  0
  160.5010  206.2650  148.2650 N   0  0  0  0  0  2  0  0  0  0  0  0
  161.0400  205.2660  149.1740 C   0  0  0  0  0  2  0  0  0  0  0  0
  161.2270  203.9670  148.4640 C   0  0  0  0  0  0  0  0  0  0  0  0
  162.0010  203.9600  147.1880 C   0  0  0  0  0  2  0  0  0  0  0  0
  160.8920  201.1860  147.1620 C   0  0  0  0  0  3  0  0  0  0  0  0
  160.1080  201.6900  144.8900 O   0  0  0  0  0  1  0  0  0  0  0  0
  160.7430  202.1350  146.0410 C   0  0  0  0  0  0  0  0  0  0  0  0
  160.8310  202.8370  149.0540 C   0  0  0  0  0  3  0  0  0  0  0  0
  161.2070  203.3870  146.0610 C   0  0  0  0  0  3  0  0  0  0  0  0
  160.9290  201.4870  148.4660 C   0  0  0  0  0  3  0  0  0  0  0  0
  162.4410  210.3010  149.0720 N   0  0  0  0  0  2  0  0  0  0  0  0
  162.0990  211.4740  148.3170 C   0  0  0  0  0  0  0  0  0  0  0  0
  162.7830  213.6180  147.4080 C   0  0  0  0  0  3  0  0  0  0  0  0
  160.8250  211.6620  147.7590 C   0  0  0  0  0  3  0  0  0  0  0  0
  161.5130  213.7970  146.8560 C   0  0  0  0  0  3  0  0  0  0  0  0
  163.0730  212.4610  148.1350 C   0  0  0  0  0  3  0  0  0  0  0  0
  160.5240  212.8190  147.0270 C   0  0  0  0  0  0  0  0  0  0  0  0
  158.8720  212.4150  145.3750 O   0  0  0  0  0  0  0  0  0  0  0  0
  156.8970  214.0650  146.5630 C   0  0  0  0  0  1  0  0  0  0  0  0
  158.2320  213.8510  147.0980 N   0  0  0  0  0  2  0  0  0  0  0  0
  159.1830  213.0040  146.4470 C   0  0  0  0  0  0  0  0  0  0  0  0
  2  1  2  0  0  0  0
  3  6  2  0  0  0  0
  3  4  1  0  0  0  0
  4  5  2  0  0  0  0
  5  1  1  0  0  0  0
  6  2  1  0  0  0  0
  7  6  1  0  0  0  0
  8  9  1  0  0  0  0
  8  7  1  0  0  0  0
  9 10  1  0  0  0  0
 11 16  2  0  0  0  0
 11 10  1  0  0  0  0
 12 11  1  0  0  0  0
 13 18  2  0  0  0  0
 14 15  1  0  0  0  0
 15 17  2  0  0  0  0
 15 13  1  0  0  0  0
 17 12  1  0  0  0  0
 18 16  1  0  0  0  0
 19  3  1  0  0  0  0
 20 19  1  0  0  0  0
 21 24  2  0  0  0  0
 22 20  2  0  0  0  0
 23 25  2  0  0  0  0
 23 21  1  0  0  0  0
 24 20  1  0  0  0  0
 25 22  1  0  0  0  0
 26 29  2  0  0  0  0
 27 28  1  0  0  0  0
 29 25  1  0  0  0  0
 29 28  1  0  0  0  0
M  END
>  <MODEL>
8

>  <REMARK>
 VINA RESULT:      -7.4      3.663      7.197
  Name = 
  8 active torsions:
  status: ('A' for Active; 'I' for Inactive)
    1  A    between atoms: C_1  and  C_20
    2  A    between atoms: C_7  and  N_26
    3  A    between atoms: N_9  and  C_23
    4  A    between atoms: N_9  and  C_27
    5  A    between atoms: C_11  and  N_26
    6  A    between atoms: N_14  and  C_20
    7  A    between atoms: N_14  and  C_23
    8  A    between atoms: C_21  and  C_29
                            x       y       z     vdW  Elec       q    Type
                         _______ _______ _______ _____ _____    ______ ____

>  <TORSDO>
F 8

$$$$
=
 OpenBabel11072413573D

 29 31  0  0  0  0  0  0  0  0999 V2000
  161.0460  206.9350  154.5070 C   0  0  0  0  0  3  0  0  0  0  0  0
  161.1710  206.8840  153.1200 C   0  0  0  0  0  3  0  0  0  0  0  0
  160.8590  209.2860  153.0290 C   0  0  0  0  0  0  0  0  0  0  0  0
  160.7400  209.2850  154.4260 C   0  0  0  0  0  3  0  0  0  0  0  0
  160.8340  208.1240  155.1280 N   0  0  0  0  0  0  0  0  0  0  0  0
  161.0770  208.0650  152.3710 C   0  0  0  0  0  0  0  0  0  0  0  0
  161.2050  208.0390  150.9440 N   0  0  0  0  0  2  0  0  0  0  0  0
  161.8470  206.9570  150.2120 C   0  0  0  0  0  2  0  0  0  0  0  0
  160.8380  206.0510  149.6880 N   0  0  0  0  0  2  0  0  0  0  0  0
  161.0900  205.9020  148.2640 C   0  0  0  0  0  2  0  0  0  0  0  0
  161.2490  204.4610  147.9130 C   0  0  0  0  0  0  0  0  0  0  0  0
  162.0220  204.1110  146.6850 C   0  0  0  0  0  2  0  0  0  0  0  0
  160.8570  201.4460  147.3680 C   0  0  0  0  0  3  0  0  0  0  0  0
  160.0810  201.3650  145.0390 O   0  0  0  0  0  1  0  0  0  0  0  0
  160.7260  202.0780  146.0400 C   0  0  0  0  0  0  0  0  0  0  0  0
  160.8310  203.5300  148.7720 C   0  0  0  0  0  3  0  0  0  0  0  0
  161.2160  203.2830  145.7400 C   0  0  0  0  0  3  0  0  0  0  0  0
  160.9010  202.0720  148.5520 C   0  0  0  0  0  3  0  0  0  0  0  0
  160.7650  210.4960  152.2580 N   0  0  0  0  0  2  0  0  0  0  0  0
  159.8310  211.5780  152.3970 C   0  0  0  0  0  0  0  0  0  0  0  0
  159.1470  213.8120  151.7420 C   0  0  0  0  0  3  0  0  0  0  0  0
  158.7310  211.5110  153.2650 C   0  0  0  0  0  3  0  0  0  0  0  0
  158.0540  213.7380  152.6080 C   0  0  0  0  0  3  0  0  0  0  0  0
  160.0310  212.7350  151.6380 C   0  0  0  0  0  3  0  0  0  0  0  0
  157.8380  212.5860  153.3770 C   0  0  0  0  0  0  0  0  0  0  0  0
  155.6900  213.2610  154.1230 O   0  0  0  0  0  0  0  0  0  0  0  0
  155.5840  211.4510  156.3020 C   0  0  0  0  0  1  0  0  0  0  0  0
  156.6970  211.5680  155.3730 N   0  0  0  0  0  2  0  0  0  0  0  0
  156.6860  212.5050  154.2920 C   0  0  0  0  0  0  0  0  0  0  0  0
  1  5  1  0  0  0  0
  2  1  2  0  0  0  0
  3  4  1  0  0  0  0
  4  5  2  0  0  0  0
  6  3  2  0  0  0  0
  6  2  1  0  0  0  0
  7  6  1  0  0  0  0
  8  7  1  0  0  0  0
  9  8  1  0  0  0  0
 10  9  1  0  0  0  0
 11 10  1  0  0  0  0
 11 16  2  0  0  0  0
 12 11  1  0  0  0  0
 13 18  2  0  0  0  0
 14 15  1  0  0  0  0
 15 13  1  0  0  0  0
 17 15  2  0  0  0  0
 17 12  1  0  0  0  0
 18 16  1  0  0  0  0
 19 20  1  0  0  0  0
 19  3  1  0  0  0  0
 20 22  1  0  0  0  0
 21 23  2  0  0  0  0
 22 25  2  0  0  0  0
 23 25  1  0  0  0  0
 24 21  1  0  0  0  0
 24 20  2  0  0  0  0
 25 29  1  0  0  0  0
 26 29  2  0  0  0  0
 28 27  1  0  0  0  0
 29 28  1  0  0  0  0
M  END
>  <MODEL>
9

>  <REMARK>
 VINA RESULT:      -7.4      4.278      7.616
  Name = 
  8 active torsions:
  status: ('A' for Active; 'I' for Inactive)
    1  A    between atoms: C_1  and  C_20
    2  A    between atoms: C_7  and  N_26
    3  A    between atoms: N_9  and  C_23
    4  A    between atoms: N_9  and  C_27
    5  A    between atoms: C_11  and  N_26
    6  A    between atoms: N_14  and  C_20
    7  A    between atoms: N_14  and  C_23
    8  A    between atoms: C_21  and  C_29
                            x       y       z     vdW  Elec       q    Type
                         _______ _______ _______ _____ _____    ______ ____

>  <TORSDO>
F 8

$$$$
