=
 OpenBabel11072413013D

 37 42  0  0  1  0  0  0  0  0999 V2000
  157.9920  210.8300  155.6100 C   0  0  1  0  0  3  0  0  0  0  0  0
  160.8660  207.0210  153.7510 N   0  0  0  0  0  0  0  0  0  0  0  0
  161.1410  211.2660  153.9100 C   0  0  0  0  0  2  0  0  0  0  0  0
  160.5880  207.7190  154.9650 C   0  0  0  0  0  3  0  0  0  0  0  0
  161.0680  209.2000  152.6200 C   0  0  0  0  0  3  0  0  0  0  0  0
  160.2220  209.7930  156.2590 C   0  0  0  0  0  2  0  0  0  0  0  0
  159.4770  211.1120  155.9530 C   0  0  1  0  0  3  0  0  0  0  0  0
  160.8500  207.7120  152.4620 C   0  0  1  0  0  3  0  0  0  0  0  0
  157.8680  212.7310  153.9740 C   0  0  1  0  0  3  0  0  0  0  0  0
  160.8110  209.8200  153.7720 C   0  0  0  0  0  0  0  0  0  0  0  0
  160.2120  211.9900  154.8920 C   0  0  2  0  0  3  0  0  0  0  0  0
  157.3510  210.2490  156.7100 O   0  0  0  0  0  1  0  0  0  0  0  0
  159.8600  213.9530  153.6300 O   0  0  0  0  0  0  0  0  0  0  0  0
  157.2570  212.1040  155.2230 C   0  0  0  0  0  2  0  0  0  0  0  0
  160.4810  209.0530  154.9820 C   0  0  1  0  0  3  0  0  0  0  0  0
  159.3350  212.9830  154.1630 C   0  0  0  0  0  0  0  0  0  0  0  0
  157.6720  211.8540  152.7490 C   0  0  0  0  0  2  0  0  0  0  0  0
  158.4200  212.4210  151.5560 C   0  0  0  0  0  2  0  0  0  0  0  0
  156.6360  214.1620  151.3870 O   0  0  0  0  0  1  0  0  0  0  0  0
  157.5220  213.2190  149.4940 O   0  0  0  0  0  0  0  0  0  0  0  0
  157.4950  213.2730  150.7540 C   0  0  0  0  0  0  0  0  0  0  0  0
  161.9300  207.1540  151.5630 C   0  0  0  0  0  2  0  0  0  0  0  0
  160.5620  207.3600  149.5060 O   0  0  0  0  0  0  0  0  0  0  0  0
  161.3730  206.5150  150.2920 C   0  0  1  0  0  0  0  0  0  0  0  0
  161.8840  207.1490  149.0380 C   0  0  1  0  0  3  0  0  0  0  0  0
  161.8720  206.3840  147.7370 C   0  0  0  0  0  0  0  0  0  0  0  0
  162.8610  205.6370  147.3350 N   0  0  0  0  0  0  0  0  0  0  0  0
  160.6060  205.9830  145.7310 C   0  0  0  0  0  0  0  0  0  0  0  0
  163.8400  204.2600  145.6980 N   0  0  0  0  0  2  0  0  0  0  0  0
  161.7800  205.3410  145.0660 C   0  0  0  0  0  2  0  0  0  0  0  0
  159.4560  206.1380  145.0310 F   0  0  0  0  0  0  0  0  0  0  0  0
  162.8400  204.9910  146.0660 C   0  0  0  0  0  0  0  0  0  0  0  0
  160.6900  206.4850  146.9280 N   0  0  0  0  0  0  0  0  0  0  0  0
  160.9140  205.0500  150.3060 C   0  0  0  0  0  2  0  0  0  0  0  0
  160.7370  203.6500  152.2890 C   0  0  0  0  0  2  0  0  0  0  0  0
  161.6810  204.2160  151.3180 C   0  0  1  0  0  3  0  0  0  0  0  0
  161.2490  202.8740  151.2370 O   0  0  0  0  0  0  0  0  0  0  0  0
  1  7  1  0  0  0  0
  1 12  1  1  0  0  0
  2  4  2  0  0  0  0
  5 10  2  0  0  0  0
  7  6  1  6  0  0  0
  8 22  1  6  0  0  0
  8  5  1  0  0  0  0
  8  2  1  0  0  0  0
  9 17  1  6  0  0  0
  9 16  1  0  0  0  0
  9 14  1  0  0  0  0
 10  3  1  0  0  0  0
 10 15  1  0  0  0  0
 11  3  1  6  0  0  0
 11  7  1  0  0  0  0
 13 16  2  0  0  0  0
 14  1  1  0  0  0  0
 15  4  1  1  0  0  0
 15  6  1  0  0  0  0
 16 11  1  0  0  0  0
 18 17  1  0  0  0  0
 20 21  2  0  0  0  0
 21 19  1  0  0  0  0
 21 18  1  0  0  0  0
 23 24  1  0  0  0  0
 24 34  1  6  0  0  0
 24 22  1  0  0  0  0
 25 26  1  6  0  0  0
 25 23  1  0  0  0  0
 25 24  1  0  0  0  0
 27 26  2  0  0  0  0
 28 33  2  0  0  0  0
 29 32  2  0  0  0  0
 30 28  1  0  0  0  0
 30 32  1  0  0  0  0
 31 28  1  0  0  0  0
 32 27  1  0  0  0  0
 33 26  1  0  0  0  0
 36 34  1  6  0  0  0
 36 35  1  0  0  0  0
 37 36  1  0  0  0  0
 37 35  1  0  0  0  0
M  END
>  <MODEL>
1

>  <REMARK>
 VINA RESULT:      -6.2      0.000      0.000
  Name = 
  8 active torsions:
  status: ('A' for Active; 'I' for Inactive)
    1  A    between atoms: C_1  and  C_17
    2  A    between atoms: C_7  and  C_32
    3  A    between atoms: C_7  and  C_34
    4  A    between atoms: C_11  and  C_34
    5  A    between atoms: C_23  and  C_27
    6  A    between atoms: C_23  and  C_36
    7  A    between atoms: C_25  and  C_32
    8  A    between atoms: C_26  and  C_27
                            x       y       z     vdW  Elec       q    Type
                         _______ _______ _______ _____ _____    ______ ____

>  <TORSDO>
F 8

$$$$
=
 OpenBabel11072413013D

 37 42  0  0  1  0  0  0  0  0999 V2000
  156.9540  211.5000  155.4150 C   0  0  1  0  0  3  0  0  0  0  0  0
  160.1590  207.5240  155.0400 N   0  0  0  0  0  0  0  0  0  0  0  0
  160.5300  211.7640  155.0440 C   0  0  0  0  0  2  0  0  0  0  0  0
  159.4640  208.3100  156.0090 C   0  0  0  0  0  3  0  0  0  0  0  0
  160.8730  209.6140  153.9500 C   0  0  0  0  0  3  0  0  0  0  0  0
  158.7160  210.4750  156.9360 C   0  0  0  0  0  2  0  0  0  0  0  0
  158.2030  211.7810  156.2890 C   0  0  1  0  0  3  0  0  0  0  0  0
  160.6700  208.1220  153.8080 C   0  0  1  0  0  3  0  0  0  0  0  0
  157.5500  213.2830  153.7500 C   0  0  1  0  0  3  0  0  0  0  0  0
  160.2190  210.3170  154.8740 C   0  0  0  0  0  0  0  0  0  0  0  0
  159.3260  212.5700  155.5460 C   0  0  2  0  0  3  0  0  0  0  0  0
  155.9150  211.0090  156.2130 O   0  0  0  0  0  1  0  0  0  0  0  0
  159.5710  214.4450  154.1330 O   0  0  0  0  0  0  0  0  0  0  0  0
  156.4800  212.7550  154.6990 C   0  0  0  0  0  2  0  0  0  0  0  0
  159.4150  209.6430  155.9050 C   0  0  1  0  0  3  0  0  0  0  0  0
  158.8410  213.5230  154.4770 C   0  0  0  0  0  0  0  0  0  0  0  0
  157.8040  212.3250  152.5980 C   0  0  0  0  0  2  0  0  0  0  0  0
  158.0010  213.0860  151.2990 C   0  0  0  0  0  2  0  0  0  0  0  0
  160.3110  212.1790  151.5940 O   0  0  0  0  0  1  0  0  0  0  0  0
  159.8090  213.5200  149.8030 O   0  0  0  0  0  0  0  0  0  0  0  0
  159.4210  212.9570  150.8640 C   0  0  0  0  0  0  0  0  0  0  0  0
  161.9880  207.4850  153.4310 C   0  0  0  0  0  2  0  0  0  0  0  0
  163.1110  206.0900  151.7170 O   0  0  0  0  0  0  0  0  0  0  0  0
  161.9600  206.8330  152.0500 C   0  0  1  0  0  0  0  0  0  0  0  0
  161.9720  205.3380  152.1000 C   0  0  1  0  0  3  0  0  0  0  0  0
  161.4510  204.5320  150.9360 C   0  0  0  0  0  0  0  0  0  0  0  0
  160.9550  203.3340  151.0590 N   0  0  0  0  0  0  0  0  0  0  0  0
  161.2000  204.5130  148.5430 C   0  0  0  0  0  0  0  0  0  0  0  0
  160.0570  201.3900  150.0830 N   0  0  0  0  0  2  0  0  0  0  0  0
  160.8810  203.0530  148.5450 C   0  0  0  0  0  2  0  0  0  0  0  0
  161.2840  205.1680  147.3600 F   0  0  0  0  0  0  0  0  0  0  0  0
  160.5420  202.5770  149.9250 C   0  0  0  0  0  0  0  0  0  0  0  0
  161.4960  205.1480  149.6390 N   0  0  0  0  0  0  0  0  0  0  0  0
  161.3360  207.5780  150.8610 C   0  0  0  0  0  2  0  0  0  0  0  0
  161.8240  208.6090  148.7110 C   0  0  0  0  0  2  0  0  0  0  0  0
  162.3740  208.3270  150.0420 C   0  0  1  0  0  3  0  0  0  0  0  0
  161.8670  209.6010  149.7040 O   0  0  0  0  0  0  0  0  0  0  0  0
  1 12  1  1  0  0  0
  1  7  1  0  0  0  0
  2  4  2  0  0  0  0
  5 10  2  0  0  0  0
  7  6  1  6  0  0  0
  8 22  1  1  0  0  0
  8  5  1  0  0  0  0
  8  2  1  0  0  0  0
  9 17  1  6  0  0  0
  9 16  1  0  0  0  0
  9 14  1  0  0  0  0
 10  3  1  0  0  0  0
 10 15  1  0  0  0  0
 11  3  1  6  0  0  0
 11  7  1  0  0  0  0
 13 16  2  0  0  0  0
 14  1  1  0  0  0  0
 15  4  1  1  0  0  0
 15  6  1  0  0  0  0
 16 11  1  0  0  0  0
 18 17  1  0  0  0  0
 20 21  2  0  0  0  0
 21 18  1  0  0  0  0
 21 19  1  0  0  0  0
 23 24  1  0  0  0  0
 23 25  1  0  0  0  0
 24 34  1  6  0  0  0
 24 25  1  0  0  0  0
 24 22  1  0  0  0  0
 25 26  1  6  0  0  0
 26 27  2  0  0  0  0
 28 30  1  0  0  0  0
 28 33  2  0  0  0  0
 30 32  1  0  0  0  0
 31 28  1  0  0  0  0
 32 29  2  0  0  0  0
 32 27  1  0  0  0  0
 33 26  1  0  0  0  0
 35 37  1  0  0  0  0
 35 36  1  0  0  0  0
 36 34  1  1  0  0  0
 37 36  1  0  0  0  0
M  END
>  <MODEL>
2

>  <REMARK>
 VINA RESULT:      -5.7      2.053      3.097
  Name = 
  8 active torsions:
  status: ('A' for Active; 'I' for Inactive)
    1  A    between atoms: C_1  and  C_17
    2  A    between atoms: C_7  and  C_32
    3  A    between atoms: C_7  and  C_34
    4  A    between atoms: C_11  and  C_34
    5  A    between atoms: C_23  and  C_27
    6  A    between atoms: C_23  and  C_36
    7  A    between atoms: C_25  and  C_32
    8  A    between atoms: C_26  and  C_27
                            x       y       z     vdW  Elec       q    Type
                         _______ _______ _______ _____ _____    ______ ____

>  <TORSDO>
F 8

$$$$
=
 OpenBabel11072413013D

 37 42  0  0  1  0  0  0  0  0999 V2000
  159.5730  208.7580  156.4220 C   0  0  1  0  0  3  0  0  0  0  0  0
  161.4410  206.8100  152.0700 N   0  0  0  0  0  0  0  0  0  0  0  0
  161.6980  210.5350  154.1140 C   0  0  0  0  0  2  0  0  0  0  0  0
  161.6940  206.8480  153.4740 C   0  0  0  0  0  3  0  0  0  0  0  0
  161.1130  209.2510  152.1270 C   0  0  0  0  0  3  0  0  0  0  0  0
  161.8830  208.0450  155.6290 C   0  0  0  0  0  2  0  0  0  0  0  0
  161.0600  209.1760  156.2850 C   0  0  1  0  0  3  0  0  0  0  0  0
  160.8700  207.9620  151.3730 C   0  0  1  0  0  3  0  0  0  0  0  0
  158.7400  211.1000  156.0630 C   0  0  1  0  0  3  0  0  0  0  0  0
  161.3610  209.2520  153.4370 C   0  0  0  0  0  0  0  0  0  0  0  0
  161.2630  210.5560  155.5840 C   0  0  2  0  0  3  0  0  0  0  0  0
  159.4680  207.6430  157.2610 O   0  0  0  0  0  1  0  0  0  0  0  0
  160.3810  212.7460  155.6370 O   0  0  0  0  0  0  0  0  0  0  0  0
  158.7260  209.8870  156.9880 C   0  0  0  0  0  2  0  0  0  0  0  0
  161.5860  207.9920  154.1610 C   0  0  1  0  0  3  0  0  0  0  0  0
  160.1460  211.5530  155.7950 C   0  0  0  0  0  0  0  0  0  0  0  0
  158.0560  210.8080  154.7390 C   0  0  0  0  0  2  0  0  0  0  0  0
  156.6510  211.3850  154.7200 C   0  0  0  0  0  2  0  0  0  0  0  0
  157.6590  213.3930  153.6260 O   0  0  0  0  0  0  0  0  0  0  0  0
  155.9180  213.6230  155.1000 O   0  0  0  0  0  1  0  0  0  0  0  0
  156.7290  212.8590  154.5090 C   0  0  0  0  0  0  0  0  0  0  0  0
  161.4740  208.0840  149.9930 C   0  0  0  0  0  2  0  0  0  0  0  0
  160.0150  206.7860  148.4660 O   0  0  0  0  0  0  0  0  0  0  0  0
  161.2550  206.8380  149.1360 C   0  0  1  0  0  0  0  0  0  0  0  0
  161.1400  207.1360  147.6760 C   0  0  1  0  0  3  0  0  0  0  0  0
  161.4260  206.0630  146.6530 C   0  0  0  0  0  0  0  0  0  0  0  0
  160.5200  205.5690  145.8600 N   0  0  0  0  0  0  0  0  0  0  0  0
  163.1300  204.5880  145.8120 C   0  0  0  0  0  0  0  0  0  0  0  0
  159.8910  204.0360  144.1890 N   0  0  0  0  0  2  0  0  0  0  0  0
  162.1200  203.7750  145.0680 C   0  0  0  0  0  2  0  0  0  0  0  0
  164.4290  204.2040  145.7910 F   0  0  0  0  0  0  0  0  0  0  0  0
  160.8150  204.5040  144.9600 C   0  0  0  0  0  0  0  0  0  0  0  0
  162.7810  205.5960  146.5570 N   0  0  0  0  0  0  0  0  0  0  0  0
  161.7530  205.4710  149.6270 C   0  0  0  0  0  2  0  0  0  0  0  0
  160.9380  203.2270  149.1540 C   0  0  0  0  0  2  0  0  0  0  0  0
  160.6170  204.4850  149.8380 C   0  0  1  0  0  3  0  0  0  0  0  0
  161.1010  203.3610  150.5420 O   0  0  0  0  0  0  0  0  0  0  0  0
  1 14  1  0  0  0  0
  1 12  1  1  0  0  0
  2  4  2  0  0  0  0
  5 10  2  0  0  0  0
  7  6  1  6  0  0  0
  7  1  1  0  0  0  0
  8 22  1  6  0  0  0
  8  2  1  0  0  0  0
  8  5  1  0  0  0  0
  9 17  1  6  0  0  0
  9 14  1  0  0  0  0
 10  3  1  0  0  0  0
 10 15  1  0  0  0  0
 11  3  1  6  0  0  0
 11 16  1  0  0  0  0
 11  7  1  0  0  0  0
 13 16  2  0  0  0  0
 15  4  1  6  0  0  0
 15  6  1  0  0  0  0
 16  9  1  0  0  0  0
 18 17  1  0  0  0  0
 19 21  2  0  0  0  0
 21 18  1  0  0  0  0
 21 20  1  0  0  0  0
 23 24  1  0  0  0  0
 24 34  1  1  0  0  0
 24 22  1  0  0  0  0
 25 26  1  6  0  0  0
 25 23  1  0  0  0  0
 25 24  1  0  0  0  0
 27 26  2  0  0  0  0
 28 33  2  0  0  0  0
 29 32  2  0  0  0  0
 30 28  1  0  0  0  0
 31 28  1  0  0  0  0
 32 30  1  0  0  0  0
 32 27  1  0  0  0  0
 33 26  1  0  0  0  0
 35 36  1  0  0  0  0
 35 37  1  0  0  0  0
 36 34  1  6  0  0  0
 36 37  1  0  0  0  0
M  END
>  <MODEL>
3

>  <REMARK>
 VINA RESULT:      -5.0      2.017      2.628
  Name = 
  8 active torsions:
  status: ('A' for Active; 'I' for Inactive)
    1  A    between atoms: C_1  and  C_17
    2  A    between atoms: C_7  and  C_32
    3  A    between atoms: C_7  and  C_34
    4  A    between atoms: C_11  and  C_34
    5  A    between atoms: C_23  and  C_27
    6  A    between atoms: C_23  and  C_36
    7  A    between atoms: C_25  and  C_32
    8  A    between atoms: C_26  and  C_27
                            x       y       z     vdW  Elec       q    Type
                         _______ _______ _______ _____ _____    ______ ____

>  <TORSDO>
F 8

$$$$
=
 OpenBabel11072413013D

 37 42  0  0  1  0  0  0  0  0999 V2000
  159.4460  208.2210  155.4170 C   0  0  1  0  0  3  0  0  0  0  0  0
  161.0450  206.1800  151.0020 N   0  0  0  0  0  0  0  0  0  0  0  0
  162.1220  209.5340  153.3900 C   0  0  0  0  0  2  0  0  0  0  0  0
  161.1980  206.0430  152.4150 C   0  0  0  0  0  3  0  0  0  0  0  0
  161.3660  208.6080  151.2670 C   0  0  0  0  0  3  0  0  0  0  0  0
  161.5380  206.9780  154.6770 C   0  0  0  0  0  2  0  0  0  0  0  0
  160.9960  208.2350  155.3930 C   0  0  1  0  0  3  0  0  0  0  0  0
  160.8480  207.4920  150.3870 C   0  0  1  0  0  3  0  0  0  0  0  0
  159.2840  210.7210  155.2350 C   0  0  1  0  0  3  0  0  0  0  0  0
  161.5100  208.4430  152.5820 C   0  0  0  0  0  0  0  0  0  0  0  0
  161.6040  209.5600  154.8330 C   0  0  2  0  0  3  0  0  0  0  0  0
  158.9910  207.1150  156.1440 O   0  0  0  0  0  1  0  0  0  0  0  0
  161.3250  211.8950  155.0440 O   0  0  0  0  0  0  0  0  0  0  0  0
  158.8860  209.4890  156.0420 C   0  0  0  0  0  2  0  0  0  0  0  0
  161.3440  207.1180  153.1970 C   0  0  1  0  0  3  0  0  0  0  0  0
  160.7750  210.8000  155.0800 C   0  0  0  0  0  0  0  0  0  0  0  0
  158.6440  210.7230  153.8580 C   0  0  0  0  0  2  0  0  0  0  0  0
  157.7790  211.9570  153.6680 C   0  0  0  0  0  2  0  0  0  0  0  0
  159.6970  212.7290  152.2650 O   0  0  0  0  0  1  0  0  0  0  0  0
  157.5780  213.5130  151.8700 O   0  0  0  0  0  0  0  0  0  0  0  0
  158.3420  212.7870  152.5650 C   0  0  0  0  0  0  0  0  0  0  0  0
  161.5610  207.5520  149.0550 C   0  0  0  0  0  2  0  0  0  0  0  0
  162.5850  205.6990  147.7650 O   0  0  0  0  0  0  0  0  0  0  0  0
  161.3860  206.2770  148.2300 C   0  0  1  0  0  0  0  0  0  0  0  0
  161.9770  205.0670  148.8790 C   0  0  1  0  0  3  0  0  0  0  0  0
  161.4900  203.6880  148.5080 C   0  0  0  0  0  0  0  0  0  0  0  0
  161.4480  203.2480  147.2820 N   0  0  0  0  0  0  0  0  0  0  0  0
  160.5160  201.6700  149.3850 C   0  0  0  0  0  0  0  0  0  0  0  0
  160.8830  201.5630  145.7400 N   0  0  0  0  0  2  0  0  0  0  0  0
  160.1720  201.1880  148.0130 C   0  0  0  0  0  2  0  0  0  0  0  0
  160.1430  200.9300  150.4560 F   0  0  0  0  0  0  0  0  0  0  0  0
  160.9120  201.9670  146.9670 C   0  0  0  0  0  0  0  0  0  0  0  0
  161.0760  202.8280  149.5810 N   0  0  0  0  0  0  0  0  0  0  0  0
  160.2140  206.1530  147.2470 C   0  0  0  0  0  2  0  0  0  0  0  0
  160.8070  205.2960  145.0470 C   0  0  0  0  0  2  0  0  0  0  0  0
  160.6110  206.5230  145.8280 C   0  0  1  0  0  3  0  0  0  0  0  0
  159.6270  206.0500  144.9320 O   0  0  0  0  0  0  0  0  0  0  0  0
  1 14  1  0  0  0  0
  1 12  1  1  0  0  0
  2  4  2  0  0  0  0
  5 10  2  0  0  0  0
  7  6  1  6  0  0  0
  7  1  1  0  0  0  0
  8 22  1  6  0  0  0
  8  2  1  0  0  0  0
  8  5  1  0  0  0  0
  9 17  1  6  0  0  0
  9 14  1  0  0  0  0
 10 15  1  0  0  0  0
 10  3  1  0  0  0  0
 11  3  1  6  0  0  0
 11 16  1  0  0  0  0
 11  7  1  0  0  0  0
 13 16  2  0  0  0  0
 15  4  1  6  0  0  0
 15  6  1  0  0  0  0
 16  9  1  0  0  0  0
 18 17  1  0  0  0  0
 19 21  1  0  0  0  0
 20 21  2  0  0  0  0
 21 18  1  0  0  0  0
 23 24  1  0  0  0  0
 23 25  1  0  0  0  0
 24 34  1  6  0  0  0
 24 25  1  0  0  0  0
 24 22  1  0  0  0  0
 25 26  1  6  0  0  0
 26 33  1  0  0  0  0
 27 26  2  0  0  0  0
 28 33  2  0  0  0  0
 28 31  1  0  0  0  0
 29 32  2  0  0  0  0
 30 28  1  0  0  0  0
 32 27  1  0  0  0  0
 32 30  1  0  0  0  0
 35 36  1  0  0  0  0
 36 34  1  1  0  0  0
 37 35  1  0  0  0  0
 37 36  1  0  0  0  0
M  END
>  <MODEL>
4

>  <REMARK>
 VINA RESULT:      -4.8      2.592      3.754
  Name = 
  8 active torsions:
  status: ('A' for Active; 'I' for Inactive)
    1  A    between atoms: C_1  and  C_17
    2  A    between atoms: C_7  and  C_32
    3  A    between atoms: C_7  and  C_34
    4  A    between atoms: C_11  and  C_34
    5  A    between atoms: C_23  and  C_27
    6  A    between atoms: C_23  and  C_36
    7  A    between atoms: C_25  and  C_32
    8  A    between atoms: C_26  and  C_27
                            x       y       z     vdW  Elec       q    Type
                         _______ _______ _______ _____ _____    ______ ____

>  <TORSDO>
F 8

$$$$
=
 OpenBabel11072413013D

 37 42  0  0  1  0  0  0  0  0999 V2000
  160.3780  212.0960  155.9010 C   0  0  1  0  0  3  0  0  0  0  0  0
  161.0040  211.4040  150.8660 N   0  0  0  0  0  0  0  0  0  0  0  0
  160.5230  208.8870  154.2650 C   0  0  0  0  0  2  0  0  0  0  0  0
  159.9950  211.6840  151.8370 C   0  0  0  0  0  3  0  0  0  0  0  0
  161.8220  209.6000  152.3310 C   0  0  0  0  0  3  0  0  0  0  0  0
  158.8820  211.2900  154.0080 C   0  0  0  0  0  2  0  0  0  0  0  0
  159.4120  210.9810  155.4260 C   0  0  1  0  0  3  0  0  0  0  0  0
  162.1350  210.5330  151.1820 C   0  0  1  0  0  3  0  0  0  0  0  0
  161.8060  210.4940  157.2040 C   0  0  1  0  0  3  0  0  0  0  0  0
  160.8650  209.8850  153.2130 C   0  0  0  0  0  0  0  0  0  0  0  0
  160.0030  209.5410  155.5510 C   0  0  2  0  0  3  0  0  0  0  0  0
  159.6940  213.3150  155.9810 O   0  0  0  0  0  1  0  0  0  0  0  0
  161.1910  208.2150  157.1010 O   0  0  0  0  0  0  0  0  0  0  0  0
  160.9780  211.7730  157.2600 C   0  0  0  0  0  2  0  0  0  0  0  0
  159.9580  211.0230  152.9990 C   0  0  1  0  0  3  0  0  0  0  0  0
  160.9880  209.3490  156.6820 C   0  0  0  0  0  0  0  0  0  0  0  0
  163.0390  210.6570  156.3310 C   0  0  0  0  0  2  0  0  0  0  0  0
  164.1750  211.2850  157.1170 C   0  0  0  0  0  2  0  0  0  0  0  0
  166.2430  212.5990  156.6220 O   0  0  0  0  0  1  0  0  0  0  0  0
  165.1760  211.4390  154.9570 O   0  0  0  0  0  0  0  0  0  0  0  0
  165.2100  211.7870  156.1690 C   0  0  0  0  0  0  0  0  0  0  0  0
  162.5060  209.7070  149.9710 C   0  0  0  0  0  2  0  0  0  0  0  0
  160.6570  208.0550  150.0000 O   0  0  0  0  0  0  0  0  0  0  0  0
  162.0510  208.2520  150.0840 C   0  0  1  0  0  0  0  0  0  0  0  0
  161.4050  207.7360  148.8380 C   0  0  1  0  0  3  0  0  0  0  0  0
  161.3550  206.2530  148.5630 C   0  0  0  0  0  0  0  0  0  0  0  0
  160.7330  205.4030  149.3290 N   0  0  0  0  0  0  0  0  0  0  0  0
  162.1570  204.5200  147.1000 C   0  0  0  0  0  0  0  0  0  0  0  0
  160.1460  203.1860  149.8580 N   0  0  0  0  0  2  0  0  0  0  0  0
  161.7190  203.4540  148.0510 C   0  0  0  0  0  2  0  0  0  0  0  0
  162.8090  204.1650  145.9660 F   0  0  0  0  0  0  0  0  0  0  0  0
  160.7720  204.0020  149.0750 C   0  0  0  0  0  0  0  0  0  0  0  0
  162.0160  205.7830  147.3780 N   0  0  0  0  0  0  0  0  0  0  0  0
  162.7550  207.3000  151.0610 C   0  0  0  0  0  2  0  0  0  0  0  0
  162.4270  205.1750  152.2010 C   0  0  0  0  0  2  0  0  0  0  0  0
  161.7720  206.4350  151.8320 C   0  0  1  0  0  3  0  0  0  0  0  0
  162.2710  206.2120  153.1340 O   0  0  0  0  0  0  0  0  0  0  0  0
  1 12  1  1  0  0  0
  1 14  1  0  0  0  0
  2  8  1  0  0  0  0
  2  4  2  0  0  0  0
  5 10  2  0  0  0  0
  7  6  1  6  0  0  0
  7 11  1  0  0  0  0
  7  1  1  0  0  0  0
  8 22  1  6  0  0  0
  8  5  1  0  0  0  0
  9 17  1  6  0  0  0
  9 14  1  0  0  0  0
 10  3  1  0  0  0  0
 11  3  1  6  0  0  0
 11 16  1  0  0  0  0
 15  4  1  6  0  0  0
 15 10  1  0  0  0  0
 15  6  1  0  0  0  0
 16 13  2  0  0  0  0
 16  9  1  0  0  0  0
 17 18  1  0  0  0  0
 20 21  2  0  0  0  0
 21 19  1  0  0  0  0
 21 18  1  0  0  0  0
 23 24  1  0  0  0  0
 24 22  1  6  0  0  0
 24 34  1  0  0  0  0
 25 26  1  1  0  0  0
 25 23  1  0  0  0  0
 25 24  1  0  0  0  0
 26 27  2  0  0  0  0
 28 33  2  0  0  0  0
 28 30  1  0  0  0  0
 30 32  1  0  0  0  0
 31 28  1  0  0  0  0
 32 27  1  0  0  0  0
 32 29  2  0  0  0  0
 33 26  1  0  0  0  0
 35 37  1  0  0  0  0
 36 34  1  6  0  0  0
 36 35  1  0  0  0  0
 36 37  1  0  0  0  0
M  END
>  <MODEL>
5

>  <REMARK>
 VINA RESULT:      -4.4      2.864      4.629
  Name = 
  8 active torsions:
  status: ('A' for Active; 'I' for Inactive)
    1  A    between atoms: C_1  and  C_17
    2  A    between atoms: C_7  and  C_32
    3  A    between atoms: C_7  and  C_34
    4  A    between atoms: C_11  and  C_34
    5  A    between atoms: C_23  and  C_27
    6  A    between atoms: C_23  and  C_36
    7  A    between atoms: C_25  and  C_32
    8  A    between atoms: C_26  and  C_27
                            x       y       z     vdW  Elec       q    Type
                         _______ _______ _______ _____ _____    ______ ____

>  <TORSDO>
F 8

$$$$
=
 OpenBabel11072413013D

 37 42  0  0  1  0  0  0  0  0999 V2000
  162.4450  210.0580  155.2990 C   0  0  1  0  0  3  0  0  0  0  0  0
  162.3130  209.5850  150.2020 N   0  0  0  0  0  0  0  0  0  0  0  0
  159.5580  209.0310  153.3990 C   0  0  0  0  0  2  0  0  0  0  0  0
  162.1980  210.5640  151.2350 C   0  0  0  0  0  3  0  0  0  0  0  0
  160.7690  208.1500  151.4760 C   0  0  0  0  0  3  0  0  0  0  0  0
  161.3330  211.3510  153.4120 C   0  0  0  0  0  2  0  0  0  0  0  0
  161.1150  210.6580  154.7760 C   0  0  1  0  0  3  0  0  0  0  0  0
  161.8250  208.2200  150.3960 C   0  0  1  0  0  3  0  0  0  0  0  0
  161.2930  208.1180  156.4030 C   0  0  1  0  0  3  0  0  0  0  0  0
  160.6790  209.0880  152.4200 C   0  0  0  0  0  0  0  0  0  0  0  0
  159.9310  209.6420  154.7550 C   0  0  2  0  0  3  0  0  0  0  0  0
  163.3780  211.0790  155.5090 O   0  0  0  0  0  1  0  0  0  0  0  0
  158.9480  207.9990  156.1380 O   0  0  0  0  0  0  0  0  0  0  0  0
  162.2400  209.2970  156.6000 C   0  0  0  0  0  2  0  0  0  0  0  0
  161.4850  210.3160  152.3390 C   0  0  1  0  0  3  0  0  0  0  0  0
  159.9850  208.5730  155.8240 C   0  0  0  0  0  0  0  0  0  0  0  0
  161.8930  207.0590  155.4940 C   0  0  0  0  0  2  0  0  0  0  0  0
  160.8050  206.3320  154.7230 C   0  0  0  0  0  2  0  0  0  0  0  0
  162.6390  206.0600  153.0470 O   0  0  0  0  0  1  0  0  0  0  0  0
  160.8310  204.6490  153.0330 O   0  0  0  0  0  0  0  0  0  0  0  0
  161.4110  205.6430  153.5480 C   0  0  0  0  0  0  0  0  0  0  0  0
  161.2380  207.6930  149.1060 C   0  0  0  0  0  2  0  0  0  0  0  0
  162.3320  205.5910  149.8350 O   0  0  0  0  0  0  0  0  0  0  0  0
  161.7140  206.2800  148.7710 C   0  0  1  0  0  0  0  0  0  0  0  0
  160.9970  205.2150  149.5390 C   0  0  1  0  0  3  0  0  0  0  0  0
  160.9460  203.8010  149.0150 C   0  0  0  0  0  0  0  0  0  0  0  0
  160.9540  203.5050  147.7470 N   0  0  0  0  0  0  0  0  0  0  0  0
  160.7300  201.4950  149.6670 C   0  0  0  0  0  0  0  0  0  0  0  0
  160.8380  201.9040  146.0270 N   0  0  0  0  0  2  0  0  0  0  0  0
  160.4560  201.0780  148.2590 C   0  0  0  0  0  2  0  0  0  0  0  0
  160.6930  200.5640  150.6500 F   0  0  0  0  0  0  0  0  0  0  0  0
  160.8290  202.1610  147.2930 C   0  0  0  0  0  0  0  0  0  0  0  0
  160.9080  202.7440  149.9860 N   0  0  0  0  0  0  0  0  0  0  0  0
  162.3310  205.9830  147.3980 C   0  0  0  0  0  2  0  0  0  0  0  0
  161.3590  205.8230  145.1710 C   0  0  0  0  0  2  0  0  0  0  0  0
  161.6410  206.7450  146.2790 C   0  0  1  0  0  3  0  0  0  0  0  0
  160.3530  206.2030  146.0740 O   0  0  0  0  0  0  0  0  0  0  0  0
  1 12  1  1  0  0  0
  1 14  1  0  0  0  0
  2  8  1  0  0  0  0
  2  4  2  0  0  0  0
  5 10  2  0  0  0  0
  7  6  1  6  0  0  0
  7  1  1  0  0  0  0
  8 22  1  6  0  0  0
  8  5  1  0  0  0  0
  9 17  1  6  0  0  0
  9 14  1  0  0  0  0
 10  3  1  0  0  0  0
 11  3  1  6  0  0  0
 11  7  1  0  0  0  0
 11 16  1  0  0  0  0
 15  4  1  6  0  0  0
 15 10  1  0  0  0  0
 15  6  1  0  0  0  0
 16 13  2  0  0  0  0
 16  9  1  0  0  0  0
 18 17  1  0  0  0  0
 19 21  1  0  0  0  0
 20 21  2  0  0  0  0
 21 18  1  0  0  0  0
 24 34  1  6  0  0  0
 24 22  1  0  0  0  0
 24 25  1  0  0  0  0
 24 23  1  0  0  0  0
 25 26  1  6  0  0  0
 25 23  1  0  0  0  0
 26 33  1  0  0  0  0
 27 26  2  0  0  0  0
 28 33  2  0  0  0  0
 28 31  1  0  0  0  0
 29 32  2  0  0  0  0
 30 28  1  0  0  0  0
 32 27  1  0  0  0  0
 32 30  1  0  0  0  0
 35 37  1  0  0  0  0
 35 36  1  0  0  0  0
 36 34  1  1  0  0  0
 37 36  1  0  0  0  0
M  END
>  <MODEL>
6

>  <REMARK>
 VINA RESULT:      -4.1      3.382      5.286
  Name = 
  8 active torsions:
  status: ('A' for Active; 'I' for Inactive)
    1  A    between atoms: C_1  and  C_17
    2  A    between atoms: C_7  and  C_32
    3  A    between atoms: C_7  and  C_34
    4  A    between atoms: C_11  and  C_34
    5  A    between atoms: C_23  and  C_27
    6  A    between atoms: C_23  and  C_36
    7  A    between atoms: C_25  and  C_32
    8  A    between atoms: C_26  and  C_27
                            x       y       z     vdW  Elec       q    Type
                         _______ _______ _______ _____ _____    ______ ____

>  <TORSDO>
F 8

$$$$
=
 OpenBabel11072413013D

 37 42  0  0  1  0  0  0  0  0999 V2000
  159.2700  213.2570  154.2790 C   0  0  1  0  0  3  0  0  0  0  0  0
  161.7560  210.4220  150.8150 N   0  0  0  0  0  0  0  0  0  0  0  0
  159.1550  209.6590  154.0960 C   0  0  0  0  0  2  0  0  0  0  0  0
  160.5600  211.1840  150.9820 C   0  0  0  0  0  3  0  0  0  0  0  0
  161.3020  209.3510  152.9860 C   0  0  0  0  0  3  0  0  0  0  0  0
  158.5640  211.8620  152.2720 C   0  0  0  0  0  2  0  0  0  0  0  0
  158.3200  212.1420  153.7720 C   0  0  1  0  0  3  0  0  0  0  0  0
  162.3340  209.6680  151.9260 C   0  0  1  0  0  3  0  0  0  0  0  0
  159.4660  212.2410  156.5670 C   0  0  1  0  0  3  0  0  0  0  0  0
  160.1890  210.0740  153.1080 C   0  0  0  0  0  0  0  0  0  0  0  0
  158.3520  210.8460  154.6420 C   0  0  2  0  0  3  0  0  0  0  0  0
  159.0080  214.4510  153.5970 O   0  0  0  0  0  1  0  0  0  0  0  0
  158.3170  210.2050  156.9140 O   0  0  0  0  0  0  0  0  0  0  0  0
  159.1080  213.4920  155.7720 C   0  0  0  0  0  2  0  0  0  0  0  0
  159.8370  211.0900  152.1040 C   0  0  1  0  0  3  0  0  0  0  0  0
  158.6540  211.0640  156.1080 C   0  0  0  0  0  0  0  0  0  0  0  0
  160.9410  211.8990  156.4460 C   0  0  0  0  0  2  0  0  0  0  0  0
  161.2560  210.6090  157.1830 C   0  0  0  0  0  2  0  0  0  0  0  0
  163.4580  210.7480  156.0090 O   0  0  0  0  0  0  0  0  0  0  0  0
  162.5700  208.7120  156.5760 O   0  0  0  0  0  1  0  0  0  0  0  0
  162.4500  209.9670  156.5620 C   0  0  0  0  0  0  0  0  0  0  0  0
  162.9270  208.3730  151.4210 C   0  0  0  0  0  2  0  0  0  0  0  0
  161.3130  208.2760  149.5410 O   0  0  0  0  0  0  0  0  0  0  0  0
  161.9450  207.5600  150.5780 C   0  0  1  0  0  0  0  0  0  0  0  0
  162.3690  207.4130  149.1510 C   0  0  1  0  0  3  0  0  0  0  0  0
  161.8430  206.2750  148.3120 C   0  0  0  0  0  0  0  0  0  0  0  0
  161.7020  205.0600  148.7610 N   0  0  0  0  0  0  0  0  0  0  0  0
  161.1250  205.6630  146.0990 C   0  0  0  0  0  0  0  0  0  0  0  0
  161.1460  202.8030  148.3910 N   0  0  0  0  0  2  0  0  0  0  0  0
  161.1920  204.2080  146.4330 C   0  0  0  0  0  2  0  0  0  0  0  0
  160.7980  206.0360  144.8390 F   0  0  0  0  0  0  0  0  0  0  0  0
  161.2720  203.9980  147.9140 C   0  0  0  0  0  0  0  0  0  0  0  0
  161.4660  206.5770  146.9600 N   0  0  0  0  0  0  0  0  0  0  0  0
  161.0450  206.5110  151.2460 C   0  0  0  0  0  2  0  0  0  0  0  0
  161.1110  205.0310  153.1780 C   0  0  0  0  0  2  0  0  0  0  0  0
  161.8450  205.4460  151.9760 C   0  0  1  0  0  3  0  0  0  0  0  0
  161.0990  204.2470  152.0130 O   0  0  0  0  0  0  0  0  0  0  0  0
  1 12  1  6  0  0  0
  1 14  1  0  0  0  0
  2  4  2  0  0  0  0
  2  8  1  0  0  0  0
  5 10  2  0  0  0  0
  7  6  1  6  0  0  0
  7  1  1  0  0  0  0
  7 11  1  0  0  0  0
  8 22  1  6  0  0  0
  8  5  1  0  0  0  0
  9 17  1  6  0  0  0
 10  3  1  0  0  0  0
 11  3  1  6  0  0  0
 11 16  1  0  0  0  0
 14  9  1  0  0  0  0
 15  4  1  6  0  0  0
 15  6  1  0  0  0  0
 15 10  1  0  0  0  0
 16  9  1  0  0  0  0
 16 13  2  0  0  0  0
 17 18  1  0  0  0  0
 19 21  2  0  0  0  0
 21 20  1  0  0  0  0
 21 18  1  0  0  0  0
 23 24  1  0  0  0  0
 24 34  1  1  0  0  0
 24 22  1  0  0  0  0
 25 26  1  6  0  0  0
 25 23  1  0  0  0  0
 25 24  1  0  0  0  0
 26 27  2  0  0  0  0
 28 30  1  0  0  0  0
 28 33  2  0  0  0  0
 30 32  1  0  0  0  0
 31 28  1  0  0  0  0
 32 29  2  0  0  0  0
 32 27  1  0  0  0  0
 33 26  1  0  0  0  0
 36 34  1  6  0  0  0
 36 37  1  0  0  0  0
 36 35  1  0  0  0  0
 37 35  1  0  0  0  0
M  END
>  <MODEL>
7

>  <REMARK>
 VINA RESULT:      -3.7      2.073      3.899
  Name = 
  8 active torsions:
  status: ('A' for Active; 'I' for Inactive)
    1  A    between atoms: C_1  and  C_17
    2  A    between atoms: C_7  and  C_32
    3  A    between atoms: C_7  and  C_34
    4  A    between atoms: C_11  and  C_34
    5  A    between atoms: C_23  and  C_27
    6  A    between atoms: C_23  and  C_36
    7  A    between atoms: C_25  and  C_32
    8  A    between atoms: C_26  and  C_27
                            x       y       z     vdW  Elec       q    Type
                         _______ _______ _______ _____ _____    ______ ____

>  <TORSDO>
F 8

$$$$
=
 OpenBabel11072413013D

 37 42  0  0  1  0  0  0  0  0999 V2000
  163.1460  210.4250  154.4390 C   0  0  1  0  0  3  0  0  0  0  0  0
  162.3640  206.6350  151.0860 N   0  0  0  0  0  0  0  0  0  0  0  0
  159.9090  209.2890  153.3310 C   0  0  0  0  0  2  0  0  0  0  0  0
  162.6690  208.0280  151.1430 C   0  0  0  0  0  3  0  0  0  0  0  0
  160.5780  207.0230  152.7380 C   0  0  0  0  0  3  0  0  0  0  0  0
  162.3210  210.3060  152.0360 C   0  0  0  0  0  2  0  0  0  0  0  0
  162.0320  210.8540  153.4510 C   0  0  1  0  0  3  0  0  0  0  0  0
  161.4890  206.0110  152.0780 C   0  0  1  0  0  3  0  0  0  0  0  0
  161.5540  210.2450  156.3720 C   0  0  1  0  0  3  0  0  0  0  0  0
  160.8860  208.3190  152.7630 C   0  0  0  0  0  0  0  0  0  0  0  0
  160.5900  210.5180  153.9460 C   0  0  2  0  0  3  0  0  0  0  0  0
  164.3720  210.9680  154.0380 O   0  0  0  0  0  1  0  0  0  0  0  0
  159.2790  210.6780  155.9030 O   0  0  0  0  0  0  0  0  0  0  0  0
  162.8410  210.8800  155.8570 C   0  0  0  0  0  2  0  0  0  0  0  0
  162.0280  208.8370  151.9940 C   0  0  1  0  0  3  0  0  0  0  0  0
  160.4070  210.5330  155.4470 C   0  0  0  0  0  0  0  0  0  0  0  0
  161.6920  208.7410  156.5330 C   0  0  0  0  0  2  0  0  0  0  0  0
  160.4760  208.1610  157.2340 C   0  0  0  0  0  2  0  0  0  0  0  0
  158.5850  206.9840  156.1010 O   0  0  0  0  0  1  0  0  0  0  0  0
  160.7120  206.1350  155.9960 O   0  0  0  0  0  0  0  0  0  0  0  0
  159.9350  207.0310  156.4260 C   0  0  0  0  0  0  0  0  0  0  0  0
  160.6390  204.9470  151.4220 C   0  0  0  0  0  2  0  0  0  0  0  0
  162.1820  203.3220  150.3620 O   0  0  0  0  0  0  0  0  0  0  0  0
  161.2730  204.3790  150.1520 C   0  0  1  0  0  0  0  0  0  0  0  0
  160.8960  202.9570  149.8870 C   0  0  1  0  0  3  0  0  0  0  0  0
  160.9850  202.3920  148.4910 C   0  0  0  0  0  0  0  0  0  0  0  0
  160.8290  203.1110  147.4160 N   0  0  0  0  0  0  0  0  0  0  0  0
  161.2490  200.3600  147.2310 C   0  0  0  0  0  0  0  0  0  0  0  0
  160.6870  203.2670  145.0720 N   0  0  0  0  0  2  0  0  0  0  0  0
  160.8150  201.0340  145.9700 C   0  0  0  0  0  2  0  0  0  0  0  0
  161.5240  199.0330  147.2090 F   0  0  0  0  0  0  0  0  0  0  0  0
  160.8470  202.5240  146.1180 C   0  0  0  0  0  0  0  0  0  0  0  0
  161.2760  200.9910  148.3680 N   0  0  0  0  0  0  0  0  0  0  0  0
  161.6670  205.3190  149.0050 C   0  0  0  0  0  2  0  0  0  0  0  0
  161.0410  207.3490  147.8160 C   0  0  0  0  0  2  0  0  0  0  0  0
  160.5120  206.1990  148.5580 C   0  0  1  0  0  3  0  0  0  0  0  0
  160.4830  206.2480  147.1470 O   0  0  0  0  0  0  0  0  0  0  0  0
  1 12  1  6  0  0  0
  1 14  1  0  0  0  0
  2  4  2  0  0  0  0
  2  8  1  0  0  0  0
  5 10  2  0  0  0  0
  7  6  1  6  0  0  0
  7 11  1  0  0  0  0
  7  1  1  0  0  0  0
  8 22  1  6  0  0  0
  8  5  1  0  0  0  0
  9 17  1  6  0  0  0
 10  3  1  0  0  0  0
 11  3  1  1  0  0  0
 11 16  1  0  0  0  0
 14  9  1  0  0  0  0
 15  4  1  6  0  0  0
 15  6  1  0  0  0  0
 15 10  1  0  0  0  0
 16 13  2  0  0  0  0
 16  9  1  0  0  0  0
 17 18  1  0  0  0  0
 19 21  1  0  0  0  0
 20 21  2  0  0  0  0
 21 18  1  0  0  0  0
 24 34  1  6  0  0  0
 24 23  1  0  0  0  0
 24 22  1  0  0  0  0
 25 26  1  6  0  0  0
 25 24  1  0  0  0  0
 25 23  1  0  0  0  0
 27 26  2  0  0  0  0
 28 33  2  0  0  0  0
 29 32  2  0  0  0  0
 30 32  1  0  0  0  0
 30 28  1  0  0  0  0
 31 28  1  0  0  0  0
 32 27  1  0  0  0  0
 33 26  1  0  0  0  0
 35 36  1  0  0  0  0
 36 34  1  6  0  0  0
 37 35  1  0  0  0  0
 37 36  1  0  0  0  0
M  END
>  <MODEL>
8

>  <REMARK>
 VINA RESULT:      -3.2      3.147      5.041
  Name = 
  8 active torsions:
  status: ('A' for Active; 'I' for Inactive)
    1  A    between atoms: C_1  and  C_17
    2  A    between atoms: C_7  and  C_32
    3  A    between atoms: C_7  and  C_34
    4  A    between atoms: C_11  and  C_34
    5  A    between atoms: C_23  and  C_27
    6  A    between atoms: C_23  and  C_36
    7  A    between atoms: C_25  and  C_32
    8  A    between atoms: C_26  and  C_27
                            x       y       z     vdW  Elec       q    Type
                         _______ _______ _______ _____ _____    ______ ____

>  <TORSDO>
F 8

$$$$
