=
 OpenBabel11072413413D

 67 72  0  0  1  0  0  0  0  0999 V2000
  161.8460  207.8130  141.6570 C   0  0  1  0  0  3  0  0  0  0  0  0
  160.5610  210.3330  148.9140 C   0  0  0  0  0  2  0  0  0  0  0  0
  161.5180  208.7680  151.6380 F   0  0  0  0  0  0  0  0  0  0  0  0
  162.0030  205.8160  144.9120 C   0  0  0  0  0  3  0  0  0  0  0  0
  161.2090  209.0740  142.1560 C   0  0  0  0  0  0  0  0  0  0  0  0
  163.6730  210.1270  147.3490 F   0  0  0  0  0  0  0  0  0  0  0  0
  162.6130  210.9720  147.6440 C   0  0  0  0  0  0  0  0  0  0  0  0
  161.9990  205.6910  146.3780 C   0  0  0  0  0  0  0  0  0  0  0  0
  163.2450  212.9920  144.3940 C   0  0  0  0  0  2  0  0  0  0  0  0
  161.7050  205.4140  149.1860 C   0  0  0  0  0  0  0  0  0  0  0  0
  161.8580  213.4510  144.1860 N   0  0  0  0  0  0  0  0  0  0  0  0
  163.3420  212.0300  145.5370 C   0  0  0  0  0  3  0  0  0  0  0  0
  161.7810  204.4020  146.9680 C   0  0  0  0  0  0  0  0  0  0  0  0
  162.9300  211.6620  148.8150 F   0  0  0  0  0  0  0  0  0  0  0  0
  161.6450  206.4020  151.4160 C   0  0  0  0  0  0  0  0  0  0  0  0
  161.8500  206.6960  148.6140 C   0  0  0  0  0  0  0  0  0  0  0  0
  161.4030  209.0990  148.8900 N   0  0  0  0  0  0  0  0  0  0  0  0
  161.6060  205.2870  150.5790 C   0  0  0  0  0  3  0  0  0  0  0  0
  161.2990  212.9620  146.4940 C   0  0  0  0  0  0  0  0  0  0  0  0
  161.7120  210.3710  141.6760 C   0  0  0  0  0  0  0  0  0  0  0  0
  161.9010  206.6780  142.6690 C   0  0  0  0  0  0  0  0  0  0  0  0
  161.7300  207.8310  149.4490 C   0  0  0  0  0  0  0  0  0  0  0  0
  161.3290  210.1100  147.7980 C   0  0  1  0  0  0  0  0  0  0  0  0
  161.7250  212.8680  141.7960 C   0  0  1  0  0  3  0  0  0  0  0  0
  161.3010  202.9360  148.9630 C   0  0  0  0  0  1  0  0  0  0  0  0
  162.6970  210.4010  140.8790 O   0  0  0  0  0  0  0  0  0  0  0  0
  161.9680  206.9050  144.1320 C   0  0  0  0  0  3  0  0  0  0  0  0
  161.0260  213.6360  145.3510 C   0  0  0  0  0  3  0  0  0  0  0  0
  160.2090  209.0200  142.9330 O   0  0  0  0  0  0  0  0  0  0  0  0
  160.5480  209.6080  146.5900 C   0  0  0  0  0  1  0  0  0  0  0  0
  162.4540  212.0100  146.5410 C   0  0  0  0  0  0  0  0  0  0  0  0
  161.4680  213.9380  142.8580 C   0  0  1  0  0  3  0  0  0  0  0  0
  161.9000  205.4850  142.2330 O   0  0  0  0  0  0  0  0  0  0  0  0
  161.9840  206.8190  147.2100 C   0  0  0  0  0  3  0  0  0  0  0  0
  161.7060  207.6800  150.8450 C   0  0  0  0  0  0  0  0  0  0  0  0
  161.0850  211.5890  142.0670 N   0  0  0  0  0  2  0  0  0  0  0  0
  161.6770  204.2790  148.3640 C   0  0  0  0  0  0  0  0  0  0  0  0
  160.0370  214.4480  142.7990 C   0  0  0  0  0  1  0  0  0  0  0  0
  161.5990  213.3070  140.3530 C   0  0  0  0  0  0  0  0  0  0  0  0
  159.6390  214.4520  139.6610 O   0  0  0  0  0  1  0  0  0  0  0  0
  160.3420  213.2860  139.6720 N   0  0  0  0  0  0  0  0  0  0  0  0
  162.6480  213.5650  139.7150 O   0  0  0  0  0  0  0  0  0  0  0  0
  158.6000  212.4900  138.1050 C   0  0  0  0  0  1  0  0  0  0  0  0
  159.5350  210.9240  139.7170 C   0  0  0  0  0  1  0  0  0  0  0  0
  159.8790  212.1330  138.8530 C   0  0  0  0  0  0  0  0  0  0  0  0
  161.9780  212.3620  137.6950 O   0  0  0  0  0  0  0  0  0  0  0  0
  160.9180  211.7020  137.8330 C   0  0  0  0  0  0  0  0  0  0  0  0
  160.6810  210.5860  137.0190 O   0  0  0  0  0  0  0  0  0  0  0  0
  159.5020  209.8030  137.1100 C   0  0  0  0  0  1  0  0  0  0  0  0
  159.8740  214.4520  147.9280 C   0  0  0  0  0  2  0  0  0  0  0  0
  160.8640  213.8290  148.9240 C   0  0  2  0  0  3  0  0  0  0  0  0
  160.4010  213.0330  147.7120 C   0  0  2  0  0  3  0  0  0  0  0  0
  160.1290  213.3200  150.1540 C   0  0  0  0  0  0  0  0  0  0  0  0
  158.8660  213.3690  150.1970 O   0  0  0  0  0  0  0  0  0  0  0  0
  160.8770  212.7600  151.2640 N   0  0  0  0  0  2  0  0  0  0  0  0
  160.2760  211.9210  152.2950 C   0  0  0  0  0  2  0  0  0  0  0  0
  159.2030  212.7030  153.0690 C   0  0  0  0  0  2  0  0  0  0  0  0
  159.6830  213.1510  154.4440 C   0  0  0  0  0  1  0  0  0  0  0  0
  160.8400  205.2160  153.4280 C   0  0  0  0  0  1  0  0  0  0  0  0
  161.5620  206.2650  152.8080 O   0  0  0  0  0  0  0  0  0  0  0  0
  161.1830  207.3750  140.3470 C   0  0  0  0  0  2  0  0  0  0  0  0
  162.2290  207.1200  139.3100 C   0  0  0  0  0  0  0  0  0  0  0  0
  163.0090  206.1440  139.4300 O   0  0  0  0  0  0  0  0  0  0  0  0
  162.3640  208.0030  138.2040 N   0  0  0  0  0  1  0  0  0  0  0  0
  161.6100  203.2070  146.2220 O   0  0  0  0  0  0  0  0  0  0  0  0
  160.7000  201.5160  145.2230 C   0  0  0  0  0  1  0  0  0  0  0  0
  160.4460  202.5400  146.1500 O   0  0  0  0  0  0  0  0  0  0  0  0
  1 61  1  6  0  0  0
  1  5  1  0  0  0  0
  1 21  1  0  0  0  0
  4  8  1  0  0  0  0
  5 29  2  0  0  0  0
  6  7  1  0  0  0  0
  7 23  1  0  0  0  0
  7 14  1  0  0  0  0
  8 13  2  0  0  0  0
  8 34  1  0  0  0  0
  9 12  1  0  0  0  0
 10 18  1  0  0  0  0
 11  9  1  0  0  0  0
 11 28  1  0  0  0  0
 12 31  2  0  0  0  0
 13 37  1  0  0  0  0
 15 60  1  0  0  0  0
 16 10  1  0  0  0  0
 16 22  1  0  0  0  0
 17  2  1  0  0  0  0
 17 22  1  0  0  0  0
 18 15  2  0  0  0  0
 19 31  1  0  0  0  0
 20 36  1  0  0  0  0
 20  5  1  0  0  0  0
 21 27  1  0  0  0  0
 22 35  2  0  0  0  0
 23 30  1  6  0  0  0
 23 17  1  0  0  0  0
 23  2  1  0  0  0  0
 24 39  1  6  0  0  0
 24 36  1  0  0  0  0
 24 32  1  0  0  0  0
 26 20  2  0  0  0  0
 27  4  2  0  0  0  0
 28 19  2  0  0  0  0
 31  7  1  0  0  0  0
 32 38  1  1  0  0  0
 32 11  1  0  0  0  0
 33 21  2  0  0  0  0
 34 16  2  0  0  0  0
 35 15  1  0  0  0  0
 35  3  1  0  0  0  0
 37 25  1  0  0  0  0
 37 10  2  0  0  0  0
 40 41  1  0  0  0  0
 41 39  1  0  0  0  0
 42 39  2  0  0  0  0
 43 45  1  0  0  0  0
 45 41  1  0  0  0  0
 45 44  1  0  0  0  0
 46 47  2  0  0  0  0
 47 45  1  0  0  0  0
 48 49  1  0  0  0  0
 48 47  1  0  0  0  0
 50 51  1  0  0  0  0
 51 53  1  1  0  0  0
 52 19  1  6  0  0  0
 52 50  1  0  0  0  0
 52 51  1  0  0  0  0
 53 54  2  0  0  0  0
 53 55  1  0  0  0  0
 55 56  1  0  0  0  0
 56 57  1  0  0  0  0
 57 58  1  0  0  0  0
 60 59  1  0  0  0  0
 62 63  2  0  0  0  0
 62 61  1  0  0  0  0
 64 62  1  0  0  0  0
 65 13  1  0  0  0  0
 66 67  1  0  0  0  0
 67 65  1  0  0  0  0
M  END
>  <MODEL>
1

>  <REMARK>
 VINA RESULT:      16.2      0.000      0.000
  Name = 
  13 active torsions:
  status: ('A' for Active; 'I' for Inactive)
    1  A    between atoms: C_1  and  C_32
    2  A    between atoms: C_4  and  C_46
    3  A    between atoms: C_6  and  C_53
    4  A    between atoms: O_15  and  C_57
    5  A    between atoms: C_16  and  C_37
    6  A    between atoms: C_19  and  C_32
    7  A    between atoms: C_20  and  O_34
    8  A    between atoms: C_22  and  O_26
    9  A    between atoms: C_28  and  C_58
   10  A    between atoms: O_34  and  O_47
   11  A    between atoms: C_46  and  N_66
   12  A    between atoms: N_54  and  C_64
   13  A    between atoms: C_57  and  C_64
                            x       y       z     vdW  Elec       q    Type
                         _______ _______ _______ _____ _____    ______ ____

>  <TORSDO>
F 13

$$$$
=
 OpenBabel11072413413D

 67 72  0  0  1  0  0  0  0  0999 V2000
  161.8130  207.4280  142.2190 C   0  0  1  0  0  3  0  0  0  0  0  0
  160.7730  210.6460  149.2350 C   0  0  0  0  0  2  0  0  0  0  0  0
  161.8680  209.3780  152.0590 F   0  0  0  0  0  0  0  0  0  0  0  0
  162.1380  205.7710  145.6470 C   0  0  0  0  0  3  0  0  0  0  0  0
  161.1730  208.7240  142.6160 C   0  0  0  0  0  0  0  0  0  0  0  0
  163.8230  210.3300  147.5690 F   0  0  0  0  0  0  0  0  0  0  0  0
  162.7590  211.1850  147.8230 C   0  0  0  0  0  0  0  0  0  0  0  0
  162.1950  205.7950  147.1180 C   0  0  0  0  0  0  0  0  0  0  0  0
  163.2220  212.8770  144.3630 C   0  0  0  0  0  2  0  0  0  0  0  0
  162.0190  205.7970  149.9490 C   0  0  0  0  0  0  0  0  0  0  0  0
  161.8200  213.2920  144.1690 N   0  0  0  0  0  0  0  0  0  0  0  0
  163.3830  212.0360  145.5920 C   0  0  0  0  0  3  0  0  0  0  0  0
  162.0260  204.5690  147.8420 C   0  0  0  0  0  0  0  0  0  0  0  0
  163.1100  211.9940  148.9050 F   0  0  0  0  0  0  0  0  0  0  0  0
  162.0300  207.0030  152.0690 C   0  0  0  0  0  0  0  0  0  0  0  0
  162.1170  207.0170  149.2460 C   0  0  0  0  0  0  0  0  0  0  0  0
  161.6360  209.4290  149.2990 N   0  0  0  0  0  0  0  0  0  0  0  0
  161.9790  205.8100  151.3510 C   0  0  0  0  0  3  0  0  0  0  0  0
  161.3630  213.0290  146.5360 C   0  0  0  0  0  0  0  0  0  0  0  0
  161.6320  209.9720  141.9880 C   0  0  0  0  0  0  0  0  0  0  0  0
  161.9300  206.4010  143.3360 C   0  0  0  0  0  0  0  0  0  0  0  0
  162.0090  208.2280  149.9670 C   0  0  0  0  0  0  0  0  0  0  0  0
  161.5000  210.3230  148.1150 C   0  0  1  0  0  0  0  0  0  0  0  0
  161.6020  212.4690  141.8560 C   0  0  1  0  0  3  0  0  0  0  0  0
  161.6540  203.3040  149.9920 C   0  0  0  0  0  1  0  0  0  0  0  0
  162.5830  209.9370  141.1510 O   0  0  0  0  0  0  0  0  0  0  0  0
  162.0510  206.7760  144.7650 C   0  0  0  0  0  3  0  0  0  0  0  0
  161.0320  213.5800  145.3430 C   0  0  0  0  0  3  0  0  0  0  0  0
  160.2060  208.7330  143.4350 O   0  0  0  0  0  0  0  0  0  0  0  0
  160.6800  209.6910  146.9980 C   0  0  0  0  0  1  0  0  0  0  0  0
  162.5370  212.1040  146.6290 C   0  0  0  0  0  0  0  0  0  0  0  0
  161.3670  213.6370  142.8160 C   0  0  1  0  0  3  0  0  0  0  0  0
  161.9340  205.1710  143.0210 O   0  0  0  0  0  0  0  0  0  0  0  0
  162.1920  207.0010  147.8330 C   0  0  0  0  0  3  0  0  0  0  0  0
  162.0440  208.2190  151.3710 C   0  0  0  0  0  0  0  0  0  0  0  0
  160.9970  211.2140  142.2810 N   0  0  0  0  0  2  0  0  0  0  0  0
  161.9800  204.5850  149.2460 C   0  0  0  0  0  0  0  0  0  0  0  0
  159.9260  214.1160  142.7660 C   0  0  0  0  0  1  0  0  0  0  0  0
  161.4100  212.7590  140.3830 C   0  0  0  0  0  0  0  0  0  0  0  0
  159.4050  213.8060  139.6640 O   0  0  0  0  0  1  0  0  0  0  0  0
  160.1260  212.6550  139.7620 N   0  0  0  0  0  0  0  0  0  0  0  0
  162.4280  212.9620  139.6780 O   0  0  0  0  0  0  0  0  0  0  0  0
  159.3390  210.3350  140.1090 C   0  0  0  0  0  1  0  0  0  0  0  0
  160.7070  210.8330  138.1580 C   0  0  0  0  0  1  0  0  0  0  0  0
  159.6480  211.4200  139.0840 C   0  0  0  0  0  0  0  0  0  0  0  0
  158.4690  211.8190  137.0220 O   0  0  0  0  0  0  0  0  0  0  0  0
  158.3920  211.6670  138.2660 C   0  0  0  0  0  0  0  0  0  0  0  0
  157.1470  211.7580  138.9030 O   0  0  0  0  0  0  0  0  0  0  0  0
  156.0280  212.4030  138.3190 C   0  0  0  0  0  1  0  0  0  0  0  0
  159.6140  214.4400  147.6570 C   0  0  0  0  0  2  0  0  0  0  0  0
  160.7650  214.4130  148.6740 C   0  0  2  0  0  3  0  0  0  0  0  0
  160.5140  213.2090  147.7760 C   0  0  2  0  0  3  0  0  0  0  0  0
  160.2360  214.1040  150.0660 C   0  0  0  0  0  0  0  0  0  0  0  0
  161.0410  213.8030  150.9930 O   0  0  0  0  0  0  0  0  0  0  0  0
  158.8110  214.1760  150.3300 N   0  0  0  0  0  2  0  0  0  0  0  0
  158.2470  214.2710  151.6730 C   0  0  0  0  0  2  0  0  0  0  0  0
  158.1950  212.8850  152.3350 C   0  0  0  0  0  2  0  0  0  0  0  0
  159.5280  212.4840  152.9550 C   0  0  0  0  0  1  0  0  0  0  0  0
  161.8020  208.1880  154.2250 C   0  0  0  0  0  1  0  0  0  0  0  0
  162.0060  207.0070  153.4710 O   0  0  0  0  0  0  0  0  0  0  0  0
  161.1060  206.8500  140.9880 C   0  0  0  0  0  2  0  0  0  0  0  0
  162.0320  206.8730  139.8140 C   0  0  0  0  0  0  0  0  0  0  0  0
  163.1610  206.3300  139.8940 O   0  0  0  0  0  0  0  0  0  0  0  0
  161.6490  207.5390  138.6190 N   0  0  0  0  0  1  0  0  0  0  0  0
  161.8480  203.3020  147.2270 O   0  0  0  0  0  0  0  0  0  0  0  0
  160.2500  202.2480  146.2160 C   0  0  0  0  0  1  0  0  0  0  0  0
  161.3130  203.1420  146.0050 O   0  0  0  0  0  0  0  0  0  0  0  0
  1 61  1  6  0  0  0
  1  5  1  0  0  0  0
  1 21  1  0  0  0  0
  2 17  1  0  0  0  0
  4  8  1  0  0  0  0
  5 29  2  0  0  0  0
  6  7  1  0  0  0  0
  7 23  1  0  0  0  0
  7 14  1  0  0  0  0
  8 34  2  0  0  0  0
  8 13  1  0  0  0  0
  9 12  1  0  0  0  0
 10 18  1  0  0  0  0
 11  9  1  0  0  0  0
 11 28  1  0  0  0  0
 12 31  2  0  0  0  0
 13 37  2  0  0  0  0
 15 60  1  0  0  0  0
 16 10  2  0  0  0  0
 16 22  1  0  0  0  0
 17 22  1  0  0  0  0
 18 15  2  0  0  0  0
 19 31  1  0  0  0  0
 20 36  1  0  0  0  0
 20  5  1  0  0  0  0
 21 27  1  0  0  0  0
 22 35  2  0  0  0  0
 23 30  1  6  0  0  0
 23  2  1  0  0  0  0
 23 17  1  0  0  0  0
 24 39  1  6  0  0  0
 24 36  1  0  0  0  0
 24 32  1  0  0  0  0
 26 20  2  0  0  0  0
 27  4  2  0  0  0  0
 28 19  2  0  0  0  0
 31  7  1  0  0  0  0
 32 38  1  1  0  0  0
 32 11  1  0  0  0  0
 33 21  2  0  0  0  0
 34 16  1  0  0  0  0
 35  3  1  0  0  0  0
 35 15  1  0  0  0  0
 37 10  1  0  0  0  0
 37 25  1  0  0  0  0
 40 41  1  0  0  0  0
 41 39  1  0  0  0  0
 42 39  2  0  0  0  0
 44 45  1  0  0  0  0
 45 41  1  0  0  0  0
 45 43  1  0  0  0  0
 46 47  2  0  0  0  0
 47 48  1  0  0  0  0
 47 45  1  0  0  0  0
 49 48  1  0  0  0  0
 50 52  1  0  0  0  0
 50 51  1  0  0  0  0
 51 53  1  1  0  0  0
 52 19  1  6  0  0  0
 52 51  1  0  0  0  0
 53 55  1  0  0  0  0
 53 54  2  0  0  0  0
 55 56  1  0  0  0  0
 56 57  1  0  0  0  0
 57 58  1  0  0  0  0
 60 59  1  0  0  0  0
 62 63  2  0  0  0  0
 62 61  1  0  0  0  0
 64 62  1  0  0  0  0
 65 13  1  0  0  0  0
 67 66  1  0  0  0  0
 67 65  1  0  0  0  0
M  END
>  <MODEL>
2

>  <REMARK>
 VINA RESULT:      17.1      1.117      1.414
  Name = 
  13 active torsions:
  status: ('A' for Active; 'I' for Inactive)
    1  A    between atoms: C_1  and  C_32
    2  A    between atoms: C_4  and  C_46
    3  A    between atoms: C_6  and  C_53
    4  A    between atoms: O_15  and  C_57
    5  A    between atoms: C_16  and  C_37
    6  A    between atoms: C_19  and  C_32
    7  A    between atoms: C_20  and  O_34
    8  A    between atoms: C_22  and  O_26
    9  A    between atoms: C_28  and  C_58
   10  A    between atoms: O_34  and  O_47
   11  A    between atoms: C_46  and  N_66
   12  A    between atoms: N_54  and  C_64
   13  A    between atoms: C_57  and  C_64
                            x       y       z     vdW  Elec       q    Type
                         _______ _______ _______ _____ _____    ______ ____

>  <TORSDO>
F 13

$$$$
=
 OpenBabel11072413413D

 67 72  0  0  1  0  0  0  0  0999 V2000
  161.6000  207.8080  142.1200 C   0  0  1  0  0  3  0  0  0  0  0  0
  160.6180  210.3900  149.4020 C   0  0  0  0  0  2  0  0  0  0  0  0
  161.7100  208.8620  152.0950 F   0  0  0  0  0  0  0  0  0  0  0  0
  161.9210  205.8450  145.3830 C   0  0  0  0  0  3  0  0  0  0  0  0
  160.9750  209.0680  142.6350 C   0  0  0  0  0  0  0  0  0  0  0  0
  163.6590  210.1960  147.7010 F   0  0  0  0  0  0  0  0  0  0  0  0
  162.6050  211.0340  148.0350 C   0  0  0  0  0  0  0  0  0  0  0  0
  161.9840  205.7360  146.8500 C   0  0  0  0  0  0  0  0  0  0  0  0
  163.0730  213.0270  144.7400 C   0  0  0  0  0  2  0  0  0  0  0  0
  161.8180  205.4850  149.6710 C   0  0  0  0  0  0  0  0  0  0  0  0
  161.6750  213.4710  144.5900 N   0  0  0  0  0  0  0  0  0  0  0  0
  163.2300  212.0770  145.8880 C   0  0  0  0  0  3  0  0  0  0  0  0
  161.8040  204.4510  147.4610 C   0  0  0  0  0  0  0  0  0  0  0  0
  162.9680  211.7390  149.1840 F   0  0  0  0  0  0  0  0  0  0  0  0
  161.8490  206.4950  151.8910 C   0  0  0  0  0  0  0  0  0  0  0  0
  161.9250  206.7620  149.0800 C   0  0  0  0  0  0  0  0  0  0  0  0
  161.4700  209.1640  149.3520 N   0  0  0  0  0  0  0  0  0  0  0  0
  161.7820  205.3710  151.0680 C   0  0  0  0  0  3  0  0  0  0  0  0
  161.2230  213.0010  146.9260 C   0  0  0  0  0  0  0  0  0  0  0  0
  161.4450  210.3640  142.1200 C   0  0  0  0  0  0  0  0  0  0  0  0
  161.7110  206.6830  143.1390 C   0  0  0  0  0  0  0  0  0  0  0  0
  161.8320  207.9040  149.9080 C   0  0  0  0  0  0  0  0  0  0  0  0
  161.3380  210.1630  148.2540 C   0  0  1  0  0  0  0  0  0  0  0  0
  161.4400  212.8630  142.2140 C   0  0  1  0  0  3  0  0  0  0  0  0
  161.4270  203.0020  149.4900 C   0  0  0  0  0  1  0  0  0  0  0  0
  162.3930  210.3950  141.2790 O   0  0  0  0  0  0  0  0  0  0  0  0
  161.8410  206.9260  144.5960 C   0  0  0  0  0  3  0  0  0  0  0  0
  160.8940  213.6600  145.7890 C   0  0  0  0  0  3  0  0  0  0  0  0
  160.0110  209.0130  143.4560 O   0  0  0  0  0  0  0  0  0  0  0  0
  160.5080  209.6420  147.0880 C   0  0  0  0  0  1  0  0  0  0  0  0
  162.3880  212.0590  146.9300 C   0  0  0  0  0  0  0  0  0  0  0  0
  161.2210  213.9420  143.2760 C   0  0  1  0  0  3  0  0  0  0  0  0
  161.7020  205.4870  142.7150 O   0  0  0  0  0  0  0  0  0  0  0  0
  161.9950  206.8720  147.6700 C   0  0  0  0  0  3  0  0  0  0  0  0
  161.8730  207.7680  151.3050 C   0  0  0  0  0  0  0  0  0  0  0  0
  160.8240  211.5810  142.5260 N   0  0  0  0  0  2  0  0  0  0  0  0
  161.7630  204.3410  148.8610 C   0  0  0  0  0  0  0  0  0  0  0  0
  159.7840  214.4380  143.2760 C   0  0  0  0  0  1  0  0  0  0  0  0
  161.2460  213.2860  140.7740 C   0  0  0  0  0  0  0  0  0  0  0  0
  161.2140  211.6260  139.0770 O   0  0  0  0  0  1  0  0  0  0  0  0
  161.9120  212.6150  139.7010 N   0  0  0  0  0  0  0  0  0  0  0  0
  160.5890  214.3290  140.5430 O   0  0  0  0  0  0  0  0  0  0  0  0
  163.9800  213.8870  140.1790 C   0  0  0  0  0  1  0  0  0  0  0  0
  163.0390  213.9740  137.9350 C   0  0  0  0  0  1  0  0  0  0  0  0
  163.2180  213.0650  139.1470 C   0  0  0  0  0  0  0  0  0  0  0  0
  163.5830  210.8740  138.2160 O   0  0  0  0  0  0  0  0  0  0  0  0
  164.0960  211.8970  138.7330 C   0  0  0  0  0  0  0  0  0  0  0  0
  165.4790  211.9450  138.9590 O   0  0  0  0  0  0  0  0  0  0  0  0
  166.2860  213.0400  138.5620 C   0  0  0  0  0  1  0  0  0  0  0  0
  159.7300  214.4530  148.3280 C   0  0  0  0  0  2  0  0  0  0  0  0
  160.8200  213.9980  149.3100 C   0  0  2  0  0  3  0  0  0  0  0  0
  160.3810  213.0770  148.1810 C   0  0  2  0  0  3  0  0  0  0  0  0
  160.1950  213.5140  150.6090 C   0  0  0  0  0  0  0  0  0  0  0  0
  159.9110  212.2900  150.7520 O   0  0  0  0  0  0  0  0  0  0  0  0
  159.9460  214.4520  151.6860 N   0  0  0  0  0  2  0  0  0  0  0  0
  159.7120  214.0460  153.0680 C   0  0  0  0  0  2  0  0  0  0  0  0
  160.3800  212.6900  153.3510 C   0  0  0  0  0  2  0  0  0  0  0  0
  159.9850  212.1170  154.7070 C   0  0  0  0  0  1  0  0  0  0  0  0
  160.6250  206.3690  154.0340 C   0  0  0  0  0  1  0  0  0  0  0  0
  161.8290  206.3710  153.2870 O   0  0  0  0  0  0  0  0  0  0  0  0
  160.8840  207.3500  140.8450 C   0  0  0  0  0  2  0  0  0  0  0  0
  161.8750  207.1780  139.7390 C   0  0  0  0  0  0  0  0  0  0  0  0
  161.8680  207.9640  138.7600 O   0  0  0  0  0  0  0  0  0  0  0  0
  162.8050  206.1040  139.7780 N   0  0  0  0  0  1  0  0  0  0  0  0
  161.6110  203.2470  146.7350 O   0  0  0  0  0  0  0  0  0  0  0  0
  160.5120  201.8070  145.5510 C   0  0  0  0  0  1  0  0  0  0  0  0
  160.8600  203.1660  145.6240 O   0  0  0  0  0  0  0  0  0  0  0  0
  1 61  1  6  0  0  0
  1  5  1  0  0  0  0
  1 21  1  0  0  0  0
  4  8  1  0  0  0  0
  5 29  2  0  0  0  0
  6  7  1  0  0  0  0
  7 23  1  0  0  0  0
  7 14  1  0  0  0  0
  8 13  2  0  0  0  0
  8 34  1  0  0  0  0
  9 12  1  0  0  0  0
 10 18  1  0  0  0  0
 11  9  1  0  0  0  0
 11 28  1  0  0  0  0
 12 31  2  0  0  0  0
 13 37  1  0  0  0  0
 15 60  1  0  0  0  0
 16 10  1  0  0  0  0
 16 22  1  0  0  0  0
 17  2  1  0  0  0  0
 17 22  1  0  0  0  0
 18 15  2  0  0  0  0
 19 31  1  0  0  0  0
 20 36  1  0  0  0  0
 20  5  1  0  0  0  0
 21 27  1  0  0  0  0
 22 35  2  0  0  0  0
 23 30  1  6  0  0  0
 23 17  1  0  0  0  0
 23  2  1  0  0  0  0
 24 39  1  6  0  0  0
 24 36  1  0  0  0  0
 24 32  1  0  0  0  0
 26 20  2  0  0  0  0
 27  4  2  0  0  0  0
 28 19  2  0  0  0  0
 31  7  1  0  0  0  0
 32 38  1  1  0  0  0
 32 11  1  0  0  0  0
 33 21  2  0  0  0  0
 34 16  2  0  0  0  0
 35 15  1  0  0  0  0
 35  3  1  0  0  0  0
 37 25  1  0  0  0  0
 37 10  2  0  0  0  0
 40 41  1  0  0  0  0
 41 39  1  0  0  0  0
 42 39  2  0  0  0  0
 44 45  1  0  0  0  0
 45 41  1  0  0  0  0
 45 43  1  0  0  0  0
 46 47  2  0  0  0  0
 47 48  1  0  0  0  0
 47 45  1  0  0  0  0
 49 48  1  0  0  0  0
 50 51  1  0  0  0  0
 51 53  1  1  0  0  0
 52 19  1  6  0  0  0
 52 50  1  0  0  0  0
 52 51  1  0  0  0  0
 53 54  2  0  0  0  0
 53 55  1  0  0  0  0
 55 56  1  0  0  0  0
 56 57  1  0  0  0  0
 57 58  1  0  0  0  0
 60 59  1  0  0  0  0
 62 64  1  0  0  0  0
 62 61  1  0  0  0  0
 63 62  2  0  0  0  0
 65 13  1  0  0  0  0
 66 67  1  0  0  0  0
 67 65  1  0  0  0  0
M  END
>  <MODEL>
3

>  <REMARK>
 VINA RESULT:      18.1      1.311      1.871
  Name = 
  13 active torsions:
  status: ('A' for Active; 'I' for Inactive)
    1  A    between atoms: C_1  and  C_32
    2  A    between atoms: C_4  and  C_46
    3  A    between atoms: C_6  and  C_53
    4  A    between atoms: O_15  and  C_57
    5  A    between atoms: C_16  and  C_37
    6  A    between atoms: C_19  and  C_32
    7  A    between atoms: C_20  and  O_34
    8  A    between atoms: C_22  and  O_26
    9  A    between atoms: C_28  and  C_58
   10  A    between atoms: O_34  and  O_47
   11  A    between atoms: C_46  and  N_66
   12  A    between atoms: N_54  and  C_64
   13  A    between atoms: C_57  and  C_64
                            x       y       z     vdW  Elec       q    Type
                         _______ _______ _______ _____ _____    ______ ____

>  <TORSDO>
F 13

$$$$
