=
 OpenBabel11072413573D

 29 33  0  0  1  0  0  0  0  0999 V2000
  161.2670  211.8430  156.5360 N   0  0  0  0  0  0  0  0  0  0  0  0
  160.0900  212.3460  155.9170 C   0  0  0  0  0  0  0  0  0  0  0  0
  158.0420  213.5790  155.6550 C   0  0  0  0  0  3  0  0  0  0  0  0
  158.3860  211.6710  154.1190 C   0  0  2  0  0  3  0  0  0  0  0  0
  157.6590  212.8460  154.6400 N   0  0  0  0  0  0  0  0  0  0  0  0
  160.6400  210.5880  154.7080 C   0  0  0  0  0  0  0  0  0  0  0  0
  159.7320  211.5490  154.7720 C   0  0  0  0  0  0  0  0  0  0  0  0
  159.3030  213.3070  156.3820 C   0  0  0  0  0  3  0  0  0  0  0  0
  161.5750  210.8060  155.8180 C   0  0  0  0  0  0  0  0  0  0  0  0
  162.6930  209.9750  156.1090 N   0  0  0  0  0  1  0  0  0  0  0  0
  162.5050  208.2020  148.8240 N   0  0  0  0  0  1  0  0  0  0  0  0
  161.9990  209.9270  150.4900 C   0  0  0  0  0  3  0  0  0  0  0  0
  160.5840  207.1700  153.3880 C   0  0  2  0  0  3  0  0  0  0  0  0
  161.0490  209.2910  152.5960 C   0  0  0  0  0  0  0  0  0  0  0  0
  160.5490  209.4060  153.9090 N   0  0  0  0  0  0  0  0  0  0  0  0
  160.3050  208.1370  154.4730 N   0  0  0  0  0  2  0  0  0  0  0  0
  161.5140  210.3020  151.7540 C   0  0  0  0  0  3  0  0  0  0  0  0
  161.5590  207.5790  150.9940 C   0  0  0  0  0  3  0  0  0  0  0  0
  162.0150  208.5700  150.1080 C   0  0  0  0  0  0  0  0  0  0  0  0
  161.6500  206.1930  153.8470 C   0  0  0  0  0  1  0  0  0  0  0  0
  161.0840  207.9840  152.2420 C   0  0  0  0  0  0  0  0  0  0  0  0
  158.5250  211.7840  152.6100 C   0  0  0  0  0  2  0  0  0  0  0  0
  157.6400  213.4120  151.1700 C   0  0  0  0  0  2  0  0  0  0  0  0
  159.7660  214.2570  150.3760 C   0  0  0  0  0  2  0  0  0  0  0  0
  158.6280  213.1800  152.2160 N   0  0  0  0  0  0  0  0  0  0  0  0
  158.2690  214.3790  150.1870 C   0  0  1  0  0  3  0  0  0  0  0  0
  159.9300  213.3450  151.5790 C   0  0  0  0  0  2  0  0  0  0  0  0
  157.8370  214.2060  148.8510 O   0  0  0  0  0  0  0  0  0  0  0  0
  157.0960  213.0160  148.7430 C   0  0  0  0  0  1  0  0  0  0  0  0
  2  8  2  0  0  0  0
  2  1  1  0  0  0  0
  3  8  1  0  0  0  0
  4 22  1  6  0  0  0
  4  5  1  0  0  0  0
  4  7  1  0  0  0  0
  5  3  2  0  0  0  0
  6  7  2  0  0  0  0
  6  9  1  0  0  0  0
  7  2  1  0  0  0  0
  9 10  1  0  0  0  0
  9  1  2  0  0  0  0
 11 19  1  0  0  0  0
 12 17  1  0  0  0  0
 13 20  1  1  0  0  0
 13 16  1  0  0  0  0
 14 15  1  0  0  0  0
 15 16  1  0  0  0  0
 15  6  1  0  0  0  0
 17 14  2  0  0  0  0
 18 21  2  0  0  0  0
 19 12  2  0  0  0  0
 19 18  1  0  0  0  0
 21 14  1  0  0  0  0
 21 13  1  0  0  0  0
 23 25  1  0  0  0  0
 24 27  1  0  0  0  0
 25 22  1  0  0  0  0
 26 28  1  6  0  0  0
 26 24  1  0  0  0  0
 26 23  1  0  0  0  0
 27 25  1  0  0  0  0
 29 28  1  0  0  0  0
M  END
>  <MODEL>
1

>  <REMARK>
 VINA RESULT:      -5.9      0.000      0.000
  Name = 
  4 active torsions:
  status: ('A' for Active; 'I' for Inactive)
    1  A    between atoms: O_8  and  C_27
    2  A    between atoms: C_10  and  C_17
    3  A    between atoms: N_11  and  C_18
    4  A    between atoms: C_17  and  N_25
                            x       y       z     vdW  Elec       q    Type
                         _______ _______ _______ _____ _____    ______ ____

>  <TORSDO>
F 4

$$$$
=
 OpenBabel11072413573D

 29 33  0  0  1  0  0  0  0  0999 V2000
  161.2150  211.5360  156.5910 N   0  0  0  0  0  0  0  0  0  0  0  0
  159.9660  211.6130  155.9150 C   0  0  0  0  0  0  0  0  0  0  0  0
  157.5920  211.8450  155.6030 C   0  0  0  0  0  3  0  0  0  0  0  0
  158.8440  210.7450  153.7750 C   0  0  2  0  0  3  0  0  0  0  0  0
  157.6350  211.3050  154.4110 N   0  0  0  0  0  0  0  0  0  0  0  0
  161.3160  210.6490  154.4660 C   0  0  0  0  0  0  0  0  0  0  0  0
  160.0650  211.0620  154.5890 C   0  0  0  0  0  0  0  0  0  0  0  0
  158.8040  211.9760  156.4430 C   0  0  0  0  0  3  0  0  0  0  0  0
  161.9970  210.9620  155.7290 C   0  0  0  0  0  0  0  0  0  0  0  0
  163.3600  210.6610  156.0090 N   0  0  0  0  0  1  0  0  0  0  0  0
  161.0530  204.3620  152.4160 N   0  0  0  0  0  1  0  0  0  0  0  0
  160.8540  206.2160  154.0070 C   0  0  0  0  0  3  0  0  0  0  0  0
  162.4040  209.1120  151.3220 C   0  0  2  0  0  3  0  0  0  0  0  0
  161.5770  208.4080  153.3620 C   0  0  0  0  0  0  0  0  0  0  0  0
  161.8160  209.7950  153.4340 N   0  0  0  0  0  0  0  0  0  0  0  0
  162.2640  210.2980  152.1960 N   0  0  0  0  0  2  0  0  0  0  0  0
  161.0240  207.5720  154.3330 C   0  0  0  0  0  3  0  0  0  0  0  0
  161.7590  206.6170  151.7750 C   0  0  0  0  0  3  0  0  0  0  0  0
  161.2260  205.7380  152.7340 C   0  0  0  0  0  0  0  0  0  0  0  0
  161.5450  209.2940  150.0850 C   0  0  0  0  0  1  0  0  0  0  0  0
  161.9140  207.9580  152.1290 C   0  0  0  0  0  0  0  0  0  0  0  0
  158.9780  211.2900  152.3630 C   0  0  0  0  0  2  0  0  0  0  0  0
  157.7460  213.0490  151.4180 C   0  0  0  0  0  2  0  0  0  0  0  0
  159.6440  214.4530  150.8810 C   0  0  0  0  0  2  0  0  0  0  0  0
  158.8110  212.7340  152.3610 N   0  0  0  0  0  0  0  0  0  0  0  0
  158.1420  214.3410  150.7330 C   0  0  1  0  0  3  0  0  0  0  0  0
  160.0290  213.3010  151.7920 C   0  0  0  0  0  2  0  0  0  0  0  0
  157.6800  214.4530  149.4000 O   0  0  0  0  0  0  0  0  0  0  0  0
  156.8700  213.3490  149.0860 C   0  0  0  0  0  1  0  0  0  0  0  0
  2  8  2  0  0  0  0
  2  1  1  0  0  0  0
  3  8  1  0  0  0  0
  4 22  1  6  0  0  0
  4  5  1  0  0  0  0
  4  7  1  0  0  0  0
  5  3  2  0  0  0  0
  6  7  2  0  0  0  0
  6  9  1  0  0  0  0
  7  2  1  0  0  0  0
  9 10  1  0  0  0  0
  9  1  2  0  0  0  0
 11 19  1  0  0  0  0
 12 17  1  0  0  0  0
 13 20  1  6  0  0  0
 13 21  1  0  0  0  0
 13 16  1  0  0  0  0
 14 15  1  0  0  0  0
 14 17  2  0  0  0  0
 15  6  1  0  0  0  0
 16 15  1  0  0  0  0
 18 21  2  0  0  0  0
 18 19  1  0  0  0  0
 19 12  2  0  0  0  0
 21 14  1  0  0  0  0
 23 25  1  0  0  0  0
 24 27  1  0  0  0  0
 25 22  1  0  0  0  0
 26 28  1  6  0  0  0
 26 24  1  0  0  0  0
 26 23  1  0  0  0  0
 27 25  1  0  0  0  0
 29 28  1  0  0  0  0
M  END
>  <MODEL>
2

>  <REMARK>
 VINA RESULT:      -5.6      1.325      2.317
  Name = 
  4 active torsions:
  status: ('A' for Active; 'I' for Inactive)
    1  A    between atoms: O_8  and  C_27
    2  A    between atoms: C_10  and  C_17
    3  A    between atoms: N_11  and  C_18
    4  A    between atoms: C_17  and  N_25
                            x       y       z     vdW  Elec       q    Type
                         _______ _______ _______ _____ _____    ______ ____

>  <TORSDO>
F 4

$$$$
=
 OpenBabel11072413573D

 29 33  0  0  1  0  0  0  0  0999 V2000
  160.9120  206.1880  153.7570 N   0  0  0  0  0  0  0  0  0  0  0  0
  161.3590  206.6820  152.5000 C   0  0  0  0  0  0  0  0  0  0  0  0
  162.4030  206.6930  150.3340 C   0  0  0  0  0  3  0  0  0  0  0  0
  162.0830  208.8940  151.4160 C   0  0  0  0  0  0  0  0  0  0  0  0
  162.4820  208.0000  150.3110 N   0  0  0  0  0  0  0  0  0  0  0  0
  160.9800  208.4910  153.7000 C   0  0  0  0  0  0  0  0  0  0  0  0
  161.3780  208.1220  152.4930 C   0  0  0  0  0  0  0  0  0  0  0  0
  161.8580  205.9650  151.5020 C   0  0  0  0  0  3  0  0  0  0  0  0
  160.6990  207.2620  154.4530 C   0  0  2  0  0  3  0  0  0  0  0  0
  160.2590  207.2270  155.8060 N   0  0  0  0  0  1  0  0  0  0  0  0
  157.4530  214.0140  154.6240 N   0  0  0  0  0  1  0  0  0  0  0  0
  158.0290  211.8620  153.6030 C   0  0  0  0  0  3  0  0  0  0  0  0
  161.6670  211.4520  155.7470 C   0  0  2  0  0  3  0  0  0  0  0  0
  160.0840  210.7830  154.2010 C   0  0  0  0  0  0  0  0  0  0  0  0
  161.0970  209.8040  154.2530 N   0  0  0  0  0  0  0  0  0  0  0  0
  162.0640  210.1240  155.2270 N   0  0  0  0  0  2  0  0  0  0  0  0
  158.9040  210.7720  153.4560 C   0  0  0  0  0  3  0  0  0  0  0  0
  159.5330  212.8780  155.2360 C   0  0  0  0  0  3  0  0  0  0  0  0
  158.3450  212.9150  154.4860 C   0  0  0  0  0  0  0  0  0  0  0  0
  161.4650  211.3640  157.2480 C   0  0  0  0  0  1  0  0  0  0  0  0
  160.3810  211.7820  155.0680 C   0  0  0  0  0  0  0  0  0  0  0  0
  161.1970  210.0060  150.8780 C   0  0  0  0  0  2  0  0  0  0  0  0
  161.2660  212.2430  150.1740 C   0  0  0  0  0  2  0  0  0  0  0  0
  161.8880  211.7870  147.8790 C   0  0  0  0  0  2  0  0  0  0  0  0
  161.9960  210.9820  150.1550 N   0  0  0  0  0  0  0  0  0  0  0  0
  161.5010  212.9000  148.8290 C   0  0  1  0  0  3  0  0  0  0  0  0
  162.0220  210.5580  148.7590 C   0  0  0  0  0  2  0  0  0  0  0  0
  160.4210  213.6970  148.3800 O   0  0  0  0  0  0  0  0  0  0  0  0
  159.6990  213.0040  147.3930 C   0  0  0  0  0  1  0  0  0  0  0  0
  1  9  1  0  0  0  0
  2  1  2  0  0  0  0
  3  8  2  0  0  0  0
  4  7  1  0  0  0  0
  5  3  1  0  0  0  0
  5  4  2  0  0  0  0
  6 15  1  0  0  0  0
  6  9  1  0  0  0  0
  7  2  1  0  0  0  0
  7  6  2  0  0  0  0
  8  2  1  0  0  0  0
  9 10  1  1  0  0  0
 12 19  1  0  0  0  0
 13 20  1  1  0  0  0
 14 15  1  0  0  0  0
 14 21  2  0  0  0  0
 15 16  1  0  0  0  0
 16 13  1  0  0  0  0
 17 12  2  0  0  0  0
 17 14  1  0  0  0  0
 19 11  1  0  0  0  0
 19 18  2  0  0  0  0
 21 18  1  0  0  0  0
 21 13  1  0  0  0  0
 22  4  1  0  0  0  0
 24 27  1  0  0  0  0
 24 26  1  0  0  0  0
 25 23  1  0  0  0  0
 25 22  1  0  0  0  0
 26 28  1  6  0  0  0
 26 23  1  0  0  0  0
 27 25  1  0  0  0  0
 29 28  1  0  0  0  0
M  END
>  <MODEL>
3

>  <REMARK>
 VINA RESULT:      -5.2      1.730      5.454
  Name = 
  4 active torsions:
  status: ('A' for Active; 'I' for Inactive)
    1  A    between atoms: O_8  and  C_27
    2  A    between atoms: C_10  and  C_17
    3  A    between atoms: N_11  and  C_18
    4  A    between atoms: C_17  and  N_25
                            x       y       z     vdW  Elec       q    Type
                         _______ _______ _______ _____ _____    ______ ____

>  <TORSDO>
F 4

$$$$
=
 OpenBabel11072413573D

 29 33  0  0  1  0  0  0  0  0999 V2000
  161.0000  206.4150  152.1870 N   0  0  0  0  0  0  0  0  0  0  0  0
  161.3810  207.1930  151.0580 C   0  0  0  0  0  0  0  0  0  0  0  0
  162.3070  207.7170  148.9020 C   0  0  0  0  0  3  0  0  0  0  0  0
  162.0540  209.6030  150.4830 C   0  0  0  0  0  0  0  0  0  0  0  0
  162.3890  208.9940  149.1800 N   0  0  0  0  0  0  0  0  0  0  0  0
  161.0740  208.6690  152.6660 C   0  0  0  0  0  0  0  0  0  0  0  0
  161.4050  208.5950  151.3870 C   0  0  0  0  0  0  0  0  0  0  0  0
  161.8220  206.7330  149.8960 C   0  0  0  0  0  3  0  0  0  0  0  0
  160.8290  207.2960  153.1250 C   0  0  2  0  0  3  0  0  0  0  0  0
  160.4620  206.9410  154.4540 N   0  0  0  0  0  1  0  0  0  0  0  0
  157.6120  213.7670  155.0760 N   0  0  0  0  0  1  0  0  0  0  0  0
  158.1210  211.9220  153.5450 C   0  0  0  0  0  3  0  0  0  0  0  0
  161.8890  211.0780  155.3030 C   0  0  2  0  0  3  0  0  0  0  0  0
  160.2110  210.7650  153.7450 C   0  0  0  0  0  0  0  0  0  0  0  0
  161.2250  209.8170  153.5030 N   0  0  0  0  0  0  0  0  0  0  0  0
  162.2520  209.9150  154.4630 N   0  0  0  0  0  2  0  0  0  0  0  0
  158.9860  210.9110  153.0930 C   0  0  0  0  0  3  0  0  0  0  0  0
  159.7270  212.5510  155.2740 C   0  0  0  0  0  3  0  0  0  0  0  0
  158.4930  212.7440  154.6290 C   0  0  0  0  0  0  0  0  0  0  0  0
  161.7830  210.6390  156.7510 C   0  0  0  0  0  1  0  0  0  0  0  0
  160.5620  211.5380  154.8020 C   0  0  0  0  0  0  0  0  0  0  0  0
  161.1440  210.8010  150.2680 C   0  0  0  0  0  2  0  0  0  0  0  0
  161.0590  213.0300  149.5390 C   0  0  0  0  0  2  0  0  0  0  0  0
  161.2770  212.5520  147.1750 C   0  0  0  0  0  2  0  0  0  0  0  0
  161.7910  211.7770  149.4060 N   0  0  0  0  0  0  0  0  0  0  0  0
  161.0470  213.6720  148.1670 C   0  0  1  0  0  3  0  0  0  0  0  0
  161.5790  211.3350  148.0320 C   0  0  0  0  0  2  0  0  0  0  0  0
  159.8950  214.4520  147.9050 O   0  0  0  0  0  0  0  0  0  0  0  0
  158.7490  213.7610  148.3340 C   0  0  0  0  0  1  0  0  0  0  0  0
  1  9  1  0  0  0  0
  2  7  1  0  0  0  0
  2  1  2  0  0  0  0
  3  5  1  0  0  0  0
  3  8  2  0  0  0  0
  4  7  1  0  0  0  0
  5  4  2  0  0  0  0
  6  9  1  0  0  0  0
  6 15  1  0  0  0  0
  7  6  2  0  0  0  0
  8  2  1  0  0  0  0
  9 10  1  1  0  0  0
 12 19  1  0  0  0  0
 13 20  1  1  0  0  0
 14 21  2  0  0  0  0
 15 14  1  0  0  0  0
 15 16  1  0  0  0  0
 16 13  1  0  0  0  0
 17 12  2  0  0  0  0
 17 14  1  0  0  0  0
 19 11  1  0  0  0  0
 19 18  2  0  0  0  0
 21 18  1  0  0  0  0
 21 13  1  0  0  0  0
 22  4  1  0  0  0  0
 24 27  1  0  0  0  0
 24 26  1  0  0  0  0
 25 23  1  0  0  0  0
 25 22  1  0  0  0  0
 26 28  1  6  0  0  0
 26 23  1  0  0  0  0
 27 25  1  0  0  0  0
 28 29  1  0  0  0  0
M  END
>  <MODEL>
4

>  <REMARK>
 VINA RESULT:      -4.9      1.732      5.469
  Name = 
  4 active torsions:
  status: ('A' for Active; 'I' for Inactive)
    1  A    between atoms: O_8  and  C_27
    2  A    between atoms: C_10  and  C_17
    3  A    between atoms: N_11  and  C_18
    4  A    between atoms: C_17  and  N_25
                            x       y       z     vdW  Elec       q    Type
                         _______ _______ _______ _____ _____    ______ ____

>  <TORSDO>
F 4

$$$$
=
 OpenBabel11072413573D

 29 33  0  0  1  0  0  0  0  0999 V2000
  160.5960  211.5570  155.7320 N   0  0  0  0  0  0  0  0  0  0  0  0
  159.8470  212.0960  154.6500 C   0  0  0  0  0  0  0  0  0  0  0  0
  158.0550  213.2060  153.4920 C   0  0  0  0  0  3  0  0  0  0  0  0
  159.4780  211.7000  152.1400 C   0  0  0  0  0  0  0  0  0  0  0  0
  158.3920  212.6810  152.3400 N   0  0  0  0  0  0  0  0  0  0  0  0
  161.2450  210.6810  153.7010 C   0  0  0  0  0  0  0  0  0  0  0  0
  160.2840  211.5380  153.3960 C   0  0  0  0  0  0  0  0  0  0  0  0
  158.7770  212.8750  154.7410 C   0  0  0  0  0  3  0  0  0  0  0  0
  161.4100  210.7240  155.1600 C   0  0  2  0  0  3  0  0  0  0  0  0
  162.3390  209.9320  155.8910 N   0  0  0  0  0  1  0  0  0  0  0  0
  160.9820  204.1860  152.4670 N   0  0  0  0  0  1  0  0  0  0  0  0
  160.7190  206.2330  153.7880 C   0  0  0  0  0  3  0  0  0  0  0  0
  162.5030  208.7350  150.8630 C   0  0  2  0  0  3  0  0  0  0  0  0
  161.5290  208.3130  152.9160 C   0  0  0  0  0  0  0  0  0  0  0  0
  161.7930  209.6950  152.8250 N   0  0  0  0  0  0  0  0  0  0  0  0
  162.3320  210.0270  151.5650 N   0  0  0  0  0  2  0  0  0  0  0  0
  160.8960  207.6180  153.9470 C   0  0  0  0  0  3  0  0  0  0  0  0
  161.7760  206.3280  151.5890 C   0  0  0  0  0  3  0  0  0  0  0  0
  161.1630  205.5880  152.6150 C   0  0  0  0  0  0  0  0  0  0  0  0
  161.7310  208.7650  149.5580 C   0  0  0  0  0  1  0  0  0  0  0  0
  161.9370  207.7020  151.7770 C   0  0  0  0  0  0  0  0  0  0  0  0
  160.3600  212.1440  150.9840 C   0  0  0  0  0  2  0  0  0  0  0  0
  158.7630  213.0020  149.4940 C   0  0  0  0  0  2  0  0  0  0  0  0
  160.2760  214.4530  148.2810 C   0  0  0  0  0  2  0  0  0  0  0  0
  159.8450  213.3700  150.3990 N   0  0  0  0  0  0  0  0  0  0  0  0
  158.8510  213.9420  148.3080 C   0  0  1  0  0  3  0  0  0  0  0  0
  160.9030  213.9140  149.5540 C   0  0  0  0  0  2  0  0  0  0  0  0
  158.4160  213.3720  147.0880 O   0  0  0  0  0  0  0  0  0  0  0  0
  157.2730  212.5860  147.3140 C   0  0  0  0  0  1  0  0  0  0  0  0
  2  8  1  0  0  0  0
  2  1  2  0  0  0  0
  3  8  2  0  0  0  0
  4  5  2  0  0  0  0
  4  7  1  0  0  0  0
  5  3  1  0  0  0  0
  6  9  1  0  0  0  0
  7  6  2  0  0  0  0
  7  2  1  0  0  0  0
  9  1  1  0  0  0  0
  9 10  1  1  0  0  0
 11 19  1  0  0  0  0
 12 17  1  0  0  0  0
 13 20  1  6  0  0  0
 13 16  1  0  0  0  0
 13 21  1  0  0  0  0
 14 17  2  0  0  0  0
 15 14  1  0  0  0  0
 15  6  1  0  0  0  0
 16 15  1  0  0  0  0
 18 21  2  0  0  0  0
 18 19  1  0  0  0  0
 19 12  2  0  0  0  0
 21 14  1  0  0  0  0
 22  4  1  0  0  0  0
 23 25  1  0  0  0  0
 24 26  1  0  0  0  0
 24 27  1  0  0  0  0
 25 22  1  0  0  0  0
 26 28  1  6  0  0  0
 26 23  1  0  0  0  0
 27 25  1  0  0  0  0
 28 29  1  0  0  0  0
M  END
>  <MODEL>
5

>  <REMARK>
 VINA RESULT:      -4.8      1.649      2.683
  Name = 
  4 active torsions:
  status: ('A' for Active; 'I' for Inactive)
    1  A    between atoms: O_8  and  C_27
    2  A    between atoms: C_10  and  C_17
    3  A    between atoms: N_11  and  C_18
    4  A    between atoms: C_17  and  N_25
                            x       y       z     vdW  Elec       q    Type
                         _______ _______ _______ _____ _____    ______ ____

>  <TORSDO>
F 4

$$$$
=
 OpenBabel11072413573D

 29 33  0  0  1  0  0  0  0  0999 V2000
  160.0370  209.1480  155.8130 N   0  0  0  0  0  0  0  0  0  0  0  0
  159.5780  210.1720  154.9400 C   0  0  0  0  0  0  0  0  0  0  0  0
  158.1760  211.9220  154.0730 C   0  0  0  0  0  3  0  0  0  0  0  0
  159.6850  210.8140  152.4560 C   0  0  0  0  0  0  0  0  0  0  0  0
  158.6840  211.8180  152.8710 N   0  0  0  0  0  0  0  0  0  0  0  0
  160.9910  209.0000  153.7210 C   0  0  0  0  0  0  0  0  0  0  0  0
  160.2010  210.0590  153.6460 C   0  0  0  0  0  0  0  0  0  0  0  0
  158.5950  211.0300  155.1770 C   0  0  0  0  0  3  0  0  0  0  0  0
  160.8620  208.4640  155.0810 C   0  0  2  0  0  3  0  0  0  0  0  0
  161.5420  207.3100  155.5630 N   0  0  0  0  0  1  0  0  0  0  0  0
  161.1640  203.1080  150.7140 N   0  0  0  0  0  1  0  0  0  0  0  0
  160.7650  204.6810  152.5510 C   0  0  0  0  0  3  0  0  0  0  0  0
  162.3760  208.0120  150.4750 C   0  0  2  0  0  3  0  0  0  0  0  0
  161.4330  206.9700  152.3100 C   0  0  0  0  0  0  0  0  0  0  0  0
  161.6040  208.3360  152.6130 N   0  0  0  0  0  0  0  0  0  0  0  0
  162.1180  209.0410  151.5070 N   0  0  0  0  0  2  0  0  0  0  0  0
  160.8490  205.9740  153.0940 C   0  0  0  0  0  3  0  0  0  0  0  0
  161.8120  205.4570  150.4860 C   0  0  0  0  0  3  0  0  0  0  0  0
  161.2510  204.4210  151.2530 C   0  0  0  0  0  0  0  0  0  0  0  0
  161.6030  208.3570  149.2160 C   0  0  0  0  0  1  0  0  0  0  0  0
  161.8800  206.7300  151.0530 C   0  0  0  0  0  0  0  0  0  0  0  0
  160.8210  211.5020  151.7160 C   0  0  0  0  0  2  0  0  0  0  0  0
  161.3210  212.0560  149.4920 C   0  0  0  0  0  2  0  0  0  0  0  0
  160.7250  214.3970  149.6540 C   0  0  0  0  0  2  0  0  0  0  0  0
  160.3150  212.1850  150.5380 N   0  0  0  0  0  0  0  0  0  0  0  0
  161.3170  213.3610  148.7230 C   0  0  1  0  0  3  0  0  0  0  0  0
  160.2580  213.6060  150.8630 C   0  0  0  0  0  2  0  0  0  0  0  0
  162.5770  213.7170  148.1840 O   0  0  0  0  0  0  0  0  0  0  0  0
  162.6290  213.3600  146.8260 C   0  0  0  0  0  1  0  0  0  0  0  0
  2  8  1  0  0  0  0
  2  1  2  0  0  0  0
  3  8  2  0  0  0  0
  4  5  2  0  0  0  0
  4  7  1  0  0  0  0
  5  3  1  0  0  0  0
  6  9  1  0  0  0  0
  7  6  2  0  0  0  0
  7  2  1  0  0  0  0
  9 10  1  6  0  0  0
  9  1  1  0  0  0  0
 11 19  1  0  0  0  0
 12 17  1  0  0  0  0
 13 20  1  6  0  0  0
 13 21  1  0  0  0  0
 13 16  1  0  0  0  0
 14 15  1  0  0  0  0
 14 17  2  0  0  0  0
 15  6  1  0  0  0  0
 16 15  1  0  0  0  0
 18 21  2  0  0  0  0
 18 19  1  0  0  0  0
 19 12  2  0  0  0  0
 21 14  1  0  0  0  0
 22  4  1  0  0  0  0
 23 25  1  0  0  0  0
 24 27  1  0  0  0  0
 25 27  1  0  0  0  0
 25 22  1  0  0  0  0
 26 28  1  1  0  0  0
 26 23  1  0  0  0  0
 26 24  1  0  0  0  0
 29 28  1  0  0  0  0
M  END
>  <MODEL>
6

>  <REMARK>
 VINA RESULT:      -4.3      2.324      3.414
  Name = 
  4 active torsions:
  status: ('A' for Active; 'I' for Inactive)
    1  A    between atoms: O_8  and  C_27
    2  A    between atoms: C_10  and  C_17
    3  A    between atoms: N_11  and  C_18
    4  A    between atoms: C_17  and  N_25
                            x       y       z     vdW  Elec       q    Type
                         _______ _______ _______ _____ _____    ______ ____

>  <TORSDO>
F 4

$$$$
=
 OpenBabel11072413573D

 29 33  0  0  1  0  0  0  0  0999 V2000
  161.1310  207.8000  147.1750 N   0  0  0  0  0  0  0  0  0  0  0  0
  161.5830  208.2820  148.4340 C   0  0  1  0  0  3  0  0  0  0  0  0
  162.7980  209.6180  150.0220 C   0  0  0  0  0  3  0  0  0  0  0  0
  161.9470  207.4420  150.8330 C   0  0  0  0  0  0  0  0  0  0  0  0
  162.6160  208.7490  150.9850 N   0  0  0  0  0  0  0  0  0  0  0  0
  160.7410  206.2940  148.8770 C   0  0  0  0  0  0  0  0  0  0  0  0
  161.3150  207.3250  149.4760 C   0  0  0  0  0  0  0  0  0  0  0  0
  162.3040  209.3740  148.6480 C   0  0  0  0  0  3  0  0  0  0  0  0
  160.6440  206.6290  147.4500 C   0  0  0  0  0  0  0  0  0  0  0  0
  160.0980  205.7700  146.4540 N   0  0  0  0  0  1  0  0  0  0  0  0
  161.5810  199.8770  147.4970 N   0  0  0  0  0  1  0  0  0  0  0  0
  161.3340  202.2660  147.0070 C   0  0  0  0  0  3  0  0  0  0  0  0
  160.5480  203.3400  151.0350 C   0  0  2  0  0  3  0  0  0  0  0  0
  160.8000  203.7860  148.7820 C   0  0  0  0  0  0  0  0  0  0  0  0
  160.5420  205.0000  149.4490 N   0  0  0  0  0  0  0  0  0  0  0  0
  160.4420  204.8030  150.8410 N   0  0  0  0  0  2  0  0  0  0  0  0
  161.0760  203.5810  147.4290 C   0  0  0  0  0  3  0  0  0  0  0  0
  161.0620  201.4550  149.2940 C   0  0  0  0  0  3  0  0  0  0  0  0
  161.3210  201.2050  147.9360 C   0  0  0  0  0  0  0  0  0  0  0  0
  161.7080  203.0400  151.9670 C   0  0  0  0  0  1  0  0  0  0  0  0
  160.8090  202.7720  149.6820 C   0  0  0  0  0  0  0  0  0  0  0  0
  160.9090  207.2690  151.9300 C   0  0  0  0  0  2  0  0  0  0  0  0
  160.9370  207.2100  154.2760 C   0  0  0  0  0  2  0  0  0  0  0  0
  160.0450  209.4360  154.6140 C   0  0  0  0  0  2  0  0  0  0  0  0
  161.3000  208.0140  153.1160 N   0  0  0  0  0  0  0  0  0  0  0  0
  160.4660  208.1770  155.3430 C   0  0  1  0  0  3  0  0  0  0  0  0
  160.4500  209.1990  153.1700 C   0  0  0  0  0  2  0  0  0  0  0  0
  159.4770  207.6470  156.2050 O   0  0  0  0  0  0  0  0  0  0  0  0
  160.0920  206.9520  157.2600 C   0  0  0  0  0  1  0  0  0  0  0  0
  1  9  2  0  0  0  0
  1  2  1  0  0  0  0
  2  8  1  6  0  0  0
  2  7  1  0  0  0  0
  3  5  1  0  0  0  0
  4  5  2  0  0  0  0
  4 22  1  0  0  0  0
  6 15  1  0  0  0  0
  6  7  2  0  0  0  0
  7  4  1  0  0  0  0
  8  3  2  0  0  0  0
  9  6  1  0  0  0  0
 10  9  1  0  0  0  0
 11 19  1  0  0  0  0
 12 17  2  0  0  0  0
 12 19  1  0  0  0  0
 13 20  1  1  0  0  0
 14 15  1  0  0  0  0
 14 21  2  0  0  0  0
 15 16  1  0  0  0  0
 16 13  1  0  0  0  0
 17 14  1  0  0  0  0
 18 21  1  0  0  0  0
 19 18  2  0  0  0  0
 21 13  1  0  0  0  0
 22 25  1  0  0  0  0
 23 26  1  0  0  0  0
 24 26  1  0  0  0  0
 25 27  1  0  0  0  0
 25 23  1  0  0  0  0
 26 28  1  6  0  0  0
 27 24  1  0  0  0  0
 28 29  1  0  0  0  0
M  END
>  <MODEL>
7

>  <REMARK>
 VINA RESULT:      -4.3      4.268      7.631
  Name = 
  4 active torsions:
  status: ('A' for Active; 'I' for Inactive)
    1  A    between atoms: O_8  and  C_27
    2  A    between atoms: C_10  and  C_17
    3  A    between atoms: N_11  and  C_18
    4  A    between atoms: C_17  and  N_25
                            x       y       z     vdW  Elec       q    Type
                         _______ _______ _______ _____ _____    ______ ____

>  <TORSDO>
F 4

$$$$
=
 OpenBabel11072413573D

 29 33  0  0  1  0  0  0  0  0999 V2000
  161.1990  205.1860  153.6320 N   0  0  0  0  0  0  0  0  0  0  0  0
  161.1350  204.7210  152.2890 C   0  0  0  0  0  0  0  0  0  0  0  0
  161.3560  203.2280  150.4170 C   0  0  0  0  0  3  0  0  0  0  0  0
  161.2410  205.6440  149.8960 C   0  0  0  0  0  0  0  0  0  0  0  0
  161.3080  204.2090  149.5510 N   0  0  0  0  0  0  0  0  0  0  0  0
  161.0410  206.9160  152.1180 C   0  0  0  0  0  0  0  0  0  0  0  0
  161.0260  205.8240  151.3710 C   0  0  0  0  0  0  0  0  0  0  0  0
  161.3170  203.4740  151.8760 C   0  0  0  0  0  3  0  0  0  0  0  0
  161.1480  206.4770  153.5150 C   0  0  2  0  0  3  0  0  0  0  0  0
  161.2110  207.3530  154.6350 N   0  0  0  0  0  1  0  0  0  0  0  0
  159.1740  213.1360  153.3910 N   0  0  0  0  0  1  0  0  0  0  0  0
  159.0310  210.6900  153.4570 C   0  0  0  0  0  3  0  0  0  0  0  0
  162.3280  210.1050  150.8530 C   0  0  2  0  0  3  0  0  0  0  0  0
  160.5690  209.3820  152.1650 C   0  0  0  0  0  0  0  0  0  0  0  0
  161.2280  208.2510  151.6430 N   0  0  0  0  0  0  0  0  0  0  0  0
  162.3530  208.6250  150.8820 N   0  0  0  0  0  2  0  0  0  0  0  0
  159.4930  209.4260  153.0540 C   0  0  0  0  0  3  0  0  0  0  0  0
  160.7490  211.7750  152.1030 C   0  0  0  0  0  3  0  0  0  0  0  0
  159.6530  211.8620  152.9790 C   0  0  0  0  0  0  0  0  0  0  0  0
  163.6320  210.6410  151.4150 C   0  0  0  0  0  1  0  0  0  0  0  0
  161.1840  210.5050  151.7210 C   0  0  0  0  0  0  0  0  0  0  0  0
  160.1300  206.3090  149.1000 C   0  0  0  0  0  2  0  0  0  0  0  0
  160.0810  206.0090  146.7740 C   0  0  0  0  0  2  0  0  0  0  0  0
  162.4770  206.1020  146.4370 C   0  0  0  0  0  2  0  0  0  0  0  0
  160.6470  206.8220  147.8430 N   0  0  0  0  0  0  0  0  0  0  0  0
  161.1640  205.8560  145.7250 C   0  0  1  0  0  3  0  0  0  0  0  0
  162.0810  206.5510  147.8320 C   0  0  0  0  0  2  0  0  0  0  0  0
  161.1090  204.6340  145.0130 O   0  0  0  0  0  0  0  0  0  0  0  0
  161.5810  203.5900  145.8280 C   0  0  0  0  0  1  0  0  0  0  0  0
  2  1  2  0  0  0  0
  3  8  2  0  0  0  0
  4  7  1  0  0  0  0
  5  4  2  0  0  0  0
  5  3  1  0  0  0  0
  6  9  1  0  0  0  0
  7  6  2  0  0  0  0
  7  2  1  0  0  0  0
  8  2  1  0  0  0  0
  9  1  1  0  0  0  0
  9 10  1  6  0  0  0
 13 16  1  0  0  0  0
 13 20  1  1  0  0  0
 13 21  1  0  0  0  0
 14 17  2  0  0  0  0
 15  6  1  0  0  0  0
 15 14  1  0  0  0  0
 16 15  1  0  0  0  0
 17 12  1  0  0  0  0
 18 19  1  0  0  0  0
 19 11  1  0  0  0  0
 19 12  2  0  0  0  0
 21 18  2  0  0  0  0
 21 14  1  0  0  0  0
 22  4  1  0  0  0  0
 23 25  1  0  0  0  0
 24 27  1  0  0  0  0
 25 22  1  0  0  0  0
 26 28  1  1  0  0  0
 26 24  1  0  0  0  0
 26 23  1  0  0  0  0
 27 25  1  0  0  0  0
 28 29  1  0  0  0  0
M  END
>  <MODEL>
8

>  <REMARK>
 VINA RESULT:      -4.1      3.488      7.316
  Name = 
  4 active torsions:
  status: ('A' for Active; 'I' for Inactive)
    1  A    between atoms: O_8  and  C_27
    2  A    between atoms: C_10  and  C_17
    3  A    between atoms: N_11  and  C_18
    4  A    between atoms: C_17  and  N_25
                            x       y       z     vdW  Elec       q    Type
                         _______ _______ _______ _____ _____    ______ ____

>  <TORSDO>
F 4

$$$$
=
 OpenBabel11072413573D

 29 33  0  0  1  0  0  0  0  0999 V2000
  161.1600  205.6330  154.2630 N   0  0  0  0  0  0  0  0  0  0  0  0
  160.6670  206.9100  154.6470 C   0  0  0  0  0  0  0  0  0  0  0  0
  159.3320  208.5510  155.7910 C   0  0  0  0  0  3  0  0  0  0  0  0
  160.3970  209.2720  153.6780 C   0  0  2  0  0  3  0  0  0  0  0  0
  159.6020  209.4770  154.9050 N   0  0  0  0  0  0  0  0  0  0  0  0
  161.7030  207.2710  152.7360 C   0  0  0  0  0  0  0  0  0  0  0  0
  161.0320  207.9120  153.6800 C   0  0  0  0  0  0  0  0  0  0  0  0
  159.8420  207.1680  155.6530 C   0  0  0  0  0  3  0  0  0  0  0  0
  161.7620  205.8600  153.1360 C   0  0  0  0  0  0  0  0  0  0  0  0
  162.3860  204.8300  152.3770 N   0  0  0  0  0  1  0  0  0  0  0  0
  160.4550  206.2580  146.3170 N   0  0  0  0  0  1  0  0  0  0  0  0
  160.5920  205.6850  148.6950 C   0  0  0  0  0  3  0  0  0  0  0  0
  162.4240  209.3470  149.8030 C   0  0  2  0  0  3  0  0  0  0  0  0
  161.5920  207.2330  150.2270 C   0  0  0  0  0  0  0  0  0  0  0  0
  162.0310  207.7900  151.4450 N   0  0  0  0  0  0  0  0  0  0  0  0
  162.4920  209.1100  151.2630 N   0  0  0  0  0  2  0  0  0  0  0  0
  160.9670  206.0040  150.0110 C   0  0  0  0  0  3  0  0  0  0  0  0
  161.4480  207.8310  147.9070 C   0  0  0  0  0  3  0  0  0  0  0  0
  160.8360  206.5930  147.6450 C   0  0  0  0  0  0  0  0  0  0  0  0
  161.5480  210.5550  149.5310 C   0  0  0  0  0  1  0  0  0  0  0  0
  161.8090  208.1180  149.2240 C   0  0  0  0  0  0  0  0  0  0  0  0
  161.4500  210.3620  153.5640 C   0  0  0  0  0  2  0  0  0  0  0  0
  160.2490  212.1940  154.4030 C   0  0  0  0  0  2  0  0  0  0  0  0
  158.5430  212.2120  152.6850 C   0  0  0  0  0  2  0  0  0  0  0  0
  160.8310  211.6250  153.1950 N   0  0  0  0  0  0  0  0  0  0  0  0
  158.9560  212.8660  153.9860 C   0  0  1  0  0  3  0  0  0  0  0  0
  159.7060  211.3070  152.3220 C   0  0  0  0  0  2  0  0  0  0  0  0
  157.9530  212.8560  154.9840 O   0  0  0  0  0  0  0  0  0  0  0  0
  156.9610  211.9180  154.6500 C   0  0  0  0  0  1  0  0  0  0  0  0
  1  2  1  0  0  0  0
  2  8  2  0  0  0  0
  4 22  1  1  0  0  0
  4  7  1  0  0  0  0
  4  5  1  0  0  0  0
  5  3  2  0  0  0  0
  6  9  1  0  0  0  0
  6  7  2  0  0  0  0
  7  2  1  0  0  0  0
  8  3  1  0  0  0  0
  9  1  2  0  0  0  0
 10  9  1  0  0  0  0
 11 19  1  0  0  0  0
 12 17  1  0  0  0  0
 13 20  1  1  0  0  0
 13 16  1  0  0  0  0
 14 15  1  0  0  0  0
 15  6  1  0  0  0  0
 16 15  1  0  0  0  0
 17 14  2  0  0  0  0
 18 21  2  0  0  0  0
 19 18  1  0  0  0  0
 19 12  2  0  0  0  0
 21 13  1  0  0  0  0
 21 14  1  0  0  0  0
 24 26  1  0  0  0  0
 25 22  1  0  0  0  0
 25 23  1  0  0  0  0
 26 23  1  0  0  0  0
 26 28  1  1  0  0  0
 27 24  1  0  0  0  0
 27 25  1  0  0  0  0
 29 28  1  0  0  0  0
M  END
>  <MODEL>
9

>  <REMARK>
 VINA RESULT:      -4.0      2.468      4.559
  Name = 
  4 active torsions:
  status: ('A' for Active; 'I' for Inactive)
    1  A    between atoms: O_8  and  C_27
    2  A    between atoms: C_10  and  C_17
    3  A    between atoms: N_11  and  C_18
    4  A    between atoms: C_17  and  N_25
                            x       y       z     vdW  Elec       q    Type
                         _______ _______ _______ _____ _____    ______ ____

>  <TORSDO>
F 4

$$$$
