=
 OpenBabel11072414533D

 47 50  0  0  1  0  0  0  0  0999 V2000
  161.1130  207.7430  155.3420 C   0  0  0  0  0  3  0  0  0  0  0  0
  161.3290  206.0200  153.7340 F   0  0  0  0  0  0  0  0  0  0  0  0
  160.7200  209.6070  153.3020 C   0  0  0  0  0  3  0  0  0  0  0  0
  161.1410  207.3310  154.0100 C   0  0  0  0  0  0  0  0  0  0  0  0
  160.8820  209.0800  155.6570 C   0  0  0  0  0  3  0  0  0  0  0  0
  160.9670  208.2660  152.9760 C   0  0  0  0  0  0  0  0  0  0  0  0
  160.6700  210.0190  154.6450 C   0  0  0  0  0  0  0  0  0  0  0  0
  162.3300  207.5610  151.0310 C   0  0  2  0  0  3  0  0  0  0  0  0
  160.9230  207.8210  151.5460 C   0  0  2  0  0  3  0  0  0  0  0  0
  161.5930  208.8200  150.6170 C   0  0  0  0  0  2  0  0  0  0  0  0
  161.9680  206.7890  148.6350 C   0  0  0  0  0  0  0  0  0  0  0  0
  161.7720  207.9700  148.2390 O   0  0  0  0  0  0  0  0  0  0  0  0
  162.2370  206.5340  150.0080 N   0  0  0  0  0  2  0  0  0  0  0  0
  161.9050  205.6300  147.6850 C   0  0  1  0  0  3  0  0  0  0  0  0
  161.5360  203.1290  147.7610 C   0  0  0  0  0  3  0  0  0  0  0  0
  160.0810  200.9520  150.3610 O   0  0  0  0  0  1  0  0  0  0  0  0
  160.5140  202.0910  149.6940 C   0  0  0  0  0  0  0  0  0  0  0  0
  161.0880  201.9840  148.4250 C   0  0  0  0  0  3  0  0  0  0  0  0
  160.8220  204.4890  149.6290 C   0  0  0  0  0  3  0  0  0  0  0  0
  160.3790  203.3440  150.2950 C   0  0  0  0  0  3  0  0  0  0  0  0
  161.4010  204.3890  148.3630 C   0  0  0  0  0  0  0  0  0  0  0  0
  161.1160  205.9590  146.4140 C   0  0  0  0  0  2  0  0  0  0  0  0
  162.9480  205.3050  145.1090 C   0  0  0  0  0  1  0  0  0  0  0  0
  161.5260  205.1070  145.3080 N   0  0  0  0  0  0  0  0  0  0  0  0
  160.8660  205.6280  144.1240 C   0  0  0  0  0  1  0  0  0  0  0  0
  160.4760  211.4550  155.0340 C   0  0  2  0  0  3  0  0  0  0  0  0
  162.2960  211.3230  156.6000 O   0  0  0  0  0  1  0  0  0  0  0  0
  160.9920  211.8040  156.4420 C   0  0  0  0  0  2  0  0  0  0  0  0
  159.0300  211.9070  154.7780 C   0  0  2  0  0  3  0  0  0  0  0  0
  158.5550  211.8420  152.0090 O   0  0  0  0  0  0  0  0  0  0  0  0
  158.9760  214.4420  154.5460 C   0  0  0  0  0  1  0  0  0  0  0  0
  158.7570  212.9790  152.5220 C   0  0  0  0  0  0  0  0  0  0  0  0
  158.9370  213.1100  153.9430 N   0  0  0  0  0  0  0  0  0  0  0  0
  158.8230  214.1610  151.6150 C   0  0  0  0  0  2  0  0  0  0  0  0
  159.8160  213.9300  150.5830 N   0  0  0  0  0  2  0  0  0  0  0  0
  159.1410  214.0490  149.3040 C   0  0  0  0  0  2  0  0  0  0  0  0
  160.1500  213.8480  148.1950 C   0  0  0  0  0  2  0  0  0  0  0  0
  162.5860  213.8540  147.7820 C   0  0  0  0  0  2  0  0  0  0  0  0
  161.5010  213.4820  148.7730 C   0  0  0  0  0  3  0  0  0  0  0  0
  162.1130  212.4220  147.8850 C   0  0  0  0  0  2  0  0  0  0  0  0
  158.1680  211.9860  156.0130 C   0  0  0  0  0  0  0  0  0  0  0  0
  158.7690  212.1080  157.2570 O   0  0  0  0  0  1  0  0  0  0  0  0
  156.8360  211.9440  155.9420 C   0  0  0  0  0  3  0  0  0  0  0  0
  156.1100  211.8620  154.6390 C   0  0  0  0  0  2  0  0  0  0  0  0
  155.4730  213.1630  154.3100 C   0  0  0  0  0  0  0  0  0  0  0  0
  155.2580  214.1310  155.3220 N   0  0  0  0  0  1  0  0  0  0  0  0
  155.1630  213.4290  153.1180 O   0  0  0  0  0  0  0  0  0  0  0  0
  1  5  1  0  0  0  0
  2  4  1  0  0  0  0
  3  7  1  0  0  0  0
  4  1  2  0  0  0  0
  6  3  2  0  0  0  0
  6  4  1  0  0  0  0
  7 26  1  0  0  0  0
  7  5  2  0  0  0  0
  8 13  1  6  0  0  0
  8  9  1  0  0  0  0
  9  6  1  1  0  0  0
 10  8  1  0  0  0  0
 10  9  1  0  0  0  0
 11 13  1  0  0  0  0
 12 11  2  0  0  0  0
 14 22  1  6  0  0  0
 14 21  1  0  0  0  0
 14 11  1  0  0  0  0
 15 21  2  0  0  0  0
 15 18  1  0  0  0  0
 17 20  1  0  0  0  0
 17 16  1  0  0  0  0
 18 17  2  0  0  0  0
 19 20  2  0  0  0  0
 21 19  1  0  0  0  0
 23 24  1  0  0  0  0
 24 22  1  0  0  0  0
 25 24  1  0  0  0  0
 26 28  1  1  0  0  0
 28 27  1  0  0  0  0
 29 26  1  0  0  0  0
 29 41  1  1  0  0  0
 30 32  2  0  0  0  0
 32 33  1  0  0  0  0
 33 31  1  0  0  0  0
 33 29  1  0  0  0  0
 34 32  1  0  0  0  0
 35 34  1  0  0  0  0
 36 35  1  0  0  0  0
 37 39  1  0  0  0  0
 37 36  1  0  0  0  0
 38 40  1  0  0  0  0
 38 39  1  0  0  0  0
 40 39  1  0  0  0  0
 41 42  1  0  0  0  0
 43 41  2  0  0  0  0
 44 43  1  0  0  0  0
 45 44  1  0  0  0  0
 45 46  1  0  0  0  0
 47 45  2  0  0  0  0
M  END
>  <MODEL>
1

>  <REMARK>
 VINA RESULT:      -7.4      0.000      0.000
  Name = 
  18 active torsions:
  status: ('A' for Active; 'I' for Inactive)
    1  A    between atoms: C_2  and  C_13
    2  A    between atoms: C_3  and  C_42
    3  A    between atoms: C_6  and  C_23
    4  A    between atoms: C_6  and  N_34
    5  A    between atoms: C_7  and  C_13
    6  A    between atoms: C_7  and  N_25
    7  A    between atoms: C_10  and  C_36
    8  A    between atoms: C_10  and  C_42
    9  A    between atoms: C_10  and  C_45
   10  A    between atoms: C_13  and  C_44
   11  A    between atoms: C_18  and  C_20
   12  A    between atoms: C_20  and  C_46
   13  A    between atoms: C_22  and  C_23
   14  A    between atoms: C_24  and  C_43
   15  A    between atoms: C_27  and  N_37
   16  A    between atoms: N_28  and  C_42
   17  A    between atoms: C_32  and  C_38
   18  A    between atoms: N_34  and  C_43
                            x       y       z     vdW  Elec       q    Type
                         _______ _______ _______ _____ _____    ______ ____

>  <TORSDO>
F 18

$$$$
=
 OpenBabel11072414533D

 47 50  0  0  1  0  0  0  0  0999 V2000
  160.7350  207.5480  155.5440 C   0  0  0  0  0  3  0  0  0  0  0  0
  160.8350  205.7970  153.9540 F   0  0  0  0  0  0  0  0  0  0  0  0
  160.7990  209.4310  153.4840 C   0  0  0  0  0  3  0  0  0  0  0  0
  160.8180  207.1250  154.2180 C   0  0  0  0  0  0  0  0  0  0  0  0
  160.6770  208.9070  155.8430 C   0  0  0  0  0  3  0  0  0  0  0  0
  160.8740  208.0650  153.1770 C   0  0  0  0  0  0  0  0  0  0  0  0
  160.6930  209.8580  154.8190 C   0  0  0  0  0  0  0  0  0  0  0  0
  162.3180  207.5550  151.2290 C   0  0  2  0  0  3  0  0  0  0  0  0
  160.8890  207.6190  151.7460 C   0  0  2  0  0  3  0  0  0  0  0  0
  161.4150  208.7000  150.8170 C   0  0  0  0  0  2  0  0  0  0  0  0
  161.6880  206.6000  148.9580 C   0  0  0  0  0  0  0  0  0  0  0  0
  160.9730  207.6020  148.6870 O   0  0  0  0  0  0  0  0  0  0  0  0
  162.3650  206.5240  150.2050 N   0  0  0  0  0  2  0  0  0  0  0  0
  161.8300  205.4620  147.9900 C   0  0  1  0  0  3  0  0  0  0  0  0
  161.2850  202.9990  147.8180 C   0  0  0  0  0  3  0  0  0  0  0  0
  160.1460  200.5660  150.3490 O   0  0  0  0  0  1  0  0  0  0  0  0
  160.5420  201.7610  149.7620 C   0  0  0  0  0  0  0  0  0  0  0  0
  160.8730  201.7990  148.4050 C   0  0  0  0  0  3  0  0  0  0  0  0
  161.0210  204.1250  149.9420 C   0  0  0  0  0  3  0  0  0  0  0  0
  160.6150  202.9250  150.5300 C   0  0  0  0  0  3  0  0  0  0  0  0
  161.3580  204.1690  148.5880 C   0  0  0  0  0  0  0  0  0  0  0  0
  161.1650  205.7560  146.6420 C   0  0  0  0  0  2  0  0  0  0  0  0
  161.4990  205.5750  144.3310 C   0  0  0  0  0  1  0  0  0  0  0  0
  162.1560  205.8830  145.5850 N   0  0  0  0  0  0  0  0  0  0  0  0
  163.1310  204.8310  145.8110 C   0  0  0  0  0  1  0  0  0  0  0  0
  160.6800  211.3100  155.1960 C   0  0  2  0  0  3  0  0  0  0  0  0
  162.7240  211.3980  156.4570 O   0  0  0  0  0  1  0  0  0  0  0  0
  161.3470  211.6190  156.5480 C   0  0  0  0  0  2  0  0  0  0  0  0
  159.2700  211.9050  155.0530 C   0  0  2  0  0  3  0  0  0  0  0  0
  158.5950  211.6700  152.3360 O   0  0  0  0  0  0  0  0  0  0  0  0
  159.3970  214.4100  154.6210 C   0  0  0  0  0  1  0  0  0  0  0  0
  158.9200  212.8220  152.7410 C   0  0  0  0  0  0  0  0  0  0  0  0
  159.2110  213.0450  154.1320 N   0  0  0  0  0  0  0  0  0  0  0  0
  159.0130  213.9230  151.7390 C   0  0  0  0  0  2  0  0  0  0  0  0
  159.2900  213.3680  150.4270 N   0  0  0  0  0  2  0  0  0  0  0  0
  158.6080  214.2020  149.4560 C   0  0  0  0  0  2  0  0  0  0  0  0
  157.5090  213.3950  148.8000 C   0  0  0  0  0  2  0  0  0  0  0  0
  157.2360  212.3830  146.5620 C   0  0  0  0  0  2  0  0  0  0  0  0
  157.4630  213.6800  147.3130 C   0  0  0  0  0  3  0  0  0  0  0  0
  158.6280  212.9640  146.6690 C   0  0  0  0  0  2  0  0  0  0  0  0
  158.5660  212.1740  156.3600 C   0  0  0  0  0  0  0  0  0  0  0  0
  159.0230  213.1930  157.1830 O   0  0  0  0  0  1  0  0  0  0  0  0
  157.5090  211.4580  156.7480 C   0  0  0  0  0  3  0  0  0  0  0  0
  156.9260  210.3760  155.8990 C   0  0  0  0  0  2  0  0  0  0  0  0
  155.4500  210.5180  155.8070 C   0  0  0  0  0  0  0  0  0  0  0  0
  154.6970  210.9100  156.9410 N   0  0  0  0  0  1  0  0  0  0  0  0
  154.8680  210.3360  154.7050 O   0  0  0  0  0  0  0  0  0  0  0  0
  1  5  1  0  0  0  0
  2  4  1  0  0  0  0
  3  7  1  0  0  0  0
  4  1  2  0  0  0  0
  6  3  2  0  0  0  0
  6  4  1  0  0  0  0
  7 26  1  0  0  0  0
  7  5  2  0  0  0  0
  8 13  1  6  0  0  0
  8  9  1  0  0  0  0
  9  6  1  1  0  0  0
 10  8  1  0  0  0  0
 10  9  1  0  0  0  0
 11 13  1  0  0  0  0
 12 11  2  0  0  0  0
 14 22  1  6  0  0  0
 14 21  1  0  0  0  0
 14 11  1  0  0  0  0
 15 18  2  0  0  0  0
 15 21  1  0  0  0  0
 17 16  1  0  0  0  0
 17 20  2  0  0  0  0
 18 17  1  0  0  0  0
 19 20  1  0  0  0  0
 21 19  2  0  0  0  0
 23 24  1  0  0  0  0
 24 25  1  0  0  0  0
 24 22  1  0  0  0  0
 26 28  1  1  0  0  0
 27 28  1  0  0  0  0
 29 26  1  0  0  0  0
 29 41  1  1  0  0  0
 30 32  2  0  0  0  0
 32 33  1  0  0  0  0
 33 31  1  0  0  0  0
 33 29  1  0  0  0  0
 34 32  1  0  0  0  0
 35 34  1  0  0  0  0
 36 35  1  0  0  0  0
 37 36  1  0  0  0  0
 38 40  1  0  0  0  0
 38 39  1  0  0  0  0
 39 37  1  0  0  0  0
 40 39  1  0  0  0  0
 41 43  2  0  0  0  0
 41 42  1  0  0  0  0
 44 43  1  0  0  0  0
 45 44  1  0  0  0  0
 45 46  1  0  0  0  0
 47 45  2  0  0  0  0
M  END
>  <MODEL>
2

>  <REMARK>
 VINA RESULT:      -7.3      1.419      1.681
  Name = 
  18 active torsions:
  status: ('A' for Active; 'I' for Inactive)
    1  A    between atoms: C_2  and  C_13
    2  A    between atoms: C_3  and  C_42
    3  A    between atoms: C_6  and  C_23
    4  A    between atoms: C_6  and  N_34
    5  A    between atoms: C_7  and  C_13
    6  A    between atoms: C_7  and  N_25
    7  A    between atoms: C_10  and  C_36
    8  A    between atoms: C_10  and  C_42
    9  A    between atoms: C_10  and  C_45
   10  A    between atoms: C_13  and  C_44
   11  A    between atoms: C_18  and  C_20
   12  A    between atoms: C_20  and  C_46
   13  A    between atoms: C_22  and  C_23
   14  A    between atoms: C_24  and  C_43
   15  A    between atoms: C_27  and  N_37
   16  A    between atoms: N_28  and  C_42
   17  A    between atoms: C_32  and  C_38
   18  A    between atoms: N_34  and  C_43
                            x       y       z     vdW  Elec       q    Type
                         _______ _______ _______ _____ _____    ______ ____

>  <TORSDO>
F 18

$$$$
=
 OpenBabel11072414533D

 47 50  0  0  1  0  0  0  0  0999 V2000
  160.6490  207.5080  154.9350 C   0  0  0  0  0  3  0  0  0  0  0  0
  160.7540  205.6950  153.4170 F   0  0  0  0  0  0  0  0  0  0  0  0
  160.7700  209.3070  152.8040 C   0  0  0  0  0  3  0  0  0  0  0  0
  160.7490  207.0310  153.6270 C   0  0  0  0  0  0  0  0  0  0  0  0
  160.6020  208.8780  155.1790 C   0  0  0  0  0  3  0  0  0  0  0  0
  160.8340  207.9300  152.5510 C   0  0  0  0  0  0  0  0  0  0  0  0
  160.6470  209.7870  154.1190 C   0  0  0  0  0  0  0  0  0  0  0  0
  162.1660  206.6830  150.8760 C   0  0  2  0  0  3  0  0  0  0  0  0
  160.8670  207.4260  151.1400 C   0  0  2  0  0  3  0  0  0  0  0  0
  161.9710  208.0820  150.3270 C   0  0  0  0  0  2  0  0  0  0  0  0
  161.1830  204.4690  150.1050 C   0  0  0  0  0  0  0  0  0  0  0  0
  160.7550  204.2060  151.2610 O   0  0  0  0  0  0  0  0  0  0  0  0
  161.8950  205.6750  149.8650 N   0  0  0  0  0  2  0  0  0  0  0  0
  160.9700  203.5170  148.9630 C   0  0  1  0  0  3  0  0  0  0  0  0
  161.6280  203.5390  146.5220 C   0  0  0  0  0  3  0  0  0  0  0  0
  161.3510  206.1610  143.9390 O   0  0  0  0  0  1  0  0  0  0  0  0
  161.2770  205.5140  145.1670 C   0  0  0  0  0  0  0  0  0  0  0  0
  161.7160  204.1930  145.2900 C   0  0  0  0  0  3  0  0  0  0  0  0
  160.6740  205.5300  147.5090 C   0  0  0  0  0  3  0  0  0  0  0  0
  160.7570  206.1830  146.2770 C   0  0  0  0  0  3  0  0  0  0  0  0
  161.1070  204.2090  147.6380 C   0  0  0  0  0  0  0  0  0  0  0  0
  161.8600  202.2750  149.0650 C   0  0  0  0  0  2  0  0  0  0  0  0
  161.3250  200.3410  147.8580 C   0  0  0  0  0  1  0  0  0  0  0  0
  161.0620  201.0590  149.0880 N   0  0  0  0  0  0  0  0  0  0  0  0
  159.6730  201.4810  149.0340 C   0  0  0  0  0  1  0  0  0  0  0  0
  160.6450  211.2530  154.4390 C   0  0  2  0  0  3  0  0  0  0  0  0
  162.6120  211.2710  155.8200 O   0  0  0  0  0  1  0  0  0  0  0  0
  161.2540  211.6040  155.8080 C   0  0  0  0  0  2  0  0  0  0  0  0
  159.2550  211.8670  154.2060 C   0  0  2  0  0  3  0  0  0  0  0  0
  156.9950  213.3780  153.4940 O   0  0  0  0  0  0  0  0  0  0  0  0
  160.3500  212.8620  152.1340 C   0  0  0  0  0  1  0  0  0  0  0  0
  157.9580  213.3810  152.6760 C   0  0  0  0  0  0  0  0  0  0  0  0
  159.1800  212.6930  152.9950 N   0  0  0  0  0  0  0  0  0  0  0  0
  157.7810  214.0940  151.3780 C   0  0  0  0  0  2  0  0  0  0  0  0
  157.3880  213.1470  150.3510 N   0  0  0  0  0  2  0  0  0  0  0  0
  158.1050  213.5050  149.1410 C   0  0  0  0  0  2  0  0  0  0  0  0
  157.3960  212.8970  147.9510 C   0  0  0  0  0  2  0  0  0  0  0  0
  156.8580  213.1830  145.5560 C   0  0  0  0  0  2  0  0  0  0  0  0
  157.7570  213.6470  146.6860 C   0  0  0  0  0  3  0  0  0  0  0  0
  158.2630  212.6390  145.6790 C   0  0  0  0  0  2  0  0  0  0  0  0
  158.6580  212.5470  155.4130 C   0  0  0  0  0  0  0  0  0  0  0  0
  159.1110  213.8060  155.7800 O   0  0  0  0  0  1  0  0  0  0  0  0
  157.6990  211.9690  156.1400 C   0  0  0  0  0  3  0  0  0  0  0  0
  157.1240  210.6380  155.7840 C   0  0  0  0  0  2  0  0  0  0  0  0
  155.6450  210.6490  155.9290 C   0  0  0  0  0  0  0  0  0  0  0  0
  155.0250  211.5030  156.8750 N   0  0  0  0  0  1  0  0  0  0  0  0
  154.9330  209.9330  155.1770 O   0  0  0  0  0  0  0  0  0  0  0  0
  1  5  1  0  0  0  0
  2  4  1  0  0  0  0
  3  7  1  0  0  0  0
  4  1  2  0  0  0  0
  6  3  2  0  0  0  0
  6  4  1  0  0  0  0
  7 26  1  0  0  0  0
  7  5  2  0  0  0  0
  8 13  1  6  0  0  0
  8  9  1  0  0  0  0
  9  6  1  1  0  0  0
 10  8  1  0  0  0  0
 10  9  1  0  0  0  0
 11 12  2  0  0  0  0
 13 11  1  0  0  0  0
 14 22  1  6  0  0  0
 14 11  1  0  0  0  0
 15 21  1  0  0  0  0
 16 17  1  0  0  0  0
 17 18  1  0  0  0  0
 17 20  2  0  0  0  0
 18 15  2  0  0  0  0
 19 21  2  0  0  0  0
 20 19  1  0  0  0  0
 21 14  1  0  0  0  0
 22 24  1  0  0  0  0
 23 24  1  0  0  0  0
 25 24  1  0  0  0  0
 26 28  1  1  0  0  0
 28 27  1  0  0  0  0
 29 26  1  0  0  0  0
 29 41  1  1  0  0  0
 31 33  1  0  0  0  0
 32 33  1  0  0  0  0
 32 30  2  0  0  0  0
 33 29  1  0  0  0  0
 34 32  1  0  0  0  0
 35 34  1  0  0  0  0
 36 35  1  0  0  0  0
 37 36  1  0  0  0  0
 38 40  1  0  0  0  0
 38 39  1  0  0  0  0
 39 37  1  0  0  0  0
 40 39  1  0  0  0  0
 41 42  1  0  0  0  0
 41 43  2  0  0  0  0
 44 45  1  0  0  0  0
 44 43  1  0  0  0  0
 45 46  1  0  0  0  0
 47 45  2  0  0  0  0
M  END
>  <MODEL>
3

>  <REMARK>
 VINA RESULT:      -7.0      2.018      3.214
  Name = 
  18 active torsions:
  status: ('A' for Active; 'I' for Inactive)
    1  A    between atoms: C_2  and  C_13
    2  A    between atoms: C_3  and  C_42
    3  A    between atoms: C_6  and  C_23
    4  A    between atoms: C_6  and  N_34
    5  A    between atoms: C_7  and  C_13
    6  A    between atoms: C_7  and  N_25
    7  A    between atoms: C_10  and  C_36
    8  A    between atoms: C_10  and  C_42
    9  A    between atoms: C_10  and  C_45
   10  A    between atoms: C_13  and  C_44
   11  A    between atoms: C_18  and  C_20
   12  A    between atoms: C_20  and  C_46
   13  A    between atoms: C_22  and  C_23
   14  A    between atoms: C_24  and  C_43
   15  A    between atoms: C_27  and  N_37
   16  A    between atoms: N_28  and  C_42
   17  A    between atoms: C_32  and  C_38
   18  A    between atoms: N_34  and  C_43
                            x       y       z     vdW  Elec       q    Type
                         _______ _______ _______ _____ _____    ______ ____

>  <TORSDO>
F 18

$$$$
=
 OpenBabel11072414533D

 47 50  0  0  1  0  0  0  0  0999 V2000
  160.7990  203.1880  152.0310 C   0  0  0  0  0  3  0  0  0  0  0  0
  160.9900  204.4540  154.0220 F   0  0  0  0  0  0  0  0  0  0  0  0
  161.3970  205.4590  150.5220 C   0  0  0  0  0  3  0  0  0  0  0  0
  161.0310  204.4060  152.6710 C   0  0  0  0  0  0  0  0  0  0  0  0
  160.8730  203.1000  150.6440 C   0  0  0  0  0  3  0  0  0  0  0  0
  161.3090  205.5580  151.9180 C   0  0  0  0  0  0  0  0  0  0  0  0
  161.1850  204.2270  149.8790 C   0  0  0  0  0  0  0  0  0  0  0  0
  160.7420  207.9650  152.0660 C   0  0  2  0  0  3  0  0  0  0  0  0
  161.6320  206.8540  152.6000 C   0  0  2  0  0  3  0  0  0  0  0  0
  162.1910  207.8830  151.6320 C   0  0  0  0  0  2  0  0  0  0  0  0
  160.6230  210.3430  152.9600 C   0  0  0  0  0  0  0  0  0  0  0  0
  160.8590  210.8290  151.8210 O   0  0  0  0  0  0  0  0  0  0  0  0
  160.5640  208.9330  153.1360 N   0  0  0  0  0  2  0  0  0  0  0  0
  160.4160  211.2270  154.1550 C   0  0  1  0  0  3  0  0  0  0  0  0
  159.0160  213.1350  153.2650 C   0  0  0  0  0  3  0  0  0  0  0  0
  155.4580  213.9880  153.7480 O   0  0  0  0  0  1  0  0  0  0  0  0
  156.6760  213.3290  153.8560 C   0  0  0  0  0  0  0  0  0  0  0  0
  157.7940  213.8070  153.1670 C   0  0  0  0  0  3  0  0  0  0  0  0
  158.0040  211.5160  154.7490 C   0  0  0  0  0  3  0  0  0  0  0  0
  156.7820  212.1840  154.6480 C   0  0  0  0  0  3  0  0  0  0  0  0
  159.1240  211.9850  154.0610 C   0  0  0  0  0  0  0  0  0  0  0  0
  160.5470  210.4640  155.4760 C   0  0  0  0  0  2  0  0  0  0  0  0
  161.9520  208.8810  156.4790 C   0  0  0  0  0  1  0  0  0  0  0  0
  161.9370  210.1360  155.7560 N   0  0  0  0  0  0  0  0  0  0  0  0
  162.4190  211.1510  156.6750 C   0  0  0  0  0  1  0  0  0  0  0  0
  161.2020  204.0920  148.3850 C   0  0  2  0  0  3  0  0  0  0  0  0
  160.2760  201.9110  147.9780 O   0  0  0  0  0  1  0  0  0  0  0  0
  161.4530  202.6590  147.8820 C   0  0  0  0  0  2  0  0  0  0  0  0
  162.1250  205.1410  147.7450 C   0  0  2  0  0  3  0  0  0  0  0  0
  163.3830  207.5440  148.4800 O   0  0  0  0  0  0  0  0  0  0  0  0
  160.1930  206.6020  146.9600 C   0  0  0  0  0  1  0  0  0  0  0  0
  162.1910  207.6320  148.0710 C   0  0  0  0  0  0  0  0  0  0  0  0
  161.4960  206.4600  147.6070 N   0  0  0  0  0  0  0  0  0  0  0  0
  161.5280  208.9680  148.1040 C   0  0  0  0  0  2  0  0  0  0  0  0
  162.2180  209.8310  149.0460 N   0  0  0  0  0  2  0  0  0  0  0  0
  162.4810  211.0840  148.3640 C   0  0  0  0  0  2  0  0  0  0  0  0
  161.1700  211.8010  148.1280 C   0  0  0  0  0  2  0  0  0  0  0  0
  159.7050  213.6600  148.8390 C   0  0  0  0  0  2  0  0  0  0  0  0
  161.0580  213.0060  149.0390 C   0  0  0  0  0  3  0  0  0  0  0  0
  160.9320  214.2350  148.1680 C   0  0  0  0  0  2  0  0  0  0  0  0
  162.8120  204.6870  146.4820 C   0  0  0  0  0  0  0  0  0  0  0  0
  164.1890  204.5130  146.4790 O   0  0  0  0  0  1  0  0  0  0  0  0
  162.1290  204.4440  145.3610 C   0  0  0  0  0  3  0  0  0  0  0  0
  160.6420  204.5610  145.2940 C   0  0  0  0  0  2  0  0  0  0  0  0
  160.0470  203.3500  144.6730 C   0  0  0  0  0  0  0  0  0  0  0  0
  159.0090  203.4720  143.7170 N   0  0  0  0  0  1  0  0  0  0  0  0
  160.4970  202.2090  144.9610 O   0  0  0  0  0  0  0  0  0  0  0  0
  1  4  1  0  0  0  0
  3  6  1  0  0  0  0
  4  2  1  0  0  0  0
  5  1  2  0  0  0  0
  6  4  2  0  0  0  0
  7  3  2  0  0  0  0
  7  5  1  0  0  0  0
  8  9  1  0  0  0  0
  8 13  1  1  0  0  0
  9  6  1  6  0  0  0
 10  8  1  0  0  0  0
 10  9  1  0  0  0  0
 11 13  1  0  0  0  0
 11 14  1  0  0  0  0
 12 11  2  0  0  0  0
 14 22  1  1  0  0  0
 15 21  1  0  0  0  0
 16 17  1  0  0  0  0
 17 20  2  0  0  0  0
 18 15  2  0  0  0  0
 18 17  1  0  0  0  0
 20 19  1  0  0  0  0
 21 14  1  0  0  0  0
 21 19  2  0  0  0  0
 22 24  1  0  0  0  0
 24 23  1  0  0  0  0
 24 25  1  0  0  0  0
 26 28  1  1  0  0  0
 26  7  1  0  0  0  0
 28 27  1  0  0  0  0
 29 41  1  6  0  0  0
 29 26  1  0  0  0  0
 31 33  1  0  0  0  0
 32 34  1  0  0  0  0
 32 30  2  0  0  0  0
 33 29  1  0  0  0  0
 33 32  1  0  0  0  0
 34 35  1  0  0  0  0
 36 35  1  0  0  0  0
 37 36  1  0  0  0  0
 37 39  1  0  0  0  0
 38 39  1  0  0  0  0
 40 38  1  0  0  0  0
 40 39  1  0  0  0  0
 42 41  1  0  0  0  0
 43 41  2  0  0  0  0
 44 43  1  0  0  0  0
 45 47  2  0  0  0  0
 45 44  1  0  0  0  0
 46 45  1  0  0  0  0
M  END
>  <MODEL>
4

>  <REMARK>
 VINA RESULT:      -6.6      2.250      9.531
  Name = 
  18 active torsions:
  status: ('A' for Active; 'I' for Inactive)
    1  A    between atoms: C_2  and  C_13
    2  A    between atoms: C_3  and  C_42
    3  A    between atoms: C_6  and  C_23
    4  A    between atoms: C_6  and  N_34
    5  A    between atoms: C_7  and  C_13
    6  A    between atoms: C_7  and  N_25
    7  A    between atoms: C_10  and  C_36
    8  A    between atoms: C_10  and  C_42
    9  A    between atoms: C_10  and  C_45
   10  A    between atoms: C_13  and  C_44
   11  A    between atoms: C_18  and  C_20
   12  A    between atoms: C_20  and  C_46
   13  A    between atoms: C_22  and  C_23
   14  A    between atoms: C_24  and  C_43
   15  A    between atoms: C_27  and  N_37
   16  A    between atoms: N_28  and  C_42
   17  A    between atoms: C_32  and  C_38
   18  A    between atoms: N_34  and  C_43
                            x       y       z     vdW  Elec       q    Type
                         _______ _______ _______ _____ _____    ______ ____

>  <TORSDO>
F 18

$$$$
=
 OpenBabel11072414533D

 47 50  0  0  1  0  0  0  0  0999 V2000
  160.8370  213.6900  149.2920 C   0  0  0  0  0  3  0  0  0  0  0  0
  162.3840  212.4000  148.0490 F   0  0  0  0  0  0  0  0  0  0  0  0
  160.6610  211.6570  151.1960 C   0  0  0  0  0  3  0  0  0  0  0  0
  161.5720  212.5160  149.1250 C   0  0  0  0  0  0  0  0  0  0  0  0
  160.0230  213.8540  150.4100 C   0  0  0  0  0  3  0  0  0  0  0  0
  161.4710  211.4790  150.0660 C   0  0  0  0  0  0  0  0  0  0  0  0
  159.9390  212.8490  151.3770 C   0  0  0  0  0  0  0  0  0  0  0  0
  161.4460  209.0010  150.0600 C   0  0  2  0  0  3  0  0  0  0  0  0
  162.3120  210.2440  149.9320 C   0  0  2  0  0  3  0  0  0  0  0  0
  162.3320  209.4280  151.2130 C   0  0  0  0  0  2  0  0  0  0  0  0
  161.3630  206.8890  148.6470 C   0  0  0  0  0  0  0  0  0  0  0  0
  160.1120  206.8030  148.7710 O   0  0  0  0  0  0  0  0  0  0  0  0
  162.0710  207.9520  149.2730 N   0  0  0  0  0  2  0  0  0  0  0  0
  162.1380  205.8740  147.8570 C   0  0  1  0  0  3  0  0  0  0  0  0
  161.1400  204.1650  149.4310 C   0  0  0  0  0  3  0  0  0  0  0  0
  160.4020  200.5750  148.9900 O   0  0  0  0  0  1  0  0  0  0  0  0
  160.8390  201.8670  148.7270 C   0  0  0  0  0  0  0  0  0  0  0  0
  160.7130  202.8610  149.7010 C   0  0  0  0  0  3  0  0  0  0  0  0
  161.8300  203.4760  147.2180 C   0  0  0  0  0  3  0  0  0  0  0  0
  161.3990  202.1750  147.4860 C   0  0  0  0  0  3  0  0  0  0  0  0
  161.7030  204.4750  148.1840 C   0  0  0  0  0  0  0  0  0  0  0  0
  162.1060  206.1560  146.3520 C   0  0  0  0  0  2  0  0  0  0  0  0
  161.5260  205.0590  144.3660 C   0  0  0  0  0  1  0  0  0  0  0  0
  161.0590  205.3860  145.6980 N   0  0  0  0  0  0  0  0  0  0  0  0
  159.9320  206.2870  145.5320 C   0  0  0  0  0  1  0  0  0  0  0  0
  159.0080  213.0520  152.5360 C   0  0  2  0  0  3  0  0  0  0  0  0
  156.9870  214.3510  152.4700 O   0  0  0  0  0  1  0  0  0  0  0  0
  158.3750  214.4530  152.6010 C   0  0  0  0  0  2  0  0  0  0  0  0
  159.6630  212.6100  153.8540 C   0  0  2  0  0  3  0  0  0  0  0  0
  161.5150  211.4530  155.6230 O   0  0  0  0  0  0  0  0  0  0  0  0
  159.1630  210.2290  153.1050 C   0  0  0  0  0  1  0  0  0  0  0  0
  160.9520  210.6730  154.8030 C   0  0  0  0  0  0  0  0  0  0  0  0
  159.9400  211.1700  153.9110 N   0  0  0  0  0  0  0  0  0  0  0  0
  161.3830  209.2460  154.7770 C   0  0  0  0  0  2  0  0  0  0  0  0
  160.6620  208.4990  155.7920 N   0  0  0  0  0  2  0  0  0  0  0  0
  160.2560  207.2420  155.1920 C   0  0  0  0  0  2  0  0  0  0  0  0
  160.7500  207.1970  153.7630 C   0  0  0  0  0  2  0  0  0  0  0  0
  162.0340  205.8700  152.1200 C   0  0  0  0  0  2  0  0  0  0  0  0
  161.7760  206.0950  153.5970 C   0  0  0  0  0  3  0  0  0  0  0  0
  161.1080  204.9450  152.8770 C   0  0  0  0  0  2  0  0  0  0  0  0
  158.9810  213.1220  155.0980 C   0  0  0  0  0  0  0  0  0  0  0  0
  159.6000  214.1020  155.8610 O   0  0  0  0  0  1  0  0  0  0  0  0
  157.7910  212.6600  155.4860 C   0  0  0  0  0  3  0  0  0  0  0  0
  157.0370  211.6410  154.6960 C   0  0  0  0  0  2  0  0  0  0  0  0
  155.9120  211.0870  155.4920 C   0  0  0  0  0  0  0  0  0  0  0  0
  155.6830  211.5340  156.8160 N   0  0  0  0  0  1  0  0  0  0  0  0
  155.1270  210.2490  154.9740 O   0  0  0  0  0  0  0  0  0  0  0  0
  1  5  1  0  0  0  0
  2  4  1  0  0  0  0
  3  7  1  0  0  0  0
  4  1  2  0  0  0  0
  4  6  1  0  0  0  0
  5  7  2  0  0  0  0
  6  3  2  0  0  0  0
  7 26  1  0  0  0  0
  8 13  1  6  0  0  0
  8 10  1  0  0  0  0
  9  8  1  0  0  0  0
  9  6  1  1  0  0  0
  9 10  1  0  0  0  0
 11 12  2  0  0  0  0
 11 13  1  0  0  0  0
 14 22  1  6  0  0  0
 14 21  1  0  0  0  0
 14 11  1  0  0  0  0
 15 18  1  0  0  0  0
 17 16  1  0  0  0  0
 17 18  2  0  0  0  0
 19 20  2  0  0  0  0
 19 21  1  0  0  0  0
 20 17  1  0  0  0  0
 21 15  2  0  0  0  0
 23 24  1  0  0  0  0
 24 22  1  0  0  0  0
 25 24  1  0  0  0  0
 26 28  1  1  0  0  0
 26 29  1  0  0  0  0
 27 28  1  0  0  0  0
 29 33  1  0  0  0  0
 29 41  1  1  0  0  0
 31 33  1  0  0  0  0
 32 30  2  0  0  0  0
 33 32  1  0  0  0  0
 34 32  1  0  0  0  0
 34 35  1  0  0  0  0
 36 35  1  0  0  0  0
 37 36  1  0  0  0  0
 38 40  1  0  0  0  0
 38 39  1  0  0  0  0
 39 37  1  0  0  0  0
 40 39  1  0  0  0  0
 41 43  2  0  0  0  0
 41 42  1  0  0  0  0
 44 43  1  0  0  0  0
 44 45  1  0  0  0  0
 45 46  1  0  0  0  0
 47 45  2  0  0  0  0
M  END
>  <MODEL>
5

>  <REMARK>
 VINA RESULT:      -6.4      2.112      4.727
  Name = 
  18 active torsions:
  status: ('A' for Active; 'I' for Inactive)
    1  A    between atoms: C_2  and  C_13
    2  A    between atoms: C_3  and  C_42
    3  A    between atoms: C_6  and  C_23
    4  A    between atoms: C_6  and  N_34
    5  A    between atoms: C_7  and  C_13
    6  A    between atoms: C_7  and  N_25
    7  A    between atoms: C_10  and  C_36
    8  A    between atoms: C_10  and  C_42
    9  A    between atoms: C_10  and  C_45
   10  A    between atoms: C_13  and  C_44
   11  A    between atoms: C_18  and  C_20
   12  A    between atoms: C_20  and  C_46
   13  A    between atoms: C_22  and  C_23
   14  A    between atoms: C_24  and  C_43
   15  A    between atoms: C_27  and  N_37
   16  A    between atoms: N_28  and  C_42
   17  A    between atoms: C_32  and  C_38
   18  A    between atoms: N_34  and  C_43
                            x       y       z     vdW  Elec       q    Type
                         _______ _______ _______ _____ _____    ______ ____

>  <TORSDO>
F 18

$$$$
=
 OpenBabel11072414533D

 47 50  0  0  1  0  0  0  0  0999 V2000
  161.3140  211.5980  150.9130 C   0  0  0  0  0  3  0  0  0  0  0  0
  161.8980  209.9100  149.3600 F   0  0  0  0  0  0  0  0  0  0  0  0
  161.3490  209.7190  152.9770 C   0  0  0  0  0  3  0  0  0  0  0  0
  161.6060  210.2630  150.6330 C   0  0  0  0  0  0  0  0  0  0  0  0
  161.0480  211.9970  152.2200 C   0  0  0  0  0  3  0  0  0  0  0  0
  161.6030  209.3070  151.6620 C   0  0  0  0  0  0  0  0  0  0  0  0
  161.0770  211.0680  153.2630 C   0  0  0  0  0  0  0  0  0  0  0  0
  160.7880  207.1090  150.8590 C   0  0  2  0  0  3  0  0  0  0  0  0
  161.9870  207.8850  151.3820 C   0  0  2  0  0  3  0  0  0  0  0  0
  161.2550  206.9080  152.2870 C   0  0  0  0  0  2  0  0  0  0  0  0
  160.8800  205.8730  148.6390 C   0  0  0  0  0  0  0  0  0  0  0  0
  160.0080  206.6290  148.1330 O   0  0  0  0  0  0  0  0  0  0  0  0
  161.2930  206.0620  149.9860 N   0  0  0  0  0  2  0  0  0  0  0  0
  161.4900  204.7520  147.8490 C   0  0  1  0  0  3  0  0  0  0  0  0
  161.2100  202.2410  147.7360 C   0  0  0  0  0  3  0  0  0  0  0  0
  160.6230  199.7260  150.3720 O   0  0  0  0  0  1  0  0  0  0  0  0
  160.8180  200.9510  149.7470 C   0  0  0  0  0  0  0  0  0  0  0  0
  161.0000  201.0100  148.3620 C   0  0  0  0  0  3  0  0  0  0  0  0
  161.0450  203.3550  149.8760 C   0  0  0  0  0  3  0  0  0  0  0  0
  160.8390  202.1250  150.5030 C   0  0  0  0  0  3  0  0  0  0  0  0
  161.2320  203.4210  148.4940 C   0  0  0  0  0  0  0  0  0  0  0  0
  161.0670  204.7770  146.3780 C   0  0  0  0  0  2  0  0  0  0  0  0
  161.5990  205.4080  144.1860 C   0  0  0  0  0  1  0  0  0  0  0  0
  162.0560  205.4620  145.5600 N   0  0  0  0  0  0  0  0  0  0  0  0
  163.2660  204.6630  145.6270 C   0  0  0  0  0  1  0  0  0  0  0  0
  160.7320  211.5390  154.6460 C   0  0  2  0  0  3  0  0  0  0  0  0
  162.1780  211.3840  156.5600 O   0  0  0  0  0  1  0  0  0  0  0  0
  161.2850  210.6490  155.7730 C   0  0  0  0  0  2  0  0  0  0  0  0
  159.2290  211.8310  154.7710 C   0  0  2  0  0  3  0  0  0  0  0  0
  157.7150  211.6250  152.4130 O   0  0  0  0  0  0  0  0  0  0  0  0
  159.0390  214.3500  154.4600 C   0  0  0  0  0  1  0  0  0  0  0  0
  158.0780  212.7860  152.7530 C   0  0  0  0  0  0  0  0  0  0  0  0
  158.7940  212.9900  153.9830 N   0  0  0  0  0  0  0  0  0  0  0  0
  157.7630  213.9210  151.8380 C   0  0  0  0  0  2  0  0  0  0  0  0
  157.9010  213.4900  150.4590 N   0  0  0  0  0  2  0  0  0  0  0  0
  159.0180  214.2220  149.8910 C   0  0  0  0  0  2  0  0  0  0  0  0
  159.2110  213.7880  148.4540 C   0  0  0  0  0  2  0  0  0  0  0  0
  161.4100  214.0780  147.3660 C   0  0  0  0  0  2  0  0  0  0  0  0
  160.5860  213.1820  148.2690 C   0  0  0  0  0  3  0  0  0  0  0  0
  160.7480  212.8400  146.8060 C   0  0  0  0  0  2  0  0  0  0  0  0
  158.7110  211.8610  156.1880 C   0  0  0  0  0  0  0  0  0  0  0  0
  159.3130  212.6980  157.1160 O   0  0  0  0  0  1  0  0  0  0  0  0
  157.6820  211.1040  156.5750 C   0  0  0  0  0  3  0  0  0  0  0  0
  156.9490  210.2130  155.6260 C   0  0  0  0  0  2  0  0  0  0  0  0
  155.5860  210.7400  155.3580 C   0  0  0  0  0  0  0  0  0  0  0  0
  155.4070  212.0800  154.9330 N   0  0  0  0  0  1  0  0  0  0  0  0
  154.5860  209.9810  155.4620 O   0  0  0  0  0  0  0  0  0  0  0  0
  1  5  1  0  0  0  0
  2  4  1  0  0  0  0
  3  7  1  0  0  0  0
  4  1  2  0  0  0  0
  4  6  1  0  0  0  0
  5  7  2  0  0  0  0
  6  3  2  0  0  0  0
  7 26  1  0  0  0  0
  8 13  1  6  0  0  0
  8  9  1  0  0  0  0
  8 10  1  0  0  0  0
  9  6  1  1  0  0  0
  9 10  1  0  0  0  0
 11 13  1  0  0  0  0
 12 11  2  0  0  0  0
 14 22  1  6  0  0  0
 14 21  1  0  0  0  0
 14 11  1  0  0  0  0
 15 18  2  0  0  0  0
 15 21  1  0  0  0  0
 17 16  1  0  0  0  0
 17 20  2  0  0  0  0
 18 17  1  0  0  0  0
 19 20  1  0  0  0  0
 21 19  2  0  0  0  0
 23 24  1  0  0  0  0
 24 25  1  0  0  0  0
 24 22  1  0  0  0  0
 26 29  1  0  0  0  0
 26 28  1  1  0  0  0
 28 27  1  0  0  0  0
 29 41  1  1  0  0  0
 30 32  2  0  0  0  0
 32 33  1  0  0  0  0
 33 31  1  0  0  0  0
 33 29  1  0  0  0  0
 34 32  1  0  0  0  0
 35 34  1  0  0  0  0
 36 35  1  0  0  0  0
 37 36  1  0  0  0  0
 38 39  1  0  0  0  0
 39 37  1  0  0  0  0
 40 38  1  0  0  0  0
 40 39  1  0  0  0  0
 41 43  2  0  0  0  0
 41 42  1  0  0  0  0
 44 43  1  0  0  0  0
 45 47  2  0  0  0  0
 45 44  1  0  0  0  0
 46 45  1  0  0  0  0
M  END
>  <MODEL>
6

>  <REMARK>
 VINA RESULT:      -5.7      1.606      2.119
  Name = 
  18 active torsions:
  status: ('A' for Active; 'I' for Inactive)
    1  A    between atoms: C_2  and  C_13
    2  A    between atoms: C_3  and  C_42
    3  A    between atoms: C_6  and  C_23
    4  A    between atoms: C_6  and  N_34
    5  A    between atoms: C_7  and  C_13
    6  A    between atoms: C_7  and  N_25
    7  A    between atoms: C_10  and  C_36
    8  A    between atoms: C_10  and  C_42
    9  A    between atoms: C_10  and  C_45
   10  A    between atoms: C_13  and  C_44
   11  A    between atoms: C_18  and  C_20
   12  A    between atoms: C_20  and  C_46
   13  A    between atoms: C_22  and  C_23
   14  A    between atoms: C_24  and  C_43
   15  A    between atoms: C_27  and  N_37
   16  A    between atoms: N_28  and  C_42
   17  A    between atoms: C_32  and  C_38
   18  A    between atoms: N_34  and  C_43
                            x       y       z     vdW  Elec       q    Type
                         _______ _______ _______ _____ _____    ______ ____

>  <TORSDO>
F 18

$$$$
=
 OpenBabel11072414533D

 47 50  0  0  1  0  0  0  0  0999 V2000
  160.4820  202.3040  150.9600 C   0  0  0  0  0  3  0  0  0  0  0  0
  160.8180  203.1590  153.1420 F   0  0  0  0  0  0  0  0  0  0  0  0
  161.2400  204.7610  149.8730 C   0  0  0  0  0  3  0  0  0  0  0  0
  160.8280  203.3600  151.8040 C   0  0  0  0  0  0  0  0  0  0  0  0
  160.5210  202.4700  149.5780 C   0  0  0  0  0  3  0  0  0  0  0  0
  161.1880  204.6060  151.2660 C   0  0  0  0  0  0  0  0  0  0  0  0
  160.9130  203.6910  149.0230 C   0  0  0  0  0  0  0  0  0  0  0  0
  160.9600  207.0240  151.7550 C   0  0  2  0  0  3  0  0  0  0  0  0
  161.6320  205.7230  152.1620 C   0  0  2  0  0  3  0  0  0  0  0  0
  162.4150  206.7830  151.4060 C   0  0  0  0  0  2  0  0  0  0  0  0
  160.5510  209.2350  152.9420 C   0  0  0  0  0  0  0  0  0  0  0  0
  160.4160  209.8470  151.8490 O   0  0  0  0  0  0  0  0  0  0  0  0
  160.8310  207.8410  152.9500 N   0  0  0  0  0  2  0  0  0  0  0  0
  160.4400  209.9550  154.2550 C   0  0  1  0  0  3  0  0  0  0  0  0
  159.7190  212.3220  153.7330 C   0  0  0  0  0  3  0  0  0  0  0  0
  156.4320  213.9840  153.9670 O   0  0  0  0  0  1  0  0  0  0  0  0
  157.4200  213.0100  154.0500 C   0  0  0  0  0  0  0  0  0  0  0  0
  158.7290  213.3060  153.6620 C   0  0  0  0  0  3  0  0  0  0  0  0
  158.0930  210.7520  154.5920 C   0  0  0  0  0  3  0  0  0  0  0  0
  157.1030  211.7330  154.5160 C   0  0  0  0  0  3  0  0  0  0  0  0
  159.4020  211.0380  154.2010 C   0  0  0  0  0  0  0  0  0  0  0  0
  160.2200  208.9970  155.4290 C   0  0  0  0  0  2  0  0  0  0  0  0
  162.0990  210.2580  156.0310 C   0  0  0  0  0  1  0  0  0  0  0  0
  161.1510  209.2740  156.5120 N   0  0  0  0  0  0  0  0  0  0  0  0
  161.8990  208.0490  156.7320 C   0  0  0  0  0  1  0  0  0  0  0  0
  160.8890  203.8350  147.5300 C   0  0  2  0  0  3  0  0  0  0  0  0
  161.1440  202.3230  145.6790 O   0  0  0  0  0  1  0  0  0  0  0  0
  161.8130  202.8550  146.7850 C   0  0  0  0  0  2  0  0  0  0  0  0
  161.0800  205.3020  147.1130 C   0  0  2  0  0  3  0  0  0  0  0  0
  162.7480  205.1940  144.8540 O   0  0  0  0  0  0  0  0  0  0  0  0
  159.2010  205.8300  145.4780 C   0  0  0  0  0  1  0  0  0  0  0  0
  161.5570  205.5680  144.6610 C   0  0  0  0  0  0  0  0  0  0  0  0
  160.6170  205.5830  145.7490 N   0  0  0  0  0  0  0  0  0  0  0  0
  161.1680  206.0070  143.2890 C   0  0  0  0  0  2  0  0  0  0  0  0
  162.3600  206.2090  142.4850 N   0  0  0  0  0  2  0  0  0  0  0  0
  161.9550  206.1350  141.0940 C   0  0  0  0  0  2  0  0  0  0  0  0
  162.5620  207.2990  140.3430 C   0  0  0  0  0  2  0  0  0  0  0  0
  162.0050  209.0040  138.6430 C   0  0  0  0  0  2  0  0  0  0  0  0
  161.4730  208.2140  139.8230 C   0  0  0  0  0  3  0  0  0  0  0  0
  161.9370  209.6400  140.0130 C   0  0  0  0  0  2  0  0  0  0  0  0
  162.4540  205.8600  147.3890 C   0  0  0  0  0  0  0  0  0  0  0  0
  163.5710  205.0730  147.1460 O   0  0  0  0  0  1  0  0  0  0  0  0
  162.6270  207.0960  147.8600 C   0  0  0  0  0  3  0  0  0  0  0  0
  161.4810  208.0230  148.1020 C   0  0  0  0  0  2  0  0  0  0  0  0
  161.9520  209.2920  148.7150 C   0  0  0  0  0  0  0  0  0  0  0  0
  161.6240  210.5370  148.1250 N   0  0  0  0  0  1  0  0  0  0  0  0
  162.6070  209.2670  149.7910 O   0  0  0  0  0  0  0  0  0  0  0  0
  1  4  1  0  0  0  0
  3  6  1  0  0  0  0
  4  2  1  0  0  0  0
  5  1  2  0  0  0  0
  6  4  2  0  0  0  0
  7  5  1  0  0  0  0
  7  3  2  0  0  0  0
  8  9  1  0  0  0  0
  8 13  1  1  0  0  0
  9  6  1  6  0  0  0
 10  8  1  0  0  0  0
 10  9  1  0  0  0  0
 11 13  1  0  0  0  0
 11 14  1  0  0  0  0
 12 11  2  0  0  0  0
 14 22  1  1  0  0  0
 15 21  1  0  0  0  0
 16 17  1  0  0  0  0
 17 20  2  0  0  0  0
 18 15  2  0  0  0  0
 18 17  1  0  0  0  0
 20 19  1  0  0  0  0
 21 14  1  0  0  0  0
 21 19  2  0  0  0  0
 22 24  1  0  0  0  0
 23 24  1  0  0  0  0
 24 25  1  0  0  0  0
 26 28  1  6  0  0  0
 26  7  1  0  0  0  0
 27 28  1  0  0  0  0
 29 41  1  6  0  0  0
 29 26  1  0  0  0  0
 31 33  1  0  0  0  0
 32 30  2  0  0  0  0
 32 33  1  0  0  0  0
 33 29  1  0  0  0  0
 34 32  1  0  0  0  0
 35 34  1  0  0  0  0
 36 35  1  0  0  0  0
 37 36  1  0  0  0  0
 38 39  1  0  0  0  0
 38 40  1  0  0  0  0
 39 40  1  0  0  0  0
 39 37  1  0  0  0  0
 41 43  2  0  0  0  0
 42 41  1  0  0  0  0
 43 44  1  0  0  0  0
 44 45  1  0  0  0  0
 45 47  2  0  0  0  0
 46 45  1  0  0  0  0
M  END
>  <MODEL>
7

>  <REMARK>
 VINA RESULT:      -5.1      2.782      9.848
  Name = 
  18 active torsions:
  status: ('A' for Active; 'I' for Inactive)
    1  A    between atoms: C_2  and  C_13
    2  A    between atoms: C_3  and  C_42
    3  A    between atoms: C_6  and  C_23
    4  A    between atoms: C_6  and  N_34
    5  A    between atoms: C_7  and  C_13
    6  A    between atoms: C_7  and  N_25
    7  A    between atoms: C_10  and  C_36
    8  A    between atoms: C_10  and  C_42
    9  A    between atoms: C_10  and  C_45
   10  A    between atoms: C_13  and  C_44
   11  A    between atoms: C_18  and  C_20
   12  A    between atoms: C_20  and  C_46
   13  A    between atoms: C_22  and  C_23
   14  A    between atoms: C_24  and  C_43
   15  A    between atoms: C_27  and  N_37
   16  A    between atoms: N_28  and  C_42
   17  A    between atoms: C_32  and  C_38
   18  A    between atoms: N_34  and  C_43
                            x       y       z     vdW  Elec       q    Type
                         _______ _______ _______ _____ _____    ______ ____

>  <TORSDO>
F 18

$$$$
=
 OpenBabel11072414533D

 47 50  0  0  1  0  0  0  0  0999 V2000
  162.1480  206.2650  153.3530 C   0  0  0  0  0  3  0  0  0  0  0  0
  161.0640  207.2230  155.2260 F   0  0  0  0  0  0  0  0  0  0  0  0
  161.0250  208.2120  151.6980 C   0  0  0  0  0  3  0  0  0  0  0  0
  161.3010  207.2320  153.8940 C   0  0  0  0  0  0  0  0  0  0  0  0
  162.4410  206.2730  151.9910 C   0  0  0  0  0  3  0  0  0  0  0  0
  160.7130  208.2010  153.0650 C   0  0  0  0  0  0  0  0  0  0  0  0
  161.8960  207.2510  151.1560 C   0  0  0  0  0  0  0  0  0  0  0  0
  160.1200  210.6030  152.9320 C   0  0  2  0  0  3  0  0  0  0  0  0
  159.8610  209.2870  153.6490 C   0  0  2  0  0  3  0  0  0  0  0  0
  160.6940  210.3690  154.3150 C   0  0  0  0  0  2  0  0  0  0  0  0
  158.8230  212.7340  153.4230 C   0  0  0  0  0  0  0  0  0  0  0  0
  159.8660  213.3330  153.8020 O   0  0  0  0  0  0  0  0  0  0  0  0
  158.8940  211.3810  152.9930 N   0  0  0  0  0  2  0  0  0  0  0  0
  157.4880  213.4200  153.4300 C   0  0  1  0  0  3  0  0  0  0  0  0
  157.9230  213.8110  150.9710 C   0  0  0  0  0  3  0  0  0  0  0  0
  155.6250  214.4530  148.1550 O   0  0  0  0  0  1  0  0  0  0  0  0
  156.0890  214.2170  149.4430 C   0  0  0  0  0  0  0  0  0  0  0  0
  157.4580  214.0620  149.6770 C   0  0  0  0  0  3  0  0  0  0  0  0
  155.6520  213.8830  151.7970 C   0  0  0  0  0  3  0  0  0  0  0  0
  155.1860  214.1290  150.5040 C   0  0  0  0  0  3  0  0  0  0  0  0
  157.0170  213.7220  152.0380 C   0  0  0  0  0  0  0  0  0  0  0  0
  156.4420  212.6510  154.2440 C   0  0  0  0  0  2  0  0  0  0  0  0
  157.3860  213.2460  156.3030 C   0  0  0  0  0  1  0  0  0  0  0  0
  156.1740  213.3140  155.5110 N   0  0  0  0  0  0  0  0  0  0  0  0
  155.1850  212.5010  156.1960 C   0  0  0  0  0  1  0  0  0  0  0  0
  162.2020  207.1860  149.6890 C   0  0  2  0  0  3  0  0  0  0  0  0
  162.2210  209.5620  149.3250 O   0  0  0  0  0  1  0  0  0  0  0  0
  161.6490  208.3690  148.8740 C   0  0  0  0  0  2  0  0  0  0  0  0
  161.8340  205.8110  149.1080 C   0  0  2  0  0  3  0  0  0  0  0  0
  160.0720  206.2860  146.9710 O   0  0  0  0  0  0  0  0  0  0  0  0
  163.5890  205.3480  147.3240 C   0  0  0  0  0  1  0  0  0  0  0  0
  161.2220  205.8580  146.6720 C   0  0  0  0  0  0  0  0  0  0  0  0
  162.2100  205.6560  147.6980 N   0  0  0  0  0  0  0  0  0  0  0  0
  161.5120  205.5520  145.2410 C   0  0  0  0  0  2  0  0  0  0  0  0
  161.7190  204.1240  145.0800 N   0  0  0  0  0  2  0  0  0  0  0  0
  160.4220  203.5310  144.8120 C   0  0  0  0  0  2  0  0  0  0  0  0
  160.4440  202.0830  145.2480 C   0  0  0  0  0  2  0  0  0  0  0  0
  161.2810  200.4710  146.9230 C   0  0  0  0  0  2  0  0  0  0  0  0
  161.2030  201.9380  146.5500 C   0  0  0  0  0  3  0  0  0  0  0  0
  160.2540  201.3660  147.5790 C   0  0  0  0  0  2  0  0  0  0  0  0
  160.4180  205.3700  149.3870 C   0  0  0  0  0  0  0  0  0  0  0  0
  159.3710  206.2500  149.1520 O   0  0  0  0  0  1  0  0  0  0  0  0
  160.1420  204.1500  149.8520 C   0  0  0  0  0  3  0  0  0  0  0  0
  161.2060  203.1280  150.0850 C   0  0  0  0  0  2  0  0  0  0  0  0
  161.3960  202.8900  151.5390 C   0  0  0  0  0  0  0  0  0  0  0  0
  160.4530  203.3850  152.4740 N   0  0  0  0  0  1  0  0  0  0  0  0
  162.3720  202.2040  151.9430 O   0  0  0  0  0  0  0  0  0  0  0  0
  1  4  1  0  0  0  0
  3  6  1  0  0  0  0
  4  2  1  0  0  0  0
  5  1  2  0  0  0  0
  6  4  2  0  0  0  0
  7  3  2  0  0  0  0
  7  5  1  0  0  0  0
  8 13  1  1  0  0  0
  8  9  1  0  0  0  0
  8 10  1  0  0  0  0
  9  6  1  6  0  0  0
  9 10  1  0  0  0  0
 11 14  1  0  0  0  0
 11 12  2  0  0  0  0
 13 11  1  0  0  0  0
 14 22  1  6  0  0  0
 15 21  1  0  0  0  0
 16 17  1  0  0  0  0
 17 18  1  0  0  0  0
 17 20  2  0  0  0  0
 18 15  2  0  0  0  0
 19 21  2  0  0  0  0
 20 19  1  0  0  0  0
 21 14  1  0  0  0  0
 22 24  1  0  0  0  0
 24 25  1  0  0  0  0
 24 23  1  0  0  0  0
 26 28  1  6  0  0  0
 26  7  1  0  0  0  0
 28 27  1  0  0  0  0
 29 41  1  6  0  0  0
 29 26  1  0  0  0  0
 31 33  1  0  0  0  0
 32 30  2  0  0  0  0
 32 33  1  0  0  0  0
 33 29  1  0  0  0  0
 34 32  1  0  0  0  0
 35 34  1  0  0  0  0
 36 35  1  0  0  0  0
 36 37  1  0  0  0  0
 37 39  1  0  0  0  0
 38 40  1  0  0  0  0
 39 38  1  0  0  0  0
 39 40  1  0  0  0  0
 41 43  2  0  0  0  0
 42 41  1  0  0  0  0
 43 44  1  0  0  0  0
 44 45  1  0  0  0  0
 45 47  2  0  0  0  0
 45 46  1  0  0  0  0
M  END
>  <MODEL>
8

>  <REMARK>
 VINA RESULT:      -4.9      2.227     10.066
  Name = 
  18 active torsions:
  status: ('A' for Active; 'I' for Inactive)
    1  A    between atoms: C_2  and  C_13
    2  A    between atoms: C_3  and  C_42
    3  A    between atoms: C_6  and  C_23
    4  A    between atoms: C_6  and  N_34
    5  A    between atoms: C_7  and  C_13
    6  A    between atoms: C_7  and  N_25
    7  A    between atoms: C_10  and  C_36
    8  A    between atoms: C_10  and  C_42
    9  A    between atoms: C_10  and  C_45
   10  A    between atoms: C_13  and  C_44
   11  A    between atoms: C_18  and  C_20
   12  A    between atoms: C_20  and  C_46
   13  A    between atoms: C_22  and  C_23
   14  A    between atoms: C_24  and  C_43
   15  A    between atoms: C_27  and  N_37
   16  A    between atoms: N_28  and  C_42
   17  A    between atoms: C_32  and  C_38
   18  A    between atoms: N_34  and  C_43
                            x       y       z     vdW  Elec       q    Type
                         _______ _______ _______ _____ _____    ______ ____

>  <TORSDO>
F 18

$$$$
=
 OpenBabel11072414533D

 47 50  0  0  1  0  0  0  0  0999 V2000
  161.9250  206.2050  153.7090 C   0  0  0  0  0  3  0  0  0  0  0  0
  161.5760  207.8290  155.3950 F   0  0  0  0  0  0  0  0  0  0  0  0
  160.4420  207.7430  151.9120 C   0  0  0  0  0  3  0  0  0  0  0  0
  161.3630  207.4120  154.1260 C   0  0  0  0  0  0  0  0  0  0  0  0
  161.7550  205.7700  152.3970 C   0  0  0  0  0  3  0  0  0  0  0  0
  160.5960  208.1810  153.2350 C   0  0  0  0  0  0  0  0  0  0  0  0
  161.0270  206.5390  151.4850 C   0  0  0  0  0  0  0  0  0  0  0  0
  160.2920  210.5460  152.5650 C   0  0  2  0  0  3  0  0  0  0  0  0
  160.0500  209.5130  153.6540 C   0  0  2  0  0  3  0  0  0  0  0  0
  161.1460  210.5520  153.8170 C   0  0  0  0  0  2  0  0  0  0  0  0
  159.2220  212.6370  153.5380 C   0  0  0  0  0  0  0  0  0  0  0  0
  160.1830  212.8110  154.3350 O   0  0  0  0  0  0  0  0  0  0  0  0
  159.2230  211.5270  152.6500 N   0  0  0  0  0  2  0  0  0  0  0  0
  158.0510  213.5770  153.5160 C   0  0  1  0  0  3  0  0  0  0  0  0
  158.4350  213.6580  151.0180 C   0  0  0  0  0  3  0  0  0  0  0  0
  156.1620  214.4530  148.2220 O   0  0  0  0  0  1  0  0  0  0  0  0
  156.6350  214.2530  149.5120 C   0  0  0  0  0  0  0  0  0  0  0  0
  157.9630  213.8720  149.7200 C   0  0  0  0  0  3  0  0  0  0  0  0
  156.2540  214.2200  151.9000 C   0  0  0  0  0  3  0  0  0  0  0  0
  155.7810  214.4290  150.6030 C   0  0  0  0  0  3  0  0  0  0  0  0
  157.5780  213.8340  152.1150 C   0  0  0  0  0  0  0  0  0  0  0  0
  156.9170  213.1190  154.4380 C   0  0  0  0  0  2  0  0  0  0  0  0
  156.8910  211.4280  156.0590 C   0  0  0  0  0  1  0  0  0  0  0  0
  157.4270  212.7370  155.7460 N   0  0  0  0  0  0  0  0  0  0  0  0
  156.8430  213.6640  156.6990 C   0  0  0  0  0  1  0  0  0  0  0  0
  160.8290  206.0010  150.0980 C   0  0  2  0  0  3  0  0  0  0  0  0
  160.2190  203.6790  149.9830 O   0  0  0  0  0  1  0  0  0  0  0  0
  161.3090  204.5510  149.9070 C   0  0  0  0  0  2  0  0  0  0  0  0
  161.3780  206.9770  149.0450 C   0  0  2  0  0  3  0  0  0  0  0  0
  159.7260  206.4480  146.8330 O   0  0  0  0  0  0  0  0  0  0  0  0
  163.2600  205.9790  147.6500 C   0  0  0  0  0  1  0  0  0  0  0  0
  160.9140  206.0210  146.7680 C   0  0  0  0  0  0  0  0  0  0  0  0
  161.8460  206.3100  147.8240 N   0  0  0  0  0  0  0  0  0  0  0  0
  161.3050  205.2010  145.5850 C   0  0  0  0  0  2  0  0  0  0  0  0
  161.6410  203.8550  146.0140 N   0  0  0  0  0  2  0  0  0  0  0  0
  160.8100  202.9430  145.2500 C   0  0  0  0  0  2  0  0  0  0  0  0
  160.5260  201.7170  146.0900 C   0  0  0  0  0  2  0  0  0  0  0  0
  161.5850  200.4680  147.9410 C   0  0  0  0  0  2  0  0  0  0  0  0
  161.1860  201.8450  147.4470 C   0  0  0  0  0  3  0  0  0  0  0  0
  160.3210  201.1220  148.4530 C   0  0  0  0  0  2  0  0  0  0  0  0
  162.3660  207.9840  149.5750 C   0  0  0  0  0  0  0  0  0  0  0  0
  163.3380  207.5760  150.4780 O   0  0  0  0  0  1  0  0  0  0  0  0
  162.3360  209.2640  149.1970 C   0  0  0  0  0  3  0  0  0  0  0  0
  161.3540  209.7730  148.1940 C   0  0  0  0  0  2  0  0  0  0  0  0
  161.3190  211.2580  148.2000 C   0  0  0  0  0  0  0  0  0  0  0  0
  161.6040  211.9760  149.3880 N   0  0  0  0  0  1  0  0  0  0  0  0
  161.0820  211.8870  147.1350 O   0  0  0  0  0  0  0  0  0  0  0  0
  1  4  1  0  0  0  0
  3  6  1  0  0  0  0
  4  2  1  0  0  0  0
  5  1  2  0  0  0  0
  6  4  2  0  0  0  0
  7  3  2  0  0  0  0
  7  5  1  0  0  0  0
  8 13  1  1  0  0  0
  8  9  1  0  0  0  0
  8 10  1  0  0  0  0
  9  6  1  6  0  0  0
  9 10  1  0  0  0  0
 11 12  2  0  0  0  0
 13 11  1  0  0  0  0
 14 11  1  0  0  0  0
 14 22  1  1  0  0  0
 15 21  1  0  0  0  0
 16 17  1  0  0  0  0
 17 18  1  0  0  0  0
 17 20  2  0  0  0  0
 18 15  2  0  0  0  0
 19 21  2  0  0  0  0
 20 19  1  0  0  0  0
 21 14  1  0  0  0  0
 22 24  1  0  0  0  0
 24 23  1  0  0  0  0
 24 25  1  0  0  0  0
 26 28  1  1  0  0  0
 26  7  1  0  0  0  0
 28 27  1  0  0  0  0
 29 41  1  1  0  0  0
 29 26  1  0  0  0  0
 31 33  1  0  0  0  0
 32 30  2  0  0  0  0
 32 33  1  0  0  0  0
 33 29  1  0  0  0  0
 34 35  1  0  0  0  0
 34 32  1  0  0  0  0
 36 35  1  0  0  0  0
 36 37  1  0  0  0  0
 37 39  1  0  0  0  0
 38 40  1  0  0  0  0
 39 38  1  0  0  0  0
 39 40  1  0  0  0  0
 41 42  1  0  0  0  0
 43 41  2  0  0  0  0
 44 45  1  0  0  0  0
 44 43  1  0  0  0  0
 45 46  1  0  0  0  0
 47 45  2  0  0  0  0
M  END
>  <MODEL>
9

>  <REMARK>
 VINA RESULT:      -4.8      2.041      9.669
  Name = 
  18 active torsions:
  status: ('A' for Active; 'I' for Inactive)
    1  A    between atoms: C_2  and  C_13
    2  A    between atoms: C_3  and  C_42
    3  A    between atoms: C_6  and  C_23
    4  A    between atoms: C_6  and  N_34
    5  A    between atoms: C_7  and  C_13
    6  A    between atoms: C_7  and  N_25
    7  A    between atoms: C_10  and  C_36
    8  A    between atoms: C_10  and  C_42
    9  A    between atoms: C_10  and  C_45
   10  A    between atoms: C_13  and  C_44
   11  A    between atoms: C_18  and  C_20
   12  A    between atoms: C_20  and  C_46
   13  A    between atoms: C_22  and  C_23
   14  A    between atoms: C_24  and  C_43
   15  A    between atoms: C_27  and  N_37
   16  A    between atoms: N_28  and  C_42
   17  A    between atoms: C_32  and  C_38
   18  A    between atoms: N_34  and  C_43
                            x       y       z     vdW  Elec       q    Type
                         _______ _______ _______ _____ _____    ______ ____

>  <TORSDO>
F 18

$$$$
