=
 OpenBabel11072412423D

 66 72  0  0  1  0  0  0  0  0999 V2000
  160.5720  211.2660  152.2180 C   0  0  2  0  0  3  0  0  0  0  0  0
  160.9590  210.2530  149.1400 O   0  0  0  0  0  0  0  0  0  0  0  0
  161.8580  211.2280  153.0870 C   0  0  0  0  0  2  0  0  0  0  0  0
  161.7840  211.1430  150.0680 P   0  0  1  0  0  0  0  0  0  0  0  0
  160.7460  212.0600  151.0560 O   0  0  0  0  0  0  0  0  0  0  0  0
  163.0770  211.0570  152.1360 C   0  0  0  0  0  2  0  0  0  0  0  0
  162.7460  210.1990  151.0930 O   0  0  0  0  0  0  0  0  0  0  0  0
  158.0200  214.3710  154.6120 C   0  0  0  0  0  1  0  0  0  0  0  0
  157.1530  212.0370  154.5900 C   0  0  0  0  0  2  0  0  0  0  0  0
  159.5470  212.6020  153.9540 O   0  0  0  0  0  0  0  0  0  0  0  0
  158.7340  210.3070  153.6670 C   0  0  2  0  0  3  0  0  0  0  0  0
  158.3100  212.1900  151.9440 C   0  0  0  0  0  1  0  0  0  0  0  0
  158.4150  212.9120  154.7860 C   0  0  1  0  0  3  0  0  0  0  0  0
  159.2730  211.6060  152.9700 C   0  0  2  0  0  0  0  0  0  0  0  0
  157.4960  210.5400  154.5360 C   0  0  0  0  0  2  0  0  0  0  0  0
  160.6620  208.5320  152.1140 C   0  0  0  0  0  2  0  0  0  0  0  0
  161.2390  206.6170  153.3410 C   0  0  0  0  0  0  0  0  0  0  0  0
  160.4140  210.4050  155.2910 O   0  0  0  0  0  0  0  0  0  0  0  0
  159.8350  209.5580  154.3440 N   0  0  2  0  0  0  0  0  0  0  0  0
  160.9450  208.9820  153.5610 C   0  0  1  0  0  3  0  0  0  0  0  0
  161.3940  205.4000  153.5930 O   0  0  0  0  0  0  0  0  0  0  0  0
  160.6820  207.0880  152.1230 N   0  0  0  0  0  0  0  0  0  0  0  0
  161.0830  207.5370  155.6930 C   0  0  0  0  0  0  0  0  0  0  0  0
  162.2310  210.6470  156.7830 C   0  0  0  0  0  0  0  0  0  0  0  0
  161.1810  208.5600  156.6480 O   0  0  0  0  0  0  0  0  0  0  0  0
  161.2730  209.8950  156.2830 C   0  0  0  0  0  0  0  0  0  0  0  0
  160.6330  206.4200  156.0620 O   0  0  0  0  0  0  0  0  0  0  0  0
  161.5800  207.7490  154.2690 C   0  0  1  0  0  3  0  0  0  0  0  0
  163.2280  211.3590  157.2610 C   0  0  0  0  0  3  0  0  0  0  0  0
  164.5510  211.2730  156.6780 N   0  0  0  0  0  2  0  0  0  0  0  0
  165.7070  211.9620  157.2430 C   0  0  0  0  0  2  0  0  0  0  0  0
  166.3950  212.7310  156.1270 C   0  0  0  0  0  2  0  0  0  0  0  0
  167.7190  212.3040  156.0180 F   0  0  0  0  0  0  0  0  0  0  0  0
  160.1590  206.2520  151.0630 C   0  0  0  0  0  2  0  0  0  0  0  0
  160.8050  206.6020  149.7640 C   0  0  0  0  0  0  0  0  0  0  0  0
  160.1840  206.4190  148.6790 O   0  0  0  0  0  0  0  0  0  0  0  0
  162.0650  207.2080  149.7590 O   0  0  0  0  0  1  0  0  0  0  0  0
  162.8120  212.1390  149.1230 O   0  0  0  0  0  0  0  0  0  0  0  0
  162.7620  211.6840  147.7810 C   0  0  0  0  0  2  0  0  0  0  0  0
  162.3440  212.8440  146.8690 C   0  0  2  0  0  3  0  0  0  0  0  0
  160.5970  214.4130  147.1760 O   0  0  0  0  0  0  0  0  0  0  0  0
  162.2480  214.4500  148.8020 O   0  0  0  0  0  1  0  0  0  0  0  0
  161.6870  213.9510  147.6100 C   0  0  0  0  0  0  0  0  0  0  0  0
  161.5250  212.4250  145.6260 C   0  0  0  0  0  2  0  0  0  0  0  0
  161.4890  213.4560  144.4910 C   0  0  0  0  0  2  0  0  0  0  0  0
  162.0540  212.8170  143.2800 C   0  0  0  0  0  0  0  0  0  0  0  0
  163.3130  212.8450  143.0960 O   0  0  0  0  0  0  0  0  0  0  0  0
  161.1580  212.2650  142.3150 N   0  0  0  0  0  2  0  0  0  0  0  0
  161.5940  213.3610  140.0600 C   0  0  0  0  0  0  0  0  0  0  0  0
  161.8210  211.0440  140.3780 C   0  0  0  0  0  2  0  0  0  0  0  0
  161.4870  212.1720  140.9150 C   0  0  1  0  0  3  0  0  0  0  0  0
  162.6640  210.8910  137.9380 S   0  0  0  0  0  0  0  0  0  0  0  0
  161.2020  212.0330  137.8310 C   0  0  2  0  0  3  0  0  0  0  0  0
  162.1330  210.1710  139.4820 C   0  0  0  0  0  2  0  0  0  0  0  0
  161.4220  213.2670  138.6140 N   0  0  0  0  0  2  0  0  0  0  0  0
  161.9400  214.4520  140.5900 O   0  0  0  0  0  0  0  0  0  0  0  0
  156.1860  211.7160  139.4690 C   0  0  1  0  0  3  0  0  0  0  0  0
  156.5600  211.4730  138.0220 C   0  0  0  0  0  2  0  0  0  0  0  0
  158.5270  213.5570  138.0690 O   0  0  0  0  0  0  0  0  0  0  0  0
  159.7560  211.4710  137.8330 C   0  0  1  0  0  3  0  0  0  0  0  0
  158.1850  210.1820  139.2230 N   0  0  0  0  0  2  0  0  0  0  0  0
  159.5740  210.2790  138.7600 C   0  0  1  0  0  3  0  0  0  0  0  0
  160.1650  208.9770  138.2650 C   0  0  0  0  0  1  0  0  0  0  0  0
  157.6660  211.5400  139.0560 C   0  0  2  0  0  0  0  0  0  0  0  0
  155.8810  213.1660  139.7640 C   0  0  0  0  0  1  0  0  0  0  0  0
  158.6580  212.3560  138.3270 C   0  0  0  0  0  0  0  0  0  0  0  0
  1 14  1  0  0  0  0
  1  3  1  1  0  0  0
  4  2  2  6  0  0  0
  4  5  1  0  0  0  0
  4  7  1  0  0  0  0
  5  1  1  0  0  0  0
  6  3  1  0  0  0  0
  7  6  1  0  0  0  0
  9 13  1  0  0  0  0
 10 13  1  0  0  0  0
 11 19  1  0  0  0  0
 11 15  1  1  0  0  0
 13  8  1  6  0  0  0
 14 12  1  6  0  0  0
 14 11  1  0  0  0  0
 14 10  1  0  0  0  0
 15  9  1  0  0  0  0
 16 22  1  0  0  0  0
 17 21  2  0  0  0  0
 18 26  1  0  0  0  0
 19 18  1  1  0  0  0
 20 16  1  6  0  0  0
 20 28  1  0  0  0  0
 20 19  1  0  0  0  0
 22 17  1  0  0  0  0
 23 27  2  0  0  0  0
 23 25  1  0  0  0  0
 24 29  2  0  0  0  0
 26 25  1  0  0  0  0
 26 24  2  0  0  0  0
 28 17  1  6  0  0  0
 28 23  1  0  0  0  0
 30 31  1  0  0  0  0
 30 29  1  0  0  0  0
 32 31  1  0  0  0  0
 33 32  1  0  0  0  0
 34 22  1  0  0  0  0
 35 34  1  0  0  0  0
 36 35  2  0  0  0  0
 37 35  1  0  0  0  0
 38  4  1  0  0  0  0
 39 38  1  0  0  0  0
 40 44  1  6  0  0  0
 40 43  1  0  0  0  0
 40 39  1  0  0  0  0
 41 43  2  0  0  0  0
 43 42  1  0  0  0  0
 45 44  1  0  0  0  0
 46 45  1  0  0  0  0
 47 46  2  0  0  0  0
 48 46  1  0  0  0  0
 49 56  2  0  0  0  0
 49 51  1  0  0  0  0
 50 51  1  0  0  0  0
 51 48  1  1  0  0  0
 52 54  1  0  0  0  0
 53 60  1  0  0  0  0
 53 52  1  1  0  0  0
 53 55  1  0  0  0  0
 54 50  1  0  0  0  0
 55 49  1  0  0  0  0
 57 65  1  6  0  0  0
 58 57  1  0  0  0  0
 59 66  2  0  0  0  0
 60 66  1  1  0  0  0
 60 62  1  0  0  0  0
 62 63  1  6  0  0  0
 62 61  1  0  0  0  0
 64 58  1  6  0  0  0
 64 61  1  0  0  0  0
 64 57  1  0  0  0  0
 66 64  1  0  0  0  0
M  END
>  <MODEL>
1

>  <REMARK>
 VINA RESULT:      -1.8      0.000      0.000
  Name = 
  16 active torsions:
  status: ('A' for Active; 'I' for Inactive)
    1  A    between atoms: C_4  and  C_22
    2  A    between atoms: C_4  and  N_25
    3  A    between atoms: C_11  and  C_62
    4  A    between atoms: N_12  and  C_39
    5  A    between atoms: C_15  and  C_27
    6  A    between atoms: O_16  and  P_33
    7  A    between atoms: O_16  and  C_52
    8  A    between atoms: C_17  and  N_42
    9  A    between atoms: C_19  and  C_30
   10  A    between atoms: C_21  and  C_50
   11  A    between atoms: C_21  and  C_52
   12  A    between atoms: C_21  and  C_60
   13  A    between atoms: N_25  and  C_59
   14  A    between atoms: C_30  and  C_50
   15  A    between atoms: N_31  and  C_48
   16  A    between atoms: C_40  and  C_48
                            x       y       z     vdW  Elec       q    Type
                         _______ _______ _______ _____ _____    ______ ____

>  <TORSDO>
F 16

$$$$
=
 OpenBabel11072412423D

 66 72  0  0  1  0  0  0  0  0999 V2000
  161.7510  209.2810  148.6720 C   0  0  2  0  0  3  0  0  0  0  0  0
  159.7450  206.7740  149.2550 O   0  0  0  0  0  0  0  0  0  0  0  0
  163.2540  208.9050  148.5640 C   0  0  0  0  0  2  0  0  0  0  0  0
  160.9460  206.9680  148.3340 P   0  0  1  0  0  0  0  0  0  0  0  0
  160.9620  208.5620  147.7380 O   0  0  0  0  0  0  0  0  0  0  0  0
  163.3540  207.3610  148.4020 C   0  0  0  0  0  2  0  0  0  0  0  0
  162.3910  206.7390  149.1880 O   0  0  0  0  0  0  0  0  0  0  0  0
  163.1360  213.6530  147.7490 C   0  0  0  0  0  1  0  0  0  0  0  0
  161.0010  213.4310  149.0120 C   0  0  0  0  0  2  0  0  0  0  0  0
  162.6590  211.5180  148.8030 O   0  0  0  0  0  0  0  0  0  0  0  0
  160.4850  211.1180  149.8630 C   0  0  2  0  0  3  0  0  0  0  0  0
  160.8390  211.1060  147.3000 C   0  0  0  0  0  1  0  0  0  0  0  0
  162.4650  212.9390  148.9140 C   0  0  1  0  0  3  0  0  0  0  0  0
  161.4420  210.7870  148.6630 C   0  0  2  0  0  0  0  0  0  0  0  0
  160.1870  212.6090  150.0230 C   0  0  0  0  0  2  0  0  0  0  0  0
  158.8750  211.2830  152.4440 C   0  0  0  0  0  2  0  0  0  0  0  0
  160.2790  211.3980  154.3220 C   0  0  0  0  0  0  0  0  0  0  0  0
  161.4050  209.1680  150.7730 O   0  0  0  0  0  0  0  0  0  0  0  0
  160.9320  210.4370  151.1160 N   0  0  2  0  0  0  0  0  0  0  0  0
  159.9970  210.2460  152.2420 C   0  0  1  0  0  3  0  0  0  0  0  0
  160.7550  211.8400  155.3920 O   0  0  0  0  0  0  0  0  0  0  0  0
  159.2290  212.0460  153.6180 N   0  0  0  0  0  0  0  0  0  0  0  0
  162.2560  210.0640  153.4760 C   0  0  0  0  0  0  0  0  0  0  0  0
  162.1240  207.0940  151.6480 C   0  0  0  0  0  0  0  0  0  0  0  0
  162.8490  209.0530  152.7060 O   0  0  0  0  0  0  0  0  0  0  0  0
  162.1590  208.4100  151.6880 C   0  0  0  0  0  0  0  0  0  0  0  0
  163.0100  210.8520  154.1050 O   0  0  0  0  0  0  0  0  0  0  0  0
  160.7420  210.1590  153.6070 C   0  0  1  0  0  3  0  0  0  0  0  0
  162.0660  205.7810  151.6640 C   0  0  0  0  0  3  0  0  0  0  0  0
  161.1270  205.0870  152.5210 N   0  0  0  0  0  2  0  0  0  0  0  0
  160.7600  203.6900  152.3190 C   0  0  0  0  0  2  0  0  0  0  0  0
  161.0810  203.3180  150.8800 C   0  0  0  0  0  2  0  0  0  0  0  0
  160.1430  202.3910  150.4210 F   0  0  0  0  0  0  0  0  0  0  0  0
  158.6320  213.3130  153.9860 C   0  0  0  0  0  2  0  0  0  0  0  0
  157.2380  213.1030  154.4770 C   0  0  0  0  0  0  0  0  0  0  0  0
  156.3370  213.9460  154.2050 O   0  0  0  0  0  0  0  0  0  0  0  0
  156.9190  211.9310  155.1700 O   0  0  0  0  0  1  0  0  0  0  0  0
  160.8760  205.8130  147.0670 O   0  0  0  0  0  0  0  0  0  0  0  0
  160.4890  206.4810  145.8770 C   0  0  0  0  0  2  0  0  0  0  0  0
  160.9080  205.6390  144.6660 C   0  0  2  0  0  3  0  0  0  0  0  0
  161.6700  203.4150  144.9510 O   0  0  0  0  0  0  0  0  0  0  0  0
  163.2690  205.0550  145.3050 O   0  0  0  0  0  1  0  0  0  0  0  0
  161.9590  204.6420  144.9940 C   0  0  0  0  0  0  0  0  0  0  0  0
  161.2720  206.4570  143.4060 C   0  0  0  0  0  2  0  0  0  0  0  0
  162.2020  205.7480  142.4140 C   0  0  0  0  0  2  0  0  0  0  0  0
  162.0490  206.4090  141.0970 C   0  0  0  0  0  0  0  0  0  0  0  0
  162.7480  206.0010  140.1150 O   0  0  0  0  0  0  0  0  0  0  0  0
  161.1840  207.5400  140.9950 N   0  0  0  0  0  2  0  0  0  0  0  0
  162.3720  209.6520  140.2190 C   0  0  0  0  0  0  0  0  0  0  0  0
  160.7840  208.5580  138.8760 C   0  0  0  0  0  2  0  0  0  0  0  0
  161.3830  208.5840  140.0220 C   0  0  1  0  0  3  0  0  0  0  0  0
  161.3180  210.2730  137.0170 S   0  0  0  0  0  0  0  0  0  0  0  0
  161.2020  211.3100  138.5550 C   0  0  2  0  0  3  0  0  0  0  0  0
  160.3730  208.9300  137.7130 C   0  0  0  0  0  2  0  0  0  0  0  0
  162.2400  210.9360  139.5370 N   0  0  0  0  0  2  0  0  0  0  0  0
  163.3970  209.4010  140.9100 O   0  0  0  0  0  0  0  0  0  0  0  0
  156.1900  212.9680  138.2950 C   0  0  1  0  0  3  0  0  0  0  0  0
  156.6360  211.9680  139.3400 C   0  0  0  0  0  2  0  0  0  0  0  0
  158.3810  210.6510  137.4870 O   0  0  0  0  0  0  0  0  0  0  0  0
  159.8200  211.7090  139.1380 C   0  0  1  0  0  3  0  0  0  0  0  0
  158.3390  213.6520  139.4440 N   0  0  0  0  0  2  0  0  0  0  0  0
  159.7280  213.1790  139.5140 C   0  0  1  0  0  3  0  0  0  0  0  0
  160.4630  213.5720  140.7770 C   0  0  0  0  0  1  0  0  0  0  0  0
  157.6930  212.7000  138.5390 C   0  0  2  0  0  0  0  0  0  0  0  0
  155.7310  212.3160  137.0120 C   0  0  0  0  0  1  0  0  0  0  0  0
  158.6230  211.5890  138.2520 C   0  0  0  0  0  0  0  0  0  0  0  0
  1  3  1  6  0  0  0
  4  7  1  0  0  0  0
  4  2  2  1  0  0  0
  5  4  1  0  0  0  0
  5  1  1  0  0  0  0
  6  3  1  0  0  0  0
  6  7  1  0  0  0  0
  9 15  1  0  0  0  0
 10 13  1  0  0  0  0
 11 15  1  1  0  0  0
 11 19  1  0  0  0  0
 13  8  1  6  0  0  0
 13  9  1  0  0  0  0
 14 12  1  6  0  0  0
 14  1  1  0  0  0  0
 14 10  1  0  0  0  0
 14 11  1  0  0  0  0
 16 22  1  0  0  0  0
 17 21  2  0  0  0  0
 18 26  1  0  0  0  0
 19 18  1  6  0  0  0
 19 20  1  0  0  0  0
 20 16  1  1  0  0  0
 20 28  1  0  0  0  0
 22 34  1  0  0  0  0
 22 17  1  0  0  0  0
 23 27  2  0  0  0  0
 24 29  2  0  0  0  0
 24 26  2  0  0  0  0
 25 23  1  0  0  0  0
 26 25  1  0  0  0  0
 28 23  1  6  0  0  0
 28 17  1  0  0  0  0
 29 30  1  0  0  0  0
 31 30  1  0  0  0  0
 32 31  1  0  0  0  0
 33 32  1  0  0  0  0
 34 35  1  0  0  0  0
 35 37  1  0  0  0  0
 36 35  2  0  0  0  0
 38  4  1  0  0  0  0
 39 38  1  0  0  0  0
 40 44  1  6  0  0  0
 40 43  1  0  0  0  0
 40 39  1  0  0  0  0
 41 43  2  0  0  0  0
 43 42  1  0  0  0  0
 45 44  1  0  0  0  0
 46 45  1  0  0  0  0
 47 46  2  0  0  0  0
 48 46  1  0  0  0  0
 49 56  2  0  0  0  0
 50 51  1  0  0  0  0
 51 49  1  0  0  0  0
 51 48  1  6  0  0  0
 52 54  1  0  0  0  0
 53 52  1  6  0  0  0
 53 60  1  0  0  0  0
 53 55  1  0  0  0  0
 54 50  1  0  0  0  0
 55 49  1  0  0  0  0
 57 65  1  6  0  0  0
 57 64  1  0  0  0  0
 57 58  1  0  0  0  0
 59 66  2  0  0  0  0
 60 66  1  6  0  0  0
 60 62  1  0  0  0  0
 61 62  1  0  0  0  0
 62 63  1  1  0  0  0
 64 58  1  1  0  0  0
 64 61  1  0  0  0  0
 66 64  1  0  0  0  0
M  END
>  <MODEL>
2

>  <REMARK>
 VINA RESULT:      -1.5      3.269      6.144
  Name = 
  16 active torsions:
  status: ('A' for Active; 'I' for Inactive)
    1  A    between atoms: C_4  and  C_22
    2  A    between atoms: C_4  and  N_25
    3  A    between atoms: C_11  and  C_62
    4  A    between atoms: N_12  and  C_39
    5  A    between atoms: C_15  and  C_27
    6  A    between atoms: O_16  and  P_33
    7  A    between atoms: O_16  and  C_52
    8  A    between atoms: C_17  and  N_42
    9  A    between atoms: C_19  and  C_30
   10  A    between atoms: C_21  and  C_50
   11  A    between atoms: C_21  and  C_52
   12  A    between atoms: C_21  and  C_60
   13  A    between atoms: N_25  and  C_59
   14  A    between atoms: C_30  and  C_50
   15  A    between atoms: N_31  and  C_48
   16  A    between atoms: C_40  and  C_48
                            x       y       z     vdW  Elec       q    Type
                         _______ _______ _______ _____ _____    ______ ____

>  <TORSDO>
F 16

$$$$
=
 OpenBabel11072412423D

 66 72  0  0  1  0  0  0  0  0999 V2000
  161.7910  209.2740  148.7360 C   0  0  2  0  0  3  0  0  0  0  0  0
  159.7450  206.8020  149.3340 O   0  0  0  0  0  0  0  0  0  0  0  0
  163.2870  208.8730  148.6240 C   0  0  0  0  0  2  0  0  0  0  0  0
  160.9460  206.9740  148.4080 P   0  0  1  0  0  0  0  0  0  0  0  0
  160.9860  208.5660  147.8080 O   0  0  0  0  0  0  0  0  0  0  0  0
  163.3610  207.3270  148.4660 C   0  0  0  0  0  2  0  0  0  0  0  0
  162.3900  206.7240  149.2580 O   0  0  0  0  0  0  0  0  0  0  0  0
  163.2520  213.6220  147.8180 C   0  0  0  0  0  1  0  0  0  0  0  0
  161.1060  213.4360  149.0680 C   0  0  0  0  0  2  0  0  0  0  0  0
  162.7330  211.4960  148.8710 O   0  0  0  0  0  0  0  0  0  0  0  0
  160.5470  211.1320  149.9180 C   0  0  2  0  0  3  0  0  0  0  0  0
  160.9170  211.1120  147.3570 C   0  0  0  0  0  1  0  0  0  0  0  0
  162.5620  212.9200  148.9790 C   0  0  1  0  0  3  0  0  0  0  0  0
  161.5060  210.7850  148.7240 C   0  0  2  0  0  0  0  0  0  0  0  0
  160.2720  212.6290  150.0750 C   0  0  0  0  0  2  0  0  0  0  0  0
  158.9260  211.3300  152.4900 C   0  0  0  0  0  2  0  0  0  0  0  0
  160.3210  211.4220  154.3750 C   0  0  0  0  0  0  0  0  0  0  0  0
  161.4270  209.1680  150.8350 O   0  0  0  0  0  0  0  0  0  0  0  0
  160.9750  210.4450  151.1740 N   0  0  2  0  0  0  0  0  0  0  0  0
  160.0310  210.2730  152.2950 C   0  0  1  0  0  3  0  0  0  0  0  0
  160.8000  211.8580  155.4470 O   0  0  0  0  0  0  0  0  0  0  0  0
  159.2870  212.0880  153.6640 N   0  0  0  0  0  0  0  0  0  0  0  0
  162.2790  210.0530  153.5430 C   0  0  0  0  0  0  0  0  0  0  0  0
  162.1050  207.0830  151.7170 C   0  0  0  0  0  0  0  0  0  0  0  0
  162.8580  209.0300  152.7760 O   0  0  0  0  0  0  0  0  0  0  0  0
  162.1630  208.3980  151.7560 C   0  0  0  0  0  0  0  0  0  0  0  0
  163.0440  210.8280  154.1740 O   0  0  0  0  0  0  0  0  0  0  0  0
  160.7660  210.1740  153.6650 C   0  0  1  0  0  3  0  0  0  0  0  0
  162.0240  205.7720  151.7350 C   0  0  0  0  0  3  0  0  0  0  0  0
  161.0680  205.0950  152.5880 N   0  0  0  0  0  2  0  0  0  0  0  0
  160.7500  203.6790  152.4450 C   0  0  0  0  0  2  0  0  0  0  0  0
  161.1370  203.2430  151.0410 C   0  0  0  0  0  2  0  0  0  0  0  0
  160.1760  203.6930  150.1350 F   0  0  0  0  0  0  0  0  0  0  0  0
  158.7110  213.3650  154.0280 C   0  0  0  0  0  2  0  0  0  0  0  0
  157.3300  213.1750  154.5620 C   0  0  0  0  0  0  0  0  0  0  0  0
  156.3670  213.8330  154.0760 O   0  0  0  0  0  0  0  0  0  0  0  0
  157.0960  212.2080  155.5450 O   0  0  0  0  0  1  0  0  0  0  0  0
  160.8520  205.8170  147.1450 O   0  0  0  0  0  0  0  0  0  0  0  0
  160.4250  206.4790  145.9660 C   0  0  0  0  0  2  0  0  0  0  0  0
  160.8710  205.6690  144.7420 C   0  0  2  0  0  3  0  0  0  0  0  0
  161.7280  203.4720  144.9560 O   0  0  0  0  0  0  0  0  0  0  0  0
  163.2430  205.1660  145.4080 O   0  0  0  0  0  1  0  0  0  0  0  0
  161.9590  204.7080  145.0530 C   0  0  0  0  0  0  0  0  0  0  0  0
  161.2000  206.5170  143.4910 C   0  0  0  0  0  2  0  0  0  0  0  0
  162.0440  205.8080  142.4260 C   0  0  0  0  0  2  0  0  0  0  0  0
  161.8690  206.5380  141.1490 C   0  0  0  0  0  0  0  0  0  0  0  0
  162.2420  205.9860  140.0650 O   0  0  0  0  0  0  0  0  0  0  0  0
  161.3670  207.8740  141.1870 N   0  0  0  0  0  2  0  0  0  0  0  0
  162.9840  209.5580  140.1740 C   0  0  0  0  0  0  0  0  0  0  0  0
  160.9130  209.0710  139.1760 C   0  0  0  0  0  2  0  0  0  0  0  0
  161.6940  208.8550  140.1840 C   0  0  1  0  0  3  0  0  0  0  0  0
  161.5940  210.6320  137.2300 S   0  0  0  0  0  0  0  0  0  0  0  0
  162.0940  211.5760  138.7510 C   0  0  2  0  0  3  0  0  0  0  0  0
  160.4270  209.6090  138.1100 C   0  0  0  0  0  2  0  0  0  0  0  0
  163.1300  210.8530  139.5180 N   0  0  0  0  0  2  0  0  0  0  0  0
  163.9900  208.9710  140.6560 O   0  0  0  0  0  0  0  0  0  0  0  0
  159.1520  212.5520  143.0320 C   0  0  1  0  0  3  0  0  0  0  0  0
  159.6650  213.6740  142.1550 C   0  0  0  0  0  2  0  0  0  0  0  0
  162.1700  212.3480  141.7390 O   0  0  0  0  0  0  0  0  0  0  0  0
  161.0380  212.3480  139.5870 C   0  0  1  0  0  3  0  0  0  0  0  0
  158.7930  212.1040  140.5670 N   0  0  0  0  0  2  0  0  0  0  0  0
  159.6200  211.8400  139.3830 C   0  0  1  0  0  3  0  0  0  0  0  0
  158.9770  212.2240  138.0680 C   0  0  0  0  0  1  0  0  0  0  0  0
  159.7700  212.2510  141.6470 C   0  0  2  0  0  0  0  0  0  0  0  0
  160.1110  212.1830  144.1390 C   0  0  0  0  0  1  0  0  0  0  0  0
  161.1310  212.2750  141.0760 C   0  0  0  0  0  0  0  0  0  0  0  0
  1  3  1  6  0  0  0
  4  7  1  0  0  0  0
  4  2  2  1  0  0  0
  5  4  1  0  0  0  0
  5  1  1  0  0  0  0
  6  3  1  0  0  0  0
  6  7  1  0  0  0  0
  9 15  1  0  0  0  0
 10 13  1  0  0  0  0
 11 15  1  1  0  0  0
 11 19  1  0  0  0  0
 13  8  1  6  0  0  0
 13  9  1  0  0  0  0
 14 12  1  6  0  0  0
 14  1  1  0  0  0  0
 14 10  1  0  0  0  0
 14 11  1  0  0  0  0
 16 22  1  0  0  0  0
 17 21  2  0  0  0  0
 18 26  1  0  0  0  0
 19 18  1  6  0  0  0
 19 20  1  0  0  0  0
 20 16  1  1  0  0  0
 20 28  1  0  0  0  0
 22 34  1  0  0  0  0
 22 17  1  0  0  0  0
 23 27  2  0  0  0  0
 24 29  2  0  0  0  0
 24 26  2  0  0  0  0
 25 23  1  0  0  0  0
 26 25  1  0  0  0  0
 28 23  1  6  0  0  0
 28 17  1  0  0  0  0
 29 30  1  0  0  0  0
 31 30  1  0  0  0  0
 32 31  1  0  0  0  0
 33 32  1  0  0  0  0
 34 35  1  0  0  0  0
 35 37  1  0  0  0  0
 36 35  2  0  0  0  0
 38  4  1  0  0  0  0
 39 38  1  0  0  0  0
 40 44  1  6  0  0  0
 40 43  1  0  0  0  0
 40 39  1  0  0  0  0
 41 43  2  0  0  0  0
 43 42  1  0  0  0  0
 45 44  1  0  0  0  0
 46 48  1  0  0  0  0
 46 45  1  0  0  0  0
 47 46  2  0  0  0  0
 49 51  1  0  0  0  0
 49 56  2  0  0  0  0
 50 51  1  0  0  0  0
 51 48  1  6  0  0  0
 52 54  1  0  0  0  0
 53 52  1  1  0  0  0
 53 55  1  0  0  0  0
 53 60  1  0  0  0  0
 54 50  1  0  0  0  0
 55 49  1  0  0  0  0
 57 65  1  1  0  0  0
 58 57  1  0  0  0  0
 60 66  1  1  0  0  0
 61 64  1  0  0  0  0
 62 63  1  6  0  0  0
 62 60  1  0  0  0  0
 62 61  1  0  0  0  0
 64 58  1  6  0  0  0
 64 57  1  0  0  0  0
 66 64  1  0  0  0  0
 66 59  2  0  0  0  0
M  END
>  <MODEL>
3

>  <REMARK>
 VINA RESULT:      -0.7      3.235      6.221
  Name = 
  16 active torsions:
  status: ('A' for Active; 'I' for Inactive)
    1  A    between atoms: C_4  and  C_22
    2  A    between atoms: C_4  and  N_25
    3  A    between atoms: C_11  and  C_62
    4  A    between atoms: N_12  and  C_39
    5  A    between atoms: C_15  and  C_27
    6  A    between atoms: O_16  and  P_33
    7  A    between atoms: O_16  and  C_52
    8  A    between atoms: C_17  and  N_42
    9  A    between atoms: C_19  and  C_30
   10  A    between atoms: C_21  and  C_50
   11  A    between atoms: C_21  and  C_52
   12  A    between atoms: C_21  and  C_60
   13  A    between atoms: N_25  and  C_59
   14  A    between atoms: C_30  and  C_50
   15  A    between atoms: N_31  and  C_48
   16  A    between atoms: C_40  and  C_48
                            x       y       z     vdW  Elec       q    Type
                         _______ _______ _______ _____ _____    ______ ____

>  <TORSDO>
F 16

$$$$
