=
 OpenBabel11072411373D

 25 27  0  0  1  0  0  0  0  0999 V2000
  161.0830  207.7850  148.9040 C   0  0  0  0  0  2  0  0  0  0  0  0
  161.0180  206.7420  150.0140 C   0  0  2  0  0  3  0  0  0  0  0  0
  162.0480  209.9410  148.6380 C   0  0  0  0  0  1  0  0  0  0  0  0
  161.7990  209.5540  151.3820 C   0  0  0  0  0  1  0  0  0  0  0  0
  162.2860  208.5820  149.1150 N   0  0  0  0  0  0  0  0  0  0  0  0
  162.1720  207.0830  150.9330 C   0  0  1  0  0  3  0  0  0  0  0  0
  162.5680  208.5060  150.5560 C   0  0  2  0  0  3  0  0  0  0  0  0
  160.9330  207.6700  153.0770 N   0  0  0  0  0  2  0  0  0  0  0  0
  161.8790  206.8440  152.3860 C   0  0  0  0  0  0  0  0  0  0  0  0
  162.4580  205.8950  152.9770 O   0  0  0  0  0  0  0  0  0  0  0  0
  160.1280  206.8360  155.2890 C   0  0  0  0  0  3  0  0  0  0  0  0
  160.1230  207.3180  156.5530 N   0  0  0  0  0  0  0  0  0  0  0  0
  161.1150  208.7890  155.3450 C   0  0  0  0  0  0  0  0  0  0  0  0
  160.7810  207.7570  154.4980 C   0  0  0  0  0  0  0  0  0  0  0  0
  160.7140  208.4800  156.5510 O   0  0  0  0  0  0  0  0  0  0  0  0
  161.7320  210.0240  155.0010 N   0  0  0  0  0  1  0  0  0  0  0  0
  161.2140  205.4090  149.4630 N   0  0  0  0  0  2  0  0  0  0  0  0
  160.0440  204.3240  151.1640 O   0  0  0  0  0  0  0  0  0  0  0  0
  160.6890  204.2330  150.0840 C   0  0  0  0  0  0  0  0  0  0  0  0
  160.8140  201.6090  150.1550 C   0  0  0  0  0  3  0  0  0  0  0  0
  161.2310  202.6870  148.2010 C   0  0  0  0  0  0  0  0  0  0  0  0
  161.4240  203.6740  147.1930 N   0  0  0  0  0  1  0  0  0  0  0  0
  161.3630  201.3060  147.9670 N   0  0  0  0  0  0  0  0  0  0  0  0
  160.9140  202.9210  149.4520 C   0  0  1  0  0  3  0  0  0  0  0  0
  161.1160  200.5810  149.1440 N   0  0  0  0  0  0  0  0  0  0  0  0
  1  5  1  0  0  0  0
  1  2  1  0  0  0  0
  2 17  1  6  0  0  0
  2  6  1  0  0  0  0
  3  5  1  0  0  0  0
  5  7  1  0  0  0  0
  6  9  1  1  0  0  0
  7  6  1  0  0  0  0
  7  4  1  1  0  0  0
  8 14  1  0  0  0  0
  9 10  2  0  0  0  0
  9  8  1  0  0  0  0
 11 12  2  0  0  0  0
 13 15  1  0  0  0  0
 14 11  1  0  0  0  0
 14 13  2  0  0  0  0
 15 12  1  0  0  0  0
 16 13  1  0  0  0  0
 17 19  1  0  0  0  0
 19 18  2  0  0  0  0
 21 24  1  0  0  0  0
 22 21  1  0  0  0  0
 23 21  2  0  0  0  0
 23 25  1  0  0  0  0
 24 19  1  6  0  0  0
 24 20  1  0  0  0  0
 25 20  2  0  0  0  0
M  END
>  <MODEL>
1

>  <REMARK>
 VINA RESULT:      -7.3      0.000      0.000
  Name = 
  4 active torsions:
  status: ('A' for Active; 'I' for Inactive)
    1  A    between atoms: C_2  and  N_12
    2  A    between atoms: N_3  and  C_20
    3  A    between atoms: C_15  and  C_17
    4  A    between atoms: C_16  and  C_24
                            x       y       z     vdW  Elec       q    Type
                         _______ _______ _______ _____ _____    ______ ____

>  <TORSDO>
F 4

$$$$
=
 OpenBabel11072411373D

 25 27  0  0  1  0  0  0  0  0999 V2000
  161.0230  207.9730  154.9290 C   0  0  0  0  0  2  0  0  0  0  0  0
  161.4470  208.0790  153.4690 C   0  0  2  0  0  3  0  0  0  0  0  0
  160.0660  209.4330  156.5420 C   0  0  0  0  0  1  0  0  0  0  0  0
  161.2400  211.0780  154.6300 C   0  0  0  0  0  1  0  0  0  0  0  0
  159.9810  208.9680  155.1610 N   0  0  0  0  0  0  0  0  0  0  0  0
  160.6880  209.2730  152.9320 C   0  0  1  0  0  3  0  0  0  0  0  0
  160.2130  210.0270  154.1680 C   0  0  2  0  0  3  0  0  0  0  0  0
  160.7770  210.9690  151.0350 N   0  0  0  0  0  2  0  0  0  0  0  0
  161.4610  210.0780  151.9260 C   0  0  0  0  0  0  0  0  0  0  0  0
  162.7150  209.9730  151.8950 O   0  0  0  0  0  0  0  0  0  0  0  0
  161.2170  212.8800  149.4890 C   0  0  0  0  0  3  0  0  0  0  0  0
  161.7930  213.0170  148.2720 N   0  0  0  0  0  0  0  0  0  0  0  0
  161.9560  210.9410  148.7910 C   0  0  0  0  0  0  0  0  0  0  0  0
  161.3310  211.5550  149.8520 C   0  0  0  0  0  0  0  0  0  0  0  0
  162.2180  211.8470  147.8860 O   0  0  0  0  0  0  0  0  0  0  0  0
  162.2310  209.5540  148.6360 N   0  0  0  0  0  1  0  0  0  0  0  0
  161.0480  206.8830  152.7410 N   0  0  0  0  0  2  0  0  0  0  0  0
  162.8490  206.9480  151.2610 O   0  0  0  0  0  0  0  0  0  0  0  0
  161.8020  206.3580  151.6460 C   0  0  0  0  0  0  0  0  0  0  0  0
  161.3860  203.7650  151.5710 C   0  0  0  0  0  3  0  0  0  0  0  0
  160.8310  205.0300  149.7700 C   0  0  0  0  0  0  0  0  0  0  0  0
  160.6180  206.1080  148.8640 N   0  0  0  0  0  1  0  0  0  0  0  0
  160.5090  203.6930  149.4720 N   0  0  0  0  0  0  0  0  0  0  0  0
  161.3420  205.1310  150.9740 C   0  0  2  0  0  3  0  0  0  0  0  0
  160.8310  202.8570  150.5530 N   0  0  0  0  0  0  0  0  0  0  0  0
  1  5  1  0  0  0  0
  2 17  1  6  0  0  0
  2  1  1  0  0  0  0
  5  3  1  0  0  0  0
  6  9  1  6  0  0  0
  6  2  1  0  0  0  0
  6  7  1  0  0  0  0
  7  4  1  1  0  0  0
  7  5  1  0  0  0  0
  8  9  1  0  0  0  0
 10  9  2  0  0  0  0
 11 14  1  0  0  0  0
 12 11  2  0  0  0  0
 13 14  2  0  0  0  0
 14  8  1  0  0  0  0
 15 12  1  0  0  0  0
 15 13  1  0  0  0  0
 16 13  1  0  0  0  0
 18 19  2  0  0  0  0
 19 17  1  0  0  0  0
 21 24  1  0  0  0  0
 22 21  1  0  0  0  0
 23 21  2  0  0  0  0
 23 25  1  0  0  0  0
 24 20  1  0  0  0  0
 24 19  1  6  0  0  0
 25 20  2  0  0  0  0
M  END
>  <MODEL>
2

>  <REMARK>
 VINA RESULT:      -7.2      2.643      5.370
  Name = 
  4 active torsions:
  status: ('A' for Active; 'I' for Inactive)
    1  A    between atoms: C_2  and  N_12
    2  A    between atoms: N_3  and  C_20
    3  A    between atoms: C_15  and  C_17
    4  A    between atoms: C_16  and  C_24
                            x       y       z     vdW  Elec       q    Type
                         _______ _______ _______ _____ _____    ______ ____

>  <TORSDO>
F 4

$$$$
=
 OpenBabel11072411373D

 25 27  0  0  1  0  0  0  0  0999 V2000
  162.1170  207.0220  147.9530 C   0  0  0  0  0  2  0  0  0  0  0  0
  162.1770  208.0210  149.1030 C   0  0  2  0  0  3  0  0  0  0  0  0
  161.1980  204.8560  147.6160 C   0  0  0  0  0  1  0  0  0  0  0  0
  161.4850  205.1390  150.3690 C   0  0  0  0  0  1  0  0  0  0  0  0
  160.9360  206.1880  148.1510 N   0  0  0  0  0  0  0  0  0  0  0  0
  161.0470  207.6160  150.0250 C   0  0  1  0  0  3  0  0  0  0  0  0
  160.6770  206.2000  149.5980 C   0  0  2  0  0  3  0  0  0  0  0  0
  160.5310  208.6460  152.2950 N   0  0  0  0  0  2  0  0  0  0  0  0
  161.3590  207.8040  151.4820 C   0  0  0  0  0  0  0  0  0  0  0  0
  162.3420  207.1950  151.9790 O   0  0  0  0  0  0  0  0  0  0  0  0
  161.4280  210.3870  153.8450 C   0  0  0  0  0  3  0  0  0  0  0  0
  161.6810  210.4510  155.1730 N   0  0  0  0  0  0  0  0  0  0  0  0
  160.8480  208.5070  154.8060 C   0  0  0  0  0  0  0  0  0  0  0  0
  160.8710  209.1520  153.5910 C   0  0  0  0  0  0  0  0  0  0  0  0
  161.3280  209.3180  155.7130 O   0  0  0  0  0  0  0  0  0  0  0  0
  160.4420  207.1680  155.0670 N   0  0  0  0  0  1  0  0  0  0  0  0
  161.9400  209.3700  148.6090 N   0  0  0  0  0  2  0  0  0  0  0  0
  162.7000  210.4200  150.5470 O   0  0  0  0  0  0  0  0  0  0  0  0
  162.2360  210.5360  149.3800 C   0  0  0  0  0  0  0  0  0  0  0  0
  162.6600  212.4080  147.5850 C   0  0  0  0  0  3  0  0  0  0  0  0
  161.1550  212.7810  149.2430 C   0  0  0  0  0  0  0  0  0  0  0  0
  160.3170  212.6600  150.3880 N   0  0  0  0  0  1  0  0  0  0  0  0
  161.1900  213.9280  148.4280 N   0  0  0  0  0  0  0  0  0  0  0  0
  161.9860  211.8670  148.8020 C   0  0  2  0  0  3  0  0  0  0  0  0
  162.1080  213.7570  147.3780 N   0  0  0  0  0  0  0  0  0  0  0  0
  1  5  1  0  0  0  0
  1  2  1  0  0  0  0
  2 17  1  6  0  0  0
  2  6  1  0  0  0  0
  3  5  1  0  0  0  0
  5  7  1  0  0  0  0
  6  9  1  1  0  0  0
  7  6  1  0  0  0  0
  7  4  1  1  0  0  0
  8 14  1  0  0  0  0
  9 10  2  0  0  0  0
  9  8  1  0  0  0  0
 11 12  2  0  0  0  0
 12 15  1  0  0  0  0
 13 16  1  0  0  0  0
 13 15  1  0  0  0  0
 14 11  1  0  0  0  0
 14 13  2  0  0  0  0
 17 19  1  0  0  0  0
 19 18  2  0  0  0  0
 20 24  1  0  0  0  0
 21 22  1  0  0  0  0
 23 21  2  0  0  0  0
 24 21  1  0  0  0  0
 24 19  1  1  0  0  0
 25 20  2  0  0  0  0
 25 23  1  0  0  0  0
M  END
>  <MODEL>
3

>  <REMARK>
 VINA RESULT:      -7.1      2.559      6.235
  Name = 
  4 active torsions:
  status: ('A' for Active; 'I' for Inactive)
    1  A    between atoms: C_2  and  N_12
    2  A    between atoms: N_3  and  C_20
    3  A    between atoms: C_15  and  C_17
    4  A    between atoms: C_16  and  C_24
                            x       y       z     vdW  Elec       q    Type
                         _______ _______ _______ _____ _____    ______ ____

>  <TORSDO>
F 4

$$$$
=
 OpenBabel11072411373D

 25 27  0  0  1  0  0  0  0  0999 V2000
  162.5180  207.9260  150.6290 C   0  0  0  0  0  2  0  0  0  0  0  0
  162.2080  206.5560  151.2230 C   0  0  2  0  0  3  0  0  0  0  0  0
  161.9560  209.0920  148.6350 C   0  0  0  0  0  1  0  0  0  0  0  0
  161.6030  206.3920  148.0610 C   0  0  0  0  0  1  0  0  0  0  0  0
  161.4290  208.2720  149.7210 N   0  0  0  0  0  0  0  0  0  0  0  0
  160.9610  206.0950  150.4990 C   0  0  1  0  0  3  0  0  0  0  0  0
  160.8620  206.9930  149.2710 C   0  0  2  0  0  3  0  0  0  0  0  0
  161.4440  204.0860  149.0130 N   0  0  0  0  0  2  0  0  0  0  0  0
  160.9250  204.6170  150.2390 C   0  0  0  0  0  0  0  0  0  0  0  0
  160.4540  203.8530  151.1230 O   0  0  0  0  0  0  0  0  0  0  0  0
  161.1540  201.6190  149.2650 C   0  0  0  0  0  3  0  0  0  0  0  0
  161.0030  200.5780  148.4140 N   0  0  0  0  0  0  0  0  0  0  0  0
  161.1160  202.3440  147.2000 C   0  0  0  0  0  0  0  0  0  0  0  0
  161.2070  202.7680  148.5060 C   0  0  0  0  0  0  0  0  0  0  0  0
  160.9870  201.0430  147.1970 O   0  0  0  0  0  0  0  0  0  0  0  0
  161.2070  203.1410  146.0250 N   0  0  0  0  0  1  0  0  0  0  0  0
  161.9260  206.6780  152.6460 N   0  0  0  0  0  2  0  0  0  0  0  0
  160.5660  208.5580  152.4130 O   0  0  0  0  0  0  0  0  0  0  0  0
  161.0830  207.7010  153.1800 C   0  0  0  0  0  0  0  0  0  0  0  0
  160.0900  206.7030  155.3990 C   0  0  0  0  0  3  0  0  0  0  0  0
  161.2030  208.6800  155.4730 C   0  0  0  0  0  0  0  0  0  0  0  0
  161.9350  209.8550  155.1400 N   0  0  0  0  0  1  0  0  0  0  0  0
  160.7800  208.3760  156.7800 N   0  0  0  0  0  0  0  0  0  0  0  0
  160.8310  207.7450  154.6310 C   0  0  0  0  0  0  0  0  0  0  0  0
  160.0810  207.1580  156.8000 N   0  0  0  0  0  2  0  0  0  0  0  0
  1  2  1  0  0  0  0
  2 17  1  1  0  0  0
  3  5  1  0  0  0  0
  5  1  1  0  0  0  0
  6  9  1  6  0  0  0
  6  2  1  0  0  0  0
  7  4  1  6  0  0  0
  7  5  1  0  0  0  0
  7  6  1  0  0  0  0
  8  9  1  0  0  0  0
  9 10  2  0  0  0  0
 12 11  2  0  0  0  0
 13 14  2  0  0  0  0
 14  8  1  0  0  0  0
 14 11  1  0  0  0  0
 15 13  1  0  0  0  0
 15 12  1  0  0  0  0
 16 13  1  0  0  0  0
 17 19  1  0  0  0  0
 18 19  2  0  0  0  0
 19 24  1  0  0  0  0
 20 25  1  0  0  0  0
 21 23  2  0  0  0  0
 22 21  1  0  0  0  0
 23 25  1  0  0  0  0
 24 20  2  0  0  0  0
 24 21  1  0  0  0  0
M  END
>  <MODEL>
4

>  <REMARK>
 VINA RESULT:      -6.8      1.524      7.179
  Name = 
  4 active torsions:
  status: ('A' for Active; 'I' for Inactive)
    1  A    between atoms: C_2  and  N_12
    2  A    between atoms: N_3  and  C_20
    3  A    between atoms: C_15  and  C_17
    4  A    between atoms: C_16  and  C_24
                            x       y       z     vdW  Elec       q    Type
                         _______ _______ _______ _____ _____    ______ ____

>  <TORSDO>
F 4

$$$$
=
 OpenBabel11072411373D

 25 27  0  0  1  0  0  0  0  0999 V2000
  162.2920  209.6540  150.8660 C   0  0  0  0  0  2  0  0  0  0  0  0
  162.0020  208.3320  151.5670 C   0  0  2  0  0  3  0  0  0  0  0  0
  162.3460  210.4200  148.6160 C   0  0  0  0  0  1  0  0  0  0  0  0
  162.6640  207.6600  148.4850 C   0  0  0  0  0  1  0  0  0  0  0  0
  161.5850  209.6440  149.5900 N   0  0  0  0  0  0  0  0  0  0  0  0
  161.2070  207.5270  150.5610 C   0  0  1  0  0  3  0  0  0  0  0  0
  161.4380  208.2270  149.2260 C   0  0  2  0  0  3  0  0  0  0  0  0
  160.9210  205.1790  149.6210 N   0  0  0  0  0  2  0  0  0  0  0  0
  161.5050  206.0560  150.5940 C   0  0  0  0  0  0  0  0  0  0  0  0
  162.2900  205.6120  151.4720 O   0  0  0  0  0  0  0  0  0  0  0  0
  160.7490  203.0260  150.8750 C   0  0  0  0  0  3  0  0  0  0  0  0
  160.8280  201.7160  150.5470 N   0  0  0  0  0  0  0  0  0  0  0  0
  161.0520  202.8140  148.7170 C   0  0  0  0  0  0  0  0  0  0  0  0
  160.8690  203.7510  149.7090 C   0  0  0  0  0  0  0  0  0  0  0  0
  161.0100  201.6250  149.2600 O   0  0  0  0  0  0  0  0  0  0  0  0
  161.3100  203.0540  147.3390 N   0  0  0  0  0  1  0  0  0  0  0  0
  161.1910  208.5610  152.7540 N   0  0  0  0  0  2  0  0  0  0  0  0
  162.4540  210.3720  153.5040 O   0  0  0  0  0  0  0  0  0  0  0  0
  161.4640  209.6120  153.6840 C   0  0  0  0  0  0  0  0  0  0  0  0
  159.4350  210.7410  154.9150 C   0  0  0  0  0  3  0  0  0  0  0  0
  160.6560  209.1660  156.0030 C   0  0  0  0  0  0  0  0  0  0  0  0
  161.6170  208.1750  156.3520 N   0  0  0  0  0  1  0  0  0  0  0  0
  159.6430  209.6030  156.8750 N   0  0  0  0  0  0  0  0  0  0  0  0
  160.5840  209.7910  154.8510 C   0  0  0  0  0  0  0  0  0  0  0  0
  158.8490  210.5840  156.2570 N   0  0  0  0  0  2  0  0  0  0  0  0
  1  2  1  0  0  0  0
  2 17  1  1  0  0  0
  3  5  1  0  0  0  0
  5  1  1  0  0  0  0
  6  9  1  6  0  0  0
  6  2  1  0  0  0  0
  7  4  1  1  0  0  0
  7  5  1  0  0  0  0
  7  6  1  0  0  0  0
  8 14  1  0  0  0  0
  8  9  1  0  0  0  0
  9 10  2  0  0  0  0
 12 11  2  0  0  0  0
 13 15  1  0  0  0  0
 13 14  2  0  0  0  0
 14 11  1  0  0  0  0
 15 12  1  0  0  0  0
 16 13  1  0  0  0  0
 17 19  1  0  0  0  0
 18 19  2  0  0  0  0
 19 24  1  0  0  0  0
 20 25  1  0  0  0  0
 21 22  1  0  0  0  0
 21 23  2  0  0  0  0
 24 20  2  0  0  0  0
 24 21  1  0  0  0  0
 25 23  1  0  0  0  0
M  END
>  <MODEL>
5

>  <REMARK>
 VINA RESULT:      -6.8      1.771      7.203
  Name = 
  4 active torsions:
  status: ('A' for Active; 'I' for Inactive)
    1  A    between atoms: C_2  and  N_12
    2  A    between atoms: N_3  and  C_20
    3  A    between atoms: C_15  and  C_17
    4  A    between atoms: C_16  and  C_24
                            x       y       z     vdW  Elec       q    Type
                         _______ _______ _______ _____ _____    ______ ____

>  <TORSDO>
F 4

$$$$
=
 OpenBabel11072411373D

 25 27  0  0  1  0  0  0  0  0999 V2000
  161.7170  205.8500  150.7990 C   0  0  0  0  0  2  0  0  0  0  0  0
  161.9480  206.5100  149.4450 C   0  0  2  0  0  3  0  0  0  0  0  0
  161.1610  206.5870  152.9890 C   0  0  0  0  0  1  0  0  0  0  0  0
  162.2420  208.8000  151.6950 C   0  0  0  0  0  1  0  0  0  0  0  0
  160.8370  206.7190  151.5720 N   0  0  0  0  0  0  0  0  0  0  0  0
  161.2640  207.8570  149.5500 C   0  0  1  0  0  3  0  0  0  0  0  0
  161.0490  208.0740  151.0430 C   0  0  2  0  0  3  0  0  0  0  0  0
  161.6040  210.3250  149.0290 N   0  0  0  0  0  2  0  0  0  0  0  0
  161.9780  208.9570  148.8190 C   0  0  0  0  0  0  0  0  0  0  0  0
  162.9210  208.6600  148.0410 O   0  0  0  0  0  0  0  0  0  0  0  0
  163.1970  212.0680  148.2200 C   0  0  0  0  0  3  0  0  0  0  0  0
  163.1240  213.1100  147.3580 N   0  0  0  0  0  0  0  0  0  0  0  0
  161.2000  212.1590  147.3270 C   0  0  0  0  0  0  0  0  0  0  0  0
  161.9760  211.4290  148.1980 C   0  0  0  0  0  0  0  0  0  0  0  0
  161.9250  213.1360  146.8480 O   0  0  0  0  0  0  0  0  0  0  0  0
  159.8250  211.9600  147.0200 N   0  0  0  0  0  1  0  0  0  0  0  0
  161.3210  205.7280  148.3900 N   0  0  0  0  0  2  0  0  0  0  0  0
  163.2850  205.4430  147.1670 O   0  0  0  0  0  0  0  0  0  0  0  0
  162.0510  205.2100  147.2760 C   0  0  0  0  0  0  0  0  0  0  0  0
  161.2990  202.9180  146.2320 C   0  0  0  0  0  3  0  0  0  0  0  0
  160.6600  204.8540  145.2340 C   0  0  0  0  0  0  0  0  0  0  0  0
  160.4600  206.2240  144.9000 N   0  0  0  0  0  1  0  0  0  0  0  0
  160.1300  203.7890  144.4830 N   0  0  0  0  0  0  0  0  0  0  0  0
  161.3460  204.4090  146.2600 C   0  0  2  0  0  3  0  0  0  0  0  0
  160.4930  202.5570  145.0530 N   0  0  0  0  0  0  0  0  0  0  0  0
  1  5  1  0  0  0  0
  2 17  1  6  0  0  0
  2  6  1  0  0  0  0
  2  1  1  0  0  0  0
  5  3  1  0  0  0  0
  6  9  1  1  0  0  0
  6  7  1  0  0  0  0
  7  5  1  0  0  0  0
  7  4  1  1  0  0  0
  9  8  1  0  0  0  0
 10  9  2  0  0  0  0
 12 11  2  0  0  0  0
 13 14  2  0  0  0  0
 14 11  1  0  0  0  0
 14  8  1  0  0  0  0
 15 13  1  0  0  0  0
 15 12  1  0  0  0  0
 16 13  1  0  0  0  0
 18 19  2  0  0  0  0
 19 17  1  0  0  0  0
 20 24  1  0  0  0  0
 21 24  1  0  0  0  0
 22 21  1  0  0  0  0
 23 25  1  0  0  0  0
 23 21  2  0  0  0  0
 24 19  1  6  0  0  0
 25 20  2  0  0  0  0
M  END
>  <MODEL>
6

>  <REMARK>
 VINA RESULT:      -6.7      3.442      5.661
  Name = 
  4 active torsions:
  status: ('A' for Active; 'I' for Inactive)
    1  A    between atoms: C_2  and  N_12
    2  A    between atoms: N_3  and  C_20
    3  A    between atoms: C_15  and  C_17
    4  A    between atoms: C_16  and  C_24
                            x       y       z     vdW  Elec       q    Type
                         _______ _______ _______ _____ _____    ______ ____

>  <TORSDO>
F 4

$$$$
=
 OpenBabel11072411373D

 25 27  0  0  1  0  0  0  0  0999 V2000
  161.8270  206.8250  152.4710 C   0  0  0  0  0  2  0  0  0  0  0  0
  162.0270  207.1190  150.9880 C   0  0  2  0  0  3  0  0  0  0  0  0
  161.1100  208.0530  154.3750 C   0  0  0  0  0  1  0  0  0  0  0  0
  161.9710  209.9490  152.5300 C   0  0  0  0  0  1  0  0  0  0  0  0
  160.8240  207.7570  152.9750 N   0  0  0  0  0  0  0  0  0  0  0  0
  161.1870  208.3490  150.7210 C   0  0  1  0  0  3  0  0  0  0  0  0
  160.8950  208.9340  152.0980 C   0  0  2  0  0  3  0  0  0  0  0  0
  161.7790  210.7040  149.9570 N   0  0  0  0  0  2  0  0  0  0  0  0
  161.7930  209.2900  149.7200 C   0  0  0  0  0  0  0  0  0  0  0  0
  162.3320  208.8160  148.6860 O   0  0  0  0  0  0  0  0  0  0  0  0
  163.2030  211.8510  148.2570 C   0  0  0  0  0  3  0  0  0  0  0  0
  163.0910  212.9740  147.5110 N   0  0  0  0  0  0  0  0  0  0  0  0
  161.2770  212.8150  148.6470 C   0  0  0  0  0  0  0  0  0  0  0  0
  162.0370  211.7170  148.9790 C   0  0  0  0  0  0  0  0  0  0  0  0
  161.9380  213.5240  147.7690 O   0  0  0  0  0  0  0  0  0  0  0  0
  160.0150  213.1890  149.1880 N   0  0  0  0  0  1  0  0  0  0  0  0
  161.5340  206.0100  150.1850 N   0  0  0  0  0  2  0  0  0  0  0  0
  162.3120  204.3600  151.6370 O   0  0  0  0  0  0  0  0  0  0  0  0
  161.6990  204.6440  150.5730 C   0  0  0  0  0  0  0  0  0  0  0  0
  160.3960  202.3910  150.2080 C   0  0  0  0  0  3  0  0  0  0  0  0
  161.2340  203.4910  148.4080 C   0  0  0  0  0  0  0  0  0  0  0  0
  161.8790  204.4280  147.5510 N   0  0  0  0  0  1  0  0  0  0  0  0
  160.5910  202.3300  147.9410 N   0  0  0  0  0  0  0  0  0  0  0  0
  161.1530  203.5780  149.7150 C   0  0  1  0  0  3  0  0  0  0  0  0
  160.0490  201.6030  149.0130 N   0  0  0  0  0  0  0  0  0  0  0  0
  1  5  1  0  0  0  0
  2 17  1  6  0  0  0
  2  1  1  0  0  0  0
  5  3  1  0  0  0  0
  6  9  1  6  0  0  0
  6  2  1  0  0  0  0
  6  7  1  0  0  0  0
  7  4  1  1  0  0  0
  7  5  1  0  0  0  0
  9  8  1  0  0  0  0
 10  9  2  0  0  0  0
 11 14  1  0  0  0  0
 12 15  1  0  0  0  0
 12 11  2  0  0  0  0
 13 14  2  0  0  0  0
 13 16  1  0  0  0  0
 14  8  1  0  0  0  0
 15 13  1  0  0  0  0
 17 19  1  0  0  0  0
 19 18  2  0  0  0  0
 21 24  1  0  0  0  0
 22 21  1  0  0  0  0
 23 21  2  0  0  0  0
 23 25  1  0  0  0  0
 24 20  1  0  0  0  0
 24 19  1  6  0  0  0
 25 20  2  0  0  0  0
M  END
>  <MODEL>
7

>  <REMARK>
 VINA RESULT:      -6.4      2.861      4.986
  Name = 
  4 active torsions:
  status: ('A' for Active; 'I' for Inactive)
    1  A    between atoms: C_2  and  N_12
    2  A    between atoms: N_3  and  C_20
    3  A    between atoms: C_15  and  C_17
    4  A    between atoms: C_16  and  C_24
                            x       y       z     vdW  Elec       q    Type
                         _______ _______ _______ _____ _____    ______ ____

>  <TORSDO>
F 4

$$$$
=
 OpenBabel11072411373D

 25 27  0  0  1  0  0  0  0  0999 V2000
  162.1000  207.8770  148.3200 C   0  0  0  0  0  2  0  0  0  0  0  0
  162.1060  209.1450  149.1660 C   0  0  2  0  0  3  0  0  0  0  0  0
  161.6130  205.5790  148.6850 C   0  0  0  0  0  1  0  0  0  0  0  0
  162.2060  206.6370  151.1890 C   0  0  0  0  0  1  0  0  0  0  0  0
  161.1550  206.9450  148.9260 N   0  0  0  0  0  0  0  0  0  0  0  0
  161.2210  208.8230  150.3510 C   0  0  1  0  0  3  0  0  0  0  0  0
  161.0980  207.3030  150.3500 C   0  0  2  0  0  3  0  0  0  0  0  0
  160.8230  209.4530  152.7850 N   0  0  0  0  0  2  0  0  0  0  0  0
  161.6820  209.4460  151.6370 C   0  0  0  0  0  0  0  0  0  0  0  0
  162.8390  209.9380  151.6960 O   0  0  0  0  0  0  0  0  0  0  0  0
  161.6480  209.8620  155.1060 C   0  0  0  0  0  3  0  0  0  0  0  0
  161.5240  210.8650  156.0060 N   0  0  0  0  0  0  0  0  0  0  0  0
  160.4770  211.4980  154.2430 C   0  0  0  0  0  0  0  0  0  0  0  0
  161.0000  210.2580  153.9560 C   0  0  0  0  0  0  0  0  0  0  0  0
  160.8210  211.8190  155.4630 O   0  0  0  0  0  0  0  0  0  0  0  0
  159.6460  212.2990  153.4110 N   0  0  0  0  0  1  0  0  0  0  0  0
  161.5300  210.2520  148.4170 N   0  0  0  0  0  2  0  0  0  0  0  0
  163.2760  211.7270  148.8810 O   0  0  0  0  0  0  0  0  0  0  0  0
  162.1740  211.5230  148.3020 C   0  0  0  0  0  0  0  0  0  0  0  0
  161.9170  212.9570  146.1150 C   0  0  0  0  0  3  0  0  0  0  0  0
  160.5520  213.3720  147.8800 C   0  0  0  0  0  0  0  0  0  0  0  0
  159.8990  213.3450  149.1450 N   0  0  0  0  0  1  0  0  0  0  0  0
  160.2090  214.2680  146.8510 N   0  0  0  0  0  0  0  0  0  0  0  0
  161.5360  212.5870  147.5090 C   0  0  2  0  0  3  0  0  0  0  0  0
  161.0230  214.0600  145.7260 N   0  0  0  0  0  0  0  0  0  0  0  0
  1  5  1  0  0  0  0
  1  2  1  0  0  0  0
  2 17  1  6  0  0  0
  2  6  1  0  0  0  0
  3  5  1  0  0  0  0
  5  7  1  0  0  0  0
  6  9  1  1  0  0  0
  7  6  1  0  0  0  0
  7  4  1  1  0  0  0
  8 14  1  0  0  0  0
  9 10  2  0  0  0  0
  9  8  1  0  0  0  0
 11 12  2  0  0  0  0
 13 15  1  0  0  0  0
 14 13  2  0  0  0  0
 14 11  1  0  0  0  0
 15 12  1  0  0  0  0
 16 13  1  0  0  0  0
 19 17  1  0  0  0  0
 19 18  2  0  0  0  0
 20 24  1  0  0  0  0
 21 22  1  0  0  0  0
 23 21  2  0  0  0  0
 24 21  1  0  0  0  0
 24 19  1  1  0  0  0
 25 20  2  0  0  0  0
 25 23  1  0  0  0  0
M  END
>  <MODEL>
8

>  <REMARK>
 VINA RESULT:      -6.4      3.365      6.693
  Name = 
  4 active torsions:
  status: ('A' for Active; 'I' for Inactive)
    1  A    between atoms: C_2  and  N_12
    2  A    between atoms: N_3  and  C_20
    3  A    between atoms: C_15  and  C_17
    4  A    between atoms: C_16  and  C_24
                            x       y       z     vdW  Elec       q    Type
                         _______ _______ _______ _____ _____    ______ ____

>  <TORSDO>
F 4

$$$$
=
 OpenBabel11072411373D

 25 27  0  0  1  0  0  0  0  0999 V2000
  162.2390  206.5190  152.0090 C   0  0  0  0  0  2  0  0  0  0  0  0
  162.6130  207.4830  150.8870 C   0  0  2  0  0  3  0  0  0  0  0  0
  160.8150  206.5800  153.9110 C   0  0  0  0  0  1  0  0  0  0  0  0
  161.3530  209.2360  153.2810 C   0  0  0  0  0  1  0  0  0  0  0  0
  160.9120  206.8910  152.4880 N   0  0  0  0  0  0  0  0  0  0  0  0
  161.4870  208.4940  150.8570 C   0  0  1  0  0  3  0  0  0  0  0  0
  160.7660  208.3230  152.1880 C   0  0  2  0  0  3  0  0  0  0  0  0
  161.3160  210.6120  149.4550 N   0  0  0  0  0  2  0  0  0  0  0  0
  161.9370  209.8880  150.5250 C   0  0  0  0  0  0  0  0  0  0  0  0
  162.8480  210.4160  151.2150 O   0  0  0  0  0  0  0  0  0  0  0  0
  163.0050  211.8840  148.1260 C   0  0  0  0  0  3  0  0  0  0  0  0
  163.1820  213.1830  147.7900 N   0  0  0  0  0  0  0  0  0  0  0  0
  161.3650  213.0920  148.9290 C   0  0  0  0  0  0  0  0  0  0  0  0
  161.8290  211.7990  148.8410 C   0  0  0  0  0  0  0  0  0  0  0  0
  162.1930  213.8720  148.2850 O   0  0  0  0  0  0  0  0  0  0  0  0
  160.2220  213.5530  149.6410 N   0  0  0  0  0  1  0  0  0  0  0  0
  162.6660  206.7770  149.6160 N   0  0  0  0  0  2  0  0  0  0  0  0
  160.3740  206.3570  149.5330 O   0  0  0  0  0  0  0  0  0  0  0  0
  161.5020  206.2440  148.9810 C   0  0  0  0  0  0  0  0  0  0  0  0
  161.9180  206.2390  146.3850 C   0  0  0  0  0  3  0  0  0  0  0  0
  161.5340  204.2720  147.4510 C   0  0  0  0  0  0  0  0  0  0  0  0
  161.2670  203.2700  148.4270 N   0  0  0  0  0  1  0  0  0  0  0  0
  161.7220  203.9910  146.0850 N   0  0  0  0  0  0  0  0  0  0  0  0
  161.6360  205.5590  147.6830 C   0  0  1  0  0  3  0  0  0  0  0  0
  161.9660  205.1750  145.3690 N   0  0  0  0  0  0  0  0  0  0  0  0
  1  5  1  0  0  0  0
  2 17  1  6  0  0  0
  2  1  1  0  0  0  0
  5  3  1  0  0  0  0
  6  9  1  1  0  0  0
  6  2  1  0  0  0  0
  6  7  1  0  0  0  0
  7  5  1  0  0  0  0
  7  4  1  1  0  0  0
  8  9  1  0  0  0  0
  9 10  2  0  0  0  0
 11 14  1  0  0  0  0
 12 11  2  0  0  0  0
 12 15  1  0  0  0  0
 13 16  1  0  0  0  0
 14 13  2  0  0  0  0
 14  8  1  0  0  0  0
 15 13  1  0  0  0  0
 19 18  2  0  0  0  0
 19 17  1  0  0  0  0
 20 24  1  0  0  0  0
 21 24  1  0  0  0  0
 21 22  1  0  0  0  0
 23 21  2  0  0  0  0
 24 19  1  1  0  0  0
 25 23  1  0  0  0  0
 25 20  2  0  0  0  0
M  END
>  <MODEL>
9

>  <REMARK>
 VINA RESULT:      -6.3      3.096      5.358
  Name = 
  4 active torsions:
  status: ('A' for Active; 'I' for Inactive)
    1  A    between atoms: C_2  and  N_12
    2  A    between atoms: N_3  and  C_20
    3  A    between atoms: C_15  and  C_17
    4  A    between atoms: C_16  and  C_24
                            x       y       z     vdW  Elec       q    Type
                         _______ _______ _______ _____ _____    ______ ____

>  <TORSDO>
F 4

$$$$
