=
 OpenBabel11072410343D

 54 59  0  0  1  0  0  0  0  0999 V2000
  161.5890  209.9550  156.3910 C   0  0  0  0  0  3  0  0  0  0  0  0
  160.9900  210.8920  157.1260 C   0  0  0  0  0  3  0  0  0  0  0  0
  159.6150  214.3970  152.7750 O   0  0  0  0  0  0  0  0  0  0  0  0
  159.6830  211.7400  155.2920 C   0  0  0  0  0  0  0  0  0  0  0  0
  159.1830  213.2640  152.6080 C   0  0  0  0  0  0  0  0  0  0  0  0
  159.7270  212.3660  151.5360 C   0  0  2  0  0  3  0  0  0  0  0  0
  158.6550  212.6000  154.8670 O   0  0  0  0  0  0  0  0  0  0  0  0
  158.1510  212.6960  153.5390 C   0  0  1  0  0  3  0  0  0  0  0  0
  161.0280  210.3010  151.0590 C   0  0  0  0  0  2  0  0  0  0  0  0
  159.9100  210.5910  153.1530 O   0  0  0  0  0  0  0  0  0  0  0  0
  161.8330  211.0370  149.9880 C   0  0  2  0  0  3  0  0  0  0  0  0
  160.6060  211.2750  152.1480 C   0  0  2  0  0  3  0  0  0  0  0  0
  161.0080  212.1770  149.3730 C   0  0  1  0  0  3  0  0  0  0  0  0
  160.5680  210.9440  154.3340 C   0  0  2  0  0  3  0  0  0  0  0  0
  161.1030  209.6750  155.0030 C   0  0  0  0  0  2  0  0  0  0  0  0
  159.9440  211.7020  156.5680 N   0  0  0  0  0  0  0  0  0  0  0  0
  160.5120  213.1290  150.4680 C   0  0  0  0  0  2  0  0  0  0  0  0
  156.8810  213.5360  153.5280 C   0  0  0  0  0  2  0  0  0  0  0  0
  156.4590  213.9060  154.9410 C   0  0  0  0  0  2  0  0  0  0  0  0
  155.0730  213.8060  155.0780 O   0  0  0  0  0  0  0  0  0  0  0  0
  154.8670  213.6490  156.4500 C   0  0  0  0  0  2  0  0  0  0  0  0
  156.1190  214.0430  157.2030 C   0  0  0  0  0  1  0  0  0  0  0  0
  161.8510  212.9620  148.3720 C   0  0  0  0  0  2  0  0  0  0  0  0
  161.0170  213.4430  147.1940 C   0  0  0  0  0  2  0  0  0  0  0  0
  160.3610  212.2660  146.4930 C   0  0  0  0  0  2  0  0  0  0  0  0
  159.5070  212.7390  145.4130 N   0  0  0  0  0  2  0  0  0  0  0  0
  159.0250  213.4380  143.0410 C   0  0  0  0  0  1  0  0  0  0  0  0
  161.2110  212.7560  143.7660 N   0  0  0  0  0  2  0  0  0  0  0  0
  159.9740  212.9590  144.0780 C   0  0  0  0  0  0  0  0  0  0  0  0
  162.2880  210.0440  148.9210 C   0  0  0  0  0  2  0  0  0  0  0  0
  161.4780  208.7420  149.0020 C   0  0  0  0  0  2  0  0  0  0  0  0
  162.1330  207.5820  148.3780 N   0  0  0  0  0  0  0  0  0  0  0  0
  161.2270  206.8810  147.4720 C   0  0  0  0  0  2  0  0  0  0  0  0
  162.4230  204.8350  146.6210 C   0  0  0  0  0  2  0  0  0  0  0  0
  161.2460  203.8570  146.5110 C   0  0  1  0  0  3  0  0  0  0  0  0
  161.1330  206.3640  145.0360 C   0  0  0  0  0  2  0  0  0  0  0  0
  160.4350  204.0180  145.2720 N   0  0  1  0  0  0  0  0  0  0  0  0
  160.9850  205.0110  144.3450 C   0  0  0  0  0  2  0  0  0  0  0  0
  161.9900  206.2710  146.3030 C   0  0  1  0  0  3  0  0  0  0  0  0
  161.4480  202.9530  145.3790 C   0  0  2  0  0  3  0  0  0  0  0  0
  159.8640  201.1860  144.8200 C   0  0  0  0  0  2  0  0  0  0  0  0
  160.7940  201.6360  145.6510 C   0  0  0  0  0  0  0  0  0  0  0  0
  161.6720  199.9030  147.5520 O   0  0  0  0  0  0  0  0  0  0  0  0
  160.8480  200.7850  148.2450 C   0  0  0  0  0  0  0  0  0  0  0  0
  160.1560  201.2820  149.6380 S   0  0  0  0  0  0  0  0  0  0  0  0
  161.0480  200.9360  146.8670 N   0  0  0  0  0  0  0  0  0  0  0  0
  162.5440  206.6430  149.4130 C   0  0  0  0  0  2  0  0  0  0  0  0
  161.4310  206.4710  150.4450 C   0  0  2  0  0  3  0  0  0  0  0  0
  162.7330  205.9410  152.5300 C   0  0  0  0  0  1  0  0  0  0  0  0
  161.8240  206.9450  151.8480 C   0  0  2  0  0  3  0  0  0  0  0  0
  160.6990  207.1850  152.6390 O   0  0  0  0  0  1  0  0  0  0  0  0
  161.4780  204.1240  149.5680 O   0  0  0  0  0  0  0  0  0  0  0  0
  160.9760  205.0490  150.4750 C   0  0  0  0  0  0  0  0  0  0  0  0
  160.1220  204.6900  151.3240 O   0  0  0  0  0  1  0  0  0  0  0  0
  1  2  2  0  0  0  0
  4 16  2  0  0  0  0
  5  3  2  0  0  0  0
  5  8  1  0  0  0  0
  6 17  1  6  0  0  0
  6 12  1  0  0  0  0
  6  5  1  0  0  0  0
  7  4  1  0  0  0  0
  8 18  1  1  0  0  0
  8  7  1  0  0  0  0
 10 14  1  0  0  0  0
 11 30  1  6  0  0  0
 11  9  1  0  0  0  0
 12  9  1  6  0  0  0
 12 10  1  0  0  0  0
 13 23  1  6  0  0  0
 13 11  1  0  0  0  0
 13 17  1  0  0  0  0
 14 15  1  1  0  0  0
 14  4  1  0  0  0  0
 15  1  1  0  0  0  0
 16  2  1  0  0  0  0
 18 19  1  0  0  0  0
 19 20  1  0  0  0  0
 20 21  1  0  0  0  0
 21 22  1  0  0  0  0
 24 23  1  0  0  0  0
 25 24  1  0  0  0  0
 26 25  1  0  0  0  0
 27 29  1  0  0  0  0
 28 29  2  0  0  0  0
 29 26  1  0  0  0  0
 30 31  1  0  0  0  0
 32 31  1  0  0  0  0
 32 47  1  0  0  0  0
 33 32  1  0  0  0  0
 35 34  1  6  0  0  0
 36 39  1  0  0  0  0
 37 38  1  6  0  0  0
 37 40  1  0  0  0  0
 37 35  1  0  0  0  0
 38 36  1  0  0  0  0
 39 34  1  0  0  0  0
 39 33  1  1  0  0  0
 40 42  1  1  0  0  0
 40 35  1  0  0  0  0
 41 42  2  0  0  0  0
 42 46  1  0  0  0  0
 43 44  1  0  0  0  0
 44 45  2  0  0  0  0
 46 43  1  0  0  0  0
 46 44  1  0  0  0  0
 48 47  1  6  0  0  0
 48 53  1  0  0  0  0
 48 50  1  0  0  0  0
 50 49  1  1  0  0  0
 50 51  1  0  0  0  0
 52 53  2  0  0  0  0
 53 54  1  0  0  0  0
M  END
>  <MODEL>
1

>  <REMARK>
 VINA RESULT:      -5.7      0.000      0.000
  Name = 
  19 active torsions:
  status: ('A' for Active; 'I' for Inactive)
    1  A    between atoms: N_1  and  C_22
    2  A    between atoms: N_1  and  C_27
    3  A    between atoms: N_1  and  C_48
    4  A    between atoms: C_3  and  O_19
    5  A    between atoms: C_8  and  C_22
    6  A    between atoms: C_8  and  C_34
    7  A    between atoms: C_9  and  C_21
    8  A    between atoms: C_9  and  C_51
    9  A    between atoms: N_10  and  C_21
   10  A    between atoms: O_19  and  C_46
   11  A    between atoms: C_23  and  C_52
   12  A    between atoms: C_27  and  C_42
   13  A    between atoms: C_29  and  C_42
   14  A    between atoms: C_31  and  C_42
   15  A    between atoms: C_36  and  N_47
   16  A    between atoms: C_36  and  C_54
   17  A    between atoms: C_39  and  C_51
   18  A    between atoms: C_43  and  C_48
   19  A    between atoms: C_46  and  C_52
                            x       y       z     vdW  Elec       q    Type
                         _______ _______ _______ _____ _____    ______ ____

>  <TORSDO>
F 19

$$$$
=
 OpenBabel11072410343D

 54 59  0  0  1  0  0  0  0  0999 V2000
  162.5840  205.7890  145.3520 C   0  0  0  0  0  3  0  0  0  0  0  0
  162.7880  204.5010  145.6290 C   0  0  0  0  0  3  0  0  0  0  0  0
  162.6150  204.9970  151.3580 O   0  0  0  0  0  0  0  0  0  0  0  0
  161.7840  204.6330  147.8120 C   0  0  0  0  0  0  0  0  0  0  0  0
  161.6060  205.4420  150.8270 C   0  0  0  0  0  0  0  0  0  0  0  0
  161.3030  206.9120  150.8250 C   0  0  2  0  0  3  0  0  0  0  0  0
  161.3350  203.9460  148.9530 O   0  0  0  0  0  0  0  0  0  0  0  0
  160.6790  204.5350  150.0710 C   0  0  1  0  0  3  0  0  0  0  0  0
  161.1000  208.9590  149.4280 C   0  0  0  0  0  2  0  0  0  0  0  0
  160.8430  206.7860  148.4640 O   0  0  0  0  0  0  0  0  0  0  0  0
  161.9060  209.7580  150.4530 C   0  0  2  0  0  3  0  0  0  0  0  0
  161.5470  207.5060  149.4370 C   0  0  2  0  0  3  0  0  0  0  0  0
  161.7300  209.1690  151.8610 C   0  0  1  0  0  3  0  0  0  0  0  0
  161.8370  206.1560  147.7100 C   0  0  2  0  0  3  0  0  0  0  0  0
  161.7210  206.6160  146.2540 C   0  0  0  0  0  2  0  0  0  0  0  0
  162.2660  203.9200  146.8340 N   0  0  0  0  0  0  0  0  0  0  0  0
  162.1080  207.6840  151.8710 C   0  0  0  0  0  2  0  0  0  0  0  0
  160.1190  203.4460  150.9750 C   0  0  0  0  0  2  0  0  0  0  0  0
  159.8440  202.1730  150.1910 C   0  0  0  0  0  2  0  0  0  0  0  0
  160.7190  201.1590  150.5840 O   0  0  0  0  0  0  0  0  0  0  0  0
  161.5220  200.9340  149.4650 C   0  0  0  0  0  2  0  0  0  0  0  0
  160.6590  200.8600  148.2240 C   0  0  0  0  0  1  0  0  0  0  0  0
  162.6090  209.9160  152.8610 C   0  0  0  0  0  2  0  0  0  0  0  0
  161.7740  210.6660  153.8870 C   0  0  0  0  0  2  0  0  0  0  0  0
  161.1480  209.6960  154.8740 C   0  0  0  0  0  2  0  0  0  0  0  0
  160.6070  210.4210  156.0140 N   0  0  0  0  0  2  0  0  0  0  0  0
  158.8180  211.6820  157.2600 C   0  0  0  0  0  1  0  0  0  0  0  0
  158.4920  210.8430  155.0340 N   0  0  0  0  0  2  0  0  0  0  0  0
  159.2830  210.9630  156.0470 C   0  0  0  0  0  0  0  0  0  0  0  0
  161.4800  211.2220  150.4070 C   0  0  0  0  0  2  0  0  0  0  0  0
  161.5650  211.7740  148.9760 C   0  0  0  0  0  2  0  0  0  0  0  0
  160.5790  212.8220  148.6720 N   0  0  0  0  0  0  0  0  0  0  0  0
  160.9740  213.6030  147.5020 C   0  0  0  0  0  2  0  0  0  0  0  0
  160.2270  212.3590  145.4450 C   0  0  0  0  0  2  0  0  0  0  0  0
  159.8810  213.5370  144.5240 C   0  0  1  0  0  3  0  0  0  0  0  0
  162.5740  213.3430  145.6100 C   0  0  0  0  0  2  0  0  0  0  0  0
  161.0610  214.1450  143.8470 N   0  0  1  0  0  0  0  0  0  0  0  0
  162.3120  213.4290  144.1090 C   0  0  0  0  0  2  0  0  0  0  0  0
  161.4090  212.6910  146.3610 C   0  0  1  0  0  3  0  0  0  0  0  0
  160.1860  213.1940  143.1360 C   0  0  2  0  0  3  0  0  0  0  0  0
  158.1450  214.4530  142.6930 C   0  0  0  0  0  2  0  0  0  0  0  0
  159.2630  213.9250  142.2130 C   0  0  0  0  0  0  0  0  0  0  0  0
  159.0160  213.8280  139.5080 O   0  0  0  0  0  0  0  0  0  0  0  0
  160.3750  214.0340  139.7220 C   0  0  0  0  0  0  0  0  0  0  0  0
  161.8860  214.2450  139.1400 S   0  0  0  0  0  0  0  0  0  0  0  0
  159.4950  213.9290  140.8060 N   0  0  0  0  0  0  0  0  0  0  0  0
  160.4770  213.7340  149.8030 C   0  0  0  0  0  2  0  0  0  0  0  0
  159.0120  213.9810  150.1550 C   0  0  2  0  0  3  0  0  0  0  0  0
  157.3490  213.8850  152.0390 C   0  0  0  0  0  1  0  0  0  0  0  0
  158.5450  213.2110  151.3950 C   0  0  2  0  0  3  0  0  0  0  0  0
  159.5750  213.0730  152.3260 O   0  0  0  0  0  1  0  0  0  0  0  0
  157.3540  212.5250  148.9670 O   0  0  0  0  0  1  0  0  0  0  0  0
  158.1430  213.6690  148.9820 C   0  0  0  0  0  0  0  0  0  0  0  0
  158.1360  214.4440  147.9920 O   0  0  0  0  0  0  0  0  0  0  0  0
  1  2  2  0  0  0  0
  1 15  1  0  0  0  0
  2 16  1  0  0  0  0
  4  7  1  0  0  0  0
  5  3  2  0  0  0  0
  6  5  1  0  0  0  0
  6 17  1  1  0  0  0
  7  8  1  0  0  0  0
  8  5  1  0  0  0  0
  8 18  1  1  0  0  0
  9 11  1  0  0  0  0
 10 12  1  0  0  0  0
 11 30  1  1  0  0  0
 11 13  1  0  0  0  0
 12  9  1  1  0  0  0
 12  6  1  0  0  0  0
 13 17  1  0  0  0  0
 13 23  1  1  0  0  0
 14 15  1  6  0  0  0
 14  4  1  0  0  0  0
 14 10  1  0  0  0  0
 16  4  2  0  0  0  0
 19 20  1  0  0  0  0
 19 18  1  0  0  0  0
 21 20  1  0  0  0  0
 22 21  1  0  0  0  0
 23 24  1  0  0  0  0
 24 25  1  0  0  0  0
 25 26  1  0  0  0  0
 26 29  1  0  0  0  0
 28 29  2  0  0  0  0
 29 27  1  0  0  0  0
 31 30  1  0  0  0  0
 32 31  1  0  0  0  0
 32 47  1  0  0  0  0
 33 32  1  0  0  0  0
 34 39  1  0  0  0  0
 35 34  1  1  0  0  0
 36 39  1  0  0  0  0
 37 38  1  1  0  0  0
 37 35  1  0  0  0  0
 38 36  1  0  0  0  0
 39 33  1  1  0  0  0
 40 42  1  6  0  0  0
 40 37  1  0  0  0  0
 40 35  1  0  0  0  0
 42 41  2  0  0  0  0
 43 44  1  0  0  0  0
 43 46  1  0  0  0  0
 44 46  1  0  0  0  0
 45 44  2  0  0  0  0
 46 42  1  0  0  0  0
 48 47  1  6  0  0  0
 48 50  1  0  0  0  0
 50 49  1  1  0  0  0
 50 51  1  0  0  0  0
 52 53  1  0  0  0  0
 53 48  1  0  0  0  0
 54 53  2  0  0  0  0
M  END
>  <MODEL>
2

>  <REMARK>
 VINA RESULT:      -4.9      3.499     10.210
  Name = 
  19 active torsions:
  status: ('A' for Active; 'I' for Inactive)
    1  A    between atoms: N_1  and  C_22
    2  A    between atoms: N_1  and  C_27
    3  A    between atoms: N_1  and  C_48
    4  A    between atoms: C_3  and  O_19
    5  A    between atoms: C_8  and  C_22
    6  A    between atoms: C_8  and  C_34
    7  A    between atoms: C_9  and  C_21
    8  A    between atoms: C_9  and  C_51
    9  A    between atoms: N_10  and  C_21
   10  A    between atoms: O_19  and  C_46
   11  A    between atoms: C_23  and  C_52
   12  A    between atoms: C_27  and  C_42
   13  A    between atoms: C_29  and  C_42
   14  A    between atoms: C_31  and  C_42
   15  A    between atoms: C_36  and  N_47
   16  A    between atoms: C_36  and  C_54
   17  A    between atoms: C_39  and  C_51
   18  A    between atoms: C_43  and  C_48
   19  A    between atoms: C_46  and  C_52
                            x       y       z     vdW  Elec       q    Type
                         _______ _______ _______ _____ _____    ______ ____

>  <TORSDO>
F 19

$$$$
=
 OpenBabel11072410343D

 54 59  0  0  1  0  0  0  0  0999 V2000
  162.7050  205.7470  145.5370 C   0  0  0  0  0  3  0  0  0  0  0  0
  162.8040  204.4560  145.8550 C   0  0  0  0  0  3  0  0  0  0  0  0
  162.3680  205.1170  151.5530 O   0  0  0  0  0  0  0  0  0  0  0  0
  161.7000  204.7150  147.9770 C   0  0  0  0  0  0  0  0  0  0  0  0
  161.4220  205.6150  150.9580 C   0  0  0  0  0  0  0  0  0  0  0  0
  161.2220  207.1020  150.9060 C   0  0  2  0  0  3  0  0  0  0  0  0
  161.1460  204.0910  149.1080 O   0  0  0  0  0  0  0  0  0  0  0  0
  160.4750  204.7530  150.1750 C   0  0  1  0  0  3  0  0  0  0  0  0
  161.2360  209.1190  149.4530 C   0  0  0  0  0  2  0  0  0  0  0  0
  160.8780  206.9440  148.5280 O   0  0  0  0  0  0  0  0  0  0  0  0
  162.0400  209.8880  150.5010 C   0  0  2  0  0  3  0  0  0  0  0  0
  161.5800  207.6400  149.5200 C   0  0  2  0  0  3  0  0  0  0  0  0
  161.7520  209.3510  151.9110 C   0  0  1  0  0  3  0  0  0  0  0  0
  161.8630  206.2280  147.8430 C   0  0  2  0  0  3  0  0  0  0  0  0
  161.8560  206.6550  146.3720 C   0  0  0  0  0  2  0  0  0  0  0  0
  162.1810  203.9450  147.0430 N   0  0  0  0  0  0  0  0  0  0  0  0
  162.0240  207.8440  151.9760 C   0  0  0  0  0  2  0  0  0  0  0  0
  159.7950  203.7290  151.0730 C   0  0  0  0  0  2  0  0  0  0  0  0
  160.4820  202.3770  150.9770 C   0  0  0  0  0  2  0  0  0  0  0  0
  160.2110  201.7770  149.7460 O   0  0  0  0  0  0  0  0  0  0  0  0
  161.3210  200.9700  149.4960 C   0  0  0  0  0  2  0  0  0  0  0  0
  161.3240  200.5400  148.0450 C   0  0  0  0  0  1  0  0  0  0  0  0
  162.6270  210.0620  152.9390 C   0  0  0  0  0  2  0  0  0  0  0  0
  161.8060  210.9750  153.8370 C   0  0  0  0  0  2  0  0  0  0  0  0
  160.4800  210.3220  154.1880 C   0  0  0  0  0  2  0  0  0  0  0  0
  160.7050  208.9850  154.7160 N   0  0  0  0  0  2  0  0  0  0  0  0
  160.2770  207.0650  156.2890 C   0  0  0  0  0  1  0  0  0  0  0  0
  159.0820  209.1430  156.4350 N   0  0  0  0  0  2  0  0  0  0  0  0
  159.9810  208.4440  155.8260 C   0  0  0  0  0  0  0  0  0  0  0  0
  161.7200  211.3770  150.3980 C   0  0  0  0  0  2  0  0  0  0  0  0
  160.7610  211.6530  149.2320 C   0  0  0  0  0  2  0  0  0  0  0  0
  160.4410  213.0750  149.0340 N   0  0  0  0  0  0  0  0  0  0  0  0
  159.9280  213.6820  150.2590 C   0  0  0  0  0  2  0  0  0  0  0  0
  158.4600  212.2410  151.7120 C   0  0  0  0  0  2  0  0  0  0  0  0
  158.6090  212.9670  153.0560 C   0  0  1  0  0  3  0  0  0  0  0  0
  157.6100  214.4500  150.7600 C   0  0  0  0  0  2  0  0  0  0  0  0
  157.7390  214.1670  153.1980 N   0  0  1  0  0  0  0  0  0  0  0  0
  156.8280  214.3600  152.0670 C   0  0  0  0  0  2  0  0  0  0  0  0
  158.5010  213.2230  150.5370 C   0  0  1  0  0  3  0  0  0  0  0  0
  157.3610  212.8820  153.8140 C   0  0  2  0  0  3  0  0  0  0  0  0
  156.6900  212.5830  156.1390 C   0  0  0  0  0  2  0  0  0  0  0  0
  157.6500  212.9020  155.2810 C   0  0  0  0  0  0  0  0  0  0  0  0
  159.7920  214.4480  155.9210 O   0  0  0  0  0  0  0  0  0  0  0  0
  160.1010  213.1980  156.4480 C   0  0  0  0  0  0  0  0  0  0  0  0
  161.1190  212.2130  157.2600 S   0  0  0  0  0  0  0  0  0  0  0  0
  158.8930  213.4020  155.7700 N   0  0  0  0  0  0  0  0  0  0  0  0
  159.4130  213.2020  148.0100 C   0  0  0  0  0  2  0  0  0  0  0  0
  159.9430  212.7120  146.6630 C   0  0  2  0  0  3  0  0  0  0  0  0
  161.9160  212.9460  145.1220 C   0  0  0  0  0  1  0  0  0  0  0  0
  160.9280  213.6830  146.0060 C   0  0  2  0  0  3  0  0  0  0  0  0
  161.6120  214.4390  146.9590 O   0  0  0  0  0  1  0  0  0  0  0  0
  157.4930  212.4490  146.2030 O   0  0  0  0  0  1  0  0  0  0  0  0
  158.8050  212.4110  145.7450 C   0  0  0  0  0  0  0  0  0  0  0  0
  159.0380  212.1090  144.5470 O   0  0  0  0  0  0  0  0  0  0  0  0
  1  2  2  0  0  0  0
  1 15  1  0  0  0  0
  2 16  1  0  0  0  0
  4  7  1  0  0  0  0
  5  3  2  0  0  0  0
  6  5  1  0  0  0  0
  6 17  1  1  0  0  0
  7  8  1  0  0  0  0
  8  5  1  0  0  0  0
  8 18  1  1  0  0  0
  9 11  1  0  0  0  0
 10 12  1  0  0  0  0
 11 30  1  1  0  0  0
 11 13  1  0  0  0  0
 12  9  1  1  0  0  0
 12  6  1  0  0  0  0
 13 17  1  0  0  0  0
 13 23  1  1  0  0  0
 14 15  1  6  0  0  0
 14  4  1  0  0  0  0
 14 10  1  0  0  0  0
 16  4  2  0  0  0  0
 19 18  1  0  0  0  0
 20 19  1  0  0  0  0
 21 20  1  0  0  0  0
 22 21  1  0  0  0  0
 23 24  1  0  0  0  0
 24 25  1  0  0  0  0
 25 26  1  0  0  0  0
 26 29  1  0  0  0  0
 29 27  1  0  0  0  0
 29 28  2  0  0  0  0
 31 30  1  0  0  0  0
 32 31  1  0  0  0  0
 32 33  1  0  0  0  0
 35 34  1  6  0  0  0
 35 37  1  0  0  0  0
 35 40  1  0  0  0  0
 36 38  1  0  0  0  0
 37 38  1  6  0  0  0
 37 40  1  0  0  0  0
 39 33  1  1  0  0  0
 39 36  1  0  0  0  0
 39 34  1  0  0  0  0
 40 42  1  1  0  0  0
 42 46  1  0  0  0  0
 42 41  2  0  0  0  0
 43 44  1  0  0  0  0
 44 45  2  0  0  0  0
 46 43  1  0  0  0  0
 46 44  1  0  0  0  0
 47 32  1  0  0  0  0
 48 47  1  1  0  0  0
 50 49  1  1  0  0  0
 50 48  1  0  0  0  0
 50 51  1  0  0  0  0
 53 52  1  0  0  0  0
 53 48  1  0  0  0  0
 54 53  2  0  0  0  0
M  END
>  <MODEL>
3

>  <REMARK>
 VINA RESULT:      -4.7      3.113     10.682
  Name = 
  19 active torsions:
  status: ('A' for Active; 'I' for Inactive)
    1  A    between atoms: N_1  and  C_22
    2  A    between atoms: N_1  and  C_27
    3  A    between atoms: N_1  and  C_48
    4  A    between atoms: C_3  and  O_19
    5  A    between atoms: C_8  and  C_22
    6  A    between atoms: C_8  and  C_34
    7  A    between atoms: C_9  and  C_21
    8  A    between atoms: C_9  and  C_51
    9  A    between atoms: N_10  and  C_21
   10  A    between atoms: O_19  and  C_46
   11  A    between atoms: C_23  and  C_52
   12  A    between atoms: C_27  and  C_42
   13  A    between atoms: C_29  and  C_42
   14  A    between atoms: C_31  and  C_42
   15  A    between atoms: C_36  and  N_47
   16  A    between atoms: C_36  and  C_54
   17  A    between atoms: C_39  and  C_51
   18  A    between atoms: C_43  and  C_48
   19  A    between atoms: C_46  and  C_52
                            x       y       z     vdW  Elec       q    Type
                         _______ _______ _______ _____ _____    ______ ____

>  <TORSDO>
F 19

$$$$
=
 OpenBabel11072410343D

 54 59  0  0  1  0  0  0  0  0999 V2000
  161.0090  203.3890  152.2170 C   0  0  0  0  0  3  0  0  0  0  0  0
  160.6060  202.5920  151.2270 C   0  0  0  0  0  3  0  0  0  0  0  0
  160.4990  206.6120  147.1120 O   0  0  0  0  0  0  0  0  0  0  0  0
  161.4840  204.0130  149.4940 C   0  0  0  0  0  0  0  0  0  0  0  0
  161.5920  206.5420  147.6590 C   0  0  0  0  0  0  0  0  0  0  0  0
  162.1020  207.6470  148.5380 C   0  0  2  0  0  3  0  0  0  0  0  0
  161.7590  204.1810  148.1250 O   0  0  0  0  0  0  0  0  0  0  0  0
  162.4230  205.2980  147.5450 C   0  0  1  0  0  3  0  0  0  0  0  0
  162.6800  208.3120  150.8630 C   0  0  0  0  0  2  0  0  0  0  0  0
  162.6820  206.0120  150.2090 O   0  0  0  0  0  0  0  0  0  0  0  0
  161.9370  209.6360  150.6860 C   0  0  2  0  0  3  0  0  0  0  0  0
  162.0300  207.2350  150.0090 C   0  0  2  0  0  3  0  0  0  0  0  0
  161.9400  210.0700  149.2120 C   0  0  1  0  0  3  0  0  0  0  0  0
  161.6560  205.1200  150.5320 C   0  0  2  0  0  3  0  0  0  0  0  0
  161.9250  204.5360  151.9210 C   0  0  0  0  0  2  0  0  0  0  0  0
  160.9650  202.8770  149.8660 N   0  0  0  0  0  0  0  0  0  0  0  0
  161.3540  208.9640  148.3280 C   0  0  0  0  0  2  0  0  0  0  0  0
  162.7650  204.9980  146.0920 C   0  0  0  0  0  2  0  0  0  0  0  0
  162.0310  203.7600  145.6020 C   0  0  0  0  0  2  0  0  0  0  0  0
  160.6810  204.0460  145.3880 O   0  0  0  0  0  0  0  0  0  0  0  0
  160.2410  203.0380  144.5290 C   0  0  0  0  0  2  0  0  0  0  0  0
  160.1840  201.7220  145.2730 C   0  0  0  0  0  1  0  0  0  0  0  0
  161.1180  211.3430  149.0320 C   0  0  0  0  0  2  0  0  0  0  0  0
  161.6720  212.2130  147.9140 C   0  0  0  0  0  2  0  0  0  0  0  0
  160.7630  213.4050  147.6690 C   0  0  0  0  0  2  0  0  0  0  0  0
  160.7780  213.7650  146.2590 N   0  0  0  0  0  2  0  0  0  0  0  0
  159.7150  214.4490  144.0800 C   0  0  0  0  0  1  0  0  0  0  0  0
  158.4340  214.0590  146.0740 N   0  0  0  0  0  2  0  0  0  0  0  0
  159.5990  214.0870  145.5160 C   0  0  0  0  0  0  0  0  0  0  0  0
  162.5700  210.7000  151.5780 C   0  0  0  0  0  2  0  0  0  0  0  0
  162.2020  210.4720  153.0510 C   0  0  0  0  0  2  0  0  0  0  0  0
  160.9400  209.7430  153.2540 N   0  0  0  0  0  0  0  0  0  0  0  0
  159.8890  210.6240  153.7540 C   0  0  0  0  0  2  0  0  0  0  0  0
  157.8790  211.5430  152.5460 C   0  0  0  0  0  2  0  0  0  0  0  0
  157.2170  212.3350  153.6820 C   0  0  1  0  0  3  0  0  0  0  0  0
  159.9550  212.9760  152.9310 C   0  0  0  0  0  2  0  0  0  0  0  0
  157.8150  213.6800  153.9140 N   0  0  1  0  0  0  0  0  0  0  0  0
  158.8510  214.0300  152.9380 C   0  0  0  0  0  2  0  0  0  0  0  0
  159.4070  211.5710  152.6600 C   0  0  1  0  0  3  0  0  0  0  0  0
  156.5650  213.5300  153.1470 C   0  0  2  0  0  3  0  0  0  0  0  0
  154.3250  214.4530  153.4290 C   0  0  0  0  0  2  0  0  0  0  0  0
  155.3870  213.8930  153.9940 C   0  0  0  0  0  0  0  0  0  0  0  0
  155.3060  214.3520  156.6710 O   0  0  0  0  0  0  0  0  0  0  0  0
  155.7110  213.0250  156.5620 C   0  0  0  0  0  0  0  0  0  0  0  0
  156.1590  211.6170  157.2570 S   0  0  0  0  0  0  0  0  0  0  0  0
  155.4510  213.7840  155.4140 N   0  0  0  0  0  0  0  0  0  0  0  0
  161.1430  208.6890  154.2380 C   0  0  0  0  0  2  0  0  0  0  0  0
  160.3580  208.9940  155.5120 C   0  0  2  0  0  3  0  0  0  0  0  0
  160.6140  211.2290  156.6370 C   0  0  0  0  0  1  0  0  0  0  0  0
  161.1520  209.8140  156.5340 C   0  0  2  0  0  3  0  0  0  0  0  0
  162.5120  209.8410  156.2210 O   0  0  0  0  0  1  0  0  0  0  0  0
  160.4670  207.2010  157.2600 O   0  0  0  0  0  1  0  0  0  0  0  0
  159.8620  207.7260  156.1240 C   0  0  0  0  0  0  0  0  0  0  0  0
  158.8930  207.1220  155.5980 O   0  0  0  0  0  0  0  0  0  0  0  0
  2  1  2  0  0  0  0
  3  5  2  0  0  0  0
  4 16  2  0  0  0  0
  4 14  1  0  0  0  0
  5  6  1  0  0  0  0
  6 17  1  1  0  0  0
  6 12  1  0  0  0  0
  7  4  1  0  0  0  0
  8 18  1  6  0  0  0
  8  5  1  0  0  0  0
  8  7  1  0  0  0  0
 10 14  1  0  0  0  0
 11  9  1  0  0  0  0
 11 30  1  1  0  0  0
 12 10  1  0  0  0  0
 12  9  1  1  0  0  0
 13 23  1  1  0  0  0
 13 11  1  0  0  0  0
 14 15  1  1  0  0  0
 15  1  1  0  0  0  0
 16  2  1  0  0  0  0
 17 13  1  0  0  0  0
 19 18  1  0  0  0  0
 20 19  1  0  0  0  0
 21 22  1  0  0  0  0
 21 20  1  0  0  0  0
 24 23  1  0  0  0  0
 25 24  1  0  0  0  0
 26 25  1  0  0  0  0
 27 29  1  0  0  0  0
 29 28  2  0  0  0  0
 29 26  1  0  0  0  0
 30 31  1  0  0  0  0
 31 32  1  0  0  0  0
 32 33  1  0  0  0  0
 32 47  1  0  0  0  0
 34 39  1  0  0  0  0
 35 34  1  6  0  0  0
 35 37  1  0  0  0  0
 36 38  1  0  0  0  0
 37 38  1  6  0  0  0
 39 36  1  0  0  0  0
 39 33  1  1  0  0  0
 40 35  1  0  0  0  0
 40 37  1  0  0  0  0
 40 42  1  1  0  0  0
 41 42  2  0  0  0  0
 42 46  1  0  0  0  0
 44 43  1  0  0  0  0
 44 45  2  0  0  0  0
 46 44  1  0  0  0  0
 46 43  1  0  0  0  0
 48 47  1  6  0  0  0
 48 53  1  0  0  0  0
 48 50  1  0  0  0  0
 50 49  1  6  0  0  0
 51 50  1  0  0  0  0
 53 52  1  0  0  0  0
 54 53  2  0  0  0  0
M  END
>  <MODEL>
4

>  <REMARK>
 VINA RESULT:      -4.7      2.892      9.782
  Name = 
  19 active torsions:
  status: ('A' for Active; 'I' for Inactive)
    1  A    between atoms: N_1  and  C_22
    2  A    between atoms: N_1  and  C_27
    3  A    between atoms: N_1  and  C_48
    4  A    between atoms: C_3  and  O_19
    5  A    between atoms: C_8  and  C_22
    6  A    between atoms: C_8  and  C_34
    7  A    between atoms: C_9  and  C_21
    8  A    between atoms: C_9  and  C_51
    9  A    between atoms: N_10  and  C_21
   10  A    between atoms: O_19  and  C_46
   11  A    between atoms: C_23  and  C_52
   12  A    between atoms: C_27  and  C_42
   13  A    between atoms: C_29  and  C_42
   14  A    between atoms: C_31  and  C_42
   15  A    between atoms: C_36  and  N_47
   16  A    between atoms: C_36  and  C_54
   17  A    between atoms: C_39  and  C_51
   18  A    between atoms: C_43  and  C_48
   19  A    between atoms: C_46  and  C_52
                            x       y       z     vdW  Elec       q    Type
                         _______ _______ _______ _____ _____    ______ ____

>  <TORSDO>
F 19

$$$$
=
 OpenBabel11072410343D

 54 59  0  0  1  0  0  0  0  0999 V2000
  161.5100  207.3060  156.1490 C   0  0  0  0  0  3  0  0  0  0  0  0
  161.0340  208.1530  157.0620 C   0  0  0  0  0  3  0  0  0  0  0  0
  160.4000  212.6630  153.5460 O   0  0  0  0  0  0  0  0  0  0  0  0
  159.9500  209.5640  155.4410 C   0  0  0  0  0  0  0  0  0  0  0  0
  159.8040  211.6740  153.1400 C   0  0  0  0  0  0  0  0  0  0  0  0
  160.2450  210.9450  151.9050 C   0  0  2  0  0  3  0  0  0  0  0  0
  159.0880  210.6470  155.2020 O   0  0  0  0  0  0  0  0  0  0  0  0
  158.6590  211.0990  153.9220 C   0  0  1  0  0  3  0  0  0  0  0  0
  161.2270  208.8430  151.0090 C   0  0  0  0  0  2  0  0  0  0  0  0
  160.0830  208.8650  153.1090 O   0  0  0  0  0  0  0  0  0  0  0  0
  162.1800  209.6470  150.1240 C   0  0  2  0  0  3  0  0  0  0  0  0
  160.9170  209.6230  152.2770 C   0  0  2  0  0  3  0  0  0  0  0  0
  161.5680  211.0080  149.7600 C   0  0  1  0  0  3  0  0  0  0  0  0
  160.7390  208.8540  154.3420 C   0  0  2  0  0  3  0  0  0  0  0  0
  161.0420  207.4040  154.7300 C   0  0  0  0  0  2  0  0  0  0  0  0
  160.1510  209.2190  156.6820 N   0  0  0  0  0  0  0  0  0  0  0  0
  161.1830  211.7770  151.0290 C   0  0  0  0  0  2  0  0  0  0  0  0
  157.5370  212.1150  154.0800 C   0  0  0  0  0  2  0  0  0  0  0  0
  157.5330  212.7100  155.4790 C   0  0  0  0  0  2  0  0  0  0  0  0
  156.3650  212.3570  156.1560 O   0  0  0  0  0  0  0  0  0  0  0  0
  155.9540  213.5340  156.7850 C   0  0  0  0  0  2  0  0  0  0  0  0
  154.7160  214.0730  156.1010 C   0  0  0  0  0  1  0  0  0  0  0  0
  162.5630  211.8380  148.9550 C   0  0  0  0  0  2  0  0  0  0  0  0
  161.9260  213.1130  148.4230 C   0  0  0  0  0  2  0  0  0  0  0  0
  161.8400  213.0710  146.9070 C   0  0  0  0  0  2  0  0  0  0  0  0
  160.4550  213.2090  146.4810 N   0  0  0  0  0  2  0  0  0  0  0  0
  158.5850  213.1640  144.7930 C   0  0  0  0  0  1  0  0  0  0  0  0
  160.8660  212.6980  144.2030 N   0  0  0  0  0  2  0  0  0  0  0  0
  160.0220  213.0070  145.1320 C   0  0  0  0  0  0  0  0  0  0  0  0
  162.5180  208.8380  148.8740 C   0  0  0  0  0  2  0  0  0  0  0  0
  161.2500  208.2440  148.2450 C   0  0  0  0  0  2  0  0  0  0  0  0
  160.8530  206.9400  148.7990 N   0  0  0  0  0  0  0  0  0  0  0  0
  161.8890  206.3930  149.6710 C   0  0  0  0  0  2  0  0  0  0  0  0
  160.0790  204.8340  150.4660 C   0  0  0  0  0  2  0  0  0  0  0  0
  160.5370  203.5260  149.8080 C   0  0  1  0  0  3  0  0  0  0  0  0
  162.3560  204.9040  151.6130 C   0  0  0  0  0  2  0  0  0  0  0  0
  161.6120  202.8140  150.5540 N   0  0  1  0  0  0  0  0  0  0  0  0
  161.9490  203.4490  151.8310 C   0  0  0  0  0  2  0  0  0  0  0  0
  161.2730  205.7010  150.8800 C   0  0  1  0  0  3  0  0  0  0  0  0
  160.2040  202.3890  150.6660 C   0  0  2  0  0  3  0  0  0  0  0  0
  159.2080  200.1910  150.3170 C   0  0  0  0  0  2  0  0  0  0  0  0
  159.9590  201.1720  149.8330 C   0  0  0  0  0  0  0  0  0  0  0  0
  161.6520  200.3910  147.8550 O   0  0  0  0  0  0  0  0  0  0  0  0
  160.7860  201.2850  147.2340 C   0  0  0  0  0  0  0  0  0  0  0  0
  160.2950  202.0890  145.9000 S   0  0  0  0  0  0  0  0  0  0  0  0
  160.6420  200.9900  148.5950 N   0  0  0  0  0  0  0  0  0  0  0  0
  160.6430  205.9960  147.7100 C   0  0  0  0  0  2  0  0  0  0  0  0
  161.8170  206.0410  146.7340 C   0  0  2  0  0  3  0  0  0  0  0  0
  159.9430  205.7230  145.0870 C   0  0  0  0  0  1  0  0  0  0  0  0
  161.3860  206.1540  145.2680 C   0  0  2  0  0  3  0  0  0  0  0  0
  162.2160  205.4040  144.4330 O   0  0  0  0  0  1  0  0  0  0  0  0
  162.1720  203.6490  147.3930 O   0  0  0  0  0  1  0  0  0  0  0  0
  162.6970  204.8520  146.9360 C   0  0  0  0  0  0  0  0  0  0  0  0
  163.9290  204.9450  146.7010 O   0  0  0  0  0  0  0  0  0  0  0  0
  1  2  2  0  0  0  0
  4 16  2  0  0  0  0
  5  3  2  0  0  0  0
  5  8  1  0  0  0  0
  6 17  1  1  0  0  0
  6 12  1  0  0  0  0
  6  5  1  0  0  0  0
  7  4  1  0  0  0  0
  8 18  1  1  0  0  0
  8  7  1  0  0  0  0
 10 14  1  0  0  0  0
 11 30  1  6  0  0  0
 11  9  1  0  0  0  0
 12  9  1  6  0  0  0
 12 10  1  0  0  0  0
 13 23  1  1  0  0  0
 13 11  1  0  0  0  0
 13 17  1  0  0  0  0
 14 15  1  1  0  0  0
 14  4  1  0  0  0  0
 15  1  1  0  0  0  0
 16  2  1  0  0  0  0
 18 19  1  0  0  0  0
 19 20  1  0  0  0  0
 20 21  1  0  0  0  0
 22 21  1  0  0  0  0
 24 23  1  0  0  0  0
 25 24  1  0  0  0  0
 26 25  1  0  0  0  0
 27 29  1  0  0  0  0
 28 29  2  0  0  0  0
 29 26  1  0  0  0  0
 31 32  1  0  0  0  0
 31 30  1  0  0  0  0
 32 33  1  0  0  0  0
 34 39  1  0  0  0  0
 35 34  1  1  0  0  0
 35 37  1  0  0  0  0
 35 40  1  0  0  0  0
 36 38  1  0  0  0  0
 37 40  1  0  0  0  0
 37 38  1  1  0  0  0
 39 33  1  6  0  0  0
 39 36  1  0  0  0  0
 40 42  1  6  0  0  0
 42 41  2  0  0  0  0
 43 46  1  0  0  0  0
 44 43  1  0  0  0  0
 44 46  1  0  0  0  0
 45 44  2  0  0  0  0
 46 42  1  0  0  0  0
 47 32  1  0  0  0  0
 48 53  1  0  0  0  0
 48 47  1  1  0  0  0
 50 49  1  1  0  0  0
 50 48  1  0  0  0  0
 51 50  1  0  0  0  0
 53 52  1  0  0  0  0
 54 53  2  0  0  0  0
M  END
>  <MODEL>
5

>  <REMARK>
 VINA RESULT:      -2.9      1.889      3.481
  Name = 
  19 active torsions:
  status: ('A' for Active; 'I' for Inactive)
    1  A    between atoms: N_1  and  C_22
    2  A    between atoms: N_1  and  C_27
    3  A    between atoms: N_1  and  C_48
    4  A    between atoms: C_3  and  O_19
    5  A    between atoms: C_8  and  C_22
    6  A    between atoms: C_8  and  C_34
    7  A    between atoms: C_9  and  C_21
    8  A    between atoms: C_9  and  C_51
    9  A    between atoms: N_10  and  C_21
   10  A    between atoms: O_19  and  C_46
   11  A    between atoms: C_23  and  C_52
   12  A    between atoms: C_27  and  C_42
   13  A    between atoms: C_29  and  C_42
   14  A    between atoms: C_31  and  C_42
   15  A    between atoms: C_36  and  N_47
   16  A    between atoms: C_36  and  C_54
   17  A    between atoms: C_39  and  C_51
   18  A    between atoms: C_43  and  C_48
   19  A    between atoms: C_46  and  C_52
                            x       y       z     vdW  Elec       q    Type
                         _______ _______ _______ _____ _____    ______ ____

>  <TORSDO>
F 19

$$$$
