=
 OpenBabel11072411233D

 42 46  0  0  1  0  0  0  0  0999 V2000
  159.6790  209.4970  156.0180 C   0  0  1  0  0  3  0  0  0  0  0  0
  161.4320  206.5000  154.5830 C   0  0  0  0  0  3  0  0  0  0  0  0
  159.1300  213.9510  150.1000 C   0  0  0  0  0  0  0  0  0  0  0  0
  160.3640  213.2480  154.2250 O   0  0  0  0  0  0  0  0  0  0  0  0
  160.6260  211.9940  150.3200 C   0  0  1  0  0  3  0  0  0  0  0  0
  158.3190  209.8490  155.6070 N   0  0  0  0  0  2  0  0  0  0  0  0
  159.7460  210.1070  153.0370 N   0  0  0  0  0  0  0  0  0  0  0  0
  158.0080  213.4630  151.9090 C   0  0  0  0  0  3  0  0  0  0  0  0
  159.4310  214.4530  148.8020 N   0  0  0  0  0  1  0  0  0  0  0  0
  160.3200  208.6200  154.9980 C   0  0  0  0  0  0  0  0  0  0  0  0
  160.8020  207.9130  152.7310 C   0  0  0  0  0  3  0  0  0  0  0  0
  158.2540  211.0760  154.8150 C   0  0  0  0  0  2  0  0  0  0  0  0
  161.3790  206.7360  153.2060 C   0  0  0  0  0  0  0  0  0  0  0  0
  160.4660  210.6150  156.3200 O   0  0  0  0  0  1  0  0  0  0  0  0
  159.2400  213.0500  152.1640 C   0  0  0  0  0  0  0  0  0  0  0  0
  157.9440  214.0240  150.6060 N   0  0  0  0  0  0  0  0  0  0  0  0
  159.6610  210.2280  151.6800 O   0  0  0  0  0  0  0  0  0  0  0  0
  160.8830  210.7780  151.2430 C   0  0  1  0  0  3  0  0  0  0  0  0
  160.1300  213.2960  150.9930 C   0  0  2  0  0  3  0  0  0  0  0  0
  160.9000  207.4360  155.4680 C   0  0  0  0  0  3  0  0  0  0  0  0
  159.3420  211.1930  153.8450 N   0  0  0  0  0  0  0  0  0  0  0  0
  159.6800  212.5240  153.4550 C   0  0  0  0  0  0  0  0  0  0  0  0
  160.2770  208.8810  153.6030 C   0  0  0  0  0  0  0  0  0  0  0  0
  161.3000  211.7220  148.1490 C   0  0  0  0  0  1  0  0  0  0  0  0
  161.6710  212.2390  149.4000 O   0  0  0  0  0  0  0  0  0  0  0  0
  161.9260  205.7530  152.2240 C   0  0  1  0  0  3  0  0  0  0  0  0
  163.4100  205.5200  152.4490 C   0  0  0  0  0  1  0  0  0  0  0  0
  160.8850  203.6890  151.1610 C   0  0  0  0  0  0  0  0  0  0  0  0
  160.5480  202.4880  151.3370 O   0  0  0  0  0  0  0  0  0  0  0  0
  161.1970  204.4940  152.3030 N   0  0  0  0  0  2  0  0  0  0  0  0
  160.8640  206.1260  148.2860 C   0  0  0  0  0  3  0  0  0  0  0  0
  161.5350  202.0320  148.8600 O   0  0  0  0  0  1  0  0  0  0  0  0
  161.2740  203.3860  148.6850 C   0  0  0  0  0  0  0  0  0  0  0  0
  161.1300  205.2980  147.1900 C   0  0  0  0  0  0  0  0  0  0  0  0
  160.7900  205.5900  149.5730 C   0  0  0  0  0  3  0  0  0  0  0  0
  160.9760  204.2170  149.7850 C   0  0  0  0  0  0  0  0  0  0  0  0
  161.3410  203.9290  147.3990 C   0  0  0  0  0  3  0  0  0  0  0  0
  160.1720  206.3500  145.2910 O   0  0  0  0  0  1  0  0  0  0  0  0
  161.2010  205.8660  145.8340 C   0  0  0  0  0  0  0  0  0  0  0  0
  162.4050  205.8750  145.1400 O   0  0  0  0  0  0  0  0  0  0  0  0
  162.8640  209.6310  151.1930 O   0  0  0  0  0  1  0  0  0  0  0  0
  161.6750  209.7570  150.5540 N   0  0  0  0  0  2  0  0  0  0  0  0
  1 14  1  6  0  0  0
  2 20  1  0  0  0  0
  3 16  2  0  0  0  0
  5 25  1  1  0  0  0
  5 19  1  0  0  0  0
  5 18  1  0  0  0  0
  6  1  1  0  0  0  0
  7 23  1  0  0  0  0
  7 21  1  0  0  0  0
  8 15  2  0  0  0  0
  9  3  1  0  0  0  0
 10 20  2  0  0  0  0
 10  1  1  0  0  0  0
 11 13  1  0  0  0  0
 11 23  2  0  0  0  0
 12  6  1  0  0  0  0
 13  2  2  0  0  0  0
 15 22  1  0  0  0  0
 16  8  1  0  0  0  0
 17  7  1  0  0  0  0
 18 42  1  6  0  0  0
 18 17  1  0  0  0  0
 19  3  1  6  0  0  0
 19 15  1  0  0  0  0
 21 12  1  0  0  0  0
 22 21  1  0  0  0  0
 22  4  2  0  0  0  0
 23 10  1  0  0  0  0
 24 25  1  0  0  0  0
 26 30  1  0  0  0  0
 26 27  1  1  0  0  0
 26 13  1  0  0  0  0
 28 29  2  0  0  0  0
 28 30  1  0  0  0  0
 31 35  1  0  0  0  0
 33 32  1  0  0  0  0
 33 36  1  0  0  0  0
 34 37  1  0  0  0  0
 34 31  2  0  0  0  0
 35 36  2  0  0  0  0
 36 28  1  0  0  0  0
 37 33  2  0  0  0  0
 38 39  1  0  0  0  0
 39 34  1  0  0  0  0
 40 39  2  0  0  0  0
 42 41  1  0  0  0  0
M  END
>  <MODEL>
1

>  <REMARK>
 VINA RESULT:      -6.0      0.000      0.000
  Name = 
  6 active torsions:
  status: ('A' for Active; 'I' for Inactive)
    1  A    between atoms: C_4  and  C_37
    2  A    between atoms: C_6  and  O_24
    3  A    between atoms: C_18  and  C_25
    4  A    between atoms: C_20  and  C_36
    5  A    between atoms: C_25  and  N_27
    6  A    between atoms: N_30  and  C_31
                            x       y       z     vdW  Elec       q    Type
                         _______ _______ _______ _____ _____    ______ ____

>  <TORSDO>
F 6

$$$$
=
 OpenBabel11072411233D

 42 46  0  0  1  0  0  0  0  0999 V2000
  162.3000  208.6130  148.5470 C   0  0  1  0  0  3  0  0  0  0  0  0
  161.6770  208.5430  152.2510 C   0  0  0  0  0  3  0  0  0  0  0  0
  160.7920  201.6070  146.5920 C   0  0  0  0  0  0  0  0  0  0  0  0
  163.4900  205.0350  146.6640 O   0  0  0  0  0  0  0  0  0  0  0  0
  161.2280  202.4210  148.8860 C   0  0  1  0  0  3  0  0  0  0  0  0
  161.2060  208.4380  147.5900 N   0  0  0  0  0  2  0  0  0  0  0  0
  161.1230  205.8410  148.9900 N   0  0  0  0  0  0  0  0  0  0  0  0
  160.6330  203.6240  145.7660 C   0  0  0  0  0  3  0  0  0  0  0  0
  160.5840  200.2110  146.7710 N   0  0  0  0  0  1  0  0  0  0  0  0
  161.9170  208.0690  149.8800 C   0  0  0  0  0  0  0  0  0  0  0  0
  160.8650  206.4570  151.3510 C   0  0  0  0  0  3  0  0  0  0  0  0
  161.2730  207.1720  146.8610 C   0  0  0  0  0  2  0  0  0  0  0  0
  161.0510  207.3080  152.4410 C   0  0  0  0  0  0  0  0  0  0  0  0
  163.5140  208.0840  148.0920 O   0  0  0  0  0  1  0  0  0  0  0  0
  161.5270  203.7350  146.7360 C   0  0  0  0  0  0  0  0  0  0  0  0
  160.1700  202.2830  145.6840 N   0  0  0  0  0  0  0  0  0  0  0  0
  160.4350  204.6890  149.2400 O   0  0  0  0  0  0  0  0  0  0  0  0
  161.3770  203.7390  149.6840 C   0  0  1  0  0  3  0  0  0  0  0  0
  161.7250  202.4250  147.4210 C   0  0  2  0  0  3  0  0  0  0  0  0
  162.1000  208.9190  150.9780 C   0  0  0  0  0  3  0  0  0  0  0  0
  161.6680  206.0440  147.7030 N   0  0  0  0  0  0  0  0  0  0  0  0
  162.2850  204.9510  147.0200 C   0  0  0  0  0  0  0  0  0  0  0  0
  161.3000  206.8030  150.0620 C   0  0  0  0  0  0  0  0  0  0  0  0
  160.5590  200.6660  150.1950 C   0  0  0  0  0  1  0  0  0  0  0  0
  161.6690  201.2780  149.5920 O   0  0  0  0  0  0  0  0  0  0  0  0
  160.5710  206.8740  153.7870 C   0  0  1  0  0  3  0  0  0  0  0  0
  160.2120  205.3980  153.7920 C   0  0  0  0  0  1  0  0  0  0  0  0
  161.5160  208.2810  155.6840 C   0  0  0  0  0  0  0  0  0  0  0  0
  162.2300  208.2800  156.7220 O   0  0  0  0  0  0  0  0  0  0  0  0
  161.5780  207.1560  154.8020 N   0  0  0  0  0  2  0  0  0  0  0  0
  158.3900  210.3810  155.5430 C   0  0  0  0  0  3  0  0  0  0  0  0
  162.4420  210.8060  154.5760 O   0  0  0  0  0  1  0  0  0  0  0  0
  161.0950  210.6330  154.8710 C   0  0  0  0  0  0  0  0  0  0  0  0
  158.8520  211.5680  154.9640 C   0  0  0  0  0  0  0  0  0  0  0  0
  159.2680  209.3210  155.7750 C   0  0  0  0  0  3  0  0  0  0  0  0
  160.6200  209.4270  155.4260 C   0  0  0  0  0  0  0  0  0  0  0  0
  160.2090  211.6890  154.6370 C   0  0  0  0  0  3  0  0  0  0  0  0
  158.3010  213.8740  154.8570 O   0  0  0  0  0  1  0  0  0  0  0  0
  157.9220  212.6810  154.7160 C   0  0  0  0  0  0  0  0  0  0  0  0
  156.6140  212.4260  154.3210 O   0  0  0  0  0  0  0  0  0  0  0  0
  162.4130  203.6910  151.7260 O   0  0  0  0  0  1  0  0  0  0  0  0
  161.2130  203.5030  151.1200 N   0  0  0  0  0  2  0  0  0  0  0  0
  1 14  1  6  0  0  0
  1 10  1  0  0  0  0
  2 13  1  0  0  0  0
  3  9  1  0  0  0  0
  4 22  2  0  0  0  0
  5 25  1  1  0  0  0
  5 18  1  0  0  0  0
  6  1  1  0  0  0  0
  7 17  1  0  0  0  0
  7 23  1  0  0  0  0
  8 15  2  0  0  0  0
 10 23  2  0  0  0  0
 10 20  1  0  0  0  0
 11 13  2  0  0  0  0
 12  6  1  0  0  0  0
 12 21  1  0  0  0  0
 13 26  1  0  0  0  0
 15 22  1  0  0  0  0
 15 19  1  0  0  0  0
 16  8  1  0  0  0  0
 16  3  2  0  0  0  0
 17 18  1  0  0  0  0
 18 42  1  1  0  0  0
 19  3  1  6  0  0  0
 19  5  1  0  0  0  0
 20  2  2  0  0  0  0
 21  7  1  0  0  0  0
 22 21  1  0  0  0  0
 23 11  1  0  0  0  0
 25 24  1  0  0  0  0
 26 27  1  6  0  0  0
 26 30  1  0  0  0  0
 28 29  2  0  0  0  0
 30 28  1  0  0  0  0
 31 35  1  0  0  0  0
 32 33  1  0  0  0  0
 33 36  1  0  0  0  0
 34 31  2  0  0  0  0
 36 28  1  0  0  0  0
 36 35  2  0  0  0  0
 37 33  2  0  0  0  0
 37 34  1  0  0  0  0
 39 38  1  0  0  0  0
 39 34  1  0  0  0  0
 40 39  2  0  0  0  0
 42 41  1  0  0  0  0
M  END
>  <MODEL>
2

>  <REMARK>
 VINA RESULT:      -5.8      2.972      8.975
  Name = 
  6 active torsions:
  status: ('A' for Active; 'I' for Inactive)
    1  A    between atoms: C_4  and  C_37
    2  A    between atoms: C_6  and  O_24
    3  A    between atoms: C_18  and  C_25
    4  A    between atoms: C_20  and  C_36
    5  A    between atoms: C_25  and  N_27
    6  A    between atoms: N_30  and  C_31
                            x       y       z     vdW  Elec       q    Type
                         _______ _______ _______ _____ _____    ______ ____

>  <TORSDO>
F 6

$$$$
=
 OpenBabel11072411233D

 42 46  0  0  1  0  0  0  0  0999 V2000
  159.4110  211.1060  154.4480 C   0  0  1  0  0  3  0  0  0  0  0  0
  161.0180  207.7220  154.1650 C   0  0  0  0  0  3  0  0  0  0  0  0
  160.4130  213.8690  147.6260 C   0  0  0  0  0  0  0  0  0  0  0  0
  160.8310  214.1940  151.9570 O   0  0  0  0  0  0  0  0  0  0  0  0
  161.6080  211.9400  148.6090 C   0  0  1  0  0  3  0  0  0  0  0  0
  158.1930  211.4310  153.7050 N   0  0  0  0  0  2  0  0  0  0  0  0
  160.0590  210.9020  151.4810 N   0  0  0  0  0  0  0  0  0  0  0  0
  158.9480  213.9540  149.2440 C   0  0  0  0  0  3  0  0  0  0  0  0
  160.9880  213.9880  146.3300 N   0  0  0  0  0  1  0  0  0  0  0  0
  160.1090  209.9480  153.8200 C   0  0  0  0  0  0  0  0  0  0  0  0
  160.8860  208.6370  151.9370 C   0  0  0  0  0  3  0  0  0  0  0  0
  158.4100  212.4080  152.6380 C   0  0  0  0  0  2  0  0  0  0  0  0
  161.2300  207.5890  152.7900 C   0  0  0  0  0  0  0  0  0  0  0  0
  160.2610  212.2060  154.6130 O   0  0  0  0  0  1  0  0  0  0  0  0
  160.0610  213.5390  149.8290 C   0  0  0  0  0  0  0  0  0  0  0  0
  159.1750  214.1550  147.8570 N   0  0  0  0  0  0  0  0  0  0  0  0
  160.2230  210.6670  150.1460 O   0  0  0  0  0  0  0  0  0  0  0  0
  161.5580  210.9950  149.8350 C   0  0  1  0  0  3  0  0  0  0  0  0
  161.1610  213.4040  148.8320 C   0  0  2  0  0  3  0  0  0  0  0  0
  160.4560  208.8920  154.6710 C   0  0  0  0  0  3  0  0  0  0  0  0
  159.6540  212.1880  151.9010 N   0  0  0  0  0  0  0  0  0  0  0  0
  160.2090  213.3420  151.2700 C   0  0  0  0  0  0  0  0  0  0  0  0
  160.3370  209.8340  152.4230 C   0  0  0  0  0  0  0  0  0  0  0  0
  163.6380  212.9360  148.2550 C   0  0  0  0  0  1  0  0  0  0  0  0
  162.8170  211.8600  147.8810 O   0  0  0  0  0  0  0  0  0  0  0  0
  161.8170  206.3460  152.2060 C   0  0  1  0  0  3  0  0  0  0  0  0
  163.2830  206.2040  152.5800 C   0  0  0  0  0  1  0  0  0  0  0  0
  160.8210  204.0400  151.8040 C   0  0  0  0  0  0  0  0  0  0  0  0
  160.4560  202.9590  152.3380 O   0  0  0  0  0  0  0  0  0  0  0  0
  161.0660  205.1750  152.6410 N   0  0  0  0  0  2  0  0  0  0  0  0
  161.2620  205.4320  148.3300 C   0  0  0  0  0  3  0  0  0  0  0  0
  161.1570  201.6660  150.1570 O   0  0  0  0  0  1  0  0  0  0  0  0
  161.1540  202.9230  149.5650 C   0  0  0  0  0  0  0  0  0  0  0  0
  161.3730  204.2730  147.5540 C   0  0  0  0  0  0  0  0  0  0  0  0
  161.0860  205.3420  149.7120 C   0  0  0  0  0  3  0  0  0  0  0  0
  161.0120  204.0920  150.3400 C   0  0  0  0  0  0  0  0  0  0  0  0
  161.3240  203.0210  148.1810 C   0  0  0  0  0  3  0  0  0  0  0  0
  161.2070  203.4210  145.3450 O   0  0  0  0  0  0  0  0  0  0  0  0
  161.5510  204.3720  146.0970 C   0  0  0  0  0  0  0  0  0  0  0  0
  162.1000  205.5180  145.5340 O   0  0  0  0  0  1  0  0  0  0  0  0
  161.6730  209.0320  148.6620 O   0  0  0  0  0  1  0  0  0  0  0  0
  162.3290  209.7760  149.5870 N   0  0  0  0  0  2  0  0  0  0  0  0
  1 14  1  6  0  0  0
  2 20  1  0  0  0  0
  3 16  2  0  0  0  0
  5 25  1  1  0  0  0
  5 19  1  0  0  0  0
  5 18  1  0  0  0  0
  6  1  1  0  0  0  0
  7 21  1  0  0  0  0
  7 23  1  0  0  0  0
  8 15  2  0  0  0  0
  9  3  1  0  0  0  0
 10  1  1  0  0  0  0
 10 20  2  0  0  0  0
 11 23  2  0  0  0  0
 11 13  1  0  0  0  0
 12  6  1  0  0  0  0
 13  2  2  0  0  0  0
 15 22  1  0  0  0  0
 16  8  1  0  0  0  0
 17  7  1  0  0  0  0
 18 42  1  6  0  0  0
 18 17  1  0  0  0  0
 19  3  1  6  0  0  0
 19 15  1  0  0  0  0
 21 12  1  0  0  0  0
 22 21  1  0  0  0  0
 22  4  2  0  0  0  0
 23 10  1  0  0  0  0
 25 24  1  0  0  0  0
 26 27  1  1  0  0  0
 26 30  1  0  0  0  0
 26 13  1  0  0  0  0
 28 29  2  0  0  0  0
 28 30  1  0  0  0  0
 31 35  1  0  0  0  0
 33 32  1  0  0  0  0
 33 36  1  0  0  0  0
 34 37  1  0  0  0  0
 34 31  2  0  0  0  0
 35 36  2  0  0  0  0
 36 28  1  0  0  0  0
 37 33  2  0  0  0  0
 38 39  2  0  0  0  0
 39 34  1  0  0  0  0
 40 39  1  0  0  0  0
 41 42  1  0  0  0  0
M  END
>  <MODEL>
3

>  <REMARK>
 VINA RESULT:      -4.9      1.469      1.912
  Name = 
  6 active torsions:
  status: ('A' for Active; 'I' for Inactive)
    1  A    between atoms: C_4  and  C_37
    2  A    between atoms: C_6  and  O_24
    3  A    between atoms: C_18  and  C_25
    4  A    between atoms: C_20  and  C_36
    5  A    between atoms: C_25  and  N_27
    6  A    between atoms: N_30  and  C_31
                            x       y       z     vdW  Elec       q    Type
                         _______ _______ _______ _____ _____    ______ ____

>  <TORSDO>
F 6

$$$$
=
 OpenBabel11072411233D

 42 46  0  0  1  0  0  0  0  0999 V2000
  160.9250  207.0800  155.5550 C   0  0  1  0  0  3  0  0  0  0  0  0
  161.6360  204.7170  152.7230 C   0  0  0  0  0  3  0  0  0  0  0  0
  159.7440  213.4780  151.9710 C   0  0  0  0  0  0  0  0  0  0  0  0
  161.8380  211.1590  155.0160 O   0  0  0  0  0  0  0  0  0  0  0  0
  160.8380  211.4650  151.0410 C   0  0  1  0  0  3  0  0  0  0  0  0
  159.6000  207.6760  155.7310 N   0  0  0  0  0  2  0  0  0  0  0  0
  160.3390  208.7690  153.0920 N   0  0  0  0  0  0  0  0  0  0  0  0
  159.0520  212.4360  153.7620 C   0  0  0  0  0  3  0  0  0  0  0  0
  159.7920  214.4080  150.8940 N   0  0  0  0  0  1  0  0  0  0  0  0
  161.0990  206.6060  154.1530 C   0  0  0  0  0  0  0  0  0  0  0  0
  160.8370  206.7750  151.7510 C   0  0  0  0  0  3  0  0  0  0  0  0
  159.5720  209.1130  155.4620 C   0  0  0  0  0  2  0  0  0  0  0  0
  161.2780  205.4610  151.5960 C   0  0  0  0  0  0  0  0  0  0  0  0
  161.9640  207.9290  155.9570 O   0  0  0  0  0  1  0  0  0  0  0  0
  160.2050  211.8550  153.4670 C   0  0  0  0  0  0  0  0  0  0  0  0
  158.7650  213.4530  152.8140 N   0  0  0  0  0  0  0  0  0  0  0  0
  159.9340  209.4040  151.9530 O   0  0  0  0  0  0  0  0  0  0  0  0
  161.0840  209.9720  151.3710 C   0  0  1  0  0  3  0  0  0  0  0  0
  160.7940  212.4500  152.2340 C   0  0  2  0  0  3  0  0  0  0  0  0
  161.5410  205.2870  153.9910 C   0  0  0  0  0  3  0  0  0  0  0  0
  160.3750  209.4970  154.3020 N   0  0  0  0  0  0  0  0  0  0  0  0
  160.8520  210.8430  154.3000 C   0  0  0  0  0  0  0  0  0  0  0  0
  160.7510  207.3800  153.0150 C   0  0  0  0  0  0  0  0  0  0  0  0
  160.8300  212.1170  148.8470 C   0  0  0  0  0  1  0  0  0  0  0  0
  161.6390  211.9510  149.9830 O   0  0  0  0  0  0  0  0  0  0  0  0
  161.3530  204.8820  150.2210 C   0  0  1  0  0  3  0  0  0  0  0  0
  159.9780  204.4730  149.7220 C   0  0  0  0  0  1  0  0  0  0  0  0
  161.9280  205.6860  147.8770 C   0  0  0  0  0  0  0  0  0  0  0  0
  162.1890  206.6870  147.1580 O   0  0  0  0  0  0  0  0  0  0  0  0
  161.9660  205.8310  149.3010 N   0  0  0  0  0  2  0  0  0  0  0  0
  161.2490  202.0080  147.4190 C   0  0  0  0  0  3  0  0  0  0  0  0
  161.0760  205.4930  145.1030 O   0  0  0  0  0  1  0  0  0  0  0  0
  161.1730  204.3430  145.8780 C   0  0  0  0  0  0  0  0  0  0  0  0
  160.8880  201.9360  146.0690 C   0  0  0  0  0  0  0  0  0  0  0  0
  161.5810  203.2350  147.9960 C   0  0  0  0  0  3  0  0  0  0  0  0
  161.5650  204.4090  147.2310 C   0  0  0  0  0  0  0  0  0  0  0  0
  160.8470  203.1100  145.3060 C   0  0  0  0  0  3  0  0  0  0  0  0
  159.7210  200.5770  144.5120 O   0  0  0  0  0  0  0  0  0  0  0  0
  160.5450  200.6390  145.4630 C   0  0  0  0  0  0  0  0  0  0  0  0
  161.1290  199.4690  145.9350 O   0  0  0  0  0  1  0  0  0  0  0  0
  162.7040  208.7190  150.3470 O   0  0  0  0  0  1  0  0  0  0  0  0
  161.4590  209.2260  150.1680 N   0  0  0  0  0  2  0  0  0  0  0  0
  1  6  1  0  0  0  0
  1 14  1  6  0  0  0
  2 20  1  0  0  0  0
  3 16  2  0  0  0  0
  5 25  1  6  0  0  0
  5 18  1  0  0  0  0
  5 19  1  0  0  0  0
  7 21  1  0  0  0  0
  9  3  1  0  0  0  0
 10  1  1  0  0  0  0
 11 23  2  0  0  0  0
 12  6  1  0  0  0  0
 13 11  1  0  0  0  0
 13  2  2  0  0  0  0
 15  8  2  0  0  0  0
 15 22  1  0  0  0  0
 16  8  1  0  0  0  0
 17  7  1  0  0  0  0
 18 42  1  6  0  0  0
 18 17  1  0  0  0  0
 19  3  1  6  0  0  0
 19 15  1  0  0  0  0
 20 10  2  0  0  0  0
 21 12  1  0  0  0  0
 22 21  1  0  0  0  0
 22  4  2  0  0  0  0
 23  7  1  0  0  0  0
 23 10  1  0  0  0  0
 24 25  1  0  0  0  0
 26 27  1  6  0  0  0
 26 13  1  0  0  0  0
 28 30  1  0  0  0  0
 29 28  2  0  0  0  0
 30 26  1  0  0  0  0
 31 35  1  0  0  0  0
 32 33  1  0  0  0  0
 33 36  1  0  0  0  0
 34 31  2  0  0  0  0
 36 28  1  0  0  0  0
 36 35  2  0  0  0  0
 37 33  2  0  0  0  0
 37 34  1  0  0  0  0
 38 39  2  0  0  0  0
 39 40  1  0  0  0  0
 39 34  1  0  0  0  0
 42 41  1  0  0  0  0
M  END
>  <MODEL>
4

>  <REMARK>
 VINA RESULT:      -3.9      1.887      3.052
  Name = 
  6 active torsions:
  status: ('A' for Active; 'I' for Inactive)
    1  A    between atoms: C_4  and  C_37
    2  A    between atoms: C_6  and  O_24
    3  A    between atoms: C_18  and  C_25
    4  A    between atoms: C_20  and  C_36
    5  A    between atoms: C_25  and  N_27
    6  A    between atoms: N_30  and  C_31
                            x       y       z     vdW  Elec       q    Type
                         _______ _______ _______ _____ _____    ______ ____

>  <TORSDO>
F 6

$$$$
=
 OpenBabel11072411233D

 42 46  0  0  1  0  0  0  0  0999 V2000
  161.3440  206.7880  153.3790 C   0  0  1  0  0  3  0  0  0  0  0  0
  161.6110  210.2700  151.9960 C   0  0  0  0  0  3  0  0  0  0  0  0
  161.2330  202.6720  147.1970 C   0  0  0  0  0  0  0  0  0  0  0  0
  159.4710  203.8470  151.0120 O   0  0  0  0  0  0  0  0  0  0  0  0
  160.8170  205.1060  147.3380 C   0  0  1  0  0  3  0  0  0  0  0  0
  162.4390  205.8270  153.2320 N   0  0  0  0  0  2  0  0  0  0  0  0
  161.7560  206.3110  150.4020 N   0  0  0  0  0  0  0  0  0  0  0  0
  161.9560  202.5430  149.2540 C   0  0  0  0  0  3  0  0  0  0  0  0
  161.0720  202.3890  145.8110 N   0  0  0  0  0  1  0  0  0  0  0  0
  161.4660  207.8740  152.3660 C   0  0  0  0  0  0  0  0  0  0  0  0
  161.9560  208.7450  150.1590 C   0  0  0  0  0  3  0  0  0  0  0  0
  162.1230  204.7270  152.3210 C   0  0  0  0  0  2  0  0  0  0  0  0
  161.8940  210.0510  150.6450 C   0  0  0  0  0  0  0  0  0  0  0  0
  160.0810  206.1850  153.3560 O   0  0  0  0  0  1  0  0  0  0  0  0
  161.0380  203.4970  149.2870 C   0  0  0  0  0  0  0  0  0  0  0  0
  162.0780  202.0320  147.9350 N   0  0  0  0  0  0  0  0  0  0  0  0
  162.1140  206.1760  149.0910 O   0  0  0  0  0  0  0  0  0  0  0  0
  160.9310  206.2870  148.3320 C   0  0  1  0  0  3  0  0  0  0  0  0
  160.4630  203.7210  147.9290 C   0  0  2  0  0  3  0  0  0  0  0  0
  161.4050  209.1870  152.8480 C   0  0  0  0  0  3  0  0  0  0  0  0
  161.3900  205.1580  151.1310 N   0  0  0  0  0  0  0  0  0  0  0  0
  160.5830  204.1580  150.5080 C   0  0  0  0  0  0  0  0  0  0  0  0
  161.7320  207.6360  150.9920 C   0  0  0  0  0  0  0  0  0  0  0  0
  160.9100  205.5070  145.0860 C   0  0  0  0  0  1  0  0  0  0  0  0
  160.0480  205.4030  146.1900 O   0  0  0  0  0  0  0  0  0  0  0  0
  162.1340  211.1840  149.7030 C   0  0  1  0  0  3  0  0  0  0  0  0
  161.9410  210.7490  148.2610 C   0  0  0  0  0  1  0  0  0  0  0  0
  160.6510  213.1360  149.0230 C   0  0  0  0  0  0  0  0  0  0  0  0
  159.6720  213.8590  149.3490 O   0  0  0  0  0  0  0  0  0  0  0  0
  161.2560  212.3040  150.0180 N   0  0  0  0  0  2  0  0  0  0  0  0
  160.7230  212.5690  145.2980 C   0  0  0  0  0  3  0  0  0  0  0  0
  163.1470  214.3770  148.1950 O   0  0  0  0  0  1  0  0  0  0  0  0
  162.3460  213.7410  147.2530 C   0  0  0  0  0  0  0  0  0  0  0  0
  161.9520  213.1310  144.9330 C   0  0  0  0  0  0  0  0  0  0  0  0
  160.3100  212.5800  146.6310 C   0  0  0  0  0  3  0  0  0  0  0  0
  161.1210  213.1470  147.6230 C   0  0  0  0  0  0  0  0  0  0  0  0
  162.7550  213.7220  145.9170 C   0  0  0  0  0  3  0  0  0  0  0  0
  161.9880  212.2030  142.7490 O   0  0  0  0  0  0  0  0  0  0  0  0
  162.3860  213.1110  143.5270 C   0  0  0  0  0  0  0  0  0  0  0  0
  163.2400  214.0950  143.0430 O   0  0  0  0  0  1  0  0  0  0  0  0
  162.1500  207.8140  147.1370 O   0  0  0  0  0  1  0  0  0  0  0  0
  160.9080  207.5690  147.6250 N   0  0  0  0  0  2  0  0  0  0  0  0
  1 14  1  6  0  0  0
  2 20  1  0  0  0  0
  3 16  2  0  0  0  0
  5 25  1  6  0  0  0
  5 19  1  0  0  0  0
  5 18  1  0  0  0  0
  6  1  1  0  0  0  0
  7 23  1  0  0  0  0
  7 21  1  0  0  0  0
  8 15  2  0  0  0  0
  9  3  1  0  0  0  0
 10 20  2  0  0  0  0
 10  1  1  0  0  0  0
 11 13  1  0  0  0  0
 11 23  2  0  0  0  0
 12  6  1  0  0  0  0
 13  2  2  0  0  0  0
 15 22  1  0  0  0  0
 16  8  1  0  0  0  0
 17  7  1  0  0  0  0
 18 42  1  6  0  0  0
 18 17  1  0  0  0  0
 19  3  1  6  0  0  0
 19 15  1  0  0  0  0
 21 12  1  0  0  0  0
 22  4  2  0  0  0  0
 22 21  1  0  0  0  0
 23 10  1  0  0  0  0
 24 25  1  0  0  0  0
 26 27  1  6  0  0  0
 26 30  1  0  0  0  0
 26 13  1  0  0  0  0
 28 29  2  0  0  0  0
 28 30  1  0  0  0  0
 31 35  1  0  0  0  0
 33 36  1  0  0  0  0
 33 32  1  0  0  0  0
 34 31  2  0  0  0  0
 34 37  1  0  0  0  0
 35 36  2  0  0  0  0
 36 28  1  0  0  0  0
 37 33  2  0  0  0  0
 38 39  2  0  0  0  0
 39 34  1  0  0  0  0
 40 39  1  0  0  0  0
 41 42  1  0  0  0  0
M  END
>  <MODEL>
5

>  <REMARK>
 VINA RESULT:      -3.2      2.925      8.049
  Name = 
  6 active torsions:
  status: ('A' for Active; 'I' for Inactive)
    1  A    between atoms: C_4  and  C_37
    2  A    between atoms: C_6  and  O_24
    3  A    between atoms: C_18  and  C_25
    4  A    between atoms: C_20  and  C_36
    5  A    between atoms: C_25  and  N_27
    6  A    between atoms: N_30  and  C_31
                            x       y       z     vdW  Elec       q    Type
                         _______ _______ _______ _____ _____    ______ ____

>  <TORSDO>
F 6

$$$$
