=
 OpenBabel11072412283D

 33 38  0  0  1  0  0  0  0  0999 V2000
  158.5890  212.9350  151.4140 C   0  0  0  0  0  3  0  0  0  0  0  0
  157.6330  213.3240  154.9590 C   0  0  0  0  0  0  0  0  0  0  0  0
  159.7110  211.1830  152.6830 C   0  0  0  0  0  0  0  0  0  0  0  0
  160.9800  206.8090  157.1040 O   0  0  0  0  0  1  0  0  0  0  0  0
  159.4380  211.8370  151.4710 C   0  0  0  0  0  3  0  0  0  0  0  0
  159.3560  211.1080  155.1910 C   0  0  0  0  0  0  0  0  0  0  0  0
  158.7430  211.6730  156.3150 C   0  0  0  0  0  3  0  0  0  0  0  0
  161.8390  210.1760  153.5140 C   0  0  0  0  0  0  0  0  0  0  0  0
  158.2610  208.4570  155.0180 C   0  0  0  0  0  1  0  0  0  0  0  0
  159.7680  208.5350  155.2150 C   0  0  2  0  0  3  0  0  0  0  0  0
  162.8730  210.0140  157.1000 C   0  0  0  0  0  2  0  0  0  0  0  0
  160.0520  209.0120  156.6370 C   0  0  2  0  0  3  0  0  0  0  0  0
  162.6410  208.5290  156.9140 C   0  0  0  0  0  2  0  0  0  0  0  0
  157.8870  212.7610  156.2020 C   0  0  0  0  0  3  0  0  0  0  0  0
  160.3050  209.9530  155.4390 C   0  0  2  0  0  0  0  0  0  0  0  0
  161.6690  210.1360  154.9360 N   0  0  0  0  0  0  0  0  0  0  0  0
  159.1150  211.6700  153.8940 C   0  0  0  0  0  0  0  0  0  0  0  0
  156.7740  214.4150  154.8760 O   0  0  0  0  0  1  0  0  0  0  0  0
  161.1990  208.1800  157.2600 C   0  0  2  0  0  3  0  0  0  0  0  0
  157.9930  213.4090  152.5740 C   0  0  0  0  0  3  0  0  0  0  0  0
  160.6280  209.9810  152.6460 C   0  0  2  0  0  3  0  0  0  0  0  0
  158.2420  212.8000  153.8080 C   0  0  0  0  0  0  0  0  0  0  0  0
  162.7010  210.7450  155.7770 C   0  0  0  0  0  2  0  0  0  0  0  0
  162.9600  210.4580  153.0100 O   0  0  0  0  0  0  0  0  0  0  0  0
  161.6530  210.1570  150.4400 O   0  0  0  0  0  1  0  0  0  0  0  0
  160.8640  209.3400  151.2590 C   0  0  1  0  0  3  0  0  0  0  0  0
  162.8530  207.8370  150.8800 C   0  0  0  0  0  1  0  0  0  0  0  0
  161.2200  207.3290  152.7200 C   0  0  0  0  0  2  0  0  0  0  0  0
  160.8540  205.5600  150.4130 C   0  0  0  0  0  2  0  0  0  0  0  0
  160.6320  205.0650  151.8370 C   0  0  0  0  0  2  0  0  0  0  0  0
  160.5420  207.0530  150.3180 C   0  0  0  0  0  2  0  0  0  0  0  0
  161.5300  205.8340  152.7960 C   0  0  0  0  0  2  0  0  0  0  0  0
  161.3840  207.8900  151.2960 C   0  0  0  0  0  0  0  0  0  0  0  0
  1  5  2  0  0  0  0
  1 20  1  0  0  0  0
  2 14  2  0  0  0  0
  3 17  2  0  0  0  0
  4 19  1  0  0  0  0
  5  3  1  0  0  0  0
  6 15  1  0  0  0  0
  6  7  2  0  0  0  0
  8 16  1  0  0  0  0
 10  9  1  1  0  0  0
 10 15  1  0  0  0  0
 10 12  1  0  0  0  0
 12 19  1  0  0  0  0
 13 11  1  0  0  0  0
 13 19  1  0  0  0  0
 14  7  1  0  0  0  0
 15 12  1  0  0  0  0
 16 15  1  0  0  0  0
 16 23  1  0  0  0  0
 17  6  1  0  0  0  0
 18  2  1  0  0  0  0
 20 22  2  0  0  0  0
 21  3  1  0  0  0  0
 21  8  1  0  0  0  0
 22 17  1  0  0  0  0
 22  2  1  0  0  0  0
 23 11  1  0  0  0  0
 24  8  2  0  0  0  0
 25 26  1  0  0  0  0
 26 33  1  0  0  0  0
 26 21  1  0  0  0  0
 27 33  1  0  0  0  0
 28 32  1  0  0  0  0
 29 30  1  0  0  0  0
 30 32  1  0  0  0  0
 31 29  1  0  0  0  0
 31 33  1  0  0  0  0
 33 28  1  0  0  0  0
M  END
>  <MODEL>
1

>  <REMARK>
 VINA RESULT:      -3.5      0.000      0.000
  Name = 
  2 active torsions:
  status: ('A' for Active; 'I' for Inactive)
    1  A    between atoms: C_3  and  C_27
    2  A    between atoms: C_3  and  C_33
                            x       y       z     vdW  Elec       q    Type
                         _______ _______ _______ _____ _____    ______ ____

>  <TORSDO>
F 2

$$$$
=
 OpenBabel11072412283D

 33 38  0  0  1  0  0  0  0  0999 V2000
  162.3730  210.6870  150.9970 C   0  0  0  0  0  3  0  0  0  0  0  0
  159.7410  213.1800  150.3030 C   0  0  0  0  0  0  0  0  0  0  0  0
  160.9960  210.8900  152.9970 C   0  0  0  0  0  0  0  0  0  0  0  0
  156.0150  211.8120  156.8210 O   0  0  0  0  0  1  0  0  0  0  0  0
  162.0810  210.3270  152.3060 C   0  0  0  0  0  3  0  0  0  0  0  0
  159.0750  212.5420  152.9640 C   0  0  0  0  0  0  0  0  0  0  0  0
  158.3570  213.5050  152.2460 C   0  0  0  0  0  3  0  0  0  0  0  0
  160.7970  211.5550  155.3950 C   0  0  0  0  0  0  0  0  0  0  0  0
  157.1800  210.4430  153.4710 C   0  0  0  0  0  1  0  0  0  0  0  0
  157.7620  211.1160  154.7060 C   0  0  2  0  0  3  0  0  0  0  0  0
  158.7060  214.3790  156.6660 C   0  0  0  0  0  2  0  0  0  0  0  0
  157.1890  212.5270  154.8110 C   0  0  2  0  0  3  0  0  0  0  0  0
  157.8760  213.2600  157.2610 C   0  0  0  0  0  2  0  0  0  0  0  0
  158.6780  213.8150  150.9310 C   0  0  0  0  0  3  0  0  0  0  0  0
  158.6640  212.3180  154.4060 C   0  0  2  0  0  0  0  0  0  0  0  0
  159.7230  212.5040  155.4010 N   0  0  0  0  0  0  0  0  0  0  0  0
  160.1800  211.8720  152.3420 C   0  0  0  0  0  0  0  0  0  0  0  0
  160.0420  213.5140  148.9860 O   0  0  0  0  0  1  0  0  0  0  0  0
  156.7950  212.8350  156.2760 C   0  0  2  0  0  3  0  0  0  0  0  0
  161.5850  211.6240  150.3450 C   0  0  0  0  0  3  0  0  0  0  0  0
  160.7380  210.4200  154.4120 C   0  0  2  0  0  3  0  0  0  0  0  0
  160.4990  212.2220  150.9930 C   0  0  0  0  0  0  0  0  0  0  0  0
  159.9570  213.8150  156.0080 C   0  0  0  0  0  2  0  0  0  0  0  0
  161.8040  211.7220  156.1340 O   0  0  0  0  0  0  0  0  0  0  0  0
  161.4360  208.9470  156.2250 O   0  0  0  0  0  1  0  0  0  0  0  0
  161.4250  209.1010  154.8330 C   0  0  1  0  0  3  0  0  0  0  0  0
  159.5410  207.4340  154.6810 C   0  0  0  0  0  1  0  0  0  0  0  0
  160.7840  208.1260  152.6110 C   0  0  0  0  0  2  0  0  0  0  0  0
  161.5810  205.4580  153.5250 C   0  0  0  0  0  2  0  0  0  0  0  0
  161.5210  205.8050  152.0430 C   0  0  0  0  0  2  0  0  0  0  0  0
  161.9130  206.7050  154.3460 C   0  0  0  0  0  2  0  0  0  0  0  0
  160.4580  206.8690  151.8050 C   0  0  0  0  0  2  0  0  0  0  0  0
  160.9020  207.8410  154.1180 C   0  0  0  0  0  0  0  0  0  0  0  0
  1  5  1  0  0  0  0
  2 14  2  0  0  0  0
  2 22  1  0  0  0  0
  3 21  1  0  0  0  0
  5  3  2  0  0  0  0
  6 15  1  0  0  0  0
  7  6  2  0  0  0  0
  8 16  1  0  0  0  0
  8 24  2  0  0  0  0
 10  9  1  6  0  0  0
 10 12  1  0  0  0  0
 11 13  1  0  0  0  0
 12 19  1  0  0  0  0
 14  7  1  0  0  0  0
 15 10  1  0  0  0  0
 15 12  1  0  0  0  0
 15 16  1  0  0  0  0
 16 23  1  0  0  0  0
 17  6  1  0  0  0  0
 17  3  1  0  0  0  0
 18  2  1  0  0  0  0
 19  4  1  0  0  0  0
 19 13  1  0  0  0  0
 20 22  1  0  0  0  0
 20  1  2  0  0  0  0
 21 26  1  0  0  0  0
 21  8  1  0  0  0  0
 22 17  2  0  0  0  0
 23 11  1  0  0  0  0
 26 25  1  0  0  0  0
 28 33  1  0  0  0  0
 29 31  1  0  0  0  0
 30 29  1  0  0  0  0
 32 30  1  0  0  0  0
 32 28  1  0  0  0  0
 33 31  1  0  0  0  0
 33 27  1  0  0  0  0
 33 26  1  0  0  0  0
M  END
>  <MODEL>
2

>  <REMARK>
 VINA RESULT:      -0.9      1.970      4.223
  Name = 
  2 active torsions:
  status: ('A' for Active; 'I' for Inactive)
    1  A    between atoms: C_3  and  C_27
    2  A    between atoms: C_3  and  C_33
                            x       y       z     vdW  Elec       q    Type
                         _______ _______ _______ _____ _____    ______ ____

>  <TORSDO>
F 2

$$$$
