=
 OpenBabel11072413513D

 67 74  0  0  1  0  0  0  0  0999 V2000
  161.5100  210.1030  148.0640 O   0  0  0  0  0  0  0  0  0  0  0  0
  159.4160  209.2550  153.6650 C   0  0  0  0  0  0  0  0  0  0  0  0
  161.7590  209.4780  149.2920 C   0  0  2  0  0  3  0  0  0  0  0  0
  162.7120  207.4010  153.0930 N   0  0  0  0  0  0  0  0  0  0  0  0
  160.0270  212.4050  152.5880 C   0  0  0  0  0  2  0  0  0  0  0  0
  160.2150  207.6140  148.6460 C   0  0  0  0  0  2  0  0  0  0  0  0
  159.4890  208.8020  152.4950 O   0  0  0  0  0  0  0  0  0  0  0  0
  162.3530  211.2320  148.0270 C   0  0  2  0  0  3  0  0  0  0  0  0
  161.1860  211.5770  152.0470 C   0  0  0  0  0  2  0  0  0  0  0  0
  163.2090  205.3290  151.9020 C   0  0  0  0  0  2  0  0  0  0  0  0
  160.5770  208.6170  149.7240 C   0  0  0  0  0  2  0  0  0  0  0  0
  162.1040  210.5580  150.2930 C   0  0  2  0  0  3  0  0  0  0  0  0
  160.5520  206.1900  149.0670 C   0  0  0  0  0  2  0  0  0  0  0  0
  161.0060  205.6590  152.7930 C   0  0  0  0  0  2  0  0  0  0  0  0
  162.4480  205.9690  153.0570 C   0  0  2  0  0  3  0  0  0  0  0  0
  159.9140  208.4650  154.7530 N   0  0  0  0  0  0  0  0  0  0  0  0
  162.1850  208.1690  153.9890 C   0  0  0  0  0  0  0  0  0  0  0  0
  160.9400  211.2230  150.7170 O   0  0  0  0  0  0  0  0  0  0  0  0
  160.8880  204.7750  151.8150 C   0  0  1  0  0  3  0  0  0  0  0  0
  161.8990  207.7250  156.6590 S   0  0  0  0  0  1  0  0  0  0  0  0
  158.7550  211.5640  152.7470 C   0  0  0  0  0  2  0  0  0  0  0  0
  162.9040  211.4840  149.4210 C   0  0  0  0  0  2  0  0  0  0  0  0
  162.0510  205.9080  149.1400 C   0  0  1  0  0  3  0  0  0  0  0  0
  162.2660  204.5050  149.6990 C   0  0  0  0  0  2  0  0  0  0  0  0
  158.8790  210.6090  153.8910 C   0  0  0  0  0  0  0  0  0  0  0  0
  162.0430  209.5110  154.6530 O   0  0  0  0  0  0  0  0  0  0  0  0
  158.6340  211.0460  155.1190 C   0  0  0  0  0  2  0  0  0  0  0  0
  158.9530  207.7570  155.5850 C   0  0  0  0  0  1  0  0  0  0  0  0
  161.3510  208.4040  155.0590 C   0  0  2  0  0  0  0  0  0  0  0  0
  162.2100  204.3980  151.2270 C   0  0  1  0  0  3  0  0  0  0  0  0
  158.5310  202.0320  150.3320 C   0  0  0  0  0  1  0  0  0  0  0  0
  159.3400  204.2840  150.0590 O   0  0  0  0  0  0  0  0  0  0  0  0
  159.6990  203.0020  150.5070 C   0  0  1  0  0  0  0  0  0  0  0  0
  159.5710  204.1510  151.4440 C   0  0  1  0  0  3  0  0  0  0  0  0
  161.3620  201.2970  150.5020 C   0  0  0  0  0  2  0  0  0  0  0  0
  161.8130  201.4470  148.1920 C   0  0  2  0  0  3  0  0  0  0  0  0
  161.0280  202.6290  150.0040 N   0  0  1  0  0  0  0  0  0  0  0  0
  161.7660  200.4540  149.3220 C   0  0  0  0  0  2  0  0  0  0  0  0
  160.9680  202.5610  148.5950 N   0  0  0  0  0  2  0  0  0  0  0  0
  161.5870  199.6570  146.6090 O   0  0  0  0  0  0  0  0  0  0  0  0
  161.3310  200.8590  146.8980 C   0  0  0  0  0  0  0  0  0  0  0  0
  160.6690  201.6810  145.9420 N   0  0  0  0  0  1  0  0  0  0  0  0
  162.6720  205.9420  147.7490 C   0  0  0  0  0  2  0  0  0  0  0  0
  161.8370  205.2930  146.8320 O   0  0  0  0  0  0  0  0  0  0  0  0
  163.4420  204.1790  145.4750 C   0  0  0  0  0  1  0  0  0  0  0  0
  162.5120  205.3730  145.6150 C   0  0  1  0  0  3  0  0  0  0  0  0
  161.5870  205.3670  144.5680 O   0  0  0  0  0  0  0  0  0  0  0  0
  160.4230  205.9010  145.1260 C   0  0  0  0  0  1  0  0  0  0  0  0
  161.6240  212.3560  147.6160 O   0  0  0  0  0  0  0  0  0  0  0  0
  162.3990  213.4750  147.9610 C   0  0  1  0  0  3  0  0  0  0  0  0
  163.0170  214.1380  146.7260 C   0  0  0  0  0  2  0  0  0  0  0  0
  162.9240  213.2730  145.4730 C   0  0  0  0  0  2  0  0  0  0  0  0
  161.8880  213.8280  144.5080 C   0  0  0  0  0  2  0  0  0  0  0  0
  159.3360  212.6340  140.6780 C   0  0  0  0  0  2  0  0  0  0  0  0
  158.6620  213.8980  141.1810 C   0  0  0  0  0  2  0  0  0  0  0  0
  161.3150  213.9610  141.3790 C   0  0  0  0  0  2  0  0  0  0  0  0
  160.1250  212.6190  143.0260 C   0  0  2  0  0  3  0  0  0  0  0  0
  162.2740  213.3200  142.1910 O   0  0  0  0  0  0  0  0  0  0  0  0
  161.6100  212.8560  143.3570 C   0  0  1  0  0  3  0  0  0  0  0  0
  159.9740  213.4400  141.7930 C   0  0  0  0  0  0  0  0  0  0  0  0
  159.0640  212.1500  145.2700 N   0  0  0  0  0  1  0  0  0  0  0  0
  158.3810  213.9680  144.0020 O   0  0  0  0  0  0  0  0  0  0  0  0
  159.1350  212.9630  144.1060 C   0  0  0  0  0  0  0  0  0  0  0  0
  161.6520  214.4520  148.8740 C   0  0  0  0  0  2  0  0  0  0  0  0
  159.3280  214.4530  150.0030 C   0  0  0  0  0  1  0  0  0  0  0  0
  160.1610  214.3460  148.7720 C   0  0  0  0  0  0  0  0  0  0  0  0
  159.6260  214.2300  147.6820 O   0  0  0  0  0  0  0  0  0  0  0  0
  1  3  1  0  0  0  0
  2 25  1  0  0  0  0
  2 16  1  0  0  0  0
  3 11  1  1  0  0  0
  3 12  1  0  0  0  0
  4 17  2  0  0  0  0
  5 21  1  0  0  0  0
  6 13  1  0  0  0  0
  6 11  1  0  0  0  0
  7  2  2  0  0  0  0
  8 49  1  1  0  0  0
  8  1  1  0  0  0  0
  8 22  1  0  0  0  0
  9  5  1  0  0  0  0
 12 22  1  6  0  0  0
 12 18  1  0  0  0  0
 13 23  1  0  0  0  0
 14 15  1  0  0  0  0
 15 10  1  6  0  0  0
 15  4  1  0  0  0  0
 16 29  1  0  0  0  0
 16 28  1  0  0  0  0
 17 26  1  0  0  0  0
 17 29  1  0  0  0  0
 18  9  1  0  0  0  0
 19 14  1  1  0  0  0
 21 25  1  0  0  0  0
 23 43  1  6  0  0  0
 23 24  1  0  0  0  0
 25 27  2  0  0  0  0
 26 29  1  0  0  0  0
 29 20  1  1  0  0  0
 30 24  1  6  0  0  0
 30 19  1  0  0  0  0
 30 10  1  0  0  0  0
 32 33  1  0  0  0  0
 33 31  1  1  0  0  0
 33 34  1  0  0  0  0
 34 32  1  6  0  0  0
 34 19  1  0  0  0  0
 36 41  1  6  0  0  0
 36 39  1  0  0  0  0
 36 38  1  0  0  0  0
 37 35  1  1  0  0  0
 37 33  1  0  0  0  0
 38 35  1  0  0  0  0
 39 37  1  0  0  0  0
 40 41  2  0  0  0  0
 42 41  1  0  0  0  0
 44 43  1  0  0  0  0
 46 45  1  6  0  0  0
 46 44  1  0  0  0  0
 47 48  1  0  0  0  0
 47 46  1  0  0  0  0
 49 50  1  0  0  0  0
 50 51  1  6  0  0  0
 50 64  1  0  0  0  0
 52 51  1  0  0  0  0
 53 52  1  0  0  0  0
 54 55  1  0  0  0  0
 54 60  1  0  0  0  0
 55 60  1  0  0  0  0
 56 60  1  0  0  0  0
 56 58  1  0  0  0  0
 57 59  1  0  0  0  0
 57 63  1  1  0  0  0
 58 59  1  0  0  0  0
 59 53  1  1  0  0  0
 60 57  1  0  0  0  0
 62 63  2  0  0  0  0
 63 61  1  0  0  0  0
 66 64  1  0  0  0  0
 66 65  1  0  0  0  0
 67 66  2  0  0  0  0
M  END
>  <MODEL>
1

>  <REMARK>
 VINA RESULT:       5.2      0.000      0.000
  Name = 
  16 active torsions:
  status: ('A' for Active; 'I' for Inactive)
    1  A    between atoms: O_2  and  C_15
    2  A    between atoms: O_2  and  C_23
    3  A    between atoms: C_21  and  C_24
    4  A    between atoms: C_23  and  C_40
    5  A    between atoms: C_23  and  C_65
    6  A    between atoms: C_30  and  C_51
    7  A    between atoms: O_31  and  C_42
    8  A    between atoms: N_37  and  C_49
    9  A    between atoms: C_39  and  C_52
   10  A    between atoms: C_40  and  C_43
   11  A    between atoms: C_41  and  C_54
   12  A    between atoms: C_42  and  O_62
   13  A    between atoms: C_48  and  C_52
   14  A    between atoms: C_48  and  C_65
   15  A    between atoms: C_50  and  C_53
   16  A    between atoms: C_50  and  O_62
                            x       y       z     vdW  Elec       q    Type
                         _______ _______ _______ _____ _____    ______ ____

>  <TORSDO>
F 16

$$$$
=
 OpenBabel11072413513D

 67 74  0  0  1  0  0  0  0  0999 V2000
  161.4570  210.6110  147.7650 O   0  0  0  0  0  0  0  0  0  0  0  0
  159.4370  209.8800  153.4090 C   0  0  0  0  0  0  0  0  0  0  0  0
  161.7270  210.0200  149.0050 C   0  0  2  0  0  3  0  0  0  0  0  0
  162.7490  208.0530  152.8460 N   0  0  0  0  0  0  0  0  0  0  0  0
  159.9950  213.0080  152.2460 C   0  0  0  0  0  2  0  0  0  0  0  0
  160.2000  208.1210  148.4250 C   0  0  0  0  0  2  0  0  0  0  0  0
  159.5020  209.3980  152.2500 O   0  0  0  0  0  0  0  0  0  0  0  0
  162.2840  211.7490  147.6890 C   0  0  2  0  0  3  0  0  0  0  0  0
  161.1590  212.1810  151.7120 C   0  0  0  0  0  2  0  0  0  0  0  0
  163.2590  205.9570  151.7020 C   0  0  0  0  0  2  0  0  0  0  0  0
  160.5610  209.1560  149.4730 C   0  0  0  0  0  2  0  0  0  0  0  0
  162.0700  211.1300  149.9740 C   0  0  2  0  0  3  0  0  0  0  0  0
  160.5590  206.7130  148.8770 C   0  0  0  0  0  2  0  0  0  0  0  0
  161.0620  206.2820  152.6100 C   0  0  0  0  0  2  0  0  0  0  0  0
  162.5030  206.6170  152.8490 C   0  0  2  0  0  3  0  0  0  0  0  0
  159.9570  209.1240  154.5110 N   0  0  0  0  0  0  0  0  0  0  0  0
  162.2230  208.8370  153.7290 C   0  0  0  0  0  0  0  0  0  0  0  0
  160.9030  211.7910  150.3950 O   0  0  0  0  0  0  0  0  0  0  0  0
  160.9450  205.3720  151.6570 C   0  0  1  0  0  3  0  0  0  0  0  0
  161.9730  208.4580  156.4120 S   0  0  0  0  0  1  0  0  0  0  0  0
  158.7360  212.1570  152.4410 C   0  0  0  0  0  2  0  0  0  0  0  0
  162.8480  212.0430  149.0700 C   0  0  0  0  0  2  0  0  0  0  0  0
  162.0620  206.4520  148.9400 C   0  0  1  0  0  3  0  0  0  0  0  0
  162.3010  205.0650  149.5320 C   0  0  0  0  0  2  0  0  0  0  0  0
  158.8860  211.2320  153.6070 C   0  0  0  0  0  0  0  0  0  0  0  0
  162.0710  210.1930  154.3600 O   0  0  0  0  0  0  0  0  0  0  0  0
  158.6480  211.6980  154.8260 C   0  0  0  0  0  2  0  0  0  0  0  0
  159.0140  208.4260  155.3720 C   0  0  0  0  0  1  0  0  0  0  0  0
  161.3980  209.0880  154.8010 C   0  0  2  0  0  0  0  0  0  0  0  0
  162.2640  204.9970  151.0630 C   0  0  1  0  0  3  0  0  0  0  0  0
  158.5980  202.5060  150.4080 C   0  0  0  0  0  1  0  0  0  0  0  0
  159.4400  204.7090  149.9190 O   0  0  0  0  0  0  0  0  0  0  0  0
  159.7720  203.4800  150.5110 C   0  0  1  0  0  0  0  0  0  0  0  0
  159.6310  204.7230  151.3170 C   0  0  1  0  0  3  0  0  0  0  0  0
  161.3790  201.7270  150.6630 C   0  0  0  0  0  2  0  0  0  0  0  0
  161.9390  201.7560  148.3720 C   0  0  2  0  0  3  0  0  0  0  0  0
  161.1110  203.0440  150.0890 N   0  0  1  0  0  0  0  0  0  0  0  0
  161.8090  200.8190  149.5430 C   0  0  0  0  0  2  0  0  0  0  0  0
  161.1130  202.9120  148.6840 N   0  0  0  0  0  2  0  0  0  0  0  0
  161.0150  201.8280  146.1580 O   0  0  0  0  0  0  0  0  0  0  0  0
  161.4980  201.1210  147.0850 C   0  0  0  0  0  0  0  0  0  0  0  0
  161.5280  199.7040  146.9410 N   0  0  0  0  0  1  0  0  0  0  0  0
  162.6670  206.4580  147.5420 C   0  0  0  0  0  2  0  0  0  0  0  0
  162.2930  205.3010  146.8490 O   0  0  0  0  0  0  0  0  0  0  0  0
  162.6920  204.9150  144.5360 C   0  0  0  0  0  1  0  0  0  0  0  0
  161.9490  205.7430  145.5730 C   0  0  1  0  0  3  0  0  0  0  0  0
  160.5730  205.5970  145.3850 O   0  0  0  0  0  0  0  0  0  0  0  0
  160.4580  204.6860  144.3310 C   0  0  0  0  0  1  0  0  0  0  0  0
  161.5370  212.8530  147.2590 O   0  0  0  0  0  0  0  0  0  0  0  0
  161.4940  212.7770  145.8580 C   0  0  1  0  0  3  0  0  0  0  0  0
  160.1090  212.3550  145.3550 C   0  0  0  0  0  2  0  0  0  0  0  0
  159.6200  213.1960  144.1810 C   0  0  0  0  0  2  0  0  0  0  0  0
  159.7830  212.4420  142.8700 C   0  0  0  0  0  2  0  0  0  0  0  0
  159.0830  213.0390  138.2060 C   0  0  0  0  0  2  0  0  0  0  0  0
  159.0730  211.5310  138.3820 C   0  0  0  0  0  2  0  0  0  0  0  0
  157.8640  212.8370  140.3600 C   0  0  0  0  0  2  0  0  0  0  0  0
  160.3000  212.8640  140.3560 C   0  0  2  0  0  3  0  0  0  0  0  0
  158.2920  213.6540  141.4290 O   0  0  0  0  0  0  0  0  0  0  0  0
  159.6640  213.3760  141.6610 C   0  0  1  0  0  3  0  0  0  0  0  0
  159.0900  212.4390  139.5980 C   0  0  0  0  0  0  0  0  0  0  0  0
  162.6700  212.0380  140.0730 N   0  0  0  0  0  1  0  0  0  0  0  0
  161.0460  210.6610  140.9940 O   0  0  0  0  0  0  0  0  0  0  0  0
  161.3370  211.7820  140.4950 C   0  0  0  0  0  0  0  0  0  0  0  0
  162.0350  214.0400  145.1820 C   0  0  0  0  0  2  0  0  0  0  0  0
  163.0740  214.3500  142.8370 C   0  0  0  0  0  1  0  0  0  0  0  0
  163.1420  213.7720  144.2080 C   0  0  0  0  0  0  0  0  0  0  0  0
  164.1200  213.1310  144.5520 O   0  0  0  0  0  0  0  0  0  0  0  0
  1  3  1  0  0  0  0
  2 25  1  0  0  0  0
  2 16  1  0  0  0  0
  3 11  1  1  0  0  0
  3 12  1  0  0  0  0
  4 15  1  0  0  0  0
  4 17  2  0  0  0  0
  5 21  1  0  0  0  0
  6 13  1  0  0  0  0
  6 11  1  0  0  0  0
  7  2  2  0  0  0  0
  8 49  1  1  0  0  0
  8  1  1  0  0  0  0
  8 22  1  0  0  0  0
  9  5  1  0  0  0  0
 12 22  1  6  0  0  0
 12 18  1  0  0  0  0
 13 23  1  0  0  0  0
 14 15  1  0  0  0  0
 15 10  1  6  0  0  0
 16 29  1  0  0  0  0
 16 28  1  0  0  0  0
 17 26  1  0  0  0  0
 17 29  1  0  0  0  0
 18  9  1  0  0  0  0
 19 14  1  1  0  0  0
 21 25  1  0  0  0  0
 23 43  1  6  0  0  0
 23 24  1  0  0  0  0
 25 27  2  0  0  0  0
 26 29  1  0  0  0  0
 29 20  1  1  0  0  0
 30 24  1  6  0  0  0
 30 19  1  0  0  0  0
 30 10  1  0  0  0  0
 32 33  1  0  0  0  0
 33 31  1  1  0  0  0
 33 34  1  0  0  0  0
 34 32  1  6  0  0  0
 34 19  1  0  0  0  0
 36 41  1  6  0  0  0
 36 39  1  0  0  0  0
 36 38  1  0  0  0  0
 37 33  1  0  0  0  0
 37 35  1  1  0  0  0
 38 35  1  0  0  0  0
 39 37  1  0  0  0  0
 40 41  2  0  0  0  0
 42 41  1  0  0  0  0
 44 43  1  0  0  0  0
 46 45  1  6  0  0  0
 46 44  1  0  0  0  0
 47 46  1  0  0  0  0
 48 47  1  0  0  0  0
 50 64  1  6  0  0  0
 50 49  1  0  0  0  0
 51 50  1  0  0  0  0
 52 51  1  0  0  0  0
 53 52  1  0  0  0  0
 54 55  1  0  0  0  0
 54 60  1  0  0  0  0
 55 60  1  0  0  0  0
 56 58  1  0  0  0  0
 57 63  1  1  0  0  0
 57 59  1  0  0  0  0
 58 59  1  0  0  0  0
 59 53  1  1  0  0  0
 60 57  1  0  0  0  0
 60 56  1  0  0  0  0
 61 63  1  0  0  0  0
 63 62  2  0  0  0  0
 65 66  1  0  0  0  0
 66 67  2  0  0  0  0
 66 64  1  0  0  0  0
M  END
>  <MODEL>
2

>  <REMARK>
 VINA RESULT:       6.1      1.448      2.358
  Name = 
  16 active torsions:
  status: ('A' for Active; 'I' for Inactive)
    1  A    between atoms: O_2  and  C_15
    2  A    between atoms: O_2  and  C_23
    3  A    between atoms: C_21  and  C_24
    4  A    between atoms: C_23  and  C_40
    5  A    between atoms: C_23  and  C_65
    6  A    between atoms: C_30  and  C_51
    7  A    between atoms: O_31  and  C_42
    8  A    between atoms: N_37  and  C_49
    9  A    between atoms: C_39  and  C_52
   10  A    between atoms: C_40  and  C_43
   11  A    between atoms: C_41  and  C_54
   12  A    between atoms: C_42  and  O_62
   13  A    between atoms: C_48  and  C_52
   14  A    between atoms: C_48  and  C_65
   15  A    between atoms: C_50  and  C_53
   16  A    between atoms: C_50  and  O_62
                            x       y       z     vdW  Elec       q    Type
                         _______ _______ _______ _____ _____    ______ ____

>  <TORSDO>
F 16

$$$$
=
 OpenBabel11072413513D

 67 74  0  0  1  0  0  0  0  0999 V2000
  161.5190  210.8130  147.7180 O   0  0  0  0  0  0  0  0  0  0  0  0
  159.4920  209.9030  153.3340 C   0  0  0  0  0  0  0  0  0  0  0  0
  161.7840  210.1770  148.9370 C   0  0  2  0  0  3  0  0  0  0  0  0
  162.7870  208.0660  152.7060 N   0  0  0  0  0  0  0  0  0  0  0  0
  160.0800  213.0650  152.2810 C   0  0  0  0  0  2  0  0  0  0  0  0
  160.2380  208.3140  148.2910 C   0  0  0  0  0  2  0  0  0  0  0  0
  159.5530  209.4610  152.1590 O   0  0  0  0  0  0  0  0  0  0  0  0
  162.3570  211.9450  147.6830 C   0  0  2  0  0  3  0  0  0  0  0  0
  161.2360  212.2470  151.7190 C   0  0  0  0  0  2  0  0  0  0  0  0
  163.2770  206.0070  151.4890 C   0  0  0  0  0  2  0  0  0  0  0  0
  160.6090  209.3080  149.3740 C   0  0  0  0  0  2  0  0  0  0  0  0
  162.1360  211.2480  149.9440 C   0  0  2  0  0  3  0  0  0  0  0  0
  160.5840  206.8870  148.6930 C   0  0  0  0  0  2  0  0  0  0  0  0
  161.0830  206.3210  152.4090 C   0  0  0  0  0  2  0  0  0  0  0  0
  162.5270  206.6330  152.6590 C   0  0  2  0  0  3  0  0  0  0  0  0
  160.0050  209.1040  154.4090 N   0  0  0  0  0  0  0  0  0  0  0  0
  162.2680  208.8230  153.6160 C   0  0  0  0  0  0  0  0  0  0  0  0
  160.9760  211.9050  150.3880 O   0  0  0  0  0  0  0  0  0  0  0  0
  160.9570  205.4460  151.4230 C   0  0  1  0  0  3  0  0  0  0  0  0
  162.0150  208.3520  156.2850 S   0  0  0  0  0  1  0  0  0  0  0  0
  158.8130  212.2190  152.4470 C   0  0  0  0  0  2  0  0  0  0  0  0
  162.9230  212.1860  149.0730 C   0  0  0  0  0  2  0  0  0  0  0  0
  162.0850  206.6100  148.7460 C   0  0  1  0  0  3  0  0  0  0  0  0
  162.3110  205.2010  149.2890 C   0  0  0  0  0  2  0  0  0  0  0  0
  158.9540  211.2530  153.5800 C   0  0  0  0  0  0  0  0  0  0  0  0
  162.1300  210.1580  154.2940 O   0  0  0  0  0  0  0  0  0  0  0  0
  158.7210  211.6770  154.8150 C   0  0  0  0  0  2  0  0  0  0  0  0
  159.0560  208.3850  155.2450 C   0  0  0  0  0  1  0  0  0  0  0  0
  161.4450  209.0440  154.6970 C   0  0  2  0  0  0  0  0  0  0  0  0
  162.2730  205.0790  150.8170 C   0  0  1  0  0  3  0  0  0  0  0  0
  158.5630  202.5810  150.2650 C   0  0  0  0  0  1  0  0  0  0  0  0
  159.5190  204.7070  149.6600 O   0  0  0  0  0  0  0  0  0  0  0  0
  159.7690  203.5150  150.3600 C   0  0  1  0  0  0  0  0  0  0  0  0
  159.6380  204.8220  151.0610 C   0  0  1  0  0  3  0  0  0  0  0  0
  161.3380  201.7840  150.8230 C   0  0  0  0  0  2  0  0  0  0  0  0
  161.9530  201.4490  148.5700 C   0  0  2  0  0  3  0  0  0  0  0  0
  161.1090  203.0000  150.0460 N   0  0  1  0  0  0  0  0  0  0  0  0
  161.7770  200.7060  149.8680 C   0  0  0  0  0  2  0  0  0  0  0  0
  161.1420  202.6520  148.6780 N   0  0  0  0  0  2  0  0  0  0  0  0
  161.9550  199.4490  147.2430 O   0  0  0  0  0  0  0  0  0  0  0  0
  161.5310  200.6300  147.3860 C   0  0  0  0  0  0  0  0  0  0  0  0
  160.7310  201.2140  146.3620 N   0  0  0  0  0  1  0  0  0  0  0  0
  162.6890  206.6590  147.3490 C   0  0  0  0  0  2  0  0  0  0  0  0
  163.1270  205.3860  146.9660 O   0  0  0  0  0  0  0  0  0  0  0  0
  162.0180  203.8870  145.4890 C   0  0  0  0  0  1  0  0  0  0  0  0
  162.6930  205.2400  145.6500 C   0  0  1  0  0  3  0  0  0  0  0  0
  161.7810  206.2520  145.3450 O   0  0  0  0  0  0  0  0  0  0  0  0
  160.8840  205.6590  144.4530 C   0  0  0  0  0  1  0  0  0  0  0  0
  161.6200  213.0710  147.2920 O   0  0  0  0  0  0  0  0  0  0  0  0
  161.5090  213.0030  145.8940 C   0  0  1  0  0  3  0  0  0  0  0  0
  162.8470  212.6480  145.2360 C   0  0  0  0  0  2  0  0  0  0  0  0
  163.1100  213.4350  143.9560 C   0  0  0  0  0  2  0  0  0  0  0  0
  162.7980  212.5920  142.7290 C   0  0  0  0  0  2  0  0  0  0  0  0
  159.6090  212.6650  139.2030 C   0  0  0  0  0  2  0  0  0  0  0  0
  159.7520  211.1900  139.5310 C   0  0  0  0  0  2  0  0  0  0  0  0
  159.7970  212.7600  141.6780 C   0  0  0  0  0  2  0  0  0  0  0  0
  161.8190  212.7000  140.3210 C   0  0  2  0  0  3  0  0  0  0  0  0
  160.7160  213.6810  142.2260 O   0  0  0  0  0  0  0  0  0  0  0  0
  161.9960  213.3830  141.6900 C   0  0  1  0  0  3  0  0  0  0  0  0
  160.4080  212.2320  140.4170 C   0  0  0  0  0  0  0  0  0  0  0  0
  163.9360  211.9080  139.1930 N   0  0  0  0  0  1  0  0  0  0  0  0
  162.6300  210.4300  140.4150 O   0  0  0  0  0  0  0  0  0  0  0  0
  162.7970  211.6050  139.9870 C   0  0  0  0  0  0  0  0  0  0  0  0
  160.3450  212.1190  145.4360 C   0  0  0  0  0  2  0  0  0  0  0  0
  158.0490  212.2880  146.6080 C   0  0  0  0  0  1  0  0  0  0  0  0
  159.0050  212.7740  145.5730 C   0  0  0  0  0  0  0  0  0  0  0  0
  158.7180  213.7360  144.8820 O   0  0  0  0  0  0  0  0  0  0  0  0
  1  3  1  0  0  0  0
  2 25  1  0  0  0  0
  2 16  1  0  0  0  0
  3 11  1  1  0  0  0
  3 12  1  0  0  0  0
  4 17  2  0  0  0  0
  5 21  1  0  0  0  0
  6 13  1  0  0  0  0
  6 11  1  0  0  0  0
  7  2  2  0  0  0  0
  8 49  1  1  0  0  0
  8  1  1  0  0  0  0
  8 22  1  0  0  0  0
  9  5  1  0  0  0  0
 12 22  1  6  0  0  0
 12 18  1  0  0  0  0
 13 23  1  0  0  0  0
 14 15  1  0  0  0  0
 15 10  1  6  0  0  0
 15  4  1  0  0  0  0
 16 29  1  0  0  0  0
 16 28  1  0  0  0  0
 17 26  1  0  0  0  0
 17 29  1  0  0  0  0
 18  9  1  0  0  0  0
 19 14  1  1  0  0  0
 21 25  1  0  0  0  0
 23 43  1  6  0  0  0
 23 24  1  0  0  0  0
 25 27  2  0  0  0  0
 26 29  1  0  0  0  0
 29 20  1  1  0  0  0
 30 24  1  6  0  0  0
 30 19  1  0  0  0  0
 30 10  1  0  0  0  0
 32 33  1  0  0  0  0
 33 31  1  1  0  0  0
 33 34  1  0  0  0  0
 34 32  1  6  0  0  0
 34 19  1  0  0  0  0
 36 41  1  6  0  0  0
 36 39  1  0  0  0  0
 36 38  1  0  0  0  0
 37 33  1  0  0  0  0
 37 35  1  1  0  0  0
 38 35  1  0  0  0  0
 39 37  1  0  0  0  0
 40 41  2  0  0  0  0
 42 41  1  0  0  0  0
 44 43  1  0  0  0  0
 46 45  1  1  0  0  0
 46 44  1  0  0  0  0
 47 46  1  0  0  0  0
 48 47  1  0  0  0  0
 50 51  1  6  0  0  0
 50 49  1  0  0  0  0
 52 51  1  0  0  0  0
 53 52  1  0  0  0  0
 54 55  1  0  0  0  0
 54 60  1  0  0  0  0
 55 60  1  0  0  0  0
 56 58  1  0  0  0  0
 57 63  1  1  0  0  0
 57 60  1  0  0  0  0
 57 59  1  0  0  0  0
 59 58  1  0  0  0  0
 59 53  1  1  0  0  0
 60 56  1  0  0  0  0
 61 63  1  0  0  0  0
 63 62  2  0  0  0  0
 64 66  1  0  0  0  0
 64 50  1  0  0  0  0
 66 65  1  0  0  0  0
 67 66  2  0  0  0  0
M  END
>  <MODEL>
3

>  <REMARK>
 VINA RESULT:       6.1      1.478      2.042
  Name = 
  16 active torsions:
  status: ('A' for Active; 'I' for Inactive)
    1  A    between atoms: O_2  and  C_15
    2  A    between atoms: O_2  and  C_23
    3  A    between atoms: C_21  and  C_24
    4  A    between atoms: C_23  and  C_40
    5  A    between atoms: C_23  and  C_65
    6  A    between atoms: C_30  and  C_51
    7  A    between atoms: O_31  and  C_42
    8  A    between atoms: N_37  and  C_49
    9  A    between atoms: C_39  and  C_52
   10  A    between atoms: C_40  and  C_43
   11  A    between atoms: C_41  and  C_54
   12  A    between atoms: C_42  and  O_62
   13  A    between atoms: C_48  and  C_52
   14  A    between atoms: C_48  and  C_65
   15  A    between atoms: C_50  and  C_53
   16  A    between atoms: C_50  and  O_62
                            x       y       z     vdW  Elec       q    Type
                         _______ _______ _______ _____ _____    ______ ____

>  <TORSDO>
F 16

$$$$
