=
 OpenBabel11072413493D

 29 31  0  0  1  0  0  0  0  0999 V2000
  160.8760  200.9360  149.1590 N   0  0  0  0  0  0  0  0  0  0  0  0
  161.1840  205.8130  149.1800 N   0  0  0  0  0  0  0  0  0  0  0  0
  160.8390  200.9460  150.5140 C   0  0  0  0  0  3  0  0  0  0  0  0
  161.0530  204.5760  151.1880 N   0  0  0  0  0  2  0  0  0  0  0  0
  160.9910  203.3410  150.4810 C   0  0  0  0  0  0  0  0  0  0  0  0
  160.8970  202.1520  151.2010 C   0  0  0  0  0  3  0  0  0  0  0  0
  161.1240  204.6350  148.4070 N   0  0  0  0  0  0  0  0  0  0  0  0
  161.0270  203.3390  149.0740 C   0  0  0  0  0  0  0  0  0  0  0  0
  161.1520  205.8110  150.4780 C   0  0  0  0  0  0  0  0  0  0  0  0
  160.9680  202.0750  148.4200 C   0  0  0  0  0  0  0  0  0  0  0  0
  161.0030  201.9410  147.0060 N   0  0  0  0  0  1  0  0  0  0  0  0
  161.6450  205.9180  144.3570 C   0  0  0  0  0  3  0  0  0  0  0  0
  162.6470  205.2560  144.9570 C   0  0  0  0  0  3  0  0  0  0  0  0
  160.3070  206.1360  145.0160 C   0  0  0  0  0  2  0  0  0  0  0  0
  162.5700  204.7500  146.3770 C   0  0  0  0  0  2  0  0  0  0  0  0
  160.4120  206.1210  146.5360 C   0  0  0  0  0  2  0  0  0  0  0  0
  161.1600  204.8610  146.9630 C   0  0  2  0  0  3  0  0  0  0  0  0
  161.4180  208.1570  150.6000 O   0  0  0  0  0  0  0  0  0  0  0  0
  161.0900  208.2220  153.4940 C   0  0  0  0  0  0  0  0  0  0  0  0
  160.9550  208.0690  154.7370 O   0  0  0  0  0  0  0  0  0  0  0  0
  161.2190  207.0770  151.2200 C   0  0  0  0  0  0  0  0  0  0  0  0
  161.2670  209.5330  152.9480 N   0  0  0  0  0  2  0  0  0  0  0  0
  161.0590  207.0700  152.6440 N   0  0  0  0  0  2  0  0  0  0  0  0
  161.3530  210.7280  153.7770 C   0  0  0  0  0  2  0  0  0  0  0  0
  160.3510  211.7800  153.3170 C   0  0  0  0  0  2  0  0  0  0  0  0
  158.1540  211.0400  152.8450 F   0  0  0  0  0  0  0  0  0  0  0  0
  158.9510  211.5240  153.8640 C   0  0  0  0  0  0  0  0  0  0  0  0
  158.4050  212.7030  154.3420 F   0  0  0  0  0  0  0  0  0  0  0  0
  158.9940  210.5890  154.8820 F   0  0  0  0  0  0  0  0  0  0  0  0
  1  3  1  0  0  0  0
  2  9  2  0  0  0  0
  3  6  2  0  0  0  0
  5  4  1  0  0  0  0
  5  6  1  0  0  0  0
  7  8  1  0  0  0  0
  7  2  1  0  0  0  0
  8  5  2  0  0  0  0
  9  4  1  0  0  0  0
  9 21  1  0  0  0  0
 10  8  1  0  0  0  0
 10  1  2  0  0  0  0
 11 10  1  0  0  0  0
 12 13  2  0  0  0  0
 12 14  1  0  0  0  0
 13 15  1  0  0  0  0
 14 16  1  0  0  0  0
 16 17  1  0  0  0  0
 17 15  1  1  0  0  0
 17  7  1  0  0  0  0
 18 21  2  0  0  0  0
 19 20  2  0  0  0  0
 21 23  1  0  0  0  0
 22 19  1  0  0  0  0
 22 24  1  0  0  0  0
 23 19  1  0  0  0  0
 25 24  1  0  0  0  0
 25 27  1  0  0  0  0
 26 27  1  0  0  0  0
 27 28  1  0  0  0  0
 27 29  1  0  0  0  0
M  END
>  <MODEL>
1

>  <REMARK>
 VINA RESULT:      -8.3      0.000      0.000
  Name = 
  5 active torsions:
  status: ('A' for Active; 'I' for Inactive)
    1  A    between atoms: C_5  and  C_15
    2  A    between atoms: N_14  and  C_23
    3  A    between atoms: C_15  and  C_16
    4  A    between atoms: C_16  and  N_27
    5  A    between atoms: C_19  and  C_26
                            x       y       z     vdW  Elec       q    Type
                         _______ _______ _______ _____ _____    ______ ____

>  <TORSDO>
F 5

$$$$
=
 OpenBabel11072413493D

 29 31  0  0  1  0  0  0  0  0999 V2000
  160.8720  200.7880  148.9850 N   0  0  0  0  0  0  0  0  0  0  0  0
  161.2140  205.6550  149.2700 N   0  0  0  0  0  0  0  0  0  0  0  0
  160.8440  200.7250  150.3390 C   0  0  0  0  0  3  0  0  0  0  0  0
  161.0880  204.3110  151.2090 N   0  0  0  0  0  2  0  0  0  0  0  0
  161.0120  203.1170  150.4360 C   0  0  0  0  0  0  0  0  0  0  0  0
  160.9140  201.8910  151.0900 C   0  0  0  0  0  3  0  0  0  0  0  0
  161.1410  204.5210  148.4340 N   0  0  0  0  0  0  0  0  0  0  0  0
  161.0400  203.1920  149.0300 C   0  0  0  0  0  0  0  0  0  0  0  0
  161.1910  205.5820  150.5660 C   0  0  0  0  0  0  0  0  0  0  0  0
  160.9670  201.9660  148.3090 C   0  0  0  0  0  0  0  0  0  0  0  0
  160.9920  201.9090  146.8890 N   0  0  0  0  0  1  0  0  0  0  0  0
  161.6210  206.0350  144.4600 C   0  0  0  0  0  3  0  0  0  0  0  0
  162.6430  205.3720  145.0240 C   0  0  0  0  0  3  0  0  0  0  0  0
  160.2770  206.1780  145.1280 C   0  0  0  0  0  2  0  0  0  0  0  0
  162.5820  204.7880  146.4140 C   0  0  0  0  0  2  0  0  0  0  0  0
  160.3840  206.0840  146.6460 C   0  0  0  0  0  2  0  0  0  0  0  0
  161.1690  204.8250  147.0050 C   0  0  2  0  0  3  0  0  0  0  0  0
  161.0290  206.7550  152.6120 O   0  0  0  0  0  0  0  0  0  0  0  0
  161.7450  209.3100  151.4070 C   0  0  0  0  0  0  0  0  0  0  0  0
  162.0410  210.3280  150.7270 O   0  0  0  0  0  0  0  0  0  0  0  0
  161.2710  206.8050  151.3750 C   0  0  0  0  0  0  0  0  0  0  0  0
  161.5440  209.4240  152.8200 N   0  0  0  0  0  2  0  0  0  0  0  0
  161.6200  208.0450  150.7470 N   0  0  0  0  0  2  0  0  0  0  0  0
  161.6130  210.6970  153.5250 C   0  0  0  0  0  2  0  0  0  0  0  0
  161.1930  210.5320  154.9820 C   0  0  0  0  0  2  0  0  0  0  0  0
  162.5340  209.2370  156.4380 F   0  0  0  0  0  0  0  0  0  0  0  0
  162.3870  210.5130  155.9300 C   0  0  0  0  0  0  0  0  0  0  0  0
  162.1750  211.3920  156.9780 F   0  0  0  0  0  0  0  0  0  0  0  0
  163.5430  210.8650  155.2580 F   0  0  0  0  0  0  0  0  0  0  0  0
  1  3  1  0  0  0  0
  2  9  2  0  0  0  0
  3  6  2  0  0  0  0
  5  6  1  0  0  0  0
  5  4  1  0  0  0  0
  7  8  1  0  0  0  0
  7  2  1  0  0  0  0
  8  5  2  0  0  0  0
  9  4  1  0  0  0  0
  9 21  1  0  0  0  0
 10  1  2  0  0  0  0
 10  8  1  0  0  0  0
 11 10  1  0  0  0  0
 12 13  2  0  0  0  0
 12 14  1  0  0  0  0
 13 15  1  0  0  0  0
 14 16  1  0  0  0  0
 16 17  1  0  0  0  0
 17 15  1  1  0  0  0
 17  7  1  0  0  0  0
 19 22  1  0  0  0  0
 20 19  2  0  0  0  0
 21 18  2  0  0  0  0
 22 24  1  0  0  0  0
 23 21  1  0  0  0  0
 23 19  1  0  0  0  0
 24 25  1  0  0  0  0
 25 27  1  0  0  0  0
 27 26  1  0  0  0  0
 27 28  1  0  0  0  0
 29 27  1  0  0  0  0
M  END
>  <MODEL>
2

>  <REMARK>
 VINA RESULT:      -8.2      1.899      2.209
  Name = 
  5 active torsions:
  status: ('A' for Active; 'I' for Inactive)
    1  A    between atoms: C_5  and  C_15
    2  A    between atoms: N_14  and  C_23
    3  A    between atoms: C_15  and  C_16
    4  A    between atoms: C_16  and  N_27
    5  A    between atoms: C_19  and  C_26
                            x       y       z     vdW  Elec       q    Type
                         _______ _______ _______ _____ _____    ______ ____

>  <TORSDO>
F 5

$$$$
=
 OpenBabel11072413493D

 29 31  0  0  1  0  0  0  0  0999 V2000
  161.2370  207.8310  153.5840 N   0  0  0  0  0  0  0  0  0  0  0  0
  162.0120  209.0580  148.9180 N   0  0  0  0  0  0  0  0  0  0  0  0
  161.1930  209.1460  153.9090 C   0  0  0  0  0  3  0  0  0  0  0  0
  161.7510  210.6980  150.5980 N   0  0  0  0  0  2  0  0  0  0  0  0
  161.5740  209.7070  151.6060 C   0  0  0  0  0  0  0  0  0  0  0  0
  161.3620  210.1100  152.9230 C   0  0  0  0  0  3  0  0  0  0  0  0
  161.8440  208.0180  149.8550 N   0  0  0  0  0  0  0  0  0  0  0  0
  161.6190  208.3430  151.2610 C   0  0  0  0  0  0  0  0  0  0  0  0
  161.9720  210.3160  149.2410 C   0  0  0  0  0  0  0  0  0  0  0  0
  161.4420  207.3970  152.3100 C   0  0  0  0  0  0  0  0  0  0  0  0
  161.4730  205.9940  152.0910 N   0  0  0  0  0  1  0  0  0  0  0  0
  161.5350  204.3590  147.6570 C   0  0  0  0  0  3  0  0  0  0  0  0
  162.3300  205.3300  147.1810 C   0  0  0  0  0  3  0  0  0  0  0  0
  160.8280  204.4640  148.9840 C   0  0  0  0  0  2  0  0  0  0  0  0
  162.5210  206.6560  147.8770 C   0  0  0  0  0  2  0  0  0  0  0  0
  160.5910  205.9140  149.3890 C   0  0  0  0  0  2  0  0  0  0  0  0
  161.9090  206.6750  149.2810 C   0  0  2  0  0  3  0  0  0  0  0  0
  163.3060  211.8170  147.9920 O   0  0  0  0  0  0  0  0  0  0  0  0
  161.0490  212.8020  146.4340 C   0  0  0  0  0  0  0  0  0  0  0  0
  159.9700  213.1320  145.8740 O   0  0  0  0  0  0  0  0  0  0  0  0
  162.1560  211.3470  148.2120 C   0  0  0  0  0  0  0  0  0  0  0  0
  162.2820  213.4090  146.0310 N   0  0  0  0  0  2  0  0  0  0  0  0
  161.0220  211.8120  147.4680 N   0  0  0  0  0  2  0  0  0  0  0  0
  162.3510  214.4530  145.0180 C   0  0  0  0  0  2  0  0  0  0  0  0
  163.2680  214.0370  143.8730 C   0  0  0  0  0  2  0  0  0  0  0  0
  162.6830  212.1090  142.6330 F   0  0  0  0  0  0  0  0  0  0  0  0
  162.4930  213.4760  142.6850 C   0  0  0  0  0  0  0  0  0  0  0  0
  162.9540  214.0400  141.5090 F   0  0  0  0  0  0  0  0  0  0  0  0
  161.1420  213.7360  142.8250 F   0  0  0  0  0  0  0  0  0  0  0  0
  1  3  1  0  0  0  0
  2  9  2  0  0  0  0
  2  7  1  0  0  0  0
  4  5  1  0  0  0  0
  5  6  1  0  0  0  0
  6  3  2  0  0  0  0
  7  8  1  0  0  0  0
  8  5  2  0  0  0  0
  8 10  1  0  0  0  0
  9  4  1  0  0  0  0
 10  1  2  0  0  0  0
 11 10  1  0  0  0  0
 12 14  1  0  0  0  0
 13 12  2  0  0  0  0
 13 15  1  0  0  0  0
 14 16  1  0  0  0  0
 17 15  1  6  0  0  0
 17 16  1  0  0  0  0
 17  7  1  0  0  0  0
 18 21  2  0  0  0  0
 19 23  1  0  0  0  0
 20 19  2  0  0  0  0
 21  9  1  0  0  0  0
 22 19  1  0  0  0  0
 23 21  1  0  0  0  0
 24 22  1  0  0  0  0
 25 24  1  0  0  0  0
 26 27  1  0  0  0  0
 27 29  1  0  0  0  0
 27 25  1  0  0  0  0
 28 27  1  0  0  0  0
M  END
>  <MODEL>
3

>  <REMARK>
 VINA RESULT:      -7.4      5.626      7.583
  Name = 
  5 active torsions:
  status: ('A' for Active; 'I' for Inactive)
    1  A    between atoms: C_5  and  C_15
    2  A    between atoms: N_14  and  C_23
    3  A    between atoms: C_15  and  C_16
    4  A    between atoms: C_16  and  N_27
    5  A    between atoms: C_19  and  C_26
                            x       y       z     vdW  Elec       q    Type
                         _______ _______ _______ _____ _____    ______ ____

>  <TORSDO>
F 5

$$$$
=
 OpenBabel11072413493D

 29 31  0  0  1  0  0  0  0  0999 V2000
  160.5830  209.3400  156.9550 N   0  0  0  0  0  0  0  0  0  0  0  0
  160.4710  209.2320  152.0700 N   0  0  0  0  0  0  0  0  0  0  0  0
  161.0120  208.0540  156.9600 C   0  0  0  0  0  3  0  0  0  0  0  0
  161.1340  207.3480  153.3310 N   0  0  0  0  0  2  0  0  0  0  0  0
  160.9440  208.0420  154.5610 C   0  0  0  0  0  0  0  0  0  0  0  0
  161.2000  207.3810  155.7590 C   0  0  0  0  0  3  0  0  0  0  0  0
  160.2610  209.9880  153.2410 N   0  0  0  0  0  0  0  0  0  0  0  0
  160.5000  209.3790  154.5470 C   0  0  0  0  0  0  0  0  0  0  0  0
  160.8770  207.9990  152.0870 C   0  0  0  0  0  0  0  0  0  0  0  0
  160.3220  210.0210  155.8050 C   0  0  0  0  0  0  0  0  0  0  0  0
  159.8730  211.3640  155.9240 N   0  0  0  0  0  1  0  0  0  0  0  0
  158.5570  213.6970  151.9530 C   0  0  0  0  0  3  0  0  0  0  0  0
  157.8120  212.8740  152.7090 C   0  0  0  0  0  3  0  0  0  0  0  0
  160.0020  213.4170  151.6280 C   0  0  0  0  0  2  0  0  0  0  0  0
  158.3130  211.5480  153.2250 C   0  0  0  0  0  2  0  0  0  0  0  0
  160.3160  211.9260  151.6740 C   0  0  0  0  0  2  0  0  0  0  0  0
  159.8160  211.3600  153.0000 C   0  0  2  0  0  3  0  0  0  0  0  0
  161.3480  207.9050  149.7720 O   0  0  0  0  0  0  0  0  0  0  0  0
  161.1240  205.0020  149.6640 C   0  0  0  0  0  0  0  0  0  0  0  0
  160.9650  203.7590  149.7870 O   0  0  0  0  0  0  0  0  0  0  0  0
  161.0750  207.2700  150.8270 C   0  0  0  0  0  0  0  0  0  0  0  0
  161.4780  205.5570  148.3930 N   0  0  0  0  0  2  0  0  0  0  0  0
  160.9510  205.8420  150.8100 N   0  0  0  0  0  2  0  0  0  0  0  0
  161.6170  204.7480  147.1900 C   0  0  0  0  0  2  0  0  0  0  0  0
  161.8990  205.6260  145.9760 C   0  0  0  0  0  2  0  0  0  0  0  0
  161.3780  205.9080  143.6860 F   0  0  0  0  0  0  0  0  0  0  0  0
  160.8550  205.4500  144.8790 C   0  0  0  0  0  0  0  0  0  0  0  0
  159.7200  206.1810  145.1820 F   0  0  0  0  0  0  0  0  0  0  0  0
  160.5220  204.1150  144.7400 F   0  0  0  0  0  0  0  0  0  0  0  0
  1  3  1  0  0  0  0
  2  9  2  0  0  0  0
  2  7  1  0  0  0  0
  4  5  1  0  0  0  0
  5  6  1  0  0  0  0
  6  3  2  0  0  0  0
  7  8  1  0  0  0  0
  8  5  2  0  0  0  0
  8 10  1  0  0  0  0
  9  4  1  0  0  0  0
 10 11  1  0  0  0  0
 10  1  2  0  0  0  0
 12 13  2  0  0  0  0
 13 15  1  0  0  0  0
 14 16  1  0  0  0  0
 14 12  1  0  0  0  0
 17 16  1  6  0  0  0
 17 15  1  0  0  0  0
 17  7  1  0  0  0  0
 18 21  2  0  0  0  0
 19 20  2  0  0  0  0
 19 23  1  0  0  0  0
 21  9  1  0  0  0  0
 22 19  1  0  0  0  0
 23 21  1  0  0  0  0
 24 22  1  0  0  0  0
 25 24  1  0  0  0  0
 26 27  1  0  0  0  0
 27 28  1  0  0  0  0
 27 25  1  0  0  0  0
 29 27  1  0  0  0  0
M  END
>  <MODEL>
4

>  <REMARK>
 VINA RESULT:      -7.4      3.958      8.664
  Name = 
  5 active torsions:
  status: ('A' for Active; 'I' for Inactive)
    1  A    between atoms: C_5  and  C_15
    2  A    between atoms: N_14  and  C_23
    3  A    between atoms: C_15  and  C_16
    4  A    between atoms: C_16  and  N_27
    5  A    between atoms: C_19  and  C_26
                            x       y       z     vdW  Elec       q    Type
                         _______ _______ _______ _____ _____    ______ ____

>  <TORSDO>
F 5

$$$$
=
 OpenBabel11072413493D

 29 31  0  0  1  0  0  0  0  0999 V2000
  161.1800  210.1250  157.0420 N   0  0  0  0  0  0  0  0  0  0  0  0
  160.5270  209.0480  152.3200 N   0  0  0  0  0  0  0  0  0  0  0  0
  161.5970  208.8530  157.2600 C   0  0  0  0  0  3  0  0  0  0  0  0
  161.3110  207.4340  153.8570 N   0  0  0  0  0  2  0  0  0  0  0  0
  161.2640  208.3650  154.9340 C   0  0  0  0  0  0  0  0  0  0  0  0
  161.6460  207.9490  156.2070 C   0  0  0  0  0  3  0  0  0  0  0  0
  160.4540  210.0290  153.3310 N   0  0  0  0  0  0  0  0  0  0  0  0
  160.8320  209.6850  154.6990 C   0  0  0  0  0  0  0  0  0  0  0  0
  160.9230  207.8320  152.5410 C   0  0  0  0  0  0  0  0  0  0  0  0
  160.7990  210.5700  155.8140 C   0  0  0  0  0  0  0  0  0  0  0  0
  160.3760  211.9220  155.7070 N   0  0  0  0  0  1  0  0  0  0  0  0
  158.7160  213.4580  151.4500 C   0  0  0  0  0  3  0  0  0  0  0  0
  157.9780  212.7630  152.3310 C   0  0  0  0  0  3  0  0  0  0  0  0
  160.1630  213.1430  151.1760 C   0  0  0  0  0  2  0  0  0  0  0  0
  158.4910  211.5450  153.0580 C   0  0  0  0  0  2  0  0  0  0  0  0
  160.4920  211.6830  151.4660 C   0  0  0  0  0  2  0  0  0  0  0  0
  159.9960  211.3380  152.8670 C   0  0  2  0  0  3  0  0  0  0  0  0
  160.9040  205.6270  151.6890 O   0  0  0  0  0  0  0  0  0  0  0  0
  161.1610  206.5050  148.9220 C   0  0  0  0  0  0  0  0  0  0  0  0
  161.2990  207.0500  147.7960 O   0  0  0  0  0  0  0  0  0  0  0  0
  160.9740  206.8610  151.4400 C   0  0  0  0  0  0  0  0  0  0  0  0
  161.0540  205.0810  149.0220 N   0  0  0  0  0  2  0  0  0  0  0  0
  161.1070  207.3300  150.0920 N   0  0  0  0  0  2  0  0  0  0  0  0
  161.1510  204.2000  147.8660 C   0  0  0  0  0  2  0  0  0  0  0  0
  161.7720  202.8630  148.2550 C   0  0  0  0  0  2  0  0  0  0  0  0
  159.7940  201.9030  149.1290 F   0  0  0  0  0  0  0  0  0  0  0  0
  160.7720  201.7150  148.1720 C   0  0  0  0  0  0  0  0  0  0  0  0
  161.4100  200.5110  148.4120 F   0  0  0  0  0  0  0  0  0  0  0  0
  160.1780  201.6820  146.9230 F   0  0  0  0  0  0  0  0  0  0  0  0
  1  3  1  0  0  0  0
  2  9  2  0  0  0  0
  2  7  1  0  0  0  0
  4  5  1  0  0  0  0
  5  6  1  0  0  0  0
  6  3  2  0  0  0  0
  7  8  1  0  0  0  0
  8  5  2  0  0  0  0
  8 10  1  0  0  0  0
  9  4  1  0  0  0  0
 10  1  2  0  0  0  0
 11 10  1  0  0  0  0
 12 13  2  0  0  0  0
 13 15  1  0  0  0  0
 14 12  1  0  0  0  0
 14 16  1  0  0  0  0
 17 16  1  6  0  0  0
 17 15  1  0  0  0  0
 17  7  1  0  0  0  0
 19 22  1  0  0  0  0
 19 23  1  0  0  0  0
 20 19  2  0  0  0  0
 21 18  2  0  0  0  0
 21  9  1  0  0  0  0
 23 21  1  0  0  0  0
 24 25  1  0  0  0  0
 24 22  1  0  0  0  0
 27 25  1  0  0  0  0
 27 28  1  0  0  0  0
 27 26  1  0  0  0  0
 29 27  1  0  0  0  0
M  END
>  <MODEL>
5

>  <REMARK>
 VINA RESULT:      -7.3      4.150      8.877
  Name = 
  5 active torsions:
  status: ('A' for Active; 'I' for Inactive)
    1  A    between atoms: C_5  and  C_15
    2  A    between atoms: N_14  and  C_23
    3  A    between atoms: C_15  and  C_16
    4  A    between atoms: C_16  and  N_27
    5  A    between atoms: C_19  and  C_26
                            x       y       z     vdW  Elec       q    Type
                         _______ _______ _______ _____ _____    ______ ____

>  <TORSDO>
F 5

$$$$
=
 OpenBabel11072413493D

 29 31  0  0  1  0  0  0  0  0999 V2000
  160.3810  209.7870  157.1210 N   0  0  0  0  0  0  0  0  0  0  0  0
  160.5830  209.3290  152.2600 N   0  0  0  0  0  0  0  0  0  0  0  0
  160.8510  208.5220  157.2460 C   0  0  0  0  0  3  0  0  0  0  0  0
  161.2260  207.5650  153.6930 N   0  0  0  0  0  2  0  0  0  0  0  0
  160.9360  208.3370  154.8540 C   0  0  0  0  0  0  0  0  0  0  0  0
  161.1370  207.7730  156.1120 C   0  0  0  0  0  3  0  0  0  0  0  0
  160.2740  210.1580  153.3570 N   0  0  0  0  0  0  0  0  0  0  0  0
  160.4500  209.6520  154.7160 C   0  0  0  0  0  0  0  0  0  0  0  0
  161.0280  208.1160  152.3910 C   0  0  0  0  0  0  0  0  0  0  0  0
  160.1710  210.3740  155.9110 C   0  0  0  0  0  0  0  0  0  0  0  0
  159.6710  211.7040  155.9030 N   0  0  0  0  0  1  0  0  0  0  0  0
  158.5480  213.7020  151.6900 C   0  0  0  0  0  3  0  0  0  0  0  0
  157.7730  212.8970  152.4350 C   0  0  0  0  0  3  0  0  0  0  0  0
  160.0250  213.4640  151.5040 C   0  0  0  0  0  2  0  0  0  0  0  0
  158.2780  211.6290  153.0780 C   0  0  0  0  0  2  0  0  0  0  0  0
  160.3890  211.9930  151.6740 C   0  0  0  0  0  2  0  0  0  0  0  0
  159.8000  211.4910  152.9900 C   0  0  2  0  0  3  0  0  0  0  0  0
  161.1260  206.0640  151.2220 O   0  0  0  0  0  0  0  0  0  0  0  0
  162.1880  207.2900  148.8010 C   0  0  0  0  0  0  0  0  0  0  0  0
  162.6630  207.9710  147.8550 O   0  0  0  0  0  0  0  0  0  0  0  0
  161.3300  207.3080  151.2020 C   0  0  0  0  0  0  0  0  0  0  0  0
  161.9790  205.8830  148.6390 N   0  0  0  0  0  2  0  0  0  0  0  0
  161.8570  207.9450  150.0310 N   0  0  0  0  0  2  0  0  0  0  0  0
  162.3450  205.1670  147.4250 C   0  0  0  0  0  2  0  0  0  0  0  0
  161.2300  204.2180  146.9990 C   0  0  0  0  0  2  0  0  0  0  0  0
  160.5330  204.3940  144.7450 F   0  0  0  0  0  0  0  0  0  0  0  0
  161.4110  203.7170  145.5690 C   0  0  0  0  0  0  0  0  0  0  0  0
  161.1370  202.3630  145.5030 F   0  0  0  0  0  0  0  0  0  0  0  0
  162.7030  203.9500  145.1370 F   0  0  0  0  0  0  0  0  0  0  0  0
  1  3  1  0  0  0  0
  2  9  2  0  0  0  0
  2  7  1  0  0  0  0
  4  5  1  0  0  0  0
  5  6  1  0  0  0  0
  6  3  2  0  0  0  0
  7  8  1  0  0  0  0
  8  5  2  0  0  0  0
  8 10  1  0  0  0  0
  9  4  1  0  0  0  0
 10  1  2  0  0  0  0
 11 10  1  0  0  0  0
 12 13  2  0  0  0  0
 13 15  1  0  0  0  0
 14 16  1  0  0  0  0
 14 12  1  0  0  0  0
 17 16  1  6  0  0  0
 17 15  1  0  0  0  0
 17  7  1  0  0  0  0
 19 23  1  0  0  0  0
 20 19  2  0  0  0  0
 21 18  2  0  0  0  0
 21  9  1  0  0  0  0
 22 19  1  0  0  0  0
 23 21  1  0  0  0  0
 24 22  1  0  0  0  0
 25 24  1  0  0  0  0
 26 27  1  0  0  0  0
 27 25  1  0  0  0  0
 28 27  1  0  0  0  0
 29 27  1  0  0  0  0
M  END
>  <MODEL>
6

>  <REMARK>
 VINA RESULT:      -6.7      4.581      8.942
  Name = 
  5 active torsions:
  status: ('A' for Active; 'I' for Inactive)
    1  A    between atoms: C_5  and  C_15
    2  A    between atoms: N_14  and  C_23
    3  A    between atoms: C_15  and  C_16
    4  A    between atoms: C_16  and  N_27
    5  A    between atoms: C_19  and  C_26
                            x       y       z     vdW  Elec       q    Type
                         _______ _______ _______ _____ _____    ______ ____

>  <TORSDO>
F 5

$$$$
=
 OpenBabel11072413493D

 29 31  0  0  1  0  0  0  0  0999 V2000
  162.0360  211.2240  150.0520 N   0  0  0  0  0  0  0  0  0  0  0  0
  161.3820  206.4500  150.8680 N   0  0  0  0  0  0  0  0  0  0  0  0
  162.1170  210.9710  148.7230 C   0  0  0  0  0  3  0  0  0  0  0  0
  161.6730  207.3000  148.6840 N   0  0  0  0  0  2  0  0  0  0  0  0
  161.7920  208.6350  149.1660 C   0  0  0  0  0  0  0  0  0  0  0  0
  161.9960  209.6690  148.2550 C   0  0  0  0  0  3  0  0  0  0  0  0
  161.4870  207.7410  151.4250 N   0  0  0  0  0  0  0  0  0  0  0  0
  161.7050  208.8890  150.5480 C   0  0  0  0  0  0  0  0  0  0  0  0
  161.4660  206.2190  149.5930 C   0  0  0  0  0  0  0  0  0  0  0  0
  161.8370  210.2420  150.9730 C   0  0  0  0  0  0  0  0  0  0  0  0
  161.7740  210.6250  152.3400 N   0  0  0  0  0  1  0  0  0  0  0  0
  160.4010  207.5380  155.5590 C   0  0  0  0  0  3  0  0  0  0  0  0
  160.8670  206.4300  154.9610 C   0  0  0  0  0  3  0  0  0  0  0  0
  160.3420  208.8740  154.8640 C   0  0  0  0  0  2  0  0  0  0  0  0
  161.2870  206.3890  153.5120 C   0  0  0  0  0  2  0  0  0  0  0  0
  160.2450  208.7230  153.3500 C   0  0  0  0  0  2  0  0  0  0  0  0
  161.3510  207.7820  152.8800 C   0  0  2  0  0  3  0  0  0  0  0  0
  161.5700  204.6100  147.8640 O   0  0  0  0  0  0  0  0  0  0  0  0
  160.8310  202.4100  149.6260 C   0  0  0  0  0  0  0  0  0  0  0  0
  160.4790  201.5870  150.5120 O   0  0  0  0  0  0  0  0  0  0  0  0
  161.3470  204.8470  149.0830 C   0  0  0  0  0  0  0  0  0  0  0  0
  161.0860  201.9620  148.2910 N   0  0  0  0  0  2  0  0  0  0  0  0
  160.9760  203.7910  149.9780 N   0  0  0  0  0  2  0  0  0  0  0  0
  160.9050  200.5770  147.8760 C   0  0  0  0  0  2  0  0  0  0  0  0
  161.2050  200.4130  146.3910 C   0  0  0  0  0  2  0  0  0  0  0  0
  160.0800  200.6890  144.3280 F   0  0  0  0  0  0  0  0  0  0  0  0
  160.3480  201.3280  145.5220 C   0  0  0  0  0  0  0  0  0  0  0  0
  161.0260  202.5050  145.2600 F   0  0  0  0  0  0  0  0  0  0  0  0
  159.1530  201.6140  146.1570 F   0  0  0  0  0  0  0  0  0  0  0  0
  1 10  1  0  0  0  0
  2  7  1  0  0  0  0
  3  1  2  0  0  0  0
  4  5  1  0  0  0  0
  4  9  1  0  0  0  0
  5  8  1  0  0  0  0
  6  3  1  0  0  0  0
  6  5  2  0  0  0  0
  8 10  2  0  0  0  0
  8  7  1  0  0  0  0
  9  2  2  0  0  0  0
 10 11  1  0  0  0  0
 13 12  2  0  0  0  0
 14 12  1  0  0  0  0
 15 13  1  0  0  0  0
 16 14  1  0  0  0  0
 17  7  1  6  0  0  0
 17 16  1  0  0  0  0
 17 15  1  0  0  0  0
 18 21  2  0  0  0  0
 19 23  1  0  0  0  0
 19 20  2  0  0  0  0
 21  9  1  0  0  0  0
 21 23  1  0  0  0  0
 22 19  1  0  0  0  0
 24 22  1  0  0  0  0
 25 24  1  0  0  0  0
 26 27  1  0  0  0  0
 27 29  1  0  0  0  0
 27 25  1  0  0  0  0
 28 27  1  0  0  0  0
M  END
>  <MODEL>
7

>  <REMARK>
 VINA RESULT:      -6.4      4.914      8.926
  Name = 
  5 active torsions:
  status: ('A' for Active; 'I' for Inactive)
    1  A    between atoms: C_5  and  C_15
    2  A    between atoms: N_14  and  C_23
    3  A    between atoms: C_15  and  C_16
    4  A    between atoms: C_16  and  N_27
    5  A    between atoms: C_19  and  C_26
                            x       y       z     vdW  Elec       q    Type
                         _______ _______ _______ _____ _____    ______ ____

>  <TORSDO>
F 5

$$$$
=
 OpenBabel11072413493D

 29 31  0  0  1  0  0  0  0  0999 V2000
  161.2270  209.1270  154.7440 N   0  0  0  0  0  0  0  0  0  0  0  0
  161.4510  208.0890  149.9730 N   0  0  0  0  0  0  0  0  0  0  0  0
  161.0420  207.8100  155.0070 C   0  0  0  0  0  3  0  0  0  0  0  0
  161.1160  206.3990  151.5890 N   0  0  0  0  0  2  0  0  0  0  0  0
  161.1590  207.3420  152.6560 C   0  0  0  0  0  0  0  0  0  0  0  0
  161.0050  206.8920  153.9650 C   0  0  0  0  0  3  0  0  0  0  0  0
  161.5080  209.0840  150.9710 N   0  0  0  0  0  0  0  0  0  0  0  0
  161.3530  208.7080  152.3740 C   0  0  0  0  0  0  0  0  0  0  0  0
  161.2690  206.8300  150.2370 C   0  0  0  0  0  0  0  0  0  0  0  0
  161.3810  209.6050  153.4790 C   0  0  0  0  0  0  0  0  0  0  0  0
  161.5630  211.0060  153.3240 N   0  0  0  0  0  1  0  0  0  0  0  0
  161.5630  212.8960  149.0260 C   0  0  0  0  0  3  0  0  0  0  0  0
  160.6850  212.6930  150.0220 C   0  0  0  0  0  3  0  0  0  0  0  0
  162.5990  211.8730  148.6360 C   0  0  0  0  0  2  0  0  0  0  0  0
  160.5830  211.3940  150.7820 C   0  0  0  0  0  2  0  0  0  0  0  0
  162.1640  210.4570  148.9970 C   0  0  0  0  0  2  0  0  0  0  0  0
  161.7340  210.4350  150.4610 C   0  0  2  0  0  3  0  0  0  0  0  0
  160.6720  204.7280  149.3360 O   0  0  0  0  0  0  0  0  0  0  0  0
  161.8200  205.3230  146.7250 C   0  0  0  0  0  0  0  0  0  0  0  0
  162.3830  205.7290  145.6740 O   0  0  0  0  0  0  0  0  0  0  0  0
  161.2200  205.8480  149.1470 C   0  0  0  0  0  0  0  0  0  0  0  0
  161.2050  204.0310  146.7550 N   0  0  0  0  0  2  0  0  0  0  0  0
  161.8000  206.1730  147.8770 N   0  0  0  0  0  2  0  0  0  0  0  0
  161.2420  203.1130  145.6240 C   0  0  0  0  0  2  0  0  0  0  0  0
  160.6590  201.7570  146.0070 C   0  0  0  0  0  2  0  0  0  0  0  0
  159.7350  201.7000  148.1850 F   0  0  0  0  0  0  0  0  0  0  0  0
  160.8890  201.4230  147.4780 C   0  0  0  0  0  0  0  0  0  0  0  0
  161.9220  202.1910  147.9840 F   0  0  0  0  0  0  0  0  0  0  0  0
  161.1950  200.0820  147.6250 F   0  0  0  0  0  0  0  0  0  0  0  0
  1  3  1  0  0  0  0
  2  9  2  0  0  0  0
  2  7  1  0  0  0  0
  4  5  1  0  0  0  0
  5  6  1  0  0  0  0
  6  3  2  0  0  0  0
  7  8  1  0  0  0  0
  8  5  2  0  0  0  0
  8 10  1  0  0  0  0
  9  4  1  0  0  0  0
 10  1  2  0  0  0  0
 11 10  1  0  0  0  0
 12 13  2  0  0  0  0
 13 15  1  0  0  0  0
 14 16  1  0  0  0  0
 14 12  1  0  0  0  0
 17 16  1  6  0  0  0
 17 15  1  0  0  0  0
 17  7  1  0  0  0  0
 19 22  1  0  0  0  0
 19 23  1  0  0  0  0
 20 19  2  0  0  0  0
 21 18  2  0  0  0  0
 21  9  1  0  0  0  0
 23 21  1  0  0  0  0
 24 25  1  0  0  0  0
 24 22  1  0  0  0  0
 25 27  1  0  0  0  0
 27 29  1  0  0  0  0
 27 28  1  0  0  0  0
 27 26  1  0  0  0  0
M  END
>  <MODEL>
8

>  <REMARK>
 VINA RESULT:      -6.3      4.439      8.239
  Name = 
  5 active torsions:
  status: ('A' for Active; 'I' for Inactive)
    1  A    between atoms: C_5  and  C_15
    2  A    between atoms: N_14  and  C_23
    3  A    between atoms: C_15  and  C_16
    4  A    between atoms: C_16  and  N_27
    5  A    between atoms: C_19  and  C_26
                            x       y       z     vdW  Elec       q    Type
                         _______ _______ _______ _____ _____    ______ ____

>  <TORSDO>
F 5

$$$$
=
 OpenBabel11072413493D

 29 31  0  0  1  0  0  0  0  0999 V2000
  159.1810  213.4070  154.3660 N   0  0  0  0  0  0  0  0  0  0  0  0
  160.9260  209.1380  152.7500 N   0  0  0  0  0  0  0  0  0  0  0  0
  159.2290  213.8900  153.1000 C   0  0  0  0  0  3  0  0  0  0  0  0
  160.5520  210.9520  151.2840 N   0  0  0  0  0  2  0  0  0  0  0  0
  160.0830  211.7770  152.3470 C   0  0  0  0  0  0  0  0  0  0  0  0
  159.6820  213.0810  152.0660 C   0  0  0  0  0  3  0  0  0  0  0  0
  160.4740  209.8880  153.8540 N   0  0  0  0  0  0  0  0  0  0  0  0
  160.0350  211.2680  153.6580 C   0  0  0  0  0  0  0  0  0  0  0  0
  160.9710  209.6120  151.5420 C   0  0  0  0  0  0  0  0  0  0  0  0
  159.5640  212.1390  154.6810 C   0  0  0  0  0  0  0  0  0  0  0  0
  159.4750  211.7450  156.0430 N   0  0  0  0  0  1  0  0  0  0  0  0
  161.1140  207.3780  157.2610 C   0  0  0  0  0  3  0  0  0  0  0  0
  161.9070  208.4480  157.0920 C   0  0  0  0  0  3  0  0  0  0  0  0
  159.9430  207.0830  156.3590 C   0  0  0  0  0  2  0  0  0  0  0  0
  161.7660  209.4050  155.9340 C   0  0  0  0  0  2  0  0  0  0  0  0
  160.1280  207.6870  154.9720 C   0  0  0  0  0  2  0  0  0  0  0  0
  160.4900  209.1620  155.1230 C   0  0  2  0  0  3  0  0  0  0  0  0
  162.2770  209.2440  149.6050 O   0  0  0  0  0  0  0  0  0  0  0  0
  161.3690  206.4920  149.3020 C   0  0  0  0  0  0  0  0  0  0  0  0
  160.8590  205.3400  149.3030 O   0  0  0  0  0  0  0  0  0  0  0  0
  161.4540  208.7730  150.4380 C   0  0  0  0  0  0  0  0  0  0  0  0
  162.3270  206.8510  148.3010 N   0  0  0  0  0  2  0  0  0  0  0  0
  160.9820  207.4250  150.3160 N   0  0  0  0  0  2  0  0  0  0  0  0
  162.7160  205.9520  147.2220 C   0  0  0  0  0  2  0  0  0  0  0  0
  161.5510  205.7190  146.2660 C   0  0  0  0  0  2  0  0  0  0  0  0
  161.2290  203.4320  146.7770 F   0  0  0  0  0  0  0  0  0  0  0  0
  161.5160  204.2900  145.7340 C   0  0  0  0  0  0  0  0  0  0  0  0
  162.7460  203.9520  145.1980 F   0  0  0  0  0  0  0  0  0  0  0  0
  160.5380  204.1610  144.7640 F   0  0  0  0  0  0  0  0  0  0  0  0
  1 10  1  0  0  0  0
  2  7  1  0  0  0  0
  3  1  2  0  0  0  0
  4  9  1  0  0  0  0
  4  5  1  0  0  0  0
  5  8  1  0  0  0  0
  6  5  2  0  0  0  0
  6  3  1  0  0  0  0
  8  7  1  0  0  0  0
  8 10  2  0  0  0  0
  9  2  2  0  0  0  0
 10 11  1  0  0  0  0
 13 12  2  0  0  0  0
 14 12  1  0  0  0  0
 15 13  1  0  0  0  0
 16 17  1  0  0  0  0
 16 14  1  0  0  0  0
 17  7  1  6  0  0  0
 17 15  1  0  0  0  0
 18 21  2  0  0  0  0
 19 20  2  0  0  0  0
 19 23  1  0  0  0  0
 21  9  1  0  0  0  0
 22 19  1  0  0  0  0
 23 21  1  0  0  0  0
 24 22  1  0  0  0  0
 25 24  1  0  0  0  0
 27 25  1  0  0  0  0
 27 26  1  0  0  0  0
 28 27  1  0  0  0  0
 29 27  1  0  0  0  0
M  END
>  <MODEL>
9

>  <REMARK>
 VINA RESULT:      -6.2      4.602      9.548
  Name = 
  5 active torsions:
  status: ('A' for Active; 'I' for Inactive)
    1  A    between atoms: C_5  and  C_15
    2  A    between atoms: N_14  and  C_23
    3  A    between atoms: C_15  and  C_16
    4  A    between atoms: C_16  and  N_27
    5  A    between atoms: C_19  and  C_26
                            x       y       z     vdW  Elec       q    Type
                         _______ _______ _______ _____ _____    ______ ____

>  <TORSDO>
F 5

$$$$
