=
 OpenBabel11072414393D

 26 29  0  0  1  0  0  0  0  0999 V2000
  161.7320  209.9850  148.3710 O   0  0  0  0  0  1  0  0  0  0  0  0
  161.9010  210.1370  154.9230 C   0  0  0  0  0  0  0  0  0  0  0  0
  161.0820  209.0480  155.2570 C   0  0  0  0  0  0  0  0  0  0  0  0
  161.1290  207.6590  150.6450 C   0  0  0  0  0  0  0  0  0  0  0  0
  162.2700  208.8210  148.9190 C   0  0  1  0  0  3  0  0  0  0  0  0
  161.9200  208.7380  150.3530 C   0  0  0  0  0  0  0  0  0  0  0  0
  160.6850  207.4310  151.9480 C   0  0  0  0  0  3  0  0  0  0  0  0
  160.6700  208.8590  156.5700 O   0  0  0  0  0  1  0  0  0  0  0  0
  161.9140  209.4290  152.6060 C   0  0  0  0  0  0  0  0  0  0  0  0
  161.5710  207.5970  148.3040 C   0  0  0  0  0  2  0  0  0  0  0  0
  162.3130  209.6130  151.3160 N   0  0  0  0  0  0  0  0  0  0  0  0
  162.3080  211.0340  155.9030 O   0  0  0  0  0  1  0  0  0  0  0  0
  162.3150  210.3260  153.6000 C   0  0  0  0  0  3  0  0  0  0  0  0
  160.6750  208.1460  154.2690 C   0  0  0  0  0  3  0  0  0  0  0  0
  160.8330  206.8530  149.4370 C   0  0  1  0  0  3  0  0  0  0  0  0
  161.0850  208.3280  152.9460 C   0  0  0  0  0  0  0  0  0  0  0  0
  160.6070  204.7110  150.7570 C   0  0  0  0  0  2  0  0  0  0  0  0
  161.0200  202.6320  151.8600 O   0  0  0  0  0  0  0  0  0  0  0  0
  160.9690  203.2600  150.7700 C   0  0  0  0  0  0  0  0  0  0  0  0
  161.1880  202.5870  149.5630 O   0  0  0  0  0  0  0  0  0  0  0  0
  161.1970  204.6030  148.3080 C   0  0  0  0  0  3  0  0  0  0  0  0
  161.1880  203.2650  148.3350 C   0  0  0  0  0  0  0  0  0  0  0  0
  161.3060  205.4010  149.5840 C   0  0  1  0  0  3  0  0  0  0  0  0
  161.3260  203.1420  145.7540 C   0  0  0  0  0  1  0  0  0  0  0  0
  161.0010  201.2390  147.1330 O   0  0  0  0  0  0  0  0  0  0  0  0
  161.1620  202.4870  147.0850 C   0  0  0  0  0  0  0  0  0  0  0  0
  2  3  1  0  0  0  0
  2 12  1  0  0  0  0
  3  8  1  0  0  0  0
  4  7  1  0  0  0  0
  5  1  1  6  0  0  0
  5  6  1  0  0  0  0
  6  4  2  0  0  0  0
  6 11  1  0  0  0  0
  7 16  2  0  0  0  0
  9 16  1  0  0  0  0
  9 13  1  0  0  0  0
 10  5  1  0  0  0  0
 11  9  2  0  0  0  0
 13  2  2  0  0  0  0
 14  3  2  0  0  0  0
 15 10  1  6  0  0  0
 15 23  1  0  0  0  0
 15  4  1  0  0  0  0
 16 14  1  0  0  0  0
 17 19  1  0  0  0  0
 19 18  2  0  0  0  0
 20 19  1  0  0  0  0
 21 22  2  0  0  0  0
 22 20  1  0  0  0  0
 23 21  1  6  0  0  0
 23 17  1  0  0  0  0
 24 26  1  0  0  0  0
 26 25  2  0  0  0  0
 26 22  1  0  0  0  0
M  END
>  <MODEL>
1

>  <REMARK>
 VINA RESULT:      -9.8      0.000      0.000
  Name = 
  2 active torsions:
  status: ('A' for Active; 'I' for Inactive)
    1  A    between atoms: C_21  and  C_26
    2  A    between atoms: C_24  and  C_25
                            x       y       z     vdW  Elec       q    Type
                         _______ _______ _______ _____ _____    ______ ____

>  <TORSDO>
F 2

$$$$
=
 OpenBabel11072414393D

 26 29  0  0  1  0  0  0  0  0999 V2000
  162.7210  208.5990  148.6010 O   0  0  0  0  0  1  0  0  0  0  0  0
  160.7560  202.3460  148.7360 C   0  0  0  0  0  0  0  0  0  0  0  0
  160.9340  202.0180  150.0880 C   0  0  0  0  0  0  0  0  0  0  0  0
  161.6560  206.6770  151.0750 C   0  0  0  0  0  0  0  0  0  0  0  0
  161.6270  208.4010  149.4430 C   0  0  1  0  0  3  0  0  0  0  0  0
  161.4860  206.9600  149.7450 C   0  0  0  0  0  0  0  0  0  0  0  0
  161.5770  205.3650  151.5400 C   0  0  0  0  0  3  0  0  0  0  0  0
  160.8400  200.6970  150.5060 O   0  0  0  0  0  1  0  0  0  0  0  0
  161.1240  204.6860  149.2450 C   0  0  0  0  0  0  0  0  0  0  0  0
  161.9180  209.0320  150.8150 C   0  0  0  0  0  2  0  0  0  0  0  0
  161.2210  205.9830  148.8380 N   0  0  0  0  0  0  0  0  0  0  0  0
  160.4840  201.3520  147.8040 O   0  0  0  0  0  1  0  0  0  0  0  0
  160.8520  203.6780  148.3170 C   0  0  0  0  0  3  0  0  0  0  0  0
  161.2080  203.0210  151.0240 C   0  0  0  0  0  3  0  0  0  0  0  0
  161.9350  207.9000  151.8640 C   0  0  1  0  0  3  0  0  0  0  0  0
  161.3050  204.3520  150.6130 C   0  0  0  0  0  0  0  0  0  0  0  0
  161.2920  207.3770  154.2500 C   0  0  0  0  0  2  0  0  0  0  0  0
  160.0890  206.9110  156.2610 O   0  0  0  0  0  0  0  0  0  0  0  0
  160.3480  207.7410  155.3520 C   0  0  0  0  0  0  0  0  0  0  0  0
  159.8040  209.0290  155.4030 O   0  0  0  0  0  0  0  0  0  0  0  0
  160.5920  209.5740  153.2300 C   0  0  0  0  0  3  0  0  0  0  0  0
  160.0310  209.9640  154.3810 C   0  0  0  0  0  0  0  0  0  0  0  0
  160.8970  208.1180  152.9730 C   0  0  1  0  0  3  0  0  0  0  0  0
  158.3670  211.9250  154.1050 C   0  0  0  0  0  1  0  0  0  0  0  0
  160.4510  212.1320  155.2200 O   0  0  0  0  0  0  0  0  0  0  0  0
  159.6620  211.3720  154.6000 C   0  0  0  0  0  0  0  0  0  0  0  0
  2  3  1  0  0  0  0
  3  8  1  0  0  0  0
  3 14  2  0  0  0  0
  4  7  1  0  0  0  0
  4 15  1  0  0  0  0
  5  1  1  6  0  0  0
  5  6  1  0  0  0  0
  5 10  1  0  0  0  0
  6  4  2  0  0  0  0
  9 16  1  0  0  0  0
 11  9  2  0  0  0  0
 11  6  1  0  0  0  0
 12  2  1  0  0  0  0
 13  2  2  0  0  0  0
 13  9  1  0  0  0  0
 15 10  1  6  0  0  0
 15 23  1  0  0  0  0
 16 14  1  0  0  0  0
 16  7  2  0  0  0  0
 17 19  1  0  0  0  0
 19 20  1  0  0  0  0
 19 18  2  0  0  0  0
 21 22  2  0  0  0  0
 22 26  1  0  0  0  0
 22 20  1  0  0  0  0
 23 21  1  1  0  0  0
 23 17  1  0  0  0  0
 24 26  1  0  0  0  0
 26 25  2  0  0  0  0
M  END
>  <MODEL>
2

>  <REMARK>
 VINA RESULT:      -9.7      1.778      7.512
  Name = 
  2 active torsions:
  status: ('A' for Active; 'I' for Inactive)
    1  A    between atoms: C_21  and  C_26
    2  A    between atoms: C_24  and  C_25
                            x       y       z     vdW  Elec       q    Type
                         _______ _______ _______ _____ _____    ______ ____

>  <TORSDO>
F 2

$$$$
=
 OpenBabel11072414393D

 26 29  0  0  1  0  0  0  0  0999 V2000
  160.7770  202.6600  152.1350 O   0  0  0  0  0  1  0  0  0  0  0  0
  161.3490  204.4370  145.8500 C   0  0  0  0  0  0  0  0  0  0  0  0
  160.8060  205.7310  145.8660 C   0  0  0  0  0  0  0  0  0  0  0  0
  160.8400  205.6320  150.6830 C   0  0  0  0  0  0  0  0  0  0  0  0
  161.5870  203.7830  151.9680 C   0  0  1  0  0  3  0  0  0  0  0  0
  161.3610  204.3670  150.6290 C   0  0  0  0  0  0  0  0  0  0  0  0
  160.5430  206.3320  149.5130 C   0  0  0  0  0  3  0  0  0  0  0  0
  160.5330  206.3900  144.6750 O   0  0  0  0  0  1  0  0  0  0  0  0
  161.3580  204.3990  148.2720 C   0  0  0  0  0  0  0  0  0  0  0  0
  161.1270  204.8920  152.9300 C   0  0  0  0  0  2  0  0  0  0  0  0
  161.6210  203.7540  149.4440 N   0  0  0  0  0  0  0  0  0  0  0  0
  161.6180  203.8060  144.6420 O   0  0  0  0  0  1  0  0  0  0  0  0
  161.6230  203.7740  147.0520 C   0  0  0  0  0  3  0  0  0  0  0  0
  160.5360  206.3630  147.0840 C   0  0  0  0  0  3  0  0  0  0  0  0
  160.6430  206.0850  152.0800 C   0  0  1  0  0  3  0  0  0  0  0  0
  160.8080  205.7080  148.2870 C   0  0  0  0  0  0  0  0  0  0  0  0
  161.2230  208.4100  151.2800 C   0  0  0  0  0  2  0  0  0  0  0  0
  162.3320  210.4730  150.8110 O   0  0  0  0  0  0  0  0  0  0  0  0
  161.8640  209.7000  151.6850 C   0  0  0  0  0  0  0  0  0  0  0  0
  161.8840  210.0710  153.0340 O   0  0  0  0  0  0  0  0  0  0  0  0
  161.1420  207.9330  153.7550 C   0  0  0  0  0  3  0  0  0  0  0  0
  161.4150  209.2130  154.0400 C   0  0  0  0  0  0  0  0  0  0  0  0
  161.4240  207.3710  152.3830 C   0  0  1  0  0  3  0  0  0  0  0  0
  159.8520  209.8600  155.9970 C   0  0  0  0  0  1  0  0  0  0  0  0
  162.2110  210.0980  156.0800 O   0  0  0  0  0  0  0  0  0  0  0  0
  161.2140  209.7400  155.4000 C   0  0  0  0  0  0  0  0  0  0  0  0
  2  3  2  0  0  0  0
  2 13  1  0  0  0  0
  3 14  1  0  0  0  0
  4 15  1  0  0  0  0
  5  1  1  6  0  0  0
  5 10  1  0  0  0  0
  6  4  1  0  0  0  0
  6  5  1  0  0  0  0
  7  4  2  0  0  0  0
  8  3  1  0  0  0  0
  9 16  1  0  0  0  0
  9 11  1  0  0  0  0
 11  6  2  0  0  0  0
 12  2  1  0  0  0  0
 13  9  2  0  0  0  0
 14 16  2  0  0  0  0
 15 23  1  0  0  0  0
 15 10  1  1  0  0  0
 16  7  1  0  0  0  0
 17 19  1  0  0  0  0
 18 19  2  0  0  0  0
 19 20  1  0  0  0  0
 20 22  1  0  0  0  0
 21 22  2  0  0  0  0
 22 26  1  0  0  0  0
 23 17  1  6  0  0  0
 23 21  1  0  0  0  0
 26 24  1  0  0  0  0
 26 25  2  0  0  0  0
M  END
>  <MODEL>
3

>  <REMARK>
 VINA RESULT:      -9.3      2.249      8.110
  Name = 
  2 active torsions:
  status: ('A' for Active; 'I' for Inactive)
    1  A    between atoms: C_21  and  C_26
    2  A    between atoms: C_24  and  C_25
                            x       y       z     vdW  Elec       q    Type
                         _______ _______ _______ _____ _____    ______ ____

>  <TORSDO>
F 2

$$$$
=
 OpenBabel11072414393D

 26 29  0  0  1  0  0  0  0  0999 V2000
  162.6540  209.7720  148.3720 O   0  0  0  0  0  1  0  0  0  0  0  0
  160.7440  203.7250  150.0330 C   0  0  0  0  0  0  0  0  0  0  0  0
  161.1090  203.6690  151.3860 C   0  0  0  0  0  0  0  0  0  0  0  0
  161.9490  208.4120  151.3050 C   0  0  0  0  0  0  0  0  0  0  0  0
  161.6890  209.7740  149.3790 C   0  0  1  0  0  3  0  0  0  0  0  0
  161.5950  208.4270  149.9820 C   0  0  0  0  0  0  0  0  0  0  0  0
  161.9390  207.2210  152.0320 C   0  0  0  0  0  3  0  0  0  0  0  0
  161.0770  202.4610  152.0710 O   0  0  0  0  0  1  0  0  0  0  0  0
  161.1730  206.1080  150.0040 C   0  0  0  0  0  0  0  0  0  0  0  0
  162.1660  210.6590  150.5430 C   0  0  0  0  0  2  0  0  0  0  0  0
  161.2090  207.2950  149.3350 N   0  0  0  0  0  0  0  0  0  0  0  0
  160.3480  202.5710  149.3670 O   0  0  0  0  0  1  0  0  0  0  0  0
  160.7770  204.9420  149.3450 C   0  0  0  0  0  3  0  0  0  0  0  0
  161.5080  204.8310  152.0540 C   0  0  0  0  0  3  0  0  0  0  0  0
  162.3320  209.7600  151.7860 C   0  0  1  0  0  3  0  0  0  0  0  0
  161.5430  206.0510  151.3740 C   0  0  0  0  0  0  0  0  0  0  0  0
  160.0220  210.4870  152.5040 C   0  0  0  0  0  2  0  0  0  0  0  0
  158.1740  211.5450  153.5880 O   0  0  0  0  0  0  0  0  0  0  0  0
  159.1650  210.7770  153.6950 C   0  0  0  0  0  0  0  0  0  0  0  0
  159.4320  210.1420  154.9130 O   0  0  0  0  0  0  0  0  0  0  0  0
  161.5160  209.2970  154.1500 C   0  0  0  0  0  3  0  0  0  0  0  0
  160.5550  209.3190  155.0820 C   0  0  0  0  0  0  0  0  0  0  0  0
  161.4570  210.2220  152.9590 C   0  0  1  0  0  3  0  0  0  0  0  0
  159.8950  207.1930  156.4010 C   0  0  0  0  0  1  0  0  0  0  0  0
  161.3930  208.8320  157.2360 O   0  0  0  0  0  0  0  0  0  0  0  0
  160.6520  208.4730  156.2840 C   0  0  0  0  0  0  0  0  0  0  0  0
  2  3  1  0  0  0  0
  3 14  2  0  0  0  0
  3  8  1  0  0  0  0
  4 15  1  0  0  0  0
  4  7  1  0  0  0  0
  5  1  1  6  0  0  0
  5  6  1  0  0  0  0
  5 10  1  0  0  0  0
  6  4  2  0  0  0  0
  9 16  1  0  0  0  0
 11  6  1  0  0  0  0
 11  9  2  0  0  0  0
 12  2  1  0  0  0  0
 13  9  1  0  0  0  0
 13  2  2  0  0  0  0
 15 10  1  6  0  0  0
 15 23  1  0  0  0  0
 16  7  2  0  0  0  0
 16 14  1  0  0  0  0
 17 19  1  0  0  0  0
 18 19  2  0  0  0  0
 19 20  1  0  0  0  0
 20 22  1  0  0  0  0
 21 22  2  0  0  0  0
 22 26  1  0  0  0  0
 23 17  1  6  0  0  0
 23 21  1  0  0  0  0
 26 24  1  0  0  0  0
 26 25  2  0  0  0  0
M  END
>  <MODEL>
4

>  <REMARK>
 VINA RESULT:      -8.4      1.786      7.071
  Name = 
  2 active torsions:
  status: ('A' for Active; 'I' for Inactive)
    1  A    between atoms: C_21  and  C_26
    2  A    between atoms: C_24  and  C_25
                            x       y       z     vdW  Elec       q    Type
                         _______ _______ _______ _____ _____    ______ ____

>  <TORSDO>
F 2

$$$$
=
 OpenBabel11072414393D

 26 29  0  0  1  0  0  0  0  0999 V2000
  161.0810  203.3820  152.7550 O   0  0  0  0  0  1  0  0  0  0  0  0
  161.1430  209.8730  151.8370 C   0  0  0  0  0  0  0  0  0  0  0  0
  161.8730  209.9880  150.6440 C   0  0  0  0  0  0  0  0  0  0  0  0
  161.5480  205.2200  150.0430 C   0  0  0  0  0  0  0  0  0  0  0  0
  160.4600  203.7600  151.5650 C   0  0  1  0  0  3  0  0  0  0  0  0
  160.8480  205.1440  151.2170 C   0  0  0  0  0  0  0  0  0  0  0  0
  162.0130  206.4460  149.5680 C   0  0  0  0  0  3  0  0  0  0  0  0
  162.3090  211.2320  150.2070 O   0  0  0  0  0  1  0  0  0  0  0  0
  160.9900  207.4760  151.5250 C   0  0  0  0  0  0  0  0  0  0  0  0
  161.0250  202.9230  150.4050 C   0  0  0  0  0  2  0  0  0  0  0  0
  160.5670  206.2530  151.9520 N   0  0  0  0  0  0  0  0  0  0  0  0
  160.8520  211.0040  152.5920 O   0  0  0  0  0  1  0  0  0  0  0  0
  160.7050  208.6190  152.2760 C   0  0  0  0  0  3  0  0  0  0  0  0
  162.1640  208.8490  149.8870 C   0  0  0  0  0  3  0  0  0  0  0  0
  161.7310  203.8850  149.4260 C   0  0  1  0  0  3  0  0  0  0  0  0
  161.7290  207.5940  150.3180 C   0  0  0  0  0  0  0  0  0  0  0  0
  161.9180  204.7030  147.0440 C   0  0  0  0  0  2  0  0  0  0  0  0
  161.4520  205.4280  144.8150 O   0  0  0  0  0  0  0  0  0  0  0  0
  161.4120  204.4890  145.6520 C   0  0  0  0  0  0  0  0  0  0  0  0
  160.9530  203.2250  145.2670 O   0  0  0  0  0  0  0  0  0  0  0  0
  160.9750  202.4090  147.4970 C   0  0  0  0  0  3  0  0  0  0  0  0
  160.8470  202.1700  146.1860 C   0  0  0  0  0  0  0  0  0  0  0  0
  161.1340  203.8180  148.0130 C   0  0  1  0  0  3  0  0  0  0  0  0
  159.7290  200.5420  144.5150 C   0  0  0  0  0  1  0  0  0  0  0  0
  161.1700  199.8320  146.2610 O   0  0  0  0  0  0  0  0  0  0  0  0
  160.6130  200.8050  145.6890 C   0  0  0  0  0  0  0  0  0  0  0  0
  2 13  1  0  0  0  0
  2 12  1  0  0  0  0
  3  2  2  0  0  0  0
  4  6  1  0  0  0  0
  5  1  1  1  0  0  0
  6  5  1  0  0  0  0
  6 11  2  0  0  0  0
  7  4  2  0  0  0  0
  7 16  1  0  0  0  0
  8  3  1  0  0  0  0
  9 11  1  0  0  0  0
  9 13  2  0  0  0  0
 10  5  1  0  0  0  0
 14 16  2  0  0  0  0
 14  3  1  0  0  0  0
 15  4  1  0  0  0  0
 15 10  1  1  0  0  0
 16  9  1  0  0  0  0
 18 19  2  0  0  0  0
 19 17  1  0  0  0  0
 20 19  1  0  0  0  0
 20 22  1  0  0  0  0
 21 23  1  0  0  0  0
 22 21  2  0  0  0  0
 23 17  1  6  0  0  0
 23 15  1  0  0  0  0
 24 26  1  0  0  0  0
 26 22  1  0  0  0  0
 26 25  2  0  0  0  0
M  END
>  <MODEL>
5

>  <REMARK>
 VINA RESULT:      -7.9      2.050      4.263
  Name = 
  2 active torsions:
  status: ('A' for Active; 'I' for Inactive)
    1  A    between atoms: C_21  and  C_26
    2  A    between atoms: C_24  and  C_25
                            x       y       z     vdW  Elec       q    Type
                         _______ _______ _______ _____ _____    ______ ____

>  <TORSDO>
F 2

$$$$
=
 OpenBabel11072414393D

 26 29  0  0  1  0  0  0  0  0999 V2000
  162.6810  210.4620  148.2600 O   0  0  0  0  0  1  0  0  0  0  0  0
  160.8790  204.7400  145.6150 C   0  0  0  0  0  0  0  0  0  0  0  0
  161.2220  203.8330  146.6290 C   0  0  0  0  0  0  0  0  0  0  0  0
  161.9550  207.5350  149.6230 C   0  0  0  0  0  0  0  0  0  0  0  0
  161.6980  209.8130  149.0070 C   0  0  1  0  0  3  0  0  0  0  0  0
  161.6240  208.3910  148.6060 C   0  0  0  0  0  0  0  0  0  0  0  0
  161.9590  206.1560  149.4200 C   0  0  0  0  0  3  0  0  0  0  0  0
  161.2050  202.4670  146.3820 O   0  0  0  0  0  1  0  0  0  0  0  0
  161.2550  206.5930  147.1290 C   0  0  0  0  0  0  0  0  0  0  0  0
  162.1340  209.7520  150.4810 C   0  0  0  0  0  2  0  0  0  0  0  0
  161.2750  207.9340  147.3750 N   0  0  0  0  0  0  0  0  0  0  0  0
  160.5210  204.2770  144.3550 O   0  0  0  0  0  1  0  0  0  0  0  0
  160.8970  206.1160  145.8660 C   0  0  0  0  0  3  0  0  0  0  0  0
  161.5820  204.3020  147.8970 C   0  0  0  0  0  3  0  0  0  0  0  0
  162.2990  208.2670  150.8660 C   0  0  1  0  0  3  0  0  0  0  0  0
  161.6010  205.6740  148.1550 C   0  0  0  0  0  0  0  0  0  0  0  0
  161.8600  206.5530  152.6690 C   0  0  0  0  0  2  0  0  0  0  0  0
  160.8310  205.0930  154.2560 O   0  0  0  0  0  0  0  0  0  0  0  0
  161.0580  206.2790  153.9020 C   0  0  0  0  0  0  0  0  0  0  0  0
  160.6130  207.3430  154.6930 O   0  0  0  0  0  0  0  0  0  0  0  0
  161.2200  208.9600  153.0620 C   0  0  0  0  0  3  0  0  0  0  0  0
  160.8040  208.6780  154.3030 C   0  0  0  0  0  0  0  0  0  0  0  0
  161.3930  207.8650  152.0380 C   0  0  1  0  0  3  0  0  0  0  0  0
  160.4990  211.1860  154.8620 C   0  0  0  0  0  1  0  0  0  0  0  0
  160.3920  209.4650  156.4920 O   0  0  0  0  0  0  0  0  0  0  0  0
  160.5590  209.7530  155.2780 C   0  0  0  0  0  0  0  0  0  0  0  0
  2 13  2  0  0  0  0
  2  3  1  0  0  0  0
  3 14  2  0  0  0  0
  4 15  1  0  0  0  0
  5  1  1  6  0  0  0
  5 10  1  0  0  0  0
  6  5  1  0  0  0  0
  6  4  2  0  0  0  0
  7  4  1  0  0  0  0
  8  3  1  0  0  0  0
  9 11  2  0  0  0  0
  9 16  1  0  0  0  0
 11  6  1  0  0  0  0
 12  2  1  0  0  0  0
 13  9  1  0  0  0  0
 14 16  1  0  0  0  0
 15 10  1  6  0  0  0
 15 23  1  0  0  0  0
 16  7  2  0  0  0  0
 17 19  1  0  0  0  0
 19 18  2  0  0  0  0
 19 20  1  0  0  0  0
 21 22  2  0  0  0  0
 22 20  1  0  0  0  0
 22 26  1  0  0  0  0
 23 17  1  1  0  0  0
 23 21  1  0  0  0  0
 24 26  1  0  0  0  0
 26 25  2  0  0  0  0
M  END
>  <MODEL>
6

>  <REMARK>
 VINA RESULT:      -7.5      1.889      7.427
  Name = 
  2 active torsions:
  status: ('A' for Active; 'I' for Inactive)
    1  A    between atoms: C_21  and  C_26
    2  A    between atoms: C_24  and  C_25
                            x       y       z     vdW  Elec       q    Type
                         _______ _______ _______ _____ _____    ______ ____

>  <TORSDO>
F 2

$$$$
=
 OpenBabel11072414393D

 26 29  0  0  1  0  0  0  0  0999 V2000
  160.2470  202.4970  153.0800 O   0  0  0  0  0  1  0  0  0  0  0  0
  161.1840  200.5200  146.9000 C   0  0  0  0  0  0  0  0  0  0  0  0
  160.8120  201.6610  146.1740 C   0  0  0  0  0  0  0  0  0  0  0  0
  160.7250  204.1860  150.2750 C   0  0  0  0  0  0  0  0  0  0  0  0
  161.1980  203.2660  152.4110 C   0  0  1  0  0  3  0  0  0  0  0  0
  161.0790  203.0500  150.9530 C   0  0  0  0  0  0  0  0  0  0  0  0
  160.5480  204.1640  148.8920 C   0  0  0  0  0  3  0  0  0  0  0  0
  160.6530  201.5930  144.7950 O   0  0  0  0  0  1  0  0  0  0  0  0
  161.1330  201.8000  148.9560 C   0  0  0  0  0  0  0  0  0  0  0  0
  160.8640  204.7580  152.5850 C   0  0  0  0  0  2  0  0  0  0  0  0
  161.2850  201.8710  150.3090 N   0  0  0  0  0  0  0  0  0  0  0  0
  161.3960  199.3120  146.2470 O   0  0  0  0  0  1  0  0  0  0  0  0
  161.3430  200.5910  148.2890 C   0  0  0  0  0  3  0  0  0  0  0  0
  160.5990  202.8750  146.8340 C   0  0  0  0  0  3  0  0  0  0  0  0
  160.5570  205.3400  151.1890 C   0  0  1  0  0  3  0  0  0  0  0  0
  160.7570  202.9540  148.2200 C   0  0  0  0  0  0  0  0  0  0  0  0
  161.3290  206.8990  149.3580 C   0  0  0  0  0  2  0  0  0  0  0  0
  162.6210  208.3230  147.9390 O   0  0  0  0  0  0  0  0  0  0  0  0
  162.1310  208.1320  149.0820 C   0  0  0  0  0  0  0  0  0  0  0  0
  162.2810  209.1000  150.0800 O   0  0  0  0  0  0  0  0  0  0  0  0
  161.3640  207.6860  151.7530 C   0  0  0  0  0  3  0  0  0  0  0  0
  161.7910  208.8980  151.3790 C   0  0  0  0  0  0  0  0  0  0  0  0
  161.4910  206.5030  150.8250 C   0  0  1  0  0  3  0  0  0  0  0  0
  160.5350  210.9110  152.4120 C   0  0  0  0  0  1  0  0  0  0  0  0
  162.7310  210.2790  153.0500 O   0  0  0  0  0  0  0  0  0  0  0  0
  161.7400  210.0360  152.3130 C   0  0  0  0  0  0  0  0  0  0  0  0
  2 13  1  0  0  0  0
  3 14  1  0  0  0  0
  3  2  2  0  0  0  0
  4  6  1  0  0  0  0
  4 15  1  0  0  0  0
  5 10  1  0  0  0  0
  5  1  1  1  0  0  0
  6  5  1  0  0  0  0
  7  4  2  0  0  0  0
  8  3  1  0  0  0  0
  9 11  1  0  0  0  0
 11  6  2  0  0  0  0
 12  2  1  0  0  0  0
 13  9  2  0  0  0  0
 14 16  2  0  0  0  0
 15 10  1  1  0  0  0
 16  7  1  0  0  0  0
 16  9  1  0  0  0  0
 18 19  2  0  0  0  0
 19 17  1  0  0  0  0
 19 20  1  0  0  0  0
 20 22  1  0  0  0  0
 22 21  2  0  0  0  0
 22 26  1  0  0  0  0
 23 17  1  6  0  0  0
 23 15  1  0  0  0  0
 23 21  1  0  0  0  0
 26 24  1  0  0  0  0
 26 25  2  0  0  0  0
M  END
>  <MODEL>
7

>  <REMARK>
 VINA RESULT:      -7.1      2.427      8.406
  Name = 
  2 active torsions:
  status: ('A' for Active; 'I' for Inactive)
    1  A    between atoms: C_21  and  C_26
    2  A    between atoms: C_24  and  C_25
                            x       y       z     vdW  Elec       q    Type
                         _______ _______ _______ _____ _____    ______ ____

>  <TORSDO>
F 2

$$$$
=
 OpenBabel11072414393D

 26 29  0  0  1  0  0  0  0  0999 V2000
  160.8280  207.1380  145.4570 O   0  0  0  0  0  1  0  0  0  0  0  0
  161.9710  208.8820  151.6720 C   0  0  0  0  0  0  0  0  0  0  0  0
  161.3530  207.8410  152.3820 C   0  0  0  0  0  0  0  0  0  0  0  0
  160.8690  205.3870  148.2650 C   0  0  0  0  0  0  0  0  0  0  0  0
  161.5820  206.1910  146.1480 C   0  0  1  0  0  3  0  0  0  0  0  0
  161.4680  206.4270  147.6030 C   0  0  0  0  0  0  0  0  0  0  0  0
  160.6600  205.4450  149.6420 C   0  0  0  0  0  3  0  0  0  0  0  0
  161.1720  207.9400  153.7550 O   0  0  0  0  0  1  0  0  0  0  0  0
  161.7190  207.6390  149.6090 C   0  0  0  0  0  0  0  0  0  0  0  0
  160.9550  204.8000  145.9560 C   0  0  0  0  0  2  0  0  0  0  0  0
  161.8920  207.5390  148.2600 N   0  0  0  0  0  0  0  0  0  0  0  0
  162.4070  210.0210  152.3390 O   0  0  0  0  0  1  0  0  0  0  0  0
  162.1520  208.7800  150.2890 C   0  0  0  0  0  3  0  0  0  0  0  0
  160.9150  206.6960  151.7080 C   0  0  0  0  0  3  0  0  0  0  0  0
  160.4950  204.2920  147.3390 C   0  0  1  0  0  3  0  0  0  0  0  0
  161.0930  206.5870  150.3270 C   0  0  0  0  0  0  0  0  0  0  0  0
  160.6630  202.4710  149.0810 C   0  0  0  0  0  2  0  0  0  0  0  0
  161.4340  200.7320  150.5280 O   0  0  0  0  0  0  0  0  0  0  0  0
  161.2070  201.1030  149.3470 C   0  0  0  0  0  0  0  0  0  0  0  0
  161.4020  200.2150  148.2840 O   0  0  0  0  0  0  0  0  0  0  0  0
  161.0420  201.9040  146.6540 C   0  0  0  0  0  3  0  0  0  0  0  0
  161.2070  200.6090  146.9520 C   0  0  0  0  0  0  0  0  0  0  0  0
  161.1610  202.9630  147.7220 C   0  0  1  0  0  3  0  0  0  0  0  0
  161.9580  198.3210  146.0060 C   0  0  0  0  0  1  0  0  0  0  0  0
  160.4560  199.7690  144.8760 O   0  0  0  0  0  0  0  0  0  0  0  0
  161.1700  199.5840  145.8960 C   0  0  0  0  0  0  0  0  0  0  0  0
  2 12  1  0  0  0  0
  2  3  1  0  0  0  0
  3  8  1  0  0  0  0
  4  7  1  0  0  0  0
  5  1  1  6  0  0  0
  5  6  1  0  0  0  0
  6 11  1  0  0  0  0
  6  4  2  0  0  0  0
  7 16  2  0  0  0  0
  9 13  1  0  0  0  0
  9 16  1  0  0  0  0
 10  5  1  0  0  0  0
 11  9  2  0  0  0  0
 13  2  2  0  0  0  0
 14  3  2  0  0  0  0
 15 10  1  6  0  0  0
 15 23  1  0  0  0  0
 15  4  1  0  0  0  0
 16 14  1  0  0  0  0
 17 19  1  0  0  0  0
 19 18  2  0  0  0  0
 20 19  1  0  0  0  0
 21 22  2  0  0  0  0
 22 20  1  0  0  0  0
 23 21  1  6  0  0  0
 23 17  1  0  0  0  0
 25 26  2  0  0  0  0
 26 24  1  0  0  0  0
 26 22  1  0  0  0  0
M  END
>  <MODEL>
8

>  <REMARK>
 VINA RESULT:      -7.1      2.220      3.341
  Name = 
  2 active torsions:
  status: ('A' for Active; 'I' for Inactive)
    1  A    between atoms: C_21  and  C_26
    2  A    between atoms: C_24  and  C_25
                            x       y       z     vdW  Elec       q    Type
                         _______ _______ _______ _____ _____    ______ ____

>  <TORSDO>
F 2

$$$$
