=
 OpenBabel11072411473D

 53 60  0  0  1  0  0  0  0  0999 V2000
  161.7050  205.7980  146.5060 O   0  0  0  0  0  1  0  0  0  0  0  0
  162.7050  209.5760  151.2480 C   0  0  1  0  0  3  0  0  0  0  0  0
  160.3000  205.1270  150.3960 C   0  0  0  0  0  2  0  0  0  0  0  0
  162.9250  208.7660  152.4690 C   0  0  1  0  0  3  0  0  0  0  0  0
  161.0000  207.4340  148.2310 C   0  0  1  0  0  0  0  0  0  0  0  0
  161.2450  210.0280  150.9700 C   0  0  2  0  0  3  0  0  0  0  0  0
  161.2100  208.8600  148.7110 C   0  0  0  0  0  2  0  0  0  0  0  0
  161.8450  203.5280  151.6830 C   0  0  0  0  0  0  0  0  0  0  0  0
  159.8950  208.7160  154.8600 C   0  0  0  0  0  3  0  0  0  0  0  0
  161.1890  205.0650  149.1580 C   0  0  0  0  0  2  0  0  0  0  0  0
  160.4960  209.0640  150.0420 C   0  0  0  0  0  2  0  0  0  0  0  0
  162.1060  206.7370  147.4640 C   0  0  0  0  0  0  0  0  0  0  0  0
  163.3340  210.2010  152.4440 N   0  0  0  0  0  0  0  0  0  0  0  0
  159.3770  207.4390  154.6290 C   0  0  0  0  0  3  0  0  0  0  0  0
  161.1700  206.9730  153.0340 C   0  0  0  0  0  0  0  0  0  0  0  0
  161.8950  206.4020  148.9450 C   0  0  1  0  0  3  0  0  0  0  0  0
  159.6950  207.0180  147.9400 O   0  0  0  0  0  1  0  0  0  0  0  0
  161.0420  204.8270  151.7020 C   0  0  1  0  0  3  0  0  0  0  0  0
  161.6680  208.3060  153.2180 C   0  0  0  0  0  0  0  0  0  0  0  0
  163.1210  203.5110  152.1030 C   0  0  0  0  0  3  0  0  0  0  0  0
  162.4530  211.0130  153.0800 O   0  0  0  0  0  1  0  0  0  0  0  0
  160.0130  206.5790  153.7280 C   0  0  0  0  0  3  0  0  0  0  0  0
  163.2690  205.9710  152.0020 C   0  0  0  0  0  2  0  0  0  0  0  0
  161.8130  206.0000  152.1660 N   0  0  0  0  0  0  0  0  0  0  0  0
  163.8060  204.7220  152.6740 C   0  0  0  0  0  2  0  0  0  0  0  0
  163.2350  207.5070  147.1560 O   0  0  0  0  0  1  0  0  0  0  0  0
  161.0300  209.1340  154.1690 C   0  0  0  0  0  3  0  0  0  0  0  0
  161.2410  202.2730  151.1690 C   0  0  0  0  0  0  0  0  0  0  0  0
  160.5610  201.5380  151.9390 O   0  0  0  0  0  0  0  0  0  0  0  0
  161.4130  201.8940  149.8000 N   0  0  0  0  0  2  0  0  0  0  0  0
  161.1710  200.5380  149.3300 C   0  0  0  0  0  2  0  0  0  0  0  0
  161.2960  200.4660  147.8200 C   0  0  0  0  0  2  0  0  0  0  0  0
  159.7920  202.0880  146.9170 O   0  0  0  0  0  0  0  0  0  0  0  0
  160.4830  200.6600  145.2660 O   0  0  0  0  0  1  0  0  0  0  0  0
  160.6720  201.9240  145.8320 C   0  0  2  0  0  3  0  0  0  0  0  0
  161.1380  201.8680  147.2520 C   0  0  2  0  0  3  0  0  0  0  0  0
  161.1400  211.4950  150.5240 C   0  0  0  0  0  2  0  0  0  0  0  0
  161.8250  211.7670  149.1870 C   0  0  0  0  0  2  0  0  0  0  0  0
  162.1330  214.1250  148.9790 O   0  0  0  0  0  0  0  0  0  0  0  0
  161.8190  213.2390  147.2090 N   0  0  0  0  0  0  0  0  0  0  0  0
  162.5880  214.2480  147.7230 O   0  0  0  0  0  0  0  0  0  0  0  0
  161.3350  213.0720  148.5660 C   0  0  1  0  0  0  0  0  0  0  0  0
  158.8140  212.8690  148.0260 C   0  0  0  0  0  3  0  0  0  0  0  0
  157.6160  213.9320  149.7100 C   0  0  0  0  0  0  0  0  0  0  0  0
  157.5500  213.2150  148.5230 C   0  0  0  0  0  3  0  0  0  0  0  0
  159.8600  213.3270  148.8250 C   0  0  0  0  0  0  0  0  0  0  0  0
  159.2230  214.1490  150.1500 S   0  0  0  0  0  0  0  0  0  0  0  0
  155.1540  214.0590  149.7570 C   0  0  0  0  0  1  0  0  0  0  0  0
  156.4420  214.4530  150.4620 C   0  0  0  0  0  2  0  0  0  0  0  0
  160.8600  213.8710  146.3030 C   0  0  0  0  0  2  0  0  0  0  0  0
  160.3330  212.1510  144.7460 O   0  0  0  0  0  1  0  0  0  0  0  0
  162.5260  213.0800  144.6300 C   0  0  0  0  0  1  0  0  0  0  0  0
  161.0510  213.3460  144.8920 C   0  0  2  0  0  3  0  0  0  0  0  0
  1 12  1  0  0  0  0
  2 13  1  1  0  0  0
  2  4  1  0  0  0  0
  4 19  1  1  0  0  0
  5 17  1  6  0  0  0
  5  7  1  0  0  0  0
  5 16  1  0  0  0  0
  6 37  1  6  0  0  0
  6  2  1  0  0  0  0
  7 11  1  0  0  0  0
  8 18  1  0  0  0  0
  8 20  2  0  0  0  0
 10  3  1  0  0  0  0
 11  6  1  0  0  0  0
 12  5  1  0  0  0  0
 12 16  1  0  0  0  0
 13  4  1  0  0  0  0
 13 21  1  0  0  0  0
 14  9  1  0  0  0  0
 15 19  2  0  0  0  0
 15 22  1  0  0  0  0
 16 10  1  6  0  0  0
 18  3  1  6  0  0  0
 18 24  1  0  0  0  0
 19 27  1  0  0  0  0
 20 25  1  0  0  0  0
 22 14  2  0  0  0  0
 23 24  1  0  0  0  0
 23 25  1  0  0  0  0
 24 15  1  0  0  0  0
 26 12  1  0  0  0  0
 27  9  2  0  0  0  0
 28  8  1  0  0  0  0
 28 29  2  0  0  0  0
 30 28  1  0  0  0  0
 31 30  1  0  0  0  0
 32 31  1  0  0  0  0
 33 36  1  0  0  0  0
 35 34  1  1  0  0  0
 35 33  1  0  0  0  0
 35 36  1  0  0  0  0
 36 32  1  1  0  0  0
 38 37  1  0  0  0  0
 40 41  1  0  0  0  0
 40 42  1  0  0  0  0
 41 39  1  0  0  0  0
 42 46  1  0  0  0  0
 42 39  1  0  0  0  0
 42 38  1  1  0  0  0
 43 45  1  0  0  0  0
 43 46  2  0  0  0  0
 44 47  1  0  0  0  0
 44 49  1  0  0  0  0
 45 44  2  0  0  0  0
 46 47  1  0  0  0  0
 48 49  1  0  0  0  0
 50 40  1  0  0  0  0
 51 53  1  0  0  0  0
 53 52  1  1  0  0  0
 53 50  1  0  0  0  0
M  END
>  <MODEL>
1

>  <REMARK>
 VINA RESULT:       6.6      0.000      0.000
  Name = 
  11 active torsions:
  status: ('A' for Active; 'I' for Inactive)
    1  A    between atoms: C_2  and  C_23
    2  A    between atoms: C_7  and  C_13
    3  A    between atoms: C_7  and  C_49
    4  A    between atoms: C_8  and  C_17
    5  A    between atoms: C_15  and  C_37
    6  A    between atoms: N_24  and  C_35
    7  A    between atoms: N_32  and  C_41
    8  A    between atoms: C_35  and  C_52
    9  A    between atoms: C_36  and  C_40
   10  A    between atoms: C_37  and  C_49
   11  A    between atoms: C_40  and  C_41
                            x       y       z     vdW  Elec       q    Type
                         _______ _______ _______ _____ _____    ______ ____

>  <TORSDO>
F 11

$$$$
=
 OpenBabel11072411473D

 53 60  0  0  1  0  0  0  0  0999 V2000
  161.3290  204.6060  145.9980 O   0  0  0  0  0  1  0  0  0  0  0  0
  162.7630  209.9320  148.7070 C   0  0  1  0  0  3  0  0  0  0  0  0
  160.0730  205.7140  149.8380 C   0  0  0  0  0  2  0  0  0  0  0  0
  162.9950  209.6890  150.1500 C   0  0  1  0  0  3  0  0  0  0  0  0
  160.8000  206.8570  146.8940 C   0  0  1  0  0  0  0  0  0  0  0  0
  161.3190  210.3300  148.2930 C   0  0  2  0  0  3  0  0  0  0  0  0
  161.1120  208.3340  146.7310 C   0  0  0  0  0  2  0  0  0  0  0  0
  161.5850  204.6900  151.6460 C   0  0  0  0  0  0  0  0  0  0  0  0
  160.0840  210.8520  152.4020 C   0  0  0  0  0  3  0  0  0  0  0  0
  160.8980  205.0800  148.7220 C   0  0  0  0  0  2  0  0  0  0  0  0
  160.4750  209.1240  147.8680 C   0  0  0  0  0  2  0  0  0  0  0  0
  161.8270  205.8270  146.4670 C   0  0  0  0  0  0  0  0  0  0  0  0
  163.4820  210.9510  149.5190 N   0  0  0  0  0  0  0  0  0  0  0  0
  159.4840  209.6350  152.7360 C   0  0  0  0  0  3  0  0  0  0  0  0
  161.1710  208.4230  151.4460 C   0  0  0  0  0  0  0  0  0  0  0  0
  161.6680  206.1530  147.9560 C   0  0  1  0  0  3  0  0  0  0  0  0
  159.4610  206.4510  146.8300 O   0  0  0  0  0  1  0  0  0  0  0  0
  160.8590  205.9320  151.1360 C   0  0  1  0  0  3  0  0  0  0  0  0
  161.7500  209.6730  151.0460 C   0  0  0  0  0  0  0  0  0  0  0  0
  162.8770  204.7580  152.0090 C   0  0  0  0  0  3  0  0  0  0  0  0
  162.6790  212.0140  149.7750 O   0  0  0  0  0  1  0  0  0  0  0  0
  160.0270  208.4360  152.2640 C   0  0  0  0  0  3  0  0  0  0  0  0
  163.1590  206.9360  150.8860 C   0  0  0  0  0  2  0  0  0  0  0  0
  161.7150  207.1340  151.0520 N   0  0  0  0  0  0  0  0  0  0  0  0
  163.6560  206.0440  152.0080 C   0  0  0  0  0  2  0  0  0  0  0  0
  162.9810  206.3170  145.8440 O   0  0  0  0  0  1  0  0  0  0  0  0
  161.2060  210.8640  151.5770 C   0  0  0  0  0  3  0  0  0  0  0  0
  160.8880  203.3810  151.7150 C   0  0  0  0  0  0  0  0  0  0  0  0
  160.4660  202.9490  152.8230 O   0  0  0  0  0  0  0  0  0  0  0  0
  160.6790  202.6070  150.5290 N   0  0  0  0  0  2  0  0  0  0  0  0
  160.3430  201.1920  150.5710 C   0  0  0  0  0  2  0  0  0  0  0  0
  160.3970  200.5900  149.1790 C   0  0  0  0  0  2  0  0  0  0  0  0
  160.3080  201.6390  147.0330 O   0  0  0  0  0  0  0  0  0  0  0  0
  161.4120  199.6390  146.8790 O   0  0  0  0  0  1  0  0  0  0  0  0
  161.5720  201.0250  146.9660 C   0  0  2  0  0  3  0  0  0  0  0  0
  161.0330  201.6000  148.2360 C   0  0  2  0  0  3  0  0  0  0  0  0
  161.2770  211.4820  147.2770 C   0  0  0  0  0  2  0  0  0  0  0  0
  160.1210  211.3680  146.2880 C   0  0  0  0  0  2  0  0  0  0  0  0
  158.9330  213.4050  145.9160 O   0  0  0  0  0  0  0  0  0  0  0  0
  160.9210  213.6600  145.8560 N   0  0  0  0  0  0  0  0  0  0  0  0
  159.8190  214.3330  146.3110 O   0  0  0  0  0  0  0  0  0  0  0  0
  159.9820  212.6330  145.4460 C   0  0  1  0  0  0  0  0  0  0  0  0
  160.4640  211.2650  143.3050 C   0  0  0  0  0  3  0  0  0  0  0  0
  159.3050  212.2350  141.5400 C   0  0  0  0  0  0  0  0  0  0  0  0
  160.1530  211.2110  141.9390 C   0  0  0  0  0  3  0  0  0  0  0  0
  159.8630  212.3390  143.9600 C   0  0  0  0  0  0  0  0  0  0  0  0
  158.9410  213.2140  142.8560 S   0  0  0  0  0  0  0  0  0  0  0  0
  157.5420  213.2740  140.1650 C   0  0  0  0  0  1  0  0  0  0  0  0
  158.8180  212.4490  140.1490 C   0  0  0  0  0  2  0  0  0  0  0  0
  161.4630  214.4530  144.7540 C   0  0  0  0  0  2  0  0  0  0  0  0
  163.2060  213.4110  143.5140 O   0  0  0  0  0  1  0  0  0  0  0  0
  163.4840  213.5330  145.8800 C   0  0  0  0  0  1  0  0  0  0  0  0
  162.9580  214.2230  144.6300 C   0  0  2  0  0  3  0  0  0  0  0  0
  1 12  1  0  0  0  0
  2 13  1  1  0  0  0
  2  4  1  0  0  0  0
  4 19  1  1  0  0  0
  5 17  1  6  0  0  0
  5 16  1  0  0  0  0
  6 37  1  6  0  0  0
  6  2  1  0  0  0  0
  7  5  1  0  0  0  0
  7 11  1  0  0  0  0
  8 28  1  0  0  0  0
  8 20  2  0  0  0  0
  9 14  1  0  0  0  0
 10  3  1  0  0  0  0
 11  6  1  0  0  0  0
 12  5  1  0  0  0  0
 12 16  1  0  0  0  0
 13 21  1  0  0  0  0
 13  4  1  0  0  0  0
 15 22  1  0  0  0  0
 16 10  1  1  0  0  0
 18  3  1  6  0  0  0
 18  8  1  0  0  0  0
 19 15  2  0  0  0  0
 19 27  1  0  0  0  0
 22 14  2  0  0  0  0
 23 24  1  0  0  0  0
 23 25  1  0  0  0  0
 24 18  1  0  0  0  0
 24 15  1  0  0  0  0
 25 20  1  0  0  0  0
 26 12  1  0  0  0  0
 27  9  2  0  0  0  0
 28 29  2  0  0  0  0
 30 31  1  0  0  0  0
 30 28  1  0  0  0  0
 32 31  1  0  0  0  0
 33 36  1  0  0  0  0
 35 34  1  1  0  0  0
 35 33  1  0  0  0  0
 35 36  1  0  0  0  0
 36 32  1  1  0  0  0
 38 37  1  0  0  0  0
 39 41  1  0  0  0  0
 40 41  1  0  0  0  0
 42 40  1  0  0  0  0
 42 39  1  0  0  0  0
 42 38  1  1  0  0  0
 43 46  2  0  0  0  0
 44 45  2  0  0  0  0
 44 47  1  0  0  0  0
 45 43  1  0  0  0  0
 46 42  1  0  0  0  0
 47 46  1  0  0  0  0
 49 48  1  0  0  0  0
 49 44  1  0  0  0  0
 50 40  1  0  0  0  0
 51 53  1  0  0  0  0
 53 50  1  0  0  0  0
 53 52  1  1  0  0  0
M  END
>  <MODEL>
2

>  <REMARK>
 VINA RESULT:       6.7      2.424      3.571
  Name = 
  11 active torsions:
  status: ('A' for Active; 'I' for Inactive)
    1  A    between atoms: C_2  and  C_23
    2  A    between atoms: C_7  and  C_13
    3  A    between atoms: C_7  and  C_49
    4  A    between atoms: C_8  and  C_17
    5  A    between atoms: C_15  and  C_37
    6  A    between atoms: N_24  and  C_35
    7  A    between atoms: N_32  and  C_41
    8  A    between atoms: C_35  and  C_52
    9  A    between atoms: C_36  and  C_40
   10  A    between atoms: C_37  and  C_49
   11  A    between atoms: C_40  and  C_41
                            x       y       z     vdW  Elec       q    Type
                         _______ _______ _______ _____ _____    ______ ____

>  <TORSDO>
F 11

$$$$
=
 OpenBabel11072411473D

 53 60  0  0  1  0  0  0  0  0999 V2000
  161.9030  206.4260  146.6900 O   0  0  0  0  0  1  0  0  0  0  0  0
  162.6290  209.5770  151.9150 C   0  0  1  0  0  3  0  0  0  0  0  0
  160.3150  205.2630  150.3890 C   0  0  0  0  0  2  0  0  0  0  0  0
  162.7980  208.6200  153.0330 C   0  0  1  0  0  3  0  0  0  0  0  0
  161.0980  207.8280  148.5700 C   0  0  1  0  0  0  0  0  0  0  0  0
  161.1800  210.0560  151.6230 C   0  0  2  0  0  3  0  0  0  0  0  0
  161.2690  209.1830  149.2360 C   0  0  0  0  0  2  0  0  0  0  0  0
  161.8110  203.5200  151.5400 C   0  0  0  0  0  0  0  0  0  0  0  0
  159.6540  208.2560  155.2440 C   0  0  0  0  0  3  0  0  0  0  0  0
  161.2640  205.3610  149.1990 C   0  0  0  0  0  2  0  0  0  0  0  0
  160.4880  209.2140  150.5450 C   0  0  0  0  0  2  0  0  0  0  0  0
  162.2470  207.2380  147.7780 C   0  0  0  0  0  0  0  0  0  0  0  0
  163.1920  210.0490  153.2100 N   0  0  0  0  0  0  0  0  0  0  0  0
  159.1610  207.0170  154.8280 C   0  0  0  0  0  3  0  0  0  0  0  0
  161.0360  206.7640  153.2790 C   0  0  0  0  0  0  0  0  0  0  0  0
  161.9670  206.7170  149.1920 C   0  0  1  0  0  3  0  0  0  0  0  0
  159.8120  207.4470  148.1640 O   0  0  0  0  0  1  0  0  0  0  0  0
  160.9950  204.8030  151.6820 C   0  0  1  0  0  3  0  0  0  0  0  0
  161.5100  208.0650  153.6540 C   0  0  0  0  0  0  0  0  0  0  0  0
  163.0650  203.4550  152.0180 C   0  0  0  0  0  3  0  0  0  0  0  0
  162.2730  210.7700  153.8990 O   0  0  0  0  0  1  0  0  0  0  0  0
  159.8490  206.2810  153.8590 C   0  0  0  0  0  3  0  0  0  0  0  0
  163.1930  205.9080  152.2350 C   0  0  0  0  0  2  0  0  0  0  0  0
  161.7300  205.9110  152.3290 N   0  0  0  0  0  0  0  0  0  0  0  0
  163.7090  204.5860  152.7700 C   0  0  0  0  0  2  0  0  0  0  0  0
  163.3810  208.0450  147.6260 O   0  0  0  0  0  1  0  0  0  0  0  0
  160.8170  208.7630  154.6690 C   0  0  0  0  0  3  0  0  0  0  0  0
  161.2460  202.3380  150.8420 C   0  0  0  0  0  0  0  0  0  0  0  0
  160.4410  201.5740  151.4440 O   0  0  0  0  0  0  0  0  0  0  0  0
  161.5980  202.0620  149.4820 N   0  0  0  0  0  2  0  0  0  0  0  0
  161.3810  200.7600  148.8690 C   0  0  0  0  0  2  0  0  0  0  0  0
  161.6200  200.8290  147.3720 C   0  0  0  0  0  2  0  0  0  0  0  0
  160.5580  201.4230  145.3160 O   0  0  0  0  0  0  0  0  0  0  0  0
  161.9520  203.1090  145.9910 O   0  0  0  0  0  1  0  0  0  0  0  0
  160.6220  202.6800  145.9430 C   0  0  2  0  0  3  0  0  0  0  0  0
  160.3840  201.4190  146.7100 C   0  0  2  0  0  3  0  0  0  0  0  0
  161.0830  211.5670  151.3610 C   0  0  0  0  0  2  0  0  0  0  0  0
  161.3000  211.9380  149.8970 C   0  0  0  0  0  2  0  0  0  0  0  0
  161.4540  214.2660  149.3920 O   0  0  0  0  0  0  0  0  0  0  0  0
  160.2600  213.2870  148.1140 N   0  0  0  0  0  0  0  0  0  0  0  0
  161.1850  214.2960  148.0780 O   0  0  0  0  0  0  0  0  0  0  0  0
  160.5580  213.2200  149.5320 C   0  0  1  0  0  0  0  0  0  0  0  0
  159.5860  214.2640  151.6890 C   0  0  0  0  0  3  0  0  0  0  0  0
  157.2920  213.8900  151.7150 C   0  0  0  0  0  0  0  0  0  0  0  0
  158.3770  214.4530  152.3740 C   0  0  0  0  0  3  0  0  0  0  0  0
  159.4370  213.5460  150.5040 C   0  0  0  0  0  0  0  0  0  0  0  0
  157.8120  213.1540  150.2970 S   0  0  0  0  0  0  0  0  0  0  0  0
  155.8510  213.6100  153.6950 C   0  0  0  0  0  1  0  0  0  0  0  0
  155.8870  213.9120  152.2070 C   0  0  0  0  0  2  0  0  0  0  0  0
  158.9690  213.8980  147.8000 C   0  0  0  0  0  2  0  0  0  0  0  0
  157.4540  212.2440  147.0080 O   0  0  0  0  0  1  0  0  0  0  0  0
  159.4460  212.5820  145.7410 C   0  0  0  0  0  1  0  0  0  0  0  0
  158.3560  213.2290  146.5840 C   0  0  2  0  0  3  0  0  0  0  0  0
  1 12  1  0  0  0  0
  2  4  1  0  0  0  0
  2 13  1  1  0  0  0
  4 13  1  0  0  0  0
  4 19  1  1  0  0  0
  5 17  1  6  0  0  0
  5 16  1  0  0  0  0
  5  7  1  0  0  0  0
  6 37  1  6  0  0  0
  6  2  1  0  0  0  0
  7 11  1  0  0  0  0
  8 18  1  0  0  0  0
  8 20  2  0  0  0  0
 10  3  1  0  0  0  0
 11  6  1  0  0  0  0
 12  5  1  0  0  0  0
 12 16  1  0  0  0  0
 13 21  1  0  0  0  0
 14  9  1  0  0  0  0
 15 19  2  0  0  0  0
 15 22  1  0  0  0  0
 16 10  1  6  0  0  0
 18  3  1  6  0  0  0
 18 24  1  0  0  0  0
 19 27  1  0  0  0  0
 20 25  1  0  0  0  0
 22 14  2  0  0  0  0
 23 24  1  0  0  0  0
 23 25  1  0  0  0  0
 24 15  1  0  0  0  0
 26 12  1  0  0  0  0
 27  9  2  0  0  0  0
 28 29  2  0  0  0  0
 28  8  1  0  0  0  0
 30 28  1  0  0  0  0
 31 30  1  0  0  0  0
 32 31  1  0  0  0  0
 33 35  1  0  0  0  0
 33 36  1  0  0  0  0
 35 34  1  1  0  0  0
 35 36  1  0  0  0  0
 36 32  1  1  0  0  0
 38 37  1  0  0  0  0
 39 42  1  0  0  0  0
 40 42  1  0  0  0  0
 41 40  1  0  0  0  0
 41 39  1  0  0  0  0
 42 38  1  1  0  0  0
 42 46  1  0  0  0  0
 43 45  1  0  0  0  0
 44 49  1  0  0  0  0
 44 45  2  0  0  0  0
 46 43  2  0  0  0  0
 47 46  1  0  0  0  0
 47 44  1  0  0  0  0
 49 48  1  0  0  0  0
 50 40  1  0  0  0  0
 53 52  1  6  0  0  0
 53 51  1  0  0  0  0
 53 50  1  0  0  0  0
M  END
>  <MODEL>
3

>  <REMARK>
 VINA RESULT:       7.4      1.269      1.596
  Name = 
  11 active torsions:
  status: ('A' for Active; 'I' for Inactive)
    1  A    between atoms: C_2  and  C_23
    2  A    between atoms: C_7  and  C_13
    3  A    between atoms: C_7  and  C_49
    4  A    between atoms: C_8  and  C_17
    5  A    between atoms: C_15  and  C_37
    6  A    between atoms: N_24  and  C_35
    7  A    between atoms: N_32  and  C_41
    8  A    between atoms: C_35  and  C_52
    9  A    between atoms: C_36  and  C_40
   10  A    between atoms: C_37  and  C_49
   11  A    between atoms: C_40  and  C_41
                            x       y       z     vdW  Elec       q    Type
                         _______ _______ _______ _____ _____    ______ ____

>  <TORSDO>
F 11

$$$$
=
 OpenBabel11072411473D

 53 60  0  0  1  0  0  0  0  0999 V2000
  161.7970  206.5800  146.9000 O   0  0  0  0  0  1  0  0  0  0  0  0
  162.5480  209.6070  152.1940 C   0  0  1  0  0  3  0  0  0  0  0  0
  160.2480  205.3160  150.5820 C   0  0  0  0  0  2  0  0  0  0  0  0
  162.7320  208.6240  153.2870 C   0  0  1  0  0  3  0  0  0  0  0  0
  160.9990  207.9300  148.8200 C   0  0  1  0  0  0  0  0  0  0  0  0
  161.0930  210.0830  151.9270 C   0  0  2  0  0  3  0  0  0  0  0  0
  161.1670  209.2690  149.5180 C   0  0  0  0  0  2  0  0  0  0  0  0
  161.7650  203.5550  151.6770 C   0  0  0  0  0  0  0  0  0  0  0  0
  159.6110  208.1840  155.5150 C   0  0  0  0  0  3  0  0  0  0  0  0
  161.1870  205.4500  149.3870 C   0  0  0  0  0  2  0  0  0  0  0  0
  160.3970  209.2630  150.8340 C   0  0  0  0  0  2  0  0  0  0  0  0
  162.1450  207.3670  148.0040 C   0  0  0  0  0  0  0  0  0  0  0  0
  163.1190  210.0500  153.4960 N   0  0  0  0  0  0  0  0  0  0  0  0
  159.1220  206.9520  155.0730 C   0  0  0  0  0  3  0  0  0  0  0  0
  160.9850  206.7500  153.5020 C   0  0  0  0  0  0  0  0  0  0  0  0
  161.8800  206.8100  149.4070 C   0  0  1  0  0  3  0  0  0  0  0  0
  159.7120  207.5500  148.4160 O   0  0  0  0  0  1  0  0  0  0  0  0
  160.9430  204.8290  151.8580 C   0  0  1  0  0  3  0  0  0  0  0  0
  161.4530  208.0450  153.9050 C   0  0  0  0  0  0  0  0  0  0  0  0
  163.0240  203.4860  152.1420 C   0  0  0  0  0  3  0  0  0  0  0  0
  162.2010  210.7480  154.2100 O   0  0  0  0  0  1  0  0  0  0  0  0
  159.8060  206.2450  154.0800 C   0  0  0  0  0  3  0  0  0  0  0  0
  163.1380  205.9350  152.4190 C   0  0  0  0  0  2  0  0  0  0  0  0
  161.6760  205.9250  152.5250 N   0  0  0  0  0  0  0  0  0  0  0  0
  163.6670  204.6030  152.9170 C   0  0  0  0  0  2  0  0  0  0  0  0
  163.2720  208.1850  147.8630 O   0  0  0  0  0  1  0  0  0  0  0  0
  160.7650  208.7130  154.9420 C   0  0  0  0  0  3  0  0  0  0  0  0
  161.2020  202.3860  150.9550 C   0  0  0  0  0  0  0  0  0  0  0  0
  160.4910  201.5460  151.5730 O   0  0  0  0  0  0  0  0  0  0  0  0
  161.4490  202.2110  149.5560 N   0  0  0  0  0  2  0  0  0  0  0  0
  161.2450  200.9370  148.8820 C   0  0  0  0  0  2  0  0  0  0  0  0
  161.5950  201.0510  147.4100 C   0  0  0  0  0  2  0  0  0  0  0  0
  160.7180  200.4210  145.2780 O   0  0  0  0  0  0  0  0  0  0  0  0
  161.0890  202.6800  145.3340 O   0  0  0  0  0  1  0  0  0  0  0  0
  160.1160  201.6810  145.4400 C   0  0  2  0  0  3  0  0  0  0  0  0
  160.3470  200.7550  146.5900 C   0  0  2  0  0  3  0  0  0  0  0  0
  160.9840  211.5990  151.7020 C   0  0  0  0  0  2  0  0  0  0  0  0
  160.3820  212.3410  152.8920 C   0  0  0  0  0  2  0  0  0  0  0  0
  159.3780  214.4500  152.4010 O   0  0  0  0  0  0  0  0  0  0  0  0
  158.8830  213.0420  151.0640 N   0  0  0  0  0  0  0  0  0  0  0  0
  159.1840  214.3780  151.0760 O   0  0  0  0  0  0  0  0  0  0  0  0
  159.1150  213.0940  152.4940 C   0  0  1  0  0  0  0  0  0  0  0  0
  156.6550  213.3070  153.2620 C   0  0  0  0  0  3  0  0  0  0  0  0
  156.3460  211.9420  155.1170 C   0  0  0  0  0  0  0  0  0  0  0  0
  155.7580  212.8300  154.2270 C   0  0  0  0  0  3  0  0  0  0  0  0
  157.9420  212.7940  153.4110 C   0  0  0  0  0  0  0  0  0  0  0  0
  157.9690  211.7440  154.7290 S   0  0  0  0  0  0  0  0  0  0  0  0
  154.8360  210.1040  155.7660 C   0  0  0  0  0  1  0  0  0  0  0  0
  155.6510  211.2880  156.2600 C   0  0  0  0  0  2  0  0  0  0  0  0
  157.4730  212.9400  150.6880 C   0  0  0  0  0  2  0  0  0  0  0  0
  155.8570  214.1440  149.4250 O   0  0  0  0  0  1  0  0  0  0  0  0
  157.5040  212.9310  148.1980 C   0  0  0  0  0  1  0  0  0  0  0  0
  157.2040  213.7600  149.4400 C   0  0  2  0  0  3  0  0  0  0  0  0
  1 12  1  0  0  0  0
  2  4  1  0  0  0  0
  2 13  1  1  0  0  0
  4 13  1  0  0  0  0
  4 19  1  1  0  0  0
  5 17  1  6  0  0  0
  5 16  1  0  0  0  0
  5  7  1  0  0  0  0
  6 37  1  6  0  0  0
  6  2  1  0  0  0  0
  7 11  1  0  0  0  0
  8 18  1  0  0  0  0
  8 20  2  0  0  0  0
 10  3  1  0  0  0  0
 11  6  1  0  0  0  0
 12  5  1  0  0  0  0
 12 16  1  0  0  0  0
 13 21  1  0  0  0  0
 14  9  1  0  0  0  0
 15 19  2  0  0  0  0
 15 22  1  0  0  0  0
 16 10  1  6  0  0  0
 18  3  1  6  0  0  0
 18 24  1  0  0  0  0
 19 27  1  0  0  0  0
 20 25  1  0  0  0  0
 22 14  2  0  0  0  0
 23 24  1  0  0  0  0
 23 25  1  0  0  0  0
 24 15  1  0  0  0  0
 26 12  1  0  0  0  0
 27  9  2  0  0  0  0
 28 29  2  0  0  0  0
 28  8  1  0  0  0  0
 30 28  1  0  0  0  0
 31 30  1  0  0  0  0
 32 31  1  0  0  0  0
 33 35  1  0  0  0  0
 33 36  1  0  0  0  0
 35 34  1  1  0  0  0
 35 36  1  0  0  0  0
 36 32  1  1  0  0  0
 37 38  1  0  0  0  0
 39 42  1  0  0  0  0
 40 41  1  0  0  0  0
 40 42  1  0  0  0  0
 41 39  1  0  0  0  0
 42 38  1  1  0  0  0
 42 46  1  0  0  0  0
 43 46  2  0  0  0  0
 43 45  1  0  0  0  0
 44 49  1  0  0  0  0
 45 44  2  0  0  0  0
 46 47  1  0  0  0  0
 47 44  1  0  0  0  0
 48 49  1  0  0  0  0
 50 40  1  0  0  0  0
 51 53  1  0  0  0  0
 53 52  1  6  0  0  0
 53 50  1  0  0  0  0
M  END
>  <MODEL>
4

>  <REMARK>
 VINA RESULT:       7.7      2.325      3.182
  Name = 
  11 active torsions:
  status: ('A' for Active; 'I' for Inactive)
    1  A    between atoms: C_2  and  C_23
    2  A    between atoms: C_7  and  C_13
    3  A    between atoms: C_7  and  C_49
    4  A    between atoms: C_8  and  C_17
    5  A    between atoms: C_15  and  C_37
    6  A    between atoms: N_24  and  C_35
    7  A    between atoms: N_32  and  C_41
    8  A    between atoms: C_35  and  C_52
    9  A    between atoms: C_36  and  C_40
   10  A    between atoms: C_37  and  C_49
   11  A    between atoms: C_40  and  C_41
                            x       y       z     vdW  Elec       q    Type
                         _______ _______ _______ _____ _____    ______ ____

>  <TORSDO>
F 11

$$$$
=
 OpenBabel11072411473D

 53 60  0  0  1  0  0  0  0  0999 V2000
  161.7800  206.1390  146.5900 O   0  0  0  0  0  1  0  0  0  0  0  0
  162.5430  209.0980  151.9210 C   0  0  1  0  0  3  0  0  0  0  0  0
  160.2700  204.8090  150.2650 C   0  0  0  0  0  2  0  0  0  0  0  0
  162.7440  208.1010  152.9980 C   0  0  1  0  0  3  0  0  0  0  0  0
  160.9840  207.4540  148.5350 C   0  0  1  0  0  0  0  0  0  0  0  0
  161.0820  209.5640  151.6700 C   0  0  2  0  0  3  0  0  0  0  0  0
  161.1450  208.7850  149.2500 C   0  0  0  0  0  2  0  0  0  0  0  0
  161.8100  203.0470  151.3240 C   0  0  0  0  0  0  0  0  0  0  0  0
  159.6430  207.6030  155.2420 C   0  0  0  0  0  3  0  0  0  0  0  0
  161.1980  204.9680  149.0650 C   0  0  0  0  0  2  0  0  0  0  0  0
  160.3860  208.7540  150.5710 C   0  0  0  0  0  2  0  0  0  0  0  0
  162.1290  206.9130  147.7020 C   0  0  0  0  0  0  0  0  0  0  0  0
  163.1200  209.5280  153.2240 N   0  0  0  0  0  0  0  0  0  0  0  0
  159.1620  206.3720  154.7870 C   0  0  0  0  0  3  0  0  0  0  0  0
  161.0150  206.2090  153.1990 C   0  0  0  0  0  0  0  0  0  0  0  0
  161.8800  206.3340  149.0990 C   0  0  1  0  0  3  0  0  0  0  0  0
  159.6980  207.0690  148.1350 O   0  0  0  0  0  1  0  0  0  0  0  0
  160.9780  204.3110  151.5290 C   0  0  1  0  0  3  0  0  0  0  0  0
  161.4750  207.5020  153.6170 C   0  0  0  0  0  0  0  0  0  0  0  0
  163.0730  202.9830  151.7790 C   0  0  0  0  0  3  0  0  0  0  0  0
  162.2010  210.2070  153.9540 O   0  0  0  0  0  1  0  0  0  0  0  0
  159.8450  205.6850  153.7790 C   0  0  0  0  0  3  0  0  0  0  0  0
  163.1670  205.4280  152.0900 C   0  0  0  0  0  2  0  0  0  0  0  0
  161.7060  205.4040  152.2060 N   0  0  0  0  0  0  0  0  0  0  0  0
  163.7120  204.0950  152.5650 C   0  0  0  0  0  2  0  0  0  0  0  0
  163.2480  207.7430  147.5640 O   0  0  0  0  0  1  0  0  0  0  0  0
  160.7890  208.1490  154.6690 C   0  0  0  0  0  3  0  0  0  0  0  0
  161.2520  201.8830  150.5900 C   0  0  0  0  0  0  0  0  0  0  0  0
  160.6360  200.9780  151.2170 O   0  0  0  0  0  0  0  0  0  0  0  0
  161.3970  201.7860  149.1690 N   0  0  0  0  0  2  0  0  0  0  0  0
  161.2060  200.5350  148.4500 C   0  0  0  0  0  2  0  0  0  0  0  0
  161.4080  200.7400  146.9600 C   0  0  0  0  0  2  0  0  0  0  0  0
  160.3390  201.6510  145.0270 O   0  0  0  0  0  0  0  0  0  0  0  0
  162.0800  202.9950  145.6630 O   0  0  0  0  0  1  0  0  0  0  0  0
  160.6920  202.8320  145.7040 C   0  0  2  0  0  3  0  0  0  0  0  0
  160.2680  201.5950  146.4280 C   0  0  2  0  0  3  0  0  0  0  0  0
  160.9580  211.0820  151.4680 C   0  0  0  0  0  2  0  0  0  0  0  0
  160.4630  211.8160  152.7110 C   0  0  0  0  0  2  0  0  0  0  0  0
  158.1260  211.3330  152.6760 O   0  0  0  0  0  0  0  0  0  0  0  0
  158.5440  212.9970  153.7120 N   0  0  0  0  0  0  0  0  0  0  0  0
  157.6890  211.9310  153.7950 O   0  0  0  0  0  0  0  0  0  0  0  0
  159.0480  212.3530  152.5140 C   0  0  1  0  0  0  0  0  0  0  0  0
  159.8150  213.9460  150.6280 C   0  0  0  0  0  3  0  0  0  0  0  0
  158.1740  213.9750  148.9820 C   0  0  0  0  0  0  0  0  0  0  0  0
  159.4150  214.4520  149.3830 C   0  0  0  0  0  3  0  0  0  0  0  0
  158.8770  213.0840  151.1940 C   0  0  0  0  0  0  0  0  0  0  0  0
  157.5610  212.9390  150.1540 S   0  0  0  0  0  0  0  0  0  0  0  0
  158.0190  213.5200  146.5630 C   0  0  0  0  0  1  0  0  0  0  0  0
  157.4810  214.3490  147.7180 C   0  0  0  0  0  2  0  0  0  0  0  0
  157.7140  214.1730  153.4560 C   0  0  0  0  0  2  0  0  0  0  0  0
  157.1440  213.5610  155.6830 O   0  0  0  0  0  1  0  0  0  0  0  0
  155.3610  214.2650  154.2660 C   0  0  0  0  0  1  0  0  0  0  0  0
  156.8210  214.4520  154.6520 C   0  0  2  0  0  3  0  0  0  0  0  0
  1 12  1  0  0  0  0
  2  4  1  0  0  0  0
  2 13  1  1  0  0  0
  4 13  1  0  0  0  0
  4 19  1  1  0  0  0
  5 17  1  6  0  0  0
  5 16  1  0  0  0  0
  5  7  1  0  0  0  0
  6 37  1  6  0  0  0
  6  2  1  0  0  0  0
  7 11  1  0  0  0  0
  8 18  1  0  0  0  0
  8 20  2  0  0  0  0
 10  3  1  0  0  0  0
 11  6  1  0  0  0  0
 12  5  1  0  0  0  0
 12 16  1  0  0  0  0
 13 21  1  0  0  0  0
 14  9  1  0  0  0  0
 15 19  2  0  0  0  0
 15 22  1  0  0  0  0
 16 10  1  6  0  0  0
 18  3  1  6  0  0  0
 18 24  1  0  0  0  0
 19 27  1  0  0  0  0
 20 25  1  0  0  0  0
 22 14  2  0  0  0  0
 23 24  1  0  0  0  0
 23 25  1  0  0  0  0
 24 15  1  0  0  0  0
 26 12  1  0  0  0  0
 27  9  2  0  0  0  0
 28 29  2  0  0  0  0
 28  8  1  0  0  0  0
 30 28  1  0  0  0  0
 31 30  1  0  0  0  0
 32 31  1  0  0  0  0
 33 35  1  0  0  0  0
 33 36  1  0  0  0  0
 35 34  1  1  0  0  0
 35 36  1  0  0  0  0
 36 32  1  1  0  0  0
 37 38  1  0  0  0  0
 39 41  1  0  0  0  0
 40 41  1  0  0  0  0
 42 39  1  0  0  0  0
 42 38  1  1  0  0  0
 42 40  1  0  0  0  0
 43 46  2  0  0  0  0
 44 45  2  0  0  0  0
 44 47  1  0  0  0  0
 45 43  1  0  0  0  0
 46 42  1  0  0  0  0
 47 46  1  0  0  0  0
 48 49  1  0  0  0  0
 49 44  1  0  0  0  0
 50 40  1  0  0  0  0
 50 53  1  0  0  0  0
 53 52  1  6  0  0  0
 53 51  1  0  0  0  0
M  END
>  <MODEL>
5

>  <REMARK>
 VINA RESULT:       7.9      2.279      3.718
  Name = 
  11 active torsions:
  status: ('A' for Active; 'I' for Inactive)
    1  A    between atoms: C_2  and  C_23
    2  A    between atoms: C_7  and  C_13
    3  A    between atoms: C_7  and  C_49
    4  A    between atoms: C_8  and  C_17
    5  A    between atoms: C_15  and  C_37
    6  A    between atoms: N_24  and  C_35
    7  A    between atoms: N_32  and  C_41
    8  A    between atoms: C_35  and  C_52
    9  A    between atoms: C_36  and  C_40
   10  A    between atoms: C_37  and  C_49
   11  A    between atoms: C_40  and  C_41
                            x       y       z     vdW  Elec       q    Type
                         _______ _______ _______ _____ _____    ______ ____

>  <TORSDO>
F 11

$$$$
=
 OpenBabel11072411473D

 53 60  0  0  1  0  0  0  0  0999 V2000
  161.3110  204.7120  146.4140 O   0  0  0  0  0  1  0  0  0  0  0  0
  162.7770  210.2760  148.5700 C   0  0  1  0  0  3  0  0  0  0  0  0
  160.0990  206.1950  150.1400 C   0  0  0  0  0  2  0  0  0  0  0  0
  163.0250  210.1760  150.0270 C   0  0  1  0  0  3  0  0  0  0  0  0
  160.7930  207.0410  147.0910 C   0  0  1  0  0  0  0  0  0  0  0  0
  161.3290  210.6340  148.1350 C   0  0  2  0  0  3  0  0  0  0  0  0
  161.1040  208.4940  146.7790 C   0  0  0  0  0  2  0  0  0  0  0  0
  161.6300  205.3510  152.0230 C   0  0  0  0  0  0  0  0  0  0  0  0
  160.1400  211.5600  152.1850 C   0  0  0  0  0  3  0  0  0  0  0  0
  160.9110  205.4520  149.0840 C   0  0  0  0  0  2  0  0  0  0  0  0
  160.4790  209.3930  147.8400 C   0  0  0  0  0  2  0  0  0  0  0  0
  161.8150  205.9720  146.7560 C   0  0  0  0  0  0  0  0  0  0  0  0
  163.5060  211.3700  149.2700 N   0  0  0  0  0  0  0  0  0  0  0  0
  159.5430  210.3830  152.6440 C   0  0  0  0  0  3  0  0  0  0  0  0
  161.2150  209.0470  151.4610 C   0  0  0  0  0  0  0  0  0  0  0  0
  161.6730  206.4440  148.2070 C   0  0  1  0  0  3  0  0  0  0  0  0
  159.4530  206.6320  147.0810 O   0  0  0  0  0  1  0  0  0  0  0  0
  160.8990  206.5380  151.4010 C   0  0  1  0  0  3  0  0  0  0  0  0
  161.7910  210.2500  150.9340 C   0  0  0  0  0  0  0  0  0  0  0  0
  162.9260  205.4530  152.3640 C   0  0  0  0  0  3  0  0  0  0  0  0
  162.7060  212.4540  149.4290 O   0  0  0  0  0  1  0  0  0  0  0  0
  160.0800  209.1420  152.2870 C   0  0  0  0  0  3  0  0  0  0  0  0
  163.1960  207.5090  151.0290 C   0  0  0  0  0  2  0  0  0  0  0  0
  161.7550  207.7250  151.1900 N   0  0  0  0  0  0  0  0  0  0  0  0
  163.7050  206.7320  152.2280 C   0  0  0  0  0  2  0  0  0  0  0  0
  162.9620  206.3970  146.0740 O   0  0  0  0  0  1  0  0  0  0  0  0
  161.2530  211.4890  151.3510 C   0  0  0  0  0  3  0  0  0  0  0  0
  160.9340  204.0560  152.2290 C   0  0  0  0  0  0  0  0  0  0  0  0
  160.4880  203.7540  153.3700 O   0  0  0  0  0  0  0  0  0  0  0  0
  160.7510  203.1490  151.1360 N   0  0  0  0  0  2  0  0  0  0  0  0
  160.4170  201.7470  151.3350 C   0  0  0  0  0  2  0  0  0  0  0  0
  160.4720  200.9940  150.0180 C   0  0  0  0  0  2  0  0  0  0  0  0
  160.0580  201.3220  147.6880 O   0  0  0  0  0  0  0  0  0  0  0  0
  162.2510  200.7550  148.0180 O   0  0  0  0  0  1  0  0  0  0  0  0
  161.3710  201.8160  147.7860 C   0  0  2  0  0  3  0  0  0  0  0  0
  160.3680  201.9970  148.8800 C   0  0  2  0  0  3  0  0  0  0  0  0
  161.2760  211.6800  147.0110 C   0  0  0  0  0  2  0  0  0  0  0  0
  159.9660  212.4630  146.9800 C   0  0  0  0  0  2  0  0  0  0  0  0
  160.7160  214.4460  145.8830 O   0  0  0  0  0  0  0  0  0  0  0  0
  160.7080  212.8570  144.6620 N   0  0  0  0  0  0  0  0  0  0  0  0
  161.4860  213.9590  144.8970 O   0  0  0  0  0  0  0  0  0  0  0  0
  159.8790  213.3530  145.7430 C   0  0  1  0  0  0  0  0  0  0  0  0
  158.0100  214.1820  144.1590 C   0  0  0  0  0  3  0  0  0  0  0  0
  156.0110  214.2230  145.3430 C   0  0  0  0  0  0  0  0  0  0  0  0
  156.6350  214.4500  144.1240 C   0  0  0  0  0  3  0  0  0  0  0  0
  158.4530  213.7550  145.4100 C   0  0  0  0  0  0  0  0  0  0  0  0
  157.1440  213.7000  146.4690 S   0  0  0  0  0  0  0  0  0  0  0  0
  153.7790  214.4300  144.3160 C   0  0  0  0  0  1  0  0  0  0  0  0
  154.5640  214.4380  145.6180 C   0  0  0  0  0  2  0  0  0  0  0  0
  160.1300  213.0360  143.3300 C   0  0  0  0  0  2  0  0  0  0  0  0
  160.9430  214.2630  141.4620 O   0  0  0  0  0  1  0  0  0  0  0  0
  161.3220  211.9080  141.4580 C   0  0  0  0  0  1  0  0  0  0  0  0
  161.2320  213.1750  142.2960 C   0  0  2  0  0  3  0  0  0  0  0  0
  1 12  1  0  0  0  0
  2 13  1  1  0  0  0
  2  4  1  0  0  0  0
  4 19  1  1  0  0  0
  5 17  1  6  0  0  0
  5 16  1  0  0  0  0
  6 37  1  6  0  0  0
  6  2  1  0  0  0  0
  7  5  1  0  0  0  0
  7 11  1  0  0  0  0
  8 28  1  0  0  0  0
  8 20  2  0  0  0  0
  9 14  1  0  0  0  0
 10  3  1  0  0  0  0
 11  6  1  0  0  0  0
 12  5  1  0  0  0  0
 12 16  1  0  0  0  0
 13 21  1  0  0  0  0
 13  4  1  0  0  0  0
 15 22  1  0  0  0  0
 16 10  1  1  0  0  0
 18  3  1  6  0  0  0
 18  8  1  0  0  0  0
 19 27  1  0  0  0  0
 19 15  2  0  0  0  0
 22 14  2  0  0  0  0
 23 24  1  0  0  0  0
 23 25  1  0  0  0  0
 24 18  1  0  0  0  0
 24 15  1  0  0  0  0
 25 20  1  0  0  0  0
 26 12  1  0  0  0  0
 27  9  2  0  0  0  0
 28 29  2  0  0  0  0
 30 31  1  0  0  0  0
 30 28  1  0  0  0  0
 32 31  1  0  0  0  0
 33 35  1  0  0  0  0
 33 36  1  0  0  0  0
 35 34  1  1  0  0  0
 35 36  1  0  0  0  0
 36 32  1  1  0  0  0
 38 37  1  0  0  0  0
 40 41  1  0  0  0  0
 40 42  1  0  0  0  0
 41 39  1  0  0  0  0
 42 39  1  0  0  0  0
 42 38  1  1  0  0  0
 43 46  2  0  0  0  0
 44 49  1  0  0  0  0
 44 47  1  0  0  0  0
 45 43  1  0  0  0  0
 45 44  2  0  0  0  0
 46 42  1  0  0  0  0
 46 47  1  0  0  0  0
 48 49  1  0  0  0  0
 50 40  1  0  0  0  0
 51 53  1  0  0  0  0
 53 52  1  6  0  0  0
 53 50  1  0  0  0  0
M  END
>  <MODEL>
6

>  <REMARK>
 VINA RESULT:       8.5      2.286      2.948
  Name = 
  11 active torsions:
  status: ('A' for Active; 'I' for Inactive)
    1  A    between atoms: C_2  and  C_23
    2  A    between atoms: C_7  and  C_13
    3  A    between atoms: C_7  and  C_49
    4  A    between atoms: C_8  and  C_17
    5  A    between atoms: C_15  and  C_37
    6  A    between atoms: N_24  and  C_35
    7  A    between atoms: N_32  and  C_41
    8  A    between atoms: C_35  and  C_52
    9  A    between atoms: C_36  and  C_40
   10  A    between atoms: C_37  and  C_49
   11  A    between atoms: C_40  and  C_41
                            x       y       z     vdW  Elec       q    Type
                         _______ _______ _______ _____ _____    ______ ____

>  <TORSDO>
F 11

$$$$
=
 OpenBabel11072411473D

 53 60  0  0  1  0  0  0  0  0999 V2000
  161.6300  209.7380  147.6810 O   0  0  0  0  0  1  0  0  0  0  0  0
  162.4540  204.8100  151.2570 C   0  0  1  0  0  3  0  0  0  0  0  0
  160.3030  205.8810  146.7270 C   0  0  0  0  0  2  0  0  0  0  0  0
  162.7330  203.6360  150.3990 C   0  0  1  0  0  3  0  0  0  0  0  0
  160.8480  207.9250  149.1810 C   0  0  1  0  0  0  0  0  0  0  0  0
  160.9680  205.0550  151.6380 C   0  0  2  0  0  3  0  0  0  0  0  0
  160.9790  207.3720  150.5890 C   0  0  0  0  0  2  0  0  0  0  0  0
  161.9500  204.6890  145.1560 C   0  0  0  0  0  0  0  0  0  0  0  0
  159.7340  201.2300  150.0470 C   0  0  0  0  0  3  0  0  0  0  0  0
  161.1820  207.1260  146.7810 C   0  0  0  0  0  2  0  0  0  0  0  0
  160.2680  206.0270  150.6820 C   0  0  0  0  0  2  0  0  0  0  0  0
  161.9850  208.7350  148.5900 C   0  0  0  0  0  0  0  0  0  0  0  0
  163.0570  203.5870  151.8550 N   0  0  0  0  0  0  0  0  0  0  0  0
  159.2890  201.5250  148.7560 C   0  0  0  0  0  3  0  0  0  0  0  0
  161.0910  203.1550  148.4800 C   0  0  0  0  0  0  0  0  0  0  0  0
  161.8080  207.2730  148.1660 C   0  0  1  0  0  3  0  0  0  0  0  0
  159.5660  208.2290  148.7050 O   0  0  0  0  0  1  0  0  0  0  0  0
  161.0740  204.5970  146.4030 C   0  0  1  0  0  3  0  0  0  0  0  0
  161.5120  202.9040  149.8280 C   0  0  0  0  0  0  0  0  0  0  0  0
  163.2290  204.2790  145.1910 C   0  0  0  0  0  3  0  0  0  0  0  0
  162.1370  202.9030  152.5790 O   0  0  0  0  0  1  0  0  0  0  0  0
  159.9640  202.4740  147.9830 C   0  0  0  0  0  3  0  0  0  0  0  0
  163.2340  204.2520  147.6570 C   0  0  0  0  0  2  0  0  0  0  0  0
  161.7800  204.0760  147.5930 N   0  0  0  0  0  0  0  0  0  0  0  0
  163.8490  203.6500  146.4080 C   0  0  0  0  0  2  0  0  0  0  0  0
  163.0640  209.0090  149.4400 O   0  0  0  0  0  1  0  0  0  0  0  0
  160.8360  201.9060  150.5660 C   0  0  0  0  0  3  0  0  0  0  0  0
  161.4160  205.2650  143.8960 C   0  0  0  0  0  0  0  0  0  0  0  0
  160.1790  205.2060  143.6500 O   0  0  0  0  0  0  0  0  0  0  0  0
  162.2930  205.9010  142.9600 N   0  0  0  0  0  2  0  0  0  0  0  0
  161.9090  206.1520  141.5790 C   0  0  0  0  0  2  0  0  0  0  0  0
  162.4380  207.4960  141.1140 C   0  0  0  0  0  2  0  0  0  0  0  0
  161.3680  208.2640  139.1200 O   0  0  0  0  0  0  0  0  0  0  0  0
  163.0790  209.6790  139.6840 O   0  0  0  0  0  1  0  0  0  0  0  0
  161.6940  209.4910  139.7250 C   0  0  2  0  0  3  0  0  0  0  0  0
  161.2870  208.2940  140.5220 C   0  0  2  0  0  3  0  0  0  0  0  0
  160.7750  205.4220  153.1170 C   0  0  0  0  0  2  0  0  0  0  0  0
  161.5580  206.6630  153.5360 C   0  0  0  0  0  2  0  0  0  0  0  0
  159.5750  206.9190  154.8400 O   0  0  0  0  0  0  0  0  0  0  0  0
  161.2050  207.5920  155.7920 N   0  0  0  0  0  0  0  0  0  0  0  0
  160.0510  206.9190  156.0940 O   0  0  0  0  0  0  0  0  0  0  0  0
  160.7200  207.5770  154.4260 C   0  0  1  0  0  0  0  0  0  0  0  0
  161.1300  209.4690  152.7110 C   0  0  0  0  0  3  0  0  0  0  0  0
  159.4790  211.0800  152.9910 C   0  0  0  0  0  0  0  0  0  0  0  0
  160.6050  210.6930  152.2760 C   0  0  0  0  0  3  0  0  0  0  0  0
  160.4150  208.9130  153.7710 C   0  0  0  0  0  0  0  0  0  0  0  0
  159.1300  209.9290  154.1630 S   0  0  0  0  0  0  0  0  0  0  0  0
  157.5140  212.3910  153.6980 C   0  0  0  0  0  1  0  0  0  0  0  0
  158.7170  212.3410  152.7710 C   0  0  0  0  0  2  0  0  0  0  0  0
  161.1080  208.8940  156.4500 C   0  0  0  0  0  2  0  0  0  0  0  0
  163.2630  209.5270  157.2340 O   0  0  0  0  0  1  0  0  0  0  0  0
  162.0040  211.1870  156.0740 C   0  0  0  0  0  1  0  0  0  0  0  0
  162.3590  209.7110  156.1800 C   0  0  2  0  0  3  0  0  0  0  0  0
  1 12  1  0  0  0  0
  2  6  1  0  0  0  0
  2 13  1  1  0  0  0
  3 10  1  0  0  0  0
  4 19  1  1  0  0  0
  4  2  1  0  0  0  0
  4 13  1  0  0  0  0
  5 17  1  6  0  0  0
  5  7  1  0  0  0  0
  6 37  1  1  0  0  0
  7 11  1  0  0  0  0
  8 20  2  0  0  0  0
  8 18  1  0  0  0  0
  9 27  1  0  0  0  0
 11  6  1  0  0  0  0
 12  5  1  0  0  0  0
 12 26  1  0  0  0  0
 13 21  1  0  0  0  0
 14  9  2  0  0  0  0
 15 19  1  0  0  0  0
 16 10  1  6  0  0  0
 16 12  1  0  0  0  0
 16  5  1  0  0  0  0
 18  3  1  1  0  0  0
 18 24  1  0  0  0  0
 19 27  2  0  0  0  0
 20 25  1  0  0  0  0
 22 15  2  0  0  0  0
 22 14  1  0  0  0  0
 24 23  1  0  0  0  0
 24 15  1  0  0  0  0
 25 23  1  0  0  0  0
 28  8  1  0  0  0  0
 29 28  2  0  0  0  0
 30 28  1  0  0  0  0
 31 30  1  0  0  0  0
 32 31  1  0  0  0  0
 33 35  1  0  0  0  0
 33 36  1  0  0  0  0
 35 34  1  1  0  0  0
 35 36  1  0  0  0  0
 36 32  1  1  0  0  0
 37 38  1  0  0  0  0
 39 41  1  0  0  0  0
 40 41  1  0  0  0  0
 40 50  1  0  0  0  0
 42 38  1  6  0  0  0
 42 39  1  0  0  0  0
 42 40  1  0  0  0  0
 43 46  2  0  0  0  0
 44 47  1  0  0  0  0
 45 43  1  0  0  0  0
 45 44  2  0  0  0  0
 46 47  1  0  0  0  0
 46 42  1  0  0  0  0
 49 44  1  0  0  0  0
 49 48  1  0  0  0  0
 53 52  1  1  0  0  0
 53 50  1  0  0  0  0
 53 51  1  0  0  0  0
M  END
>  <MODEL>
7

>  <REMARK>
 VINA RESULT:       8.7      3.491      7.366
  Name = 
  11 active torsions:
  status: ('A' for Active; 'I' for Inactive)
    1  A    between atoms: C_2  and  C_23
    2  A    between atoms: C_7  and  C_13
    3  A    between atoms: C_7  and  C_49
    4  A    between atoms: C_8  and  C_17
    5  A    between atoms: C_15  and  C_37
    6  A    between atoms: N_24  and  C_35
    7  A    between atoms: N_32  and  C_41
    8  A    between atoms: C_35  and  C_52
    9  A    between atoms: C_36  and  C_40
   10  A    between atoms: C_37  and  C_49
   11  A    between atoms: C_40  and  C_41
                            x       y       z     vdW  Elec       q    Type
                         _______ _______ _______ _____ _____    ______ ____

>  <TORSDO>
F 11

$$$$
=
 OpenBabel11072411473D

 53 60  0  0  1  0  0  0  0  0999 V2000
  161.4820  208.3280  147.3110 O   0  0  0  0  0  1  0  0  0  0  0  0
  160.2880  206.7180  153.1200 C   0  0  1  0  0  3  0  0  0  0  0  0
  162.3770  210.6970  150.6490 C   0  0  0  0  0  2  0  0  0  0  0  0
  159.8620  207.9210  153.8730 C   0  0  1  0  0  3  0  0  0  0  0  0
  162.1280  207.6400  149.6040 C   0  0  1  0  0  0  0  0  0  0  0  0
  161.8040  206.3790  153.1530 C   0  0  2  0  0  3  0  0  0  0  0  0
  161.9910  206.5200  150.6210 C   0  0  0  0  0  2  0  0  0  0  0  0
  160.5630  212.4730  151.0450 C   0  0  0  0  0  0  0  0  0  0  0  0
  162.5880  209.3230  156.2200 C   0  0  0  0  0  3  0  0  0  0  0  0
  161.6310  210.1370  149.4420 C   0  0  0  0  0  2  0  0  0  0  0  0
  162.5650  206.9670  151.9600 C   0  0  0  0  0  2  0  0  0  0  0  0
  161.0590  207.8190  148.5440 C   0  0  0  0  0  0  0  0  0  0  0  0
  159.5860  206.5610  154.4230 N   0  0  0  0  0  0  0  0  0  0  0  0
  163.0150  210.4490  155.5120 C   0  0  0  0  0  3  0  0  0  0  0  0
  161.3790  209.9930  153.7520 C   0  0  0  0  0  0  0  0  0  0  0  0
  161.0720  208.7520  149.7600 C   0  0  1  0  0  3  0  0  0  0  0  0
  163.4170  208.0630  149.2530 O   0  0  0  0  0  1  0  0  0  0  0  0
  161.4690  211.4070  151.6580 C   0  0  1  0  0  3  0  0  0  0  0  0
  160.9830  208.8000  154.4430 C   0  0  0  0  0  0  0  0  0  0  0  0
  159.2510  212.5000  151.3340 C   0  0  0  0  0  3  0  0  0  0  0  0
  160.4570  206.1970  155.3970 O   0  0  0  0  0  1  0  0  0  0  0  0
  162.4130  210.7790  154.2940 C   0  0  0  0  0  3  0  0  0  0  0  0
  159.3310  210.2150  152.2600 C   0  0  0  0  0  2  0  0  0  0  0  0
  160.7560  210.4390  152.5170 N   0  0  0  0  0  0  0  0  0  0  0  0
  158.6140  211.5510  152.3110 C   0  0  0  0  0  2  0  0  0  0  0  0
  160.0440  206.8540  148.5120 O   0  0  0  0  0  1  0  0  0  0  0  0
  161.5790  208.5190  155.6930 C   0  0  0  0  0  3  0  0  0  0  0  0
  161.1090  213.4750  150.0950 C   0  0  0  0  0  0  0  0  0  0  0  0
  161.7810  214.4530  150.5260 O   0  0  0  0  0  0  0  0  0  0  0  0
  160.8900  213.3340  148.6870 N   0  0  0  0  0  2  0  0  0  0  0  0
  161.0730  214.4370  147.7560 C   0  0  0  0  0  2  0  0  0  0  0  0
  160.2420  214.2210  146.5040 C   0  0  0  0  0  2  0  0  0  0  0  0
  160.3910  213.0530  144.4250 O   0  0  0  0  0  0  0  0  0  0  0  0
  158.4190  212.5390  145.4700 O   0  0  0  0  0  1  0  0  0  0  0  0
  159.7190  212.0970  145.2080 C   0  0  2  0  0  3  0  0  0  0  0  0
  160.7710  212.9950  145.7760 C   0  0  2  0  0  3  0  0  0  0  0  0
  162.0850  204.8840  153.3680 C   0  0  0  0  0  2  0  0  0  0  0  0
  161.0650  203.9760  152.6890 C   0  0  0  0  0  2  0  0  0  0  0  0
  163.0730  202.9260  151.9380 O   0  0  0  0  0  0  0  0  0  0  0  0
  161.5120  201.6690  151.9450 N   0  0  0  0  0  0  0  0  0  0  0  0
  162.8510  201.6350  152.2290 O   0  0  0  0  0  0  0  0  0  0  0  0
  161.7260  203.0730  151.6520 C   0  0  1  0  0  0  0  0  0  0  0  0
  160.3900  204.2930  149.8050 C   0  0  0  0  0  3  0  0  0  0  0  0
  161.5800  204.1340  147.8140 C   0  0  0  0  0  0  0  0  0  0  0  0
  160.4420  204.6230  148.4430 C   0  0  0  0  0  3  0  0  0  0  0  0
  161.4850  203.5410  150.2270 C   0  0  0  0  0  0  0  0  0  0  0  0
  162.5210  203.2920  148.9220 S   0  0  0  0  0  0  0  0  0  0  0  0
  162.8900  205.4460  146.1880 C   0  0  0  0  0  1  0  0  0  0  0  0
  161.9000  204.3070  146.3700 C   0  0  0  0  0  2  0  0  0  0  0  0
  161.3200  200.8310  150.7610 C   0  0  0  0  0  2  0  0  0  0  0  0
  158.9790  200.4370  150.6070 O   0  0  0  0  0  1  0  0  0  0  0  0
  160.1320  200.9130  148.5740 C   0  0  0  0  0  1  0  0  0  0  0  0
  160.0230  201.1990  150.0650 C   0  0  2  0  0  3  0  0  0  0  0  0
  1 12  1  0  0  0  0
  2  6  1  0  0  0  0
  2  4  1  0  0  0  0
  2 13  1  1  0  0  0
  4 13  1  0  0  0  0
  4 19  1  1  0  0  0
  5 17  1  6  0  0  0
  5 16  1  0  0  0  0
  5  7  1  0  0  0  0
  6 37  1  6  0  0  0
  7 11  1  0  0  0  0
  8 20  2  0  0  0  0
  8 18  1  0  0  0  0
 10  3  1  0  0  0  0
 11  6  1  0  0  0  0
 12  5  1  0  0  0  0
 12 16  1  0  0  0  0
 13 21  1  0  0  0  0
 14  9  2  0  0  0  0
 15 22  2  0  0  0  0
 15 19  1  0  0  0  0
 16 10  1  6  0  0  0
 18  3  1  6  0  0  0
 18 24  1  0  0  0  0
 19 27  2  0  0  0  0
 20 25  1  0  0  0  0
 22 14  1  0  0  0  0
 23 25  1  0  0  0  0
 23 24  1  0  0  0  0
 24 15  1  0  0  0  0
 26 12  1  0  0  0  0
 27  9  1  0  0  0  0
 28 29  2  0  0  0  0
 28  8  1  0  0  0  0
 30 28  1  0  0  0  0
 31 30  1  0  0  0  0
 32 31  1  0  0  0  0
 33 35  1  0  0  0  0
 33 36  1  0  0  0  0
 35 34  1  1  0  0  0
 35 36  1  0  0  0  0
 36 32  1  1  0  0  0
 38 37  1  0  0  0  0
 39 41  1  0  0  0  0
 40 41  1  0  0  0  0
 42 39  1  0  0  0  0
 42 40  1  0  0  0  0
 42 38  1  1  0  0  0
 43 46  2  0  0  0  0
 44 45  2  0  0  0  0
 44 47  1  0  0  0  0
 45 43  1  0  0  0  0
 46 42  1  0  0  0  0
 47 46  1  0  0  0  0
 48 49  1  0  0  0  0
 49 44  1  0  0  0  0
 50 40  1  0  0  0  0
 53 52  1  6  0  0  0
 53 51  1  0  0  0  0
 53 50  1  0  0  0  0
M  END
>  <MODEL>
8

>  <REMARK>
 VINA RESULT:       8.8      2.655      8.907
  Name = 
  11 active torsions:
  status: ('A' for Active; 'I' for Inactive)
    1  A    between atoms: C_2  and  C_23
    2  A    between atoms: C_7  and  C_13
    3  A    between atoms: C_7  and  C_49
    4  A    between atoms: C_8  and  C_17
    5  A    between atoms: C_15  and  C_37
    6  A    between atoms: N_24  and  C_35
    7  A    between atoms: N_32  and  C_41
    8  A    between atoms: C_35  and  C_52
    9  A    between atoms: C_36  and  C_40
   10  A    between atoms: C_37  and  C_49
   11  A    between atoms: C_40  and  C_41
                            x       y       z     vdW  Elec       q    Type
                         _______ _______ _______ _____ _____    ______ ____

>  <TORSDO>
F 11

$$$$
