=
 OpenBabel11072412233D

 27 30  0  0  1  0  0  0  0  0999 V2000
  160.9470  209.2040  151.6650 C   0  0  0  0  0  2  0  0  0  0  0  0
  160.4040  209.0020  154.3440 N   0  0  1  0  0  0  0  0  0  0  0  0
  160.5990  206.6540  154.5390 C   0  0  0  0  0  2  0  0  0  0  0  0
  161.5790  210.2940  152.5460 C   0  0  0  0  0  2  0  0  0  0  0  0
  161.1620  206.7110  151.6450 C   0  0  0  0  0  3  0  0  0  0  0  0
  161.0680  210.2960  154.0090 C   0  0  2  0  0  0  0  0  0  0  0  0
  161.0600  207.8580  152.3310 C   0  0  0  0  0  0  0  0  0  0  0  0
  161.1570  207.8670  153.8280 C   0  0  1  0  0  3  0  0  0  0  0  0
  160.2000  207.1960  155.8980 C   0  0  0  0  0  2  0  0  0  0  0  0
  160.2790  208.7120  155.7700 C   0  0  0  0  0  2  0  0  0  0  0  0
  162.2860  210.5490  154.8950 C   0  0  0  0  0  1  0  0  0  0  0  0
  158.7430  211.2090  154.6940 C   0  0  0  0  0  2  0  0  0  0  0  0
  160.1250  211.5180  154.1420 C   0  0  0  0  0  3  0  0  0  0  0  0
  158.9300  211.4240  153.2050 C   0  0  0  0  0  2  0  0  0  0  0  0
  161.1240  206.5520  150.1770 C   0  0  0  0  0  0  0  0  0  0  0  0
  161.1060  207.5590  149.4190 O   0  0  0  0  0  0  0  0  0  0  0  0
  160.4770  204.1740  151.8200 C   0  0  0  0  0  1  0  0  0  0  0  0
  161.2120  202.6130  148.4540 C   0  0  0  0  0  3  0  0  0  0  0  0
  161.1320  205.1910  149.5830 C   0  0  0  0  0  0  0  0  0  0  0  0
  160.6350  201.6380  150.5710 O   0  0  0  0  0  1  0  0  0  0  0  0
  161.4720  203.7280  147.6630 C   0  0  0  0  0  3  0  0  0  0  0  0
  161.4230  205.0150  148.2070 C   0  0  0  0  0  0  0  0  0  0  0  0
  160.9020  202.7670  149.8040 C   0  0  0  0  0  0  0  0  0  0  0  0
  160.8590  204.0480  150.3780 C   0  0  0  0  0  0  0  0  0  0  0  0
  161.7530  206.1760  147.3140 C   0  0  0  0  0  2  0  0  0  0  0  0
  160.3320  206.1340  145.2530 C   0  0  0  0  0  1  0  0  0  0  0  0
  161.6890  205.7930  145.8410 C   0  0  0  0  0  2  0  0  0  0  0  0
  1  7  1  0  0  0  0
  1  4  1  0  0  0  0
  2 10  1  1  0  0  0
  3  9  1  0  0  0  0
  4  6  1  0  0  0  0
  5  7  2  0  0  0  0
  6 13  1  0  0  0  0
  6  2  1  0  0  0  0
  6 11  1  1  0  0  0
  7  8  1  0  0  0  0
  8  2  1  0  0  0  0
  8  3  1  1  0  0  0
 10  9  1  0  0  0  0
 13 12  1  0  0  0  0
 14 13  1  0  0  0  0
 14 12  1  0  0  0  0
 15  5  1  0  0  0  0
 16 15  2  0  0  0  0
 18 23  1  0  0  0  0
 19 15  1  0  0  0  0
 19 24  1  0  0  0  0
 21 22  1  0  0  0  0
 21 18  2  0  0  0  0
 22 19  2  0  0  0  0
 23 24  2  0  0  0  0
 23 20  1  0  0  0  0
 24 17  1  0  0  0  0
 25 22  1  0  0  0  0
 26 27  1  0  0  0  0
 27 25  1  0  0  0  0
M  END
>  <MODEL>
1

>  <REMARK>
 VINA RESULT:      -9.8      0.000      0.000
  Name = 
  5 active torsions:
  status: ('A' for Active; 'I' for Inactive)
    1  A    between atoms: C_1  and  C_7
    2  A    between atoms: C_1  and  C_19
    3  A    between atoms: C_9  and  C_21
    4  A    between atoms: C_13  and  C_14
    5  A    between atoms: C_13  and  C_25
                            x       y       z     vdW  Elec       q    Type
                         _______ _______ _______ _____ _____    ______ ____

>  <TORSDO>
F 5

$$$$
=
 OpenBabel11072412233D

 27 30  0  0  1  0  0  0  0  0999 V2000
  161.9980  208.3510  149.6890 C   0  0  0  0  0  2  0  0  0  0  0  0
  161.6100  205.6600  149.3400 N   0  0  1  0  0  0  0  0  0  0  0  0
  160.6960  205.1850  151.4690 C   0  0  0  0  0  2  0  0  0  0  0  0
  161.4680  207.9390  148.3060 C   0  0  0  0  0  2  0  0  0  0  0  0
  161.0910  208.0580  152.0030 C   0  0  0  0  0  3  0  0  0  0  0  0
  161.4830  206.4100  148.0560 C   0  0  2  0  0  0  0  0  0  0  0  0
  161.3030  207.5700  150.7730 C   0  0  0  0  0  0  0  0  0  0  0  0
  160.7590  206.2290  150.3760 C   0  0  1  0  0  3  0  0  0  0  0  0
  160.7980  203.8760  150.7090 C   0  0  0  0  0  2  0  0  0  0  0  0
  161.2020  204.2590  149.2910 C   0  0  0  0  0  2  0  0  0  0  0  0
  160.1790  206.0740  147.3350 C   0  0  0  0  0  1  0  0  0  0  0  0
  162.2300  205.7960  145.6530 C   0  0  0  0  0  2  0  0  0  0  0  0
  162.6500  206.1380  147.0740 C   0  0  0  0  0  3  0  0  0  0  0  0
  162.6720  204.6950  146.5960 C   0  0  0  0  0  2  0  0  0  0  0  0
  161.5300  209.3700  152.5220 C   0  0  0  0  0  0  0  0  0  0  0  0
  162.6180  209.8820  152.1430 O   0  0  0  0  0  0  0  0  0  0  0  0
  160.0940  211.8260  151.6990 C   0  0  0  0  0  1  0  0  0  0  0  0
  159.0950  211.5250  155.3350 C   0  0  0  0  0  3  0  0  0  0  0  0
  160.6710  210.1070  153.4830 C   0  0  0  0  0  0  0  0  0  0  0  0
  158.5760  213.1760  153.6730 O   0  0  0  0  0  1  0  0  0  0  0  0
  159.7290  210.3470  155.7180 C   0  0  0  0  0  3  0  0  0  0  0  0
  160.5040  209.6250  154.8050 C   0  0  0  0  0  0  0  0  0  0  0  0
  159.2290  212.0030  154.0330 C   0  0  0  0  0  0  0  0  0  0  0  0
  160.0120  211.3040  153.1010 C   0  0  0  0  0  0  0  0  0  0  0  0
  161.1960  208.3830  155.2870 C   0  0  0  0  0  2  0  0  0  0  0  0
  160.1340  206.9730  157.0630 C   0  0  0  0  0  1  0  0  0  0  0  0
  160.2100  207.2590  155.5750 C   0  0  0  0  0  2  0  0  0  0  0  0
  1  7  1  0  0  0  0
  2 10  1  6  0  0  0
  2  8  1  0  0  0  0
  4  1  1  0  0  0  0
  5 15  1  0  0  0  0
  6 11  1  6  0  0  0
  6  4  1  0  0  0  0
  6  2  1  0  0  0  0
  7  5  2  0  0  0  0
  8  7  1  0  0  0  0
  8  3  1  1  0  0  0
  9  3  1  0  0  0  0
 10  9  1  0  0  0  0
 12 14  1  0  0  0  0
 12 13  1  0  0  0  0
 13  6  1  0  0  0  0
 14 13  1  0  0  0  0
 15 19  1  0  0  0  0
 16 15  2  0  0  0  0
 17 24  1  0  0  0  0
 18 21  1  0  0  0  0
 19 22  1  0  0  0  0
 20 23  1  0  0  0  0
 22 25  1  0  0  0  0
 22 21  2  0  0  0  0
 23 18  2  0  0  0  0
 24 19  2  0  0  0  0
 24 23  1  0  0  0  0
 25 27  1  0  0  0  0
 27 26  1  0  0  0  0
M  END
>  <MODEL>
2

>  <REMARK>
 VINA RESULT:      -9.5      2.442      7.935
  Name = 
  5 active torsions:
  status: ('A' for Active; 'I' for Inactive)
    1  A    between atoms: C_1  and  C_7
    2  A    between atoms: C_1  and  C_19
    3  A    between atoms: C_9  and  C_21
    4  A    between atoms: C_13  and  C_14
    5  A    between atoms: C_13  and  C_25
                            x       y       z     vdW  Elec       q    Type
                         _______ _______ _______ _____ _____    ______ ____

>  <TORSDO>
F 5

$$$$
=
 OpenBabel11072412233D

 27 30  0  0  1  0  0  0  0  0999 V2000
  161.9990  207.7560  149.2910 C   0  0  0  0  0  2  0  0  0  0  0  0
  161.6130  205.1450  148.5540 N   0  0  1  0  0  0  0  0  0  0  0  0
  160.6640  204.3730  150.5770 C   0  0  0  0  0  2  0  0  0  0  0  0
  161.4910  207.5490  147.8550 C   0  0  0  0  0  2  0  0  0  0  0  0
  161.0540  207.1380  151.5240 C   0  0  0  0  0  3  0  0  0  0  0  0
  161.5080  206.0710  147.3880 C   0  0  2  0  0  0  0  0  0  0  0  0
  161.2850  206.8310  150.2400 C   0  0  0  0  0  0  0  0  0  0  0  0
  160.7460  205.5630  149.6460 C   0  0  1  0  0  3  0  0  0  0  0  0
  160.7760  203.1860  149.6400 C   0  0  0  0  0  2  0  0  0  0  0  0
  161.2040  203.7660  148.2970 C   0  0  0  0  0  2  0  0  0  0  0  0
  160.2160  205.8470  146.6060 C   0  0  0  0  0  1  0  0  0  0  0  0
  162.2980  205.6010  144.9670 C   0  0  0  0  0  2  0  0  0  0  0  0
  162.6900  205.9380  146.3960 C   0  0  0  0  0  3  0  0  0  0  0  0
  162.8440  204.5180  145.8750 C   0  0  0  0  0  2  0  0  0  0  0  0
  161.4860  208.3610  152.2320 C   0  0  0  0  0  0  0  0  0  0  0  0
  162.3540  209.1240  151.7290 O   0  0  0  0  0  0  0  0  0  0  0  0
  161.2960  206.3530  154.4020 C   0  0  0  0  0  1  0  0  0  0  0  0
  159.6590  209.3700  155.9910 C   0  0  0  0  0  3  0  0  0  0  0  0
  160.8760  208.7090  153.5400 C   0  0  0  0  0  0  0  0  0  0  0  0
  160.0130  207.1390  156.8010 O   0  0  0  0  0  1  0  0  0  0  0  0
  159.7860  210.3330  154.9950 C   0  0  0  0  0  3  0  0  0  0  0  0
  160.4000  210.0230  153.7770 C   0  0  0  0  0  0  0  0  0  0  0  0
  160.1420  208.0790  155.7850 C   0  0  0  0  0  0  0  0  0  0  0  0
  160.7500  207.7380  154.5660 C   0  0  0  0  0  0  0  0  0  0  0  0
  160.4700  211.0920  152.7250 C   0  0  0  0  0  2  0  0  0  0  0  0
  159.2740  213.0940  151.8150 C   0  0  0  0  0  1  0  0  0  0  0  0
  159.1140  211.7430  152.4870 C   0  0  0  0  0  2  0  0  0  0  0  0
  1  7  1  0  0  0  0
  2 10  1  6  0  0  0
  2  8  1  0  0  0  0
  4  1  1  0  0  0  0
  5 15  1  0  0  0  0
  6 11  1  6  0  0  0
  6  4  1  0  0  0  0
  6  2  1  0  0  0  0
  7  5  2  0  0  0  0
  8  7  1  0  0  0  0
  8  3  1  1  0  0  0
  9  3  1  0  0  0  0
 10  9  1  0  0  0  0
 12 14  1  0  0  0  0
 12 13  1  0  0  0  0
 13  6  1  0  0  0  0
 14 13  1  0  0  0  0
 15 19  1  0  0  0  0
 16 15  2  0  0  0  0
 17 24  1  0  0  0  0
 19 22  2  0  0  0  0
 19 24  1  0  0  0  0
 21 18  2  0  0  0  0
 22 21  1  0  0  0  0
 23 18  1  0  0  0  0
 23 20  1  0  0  0  0
 24 23  2  0  0  0  0
 25 22  1  0  0  0  0
 26 27  1  0  0  0  0
 27 25  1  0  0  0  0
M  END
>  <MODEL>
3

>  <REMARK>
 VINA RESULT:      -9.3      2.322      7.462
  Name = 
  5 active torsions:
  status: ('A' for Active; 'I' for Inactive)
    1  A    between atoms: C_1  and  C_7
    2  A    between atoms: C_1  and  C_19
    3  A    between atoms: C_9  and  C_21
    4  A    between atoms: C_13  and  C_14
    5  A    between atoms: C_13  and  C_25
                            x       y       z     vdW  Elec       q    Type
                         _______ _______ _______ _____ _____    ______ ____

>  <TORSDO>
F 5

$$$$
=
 OpenBabel11072412233D

 27 30  0  0  1  0  0  0  0  0999 V2000
  161.4420  207.4910  154.3880 C   0  0  0  0  0  2  0  0  0  0  0  0
  160.7890  210.1520  154.3450 N   0  0  1  0  0  0  0  0  0  0  0  0
  160.6040  210.4030  152.0010 C   0  0  0  0  0  2  0  0  0  0  0  0
  160.4590  207.9420  155.4800 C   0  0  0  0  0  2  0  0  0  0  0  0
  161.3360  207.5490  151.8890 C   0  0  0  0  0  3  0  0  0  0  0  0
  160.2930  209.4790  155.5810 C   0  0  2  0  0  0  0  0  0  0  0  0
  161.0970  208.1330  153.0710 C   0  0  0  0  0  0  0  0  0  0  0  0
  160.3670  209.4420  153.1460 C   0  0  1  0  0  3  0  0  0  0  0  0
  160.3640  211.7620  152.6300 C   0  0  0  0  0  2  0  0  0  0  0  0
  160.2990  211.5110  154.1310 C   0  0  0  0  0  2  0  0  0  0  0  0
  158.8050  209.7420  155.8060 C   0  0  0  0  0  1  0  0  0  0  0  0
  162.4310  210.5040  156.6240 C   0  0  0  0  0  2  0  0  0  0  0  0
  161.0480  209.9190  156.8610 C   0  0  0  0  0  3  0  0  0  0  0  0
  162.2890  209.0760  157.1110 C   0  0  0  0  0  2  0  0  0  0  0  0
  162.0050  206.2510  151.6630 C   0  0  0  0  0  0  0  0  0  0  0  0
  162.9060  205.8450  152.4460 O   0  0  0  0  0  0  0  0  0  0  0  0
  160.6570  203.6510  152.1030 C   0  0  0  0  0  1  0  0  0  0  0  0
  160.8850  203.7770  148.3290 C   0  0  0  0  0  3  0  0  0  0  0  0
  161.5970  205.4020  150.5160 C   0  0  0  0  0  0  0  0  0  0  0  0
  160.0320  202.0990  149.8180 O   0  0  0  0  0  1  0  0  0  0  0  0
  161.4760  205.0180  148.1110 C   0  0  0  0  0  3  0  0  0  0  0  0
  161.8230  205.8420  149.1880 C   0  0  0  0  0  0  0  0  0  0  0  0
  160.6340  203.3380  149.6270 C   0  0  0  0  0  0  0  0  0  0  0  0
  160.9850  204.1390  150.7260 C   0  0  0  0  0  0  0  0  0  0  0  0
  162.4950  207.1510  148.8910 C   0  0  0  0  0  2  0  0  0  0  0  0
  161.9570  209.5900  148.7170 C   0  0  0  0  0  1  0  0  0  0  0  0
  161.5120  208.1840  148.3570 C   0  0  0  0  0  2  0  0  0  0  0  0
  1  4  1  0  0  0  0
  2 10  1  6  0  0  0
  2  6  1  0  0  0  0
  3  9  1  0  0  0  0
  4  6  1  0  0  0  0
  5  7  2  0  0  0  0
  6 11  1  1  0  0  0
  6 13  1  0  0  0  0
  7  8  1  0  0  0  0
  7  1  1  0  0  0  0
  8  3  1  6  0  0  0
  8  2  1  0  0  0  0
  9 10  1  0  0  0  0
 12 13  1  0  0  0  0
 12 14  1  0  0  0  0
 13 14  1  0  0  0  0
 15  5  1  0  0  0  0
 15 16  2  0  0  0  0
 18 23  1  0  0  0  0
 19 24  1  0  0  0  0
 19 15  1  0  0  0  0
 21 18  2  0  0  0  0
 21 22  1  0  0  0  0
 22 19  2  0  0  0  0
 23 20  1  0  0  0  0
 23 24  2  0  0  0  0
 24 17  1  0  0  0  0
 25 22  1  0  0  0  0
 27 26  1  0  0  0  0
 27 25  1  0  0  0  0
M  END
>  <MODEL>
4

>  <REMARK>
 VINA RESULT:      -9.2      1.560      2.997
  Name = 
  5 active torsions:
  status: ('A' for Active; 'I' for Inactive)
    1  A    between atoms: C_1  and  C_7
    2  A    between atoms: C_1  and  C_19
    3  A    between atoms: C_9  and  C_21
    4  A    between atoms: C_13  and  C_14
    5  A    between atoms: C_13  and  C_25
                            x       y       z     vdW  Elec       q    Type
                         _______ _______ _______ _____ _____    ______ ____

>  <TORSDO>
F 5

$$$$
=
 OpenBabel11072412233D

 27 30  0  0  1  0  0  0  0  0999 V2000
  160.3350  210.7340  154.8640 C   0  0  0  0  0  2  0  0  0  0  0  0
  158.5050  212.7080  154.3470 N   0  0  1  0  0  0  0  0  0  0  0  0
  158.3300  212.3830  152.0110 C   0  0  0  0  0  2  0  0  0  0  0  0
  159.2070  210.8700  155.9000 C   0  0  0  0  0  2  0  0  0  0  0  0
  160.3270  210.2510  152.4090 C   0  0  0  0  0  3  0  0  0  0  0  0
  158.3300  212.1340  155.7130 C   0  0  2  0  0  0  0  0  0  0  0  0
  159.7880  210.8690  153.4680 C   0  0  0  0  0  0  0  0  0  0  0  0
  158.5230  211.6660  153.3290 C   0  0  1  0  0  3  0  0  0  0  0  0
  157.4480  213.5610  152.3790 C   0  0  0  0  0  2  0  0  0  0  0  0
  157.4420  213.6050  153.9020 C   0  0  0  0  0  2  0  0  0  0  0  0
  156.8860  211.7020  155.9600 C   0  0  0  0  0  1  0  0  0  0  0  0
  159.6890  214.2180  156.4300 C   0  0  0  0  0  2  0  0  0  0  0  0
  158.7290  213.1150  156.8430 C   0  0  0  0  0  3  0  0  0  0  0  0
  160.2060  213.0160  157.1930 C   0  0  0  0  0  2  0  0  0  0  0  0
  161.5400  209.4060  152.4010 C   0  0  0  0  0  0  0  0  0  0  0  0
  162.6800  209.9130  152.5840 O   0  0  0  0  0  0  0  0  0  0  0  0
  161.6220  208.2330  149.6830 C   0  0  0  0  0  1  0  0  0  0  0  0
  161.1140  205.1650  151.8360 C   0  0  0  0  0  3  0  0  0  0  0  0
  161.4150  207.9400  152.2000 C   0  0  0  0  0  0  0  0  0  0  0  0
  161.2680  205.4330  149.4550 O   0  0  0  0  0  1  0  0  0  0  0  0
  161.1210  205.7020  153.1190 C   0  0  0  0  0  3  0  0  0  0  0  0
  161.2820  207.0770  153.3170 C   0  0  0  0  0  0  0  0  0  0  0  0
  161.2660  205.9960  150.7270 C   0  0  0  0  0  0  0  0  0  0  0  0
  161.4160  207.3810  150.8970 C   0  0  0  0  0  0  0  0  0  0  0  0
  161.2390  207.6020  154.7220 C   0  0  0  0  0  2  0  0  0  0  0  0
  160.2170  207.2710  156.9840 C   0  0  0  0  0  1  0  0  0  0  0  0
  160.0380  207.0670  155.4910 C   0  0  0  0  0  2  0  0  0  0  0  0
  1  4  1  0  0  0  0
  2 10  1  6  0  0  0
  2  6  1  0  0  0  0
  3  9  1  0  0  0  0
  5  7  2  0  0  0  0
  6  4  1  0  0  0  0
  6 11  1  1  0  0  0
  6 13  1  0  0  0  0
  7  1  1  0  0  0  0
  8  3  1  6  0  0  0
  8  7  1  0  0  0  0
  8  2  1  0  0  0  0
  9 10  1  0  0  0  0
 12 13  1  0  0  0  0
 12 14  1  0  0  0  0
 13 14  1  0  0  0  0
 15  5  1  0  0  0  0
 15 16  2  0  0  0  0
 17 24  1  0  0  0  0
 18 21  1  0  0  0  0
 19 15  1  0  0  0  0
 19 22  1  0  0  0  0
 20 23  1  0  0  0  0
 21 22  2  0  0  0  0
 22 25  1  0  0  0  0
 23 24  1  0  0  0  0
 23 18  2  0  0  0  0
 24 19  2  0  0  0  0
 25 27  1  0  0  0  0
 27 26  1  0  0  0  0
M  END
>  <MODEL>
5

>  <REMARK>
 VINA RESULT:      -9.1      2.484      5.472
  Name = 
  5 active torsions:
  status: ('A' for Active; 'I' for Inactive)
    1  A    between atoms: C_1  and  C_7
    2  A    between atoms: C_1  and  C_19
    3  A    between atoms: C_9  and  C_21
    4  A    between atoms: C_13  and  C_14
    5  A    between atoms: C_13  and  C_25
                            x       y       z     vdW  Elec       q    Type
                         _______ _______ _______ _____ _____    ______ ____

>  <TORSDO>
F 5

$$$$
=
 OpenBabel11072412233D

 27 30  0  0  1  0  0  0  0  0999 V2000
  161.8540  208.6690  153.9940 C   0  0  0  0  0  2  0  0  0  0  0  0
  160.3850  210.9240  154.5140 N   0  0  1  0  0  0  0  0  0  0  0  0
  159.2930  211.0890  152.4230 C   0  0  0  0  0  2  0  0  0  0  0  0
  161.2420  208.7420  155.4020 C   0  0  0  0  0  2  0  0  0  0  0  0
  160.8390  208.6830  151.7060 C   0  0  0  0  0  3  0  0  0  0  0  0
  160.6220  210.1190  155.7480 C   0  0  2  0  0  0  0  0  0  0  0  0
  160.8640  209.1450  152.9640 C   0  0  0  0  0  0  0  0  0  0  0  0
  159.8200  210.1080  153.4480 C   0  0  1  0  0  3  0  0  0  0  0  0
  158.8590  212.2740  153.2640 C   0  0  0  0  0  2  0  0  0  0  0  0
  159.4280  212.0180  154.6530 C   0  0  0  0  0  2  0  0  0  0  0  0
  159.3200  209.8350  156.4940 C   0  0  0  0  0  1  0  0  0  0  0  0
  163.0340  210.9120  156.2630 C   0  0  0  0  0  2  0  0  0  0  0  0
  161.5960  210.8010  156.7420 C   0  0  0  0  0  3  0  0  0  0  0  0
  162.6520  209.8380  157.2600 C   0  0  0  0  0  2  0  0  0  0  0  0
  161.7730  207.7080  151.1040 C   0  0  0  0  0  0  0  0  0  0  0  0
  162.9670  208.0270  150.8580 O   0  0  0  0  0  0  0  0  0  0  0  0
  161.5730  205.6770  153.2500 C   0  0  0  0  0  1  0  0  0  0  0  0
  160.4820  203.7050  150.2130 C   0  0  0  0  0  3  0  0  0  0  0  0
  161.3080  206.3300  150.8070 C   0  0  0  0  0  0  0  0  0  0  0  0
  160.7680  203.0660  152.5080 O   0  0  0  0  0  1  0  0  0  0  0  0
  160.5290  204.6650  149.2060 C   0  0  0  0  0  3  0  0  0  0  0  0
  160.9240  205.9760  149.4890 C   0  0  0  0  0  0  0  0  0  0  0  0
  160.8340  204.0400  151.5190 C   0  0  0  0  0  0  0  0  0  0  0  0
  161.2470  205.3460  151.8270 C   0  0  0  0  0  0  0  0  0  0  0  0
  160.9940  206.9560  148.3540 C   0  0  0  0  0  2  0  0  0  0  0  0
  160.7190  206.2140  145.9790 C   0  0  0  0  0  1  0  0  0  0  0  0
  161.6900  206.3640  147.1360 C   0  0  0  0  0  2  0  0  0  0  0  0
  1  4  1  0  0  0  0
  2 10  1  1  0  0  0
  2  6  1  0  0  0  0
  3  9  1  0  0  0  0
  4  6  1  0  0  0  0
  5  7  2  0  0  0  0
  6 11  1  1  0  0  0
  6 13  1  0  0  0  0
  7  8  1  0  0  0  0
  7  1  1  0  0  0  0
  8  3  1  6  0  0  0
  8  2  1  0  0  0  0
  9 10  1  0  0  0  0
 12 13  1  0  0  0  0
 12 14  1  0  0  0  0
 13 14  1  0  0  0  0
 15  5  1  0  0  0  0
 16 15  2  0  0  0  0
 18 23  1  0  0  0  0
 19 15  1  0  0  0  0
 19 24  1  0  0  0  0
 21 22  1  0  0  0  0
 21 18  2  0  0  0  0
 22 19  2  0  0  0  0
 23 24  2  0  0  0  0
 23 20  1  0  0  0  0
 24 17  1  0  0  0  0
 25 22  1  0  0  0  0
 26 27  1  0  0  0  0
 27 25  1  0  0  0  0
M  END
>  <MODEL>
6

>  <REMARK>
 VINA RESULT:      -9.1      1.416      2.940
  Name = 
  5 active torsions:
  status: ('A' for Active; 'I' for Inactive)
    1  A    between atoms: C_1  and  C_7
    2  A    between atoms: C_1  and  C_19
    3  A    between atoms: C_9  and  C_21
    4  A    between atoms: C_13  and  C_14
    5  A    between atoms: C_13  and  C_25
                            x       y       z     vdW  Elec       q    Type
                         _______ _______ _______ _____ _____    ______ ____

>  <TORSDO>
F 5

$$$$
=
 OpenBabel11072412233D

 27 30  0  0  1  0  0  0  0  0999 V2000
  161.4150  207.8470  154.1230 C   0  0  0  0  0  2  0  0  0  0  0  0
  160.6580  210.4790  154.2060 N   0  0  1  0  0  0  0  0  0  0  0  0
  160.3360  210.7980  151.8860 C   0  0  0  0  0  2  0  0  0  0  0  0
  160.4760  208.2220  155.2800 C   0  0  0  0  0  2  0  0  0  0  0  0
  161.1710  207.9810  151.6360 C   0  0  0  0  0  3  0  0  0  0  0  0
  160.2560  209.7470  155.4430 C   0  0  2  0  0  0  0  0  0  0  0  0
  160.9740  208.5170  152.8480 C   0  0  0  0  0  0  0  0  0  0  0  0
  160.1990  209.7920  153.0070 C   0  0  1  0  0  3  0  0  0  0  0  0
  160.0770  212.1260  152.5730 C   0  0  0  0  0  2  0  0  0  0  0  0
  160.1040  211.8240  154.0660 C   0  0  0  0  0  2  0  0  0  0  0  0
  158.7730  209.9420  155.7550 C   0  0  0  0  0  1  0  0  0  0  0  0
  162.5030  210.5740  156.4280 C   0  0  0  0  0  2  0  0  0  0  0  0
  161.0610  210.1750  156.6950 C   0  0  0  0  0  3  0  0  0  0  0  0
  162.1930  209.2080  157.0060 C   0  0  0  0  0  2  0  0  0  0  0  0
  161.8770  206.7200  151.3300 C   0  0  0  0  0  0  0  0  0  0  0  0
  162.6770  206.2110  152.1610 O   0  0  0  0  0  0  0  0  0  0  0  0
  162.6390  207.9760  148.7590 C   0  0  0  0  0  1  0  0  0  0  0  0
  161.0810  204.7290  147.6030 C   0  0  0  0  0  3  0  0  0  0  0  0
  161.6240  206.0280  150.0410 C   0  0  0  0  0  0  0  0  0  0  0  0
  161.9980  206.5790  146.3800 O   0  0  0  0  0  1  0  0  0  0  0  0
  160.7620  204.1100  148.8080 C   0  0  0  0  0  3  0  0  0  0  0  0
  161.0370  204.7380  150.0270 C   0  0  0  0  0  0  0  0  0  0  0  0
  161.6790  205.9880  147.5970 C   0  0  0  0  0  0  0  0  0  0  0  0
  161.9540  206.6450  148.8070 C   0  0  0  0  0  0  0  0  0  0  0  0
  160.6330  204.0400  151.2930 C   0  0  0  0  0  2  0  0  0  0  0  0
  161.1860  201.6290  150.9030 C   0  0  0  0  0  1  0  0  0  0  0  0
  161.5790  202.8970  151.6370 C   0  0  0  0  0  2  0  0  0  0  0  0
  1  4  1  0  0  0  0
  2 10  1  1  0  0  0
  2  6  1  0  0  0  0
  3  9  1  0  0  0  0
  4  6  1  0  0  0  0
  5  7  2  0  0  0  0
  6 11  1  1  0  0  0
  6 13  1  0  0  0  0
  7  8  1  0  0  0  0
  7  1  1  0  0  0  0
  8  3  1  6  0  0  0
  8  2  1  0  0  0  0
  9 10  1  0  0  0  0
 12 13  1  0  0  0  0
 12 14  1  0  0  0  0
 13 14  1  0  0  0  0
 15  5  1  0  0  0  0
 15 16  2  0  0  0  0
 17 24  1  0  0  0  0
 18 21  1  0  0  0  0
 19 15  1  0  0  0  0
 20 23  1  0  0  0  0
 21 22  2  0  0  0  0
 22 19  1  0  0  0  0
 22 25  1  0  0  0  0
 23 18  2  0  0  0  0
 23 24  1  0  0  0  0
 24 19  2  0  0  0  0
 25 27  1  0  0  0  0
 26 27  1  0  0  0  0
M  END
>  <MODEL>
7

>  <REMARK>
 VINA RESULT:      -9.0      1.710      3.931
  Name = 
  5 active torsions:
  status: ('A' for Active; 'I' for Inactive)
    1  A    between atoms: C_1  and  C_7
    2  A    between atoms: C_1  and  C_19
    3  A    between atoms: C_9  and  C_21
    4  A    between atoms: C_13  and  C_14
    5  A    between atoms: C_13  and  C_25
                            x       y       z     vdW  Elec       q    Type
                         _______ _______ _______ _____ _____    ______ ____

>  <TORSDO>
F 5

$$$$
=
 OpenBabel11072412233D

 27 30  0  0  1  0  0  0  0  0999 V2000
  161.1490  209.1970  151.1680 C   0  0  0  0  0  2  0  0  0  0  0  0
  160.6630  208.8460  153.8430 N   0  0  1  0  0  0  0  0  0  0  0  0
  160.8310  206.4880  153.8950 C   0  0  0  0  0  2  0  0  0  0  0  0
  161.8160  210.2260  152.0960 C   0  0  0  0  0  2  0  0  0  0  0  0
  161.3290  206.7070  150.9980 C   0  0  0  0  0  3  0  0  0  0  0  0
  161.3380  210.1490  153.5680 C   0  0  2  0  0  0  0  0  0  0  0  0
  161.2590  207.8130  151.7510 C   0  0  0  0  0  0  0  0  0  0  0  0
  161.3890  207.7340  153.2440 C   0  0  1  0  0  3  0  0  0  0  0  0
  160.4700  206.9550  155.2930 C   0  0  0  0  0  2  0  0  0  0  0  0
  160.5670  208.4740  155.2520 C   0  0  0  0  0  2  0  0  0  0  0  0
  162.5790  210.3340  154.4390 C   0  0  0  0  0  1  0  0  0  0  0  0
  159.1590  211.0930  154.6020 C   0  0  0  0  0  2  0  0  0  0  0  0
  160.4150  211.3720  153.7940 C   0  0  0  0  0  3  0  0  0  0  0  0
  159.0740  211.2160  153.0940 C   0  0  0  0  0  2  0  0  0  0  0  0
  161.2560  206.6350  149.5240 C   0  0  0  0  0  0  0  0  0  0  0  0
  161.2130  207.6860  148.8280 O   0  0  0  0  0  0  0  0  0  0  0  0
  162.1000  206.3720  146.6970 C   0  0  0  0  0  1  0  0  0  0  0  0
  161.1980  202.8040  147.5720 C   0  0  0  0  0  3  0  0  0  0  0  0
  161.2590  205.3120  148.8500 C   0  0  0  0  0  0  0  0  0  0  0  0
  161.9520  203.7990  145.5220 O   0  0  0  0  0  1  0  0  0  0  0  0
  160.8440  202.9110  148.9140 C   0  0  0  0  0  3  0  0  0  0  0  0
  160.8820  204.1480  149.5650 C   0  0  0  0  0  0  0  0  0  0  0  0
  161.5930  203.9340  146.8590 C   0  0  0  0  0  0  0  0  0  0  0  0
  161.6270  205.1900  147.4860 C   0  0  0  0  0  0  0  0  0  0  0  0
  160.4500  204.2070  151.0020 C   0  0  0  0  0  2  0  0  0  0  0  0
  162.0080  202.5220  152.0030 C   0  0  0  0  0  1  0  0  0  0  0  0
  160.5610  202.8500  151.6830 C   0  0  0  0  0  2  0  0  0  0  0  0
  1  7  1  0  0  0  0
  1  4  1  0  0  0  0
  2 10  1  1  0  0  0
  3  9  1  0  0  0  0
  4  6  1  0  0  0  0
  5  7  2  0  0  0  0
  6 13  1  0  0  0  0
  6  2  1  0  0  0  0
  6 11  1  1  0  0  0
  7  8  1  0  0  0  0
  8  2  1  0  0  0  0
  8  3  1  1  0  0  0
 10  9  1  0  0  0  0
 13 12  1  0  0  0  0
 14 13  1  0  0  0  0
 14 12  1  0  0  0  0
 15  5  1  0  0  0  0
 16 15  2  0  0  0  0
 17 24  1  0  0  0  0
 18 21  1  0  0  0  0
 19 15  1  0  0  0  0
 19 22  1  0  0  0  0
 20 23  1  0  0  0  0
 21 22  2  0  0  0  0
 22 25  1  0  0  0  0
 23 24  1  0  0  0  0
 23 18  2  0  0  0  0
 24 19  2  0  0  0  0
 25 27  1  0  0  0  0
 27 26  1  0  0  0  0
M  END
>  <MODEL>
8

>  <REMARK>
 VINA RESULT:      -8.9      1.343      2.877
  Name = 
  5 active torsions:
  status: ('A' for Active; 'I' for Inactive)
    1  A    between atoms: C_1  and  C_7
    2  A    between atoms: C_1  and  C_19
    3  A    between atoms: C_9  and  C_21
    4  A    between atoms: C_13  and  C_14
    5  A    between atoms: C_13  and  C_25
                            x       y       z     vdW  Elec       q    Type
                         _______ _______ _______ _____ _____    ______ ____

>  <TORSDO>
F 5

$$$$
=
 OpenBabel11072412233D

 27 30  0  0  1  0  0  0  0  0999 V2000
  161.1170  205.9880  153.5250 C   0  0  0  0  0  2  0  0  0  0  0  0
  161.7630  208.6330  153.2050 N   0  0  1  0  0  0  0  0  0  0  0  0
  161.6460  208.7120  150.8450 C   0  0  0  0  0  2  0  0  0  0  0  0
  160.4840  206.9460  154.5470 C   0  0  0  0  0  2  0  0  0  0  0  0
  160.9780  205.8470  151.0300 C   0  0  0  0  0  3  0  0  0  0  0  0
  161.0480  208.3880  154.4920 C   0  0  2  0  0  0  0  0  0  0  0  0
  161.0690  206.5870  152.1430 C   0  0  0  0  0  0  0  0  0  0  0  0
  161.0270  208.0850  152.0750 C   0  0  1  0  0  3  0  0  0  0  0  0
  162.0780  210.0830  151.3310 C   0  0  0  0  0  2  0  0  0  0  0  0
  161.9480  210.0370  152.8480 C   0  0  0  0  0  2  0  0  0  0  0  0
  159.8560  209.3280  154.6610 C   0  0  0  0  0  1  0  0  0  0  0  0
  161.2270  208.5900  157.0680 C   0  0  0  0  0  2  0  0  0  0  0  0
  161.9570  208.5510  155.7360 C   0  0  0  0  0  3  0  0  0  0  0  0
  161.7270  209.8770  156.4440 C   0  0  0  0  0  2  0  0  0  0  0  0
  160.9670  204.3720  150.9470 C   0  0  0  0  0  0  0  0  0  0  0  0
  160.8420  203.6680  151.9850 O   0  0  0  0  0  0  0  0  0  0  0  0
  160.8610  201.4210  150.7130 C   0  0  0  0  0  1  0  0  0  0  0  0
  161.3580  202.4660  147.1120 C   0  0  0  0  0  3  0  0  0  0  0  0
  161.0800  203.7080  149.6230 C   0  0  0  0  0  0  0  0  0  0  0  0
  161.1940  200.3000  148.1340 O   0  0  0  0  0  1  0  0  0  0  0  0
  161.3620  203.8540  147.2060 C   0  0  0  0  0  3  0  0  0  0  0  0
  161.2120  204.4850  148.4460 C   0  0  0  0  0  0  0  0  0  0  0  0
  161.2060  201.6850  148.2570 C   0  0  0  0  0  0  0  0  0  0  0  0
  161.0670  202.2940  149.5140 C   0  0  0  0  0  0  0  0  0  0  0  0
  161.2670  205.9850  148.4890 C   0  0  0  0  0  2  0  0  0  0  0  0
  160.4560  206.5450  146.1870 C   0  0  0  0  0  1  0  0  0  0  0  0
  161.6390  206.5780  147.1370 C   0  0  0  0  0  2  0  0  0  0  0  0
  1  4  1  0  0  0  0
  2 10  1  6  0  0  0
  2  6  1  0  0  0  0
  3  9  1  0  0  0  0
  5  7  2  0  0  0  0
  6  4  1  0  0  0  0
  6 11  1  1  0  0  0
  6 13  1  0  0  0  0
  7  1  1  0  0  0  0
  8  3  1  6  0  0  0
  8  7  1  0  0  0  0
  8  2  1  0  0  0  0
  9 10  1  0  0  0  0
 13 14  1  0  0  0  0
 13 12  1  0  0  0  0
 14 12  1  0  0  0  0
 15  5  1  0  0  0  0
 15 16  2  0  0  0  0
 18 21  2  0  0  0  0
 18 23  1  0  0  0  0
 19 15  1  0  0  0  0
 20 23  1  0  0  0  0
 21 22  1  0  0  0  0
 22 25  1  0  0  0  0
 22 19  2  0  0  0  0
 23 24  2  0  0  0  0
 24 19  1  0  0  0  0
 24 17  1  0  0  0  0
 26 27  1  0  0  0  0
 27 25  1  0  0  0  0
M  END
>  <MODEL>
9

>  <REMARK>
 VINA RESULT:      -8.8      1.615      2.925
  Name = 
  5 active torsions:
  status: ('A' for Active; 'I' for Inactive)
    1  A    between atoms: C_1  and  C_7
    2  A    between atoms: C_1  and  C_19
    3  A    between atoms: C_9  and  C_21
    4  A    between atoms: C_13  and  C_14
    5  A    between atoms: C_13  and  C_25
                            x       y       z     vdW  Elec       q    Type
                         _______ _______ _______ _____ _____    ______ ____

>  <TORSDO>
F 5

$$$$
