=
 OpenBabel11072412263D

 33 37  0  0  1  0  0  0  0  0999 V2000
  160.9330  207.5720  152.1500 C   0  0  0  0  0  0  0  0  0  0  0  0
  160.7260  208.8180  152.5660 C   0  0  0  0  0  2  0  0  0  0  0  0
  161.6780  209.2010  156.1220 C   0  0  0  0  0  0  0  0  0  0  0  0
  160.9000  206.9520  155.7160 C   0  0  0  0  0  3  0  0  0  0  0  0
  161.3290  209.6460  154.8870 C   0  0  0  0  0  0  0  0  0  0  0  0
  162.4210  210.0740  157.0780 C   0  0  0  0  0  1  0  0  0  0  0  0
  160.6160  207.3600  154.3440 C   0  0  1  0  0  3  0  0  0  0  0  0
  160.4200  208.7980  154.0280 C   0  0  2  0  0  3  0  0  0  0  0  0
  161.3770  207.8470  156.5340 N   0  0  0  0  0  0  0  0  0  0  0  0
  160.9060  206.6410  153.2750 C   0  0  0  0  0  3  0  0  0  0  0  0
  162.2490  206.2470  146.7810 N   0  0  0  0  0  1  0  0  0  0  0  0
  161.3780  205.5630  148.9760 C   0  0  0  0  0  0  0  0  0  0  0  0
  161.9090  206.5500  148.1310 C   0  0  0  0  0  0  0  0  0  0  0  0
  161.2670  207.2030  150.7610 C   0  0  0  0  0  0  0  0  0  0  0  0
  161.7940  208.1540  149.8810 C   0  0  0  0  0  3  0  0  0  0  0  0
  161.0630  205.8980  150.2940 C   0  0  0  0  0  3  0  0  0  0  0  0
  162.1000  207.8120  148.6010 N   0  0  0  0  0  0  0  0  0  0  0  0
  160.8240  203.2610  149.6760 C   0  0  0  0  0  1  0  0  0  0  0  0
  161.1660  204.1620  148.5050 C   0  0  0  0  0  2  0  0  0  0  0  0
  161.6450  211.0370  154.4310 C   0  0  0  0  0  2  0  0  0  0  0  0
  160.4410  211.6360  153.7140 C   0  0  0  0  0  2  0  0  0  0  0  0
  156.8670  213.4530  154.9380 C   0  0  2  0  0  3  0  0  0  0  0  0
  156.6790  211.9690  154.6710 C   0  0  1  0  0  3  0  0  0  0  0  0
  157.4290  212.2930  156.9630 C   0  0  0  0  0  2  0  0  0  0  0  0
  160.3590  213.1460  156.4480 C   0  0  0  0  0  1  0  0  0  0  0  0
  159.2470  213.1190  155.4110 C   0  0  2  0  0  3  0  0  0  0  0  0
  157.8860  213.4420  156.0610 C   0  0  1  0  0  3  0  0  0  0  0  0
  159.2360  211.7730  154.6410 C   0  0  1  0  0  3  0  0  0  0  0  0
  157.9140  211.5030  153.8830 C   0  0  0  0  0  2  0  0  0  0  0  0
  156.6880  211.3170  156.0540 C   0  0  1  0  0  3  0  0  0  0  0  0
  155.2700  211.1240  156.5550 C   0  0  0  0  0  1  0  0  0  0  0  0
  155.6690  214.0320  155.3700 O   0  0  0  0  0  0  0  0  0  0  0  0
  154.9640  214.3040  154.1970 C   0  0  0  0  0  1  0  0  0  0  0  0
  1  2  1  0  0  0  0
  1 10  2  0  0  0  0
  3  9  1  0  0  0  0
  3  6  1  0  0  0  0
  4  9  2  0  0  0  0
  5  3  2  0  0  0  0
  7 10  1  6  0  0  0
  7  4  1  0  0  0  0
  8  2  1  6  0  0  0
  8  7  1  0  0  0  0
  8  5  1  0  0  0  0
 11 13  1  0  0  0  0
 12 16  1  0  0  0  0
 13 17  1  0  0  0  0
 13 12  2  0  0  0  0
 14  1  1  0  0  0  0
 15 14  1  0  0  0  0
 16 14  2  0  0  0  0
 17 15  2  0  0  0  0
 19 12  1  0  0  0  0
 19 18  1  0  0  0  0
 20  5  1  0  0  0  0
 21 20  1  0  0  0  0
 22 32  1  1  0  0  0
 22 27  1  0  0  0  0
 23 29  1  6  0  0  0
 23 22  1  0  0  0  0
 23 30  1  0  0  0  0
 26 27  1  0  0  0  0
 26 25  1  1  0  0  0
 27 24  1  1  0  0  0
 28 21  1  6  0  0  0
 28 26  1  0  0  0  0
 29 28  1  0  0  0  0
 30 31  1  1  0  0  0
 30 24  1  0  0  0  0
 33 32  1  0  0  0  0
M  END
>  <MODEL>
1

>  <REMARK>
 VINA RESULT:      -8.3      0.000      0.000
  Name = 
  6 active torsions:
  status: ('A' for Active; 'I' for Inactive)
    1  A    between atoms: C_1  and  C_7
    2  A    between atoms: C_3  and  O_10
    3  A    between atoms: C_5  and  C_20
    4  A    between atoms: C_17  and  C_32
    5  A    between atoms: C_19  and  C_25
    6  A    between atoms: C_19  and  C_32
                            x       y       z     vdW  Elec       q    Type
                         _______ _______ _______ _____ _____    ______ ____

>  <TORSDO>
F 6

$$$$
=
 OpenBabel11072412263D

 33 37  0  0  1  0  0  0  0  0999 V2000
  160.8580  206.5050  151.9320 C   0  0  0  0  0  0  0  0  0  0  0  0
  160.5590  207.8010  151.9290 C   0  0  0  0  0  2  0  0  0  0  0  0
  161.8590  209.4650  154.9690 C   0  0  0  0  0  0  0  0  0  0  0  0
  161.3010  207.1690  155.4620 C   0  0  0  0  0  3  0  0  0  0  0  0
  161.3230  209.4260  153.7220 C   0  0  0  0  0  0  0  0  0  0  0  0
  162.6000  210.6650  155.4560 C   0  0  0  0  0  1  0  0  0  0  0  0
  160.8190  207.0520  154.0900 C   0  0  1  0  0  3  0  0  0  0  0  0
  160.4250  208.2720  153.3400 C   0  0  2  0  0  3  0  0  0  0  0  0
  161.7620  208.3230  155.8520 N   0  0  0  0  0  0  0  0  0  0  0  0
  161.0650  206.0260  153.2960 C   0  0  0  0  0  3  0  0  0  0  0  0
  161.6740  203.3120  147.3000 N   0  0  0  0  0  1  0  0  0  0  0  0
  161.5680  205.5350  148.3450 C   0  0  0  0  0  0  0  0  0  0  0  0
  161.4750  204.1380  148.4440 C   0  0  0  0  0  0  0  0  0  0  0  0
  161.0730  205.6990  150.7150 C   0  0  0  0  0  0  0  0  0  0  0  0
  160.9960  204.3030  150.7660 C   0  0  0  0  0  3  0  0  0  0  0  0
  161.3610  206.3100  149.4880 C   0  0  0  0  0  3  0  0  0  0  0  0
  161.1950  203.5610  149.6440 N   0  0  0  0  0  0  0  0  0  0  0  0
  160.6010  206.2860  146.2020 C   0  0  0  0  0  1  0  0  0  0  0  0
  161.8590  206.2100  147.0450 C   0  0  0  0  0  2  0  0  0  0  0  0
  161.4250  210.5890  152.7830 C   0  0  0  0  0  2  0  0  0  0  0  0
  160.0350  210.9990  152.3100 C   0  0  0  0  0  2  0  0  0  0  0  0
  156.7000  212.8950  154.0020 C   0  0  2  0  0  3  0  0  0  0  0  0
  157.5520  212.2110  155.0570 C   0  0  1  0  0  3  0  0  0  0  0  0
  158.4060  214.4530  154.6520 C   0  0  0  0  0  2  0  0  0  0  0  0
  159.6160  214.0580  151.8310 C   0  0  0  0  0  1  0  0  0  0  0  0
  158.6330  213.1210  152.5140 C   0  0  2  0  0  3  0  0  0  0  0  0
  157.6690  213.9080  153.4260 C   0  0  1  0  0  3  0  0  0  0  0  0
  159.3770  211.9880  153.2690 C   0  0  1  0  0  3  0  0  0  0  0  0
  158.4980  211.2560  154.3100 C   0  0  0  0  0  2  0  0  0  0  0  0
  158.3710  213.3360  155.6910 C   0  0  1  0  0  3  0  0  0  0  0  0
  157.6940  213.8320  156.9540 C   0  0  0  0  0  1  0  0  0  0  0  0
  155.6090  213.5410  154.5910 O   0  0  0  0  0  0  0  0  0  0  0  0
  154.8530  214.0120  153.5170 C   0  0  0  0  0  1  0  0  0  0  0  0
  1 10  2  0  0  0  0
  2  1  1  0  0  0  0
  3  6  1  0  0  0  0
  3  9  1  0  0  0  0
  4  9  2  0  0  0  0
  5  3  2  0  0  0  0
  7 10  1  6  0  0  0
  7  4  1  0  0  0  0
  8  2  1  6  0  0  0
  8  5  1  0  0  0  0
  8  7  1  0  0  0  0
 11 13  1  0  0  0  0
 12 13  2  0  0  0  0
 12 16  1  0  0  0  0
 13 17  1  0  0  0  0
 14 15  1  0  0  0  0
 14  1  1  0  0  0  0
 16 14  2  0  0  0  0
 17 15  2  0  0  0  0
 18 19  1  0  0  0  0
 19 12  1  0  0  0  0
 20  5  1  0  0  0  0
 21 20  1  0  0  0  0
 22 32  1  1  0  0  0
 22 23  1  0  0  0  0
 23 29  1  6  0  0  0
 23 30  1  0  0  0  0
 24 30  1  0  0  0  0
 26 25  1  1  0  0  0
 26 28  1  0  0  0  0
 26 27  1  0  0  0  0
 27 22  1  0  0  0  0
 27 24  1  1  0  0  0
 28 21  1  6  0  0  0
 28 29  1  0  0  0  0
 30 31  1  1  0  0  0
 33 32  1  0  0  0  0
M  END
>  <MODEL>
2

>  <REMARK>
 VINA RESULT:      -7.8      1.535      2.309
  Name = 
  6 active torsions:
  status: ('A' for Active; 'I' for Inactive)
    1  A    between atoms: C_1  and  C_7
    2  A    between atoms: C_3  and  O_10
    3  A    between atoms: C_5  and  C_20
    4  A    between atoms: C_17  and  C_32
    5  A    between atoms: C_19  and  C_25
    6  A    between atoms: C_19  and  C_32
                            x       y       z     vdW  Elec       q    Type
                         _______ _______ _______ _____ _____    ______ ____

>  <TORSDO>
F 6

$$$$
=
 OpenBabel11072412263D

 33 37  0  0  1  0  0  0  0  0999 V2000
  161.7300  208.0390  149.8830 C   0  0  0  0  0  0  0  0  0  0  0  0
  161.5130  208.4950  151.1140 C   0  0  0  0  0  2  0  0  0  0  0  0
  160.4900  212.0510  151.0470 C   0  0  0  0  0  0  0  0  0  0  0  0
  161.9670  211.5850  149.1970 C   0  0  0  0  0  3  0  0  0  0  0  0
  160.6720  210.8340  151.6220 C   0  0  0  0  0  0  0  0  0  0  0  0
  159.5010  213.0250  151.5950 C   0  0  0  0  0  1  0  0  0  0  0  0
  162.1000  210.2290  149.7180 C   0  0  1  0  0  3  0  0  0  0  0  0
  161.8100  209.9580  151.1500 C   0  0  2  0  0  3  0  0  0  0  0  0
  161.2220  212.4250  149.8570 N   0  0  0  0  0  0  0  0  0  0  0  0
  162.0640  209.1360  148.9780 C   0  0  0  0  0  3  0  0  0  0  0  0
  160.9850  202.6640  148.1890 N   0  0  0  0  0  1  0  0  0  0  0  0
  161.1460  204.3050  150.0140 C   0  0  0  0  0  0  0  0  0  0  0  0
  161.1680  204.0020  148.6430 C   0  0  0  0  0  0  0  0  0  0  0  0
  161.5350  206.6370  149.4690 C   0  0  0  0  0  0  0  0  0  0  0  0
  161.5440  206.2890  148.1140 C   0  0  0  0  0  3  0  0  0  0  0  0
  161.3350  205.6270  150.4190 C   0  0  0  0  0  3  0  0  0  0  0  0
  161.3630  204.9960  147.7340 N   0  0  0  0  0  0  0  0  0  0  0  0
  160.8340  203.8660  152.4230 C   0  0  0  0  0  1  0  0  0  0  0  0
  160.9480  203.2430  151.0450 C   0  0  0  0  0  2  0  0  0  0  0  0
  159.9130  210.4170  152.8440 C   0  0  0  0  0  2  0  0  0  0  0  0
  160.3780  211.2290  154.0470 C   0  0  0  0  0  2  0  0  0  0  0  0
  157.0540  213.5440  155.1290 C   0  0  2  0  0  3  0  0  0  0  0  0
  156.7000  212.0710  155.0160 C   0  0  1  0  0  3  0  0  0  0  0  0
  157.5360  212.5370  157.2530 C   0  0  0  0  0  2  0  0  0  0  0  0
  160.5280  213.0030  156.6150 C   0  0  0  0  0  1  0  0  0  0  0  0
  159.3950  212.9970  155.6010 C   0  0  2  0  0  3  0  0  0  0  0  0
  158.0930  213.5320  156.2320 C   0  0  1  0  0  3  0  0  0  0  0  0
  159.2190  211.5910  154.9720 C   0  0  1  0  0  3  0  0  0  0  0  0
  157.8570  211.3950  154.2630 C   0  0  0  0  0  2  0  0  0  0  0  0
  156.6710  211.5630  156.4580 C   0  0  1  0  0  3  0  0  0  0  0  0
  155.2530  211.5800  156.9940 C   0  0  0  0  0  1  0  0  0  0  0  0
  155.9380  214.2920  155.5150 O   0  0  0  0  0  0  0  0  0  0  0  0
  155.1940  214.4490  154.3450 C   0  0  0  0  0  1  0  0  0  0  0  0
  1  2  1  0  0  0  0
  3  6  1  0  0  0  0
  3  5  2  0  0  0  0
  4  7  1  0  0  0  0
  4  9  2  0  0  0  0
  5 20  1  0  0  0  0
  7 10  1  6  0  0  0
  7  8  1  0  0  0  0
  8  2  1  6  0  0  0
  8  5  1  0  0  0  0
  9  3  1  0  0  0  0
 10  1  2  0  0  0  0
 11 13  1  0  0  0  0
 12 16  1  0  0  0  0
 12 19  1  0  0  0  0
 13 12  2  0  0  0  0
 14  1  1  0  0  0  0
 14 16  2  0  0  0  0
 15 14  1  0  0  0  0
 17 15  2  0  0  0  0
 17 13  1  0  0  0  0
 19 18  1  0  0  0  0
 20 21  1  0  0  0  0
 22 32  1  1  0  0  0
 22 27  1  0  0  0  0
 23 29  1  6  0  0  0
 23 22  1  0  0  0  0
 23 30  1  0  0  0  0
 26 27  1  0  0  0  0
 26 25  1  1  0  0  0
 27 24  1  1  0  0  0
 28 21  1  6  0  0  0
 28 26  1  0  0  0  0
 29 28  1  0  0  0  0
 30 31  1  1  0  0  0
 30 24  1  0  0  0  0
 33 32  1  0  0  0  0
M  END
>  <MODEL>
3

>  <REMARK>
 VINA RESULT:      -7.5      2.226      3.356
  Name = 
  6 active torsions:
  status: ('A' for Active; 'I' for Inactive)
    1  A    between atoms: C_1  and  C_7
    2  A    between atoms: C_3  and  O_10
    3  A    between atoms: C_5  and  C_20
    4  A    between atoms: C_17  and  C_32
    5  A    between atoms: C_19  and  C_25
    6  A    between atoms: C_19  and  C_32
                            x       y       z     vdW  Elec       q    Type
                         _______ _______ _______ _____ _____    ______ ____

>  <TORSDO>
F 6

$$$$
=
 OpenBabel11072412263D

 33 37  0  0  1  0  0  0  0  0999 V2000
  161.9530  209.0350  150.0170 C   0  0  0  0  0  0  0  0  0  0  0  0
  161.9210  210.0550  150.8700 C   0  0  0  0  0  2  0  0  0  0  0  0
  160.4000  213.0430  149.3040 C   0  0  0  0  0  0  0  0  0  0  0  0
  161.5320  211.7240  147.6300 C   0  0  0  0  0  3  0  0  0  0  0  0
  160.8670  212.3010  150.3410 C   0  0  0  0  0  0  0  0  0  0  0  0
  159.4090  214.1380  149.5200 C   0  0  0  0  0  1  0  0  0  0  0  0
  161.9610  210.8340  148.7040 C   0  0  1  0  0  3  0  0  0  0  0  0
  162.0040  211.3340  150.1030 C   0  0  2  0  0  3  0  0  0  0  0  0
  160.8190  212.7670  147.9470 N   0  0  0  0  0  0  0  0  0  0  0  0
  161.9380  209.5160  148.6370 C   0  0  0  0  0  3  0  0  0  0  0  0
  161.7350  203.5900  151.6350 N   0  0  0  0  0  1  0  0  0  0  0  0
  161.3560  205.3020  149.9110 C   0  0  0  0  0  0  0  0  0  0  0  0
  161.7790  204.9470  151.2020 C   0  0  0  0  0  0  0  0  0  0  0  0
  161.8860  207.6160  150.4130 C   0  0  0  0  0  0  0  0  0  0  0  0
  162.3020  207.2140  151.6870 C   0  0  0  0  0  3  0  0  0  0  0  0
  161.4090  206.6430  149.5260 C   0  0  0  0  0  3  0  0  0  0  0  0
  162.2400  205.9050  152.0510 N   0  0  0  0  0  0  0  0  0  0  0  0
  161.5950  204.3510  147.6450 C   0  0  0  0  0  1  0  0  0  0  0  0
  160.8300  204.2840  148.9530 C   0  0  0  0  0  2  0  0  0  0  0  0
  160.4350  212.5570  151.7520 C   0  0  0  0  0  2  0  0  0  0  0  0
  159.7720  211.3120  152.3280 C   0  0  0  0  0  2  0  0  0  0  0  0
  159.8370  209.0280  155.8430 C   0  0  2  0  0  3  0  0  0  0  0  0
  161.2340  209.2390  155.2850 C   0  0  1  0  0  3  0  0  0  0  0  0
  160.6400  211.1130  156.7180 C   0  0  0  0  0  2  0  0  0  0  0  0
  158.5190  212.4930  154.9350 C   0  0  0  0  0  1  0  0  0  0  0  0
  159.0390  211.0750  154.7600 C   0  0  2  0  0  3  0  0  0  0  0  0
  159.3940  210.4500  156.1250 C   0  0  1  0  0  3  0  0  0  0  0  0
  160.2240  211.0360  153.7600 C   0  0  1  0  0  3  0  0  0  0  0  0
  161.0620  209.7370  153.8410 C   0  0  0  0  0  2  0  0  0  0  0  0
  161.8320  210.3590  156.1370 C   0  0  1  0  0  3  0  0  0  0  0  0
  162.6680  209.7770  157.2610 C   0  0  0  0  0  1  0  0  0  0  0  0
  159.8850  208.2860  157.0280 O   0  0  0  0  0  0  0  0  0  0  0  0
  160.0810  206.9680  156.6140 C   0  0  0  0  0  1  0  0  0  0  0  0
  1 14  1  0  0  0  0
  1  2  1  0  0  0  0
  3  6  1  0  0  0  0
  3  5  2  0  0  0  0
  4  9  2  0  0  0  0
  5 20  1  0  0  0  0
  7  4  1  1  0  0  0
  7  8  1  0  0  0  0
  8  5  1  0  0  0  0
  8  2  1  1  0  0  0
  9  3  1  0  0  0  0
 10  7  1  0  0  0  0
 10  1  2  0  0  0  0
 12 13  1  0  0  0  0
 13 11  1  0  0  0  0
 13 17  2  0  0  0  0
 14 15  2  0  0  0  0
 15 17  1  0  0  0  0
 16 12  2  0  0  0  0
 16 14  1  0  0  0  0
 18 19  1  0  0  0  0
 19 12  1  0  0  0  0
 20 21  1  0  0  0  0
 22 27  1  0  0  0  0
 22 32  1  1  0  0  0
 23 29  1  6  0  0  0
 23 22  1  0  0  0  0
 23 30  1  0  0  0  0
 26 25  1  1  0  0  0
 26 27  1  0  0  0  0
 27 24  1  6  0  0  0
 28 21  1  6  0  0  0
 28 29  1  0  0  0  0
 28 26  1  0  0  0  0
 30 24  1  0  0  0  0
 30 31  1  1  0  0  0
 33 32  1  0  0  0  0
M  END
>  <MODEL>
4

>  <REMARK>
 VINA RESULT:      -7.2      2.807      5.196
  Name = 
  6 active torsions:
  status: ('A' for Active; 'I' for Inactive)
    1  A    between atoms: C_1  and  C_7
    2  A    between atoms: C_3  and  O_10
    3  A    between atoms: C_5  and  C_20
    4  A    between atoms: C_17  and  C_32
    5  A    between atoms: C_19  and  C_25
    6  A    between atoms: C_19  and  C_32
                            x       y       z     vdW  Elec       q    Type
                         _______ _______ _______ _____ _____    ______ ____

>  <TORSDO>
F 6

$$$$
=
 OpenBabel11072412263D

 33 37  0  0  1  0  0  0  0  0999 V2000
  161.7720  207.4590  149.8240 C   0  0  0  0  0  0  0  0  0  0  0  0
  161.9830  208.1680  150.9300 C   0  0  0  0  0  2  0  0  0  0  0  0
  161.1750  211.7380  150.3890 C   0  0  0  0  0  0  0  0  0  0  0  0
  161.9570  210.7510  148.3310 C   0  0  0  0  0  3  0  0  0  0  0  0
  161.4680  210.6430  151.1360 C   0  0  0  0  0  0  0  0  0  0  0  0
  160.4640  212.9110  150.9790 C   0  0  0  0  0  1  0  0  0  0  0  0
  162.1800  209.5160  149.0750 C   0  0  1  0  0  3  0  0  0  0  0  0
  162.3500  209.5650  150.5500 C   0  0  2  0  0  3  0  0  0  0  0  0
  161.5060  211.7850  148.9810 N   0  0  0  0  0  0  0  0  0  0  0  0
  161.8540  208.3120  148.6410 C   0  0  0  0  0  3  0  0  0  0  0  0
  160.2500  201.9820  149.8650 N   0  0  0  0  0  1  0  0  0  0  0  0
  161.1800  203.9110  148.6560 C   0  0  0  0  0  0  0  0  0  0  0  0
  160.6410  203.3520  149.8260 C   0  0  0  0  0  0  0  0  0  0  0  0
  161.3830  206.0360  149.8090 C   0  0  0  0  0  0  0  0  0  0  0  0
  160.8480  205.4340  150.9530 C   0  0  0  0  0  3  0  0  0  0  0  0
  161.5450  205.2590  148.6560 C   0  0  0  0  0  3  0  0  0  0  0  0
  160.4920  204.1220  150.9370 N   0  0  0  0  0  0  0  0  0  0  0  0
  161.5790  204.0200  146.2220 C   0  0  0  0  0  1  0  0  0  0  0  0
  161.3470  203.1060  147.4100 C   0  0  0  0  0  2  0  0  0  0  0  0
  161.1200  210.5650  152.5910 C   0  0  0  0  0  2  0  0  0  0  0  0
  159.7010  210.0330  152.7590 C   0  0  0  0  0  2  0  0  0  0  0  0
  159.2770  213.0960  155.5900 C   0  0  2  0  0  3  0  0  0  0  0  0
  158.1050  213.0580  154.6240 C   0  0  1  0  0  3  0  0  0  0  0  0
  157.6860  211.5290  156.4700 C   0  0  0  0  0  2  0  0  0  0  0  0
  159.7410  209.3140  155.7990 C   0  0  0  0  0  1  0  0  0  0  0  0
  159.7280  210.7180  155.2160 C   0  0  2  0  0  3  0  0  0  0  0  0
  159.1870  211.7320  156.2450 C   0  0  1  0  0  3  0  0  0  0  0  0
  158.9510  210.7560  153.8750 C   0  0  1  0  0  3  0  0  0  0  0  0
  158.5390  212.1820  153.4370 C   0  0  0  0  0  2  0  0  0  0  0  0
  156.9870  212.3500  155.3910 C   0  0  1  0  0  3  0  0  0  0  0  0
  156.0660  213.3670  156.0360 C   0  0  0  0  0  1  0  0  0  0  0  0
  159.1020  214.1080  156.5400 O   0  0  0  0  0  0  0  0  0  0  0  0
  160.3050  214.1440  157.2450 C   0  0  0  0  0  1  0  0  0  0  0  0
  1  2  1  0  0  0  0
  3  6  1  0  0  0  0
  3  5  2  0  0  0  0
  4  9  2  0  0  0  0
  5 20  1  0  0  0  0
  7  4  1  1  0  0  0
  7  8  1  0  0  0  0
  8  2  1  1  0  0  0
  8  5  1  0  0  0  0
  9  3  1  0  0  0  0
 10  7  1  0  0  0  0
 10  1  2  0  0  0  0
 12 16  2  0  0  0  0
 12 13  1  0  0  0  0
 13 11  1  0  0  0  0
 13 17  2  0  0  0  0
 14  1  1  0  0  0  0
 14 15  2  0  0  0  0
 16 14  1  0  0  0  0
 17 15  1  0  0  0  0
 18 19  1  0  0  0  0
 19 12  1  0  0  0  0
 20 21  1  0  0  0  0
 22 27  1  0  0  0  0
 22 32  1  1  0  0  0
 23 29  1  6  0  0  0
 23 30  1  0  0  0  0
 23 22  1  0  0  0  0
 26 25  1  1  0  0  0
 26 27  1  0  0  0  0
 27 24  1  6  0  0  0
 28 21  1  6  0  0  0
 28 26  1  0  0  0  0
 29 28  1  0  0  0  0
 30 31  1  1  0  0  0
 30 24  1  0  0  0  0
 32 33  1  0  0  0  0
M  END
>  <MODEL>
5

>  <REMARK>
 VINA RESULT:      -7.1      2.336      4.048
  Name = 
  6 active torsions:
  status: ('A' for Active; 'I' for Inactive)
    1  A    between atoms: C_1  and  C_7
    2  A    between atoms: C_3  and  O_10
    3  A    between atoms: C_5  and  C_20
    4  A    between atoms: C_17  and  C_32
    5  A    between atoms: C_19  and  C_25
    6  A    between atoms: C_19  and  C_32
                            x       y       z     vdW  Elec       q    Type
                         _______ _______ _______ _____ _____    ______ ____

>  <TORSDO>
F 6

$$$$
=
 OpenBabel11072412263D

 33 37  0  0  1  0  0  0  0  0999 V2000
  159.8420  210.3930  153.5070 C   0  0  0  0  0  0  0  0  0  0  0  0
  160.9050  210.1210  152.7550 C   0  0  0  0  0  2  0  0  0  0  0  0
  161.8160  206.5420  152.9920 C   0  0  0  0  0  0  0  0  0  0  0  0
  160.8270  207.2790  155.0670 C   0  0  0  0  0  3  0  0  0  0  0  0
  161.8670  207.7920  152.4630 C   0  0  0  0  0  0  0  0  0  0  0  0
  162.1940  205.3440  152.1860 C   0  0  0  0  0  1  0  0  0  0  0  0
  160.7580  208.6180  154.4920 C   0  0  1  0  0  3  0  0  0  0  0  0
  161.6560  208.9850  153.3670 C   0  0  2  0  0  3  0  0  0  0  0  0
  161.3520  206.3290  154.3460 N   0  0  0  0  0  0  0  0  0  0  0  0
  159.7140  209.4200  154.5890 C   0  0  0  0  0  3  0  0  0  0  0  0
  156.0090  214.4530  152.4400 N   0  0  0  0  0  1  0  0  0  0  0  0
  158.0480  213.2430  151.7860 C   0  0  0  0  0  0  0  0  0  0  0  0
  156.9840  213.4420  152.6810 C   0  0  0  0  0  0  0  0  0  0  0  0
  158.8610  211.4530  153.2080 C   0  0  0  0  0  0  0  0  0  0  0  0
  157.7820  211.6850  154.0680 C   0  0  0  0  0  3  0  0  0  0  0  0
  158.9860  212.2470  152.0610 C   0  0  0  0  0  3  0  0  0  0  0  0
  156.8780  212.6620  153.7910 N   0  0  0  0  0  0  0  0  0  0  0  0
  157.4530  213.4740  149.4010 C   0  0  0  0  0  1  0  0  0  0  0  0
  158.2090  214.0860  150.5640 C   0  0  0  0  0  2  0  0  0  0  0  0
  162.3270  208.0360  151.0590 C   0  0  0  0  0  2  0  0  0  0  0  0
  161.2060  207.7120  150.0790 C   0  0  0  0  0  2  0  0  0  0  0  0
  160.8660  205.6610  146.4380 C   0  0  2  0  0  3  0  0  0  0  0  0
  162.2740  206.1870  146.6560 C   0  0  1  0  0  3  0  0  0  0  0  0
  162.0500  204.0050  147.7100 C   0  0  0  0  0  2  0  0  0  0  0  0
  160.2120  204.7500  150.0860 C   0  0  0  0  0  1  0  0  0  0  0  0
  160.4570  205.6040  148.8530 C   0  0  2  0  0  3  0  0  0  0  0  0
  160.6980  204.7180  147.6130 C   0  0  1  0  0  3  0  0  0  0  0  0
  161.6070  206.6160  149.0960 C   0  0  1  0  0  3  0  0  0  0  0  0
  162.1890  207.2180  147.7940 C   0  0  0  0  0  2  0  0  0  0  0  0
  163.0760  204.9760  147.1330 C   0  0  1  0  0  3  0  0  0  0  0  0
  163.7960  204.3280  145.9660 C   0  0  0  0  0  1  0  0  0  0  0  0
  160.7820  204.9600  145.2310 O   0  0  0  0  0  0  0  0  0  0  0  0
  161.0540  205.9120  144.2480 C   0  0  0  0  0  1  0  0  0  0  0  0
  1 10  2  0  0  0  0
  2  1  1  0  0  0  0
  3  9  1  0  0  0  0
  5  3  2  0  0  0  0
  5  8  1  0  0  0  0
  6  3  1  0  0  0  0
  7 10  1  6  0  0  0
  7  4  1  0  0  0  0
  8  2  1  6  0  0  0
  8  7  1  0  0  0  0
  9  4  2  0  0  0  0
 11 13  1  0  0  0  0
 12 16  2  0  0  0  0
 12 13  1  0  0  0  0
 13 17  2  0  0  0  0
 14  1  1  0  0  0  0
 14 15  2  0  0  0  0
 16 14  1  0  0  0  0
 17 15  1  0  0  0  0
 18 19  1  0  0  0  0
 19 12  1  0  0  0  0
 20  5  1  0  0  0  0
 21 20  1  0  0  0  0
 22 32  1  6  0  0  0
 22 23  1  0  0  0  0
 22 27  1  0  0  0  0
 23 30  1  0  0  0  0
 23 29  1  1  0  0  0
 26 28  1  0  0  0  0
 26 25  1  1  0  0  0
 27 24  1  1  0  0  0
 27 26  1  0  0  0  0
 28 21  1  1  0  0  0
 29 28  1  0  0  0  0
 30 31  1  6  0  0  0
 30 24  1  0  0  0  0
 33 32  1  0  0  0  0
M  END
>  <MODEL>
6

>  <REMARK>
 VINA RESULT:      -7.0      3.831      8.981
  Name = 
  6 active torsions:
  status: ('A' for Active; 'I' for Inactive)
    1  A    between atoms: C_1  and  C_7
    2  A    between atoms: C_3  and  O_10
    3  A    between atoms: C_5  and  C_20
    4  A    between atoms: C_17  and  C_32
    5  A    between atoms: C_19  and  C_25
    6  A    between atoms: C_19  and  C_32
                            x       y       z     vdW  Elec       q    Type
                         _______ _______ _______ _____ _____    ______ ____

>  <TORSDO>
F 6

$$$$
=
 OpenBabel11072412263D

 33 37  0  0  1  0  0  0  0  0999 V2000
  161.5170  211.2180  150.5820 C   0  0  0  0  0  0  0  0  0  0  0  0
  162.2420  210.1030  150.5990 C   0  0  0  0  0  2  0  0  0  0  0  0
  161.1720  207.8710  153.3500 C   0  0  0  0  0  0  0  0  0  0  0  0
  160.8240  210.1750  153.9780 C   0  0  0  0  0  3  0  0  0  0  0  0
  161.8360  208.1830  152.2070 C   0  0  0  0  0  0  0  0  0  0  0  0
  160.8280  206.4570  153.6830 C   0  0  0  0  0  1  0  0  0  0  0  0
  161.4290  210.5530  152.7050 C   0  0  1  0  0  3  0  0  0  0  0  0
  162.3250  209.5990  152.0020 C   0  0  2  0  0  3  0  0  0  0  0  0
  160.7380  208.9070  154.2620 N   0  0  0  0  0  0  0  0  0  0  0  0
  160.9610  211.4930  151.9050 C   0  0  0  0  0  3  0  0  0  0  0  0
  160.4390  214.1780  145.8500 N   0  0  0  0  0  1  0  0  0  0  0  0
  159.8250  213.5720  148.1530 C   0  0  0  0  0  0  0  0  0  0  0  0
  160.6840  213.4490  147.0490 C   0  0  0  0  0  0  0  0  0  0  0  0
  161.2150  211.9950  149.3650 C   0  0  0  0  0  0  0  0  0  0  0  0
  162.0460  211.9090  148.2430 C   0  0  0  0  0  3  0  0  0  0  0  0
  160.0970  212.8360  149.3080 C   0  0  0  0  0  3  0  0  0  0  0  0
  161.7670  212.6280  147.1230 N   0  0  0  0  0  0  0  0  0  0  0  0
  157.3790  213.6240  147.8240 C   0  0  0  0  0  1  0  0  0  0  0  0
  158.6180  214.4500  148.1090 C   0  0  0  0  0  2  0  0  0  0  0  0
  162.2790  207.1300  151.2390 C   0  0  0  0  0  2  0  0  0  0  0  0
  161.1870  206.8790  150.2060 C   0  0  0  0  0  2  0  0  0  0  0  0
  160.8500  205.1830  146.3870 C   0  0  2  0  0  3  0  0  0  0  0  0
  162.1650  205.9230  146.5580 C   0  0  1  0  0  3  0  0  0  0  0  0
  162.4080  203.6390  147.3630 C   0  0  0  0  0  2  0  0  0  0  0  0
  160.7050  203.8030  149.9420 C   0  0  0  0  0  1  0  0  0  0  0  0
  160.6870  204.8090  148.8020 C   0  0  2  0  0  3  0  0  0  0  0  0
  160.9530  204.1100  147.4530 C   0  0  1  0  0  3  0  0  0  0  0  0
  161.6710  205.9760  149.0740 C   0  0  1  0  0  3  0  0  0  0  0  0
  162.0180  206.8010  147.8110 C   0  0  0  0  0  2  0  0  0  0  0  0
  163.1990  204.8290  146.8280 C   0  0  1  0  0  3  0  0  0  0  0  0
  163.9030  204.4400  145.5420 C   0  0  0  0  0  1  0  0  0  0  0  0
  160.7710  204.6040  145.1160 O   0  0  0  0  0  0  0  0  0  0  0  0
  161.0260  205.6530  144.2320 C   0  0  0  0  0  1  0  0  0  0  0  0
  1  2  1  0  0  0  0
  1 10  2  0  0  0  0
  3  6  1  0  0  0  0
  3  9  1  0  0  0  0
  4  9  2  0  0  0  0
  5  3  2  0  0  0  0
  7 10  1  6  0  0  0
  7  4  1  0  0  0  0
  8  2  1  6  0  0  0
  8  5  1  0  0  0  0
  8  7  1  0  0  0  0
 11 13  1  0  0  0  0
 12 16  1  0  0  0  0
 13 17  1  0  0  0  0
 13 12  2  0  0  0  0
 14  1  1  0  0  0  0
 15 14  1  0  0  0  0
 16 14  2  0  0  0  0
 17 15  2  0  0  0  0
 18 19  1  0  0  0  0
 19 12  1  0  0  0  0
 20  5  1  0  0  0  0
 21 20  1  0  0  0  0
 22 32  1  6  0  0  0
 22 23  1  0  0  0  0
 22 27  1  0  0  0  0
 23 30  1  0  0  0  0
 23 29  1  1  0  0  0
 26 28  1  0  0  0  0
 26 25  1  1  0  0  0
 27 24  1  1  0  0  0
 27 26  1  0  0  0  0
 28 21  1  1  0  0  0
 29 28  1  0  0  0  0
 30 31  1  6  0  0  0
 30 24  1  0  0  0  0
 33 32  1  0  0  0  0
M  END
>  <MODEL>
7

>  <REMARK>
 VINA RESULT:      -7.0      4.250      8.911
  Name = 
  6 active torsions:
  status: ('A' for Active; 'I' for Inactive)
    1  A    between atoms: C_1  and  C_7
    2  A    between atoms: C_3  and  O_10
    3  A    between atoms: C_5  and  C_20
    4  A    between atoms: C_17  and  C_32
    5  A    between atoms: C_19  and  C_25
    6  A    between atoms: C_19  and  C_32
                            x       y       z     vdW  Elec       q    Type
                         _______ _______ _______ _____ _____    ______ ____

>  <TORSDO>
F 6

$$$$
=
 OpenBabel11072412263D

 33 37  0  0  1  0  0  0  0  0999 V2000
  160.8330  208.6280  152.9000 C   0  0  0  0  0  0  0  0  0  0  0  0
  161.1010  208.4000  151.6170 C   0  0  0  0  0  2  0  0  0  0  0  0
  160.8690  204.7900  150.8380 C   0  0  0  0  0  0  0  0  0  0  0  0
  161.5810  205.0940  153.1240 C   0  0  0  0  0  3  0  0  0  0  0  0
  160.9600  206.1100  150.5340 C   0  0  0  0  0  0  0  0  0  0  0  0
  160.3200  203.8060  149.8590 C   0  0  0  0  0  1  0  0  0  0  0  0
  161.5820  206.5310  152.8720 C   0  0  1  0  0  3  0  0  0  0  0  0
  161.6920  207.0360  151.4790 C   0  0  2  0  0  3  0  0  0  0  0  0
  161.2650  204.3000  152.1410 N   0  0  0  0  0  0  0  0  0  0  0  0
  161.0950  207.4360  153.7010 C   0  0  0  0  0  3  0  0  0  0  0  0
  158.5390  213.3940  154.9830 N   0  0  0  0  0  1  0  0  0  0  0  0
  159.1640  212.0190  153.0430 C   0  0  0  0  0  0  0  0  0  0  0  0
  159.1080  212.2090  154.4320 C   0  0  0  0  0  0  0  0  0  0  0  0
  160.2340  209.8730  153.4160 C   0  0  0  0  0  0  0  0  0  0  0  0
  160.1500  210.1040  154.7930 C   0  0  0  0  0  3  0  0  0  0  0  0
  159.7350  210.8480  152.5420 C   0  0  0  0  0  3  0  0  0  0  0  0
  159.5970  211.2520  155.2670 N   0  0  0  0  0  0  0  0  0  0  0  0
  159.7070  213.3730  151.0510 C   0  0  0  0  0  1  0  0  0  0  0  0
  158.6520  213.0500  152.0920 C   0  0  0  0  0  2  0  0  0  0  0  0
  160.5410  206.6430  149.1990 C   0  0  0  0  0  2  0  0  0  0  0  0
  161.7660  207.0840  148.4060 C   0  0  0  0  0  2  0  0  0  0  0  0
  160.5790  204.1910  145.6140 C   0  0  2  0  0  3  0  0  0  0  0  0
  160.3870  205.5990  145.0790 C   0  0  1  0  0  3  0  0  0  0  0  0
  162.6590  204.8600  144.6210 C   0  0  0  0  0  2  0  0  0  0  0  0
  163.8230  204.9180  147.4890 C   0  0  0  0  0  1  0  0  0  0  0  0
  162.3460  204.9530  147.1300 C   0  0  2  0  0  3  0  0  0  0  0  0
  162.0770  204.1450  145.8440 C   0  0  1  0  0  3  0  0  0  0  0  0
  161.8300  206.4120  147.0370 C   0  0  1  0  0  3  0  0  0  0  0  0
  160.4840  206.5470  146.2850 C   0  0  0  0  0  2  0  0  0  0  0  0
  161.5820  205.8350  144.1550 C   0  0  1  0  0  3  0  0  0  0  0  0
  161.2050  205.5340  142.7180 C   0  0  0  0  0  1  0  0  0  0  0  0
  160.2010  203.2430  144.6570 O   0  0  0  0  0  0  0  0  0  0  0  0
  160.4530  202.0100  145.2610 C   0  0  0  0  0  1  0  0  0  0  0  0
  1 14  1  0  0  0  0
  1 10  2  0  0  0  0
  2  1  1  0  0  0  0
  3  9  1  0  0  0  0
  5  3  2  0  0  0  0
  5  8  1  0  0  0  0
  6  3  1  0  0  0  0
  7  4  1  6  0  0  0
  7 10  1  0  0  0  0
  8  2  1  1  0  0  0
  8  7  1  0  0  0  0
  9  4  2  0  0  0  0
 12 13  1  0  0  0  0
 13 11  1  0  0  0  0
 13 17  2  0  0  0  0
 14 15  2  0  0  0  0
 15 17  1  0  0  0  0
 16 12  2  0  0  0  0
 16 14  1  0  0  0  0
 18 19  1  0  0  0  0
 19 12  1  0  0  0  0
 20  5  1  0  0  0  0
 21 20  1  0  0  0  0
 22 32  1  6  0  0  0
 22 27  1  0  0  0  0
 23 22  1  0  0  0  0
 23 29  1  1  0  0  0
 26 25  1  6  0  0  0
 27 24  1  6  0  0  0
 27 26  1  0  0  0  0
 28 26  1  0  0  0  0
 28 21  1  1  0  0  0
 29 28  1  0  0  0  0
 30 31  1  6  0  0  0
 30 24  1  0  0  0  0
 30 23  1  0  0  0  0
 32 33  1  0  0  0  0
M  END
>  <MODEL>
8

>  <REMARK>
 VINA RESULT:      -6.9      3.874      9.821
  Name = 
  6 active torsions:
  status: ('A' for Active; 'I' for Inactive)
    1  A    between atoms: C_1  and  C_7
    2  A    between atoms: C_3  and  O_10
    3  A    between atoms: C_5  and  C_20
    4  A    between atoms: C_17  and  C_32
    5  A    between atoms: C_19  and  C_25
    6  A    between atoms: C_19  and  C_32
                            x       y       z     vdW  Elec       q    Type
                         _______ _______ _______ _____ _____    ______ ____

>  <TORSDO>
F 6

$$$$
=
 OpenBabel11072412263D

 33 37  0  0  1  0  0  0  0  0999 V2000
  161.0970  206.7910  150.9290 C   0  0  0  0  0  0  0  0  0  0  0  0
  160.4990  207.9640  151.1130 C   0  0  0  0  0  2  0  0  0  0  0  0
  161.4970  209.4660  154.3450 C   0  0  0  0  0  0  0  0  0  0  0  0
  161.5250  207.0580  154.5130 C   0  0  0  0  0  3  0  0  0  0  0  0
  160.9310  209.4680  153.1110 C   0  0  0  0  0  0  0  0  0  0  0  0
  161.9510  210.7320  154.9910 C   0  0  0  0  0  1  0  0  0  0  0  0
  161.0240  207.0150  153.1430 C   0  0  1  0  0  3  0  0  0  0  0  0
  160.3180  208.1930  152.5780 C   0  0  2  0  0  3  0  0  0  0  0  0
  161.7150  208.2260  155.0580 N   0  0  0  0  0  0  0  0  0  0  0  0
  161.4730  206.1970  152.2090 C   0  0  0  0  0  3  0  0  0  0  0  0
  162.4650  204.7320  145.8100 N   0  0  0  0  0  1  0  0  0  0  0  0
  161.5330  204.3700  148.0560 C   0  0  0  0  0  0  0  0  0  0  0  0
  162.1110  205.2210  147.1010 C   0  0  0  0  0  0  0  0  0  0  0  0
  161.4440  206.2330  149.6080 C   0  0  0  0  0  0  0  0  0  0  0  0
  162.0180  207.0440  148.6220 C   0  0  0  0  0  3  0  0  0  0  0  0
  161.2060  204.8850  149.3110 C   0  0  0  0  0  3  0  0  0  0  0  0
  162.3350  206.5280  147.4050 N   0  0  0  0  0  0  0  0  0  0  0  0
  160.7360  202.2330  149.0000 C   0  0  0  0  0  1  0  0  0  0  0  0
  161.2830  202.9260  147.7680 C   0  0  0  0  0  2  0  0  0  0  0  0
  160.7110  210.7360  152.3460 C   0  0  0  0  0  2  0  0  0  0  0  0
  161.7280  210.8460  151.2150 C   0  0  0  0  0  2  0  0  0  0  0  0
  161.8970  213.5620  148.0260 C   0  0  2  0  0  3  0  0  0  0  0  0
  161.6290  212.1470  147.5440 C   0  0  1  0  0  3  0  0  0  0  0  0
  159.5230  213.2200  148.1210 C   0  0  0  0  0  2  0  0  0  0  0  0
  159.7980  213.3040  151.2030 C   0  0  0  0  0  1  0  0  0  0  0  0
  160.9290  213.0540  150.2180 C   0  0  2  0  0  3  0  0  0  0  0  0
  160.6910  213.8270  148.9040 C   0  0  1  0  0  3  0  0  0  0  0  0
  161.1400  211.5350  149.9860 C   0  0  1  0  0  3  0  0  0  0  0  0
  161.9630  211.2100  148.7170 C   0  0  0  0  0  2  0  0  0  0  0  0
  160.1240  212.1010  147.2760 C   0  0  1  0  0  3  0  0  0  0  0  0
  159.8430  212.3590  145.8080 C   0  0  0  0  0  1  0  0  0  0  0  0
  161.9240  214.4530  146.9480 O   0  0  0  0  0  0  0  0  0  0  0  0
  162.9710  214.0040  146.1420 C   0  0  0  0  0  1  0  0  0  0  0  0
  1  2  1  0  0  0  0
  1 10  2  0  0  0  0
  3  6  1  0  0  0  0
  3  9  1  0  0  0  0
  4  9  2  0  0  0  0
  5  3  2  0  0  0  0
  7 10  1  6  0  0  0
  7  4  1  0  0  0  0
  8  2  1  6  0  0  0
  8  5  1  0  0  0  0
  8  7  1  0  0  0  0
 11 13  1  0  0  0  0
 12 16  1  0  0  0  0
 13 17  1  0  0  0  0
 13 12  2  0  0  0  0
 14  1  1  0  0  0  0
 15 14  1  0  0  0  0
 16 14  2  0  0  0  0
 17 15  2  0  0  0  0
 19 12  1  0  0  0  0
 19 18  1  0  0  0  0
 20  5  1  0  0  0  0
 21 20  1  0  0  0  0
 22 32  1  6  0  0  0
 22 27  1  0  0  0  0
 23 22  1  0  0  0  0
 23 29  1  1  0  0  0
 26 25  1  1  0  0  0
 27 24  1  6  0  0  0
 27 26  1  0  0  0  0
 28 26  1  0  0  0  0
 28 21  1  1  0  0  0
 29 28  1  0  0  0  0
 30 31  1  6  0  0  0
 30 23  1  0  0  0  0
 30 24  1  0  0  0  0
 33 32  1  0  0  0  0
M  END
>  <MODEL>
9

>  <REMARK>
 VINA RESULT:      -6.8      3.553      5.357
  Name = 
  6 active torsions:
  status: ('A' for Active; 'I' for Inactive)
    1  A    between atoms: C_1  and  C_7
    2  A    between atoms: C_3  and  O_10
    3  A    between atoms: C_5  and  C_20
    4  A    between atoms: C_17  and  C_32
    5  A    between atoms: C_19  and  C_25
    6  A    between atoms: C_19  and  C_32
                            x       y       z     vdW  Elec       q    Type
                         _______ _______ _______ _____ _____    ______ ____

>  <TORSDO>
F 6

$$$$
