=
 OpenBabel11072410023D

 55 62  0  0  1  0  0  0  0  0999 V2000
  161.6990  209.9740  152.2640 C   0  0  1  0  0  3  0  0  0  0  0  0
  160.5430  210.3560  153.1970 C   0  0  1  0  0  3  0  0  0  0  0  0
  162.2910  210.4290  154.8390 O   0  0  0  0  0  1  0  0  0  0  0  0
  160.9230  210.5830  154.6030 C   0  0  1  0  0  3  0  0  0  0  0  0
  160.7100  211.7310  153.7010 N   0  0  2  0  0  0  0  0  0  0  0  0
  159.3610  212.2500  153.9030 C   0  0  1  0  0  3  0  0  0  0  0  0
  159.2610  213.7160  153.5060 C   0  0  0  0  0  2  0  0  0  0  0  0
  158.7820  212.6460  152.5570 C   0  0  2  0  0  3  0  0  0  0  0  0
  157.2660  212.5520  152.6290 C   0  0  0  0  0  2  0  0  0  0  0  0
  156.7720  213.1480  153.9370 C   0  0  0  0  0  1  0  0  0  0  0  0
  161.8650  208.4540  152.0530 C   0  0  0  0  0  2  0  0  0  0  0  0
  160.6930  207.7300  152.3030 O   0  0  0  0  0  0  0  0  0  0  0  0
  162.8350  205.9970  152.6540 O   0  0  0  0  0  0  0  0  0  0  0  0
  161.1970  206.2550  152.9830 P   0  0  1  0  0  0  0  0  0  0  0  0
  161.0120  206.3120  154.4840 O   0  0  0  0  0  1  0  0  0  0  0  0
  160.2790  204.9660  152.2920 O   0  0  0  0  0  0  0  0  0  0  0  0
  161.2880  202.9090  152.2020 O   0  0  0  0  0  0  0  0  0  0  0  0
  160.8470  203.9090  151.5740 C   0  0  0  0  0  0  0  0  0  0  0  0
  160.9110  203.9240  150.0740 C   0  0  0  0  0  2  0  0  0  0  0  0
  159.5820  201.9440  149.2890 C   0  0  0  0  0  1  0  0  0  0  0  0
  160.9770  202.5180  149.4670 C   0  0  1  0  0  3  0  0  0  0  0  0
  161.6120  202.6170  148.0860 C   0  0  0  0  0  2  0  0  0  0  0  0
  161.1590  201.5350  147.1500 C   0  0  0  0  0  0  0  0  0  0  0  0
  161.2770  200.3560  147.4460 O   0  0  0  0  0  0  0  0  0  0  0  0
  160.5130  201.9970  145.5390 S   0  0  0  0  0  0  0  0  0  0  0  0
  162.3640  203.8680  145.1270 O   0  0  0  0  0  0  0  0  0  0  0  0
  160.1900  204.5880  144.9200 O   0  0  0  0  0  0  0  0  0  0  0  0
  161.0030  205.6760  144.6040 C   0  0  0  0  0  2  0  0  0  0  0  0
  161.0580  203.7360  145.6160 C   0  0  0  0  0  3  0  0  0  0  0  0
  162.4250  205.1990  144.7210 C   0  0  0  0  0  2  0  0  0  0  0  0
  161.5410  210.6730  150.9120 C   0  0  0  0  0  2  0  0  0  0  0  0
  162.4750  210.8110  148.5160 C   0  0  2  0  0  3  0  0  0  0  0  0
  161.5920  209.5890  148.6590 C   0  0  0  0  0  2  0  0  0  0  0  0
  162.4240  210.0380  149.8420 C   0  0  2  0  0  3  0  0  0  0  0  0
  161.6210  213.9570  146.8950 C   0  0  2  0  0  3  0  0  0  0  0  0
  162.4850  213.2010  147.8810 C   0  0  0  0  0  2  0  0  0  0  0  0
  159.5370  212.9220  147.6070 O   0  0  0  0  0  0  0  0  0  0  0  0
  161.6290  212.0750  148.4490 C   0  0  1  0  0  3  0  0  0  0  0  0
  160.4770  213.0080  146.5650 C   0  0  2  0  0  0  0  0  0  0  0  0
  160.4640  211.8590  147.4870 C   0  0  2  0  0  3  0  0  0  0  0  0
  162.6160  214.4530  145.5050 Cl  0  0  0  0  0  0  0  0  0  0  0  0
  158.7100  212.3580  145.0930 O   0  0  0  0  0  0  0  0  0  0  0  0
  159.8970  212.7610  145.2000 C   0  0  0  0  0  0  0  0  0  0  0  0
  160.6970  212.8970  144.0600 O   0  0  0  0  0  0  0  0  0  0  0  0
  160.8100  213.3490  141.6850 C   0  0  1  0  0  3  0  0  0  0  0  0
  160.2870  212.4270  142.7790 C   0  0  1  0  0  3  0  0  0  0  0  0
  162.6880  212.1980  142.5830 O   0  0  0  0  0  1  0  0  0  0  0  0
  161.4790  212.0050  141.9150 C   0  0  2  0  0  3  0  0  0  0  0  0
  159.9120  213.3180  140.5290 N   0  0  0  0  0  0  0  0  0  0  0  0
  157.9900  213.8250  141.7850 O   0  0  0  0  0  0  0  0  0  0  0  0
  158.3430  212.3330  138.4940 N   0  0  0  0  0  2  0  0  0  0  0  0
  160.3800  213.1790  139.2560 O   0  0  0  0  0  0  0  0  0  0  0  0
  159.7580  212.0290  138.7440 C   0  0  0  0  0  2  0  0  0  0  0  0
  157.6390  212.5810  139.7610 C   0  0  0  0  0  2  0  0  0  0  0  0
  158.4940  213.3240  140.7430 C   0  0  0  0  0  0  0  0  0  0  0  0
  1 31  1  6  0  0  0
  2  1  1  6  0  0  0
  2  5  1  0  0  0  0
  2  4  1  0  0  0  0
  4  3  1  6  0  0  0
  5  6  1  1  0  0  0
  5  4  1  0  0  0  0
  6  7  1  1  0  0  0
  8  9  1  1  0  0  0
  8  7  1  0  0  0  0
  8  6  1  0  0  0  0
  9 10  1  0  0  0  0
 11  1  1  0  0  0  0
 11 12  1  0  0  0  0
 12 14  1  0  0  0  0
 14 13  2  6  0  0  0
 14 15  1  0  0  0  0
 16 14  1  0  0  0  0
 18 17  2  0  0  0  0
 18 16  1  0  0  0  0
 19 18  1  0  0  0  0
 21 20  1  6  0  0  0
 21 19  1  0  0  0  0
 22 21  1  0  0  0  0
 23 24  2  0  0  0  0
 23 22  1  0  0  0  0
 25 29  1  0  0  0  0
 25 23  1  0  0  0  0
 26 29  1  0  0  0  0
 27 29  1  0  0  0  0
 28 30  1  0  0  0  0
 28 27  1  0  0  0  0
 30 26  1  0  0  0  0
 32 33  1  6  0  0  0
 32 34  1  0  0  0  0
 33 34  1  0  0  0  0
 34 31  1  1  0  0  0
 35 41  1  6  0  0  0
 35 36  1  0  0  0  0
 38 36  1  6  0  0  0
 38 32  1  0  0  0  0
 39 43  1  6  0  0  0
 39 35  1  0  0  0  0
 39 40  1  0  0  0  0
 39 37  1  0  0  0  0
 40 37  1  1  0  0  0
 40 38  1  0  0  0  0
 42 43  2  0  0  0  0
 44 43  1  0  0  0  0
 45 49  1  6  0  0  0
 45 48  1  0  0  0  0
 45 46  1  0  0  0  0
 46 44  1  1  0  0  0
 48 47  1  1  0  0  0
 48 46  1  0  0  0  0
 49 55  1  0  0  0  0
 51 53  1  0  0  0  0
 51 54  1  0  0  0  0
 52 49  1  0  0  0  0
 53 52  1  0  0  0  0
 54 55  1  0  0  0  0
 55 50  2  0  0  0  0
M  END
>  <MODEL>
1

>  <REMARK>
 VINA RESULT:      -5.7      0.000      0.000
  Name = 
  21 active torsions:
  status: ('A' for Active; 'I' for Inactive)
    1  A    between atoms: C_2  and  C_15
    2  A    between atoms: C_2  and  C_37
    3  A    between atoms: C_4  and  N_6
    4  A    between atoms: O_7  and  C_18
    5  A    between atoms: O_7  and  C_20
    6  A    between atoms: CA_9  and  C_41
    7  A    between atoms: C_11  and  S_17
    8  A    between atoms: C_11  and  C_53
    9  A    between atoms: C_15  and  C_53
   10  A    between atoms: C_16  and  O_39
   11  A    between atoms: C_16  and  C_41
   12  A    between atoms: S_17  and  C_35
   13  A    between atoms: C_20  and  C_36
   14  A    between atoms: C_22  and  C_26
   15  A    between atoms: P_23  and  O_25
   16  A    between atoms: P_23  and  O_39
   17  A    between atoms: O_25  and  C_37
   18  A    between atoms: C_29  and  C_41
   19  A    between atoms: C_29  and  C_45
   20  A    between atoms: C_30  and  N_50
   21  A    between atoms: C_42  and  C_43
                            x       y       z     vdW  Elec       q    Type
                         _______ _______ _______ _____ _____    ______ ____

>  <TORSDO>
F 21

$$$$
=
 OpenBabel11072410023D

 55 62  0  0  1  0  0  0  0  0999 V2000
  161.6220  210.0290  152.4390 C   0  0  1  0  0  3  0  0  0  0  0  0
  160.5010  210.4900  153.3800 C   0  0  1  0  0  3  0  0  0  0  0  0
  162.2750  210.5040  154.9950 O   0  0  0  0  0  1  0  0  0  0  0  0
  160.9140  210.7250  154.7760 C   0  0  1  0  0  3  0  0  0  0  0  0
  160.7470  211.8640  153.8530 N   0  0  2  0  0  0  0  0  0  0  0  0
  159.4300  212.4570  154.0630 C   0  0  1  0  0  3  0  0  0  0  0  0
  158.8760  213.0570  152.7790 C   0  0  0  0  0  2  0  0  0  0  0  0
  158.4120  211.6950  153.2340 C   0  0  2  0  0  3  0  0  0  0  0  0
  157.0490  211.8230  153.8950 C   0  0  0  0  0  2  0  0  0  0  0  0
  157.0300  211.0420  155.1990 C   0  0  0  0  0  1  0  0  0  0  0  0
  161.7290  208.4970  152.2860 C   0  0  0  0  0  2  0  0  0  0  0  0
  160.5910  207.8160  152.7350 O   0  0  0  0  0  0  0  0  0  0  0  0
  162.8410  206.2850  153.2900 O   0  0  0  0  0  0  0  0  0  0  0  0
  161.1640  206.3960  153.4750 P   0  0  1  0  0  0  0  0  0  0  0  0
  160.8450  206.4430  154.9530 O   0  0  0  0  0  1  0  0  0  0  0  0
  160.4280  205.0260  152.7230 O   0  0  0  0  0  0  0  0  0  0  0  0
  161.9000  203.6250  151.6600 O   0  0  0  0  0  0  0  0  0  0  0  0
  160.9250  204.4170  151.5660 C   0  0  0  0  0  0  0  0  0  0  0  0
  160.3010  204.6620  150.2220 C   0  0  0  0  0  2  0  0  0  0  0  0
  162.3380  206.0670  149.7920 C   0  0  0  0  0  1  0  0  0  0  0  0
  160.8480  205.9170  149.5310 C   0  0  1  0  0  3  0  0  0  0  0  0
  160.6580  205.7630  148.0290 C   0  0  0  0  0  2  0  0  0  0  0  0
  161.9110  206.0290  147.2460 C   0  0  0  0  0  0  0  0  0  0  0  0
  162.3580  207.1600  147.1380 O   0  0  0  0  0  0  0  0  0  0  0  0
  162.7060  204.6620  146.3930 S   0  0  0  0  0  0  0  0  0  0  0  0
  160.6170  204.0090  144.8750 O   0  0  0  0  0  0  0  0  0  0  0  0
  161.4010  202.3240  146.2290 O   0  0  0  0  0  0  0  0  0  0  0  0
  160.3650  201.7780  145.4710 C   0  0  0  0  0  2  0  0  0  0  0  0
  161.1790  203.7040  146.1220 C   0  0  0  0  0  3  0  0  0  0  0  0
  159.8660  202.8770  144.5710 C   0  0  0  0  0  2  0  0  0  0  0  0
  161.4580  210.6790  151.0640 C   0  0  0  0  0  2  0  0  0  0  0  0
  162.4820  210.8210  148.7040 C   0  0  2  0  0  3  0  0  0  0  0  0
  161.5960  209.5980  148.8130 C   0  0  0  0  0  2  0  0  0  0  0  0
  162.3820  210.0470  150.0270 C   0  0  2  0  0  3  0  0  0  0  0  0
  161.6660  213.9530  147.0370 C   0  0  2  0  0  3  0  0  0  0  0  0
  162.5060  213.2050  148.0490 C   0  0  0  0  0  2  0  0  0  0  0  0
  159.5650  212.9220  147.7080 O   0  0  0  0  0  0  0  0  0  0  0  0
  161.6370  212.0830  148.6070 C   0  0  1  0  0  3  0  0  0  0  0  0
  160.5300  213.0000  146.6880 C   0  0  2  0  0  0  0  0  0  0  0  0
  160.4950  211.8580  147.6190 C   0  0  2  0  0  3  0  0  0  0  0  0
  162.6930  214.4380  145.6670 Cl  0  0  0  0  0  0  0  0  0  0  0  0
  158.8040  212.3200  145.1810 O   0  0  0  0  0  0  0  0  0  0  0  0
  159.9830  212.7410  145.3120 C   0  0  0  0  0  0  0  0  0  0  0  0
  160.8050  212.8860  144.1880 O   0  0  0  0  0  0  0  0  0  0  0  0
  160.8550  213.2200  141.7920 C   0  0  1  0  0  3  0  0  0  0  0  0
  160.5010  212.2790  142.9360 C   0  0  1  0  0  3  0  0  0  0  0  0
  162.9040  212.4860  142.7500 O   0  0  0  0  0  1  0  0  0  0  0  0
  161.7580  212.0360  142.0960 C   0  0  2  0  0  3  0  0  0  0  0  0
  159.9890  212.9600  140.6410 N   0  0  0  0  0  0  0  0  0  0  0  0
  161.4010  214.0460  139.1060 O   0  0  0  0  0  0  0  0  0  0  0  0
  157.8830  213.1780  138.8820 N   0  0  0  0  0  2  0  0  0  0  0  0
  158.8800  212.1710  140.7360 O   0  0  0  0  0  0  0  0  0  0  0  0
  157.8030  212.9780  140.3350 C   0  0  0  0  0  2  0  0  0  0  0  0
  159.0690  213.9770  138.5380 C   0  0  0  0  0  2  0  0  0  0  0  0
  160.2460  213.6360  139.4020 C   0  0  0  0  0  0  0  0  0  0  0  0
  1 31  1  6  0  0  0
  2  1  1  6  0  0  0
  2  5  1  0  0  0  0
  2  4  1  0  0  0  0
  4  3  1  6  0  0  0
  5  6  1  1  0  0  0
  5  4  1  0  0  0  0
  6  7  1  6  0  0  0
  7  8  1  0  0  0  0
  8  9  1  1  0  0  0
  8  6  1  0  0  0  0
  9 10  1  0  0  0  0
 11  1  1  0  0  0  0
 11 12  1  0  0  0  0
 12 14  1  0  0  0  0
 14 13  2  6  0  0  0
 14 15  1  0  0  0  0
 16 14  1  0  0  0  0
 18 17  2  0  0  0  0
 18 16  1  0  0  0  0
 19 18  1  0  0  0  0
 21 20  1  6  0  0  0
 21 19  1  0  0  0  0
 22 21  1  0  0  0  0
 23 22  1  0  0  0  0
 24 23  2  0  0  0  0
 25 23  1  0  0  0  0
 26 29  1  0  0  0  0
 28 27  1  0  0  0  0
 29 27  1  0  0  0  0
 29 25  1  0  0  0  0
 30 26  1  0  0  0  0
 30 28  1  0  0  0  0
 32 33  1  6  0  0  0
 32 34  1  0  0  0  0
 33 34  1  0  0  0  0
 34 31  1  1  0  0  0
 35 41  1  6  0  0  0
 35 36  1  0  0  0  0
 38 36  1  6  0  0  0
 38 32  1  0  0  0  0
 39 43  1  6  0  0  0
 39 35  1  0  0  0  0
 39 40  1  0  0  0  0
 39 37  1  0  0  0  0
 40 37  1  1  0  0  0
 40 38  1  0  0  0  0
 42 43  2  0  0  0  0
 44 43  1  0  0  0  0
 45 49  1  6  0  0  0
 45 48  1  0  0  0  0
 45 46  1  0  0  0  0
 46 44  1  1  0  0  0
 48 47  1  1  0  0  0
 48 46  1  0  0  0  0
 49 52  1  0  0  0  0
 50 55  2  0  0  0  0
 51 53  1  0  0  0  0
 53 52  1  0  0  0  0
 54 51  1  0  0  0  0
 54 55  1  0  0  0  0
 55 49  1  0  0  0  0
M  END
>  <MODEL>
2

>  <REMARK>
 VINA RESULT:      -5.5      1.320      2.033
  Name = 
  21 active torsions:
  status: ('A' for Active; 'I' for Inactive)
    1  A    between atoms: C_2  and  C_15
    2  A    between atoms: C_2  and  C_37
    3  A    between atoms: C_4  and  N_6
    4  A    between atoms: O_7  and  C_18
    5  A    between atoms: O_7  and  C_20
    6  A    between atoms: CA_9  and  C_41
    7  A    between atoms: C_11  and  S_17
    8  A    between atoms: C_11  and  C_53
    9  A    between atoms: C_15  and  C_53
   10  A    between atoms: C_16  and  O_39
   11  A    between atoms: C_16  and  C_41
   12  A    between atoms: S_17  and  C_35
   13  A    between atoms: C_20  and  C_36
   14  A    between atoms: C_22  and  C_26
   15  A    between atoms: P_23  and  O_25
   16  A    between atoms: P_23  and  O_39
   17  A    between atoms: O_25  and  C_37
   18  A    between atoms: C_29  and  C_41
   19  A    between atoms: C_29  and  C_45
   20  A    between atoms: C_30  and  N_50
   21  A    between atoms: C_42  and  C_43
                            x       y       z     vdW  Elec       q    Type
                         _______ _______ _______ _____ _____    ______ ____

>  <TORSDO>
F 21

$$$$
=
 OpenBabel11072410023D

 55 62  0  0  1  0  0  0  0  0999 V2000
  161.3300  208.8380  152.4650 C   0  0  1  0  0  3  0  0  0  0  0  0
  160.8570  209.7370  153.6140 C   0  0  1  0  0  3  0  0  0  0  0  0
  163.1490  210.4440  153.6030 O   0  0  0  0  0  1  0  0  0  0  0  0
  161.9010  210.5910  154.2100 C   0  0  1  0  0  3  0  0  0  0  0  0
  160.9480  211.1590  153.2370 N   0  0  2  0  0  0  0  0  0  0  0  0
  159.8760  211.8350  153.9610 C   0  0  1  0  0  3  0  0  0  0  0  0
  159.2750  212.9670  153.1410 C   0  0  0  0  0  2  0  0  0  0  0  0
  158.5740  211.6330  153.2070 C   0  0  2  0  0  3  0  0  0  0  0  0
  157.4200  211.7200  154.1930 C   0  0  0  0  0  2  0  0  0  0  0  0
  157.1960  213.1670  154.6010 C   0  0  0  0  0  1  0  0  0  0  0  0
  160.6050  207.4770  152.3880 C   0  0  0  0  0  2  0  0  0  0  0  0
  161.1720  206.6010  151.4540 O   0  0  0  0  0  0  0  0  0  0  0  0
  163.4200  205.2090  152.3050 O   0  0  0  0  0  0  0  0  0  0  0  0
  161.7310  205.2690  152.3510 P   0  0  1  0  0  0  0  0  0  0  0  0
  161.2940  205.4230  153.7920 O   0  0  0  0  0  1  0  0  0  0  0  0
  161.1020  203.8150  151.6620 O   0  0  0  0  0  0  0  0  0  0  0  0
  160.5200  204.3820  149.5170 O   0  0  0  0  0  0  0  0  0  0  0  0
  161.0790  203.5560  150.2880 C   0  0  0  0  0  0  0  0  0  0  0  0
  161.7340  202.3350  149.7090 C   0  0  0  0  0  2  0  0  0  0  0  0
  159.6000  201.0470  150.0190 C   0  0  0  0  0  1  0  0  0  0  0  0
  160.7310  201.3740  149.0580 C   0  0  1  0  0  3  0  0  0  0  0  0
  160.1200  202.0620  147.8460 C   0  0  0  0  0  2  0  0  0  0  0  0
  160.6090  201.5040  146.5420 C   0  0  0  0  0  0  0  0  0  0  0  0
  161.3650  200.5450  146.5110 O   0  0  0  0  0  0  0  0  0  0  0  0
  160.1310  202.3210  145.0150 S   0  0  0  0  0  0  0  0  0  0  0  0
  160.5970  204.9340  145.2390 O   0  0  0  0  0  0  0  0  0  0  0  0
  162.1130  203.5800  146.3120 O   0  0  0  0  0  0  0  0  0  0  0  0
  162.4800  204.8950  146.5980 C   0  0  0  0  0  2  0  0  0  0  0  0
  161.2900  203.7180  145.1860 C   0  0  0  0  0  3  0  0  0  0  0  0
  161.4750  205.7800  145.9110 C   0  0  0  0  0  2  0  0  0  0  0  0
  161.2000  209.5740  151.1300 C   0  0  0  0  0  2  0  0  0  0  0  0
  162.3300  209.9300  148.8420 C   0  0  2  0  0  3  0  0  0  0  0  0
  161.5060  208.6600  148.8220 C   0  0  0  0  0  2  0  0  0  0  0  0
  162.2060  209.0610  150.1030 C   0  0  2  0  0  3  0  0  0  0  0  0
  161.8730  213.4940  148.2540 C   0  0  2  0  0  3  0  0  0  0  0  0
  162.2370  212.3740  149.2050 C   0  0  0  0  0  2  0  0  0  0  0  0
  159.9360  212.3520  147.3200 O   0  0  0  0  0  0  0  0  0  0  0  0
  161.4260  211.1530  148.7860 C   0  0  1  0  0  3  0  0  0  0  0  0
  161.2420  212.8010  147.0530 C   0  0  2  0  0  0  0  0  0  0  0  0
  160.9680  211.3830  147.3480 C   0  0  2  0  0  3  0  0  0  0  0  0
  163.3280  214.4530  147.8940 Cl  0  0  0  0  0  0  0  0  0  0  0  0
  162.6090  212.8810  145.0940 O   0  0  0  0  0  0  0  0  0  0  0  0
  161.4880  213.1340  145.6080 C   0  0  0  0  0  0  0  0  0  0  0  0
  160.5070  213.7970  144.8620 O   0  0  0  0  0  0  0  0  0  0  0  0
  159.9110  212.7510  142.7620 C   0  0  1  0  0  3  0  0  0  0  0  0
  160.5880  213.9330  143.4460 C   0  0  1  0  0  3  0  0  0  0  0  0
  158.1920  214.0550  143.7630 O   0  0  0  0  0  1  0  0  0  0  0  0
  159.2060  214.0960  142.8060 C   0  0  2  0  0  3  0  0  0  0  0  0
  160.5280  212.5040  141.4580 N   0  0  0  0  0  0  0  0  0  0  0  0
  158.4780  212.2320  140.3400 O   0  0  0  0  0  0  0  0  0  0  0  0
  161.8340  211.2030  139.4150 N   0  0  0  0  0  2  0  0  0  0  0  0
  161.8720  212.6290  141.2600 O   0  0  0  0  0  0  0  0  0  0  0  0
  162.3070  211.3780  140.7940 C   0  0  0  0  0  2  0  0  0  0  0  0
  160.3680  211.1000  139.3840 C   0  0  0  0  0  2  0  0  0  0  0  0
  159.7190  212.0120  140.3810 C   0  0  0  0  0  0  0  0  0  0  0  0
  1 31  1  6  0  0  0
  2  1  1  6  0  0  0
  2  4  1  0  0  0  0
  4  3  1  6  0  0  0
  5  2  1  0  0  0  0
  5  6  1  1  0  0  0
  5  4  1  0  0  0  0
  6  7  1  6  0  0  0
  7  8  1  0  0  0  0
  8  6  1  0  0  0  0
  8  9  1  1  0  0  0
  9 10  1  0  0  0  0
 11  1  1  0  0  0  0
 12 14  1  0  0  0  0
 12 11  1  0  0  0  0
 14 13  2  6  0  0  0
 14 15  1  0  0  0  0
 16 14  1  0  0  0  0
 17 18  2  0  0  0  0
 18 16  1  0  0  0  0
 19 18  1  0  0  0  0
 21 19  1  0  0  0  0
 21 20  1  1  0  0  0
 22 21  1  0  0  0  0
 23 22  1  0  0  0  0
 24 23  2  0  0  0  0
 25 29  1  0  0  0  0
 25 23  1  0  0  0  0
 26 30  1  0  0  0  0
 27 28  1  0  0  0  0
 29 26  1  0  0  0  0
 29 27  1  0  0  0  0
 30 28  1  0  0  0  0
 32 33  1  6  0  0  0
 32 34  1  0  0  0  0
 33 34  1  0  0  0  0
 34 31  1  1  0  0  0
 35 41  1  6  0  0  0
 35 36  1  0  0  0  0
 38 32  1  0  0  0  0
 38 36  1  6  0  0  0
 39 43  1  6  0  0  0
 39 37  1  0  0  0  0
 39 40  1  0  0  0  0
 39 35  1  0  0  0  0
 40 37  1  1  0  0  0
 40 38  1  0  0  0  0
 42 43  2  0  0  0  0
 44 43  1  0  0  0  0
 45 49  1  6  0  0  0
 45 48  1  0  0  0  0
 45 46  1  0  0  0  0
 46 44  1  1  0  0  0
 48 46  1  0  0  0  0
 48 47  1  1  0  0  0
 50 55  2  0  0  0  0
 51 53  1  0  0  0  0
 52 49  1  0  0  0  0
 53 52  1  0  0  0  0
 54 51  1  0  0  0  0
 54 55  1  0  0  0  0
 55 49  1  0  0  0  0
M  END
>  <MODEL>
3

>  <REMARK>
 VINA RESULT:      -5.0      1.379      1.894
  Name = 
  21 active torsions:
  status: ('A' for Active; 'I' for Inactive)
    1  A    between atoms: C_2  and  C_15
    2  A    between atoms: C_2  and  C_37
    3  A    between atoms: C_4  and  N_6
    4  A    between atoms: O_7  and  C_18
    5  A    between atoms: O_7  and  C_20
    6  A    between atoms: CA_9  and  C_41
    7  A    between atoms: C_11  and  S_17
    8  A    between atoms: C_11  and  C_53
    9  A    between atoms: C_15  and  C_53
   10  A    between atoms: C_16  and  O_39
   11  A    between atoms: C_16  and  C_41
   12  A    between atoms: S_17  and  C_35
   13  A    between atoms: C_20  and  C_36
   14  A    between atoms: C_22  and  C_26
   15  A    between atoms: P_23  and  O_25
   16  A    between atoms: P_23  and  O_39
   17  A    between atoms: O_25  and  C_37
   18  A    between atoms: C_29  and  C_41
   19  A    between atoms: C_29  and  C_45
   20  A    between atoms: C_30  and  N_50
   21  A    between atoms: C_42  and  C_43
                            x       y       z     vdW  Elec       q    Type
                         _______ _______ _______ _____ _____    ______ ____

>  <TORSDO>
F 21

$$$$
=
 OpenBabel11072410023D

 55 62  0  0  1  0  0  0  0  0999 V2000
  160.8040  211.1220  152.1720 C   0  0  1  0  0  3  0  0  0  0  0  0
  159.7410  211.0680  153.2770 C   0  0  1  0  0  3  0  0  0  0  0  0
  161.5340  210.0940  154.5380 O   0  0  0  0  0  1  0  0  0  0  0  0
  160.1930  210.4840  154.5520 C   0  0  1  0  0  3  0  0  0  0  0  0
  160.1090  211.9490  154.4000 N   0  0  2  0  0  0  0  0  0  0  0  0
  158.8500  212.4150  154.9730 C   0  0  1  0  0  3  0  0  0  0  0  0
  158.6080  213.8860  154.6690 C   0  0  0  0  0  2  0  0  0  0  0  0
  157.9210  212.8250  153.8450 C   0  0  2  0  0  3  0  0  0  0  0  0
  156.4840  212.6760  154.3160 C   0  0  0  0  0  2  0  0  0  0  0  0
  156.3470  211.4280  155.1730 C   0  0  0  0  0  1  0  0  0  0  0  0
  161.4990  209.7710  151.8980 C   0  0  0  0  0  2  0  0  0  0  0  0
  160.6120  208.7640  151.5000 O   0  0  0  0  0  0  0  0  0  0  0  0
  162.3450  208.4720  149.3480 O   0  0  0  0  0  0  0  0  0  0  0  0
  161.5400  207.6620  150.5960 P   0  0  1  0  0  0  0  0  0  0  0  0
  162.5730  207.0240  151.5000 O   0  0  0  0  0  1  0  0  0  0  0  0
  160.4970  206.4710  149.9060 O   0  0  0  0  0  0  0  0  0  0  0  0
  161.7360  205.0010  148.6570 O   0  0  0  0  0  0  0  0  0  0  0  0
  160.9070  205.1720  149.5900 C   0  0  0  0  0  0  0  0  0  0  0  0
  160.4070  203.9820  150.3580 C   0  0  0  0  0  2  0  0  0  0  0  0
  160.9600  203.2710  152.7010 C   0  0  0  0  0  1  0  0  0  0  0  0
  161.4740  203.3750  151.2750 C   0  0  1  0  0  3  0  0  0  0  0  0
  161.7790  201.9630  150.7930 C   0  0  0  0  0  2  0  0  0  0  0  0
  160.9290  201.5410  149.6300 C   0  0  0  0  0  0  0  0  0  0  0  0
  159.7230  201.7320  149.6290 O   0  0  0  0  0  0  0  0  0  0  0  0
  161.7030  200.6680  148.2640 S   0  0  0  0  0  0  0  0  0  0  0  0
  161.0860  202.6140  146.5530 O   0  0  0  0  0  0  0  0  0  0  0  0
  160.4990  200.4980  145.8720 O   0  0  0  0  0  0  0  0  0  0  0  0
  160.1630  201.3610  144.8290 C   0  0  0  0  0  2  0  0  0  0  0  0
  160.6200  201.3610  146.9700 C   0  0  0  0  0  3  0  0  0  0  0  0
  160.5650  202.7430  145.2680 C   0  0  0  0  0  2  0  0  0  0  0  0
  160.1950  211.6650  150.8780 C   0  0  0  0  0  2  0  0  0  0  0  0
  159.6120  213.8090  149.5740 C   0  0  2  0  0  3  0  0  0  0  0  0
  161.1140  213.6490  149.6640 C   0  0  0  0  0  2  0  0  0  0  0  0
  160.2560  213.1890  150.8230 C   0  0  2  0  0  3  0  0  0  0  0  0
  157.4470  213.1090  146.7310 C   0  0  2  0  0  3  0  0  0  0  0  0
  157.6100  213.2630  148.2280 C   0  0  0  0  0  2  0  0  0  0  0  0
  159.4780  211.8000  146.4340 O   0  0  0  0  0  0  0  0  0  0  0  0
  159.0310  212.8250  148.5670 C   0  0  1  0  0  3  0  0  0  0  0  0
  158.8670  213.0420  146.1850 C   0  0  2  0  0  0  0  0  0  0  0  0
  159.8440  212.8770  147.2760 C   0  0  2  0  0  3  0  0  0  0  0  0
  156.4610  214.4520  146.1080 Cl  0  0  0  0  0  0  0  0  0  0  0  0
  160.4060  214.4510  145.0200 O   0  0  0  0  0  0  0  0  0  0  0  0
  159.3750  213.7330  144.9500 C   0  0  0  0  0  0  0  0  0  0  0  0
  158.6600  213.6470  143.7500 O   0  0  0  0  0  0  0  0  0  0  0  0
  158.7040  212.8390  141.4690 C   0  0  1  0  0  3  0  0  0  0  0  0
  159.2780  213.8250  142.4790 C   0  0  1  0  0  3  0  0  0  0  0  0
  156.9950  214.4230  141.9450 O   0  0  0  0  0  1  0  0  0  0  0  0
  158.2800  214.2970  141.4170 C   0  0  2  0  0  3  0  0  0  0  0  0
  159.7040  212.5280  140.4460 N   0  0  0  0  0  0  0  0  0  0  0  0
  158.1230  211.7810  138.8740 O   0  0  0  0  0  0  0  0  0  0  0  0
  161.7000  211.2010  139.0950 N   0  0  0  0  0  2  0  0  0  0  0  0
  161.0210  212.8430  140.6060 O   0  0  0  0  0  0  0  0  0  0  0  0
  161.7190  211.6290  140.4990 C   0  0  0  0  0  2  0  0  0  0  0  0
  160.3310  210.8570  138.6820 C   0  0  0  0  0  2  0  0  0  0  0  0
  159.3130  211.7740  139.2900 C   0  0  0  0  0  0  0  0  0  0  0  0
  1 31  1  6  0  0  0
  2  1  1  6  0  0  0
  2  5  1  0  0  0  0
  2  4  1  0  0  0  0
  4  3  1  6  0  0  0
  5  4  1  0  0  0  0
  5  6  1  1  0  0  0
  6  7  1  1  0  0  0
  8  9  1  1  0  0  0
  8  7  1  0  0  0  0
  8  6  1  0  0  0  0
  9 10  1  0  0  0  0
 11  1  1  0  0  0  0
 12 11  1  0  0  0  0
 14 13  2  6  0  0  0
 14 12  1  0  0  0  0
 14 15  1  0  0  0  0
 16 14  1  0  0  0  0
 17 18  2  0  0  0  0
 18 16  1  0  0  0  0
 18 19  1  0  0  0  0
 19 21  1  0  0  0  0
 21 20  1  1  0  0  0
 22 21  1  0  0  0  0
 23 22  1  0  0  0  0
 24 23  2  0  0  0  0
 25 23  1  0  0  0  0
 26 29  1  0  0  0  0
 27 29  1  0  0  0  0
 28 30  1  0  0  0  0
 28 27  1  0  0  0  0
 29 25  1  0  0  0  0
 30 26  1  0  0  0  0
 32 33  1  6  0  0  0
 32 34  1  0  0  0  0
 33 34  1  0  0  0  0
 34 31  1  6  0  0  0
 35 41  1  6  0  0  0
 35 36  1  0  0  0  0
 38 36  1  6  0  0  0
 38 32  1  0  0  0  0
 39 43  1  6  0  0  0
 39 37  1  0  0  0  0
 39 35  1  0  0  0  0
 39 40  1  0  0  0  0
 40 37  1  6  0  0  0
 40 38  1  0  0  0  0
 43 42  2  0  0  0  0
 44 43  1  0  0  0  0
 45 49  1  6  0  0  0
 45 46  1  0  0  0  0
 46 44  1  1  0  0  0
 48 45  1  0  0  0  0
 48 47  1  1  0  0  0
 48 46  1  0  0  0  0
 49 52  1  0  0  0  0
 50 55  2  0  0  0  0
 51 53  1  0  0  0  0
 53 52  1  0  0  0  0
 54 51  1  0  0  0  0
 54 55  1  0  0  0  0
 55 49  1  0  0  0  0
M  END
>  <MODEL>
4

>  <REMARK>
 VINA RESULT:      -4.7      2.067      2.953
  Name = 
  21 active torsions:
  status: ('A' for Active; 'I' for Inactive)
    1  A    between atoms: C_2  and  C_15
    2  A    between atoms: C_2  and  C_37
    3  A    between atoms: C_4  and  N_6
    4  A    between atoms: O_7  and  C_18
    5  A    between atoms: O_7  and  C_20
    6  A    between atoms: CA_9  and  C_41
    7  A    between atoms: C_11  and  S_17
    8  A    between atoms: C_11  and  C_53
    9  A    between atoms: C_15  and  C_53
   10  A    between atoms: C_16  and  O_39
   11  A    between atoms: C_16  and  C_41
   12  A    between atoms: S_17  and  C_35
   13  A    between atoms: C_20  and  C_36
   14  A    between atoms: C_22  and  C_26
   15  A    between atoms: P_23  and  O_25
   16  A    between atoms: P_23  and  O_39
   17  A    between atoms: O_25  and  C_37
   18  A    between atoms: C_29  and  C_41
   19  A    between atoms: C_29  and  C_45
   20  A    between atoms: C_30  and  N_50
   21  A    between atoms: C_42  and  C_43
                            x       y       z     vdW  Elec       q    Type
                         _______ _______ _______ _____ _____    ______ ____

>  <TORSDO>
F 21

$$$$
=
 OpenBabel11072410023D

 55 62  0  0  1  0  0  0  0  0999 V2000
  160.2660  212.1070  152.8530 C   0  0  1  0  0  3  0  0  0  0  0  0
  159.0700  212.2150  153.8080 C   0  0  1  0  0  3  0  0  0  0  0  0
  160.7900  212.2000  155.4800 O   0  0  0  0  0  1  0  0  0  0  0  0
  159.4160  212.2500  155.2400 C   0  0  1  0  0  3  0  0  0  0  0  0
  159.0900  213.5010  154.5280 N   0  0  2  0  0  0  0  0  0  0  0  0
  157.6930  213.8400  154.7790 C   0  0  1  0  0  3  0  0  0  0  0  0
  157.0360  214.4520  153.5490 C   0  0  0  0  0  2  0  0  0  0  0  0
  156.8130  212.9950  153.8740 C   0  0  2  0  0  3  0  0  0  0  0  0
  155.4520  212.8300  154.5320 C   0  0  0  0  0  2  0  0  0  0  0  0
  155.5940  212.0490  155.8280 C   0  0  0  0  0  1  0  0  0  0  0  0
  160.9800  210.7390  152.8850 C   0  0  0  0  0  2  0  0  0  0  0  0
  160.1030  209.6630  153.0680 O   0  0  0  0  0  0  0  0  0  0  0  0
  162.2300  209.4140  154.8380 O   0  0  0  0  0  0  0  0  0  0  0  0
  160.8100  208.6910  154.2710 P   0  0  1  0  0  0  0  0  0  0  0  0
  159.8450  208.5530  155.4280 O   0  0  0  0  0  1  0  0  0  0  0  0
  161.2010  207.1480  153.5990 O   0  0  0  0  0  0  0  0  0  0  0  0
  161.0320  207.7850  151.4030 O   0  0  0  0  0  0  0  0  0  0  0  0
  161.4390  206.9340  152.2380 C   0  0  0  0  0  0  0  0  0  0  0  0
  162.1950  205.7300  151.7540 C   0  0  0  0  0  2  0  0  0  0  0  0
  159.9810  204.5460  151.7070 C   0  0  0  0  0  1  0  0  0  0  0  0
  161.4600  204.4130  152.0320 C   0  0  1  0  0  3  0  0  0  0  0  0
  162.0360  203.3370  151.1220 C   0  0  0  0  0  2  0  0  0  0  0  0
  160.9960  202.6620  150.2770 C   0  0  0  0  0  0  0  0  0  0  0  0
  160.1130  201.9860  150.7840 O   0  0  0  0  0  0  0  0  0  0  0  0
  161.1140  202.7910  148.4890 S   0  0  0  0  0  0  0  0  0  0  0  0
  162.3080  204.8480  147.2900 O   0  0  0  0  0  0  0  0  0  0  0  0
  160.5060  205.4010  148.6070 O   0  0  0  0  0  0  0  0  0  0  0  0
  160.9490  206.5850  148.0180 C   0  0  0  0  0  2  0  0  0  0  0  0
  161.6070  204.5460  148.4650 C   0  0  0  0  0  3  0  0  0  0  0  0
  162.1150  206.2190  147.1410 C   0  0  0  0  0  2  0  0  0  0  0  0
  159.8320  212.4350  151.4220 C   0  0  0  0  0  2  0  0  0  0  0  0
  159.2440  214.3420  149.7930 C   0  0  2  0  0  3  0  0  0  0  0  0
  160.6910  214.4530  150.2220 C   0  0  0  0  0  2  0  0  0  0  0  0
  159.6690  213.9380  151.2120 C   0  0  2  0  0  3  0  0  0  0  0  0
  158.0570  213.1050  146.5810 C   0  0  2  0  0  3  0  0  0  0  0  0
  157.7700  213.4220  148.0330 C   0  0  0  0  0  2  0  0  0  0  0  0
  160.1990  212.0350  147.0220 O   0  0  0  0  0  0  0  0  0  0  0  0
  159.0680  213.2000  148.8010 C   0  0  1  0  0  3  0  0  0  0  0  0
  159.5740  213.1620  146.4580 C   0  0  2  0  0  0  0  0  0  0  0  0
  160.2080  213.2270  147.7870 C   0  0  2  0  0  3  0  0  0  0  0  0
  157.1710  214.2480  145.5450 Cl  0  0  0  0  0  0  0  0  0  0  0  0
  161.5800  214.0060  145.4700 O   0  0  0  0  0  0  0  0  0  0  0  0
  160.3480  213.7880  145.3310 C   0  0  0  0  0  0  0  0  0  0  0  0
  159.6880  214.2000  144.1680 O   0  0  0  0  0  0  0  0  0  0  0  0
  159.4100  212.6470  142.3320 C   0  0  1  0  0  3  0  0  0  0  0  0
  160.1570  213.8640  142.8650 C   0  0  1  0  0  3  0  0  0  0  0  0
  157.8640  214.4530  142.3680 O   0  0  0  0  0  1  0  0  0  0  0  0
  159.0660  214.0290  141.8030 C   0  0  2  0  0  3  0  0  0  0  0  0
  160.2600  211.9050  141.3990 N   0  0  0  0  0  0  0  0  0  0  0  0
  162.1890  212.0870  142.7320 O   0  0  0  0  0  0  0  0  0  0  0  0
  161.8130  211.3400  139.1990 N   0  0  0  0  0  2  0  0  0  0  0  0
  159.7520  211.2950  140.2900 O   0  0  0  0  0  0  0  0  0  0  0  0
  160.4370  211.8530  139.1990 C   0  0  0  0  0  2  0  0  0  0  0  0
  162.5480  211.8400  140.3700 C   0  0  0  0  0  2  0  0  0  0  0  0
  161.6810  211.9070  141.5910 C   0  0  0  0  0  0  0  0  0  0  0  0
  1 31  1  6  0  0  0
  1 11  1  0  0  0  0
  2  1  1  6  0  0  0
  2  5  1  0  0  0  0
  2  4  1  0  0  0  0
  4  3  1  6  0  0  0
  5  6  1  1  0  0  0
  5  4  1  0  0  0  0
  6  7  1  6  0  0  0
  7  8  1  0  0  0  0
  8  9  1  1  0  0  0
  8  6  1  0  0  0  0
  9 10  1  0  0  0  0
 11 12  1  0  0  0  0
 12 14  1  0  0  0  0
 14 13  2  1  0  0  0
 14 15  1  0  0  0  0
 16 14  1  0  0  0  0
 17 18  2  0  0  0  0
 18 16  1  0  0  0  0
 19 21  1  0  0  0  0
 19 18  1  0  0  0  0
 21 20  1  6  0  0  0
 22 21  1  0  0  0  0
 23 24  2  0  0  0  0
 23 22  1  0  0  0  0
 25 23  1  0  0  0  0
 26 29  1  0  0  0  0
 28 27  1  0  0  0  0
 29 25  1  0  0  0  0
 29 27  1  0  0  0  0
 30 26  1  0  0  0  0
 30 28  1  0  0  0  0
 32 33  1  6  0  0  0
 32 34  1  0  0  0  0
 33 34  1  0  0  0  0
 34 31  1  6  0  0  0
 35 41  1  6  0  0  0
 35 36  1  0  0  0  0
 38 36  1  6  0  0  0
 38 32  1  0  0  0  0
 39 43  1  6  0  0  0
 39 35  1  0  0  0  0
 39 37  1  0  0  0  0
 39 40  1  0  0  0  0
 40 37  1  1  0  0  0
 40 38  1  0  0  0  0
 43 42  2  0  0  0  0
 44 43  1  0  0  0  0
 45 49  1  6  0  0  0
 45 46  1  0  0  0  0
 46 44  1  1  0  0  0
 48 45  1  0  0  0  0
 48 47  1  1  0  0  0
 48 46  1  0  0  0  0
 49 55  1  0  0  0  0
 51 54  1  0  0  0  0
 52 49  1  0  0  0  0
 53 51  1  0  0  0  0
 53 52  1  0  0  0  0
 54 55  1  0  0  0  0
 55 50  2  0  0  0  0
M  END
>  <MODEL>
5

>  <REMARK>
 VINA RESULT:      -4.5      2.185      3.224
  Name = 
  21 active torsions:
  status: ('A' for Active; 'I' for Inactive)
    1  A    between atoms: C_2  and  C_15
    2  A    between atoms: C_2  and  C_37
    3  A    between atoms: C_4  and  N_6
    4  A    between atoms: O_7  and  C_18
    5  A    between atoms: O_7  and  C_20
    6  A    between atoms: CA_9  and  C_41
    7  A    between atoms: C_11  and  S_17
    8  A    between atoms: C_11  and  C_53
    9  A    between atoms: C_15  and  C_53
   10  A    between atoms: C_16  and  O_39
   11  A    between atoms: C_16  and  C_41
   12  A    between atoms: S_17  and  C_35
   13  A    between atoms: C_20  and  C_36
   14  A    between atoms: C_22  and  C_26
   15  A    between atoms: P_23  and  O_25
   16  A    between atoms: P_23  and  O_39
   17  A    between atoms: O_25  and  C_37
   18  A    between atoms: C_29  and  C_41
   19  A    between atoms: C_29  and  C_45
   20  A    between atoms: C_30  and  N_50
   21  A    between atoms: C_42  and  C_43
                            x       y       z     vdW  Elec       q    Type
                         _______ _______ _______ _____ _____    ______ ____

>  <TORSDO>
F 21

$$$$
=
 OpenBabel11072410023D

 55 62  0  0  1  0  0  0  0  0999 V2000
  161.9900  203.9950  147.3710 C   0  0  1  0  0  3  0  0  0  0  0  0
  161.0300  203.3090  148.3520 C   0  0  1  0  0  3  0  0  0  0  0  0
  161.6210  201.3540  147.0950 O   0  0  0  0  0  1  0  0  0  0  0  0
  160.8560  201.8600  148.1480 C   0  0  1  0  0  3  0  0  0  0  0  0
  161.7530  202.3530  149.2100 N   0  0  2  0  0  0  0  0  0  0  0  0
  161.0380  202.3360  150.4820 C   0  0  1  0  0  3  0  0  0  0  0  0
  161.9660  201.9990  151.6400 C   0  0  0  0  0  2  0  0  0  0  0  0
  161.5920  203.4360  151.3700 C   0  0  2  0  0  3  0  0  0  0  0  0
  160.5100  203.8660  152.3480 C   0  0  0  0  0  2  0  0  0  0  0  0
  160.9850  205.0660  153.1510 C   0  0  0  0  0  1  0  0  0  0  0  0
  161.7150  203.6690  145.8870 C   0  0  0  0  0  2  0  0  0  0  0  0
  162.2460  204.6180  145.0060 O   0  0  0  0  0  0  0  0  0  0  0  0
  159.5970  204.1740  144.2980 O   0  0  0  0  0  0  0  0  0  0  0  0
  160.9270  205.2000  144.1040 P   0  0  1  0  0  0  0  0  0  0  0  0
  160.5500  206.5760  144.6070 O   0  0  0  0  0  1  0  0  0  0  0  0
  161.3570  205.2440  142.4310 O   0  0  0  0  0  0  0  0  0  0  0  0
  163.1260  206.6780  142.1580 O   0  0  0  0  0  0  0  0  0  0  0  0
  161.9590  206.3460  141.8160 C   0  0  0  0  0  0  0  0  0  0  0  0
  161.2610  207.1190  140.7350 C   0  0  0  0  0  2  0  0  0  0  0  0
  162.3330  206.5840  138.5280 C   0  0  0  0  0  1  0  0  0  0  0  0
  162.2180  207.6110  139.6420 C   0  0  1  0  0  3  0  0  0  0  0  0
  161.6450  208.8850  139.0350 C   0  0  0  0  0  2  0  0  0  0  0  0
  161.8720  210.0980  139.8880 C   0  0  0  0  0  0  0  0  0  0  0  0
  162.9640  210.3220  140.3880 O   0  0  0  0  0  0  0  0  0  0  0  0
  160.4840  211.1840  140.2380 S   0  0  0  0  0  0  0  0  0  0  0  0
  161.6350  213.5670  139.9380 O   0  0  0  0  0  0  0  0  0  0  0  0
  161.9430  212.1110  138.1860 O   0  0  0  0  0  0  0  0  0  0  0  0
  162.6670  213.2620  137.8800 C   0  0  0  0  0  2  0  0  0  0  0  0
  161.0490  212.5510  139.1720 C   0  0  0  0  0  3  0  0  0  0  0  0
  162.4810  214.2080  139.0360 C   0  0  0  0  0  2  0  0  0  0  0  0
  161.9710  205.5100  147.5840 C   0  0  0  0  0  2  0  0  0  0  0  0
  160.4150  207.2840  148.6170 C   0  0  2  0  0  3  0  0  0  0  0  0
  160.0660  205.9130  149.1530 C   0  0  0  0  0  2  0  0  0  0  0  0
  160.5470  206.0420  147.7240 C   0  0  2  0  0  3  0  0  0  0  0  0
  162.5370  210.0430  149.6870 C   0  0  2  0  0  3  0  0  0  0  0  0
  162.0830  209.1100  148.5850 C   0  0  0  0  0  2  0  0  0  0  0  0
  162.7090  208.3010  151.3770 O   0  0  0  0  0  0  0  0  0  0  0  0
  161.7050  207.7900  149.2480 C   0  0  1  0  0  3  0  0  0  0  0  0
  161.9850  209.4360  150.9690 C   0  0  2  0  0  0  0  0  0  0  0  0
  161.4700  208.0760  150.7290 C   0  0  2  0  0  3  0  0  0  0  0  0
  161.9710  211.6920  149.3270 Cl  0  0  0  0  0  0  0  0  0  0  0  0
  161.5520  209.8230  153.2880 O   0  0  0  0  0  0  0  0  0  0  0  0
  161.3440  210.1890  152.1010 C   0  0  0  0  0  0  0  0  0  0  0  0
  160.4560  211.2370  151.8360 O   0  0  0  0  0  0  0  0  0  0  0  0
  159.4260  212.6950  153.4700 C   0  0  1  0  0  3  0  0  0  0  0  0
  159.2760  211.4510  152.6040 C   0  0  1  0  0  3  0  0  0  0  0  0
  159.2590  213.4320  151.2150 O   0  0  0  0  0  1  0  0  0  0  0  0
  158.5680  212.7530  152.2190 C   0  0  2  0  0  3  0  0  0  0  0  0
  158.6130  212.5670  154.6810 N   0  0  0  0  0  0  0  0  0  0  0  0
  160.4530  212.6530  156.1420 O   0  0  0  0  0  0  0  0  0  0  0  0
  157.0740  211.4300  156.6590 N   0  0  0  0  0  2  0  0  0  0  0  0
  157.2500  212.5830  154.6390 O   0  0  0  0  0  0  0  0  0  0  0  0
  156.8360  211.3700  155.2120 C   0  0  0  0  0  2  0  0  0  0  0  0
  158.5170  211.4780  156.9400 C   0  0  0  0  0  2  0  0  0  0  0  0
  159.2580  212.3080  155.9350 C   0  0  0  0  0  0  0  0  0  0  0  0
  1 11  1  6  0  0  0
  1 31  1  0  0  0  0
  2  1  1  6  0  0  0
  2  5  1  0  0  0  0
  4  3  1  6  0  0  0
  4  2  1  0  0  0  0
  4  5  1  0  0  0  0
  5  6  1  1  0  0  0
  6  8  1  0  0  0  0
  6  7  1  1  0  0  0
  8  7  1  0  0  0  0
  8  9  1  1  0  0  0
  9 10  1  0  0  0  0
 12 11  1  0  0  0  0
 14 13  2  1  0  0  0
 14 15  1  0  0  0  0
 14 12  1  0  0  0  0
 16 14  1  0  0  0  0
 18 17  2  0  0  0  0
 18 16  1  0  0  0  0
 19 18  1  0  0  0  0
 21 20  1  6  0  0  0
 21 19  1  0  0  0  0
 22 21  1  0  0  0  0
 22 23  1  0  0  0  0
 23 25  1  0  0  0  0
 23 24  2  0  0  0  0
 27 29  1  0  0  0  0
 28 27  1  0  0  0  0
 28 30  1  0  0  0  0
 29 26  1  0  0  0  0
 29 25  1  0  0  0  0
 30 26  1  0  0  0  0
 32 33  1  1  0  0  0
 32 38  1  0  0  0  0
 34 31  1  1  0  0  0
 34 32  1  0  0  0  0
 34 33  1  0  0  0  0
 35 41  1  6  0  0  0
 35 39  1  0  0  0  0
 36 35  1  0  0  0  0
 38 36  1  6  0  0  0
 38 40  1  0  0  0  0
 39 37  1  0  0  0  0
 39 43  1  1  0  0  0
 40 39  1  0  0  0  0
 40 37  1  1  0  0  0
 43 42  2  0  0  0  0
 44 43  1  0  0  0  0
 45 49  1  1  0  0  0
 46 44  1  6  0  0  0
 46 45  1  0  0  0  0
 48 47  1  6  0  0  0
 48 46  1  0  0  0  0
 48 45  1  0  0  0  0
 49 55  1  0  0  0  0
 51 54  1  0  0  0  0
 52 49  1  0  0  0  0
 52 53  1  0  0  0  0
 53 51  1  0  0  0  0
 55 50  2  0  0  0  0
 55 54  1  0  0  0  0
M  END
>  <MODEL>
6

>  <REMARK>
 VINA RESULT:      -3.3      4.312     10.367
  Name = 
  21 active torsions:
  status: ('A' for Active; 'I' for Inactive)
    1  A    between atoms: C_2  and  C_15
    2  A    between atoms: C_2  and  C_37
    3  A    between atoms: C_4  and  N_6
    4  A    between atoms: O_7  and  C_18
    5  A    between atoms: O_7  and  C_20
    6  A    between atoms: CA_9  and  C_41
    7  A    between atoms: C_11  and  S_17
    8  A    between atoms: C_11  and  C_53
    9  A    between atoms: C_15  and  C_53
   10  A    between atoms: C_16  and  O_39
   11  A    between atoms: C_16  and  C_41
   12  A    between atoms: S_17  and  C_35
   13  A    between atoms: C_20  and  C_36
   14  A    between atoms: C_22  and  C_26
   15  A    between atoms: P_23  and  O_25
   16  A    between atoms: P_23  and  O_39
   17  A    between atoms: O_25  and  C_37
   18  A    between atoms: C_29  and  C_41
   19  A    between atoms: C_29  and  C_45
   20  A    between atoms: C_30  and  N_50
   21  A    between atoms: C_42  and  C_43
                            x       y       z     vdW  Elec       q    Type
                         _______ _______ _______ _____ _____    ______ ____

>  <TORSDO>
F 21

$$$$
=
 OpenBabel11072410023D

 55 62  0  0  1  0  0  0  0  0999 V2000
  161.4510  205.1060  150.4580 C   0  0  1  0  0  3  0  0  0  0  0  0
  161.6500  203.5840  150.4590 C   0  0  1  0  0  3  0  0  0  0  0  0
  160.4680  203.7340  152.5410 O   0  0  0  0  0  1  0  0  0  0  0  0
  161.1000  202.8830  151.6330 C   0  0  1  0  0  3  0  0  0  0  0  0
  160.3550  202.8870  150.3600 N   0  0  2  0  0  0  0  0  0  0  0  0
  160.6240  201.6420  149.6470 C   0  0  1  0  0  3  0  0  0  0  0  0
  159.3380  200.9720  149.1870 C   0  0  0  0  0  2  0  0  0  0  0  0
  160.1510  201.7870  148.2120 C   0  0  2  0  0  3  0  0  0  0  0  0
  160.9650  200.8520  147.3320 C   0  0  0  0  0  2  0  0  0  0  0  0
  160.7820  201.2270  145.8700 C   0  0  0  0  0  1  0  0  0  0  0  0
  160.4500  205.6110  149.3970 C   0  0  0  0  0  2  0  0  0  0  0  0
  160.6710  205.0680  148.1260 O   0  0  0  0  0  0  0  0  0  0  0  0
  162.6610  206.2030  146.5550 O   0  0  0  0  0  1  0  0  0  0  0  0
  161.0800  206.3820  147.1270 P   0  0  1  0  0  0  0  0  0  0  0  0
  160.1400  206.4130  145.9410 O   0  0  0  0  0  0  0  0  0  0  0  0
  160.9780  207.8440  148.0400 O   0  0  0  0  0  0  0  0  0  0  0  0
  163.2440  208.1230  148.2550 O   0  0  0  0  0  0  0  0  0  0  0  0
  162.0880  208.4880  148.5970 C   0  0  0  0  0  0  0  0  0  0  0  0
  161.9310  209.6250  149.5650 C   0  0  0  0  0  2  0  0  0  0  0  0
  163.3700  211.3860  148.4980 C   0  0  0  0  0  1  0  0  0  0  0  0
  161.9510  210.9970  148.8800 C   0  0  1  0  0  3  0  0  0  0  0  0
  161.1380  210.9090  147.5960 C   0  0  0  0  0  2  0  0  0  0  0  0
  160.6320  212.2410  147.1250 C   0  0  0  0  0  0  0  0  0  0  0  0
  160.8890  213.2650  147.7390 O   0  0  0  0  0  0  0  0  0  0  0  0
  159.5640  212.3020  145.6820 S   0  0  0  0  0  0  0  0  0  0  0  0
  161.9450  213.4290  145.2880 O   0  0  0  0  0  0  0  0  0  0  0  0
  161.1420  212.2050  143.5150 O   0  0  0  0  0  0  0  0  0  0  0  0
  162.4120  212.6520  143.1500 C   0  0  0  0  0  2  0  0  0  0  0  0
  160.7990  213.0570  144.5740 C   0  0  0  0  0  3  0  0  0  0  0  0
  162.9440  213.4370  144.3190 C   0  0  0  0  0  2  0  0  0  0  0  0
  161.0230  205.5840  151.8470 C   0  0  0  0  0  2  0  0  0  0  0  0
  161.9800  206.6260  154.0000 C   0  0  2  0  0  3  0  0  0  0  0  0
  162.7530  207.1200  152.7960 C   0  0  0  0  0  2  0  0  0  0  0  0
  162.2140  205.7060  152.7930 C   0  0  2  0  0  3  0  0  0  0  0  0
  159.6740  208.9330  155.6180 C   0  0  2  0  0  3  0  0  0  0  0  0
  160.2710  207.5450  155.5340 C   0  0  0  0  0  2  0  0  0  0  0  0
  159.3730  209.1770  153.2150 O   0  0  0  0  0  0  0  0  0  0  0  0
  160.6150  207.2970  154.0690 C   0  0  1  0  0  3  0  0  0  0  0  0
  160.1020  209.6250  154.3310 C   0  0  2  0  0  0  0  0  0  0  0  0
  160.6800  208.6580  153.3800 C   0  0  2  0  0  3  0  0  0  0  0  0
  160.2250  209.7180  157.1170 Cl  0  0  0  0  0  0  0  0  0  0  0  0
  161.5470  211.4310  154.9330 O   0  0  0  0  0  0  0  0  0  0  0  0
  160.5960  211.0400  154.2080 C   0  0  0  0  0  0  0  0  0  0  0  0
  159.9490  211.9390  153.3520 O   0  0  0  0  0  0  0  0  0  0  0  0
  158.7570  213.7560  154.4170 C   0  0  1  0  0  3  0  0  0  0  0  0
  158.6510  212.4570  153.6290 C   0  0  1  0  0  3  0  0  0  0  0  0
  159.5310  214.2120  152.2150 O   0  0  0  0  0  1  0  0  0  0  0  0
  158.4110  213.8020  152.9380 C   0  0  2  0  0  3  0  0  0  0  0  0
  157.5710  213.9320  155.2570 N   0  0  0  0  0  0  0  0  0  0  0  0
  158.6930  213.4190  157.2590 O   0  0  0  0  0  0  0  0  0  0  0  0
  155.1510  213.4180  156.4620 N   0  0  0  0  0  2  0  0  0  0  0  0
  156.3950  214.4070  154.7550 O   0  0  0  0  0  0  0  0  0  0  0  0
  155.4370  213.4150  155.0220 C   0  0  0  0  0  2  0  0  0  0  0  0
  156.3320  212.9820  157.2220 C   0  0  0  0  0  2  0  0  0  0  0  0
  157.6070  213.4940  156.6220 C   0  0  0  0  0  0  0  0  0  0  0  0
  1 11  1  6  0  0  0
  1 31  1  0  0  0  0
  2  1  1  1  0  0  0
  2  4  1  0  0  0  0
  4  3  1  1  0  0  0
  5  6  1  6  0  0  0
  5  2  1  0  0  0  0
  5  4  1  0  0  0  0
  6  7  1  1  0  0  0
  8  9  1  6  0  0  0
  8  7  1  0  0  0  0
  8  6  1  0  0  0  0
 10  9  1  0  0  0  0
 12 11  1  0  0  0  0
 13 14  1  0  0  0  0
 14 15  2  6  0  0  0
 14 16  1  0  0  0  0
 14 12  1  0  0  0  0
 16 18  1  0  0  0  0
 17 18  2  0  0  0  0
 18 19  1  0  0  0  0
 21 20  1  6  0  0  0
 21 19  1  0  0  0  0
 22 21  1  0  0  0  0
 23 22  1  0  0  0  0
 23 24  2  0  0  0  0
 25 23  1  0  0  0  0
 27 29  1  0  0  0  0
 28 27  1  0  0  0  0
 28 30  1  0  0  0  0
 29 26  1  0  0  0  0
 29 25  1  0  0  0  0
 30 26  1  0  0  0  0
 32 33  1  6  0  0  0
 32 38  1  0  0  0  0
 34 31  1  6  0  0  0
 34 33  1  0  0  0  0
 34 32  1  0  0  0  0
 35 41  1  1  0  0  0
 36 35  1  0  0  0  0
 37 39  1  0  0  0  0
 38 36  1  1  0  0  0
 39 43  1  1  0  0  0
 39 35  1  0  0  0  0
 40 37  1  6  0  0  0
 40 38  1  0  0  0  0
 40 39  1  0  0  0  0
 43 42  2  0  0  0  0
 44 43  1  0  0  0  0
 45 49  1  1  0  0  0
 46 44  1  6  0  0  0
 46 45  1  0  0  0  0
 48 47  1  6  0  0  0
 48 46  1  0  0  0  0
 48 45  1  0  0  0  0
 49 55  1  0  0  0  0
 51 54  1  0  0  0  0
 52 53  1  0  0  0  0
 52 49  1  0  0  0  0
 53 51  1  0  0  0  0
 55 54  1  0  0  0  0
 55 50  2  0  0  0  0
M  END
>  <MODEL>
7

>  <REMARK>
 VINA RESULT:      -3.3      4.388     10.343
  Name = 
  21 active torsions:
  status: ('A' for Active; 'I' for Inactive)
    1  A    between atoms: C_2  and  C_15
    2  A    between atoms: C_2  and  C_37
    3  A    between atoms: C_4  and  N_6
    4  A    between atoms: O_7  and  C_18
    5  A    between atoms: O_7  and  C_20
    6  A    between atoms: CA_9  and  C_41
    7  A    between atoms: C_11  and  S_17
    8  A    between atoms: C_11  and  C_53
    9  A    between atoms: C_15  and  C_53
   10  A    between atoms: C_16  and  O_39
   11  A    between atoms: C_16  and  C_41
   12  A    between atoms: S_17  and  C_35
   13  A    between atoms: C_20  and  C_36
   14  A    between atoms: C_22  and  C_26
   15  A    between atoms: P_23  and  O_25
   16  A    between atoms: P_23  and  O_39
   17  A    between atoms: O_25  and  C_37
   18  A    between atoms: C_29  and  C_41
   19  A    between atoms: C_29  and  C_45
   20  A    between atoms: C_30  and  N_50
   21  A    between atoms: C_42  and  C_43
                            x       y       z     vdW  Elec       q    Type
                         _______ _______ _______ _____ _____    ______ ____

>  <TORSDO>
F 21

$$$$
=
 OpenBabel11072410023D

 55 62  0  0  1  0  0  0  0  0999 V2000
  162.1440  204.1800  147.1460 C   0  0  1  0  0  3  0  0  0  0  0  0
  161.0170  203.4560  147.8950 C   0  0  1  0  0  3  0  0  0  0  0  0
  161.5180  201.7020  146.3380 O   0  0  0  0  0  1  0  0  0  0  0  0
  160.7080  202.1020  147.4020 C   0  0  1  0  0  3  0  0  0  0  0  0
  161.5380  202.2770  148.6090 N   0  0  2  0  0  0  0  0  0  0  0  0
  160.6970  202.1200  149.7910 C   0  0  1  0  0  3  0  0  0  0  0  0
  161.3110  201.1490  150.7900 C   0  0  0  0  0  2  0  0  0  0  0  0
  161.4540  202.6360  151.0020 C   0  0  2  0  0  3  0  0  0  0  0  0
  160.4500  203.0930  152.0480 C   0  0  0  0  0  2  0  0  0  0  0  0
  160.8310  204.4700  152.5660 C   0  0  0  0  0  1  0  0  0  0  0  0
  162.1550  203.9250  145.6230 C   0  0  0  0  0  2  0  0  0  0  0  0
  162.5720  205.0360  144.8800 O   0  0  0  0  0  0  0  0  0  0  0  0
  160.0050  204.3280  144.0890 O   0  0  0  0  0  0  0  0  0  0  0  0
  161.2540  205.4500  143.8890 P   0  0  1  0  0  0  0  0  0  0  0  0
  160.7420  206.8160  144.2920 O   0  0  0  0  0  1  0  0  0  0  0  0
  161.7570  205.4360  142.2370 O   0  0  0  0  0  0  0  0  0  0  0  0
  163.3810  206.9100  141.5670 O   0  0  0  0  0  0  0  0  0  0  0  0
  162.1660  206.5790  141.5420 C   0  0  0  0  0  0  0  0  0  0  0  0
  161.1950  207.3990  140.7420 C   0  0  0  0  0  2  0  0  0  0  0  0
  162.3340  206.6070  138.6490 C   0  0  0  0  0  1  0  0  0  0  0  0
  161.7490  207.8090  139.3720 C   0  0  1  0  0  3  0  0  0  0  0  0
  160.6010  208.3410  138.5260 C   0  0  0  0  0  2  0  0  0  0  0  0
  160.5270  209.8390  138.5070 C   0  0  0  0  0  0  0  0  0  0  0  0
  159.5010  210.4240  138.8170 O   0  0  0  0  0  0  0  0  0  0  0  0
  161.9550  210.7700  137.9380 S   0  0  0  0  0  0  0  0  0  0  0  0
  162.2180  211.5260  140.4780 O   0  0  0  0  0  0  0  0  0  0  0  0
  162.6640  213.1620  138.9250 O   0  0  0  0  0  0  0  0  0  0  0  0
  162.9200  213.7200  140.1780 C   0  0  0  0  0  2  0  0  0  0  0  0
  161.8620  212.0530  139.2300 C   0  0  0  0  0  3  0  0  0  0  0  0
  162.6460  212.6420  141.1920 C   0  0  0  0  0  2  0  0  0  0  0  0
  162.0810  205.6840  147.4210 C   0  0  0  0  0  2  0  0  0  0  0  0
  160.4350  207.3390  148.5100 C   0  0  2  0  0  3  0  0  0  0  0  0
  160.0870  205.9220  148.9110 C   0  0  0  0  0  2  0  0  0  0  0  0
  160.6410  206.1790  147.5260 C   0  0  2  0  0  3  0  0  0  0  0  0
  162.3390  210.0020  150.1050 C   0  0  2  0  0  3  0  0  0  0  0  0
  161.9660  209.2530  148.8440 C   0  0  0  0  0  2  0  0  0  0  0  0
  162.6210  207.9990  151.4600 O   0  0  0  0  0  0  0  0  0  0  0  0
  161.6780  207.8120  149.2510 C   0  0  1  0  0  3  0  0  0  0  0  0
  161.8210  209.1360  151.2460 C   0  0  2  0  0  0  0  0  0  0  0  0
  161.4090  207.8090  150.7540 C   0  0  2  0  0  3  0  0  0  0  0  0
  161.6590  211.6440  150.0340 Cl  0  0  0  0  0  0  0  0  0  0  0  0
  159.9510  210.0960  152.3840 O   0  0  0  0  0  0  0  0  0  0  0  0
  161.1150  209.6260  152.4790 C   0  0  0  0  0  0  0  0  0  0  0  0
  161.7770  209.6360  153.7120 O   0  0  0  0  0  0  0  0  0  0  0  0
  160.0360  210.0970  155.3290 C   0  0  1  0  0  3  0  0  0  0  0  0
  161.3960  210.5040  154.7750 C   0  0  1  0  0  3  0  0  0  0  0  0
  161.5820  208.4060  155.9660 O   0  0  0  0  0  1  0  0  0  0  0  0
  161.2940  209.7630  156.1120 C   0  0  2  0  0  3  0  0  0  0  0  0
  159.3480  211.2660  155.8800 N   0  0  0  0  0  0  0  0  0  0  0  0
  157.1950  210.4050  155.4910 O   0  0  0  0  0  0  0  0  0  0  0  0
  158.3140  213.8080  156.0790 N   0  0  0  0  0  2  0  0  0  0  0  0
  160.0250  212.2780  156.4940 O   0  0  0  0  0  0  0  0  0  0  0  0
  159.7030  213.4420  155.7770 C   0  0  0  0  0  2  0  0  0  0  0  0
  157.3890  212.7980  155.5440 C   0  0  0  0  0  2  0  0  0  0  0  0
  157.9350  211.4080  155.6780 C   0  0  0  0  0  0  0  0  0  0  0  0
  1 11  1  6  0  0  0
  1 31  1  0  0  0  0
  2  1  1  6  0  0  0
  2  5  1  0  0  0  0
  4  3  1  6  0  0  0
  4  2  1  0  0  0  0
  4  5  1  0  0  0  0
  5  6  1  1  0  0  0
  6  7  1  1  0  0  0
  6  8  1  0  0  0  0
  7  8  1  0  0  0  0
  8  9  1  1  0  0  0
  9 10  1  0  0  0  0
 12 11  1  0  0  0  0
 14 13  2  1  0  0  0
 14 15  1  0  0  0  0
 14 12  1  0  0  0  0
 16 14  1  0  0  0  0
 18 17  2  0  0  0  0
 18 16  1  0  0  0  0
 19 18  1  0  0  0  0
 21 20  1  6  0  0  0
 21 19  1  0  0  0  0
 22 21  1  0  0  0  0
 23 22  1  0  0  0  0
 23 24  2  0  0  0  0
 25 23  1  0  0  0  0
 25 29  1  0  0  0  0
 26 30  1  0  0  0  0
 27 29  1  0  0  0  0
 27 28  1  0  0  0  0
 28 30  1  0  0  0  0
 29 26  1  0  0  0  0
 32 33  1  1  0  0  0
 32 38  1  0  0  0  0
 34 31  1  1  0  0  0
 34 32  1  0  0  0  0
 34 33  1  0  0  0  0
 35 41  1  6  0  0  0
 35 39  1  0  0  0  0
 36 35  1  0  0  0  0
 38 36  1  6  0  0  0
 38 40  1  0  0  0  0
 39 37  1  0  0  0  0
 39 43  1  1  0  0  0
 40 39  1  0  0  0  0
 40 37  1  1  0  0  0
 42 43  2  0  0  0  0
 43 44  1  0  0  0  0
 45 49  1  1  0  0  0
 45 48  1  0  0  0  0
 46 44  1  6  0  0  0
 46 45  1  0  0  0  0
 46 48  1  0  0  0  0
 48 47  1  6  0  0  0
 49 52  1  0  0  0  0
 50 55  2  0  0  0  0
 53 51  1  0  0  0  0
 53 52  1  0  0  0  0
 54 55  1  0  0  0  0
 54 51  1  0  0  0  0
 55 49  1  0  0  0  0
M  END
>  <MODEL>
8

>  <REMARK>
 VINA RESULT:      -3.2      4.385     10.769
  Name = 
  21 active torsions:
  status: ('A' for Active; 'I' for Inactive)
    1  A    between atoms: C_2  and  C_15
    2  A    between atoms: C_2  and  C_37
    3  A    between atoms: C_4  and  N_6
    4  A    between atoms: O_7  and  C_18
    5  A    between atoms: O_7  and  C_20
    6  A    between atoms: CA_9  and  C_41
    7  A    between atoms: C_11  and  S_17
    8  A    between atoms: C_11  and  C_53
    9  A    between atoms: C_15  and  C_53
   10  A    between atoms: C_16  and  O_39
   11  A    between atoms: C_16  and  C_41
   12  A    between atoms: S_17  and  C_35
   13  A    between atoms: C_20  and  C_36
   14  A    between atoms: C_22  and  C_26
   15  A    between atoms: P_23  and  O_25
   16  A    between atoms: P_23  and  O_39
   17  A    between atoms: O_25  and  C_37
   18  A    between atoms: C_29  and  C_41
   19  A    between atoms: C_29  and  C_45
   20  A    between atoms: C_30  and  N_50
   21  A    between atoms: C_42  and  C_43
                            x       y       z     vdW  Elec       q    Type
                         _______ _______ _______ _____ _____    ______ ____

>  <TORSDO>
F 21

$$$$
=
 OpenBabel11072410023D

 55 62  0  0  1  0  0  0  0  0999 V2000
  161.3570  204.7550  150.2790 C   0  0  1  0  0  3  0  0  0  0  0  0
  161.5180  203.2300  150.3370 C   0  0  1  0  0  3  0  0  0  0  0  0
  160.7520  203.5380  152.5890 O   0  0  0  0  0  1  0  0  0  0  0  0
  161.1820  202.6150  151.6330 C   0  0  1  0  0  3  0  0  0  0  0  0
  160.2110  202.5740  150.5230 N   0  0  2  0  0  0  0  0  0  0  0  0
  160.3130  201.2820  149.8510 C   0  0  1  0  0  3  0  0  0  0  0  0
  159.1470  201.0530  148.9000 C   0  0  0  0  0  2  0  0  0  0  0  0
  160.4770  201.5170  148.3610 C   0  0  2  0  0  3  0  0  0  0  0  0
  161.2150  200.3330  147.7570 C   0  0  0  0  0  2  0  0  0  0  0  0
  161.2730  200.4730  146.2450 C   0  0  0  0  0  1  0  0  0  0  0  0
  160.3010  205.2410  149.2630 C   0  0  0  0  0  2  0  0  0  0  0  0
  160.5610  204.8220  147.9530 O   0  0  0  0  0  0  0  0  0  0  0  0
  162.7270  206.0520  146.7230 O   0  0  0  0  0  1  0  0  0  0  0  0
  161.0900  206.2080  147.1210 P   0  0  1  0  0  0  0  0  0  0  0  0
  160.2960  206.3510  145.8410 O   0  0  0  0  0  0  0  0  0  0  0  0
  160.8920  207.5910  148.1350 O   0  0  0  0  0  0  0  0  0  0  0  0
  162.9130  208.6160  147.7850 O   0  0  0  0  0  0  0  0  0  0  0  0
  161.9530  208.3920  148.5690 C   0  0  0  0  0  0  0  0  0  0  0  0
  161.9560  209.0170  149.9340 C   0  0  0  0  0  2  0  0  0  0  0  0
  161.7860  211.1380  151.2680 C   0  0  0  0  0  1  0  0  0  0  0  0
  161.5400  210.4930  149.9150 C   0  0  1  0  0  3  0  0  0  0  0  0
  162.4000  211.2240  148.8940 C   0  0  0  0  0  2  0  0  0  0  0  0
  161.7460  212.4600  148.3480 C   0  0  0  0  0  0  0  0  0  0  0  0
  161.5510  213.4350  149.0580 O   0  0  0  0  0  0  0  0  0  0  0  0
  161.1720  212.4580  146.6460 S   0  0  0  0  0  0  0  0  0  0  0  0
  159.2700  214.3020  146.9230 O   0  0  0  0  0  0  0  0  0  0  0  0
  158.5320  212.2420  146.2190 O   0  0  0  0  0  0  0  0  0  0  0  0
  157.4180  213.0800  146.2370 C   0  0  0  0  0  2  0  0  0  0  0  0
  159.4500  212.9170  147.0340 C   0  0  0  0  0  3  0  0  0  0  0  0
  157.9060  214.4340  146.6790 C   0  0  0  0  0  2  0  0  0  0  0  0
  161.0340  205.3060  151.6690 C   0  0  0  0  0  2  0  0  0  0  0  0
  162.2140  206.5470  153.5940 C   0  0  2  0  0  3  0  0  0  0  0  0
  162.9480  206.7900  152.2930 C   0  0  0  0  0  2  0  0  0  0  0  0
  162.2900  205.4470  152.5250 C   0  0  2  0  0  3  0  0  0  0  0  0
  159.6120  208.2520  155.4860 C   0  0  2  0  0  3  0  0  0  0  0  0
  160.1540  206.9680  154.8960 C   0  0  0  0  0  2  0  0  0  0  0  0
  160.0700  209.5990  153.5110 O   0  0  0  0  0  0  0  0  0  0  0  0
  160.9190  207.3470  153.6340 C   0  0  1  0  0  3  0  0  0  0  0  0
  160.4390  209.3590  154.8460 C   0  0  2  0  0  0  0  0  0  0  0  0
  161.2430  208.8360  153.7270 C   0  0  2  0  0  3  0  0  0  0  0  0
  159.7080  208.1680  157.2610 Cl  0  0  0  0  0  0  0  0  0  0  0  0
  161.5130  210.4360  156.6900 O   0  0  0  0  0  0  0  0  0  0  0  0
  160.9990  210.5650  155.5490 C   0  0  0  0  0  0  0  0  0  0  0  0
  160.8770  211.8350  154.9740 O   0  0  0  0  0  0  0  0  0  0  0  0
  158.9470  212.2710  156.3680 C   0  0  1  0  0  3  0  0  0  0  0  0
  159.6850  212.6080  155.0780 C   0  0  1  0  0  3  0  0  0  0  0  0
  160.9210  213.4480  156.9810 O   0  0  0  0  0  1  0  0  0  0  0  0
  159.7280  213.5710  156.2680 C   0  0  2  0  0  3  0  0  0  0  0  0
  157.5100  212.4880  156.1950 N   0  0  0  0  0  0  0  0  0  0  0  0
  157.1100  210.3430  155.3190 O   0  0  0  0  0  0  0  0  0  0  0  0
  155.1340  213.3820  155.1320 N   0  0  0  0  0  2  0  0  0  0  0  0
  156.8900  213.6150  156.6500 O   0  0  0  0  0  0  0  0  0  0  0  0
  156.2880  214.2000  155.5240 C   0  0  0  0  0  2  0  0  0  0  0  0
  155.5770  212.0650  154.6500 C   0  0  0  0  0  2  0  0  0  0  0  0
  156.7440  211.5440  155.4330 C   0  0  0  0  0  0  0  0  0  0  0  0
  1 11  1  6  0  0  0
  1 31  1  0  0  0  0
  2  1  1  1  0  0  0
  2  5  1  0  0  0  0
  2  4  1  0  0  0  0
  4  3  1  1  0  0  0
  5  6  1  6  0  0  0
  5  4  1  0  0  0  0
  6  7  1  6  0  0  0
  8  9  1  6  0  0  0
  8  7  1  0  0  0  0
  8  6  1  0  0  0  0
 10  9  1  0  0  0  0
 12 11  1  0  0  0  0
 13 14  1  0  0  0  0
 14 15  2  6  0  0  0
 14 12  1  0  0  0  0
 14 16  1  0  0  0  0
 16 18  1  0  0  0  0
 17 18  2  0  0  0  0
 18 19  1  0  0  0  0
 21 19  1  0  0  0  0
 21 20  1  1  0  0  0
 22 21  1  0  0  0  0
 23 22  1  0  0  0  0
 23 24  2  0  0  0  0
 25 29  1  0  0  0  0
 25 23  1  0  0  0  0
 26 29  1  0  0  0  0
 27 28  1  0  0  0  0
 27 29  1  0  0  0  0
 28 30  1  0  0  0  0
 30 26  1  0  0  0  0
 32 33  1  6  0  0  0
 32 38  1  0  0  0  0
 33 34  1  0  0  0  0
 34 31  1  6  0  0  0
 34 32  1  0  0  0  0
 35 41  1  1  0  0  0
 36 35  1  0  0  0  0
 37 39  1  0  0  0  0
 38 40  1  0  0  0  0
 38 36  1  1  0  0  0
 39 35  1  0  0  0  0
 39 43  1  1  0  0  0
 40 37  1  6  0  0  0
 40 39  1  0  0  0  0
 43 42  2  0  0  0  0
 44 43  1  0  0  0  0
 45 49  1  6  0  0  0
 46 44  1  1  0  0  0
 46 48  1  0  0  0  0
 46 45  1  0  0  0  0
 48 45  1  0  0  0  0
 48 47  1  1  0  0  0
 49 52  1  0  0  0  0
 50 55  2  0  0  0  0
 51 53  1  0  0  0  0
 53 52  1  0  0  0  0
 54 51  1  0  0  0  0
 54 55  1  0  0  0  0
 55 49  1  0  0  0  0
M  END
>  <MODEL>
9

>  <REMARK>
 VINA RESULT:      -3.1      4.913     10.737
  Name = 
  21 active torsions:
  status: ('A' for Active; 'I' for Inactive)
    1  A    between atoms: C_2  and  C_15
    2  A    between atoms: C_2  and  C_37
    3  A    between atoms: C_4  and  N_6
    4  A    between atoms: O_7  and  C_18
    5  A    between atoms: O_7  and  C_20
    6  A    between atoms: CA_9  and  C_41
    7  A    between atoms: C_11  and  S_17
    8  A    between atoms: C_11  and  C_53
    9  A    between atoms: C_15  and  C_53
   10  A    between atoms: C_16  and  O_39
   11  A    between atoms: C_16  and  C_41
   12  A    between atoms: S_17  and  C_35
   13  A    between atoms: C_20  and  C_36
   14  A    between atoms: C_22  and  C_26
   15  A    between atoms: P_23  and  O_25
   16  A    between atoms: P_23  and  O_39
   17  A    between atoms: O_25  and  C_37
   18  A    between atoms: C_29  and  C_41
   19  A    between atoms: C_29  and  C_45
   20  A    between atoms: C_30  and  N_50
   21  A    between atoms: C_42  and  C_43
                            x       y       z     vdW  Elec       q    Type
                         _______ _______ _______ _____ _____    ______ ____

>  <TORSDO>
F 21

$$$$
