=
 OpenBabel11072411323D

 52 57  0  0  1  0  0  0  0  0999 V2000
  159.9850  213.2530  148.6280 C   0  0  1  0  0  3  0  0  0  0  0  0
  159.2430  214.4530  149.2120 C   0  0  0  0  0  1  0  0  0  0  0  0
  160.5260  212.3170  149.7090 C   0  0  2  0  0  3  0  0  0  0  0  0
  160.4730  212.9250  150.9690 O   0  0  0  0  0  1  0  0  0  0  0  0
  161.9510  211.8550  149.3780 C   0  0  2  0  0  3  0  0  0  0  0  0
  163.7980  212.0790  147.7060 C   0  0  0  0  0  1  0  0  0  0  0  0
  162.5390  212.7080  148.2610 C   0  0  0  0  0  2  0  0  0  0  0  0
  162.0060  210.3730  148.9970 C   0  0  0  0  0  2  0  0  0  0  0  0
  162.2720  209.5630  150.1120 O   0  0  0  0  0  0  0  0  0  0  0  0
  161.4010  208.4660  150.0140 C   0  0  1  0  0  3  0  0  0  0  0  0
  161.6300  207.7070  148.7410 C   0  0  0  0  0  0  0  0  0  0  0  0
  160.6480  207.2620  148.0900 O   0  0  0  0  0  0  0  0  0  0  0  0
  162.9200  207.4740  148.2790 O   0  0  0  0  0  1  0  0  0  0  0  0
  161.5610  207.5310  151.2200 C   0  0  2  0  0  3  0  0  0  0  0  0
  161.2710  205.1630  152.0970 C   0  0  0  0  0  1  0  0  0  0  0  0
  161.1510  206.0930  150.8980 C   0  0  0  0  0  2  0  0  0  0  0  0
  160.8800  208.0730  152.4750 C   0  0  0  0  0  2  0  0  0  0  0  0
  161.3760  207.4370  153.6180 O   0  0  0  0  0  0  0  0  0  0  0  0
  161.2370  208.3750  154.6450 C   0  0  0  0  0  2  0  0  0  0  0  0
  160.9150  209.7470  154.0670 C   0  0  0  0  0  2  0  0  0  0  0  0
  160.7820  210.7580  155.1900 C   0  0  0  0  0  2  0  0  0  0  0  0
  159.6690  212.7590  155.8580 O   0  0  0  0  0  1  0  0  0  0  0  0
  159.8590  211.8930  154.7730 C   0  0  2  0  0  3  0  0  0  0  0  0
  157.4910  212.4150  154.1650 C   0  0  0  0  0  2  0  0  0  0  0  0
  158.1960  211.8580  152.9480 C   0  0  0  0  0  2  0  0  0  0  0  0
  158.5240  211.3140  154.3240 C   0  0  0  0  0  3  0  0  0  0  0  0
  159.1180  212.4750  147.6400 C   0  0  0  0  0  2  0  0  0  0  0  0
  158.2070  213.3860  146.8780 C   0  0  0  0  0  0  0  0  0  0  0  0
  157.1570  213.7830  147.4450 O   0  0  0  0  0  0  0  0  0  0  0  0
  157.5340  213.9900  144.6620 N   0  0  0  0  0  2  0  0  0  0  0  0
  158.5090  213.8350  145.4990 C   0  0  0  0  0  0  0  0  0  0  0  0
  160.8390  214.0920  145.8900 O   0  0  0  0  0  0  0  0  0  0  0  0
  159.8880  214.1280  145.0620 C   0  0  0  0  0  0  0  0  0  0  0  0
  160.1890  214.4530  143.6290 C   0  0  0  0  0  2  0  0  0  0  0  0
  160.5250  213.1380  141.3570 C   0  0  1  0  0  3  0  0  0  0  0  0
  161.7970  212.5560  143.4020 O   0  0  0  0  0  1  0  0  0  0  0  0
  159.7650  212.4270  142.3150 O   0  0  0  0  0  0  0  0  0  0  0  0
  160.7600  213.2840  142.8180 C   0  0  1  0  0  0  0  0  0  0  0  0
  161.5240  212.1970  140.6970 C   0  0  1  0  0  3  0  0  0  0  0  0
  159.0790  208.8740  137.9630 O   0  0  0  0  0  0  0  0  0  0  0  0
  161.4410  209.4450  138.6010 C   0  0  0  0  0  2  0  0  0  0  0  0
  161.1770  211.6670  139.3100 C   0  0  2  0  0  0  0  0  0  0  0  0
  163.3670  211.4890  137.9780 C   0  0  0  0  0  1  0  0  0  0  0  0
  162.9060  213.2060  140.0340 S   0  0  0  0  0  0  0  0  0  0  0  0
  160.3710  210.3500  139.1150 C   0  0  1  0  0  0  0  0  0  0  0  0
  160.1190  208.1890  137.3810 C   0  0  0  0  0  2  0  0  0  0  0  0
  162.2670  212.3860  138.5220 C   0  0  2  0  0  3  0  0  0  0  0  0
  160.2520  209.6460  137.7230 C   0  0  2  0  0  0  0  0  0  0  0  0
  159.8510  211.7280  138.6300 C   0  0  1  0  0  3  0  0  0  0  0  0
  158.6520  212.1300  139.4800 C   0  0  0  0  0  2  0  0  0  0  0  0
  157.4650  211.7310  138.8640 O   0  0  0  0  0  0  0  0  0  0  0  0
  157.4780  212.3790  137.6300 C   0  0  0  0  0  1  0  0  0  0  0  0
  1  2  1  1  0  0  0
  1  3  1  0  0  0  0
  3  4  1  1  0  0  0
  5  7  1  6  0  0  0
  5  3  1  0  0  0  0
  6  7  1  0  0  0  0
  8  5  1  0  0  0  0
  8  9  1  0  0  0  0
 10 11  1  6  0  0  0
 10  9  1  0  0  0  0
 10 14  1  0  0  0  0
 12 11  2  0  0  0  0
 13 11  1  0  0  0  0
 14 16  1  6  0  0  0
 14 17  1  0  0  0  0
 16 15  1  0  0  0  0
 17 18  1  0  0  0  0
 18 19  1  0  0  0  0
 20 19  1  0  0  0  0
 20 21  1  0  0  0  0
 23 21  1  0  0  0  0
 23 22  1  1  0  0  0
 24 26  1  0  0  0  0
 25 24  1  0  0  0  0
 25 26  1  0  0  0  0
 26 23  1  0  0  0  0
 27  1  1  0  0  0  0
 28 29  2  0  0  0  0
 28 27  1  0  0  0  0
 30 31  2  0  0  0  0
 31 28  1  0  0  0  0
 33 31  1  0  0  0  0
 33 32  2  0  0  0  0
 34 33  1  0  0  0  0
 35 37  1  1  0  0  0
 35 38  1  0  0  0  0
 37 38  1  0  0  0  0
 38 36  1  1  0  0  0
 38 34  1  0  0  0  0
 39 44  1  6  0  0  0
 39 35  1  0  0  0  0
 41 45  1  0  0  0  0
 42 39  1  0  0  0  0
 43 47  1  0  0  0  0
 45 42  1  0  0  0  0
 46 48  1  0  0  0  0
 46 40  1  0  0  0  0
 47 42  1  0  0  0  0
 47 44  1  0  0  0  0
 48 40  1  0  0  0  0
 48 41  1  0  0  0  0
 48 45  1  0  0  0  0
 49 45  1  0  0  0  0
 49 42  1  0  0  0  0
 49 50  1  0  0  0  0
 51 50  1  0  0  0  0
 52 51  1  0  0  0  0
M  END
>  <MODEL>
1

>  <REMARK>
 VINA RESULT:      -4.4      0.000      0.000
  Name = 
  25 active torsions:
  status: ('A' for Active; 'I' for Inactive)
    1  A    between atoms: C_2  and  C_6
    2  A    between atoms: C_7  and  O_42
    3  A    between atoms: C_7  and  C_50
    4  A    between atoms: C_11  and  C_18
    5  A    between atoms: C_11  and  C_22
    6  A    between atoms: C_11  and  O_35
    7  A    between atoms: C_12  and  C_43
    8  A    between atoms: C_12  and  C_47
    9  A    between atoms: C_13  and  C_25
   10  A    between atoms: C_13  and  C_30
   11  A    between atoms: C_14  and  C_26
   12  A    between atoms: C_14  and  O_35
   13  A    between atoms: C_19  and  C_22
   14  A    between atoms: O_20  and  C_38
   15  A    between atoms: O_20  and  C_47
   16  A    between atoms: C_21  and  C_26
   17  A    between atoms: C_21  and  C_37
   18  A    between atoms: C_22  and  C_38
   19  A    between atoms: C_25  and  C_40
   20  A    between atoms: C_26  and  C_31
   21  A    between atoms: C_30  and  C_44
   22  A    between atoms: C_37  and  C_44
   23  A    between atoms: C_40  and  C_51
   24  A    between atoms: C_41  and  C_43
   25  A    between atoms: C_41  and  C_48
                            x       y       z     vdW  Elec       q    Type
                         _______ _______ _______ _____ _____    ______ ____

>  <TORSDO>
F 25

$$$$
=
 OpenBabel11072411323D

 52 57  0  0  1  0  0  0  0  0999 V2000
  160.7650  212.7880  148.4800 C   0  0  1  0  0  3  0  0  0  0  0  0
  160.4780  214.1160  149.1770 C   0  0  0  0  0  1  0  0  0  0  0  0
  160.9610  211.6380  149.4690 C   0  0  2  0  0  3  0  0  0  0  0  0
  160.9390  212.1050  150.7880 O   0  0  0  0  0  1  0  0  0  0  0  0
  162.2580  210.8710  149.1750 C   0  0  2  0  0  3  0  0  0  0  0  0
  163.6210  212.9130  148.6990 C   0  0  0  0  0  1  0  0  0  0  0  0
  163.0900  211.6140  148.1360 C   0  0  0  0  0  2  0  0  0  0  0  0
  161.9900  209.4370  148.7130 C   0  0  0  0  0  2  0  0  0  0  0  0
  162.1530  208.5180  149.7610 O   0  0  0  0  0  0  0  0  0  0  0  0
  161.0250  207.6820  149.7260 C   0  0  1  0  0  3  0  0  0  0  0  0
  160.8670  207.0460  148.3770 C   0  0  0  0  0  0  0  0  0  0  0  0
  159.8120  206.4130  148.1020 O   0  0  0  0  0  1  0  0  0  0  0  0
  161.8800  207.1350  147.4300 O   0  0  0  0  0  0  0  0  0  0  0  0
  161.1130  206.5990  150.8100 C   0  0  2  0  0  3  0  0  0  0  0  0
  161.0710  206.5680  153.3510 C   0  0  0  0  0  1  0  0  0  0  0  0
  161.7430  207.1210  152.1020 C   0  0  0  0  0  2  0  0  0  0  0  0
  161.7750  205.3190  150.3040 C   0  0  0  0  0  2  0  0  0  0  0  0
  161.2670  204.2030  150.9780 O   0  0  0  0  0  0  0  0  0  0  0  0
  160.3480  203.6320  150.0940 C   0  0  0  0  0  2  0  0  0  0  0  0
  160.8210  202.2500  149.6620 C   0  0  0  0  0  2  0  0  0  0  0  0
  161.3410  202.3090  148.2380 C   0  0  0  0  0  2  0  0  0  0  0  0
  161.5400  199.9540  147.9150 O   0  0  0  0  0  1  0  0  0  0  0  0
  160.8710  201.0930  147.4520 C   0  0  2  0  0  3  0  0  0  0  0  0
  159.9030  201.7070  145.2300 C   0  0  0  0  0  2  0  0  0  0  0  0
  160.9070  202.7630  145.6340 C   0  0  0  0  0  2  0  0  0  0  0  0
  161.1660  201.3090  145.9730 C   0  0  0  0  0  3  0  0  0  0  0  0
  159.6810  212.4340  147.4640 C   0  0  0  0  0  2  0  0  0  0  0  0
  159.1080  213.6610  146.8270 C   0  0  0  0  0  0  0  0  0  0  0  0
  158.3650  214.3980  147.5250 O   0  0  0  0  0  0  0  0  0  0  0  0
  158.4190  214.3950  144.6560 N   0  0  0  0  0  2  0  0  0  0  0  0
  159.3970  214.0320  145.4230 C   0  0  0  0  0  0  0  0  0  0  0  0
  161.7300  213.6180  145.5950 O   0  0  0  0  0  0  0  0  0  0  0  0
  160.7690  214.0160  144.8810 C   0  0  0  0  0  0  0  0  0  0  0  0
  161.0470  214.4520  143.4730 C   0  0  0  0  0  2  0  0  0  0  0  0
  160.5460  213.3140  141.1380 C   0  0  1  0  0  3  0  0  0  0  0  0
  162.2600  212.4170  142.6850 O   0  0  0  0  0  1  0  0  0  0  0  0
  160.0040  212.6100  142.2390 O   0  0  0  0  0  0  0  0  0  0  0  0
  161.2050  213.3030  142.4710 C   0  0  1  0  0  0  0  0  0  0  0  0
  161.1830  212.3300  140.1660 C   0  0  1  0  0  3  0  0  0  0  0  0
  157.6260  209.7410  137.8980 O   0  0  0  0  0  0  0  0  0  0  0  0
  160.1330  209.8930  137.9440 C   0  0  0  0  0  2  0  0  0  0  0  0
  160.4230  212.0270  138.8780 C   0  0  2  0  0  0  0  0  0  0  0  0
  162.1610  211.7080  137.0120 C   0  0  0  0  0  1  0  0  0  0  0  0
  162.5090  213.2090  139.2510 S   0  0  0  0  0  0  0  0  0  0  0  0
  159.3870  210.8690  138.7910 C   0  0  1  0  0  0  0  0  0  0  0  0
  158.3630  208.9930  137.0110 C   0  0  0  0  0  2  0  0  0  0  0  0
  161.3920  212.6770  137.8950 C   0  0  2  0  0  3  0  0  0  0  0  0
  158.8160  210.3640  137.4260 C   0  0  2  0  0  0  0  0  0  0  0  0
  159.0010  212.3560  138.5740 C   0  0  1  0  0  3  0  0  0  0  0  0
  158.1300  212.8140  139.7360 C   0  0  0  0  0  2  0  0  0  0  0  0
  157.4660  213.9960  139.4090 O   0  0  0  0  0  0  0  0  0  0  0  0
  156.1320  213.7480  139.7310 C   0  0  0  0  0  1  0  0  0  0  0  0
  1  2  1  1  0  0  0
  1  3  1  0  0  0  0
  3  4  1  1  0  0  0
  5  7  1  6  0  0  0
  5  3  1  0  0  0  0
  7  6  1  0  0  0  0
  8  5  1  0  0  0  0
  8  9  1  0  0  0  0
 10 11  1  6  0  0  0
 10  9  1  0  0  0  0
 10 14  1  0  0  0  0
 12 11  1  0  0  0  0
 13 11  2  0  0  0  0
 14 17  1  6  0  0  0
 14 16  1  0  0  0  0
 16 15  1  0  0  0  0
 17 18  1  0  0  0  0
 19 18  1  0  0  0  0
 20 19  1  0  0  0  0
 21 20  1  0  0  0  0
 23 22  1  1  0  0  0
 23 21  1  0  0  0  0
 24 25  1  0  0  0  0
 24 26  1  0  0  0  0
 25 26  1  0  0  0  0
 26 23  1  0  0  0  0
 27  1  1  0  0  0  0
 28 27  1  0  0  0  0
 28 29  2  0  0  0  0
 30 31  2  0  0  0  0
 31 28  1  0  0  0  0
 33 31  1  0  0  0  0
 33 32  2  0  0  0  0
 34 33  1  0  0  0  0
 35 37  1  1  0  0  0
 35 38  1  0  0  0  0
 37 38  1  0  0  0  0
 38 36  1  1  0  0  0
 38 34  1  0  0  0  0
 39 44  1  6  0  0  0
 39 35  1  0  0  0  0
 41 45  1  0  0  0  0
 42 39  1  0  0  0  0
 43 47  1  0  0  0  0
 45 42  1  0  0  0  0
 46 48  1  0  0  0  0
 46 40  1  0  0  0  0
 47 42  1  0  0  0  0
 47 44  1  0  0  0  0
 48 40  1  0  0  0  0
 48 41  1  0  0  0  0
 48 45  1  0  0  0  0
 49 45  1  0  0  0  0
 49 42  1  0  0  0  0
 49 50  1  0  0  0  0
 51 52  1  0  0  0  0
 51 50  1  0  0  0  0
M  END
>  <MODEL>
2

>  <REMARK>
 VINA RESULT:      -4.3      2.572      4.921
  Name = 
  25 active torsions:
  status: ('A' for Active; 'I' for Inactive)
    1  A    between atoms: C_2  and  C_6
    2  A    between atoms: C_7  and  O_42
    3  A    between atoms: C_7  and  C_50
    4  A    between atoms: C_11  and  C_18
    5  A    between atoms: C_11  and  C_22
    6  A    between atoms: C_11  and  O_35
    7  A    between atoms: C_12  and  C_43
    8  A    between atoms: C_12  and  C_47
    9  A    between atoms: C_13  and  C_25
   10  A    between atoms: C_13  and  C_30
   11  A    between atoms: C_14  and  C_26
   12  A    between atoms: C_14  and  O_35
   13  A    between atoms: C_19  and  C_22
   14  A    between atoms: O_20  and  C_38
   15  A    between atoms: O_20  and  C_47
   16  A    between atoms: C_21  and  C_26
   17  A    between atoms: C_21  and  C_37
   18  A    between atoms: C_22  and  C_38
   19  A    between atoms: C_25  and  C_40
   20  A    between atoms: C_26  and  C_31
   21  A    between atoms: C_30  and  C_44
   22  A    between atoms: C_37  and  C_44
   23  A    between atoms: C_40  and  C_51
   24  A    between atoms: C_41  and  C_43
   25  A    between atoms: C_41  and  C_48
                            x       y       z     vdW  Elec       q    Type
                         _______ _______ _______ _____ _____    ______ ____

>  <TORSDO>
F 25

$$$$
=
 OpenBabel11072411323D

 52 57  0  0  1  0  0  0  0  0999 V2000
  161.3530  207.1850  153.6810 C   0  0  1  0  0  3  0  0  0  0  0  0
  160.1960  206.5900  154.4810 C   0  0  0  0  0  1  0  0  0  0  0  0
  161.0950  207.1620  152.1740 C   0  0  2  0  0  3  0  0  0  0  0  0
  160.0350  208.0120  151.8360 O   0  0  0  0  0  1  0  0  0  0  0  0
  160.8370  205.7330  151.6780 C   0  0  2  0  0  3  0  0  0  0  0  0
  163.3240  205.6950  151.9430 C   0  0  0  0  0  1  0  0  0  0  0  0
  162.0630  204.8600  151.9160 C   0  0  0  0  0  2  0  0  0  0  0  0
  160.4390  205.6950  150.2010 C   0  0  0  0  0  2  0  0  0  0  0  0
  161.5520  205.4880  149.3710 O   0  0  0  0  0  0  0  0  0  0  0  0
  161.3340  206.2660  148.2230 C   0  0  1  0  0  3  0  0  0  0  0  0
  161.9840  207.6120  148.3520 C   0  0  0  0  0  0  0  0  0  0  0  0
  161.3260  208.5870  148.8030 O   0  0  0  0  0  1  0  0  0  0  0  0
  163.3060  207.7990  147.9630 O   0  0  0  0  0  0  0  0  0  0  0  0
  161.8530  205.5500  146.9700 C   0  0  2  0  0  3  0  0  0  0  0  0
  159.9170  206.6650  145.7590 C   0  0  0  0  0  1  0  0  0  0  0  0
  161.3680  206.2130  145.6790 C   0  0  0  0  0  2  0  0  0  0  0  0
  161.5800  204.0470  147.0010 C   0  0  0  0  0  2  0  0  0  0  0  0
  161.8700  203.4680  145.7610 O   0  0  0  0  0  0  0  0  0  0  0  0
  160.6640  202.9090  145.3300 C   0  0  0  0  0  2  0  0  0  0  0  0
  160.7080  201.3920  145.4650 C   0  0  0  0  0  2  0  0  0  0  0  0
  160.1680  200.9830  146.8220 C   0  0  0  0  0  2  0  0  0  0  0  0
  161.6780  199.2420  147.4380 O   0  0  0  0  0  1  0  0  0  0  0  0
  161.3070  200.5590  147.7380 C   0  0  2  0  0  3  0  0  0  0  0  0
  161.1330  202.0380  149.7470 C   0  0  0  0  0  2  0  0  0  0  0  0
  159.7390  201.6870  149.2770 C   0  0  0  0  0  2  0  0  0  0  0  0
  160.8460  200.6560  149.1870 C   0  0  0  0  0  3  0  0  0  0  0  0
  161.6910  208.6010  154.1400 C   0  0  0  0  0  2  0  0  0  0  0  0
  161.5950  209.5790  153.0110 C   0  0  0  0  0  0  0  0  0  0  0  0
  162.4090  209.4650  152.0590 O   0  0  0  0  0  0  0  0  0  0  0  0
  159.7090  210.7250  153.9360 N   0  0  0  0  0  2  0  0  0  0  0  0
  160.5760  210.6530  152.9790 C   0  0  0  0  0  0  0  0  0  0  0  0
  161.0320  211.3880  150.7650 O   0  0  0  0  0  0  0  0  0  0  0  0
  160.5370  211.6530  151.8950 C   0  0  0  0  0  0  0  0  0  0  0  0
  159.8940  212.9930  152.1050 C   0  0  0  0  0  2  0  0  0  0  0  0
  159.8870  213.2630  149.4730 C   0  0  1  0  0  3  0  0  0  0  0  0
  158.2530  214.4470  150.9100 O   0  0  0  0  0  1  0  0  0  0  0  0
  160.4330  214.3760  150.1560 O   0  0  0  0  0  0  0  0  0  0  0  0
  159.4110  213.6750  150.8210 C   0  0  1  0  0  0  0  0  0  0  0  0
  158.9690  213.7470  148.3580 C   0  0  1  0  0  3  0  0  0  0  0  0
  161.3550  213.4430  144.0330 O   0  0  0  0  0  0  0  0  0  0  0  0
  159.1250  214.1740  144.9270 C   0  0  0  0  0  2  0  0  0  0  0  0
  159.1020  213.0690  146.9980 C   0  0  2  0  0  0  0  0  0  0  0  0
  156.7500  212.9290  145.9710 C   0  0  0  0  0  1  0  0  0  0  0  0
  157.3070  213.0180  148.6310 S   0  0  0  0  0  0  0  0  0  0  0  0
  160.0840  213.5960  145.9130 C   0  0  1  0  0  0  0  0  0  0  0  0
  160.3650  213.8170  143.1550 C   0  0  0  0  0  2  0  0  0  0  0  0
  157.7480  212.3670  146.9710 C   0  0  2  0  0  3  0  0  0  0  0  0
  160.0310  213.0990  144.4310 C   0  0  2  0  0  0  0  0  0  0  0  0
  160.2090  212.1820  146.5400 C   0  0  1  0  0  3  0  0  0  0  0  0
  161.4640  212.1340  147.4020 C   0  0  0  0  0  2  0  0  0  0  0  0
  162.0640  213.3920  147.4570 O   0  0  0  0  0  0  0  0  0  0  0  0
  163.1510  213.2230  148.3140 C   0  0  0  0  0  1  0  0  0  0  0  0
  1 27  1  0  0  0  0
  1  2  1  1  0  0  0
  3  4  1  1  0  0  0
  3  1  1  0  0  0  0
  5  8  1  6  0  0  0
  5  7  1  0  0  0  0
  5  3  1  0  0  0  0
  7  6  1  0  0  0  0
  9  8  1  0  0  0  0
 10 11  1  1  0  0  0
 10  9  1  0  0  0  0
 11 12  1  0  0  0  0
 13 11  2  0  0  0  0
 14 16  1  6  0  0  0
 14 17  1  0  0  0  0
 14 10  1  0  0  0  0
 16 15  1  0  0  0  0
 18 17  1  0  0  0  0
 19 20  1  0  0  0  0
 19 18  1  0  0  0  0
 20 21  1  0  0  0  0
 21 23  1  0  0  0  0
 23 22  1  6  0  0  0
 23 26  1  0  0  0  0
 25 24  1  0  0  0  0
 26 25  1  0  0  0  0
 26 24  1  0  0  0  0
 28 27  1  0  0  0  0
 29 28  2  0  0  0  0
 31 28  1  0  0  0  0
 31 30  2  0  0  0  0
 32 33  2  0  0  0  0
 33 34  1  0  0  0  0
 33 31  1  0  0  0  0
 35 37  1  6  0  0  0
 35 38  1  0  0  0  0
 37 38  1  0  0  0  0
 38 36  1  1  0  0  0
 38 34  1  0  0  0  0
 39 44  1  1  0  0  0
 39 35  1  0  0  0  0
 40 48  1  0  0  0  0
 41 45  1  0  0  0  0
 42 39  1  0  0  0  0
 43 47  1  0  0  0  0
 45 49  1  0  0  0  0
 45 42  1  0  0  0  0
 46 40  1  0  0  0  0
 46 48  1  0  0  0  0
 47 42  1  0  0  0  0
 47 44  1  0  0  0  0
 48 41  1  0  0  0  0
 48 45  1  0  0  0  0
 49 42  1  0  0  0  0
 49 50  1  0  0  0  0
 50 51  1  0  0  0  0
 51 52  1  0  0  0  0
M  END
>  <MODEL>
3

>  <REMARK>
 VINA RESULT:      -2.9      3.960      8.612
  Name = 
  25 active torsions:
  status: ('A' for Active; 'I' for Inactive)
    1  A    between atoms: C_2  and  C_6
    2  A    between atoms: C_7  and  O_42
    3  A    between atoms: C_7  and  C_50
    4  A    between atoms: C_11  and  C_18
    5  A    between atoms: C_11  and  C_22
    6  A    between atoms: C_11  and  O_35
    7  A    between atoms: C_12  and  C_43
    8  A    between atoms: C_12  and  C_47
    9  A    between atoms: C_13  and  C_25
   10  A    between atoms: C_13  and  C_30
   11  A    between atoms: C_14  and  C_26
   12  A    between atoms: C_14  and  O_35
   13  A    between atoms: C_19  and  C_22
   14  A    between atoms: O_20  and  C_38
   15  A    between atoms: O_20  and  C_47
   16  A    between atoms: C_21  and  C_26
   17  A    between atoms: C_21  and  C_37
   18  A    between atoms: C_22  and  C_38
   19  A    between atoms: C_25  and  C_40
   20  A    between atoms: C_26  and  C_31
   21  A    between atoms: C_30  and  C_44
   22  A    between atoms: C_37  and  C_44
   23  A    between atoms: C_40  and  C_51
   24  A    between atoms: C_41  and  C_43
   25  A    between atoms: C_41  and  C_48
                            x       y       z     vdW  Elec       q    Type
                         _______ _______ _______ _____ _____    ______ ____

>  <TORSDO>
F 25

$$$$
=
 OpenBabel11072411323D

 52 58  0  0  1  0  0  0  0  0999 V2000
  161.1720  202.7980  150.3090 C   0  0  1  0  0  3  0  0  0  0  0  0
  161.8000  202.0330  151.4710 C   0  0  0  0  0  1  0  0  0  0  0  0
  160.1920  201.9420  149.5060 C   0  0  2  0  0  3  0  0  0  0  0  0
  159.8390  200.7880  150.2160 O   0  0  0  0  0  1  0  0  0  0  0  0
  160.7660  201.5890  148.1270 C   0  0  2  0  0  3  0  0  0  0  0  0
  161.4430  199.5940  146.7780 C   0  0  0  0  0  1  0  0  0  0  0  0
  161.4140  200.2100  148.1600 C   0  0  0  0  0  2  0  0  0  0  0  0
  161.7690  202.6340  147.6330 C   0  0  0  0  0  2  0  0  0  0  0  0
  161.1220  203.7420  147.0630 O   0  0  0  0  0  0  0  0  0  0  0  0
  161.9360  204.8530  147.3370 C   0  0  1  0  0  3  0  0  0  0  0  0
  162.9560  205.0540  146.2570 C   0  0  0  0  0  0  0  0  0  0  0  0
  162.6210  205.5940  145.1680 O   0  0  0  0  0  0  0  0  0  0  0  0
  164.2690  204.6360  146.4370 O   0  0  0  0  0  1  0  0  0  0  0  0
  161.0900  206.1220  147.5040 C   0  0  2  0  0  3  0  0  0  0  0  0
  160.2260  206.5320  145.1490 C   0  0  0  0  0  1  0  0  0  0  0  0
  159.8740  206.1360  146.5760 C   0  0  0  0  0  2  0  0  0  0  0  0
  161.9250  207.3980  147.4030 C   0  0  0  0  0  2  0  0  0  0  0  0
  162.3170  207.8300  148.6740 O   0  0  0  0  0  0  0  0  0  0  0  0
  161.7290  209.0890  148.8270 C   0  0  0  0  0  2  0  0  0  0  0  0
  162.5680  210.1520  148.1290 C   0  0  0  0  0  2  0  0  0  0  0  0
  162.1300  211.5310  148.5850 C   0  0  0  0  0  2  0  0  0  0  0  0
  162.6970  213.7630  147.9630 O   0  0  0  0  0  1  0  0  0  0  0  0
  162.2700  212.5330  147.4480 C   0  0  2  0  0  3  0  0  0  0  0  0
  159.9620  213.4760  147.6320 C   0  0  0  0  0  2  0  0  0  0  0  0
  160.6830  214.1680  146.4970 C   0  0  0  0  0  2  0  0  0  0  0  0
  160.9230  212.6940  146.7540 C   0  0  0  0  0  3  0  0  0  0  0  0
  160.4930  204.0840  150.7760 C   0  0  0  0  0  2  0  0  0  0  0  0
  160.9140  204.4510  152.1640 C   0  0  0  0  0  0  0  0  0  0  0  0
  160.6380  203.6520  153.0960 O   0  0  0  0  0  0  0  0  0  0  0  0
  162.8180  205.8850  151.9490 N   0  0  0  0  0  2  0  0  0  0  0  0
  161.6450  205.7030  152.4650 C   0  0  0  0  0  0  0  0  0  0  0  0
  160.4070  207.7030  152.8060 O   0  0  0  0  0  0  0  0  0  0  0  0
  161.0630  206.7550  153.3200 C   0  0  0  0  0  0  0  0  0  0  0  0
  161.2210  206.7110  154.8110 C   0  0  0  0  0  2  0  0  0  0  0  0
  161.4390  209.3270  155.1400 C   0  0  1  0  0  3  0  0  0  0  0  0
  159.7030  208.0050  156.3140 O   0  0  0  0  0  0  0  0  0  0  0  0
  161.9390  208.5760  156.2300 O   0  0  0  0  0  0  0  0  0  0  0  0
  160.8560  208.0150  155.5280 C   0  0  1  0  0  0  0  0  0  0  0  0
  160.6240  210.5040  155.6600 C   0  0  1  0  0  3  0  0  0  0  0  0
  159.5020  213.5070  151.8900 O   0  0  0  0  0  0  0  0  0  0  0  0
  159.1580  213.3630  154.3740 C   0  0  0  0  0  2  0  0  0  0  0  0
  159.5540  211.0780  154.7370 C   0  0  2  0  0  0  0  0  0  0  0  0
  157.5750  211.8070  156.2060 C   0  0  0  0  0  1  0  0  0  0  0  0
  159.3620  209.8540  156.8230 S   0  0  1  0  0  3  0  0  0  0  0  0
  159.8690  212.2210  153.7290 C   0  0  1  0  0  0  0  0  0  0  0  0
  158.7030  214.4350  152.5160 C   0  0  0  0  0  2  0  0  0  0  0  0
  158.3270  210.6640  155.5420 C   0  0  2  0  0  3  0  0  0  0  0  0
  158.7410  213.0090  152.9870 C   0  0  2  0  0  0  0  0  0  0  0  0
  159.3900  210.8160  153.2780 C   0  0  1  0  0  3  0  0  0  0  0  0
  160.5360  210.1090  152.5660 C   0  0  0  0  0  2  0  0  0  0  0  0
  161.3750  211.0400  151.9530 O   0  0  0  0  0  0  0  0  0  0  0  0
  162.6020  210.3870  151.8470 C   0  0  0  0  0  1  0  0  0  0  0  0
  1 27  1  0  0  0  0
  1  2  1  1  0  0  0
  3  4  1  1  0  0  0
  3  1  1  0  0  0  0
  5  8  1  1  0  0  0
  5  7  1  0  0  0  0
  5  3  1  0  0  0  0
  6  7  1  0  0  0  0
  9 10  1  0  0  0  0
  9  8  1  0  0  0  0
 10 11  1  6  0  0  0
 10 14  1  0  0  0  0
 11 13  1  0  0  0  0
 12 11  2  0  0  0  0
 14 16  1  6  0  0  0
 15 16  1  0  0  0  0
 17 14  1  0  0  0  0
 17 18  1  0  0  0  0
 18 19  1  0  0  0  0
 20 21  1  0  0  0  0
 20 19  1  0  0  0  0
 23 22  1  1  0  0  0
 23 21  1  0  0  0  0
 25 26  1  0  0  0  0
 25 24  1  0  0  0  0
 26 23  1  0  0  0  0
 26 24  1  0  0  0  0
 27 28  1  0  0  0  0
 28 31  1  0  0  0  0
 28 29  2  0  0  0  0
 30 31  2  0  0  0  0
 31 33  1  0  0  0  0
 32 33  2  0  0  0  0
 33 34  1  0  0  0  0
 35 38  1  0  0  0  0
 35 39  1  0  0  0  0
 35 37  1  1  0  0  0
 36 44  1  0  0  0  0
 38 34  1  6  0  0  0
 38 37  1  0  0  0  0
 38 36  1  0  0  0  0
 39 44  1  0  0  0  0
 40 46  1  0  0  0  0
 40 48  1  0  0  0  0
 42 47  1  0  0  0  0
 42 39  1  0  0  0  0
 45 41  1  0  0  0  0
 45 42  1  0  0  0  0
 46 48  1  0  0  0  0
 47 43  1  0  0  0  0
 47 44  1  0  0  0  0
 48 45  1  0  0  0  0
 48 41  1  0  0  0  0
 49 45  1  0  0  0  0
 49 42  1  0  0  0  0
 50 49  1  0  0  0  0
 51 50  1  0  0  0  0
 52 51  1  0  0  0  0
M  END
>  <MODEL>
4

>  <REMARK>
 VINA RESULT:      -2.9      5.477     11.593
  Name = 
  25 active torsions:
  status: ('A' for Active; 'I' for Inactive)
    1  A    between atoms: C_2  and  C_6
    2  A    between atoms: C_7  and  O_42
    3  A    between atoms: C_7  and  C_50
    4  A    between atoms: C_11  and  C_18
    5  A    between atoms: C_11  and  C_22
    6  A    between atoms: C_11  and  O_35
    7  A    between atoms: C_12  and  C_43
    8  A    between atoms: C_12  and  C_47
    9  A    between atoms: C_13  and  C_25
   10  A    between atoms: C_13  and  C_30
   11  A    between atoms: C_14  and  C_26
   12  A    between atoms: C_14  and  O_35
   13  A    between atoms: C_19  and  C_22
   14  A    between atoms: O_20  and  C_38
   15  A    between atoms: O_20  and  C_47
   16  A    between atoms: C_21  and  C_26
   17  A    between atoms: C_21  and  C_37
   18  A    between atoms: C_22  and  C_38
   19  A    between atoms: C_25  and  C_40
   20  A    between atoms: C_26  and  C_31
   21  A    between atoms: C_30  and  C_44
   22  A    between atoms: C_37  and  C_44
   23  A    between atoms: C_40  and  C_51
   24  A    between atoms: C_41  and  C_43
   25  A    between atoms: C_41  and  C_48
                            x       y       z     vdW  Elec       q    Type
                         _______ _______ _______ _____ _____    ______ ____

>  <TORSDO>
F 25

$$$$
=
 OpenBabel11072411323D

 52 57  0  0  1  0  0  0  0  0999 V2000
  162.1540  208.1380  149.6210 C   0  0  1  0  0  3  0  0  0  0  0  0
  163.0970  207.6570  148.5200 C   0  0  0  0  0  1  0  0  0  0  0  0
  161.4820  209.4670  149.2770 C   0  0  2  0  0  3  0  0  0  0  0  0
  162.0860  210.0580  148.1610 O   0  0  0  0  0  1  0  0  0  0  0  0
  161.4920  210.4200  150.4810 C   0  0  2  0  0  3  0  0  0  0  0  0
  160.9100  212.5810  149.3630 C   0  0  0  0  0  1  0  0  0  0  0  0
  161.9970  211.7960  150.0640 C   0  0  0  0  0  2  0  0  0  0  0  0
  162.3290  209.8780  151.6420 C   0  0  0  0  0  2  0  0  0  0  0  0
  162.3040  210.7450  152.7460 O   0  0  0  0  0  0  0  0  0  0  0  0
  161.1650  210.3980  153.4890 C   0  0  1  0  0  3  0  0  0  0  0  0
  161.5410  209.6520  154.7340 C   0  0  0  0  0  0  0  0  0  0  0  0
  162.3990  210.1340  155.5210 O   0  0  0  0  0  1  0  0  0  0  0  0
  160.9630  208.4210  155.0240 O   0  0  0  0  0  0  0  0  0  0  0  0
  160.3470  211.6440  153.8510 C   0  0  2  0  0  3  0  0  0  0  0  0
  160.0850  212.9750  156.0010 C   0  0  0  0  0  1  0  0  0  0  0  0
  159.8860  211.6330  155.3100 C   0  0  0  0  0  2  0  0  0  0  0  0
  159.2020  211.8970  152.8720 C   0  0  0  0  0  2  0  0  0  0  0  0
  159.0120  213.2690  152.6790 O   0  0  0  0  0  0  0  0  0  0  0  0
  158.2000  213.3680  151.5450 C   0  0  0  0  0  2  0  0  0  0  0  0
  156.8780  214.0360  151.9000 C   0  0  0  0  0  2  0  0  0  0  0  0
  156.7460  214.1410  153.4070 C   0  0  0  0  0  2  0  0  0  0  0  0
  154.3610  214.1770  153.3620 O   0  0  0  0  0  1  0  0  0  0  0  0
  155.4590  213.4740  153.8730 C   0  0  2  0  0  3  0  0  0  0  0  0
  156.2640  212.3430  155.9530 C   0  0  0  0  0  2  0  0  0  0  0  0
  156.8140  213.7520  155.9190 C   0  0  0  0  0  2  0  0  0  0  0  0
  155.4190  213.4750  155.3960 C   0  0  0  0  0  3  0  0  0  0  0  0
  161.1030  207.0860  149.9670 C   0  0  0  0  0  2  0  0  0  0  0  0
  161.1250  206.7500  151.4250 C   0  0  0  0  0  0  0  0  0  0  0  0
  160.3940  207.4220  152.1980 O   0  0  0  0  0  0  0  0  0  0  0  0
  163.2480  205.7900  151.9680 N   0  0  0  0  0  2  0  0  0  0  0  0
  161.9610  205.6570  151.9730 C   0  0  0  0  0  0  0  0  0  0  0  0
  160.4990  204.5120  153.4550 O   0  0  0  0  0  0  0  0  0  0  0  0
  161.3640  204.4330  152.5400 C   0  0  0  0  0  0  0  0  0  0  0  0
  161.7570  203.0770  152.0320 C   0  0  0  0  0  2  0  0  0  0  0  0
  161.3740  202.8110  149.4270 C   0  0  1  0  0  3  0  0  0  0  0  0
  159.9680  201.6180  151.0810 O   0  0  0  0  0  1  0  0  0  0  0  0
  160.4160  203.6380  150.0590 O   0  0  0  0  0  0  0  0  0  0  0  0
  160.9400  202.5870  150.8320 C   0  0  1  0  0  0  0  0  0  0  0  0
  160.6770  201.8780  148.4460 C   0  0  1  0  0  3  0  0  0  0  0  0
  159.6330  204.3620  144.2940 O   0  0  0  0  0  0  0  0  0  0  0  0
  159.3330  202.0630  145.2620 C   0  0  0  0  0  2  0  0  0  0  0  0
  160.9530  202.0910  146.9610 C   0  0  2  0  0  0  0  0  0  0  0  0
  160.9830  199.7780  145.8410 C   0  0  0  0  0  1  0  0  0  0  0  0
  161.5710  200.2760  148.4480 S   0  0  0  0  0  0  0  0  0  0  0  0
  160.0830  203.0480  146.0950 C   0  0  1  0  0  0  0  0  0  0  0  0
  159.1090  203.3620  143.5090 C   0  0  0  0  0  2  0  0  0  0  0  0
  161.7180  200.7990  146.6940 C   0  0  2  0  0  3  0  0  0  0  0  0
  160.1660  203.0630  144.5340 C   0  0  2  0  0  0  0  0  0  0  0  0
  161.6010  203.2750  146.3270 C   0  0  1  0  0  3  0  0  0  0  0  0
  161.7870  204.5130  147.1950 C   0  0  0  0  0  2  0  0  0  0  0  0
  162.8640  205.2710  146.7350 O   0  0  0  0  0  0  0  0  0  0  0  0
  163.6520  204.3630  146.0280 C   0  0  0  0  0  1  0  0  0  0  0  0
  1  2  1  6  0  0  0
  1 27  1  0  0  0  0
  3  4  1  6  0  0  0
  3  1  1  0  0  0  0
  3  5  1  0  0  0  0
  5  7  1  6  0  0  0
  5  8  1  0  0  0  0
  6  7  1  0  0  0  0
  8  9  1  0  0  0  0
 10  9  1  1  0  0  0
 10 14  1  0  0  0  0
 10 11  1  0  0  0  0
 11 13  2  0  0  0  0
 11 12  1  0  0  0  0
 14 17  1  6  0  0  0
 14 16  1  0  0  0  0
 16 15  1  0  0  0  0
 18 17  1  0  0  0  0
 19 20  1  0  0  0  0
 19 18  1  0  0  0  0
 20 21  1  0  0  0  0
 21 23  1  0  0  0  0
 23 22  1  6  0  0  0
 23 26  1  0  0  0  0
 25 24  1  0  0  0  0
 26 25  1  0  0  0  0
 26 24  1  0  0  0  0
 27 28  1  0  0  0  0
 28 31  1  0  0  0  0
 28 29  2  0  0  0  0
 30 31  2  0  0  0  0
 31 33  1  0  0  0  0
 33 32  2  0  0  0  0
 34 33  1  0  0  0  0
 35 37  1  6  0  0  0
 35 38  1  0  0  0  0
 37 38  1  0  0  0  0
 38 36  1  1  0  0  0
 38 34  1  0  0  0  0
 39 44  1  1  0  0  0
 39 35  1  0  0  0  0
 40 48  1  0  0  0  0
 41 45  1  0  0  0  0
 42 39  1  0  0  0  0
 43 47  1  0  0  0  0
 45 49  1  0  0  0  0
 45 42  1  0  0  0  0
 46 40  1  0  0  0  0
 46 48  1  0  0  0  0
 47 42  1  0  0  0  0
 47 44  1  0  0  0  0
 48 41  1  0  0  0  0
 48 45  1  0  0  0  0
 49 42  1  0  0  0  0
 49 50  1  0  0  0  0
 51 50  1  0  0  0  0
 52 51  1  0  0  0  0
M  END
>  <MODEL>
5

>  <REMARK>
 VINA RESULT:      -2.6      6.106      9.126
  Name = 
  25 active torsions:
  status: ('A' for Active; 'I' for Inactive)
    1  A    between atoms: C_2  and  C_6
    2  A    between atoms: C_7  and  O_42
    3  A    between atoms: C_7  and  C_50
    4  A    between atoms: C_11  and  C_18
    5  A    between atoms: C_11  and  C_22
    6  A    between atoms: C_11  and  O_35
    7  A    between atoms: C_12  and  C_43
    8  A    between atoms: C_12  and  C_47
    9  A    between atoms: C_13  and  C_25
   10  A    between atoms: C_13  and  C_30
   11  A    between atoms: C_14  and  C_26
   12  A    between atoms: C_14  and  O_35
   13  A    between atoms: C_19  and  C_22
   14  A    between atoms: O_20  and  C_38
   15  A    between atoms: O_20  and  C_47
   16  A    between atoms: C_21  and  C_26
   17  A    between atoms: C_21  and  C_37
   18  A    between atoms: C_22  and  C_38
   19  A    between atoms: C_25  and  C_40
   20  A    between atoms: C_26  and  C_31
   21  A    between atoms: C_30  and  C_44
   22  A    between atoms: C_37  and  C_44
   23  A    between atoms: C_40  and  C_51
   24  A    between atoms: C_41  and  C_43
   25  A    between atoms: C_41  and  C_48
                            x       y       z     vdW  Elec       q    Type
                         _______ _______ _______ _____ _____    ______ ____

>  <TORSDO>
F 25

$$$$
=
 OpenBabel11072411323D

 52 57  0  0  1  0  0  0  0  0999 V2000
  161.0690  203.0200  150.3070 C   0  0  1  0  0  3  0  0  0  0  0  0
  161.6670  202.3030  151.5150 C   0  0  0  0  0  1  0  0  0  0  0  0
  160.1270  202.1240  149.5020 C   0  0  2  0  0  3  0  0  0  0  0  0
  159.8090  200.9630  150.2180 O   0  0  0  0  0  1  0  0  0  0  0  0
  160.7250  201.7810  148.1310 C   0  0  2  0  0  3  0  0  0  0  0  0
  161.4970  199.7710  146.8600 C   0  0  0  0  0  1  0  0  0  0  0  0
  161.4960  200.4690  148.2020 C   0  0  0  0  0  2  0  0  0  0  0  0
  161.6260  202.8970  147.5980 C   0  0  0  0  0  2  0  0  0  0  0  0
  160.8770  203.9940  147.1450 O   0  0  0  0  0  0  0  0  0  0  0  0
  161.7280  205.1080  147.2240 C   0  0  1  0  0  3  0  0  0  0  0  0
  162.8330  205.0150  146.2150 C   0  0  0  0  0  0  0  0  0  0  0  0
  162.6140  205.3260  145.0130 O   0  0  0  0  0  0  0  0  0  0  0  0
  164.0970  204.5740  146.5890 O   0  0  0  0  0  1  0  0  0  0  0  0
  160.9430  206.4120  147.0260 C   0  0  2  0  0  3  0  0  0  0  0  0
  159.5920  205.2730  145.2000 C   0  0  0  0  0  1  0  0  0  0  0  0
  160.3500  206.5240  145.6210 C   0  0  0  0  0  2  0  0  0  0  0  0
  161.7500  207.6460  147.4280 C   0  0  0  0  0  2  0  0  0  0  0  0
  161.5230  207.9660  148.7700 O   0  0  0  0  0  0  0  0  0  0  0  0
  162.2400  209.1460  148.9880 C   0  0  0  0  0  2  0  0  0  0  0  0
  161.3990  210.3540  148.5940 C   0  0  0  0  0  2  0  0  0  0  0  0
  162.1770  211.6280  148.8610 C   0  0  0  0  0  2  0  0  0  0  0  0
  163.9100  212.4310  147.4310 O   0  0  0  0  0  1  0  0  0  0  0  0
  162.5190  212.3240  147.5510 C   0  0  2  0  0  3  0  0  0  0  0  0
  161.0310  213.8950  146.2970 C   0  0  0  0  0  2  0  0  0  0  0  0
  160.3780  213.5530  147.6180 C   0  0  0  0  0  2  0  0  0  0  0  0
  161.8830  213.7090  147.5400 C   0  0  0  0  0  3  0  0  0  0  0  0
  160.3590  204.3110  150.7070 C   0  0  0  0  0  2  0  0  0  0  0  0
  160.9900  204.9300  151.9140 C   0  0  0  0  0  0  0  0  0  0  0  0
  160.9510  204.2890  152.9960 O   0  0  0  0  0  0  0  0  0  0  0  0
  162.5400  206.4770  150.9510 N   0  0  0  0  0  2  0  0  0  0  0  0
  161.6580  206.2510  151.8700 C   0  0  0  0  0  0  0  0  0  0  0  0
  160.6960  207.0510  153.8900 O   0  0  0  0  0  0  0  0  0  0  0  0
  161.3290  207.3200  152.8320 C   0  0  0  0  0  0  0  0  0  0  0  0
  161.7550  208.7370  152.5850 C   0  0  0  0  0  2  0  0  0  0  0  0
  160.4000  210.1760  154.3430 C   0  0  1  0  0  3  0  0  0  0  0  0
  160.2770  210.6340  151.9120 O   0  0  0  0  0  1  0  0  0  0  0  0
  159.6000  209.2510  153.6320 O   0  0  0  0  0  0  0  0  0  0  0  0
  160.6990  209.7890  152.9390 C   0  0  1  0  0  0  0  0  0  0  0  0
  159.6750  211.5120  154.4380 C   0  0  1  0  0  3  0  0  0  0  0  0
  155.4330  210.8960  156.9120 O   0  0  0  0  0  0  0  0  0  0  0  0
  156.7140  212.7230  155.7580 C   0  0  0  0  0  2  0  0  0  0  0  0
  158.8630  211.7800  155.7010 C   0  0  2  0  0  0  0  0  0  0  0  0
  159.0820  214.2820  156.2460 C   0  0  0  0  0  1  0  0  0  0  0  0
  160.9060  212.7990  154.8810 S   0  0  0  0  0  0  0  0  0  0  0  0
  157.3630  211.3810  155.8100 C   0  0  1  0  0  0  0  0  0  0  0  0
  154.9750  212.1910  156.9830 C   0  0  0  0  0  2  0  0  0  0  0  0
  159.7200  212.9020  156.2780 C   0  0  2  0  0  3  0  0  0  0  0  0
  156.4470  211.8950  156.9690 C   0  0  2  0  0  0  0  0  0  0  0  0
  158.4570  210.7870  156.7370 C   0  0  1  0  0  3  0  0  0  0  0  0
  158.6440  209.3140  156.3980 C   0  0  0  0  0  2  0  0  0  0  0  0
  159.5750  208.7320  157.2590 O   0  0  0  0  0  0  0  0  0  0  0  0
  160.0580  207.6290  156.5570 C   0  0  0  0  0  1  0  0  0  0  0  0
  1 27  1  0  0  0  0
  1  2  1  1  0  0  0
  3  4  1  1  0  0  0
  3  1  1  0  0  0  0
  5  8  1  1  0  0  0
  5  7  1  0  0  0  0
  5  3  1  0  0  0  0
  6  7  1  0  0  0  0
  9 10  1  0  0  0  0
  9  8  1  0  0  0  0
 10 11  1  6  0  0  0
 11 13  1  0  0  0  0
 12 11  2  0  0  0  0
 14 16  1  6  0  0  0
 14 10  1  0  0  0  0
 14 17  1  0  0  0  0
 15 16  1  0  0  0  0
 17 18  1  0  0  0  0
 18 19  1  0  0  0  0
 20 21  1  0  0  0  0
 20 19  1  0  0  0  0
 23 22  1  1  0  0  0
 23 21  1  0  0  0  0
 24 26  1  0  0  0  0
 24 25  1  0  0  0  0
 26 23  1  0  0  0  0
 26 25  1  0  0  0  0
 27 28  1  0  0  0  0
 28 29  2  0  0  0  0
 30 31  2  0  0  0  0
 31 28  1  0  0  0  0
 31 33  1  0  0  0  0
 33 32  2  0  0  0  0
 34 33  1  0  0  0  0
 34 38  1  0  0  0  0
 35 37  1  6  0  0  0
 35 39  1  0  0  0  0
 38 36  1  6  0  0  0
 38 37  1  0  0  0  0
 38 35  1  0  0  0  0
 39 44  1  1  0  0  0
 39 42  1  0  0  0  0
 40 48  1  0  0  0  0
 40 46  1  0  0  0  0
 41 45  1  0  0  0  0
 41 48  1  0  0  0  0
 42 45  1  0  0  0  0
 42 47  1  0  0  0  0
 42 49  1  0  0  0  0
 43 47  1  0  0  0  0
 44 47  1  0  0  0  0
 45 49  1  0  0  0  0
 45 48  1  0  0  0  0
 48 46  1  0  0  0  0
 50 49  1  0  0  0  0
 50 51  1  0  0  0  0
 52 51  1  0  0  0  0
M  END
>  <MODEL>
6

>  <REMARK>
 VINA RESULT:      -2.4      5.333     12.099
  Name = 
  25 active torsions:
  status: ('A' for Active; 'I' for Inactive)
    1  A    between atoms: C_2  and  C_6
    2  A    between atoms: C_7  and  O_42
    3  A    between atoms: C_7  and  C_50
    4  A    between atoms: C_11  and  C_18
    5  A    between atoms: C_11  and  C_22
    6  A    between atoms: C_11  and  O_35
    7  A    between atoms: C_12  and  C_43
    8  A    between atoms: C_12  and  C_47
    9  A    between atoms: C_13  and  C_25
   10  A    between atoms: C_13  and  C_30
   11  A    between atoms: C_14  and  C_26
   12  A    between atoms: C_14  and  O_35
   13  A    between atoms: C_19  and  C_22
   14  A    between atoms: O_20  and  C_38
   15  A    between atoms: O_20  and  C_47
   16  A    between atoms: C_21  and  C_26
   17  A    between atoms: C_21  and  C_37
   18  A    between atoms: C_22  and  C_38
   19  A    between atoms: C_25  and  C_40
   20  A    between atoms: C_26  and  C_31
   21  A    between atoms: C_30  and  C_44
   22  A    between atoms: C_37  and  C_44
   23  A    between atoms: C_40  and  C_51
   24  A    between atoms: C_41  and  C_43
   25  A    between atoms: C_41  and  C_48
                            x       y       z     vdW  Elec       q    Type
                         _______ _______ _______ _____ _____    ______ ____

>  <TORSDO>
F 25

$$$$
=
 OpenBabel11072411323D

 52 58  0  0  1  0  0  0  0  0999 V2000
  161.7040  206.9150  151.3200 C   0  0  1  0  0  3  0  0  0  0  0  0
  162.3890  205.6440  151.8190 C   0  0  0  0  0  1  0  0  0  0  0  0
  160.6730  206.6320  150.2270 C   0  0  2  0  0  3  0  0  0  0  0  0
  160.0150  205.4190  150.4630 O   0  0  0  0  0  1  0  0  0  0  0  0
  161.3210  206.6490  148.8360 C   0  0  2  0  0  3  0  0  0  0  0  0
  161.6860  209.1210  148.7050 C   0  0  0  0  0  1  0  0  0  0  0  0
  162.3560  207.7650  148.7470 C   0  0  0  0  0  2  0  0  0  0  0  0
  160.2870  206.7960  147.7170 C   0  0  0  0  0  2  0  0  0  0  0  0
  160.8840  206.7150  146.4490 O   0  0  0  0  0  0  0  0  0  0  0  0
  160.9330  205.3490  146.1270 C   0  0  1  0  0  3  0  0  0  0  0  0
  161.0000  205.1470  144.6430 C   0  0  0  0  0  0  0  0  0  0  0  0
  159.9870  204.7310  144.0190 O   0  0  0  0  0  1  0  0  0  0  0  0
  162.1760  205.4000  143.9470 O   0  0  0  0  0  0  0  0  0  0  0  0
  162.1310  204.6700  146.8040 C   0  0  2  0  0  3  0  0  0  0  0  0
  164.3370  203.8870  145.8160 C   0  0  0  0  0  1  0  0  0  0  0  0
  163.4630  205.0800  146.1740 C   0  0  0  0  0  2  0  0  0  0  0  0
  161.9650  203.1540  146.9020 C   0  0  0  0  0  2  0  0  0  0  0  0
  160.9640  202.7110  146.0320 O   0  0  0  0  0  0  0  0  0  0  0  0
  161.0740  201.3180  146.0300 C   0  0  0  0  0  2  0  0  0  0  0  0
  161.0650  200.7870  147.4580 C   0  0  0  0  0  2  0  0  0  0  0  0
  160.2490  201.7100  148.3430 C   0  0  0  0  0  2  0  0  0  0  0  0
  159.3240  200.8340  150.3600 O   0  0  0  0  0  1  0  0  0  0  0  0
  160.4890  201.3850  149.8100 C   0  0  2  0  0  3  0  0  0  0  0  0
  160.5100  202.5500  152.0230 C   0  0  0  0  0  2  0  0  0  0  0  0
  161.9370  202.3360  151.5700 C   0  0  0  0  0  2  0  0  0  0  0  0
  160.8650  202.6630  150.5500 C   0  0  0  0  0  3  0  0  0  0  0  0
  161.0650  207.7010  152.4620 C   0  0  0  0  0  2  0  0  0  0  0  0
  161.2510  207.0070  153.7740 C   0  0  0  0  0  0  0  0  0  0  0  0
  161.9110  205.9360  153.7890 O   0  0  0  0  0  0  0  0  0  0  0  0
  159.7930  206.8630  155.6660 N   0  0  0  0  0  2  0  0  0  0  0  0
  160.6980  207.5440  155.0390 C   0  0  0  0  0  0  0  0  0  0  0  0
  162.1240  209.4440  155.0780 O   0  0  0  0  0  0  0  0  0  0  0  0
  161.1640  208.8210  155.6100 C   0  0  0  0  0  0  0  0  0  0  0  0
  160.4970  209.4150  156.8160 C   0  0  0  0  0  2  0  0  0  0  0  0
  160.2120  211.6430  155.4180 C   0  0  1  0  0  3  0  0  0  0  0  0
  158.6650  211.0520  157.2600 O   0  0  0  0  0  0  0  0  0  0  0  0
  160.7590  211.8490  156.7070 O   0  0  0  0  0  0  0  0  0  0  0  0
  159.8510  210.7840  156.5770 C   0  0  1  0  0  0  0  0  0  0  0  0
  159.1620  212.7080  155.1320 C   0  0  1  0  0  3  0  0  0  0  0  0
  158.7920  213.3650  150.2410 O   0  0  0  0  0  0  0  0  0  0  0  0
  157.7980  214.2720  152.3620 C   0  0  0  0  0  2  0  0  0  0  0  0
  158.3290  212.5480  153.8640 C   0  0  2  0  0  0  0  0  0  0  0  0
  155.9560  213.3850  154.3870 C   0  0  0  0  0  1  0  0  0  0  0  0
  157.7090  212.3780  156.2040 S   0  0  1  0  0  3  0  0  0  0  0  0
  158.7800  213.1580  152.5060 C   0  0  1  0  0  0  0  0  0  0  0  0
  157.7550  214.2660  150.1700 C   0  0  0  0  0  2  0  0  0  0  0  0
  156.9810  212.2700  154.5220 C   0  0  2  0  0  3  0  0  0  0  0  0
  157.8200  213.2510  151.2760 C   0  0  2  0  0  0  0  0  0  0  0  0
  158.6010  211.6320  152.7200 C   0  0  1  0  0  3  0  0  0  0  0  0
  159.9690  210.9630  152.6740 C   0  0  0  0  0  2  0  0  0  0  0  0
  160.7370  211.4980  151.6400 O   0  0  0  0  0  0  0  0  0  0  0  0
  161.9300  210.7770  151.6830 C   0  0  0  0  0  1  0  0  0  0  0  0
  1  2  1  1  0  0  0
  1 27  1  0  0  0  0
  3  4  1  1  0  0  0
  3  1  1  0  0  0  0
  5  8  1  6  0  0  0
  5  3  1  0  0  0  0
  6  7  1  0  0  0  0
  7  5  1  0  0  0  0
  9  8  1  0  0  0  0
 10 11  1  6  0  0  0
 10  9  1  0  0  0  0
 10 14  1  0  0  0  0
 12 11  1  0  0  0  0
 13 11  2  0  0  0  0
 14 16  1  6  0  0  0
 14 17  1  0  0  0  0
 15 16  1  0  0  0  0
 18 17  1  0  0  0  0
 19 18  1  0  0  0  0
 19 20  1  0  0  0  0
 20 21  1  0  0  0  0
 21 23  1  0  0  0  0
 23 22  1  1  0  0  0
 23 26  1  0  0  0  0
 25 24  1  0  0  0  0
 26 25  1  0  0  0  0
 26 24  1  0  0  0  0
 27 28  1  0  0  0  0
 28 29  2  0  0  0  0
 28 31  1  0  0  0  0
 31 33  1  0  0  0  0
 31 30  2  0  0  0  0
 32 33  2  0  0  0  0
 33 34  1  0  0  0  0
 35 38  1  0  0  0  0
 35 37  1  1  0  0  0
 38 37  1  0  0  0  0
 38 34  1  1  0  0  0
 38 36  1  0  0  0  0
 39 35  1  0  0  0  0
 39 44  1  0  0  0  0
 40 48  1  0  0  0  0
 41 45  1  0  0  0  0
 42 47  1  0  0  0  0
 42 39  1  0  0  0  0
 43 47  1  0  0  0  0
 44 36  1  0  0  0  0
 45 49  1  0  0  0  0
 45 42  1  0  0  0  0
 46 40  1  0  0  0  0
 46 48  1  0  0  0  0
 47 44  1  0  0  0  0
 48 41  1  0  0  0  0
 48 45  1  0  0  0  0
 49 42  1  0  0  0  0
 50 49  1  0  0  0  0
 51 52  1  0  0  0  0
 51 50  1  0  0  0  0
M  END
>  <MODEL>
7

>  <REMARK>
 VINA RESULT:      -1.6      6.074     11.285
  Name = 
  25 active torsions:
  status: ('A' for Active; 'I' for Inactive)
    1  A    between atoms: C_2  and  C_6
    2  A    between atoms: C_7  and  O_42
    3  A    between atoms: C_7  and  C_50
    4  A    between atoms: C_11  and  C_18
    5  A    between atoms: C_11  and  C_22
    6  A    between atoms: C_11  and  O_35
    7  A    between atoms: C_12  and  C_43
    8  A    between atoms: C_12  and  C_47
    9  A    between atoms: C_13  and  C_25
   10  A    between atoms: C_13  and  C_30
   11  A    between atoms: C_14  and  C_26
   12  A    between atoms: C_14  and  O_35
   13  A    between atoms: C_19  and  C_22
   14  A    between atoms: O_20  and  C_38
   15  A    between atoms: O_20  and  C_47
   16  A    between atoms: C_21  and  C_26
   17  A    between atoms: C_21  and  C_37
   18  A    between atoms: C_22  and  C_38
   19  A    between atoms: C_25  and  C_40
   20  A    between atoms: C_26  and  C_31
   21  A    between atoms: C_30  and  C_44
   22  A    between atoms: C_37  and  C_44
   23  A    between atoms: C_40  and  C_51
   24  A    between atoms: C_41  and  C_43
   25  A    between atoms: C_41  and  C_48
                            x       y       z     vdW  Elec       q    Type
                         _______ _______ _______ _____ _____    ______ ____

>  <TORSDO>
F 25

$$$$
