=
 OpenBabel11072411523D

 32 36  0  0  1  0  0  0  0  0999 V2000
  159.7270  213.3470  156.4810 C   0  0  0  0  0  3  0  0  0  0  0  0
  156.4160  213.5430  153.5010 C   0  0  0  0  0  2  0  0  0  0  0  0
  161.5000  208.7960  152.9850 C   0  0  2  0  0  3  0  0  0  0  0  0
  160.4270  211.9390  152.9180 C   0  0  0  0  0  2  0  0  0  0  0  0
  161.7930  206.2710  152.4520 C   0  0  1  0  0  0  0  0  0  0  0  0
  160.0640  210.7450  151.5630 S   0  0  0  0  0  0  0  0  0  0  0  0
  159.2640  212.3410  155.6930 N   0  0  0  0  0  0  0  0  0  0  0  0
  157.2530  213.3810  154.7530 C   0  0  0  0  0  2  0  0  0  0  0  0
  160.7250  207.0120  154.6670 C   0  0  0  0  0  2  0  0  0  0  0  0
  162.0070  207.7330  152.0000 C   0  0  0  0  0  2  0  0  0  0  0  0
  162.2560  209.7040  156.4200 C   0  0  0  0  0  3  0  0  0  0  0  0
  161.5750  208.2680  154.4420 C   0  0  2  0  0  3  0  0  0  0  0  0
  157.2490  214.2210  152.4270 C   0  0  2  0  0  3  0  0  0  0  0  0
  160.7740  212.9610  157.2600 N   0  0  0  0  0  0  0  0  0  0  0  0
  162.0970  210.8910  157.1720 C   0  0  0  0  0  3  0  0  0  0  0  0
  160.9730  211.6770  156.9090 C   0  0  0  0  0  0  0  0  0  0  0  0
  162.9430  205.8350  153.1160 O   0  0  0  0  0  1  0  0  0  0  0  0
  160.0820  209.2290  152.5840 C   0  0  0  0  0  2  0  0  0  0  0  0
  159.2860  212.9270  153.2710 C   0  0  2  0  0  3  0  0  0  0  0  0
  160.5890  206.1500  153.4020 C   0  0  0  0  0  2  0  0  0  0  0  0
  160.1490  210.1280  155.2790 C   0  0  0  0  0  3  0  0  0  0  0  0
  158.4380  212.4550  154.4840 C   0  0  1  0  0  3  0  0  0  0  0  0
  160.0430  211.3000  155.9930 C   0  0  0  0  0  0  0  0  0  0  0  0
  156.4420  214.4520  151.3120 O   0  0  0  0  0  1  0  0  0  0  0  0
  161.2870  209.3350  155.4550 C   0  0  0  0  0  0  0  0  0  0  0  0
  158.4530  213.3500  152.0400 C   0  0  2  0  0  3  0  0  0  0  0  0
  162.3290  204.2350  151.3060 F   0  0  0  0  0  0  0  0  0  0  0  0
  161.9190  206.0720  150.0710 F   0  0  0  0  0  0  0  0  0  0  0  0
  160.2290  205.0320  151.1290 F   0  0  0  0  0  0  0  0  0  0  0  0
  161.5650  205.3870  151.2200 C   0  0  0  0  0  0  0  0  0  0  0  0
  159.3470  214.1140  151.0680 C   0  0  0  0  0  2  0  0  0  0  0  0
  159.0320  213.7210  149.6370 C   0  0  0  0  0  1  0  0  0  0  0  0
  1 14  2  0  0  0  0
  2  8  1  0  0  0  0
  3 10  1  6  0  0  0
  3 12  1  0  0  0  0
  5 17  1  1  0  0  0
  5 20  1  0  0  0  0
  6 18  1  0  0  0  0
  6  4  1  0  0  0  0
  7 23  1  0  0  0  0
  7  1  1  0  0  0  0
 10  5  1  0  0  0  0
 11 15  1  0  0  0  0
 12  9  1  6  0  0  0
 12 25  1  0  0  0  0
 13 24  1  6  0  0  0
 13  2  1  0  0  0  0
 16 15  2  0  0  0  0
 16 14  1  0  0  0  0
 18  3  1  0  0  0  0
 19  4  1  6  0  0  0
 19 22  1  0  0  0  0
 20  9  1  0  0  0  0
 21 25  1  0  0  0  0
 21 23  2  0  0  0  0
 22  8  1  1  0  0  0
 22  7  1  0  0  0  0
 23 16  1  0  0  0  0
 25 11  2  0  0  0  0
 26 31  1  6  0  0  0
 26 13  1  0  0  0  0
 26 19  1  0  0  0  0
 28 30  1  0  0  0  0
 29 30  1  0  0  0  0
 30 27  1  0  0  0  0
 30  5  1  0  0  0  0
 32 31  1  0  0  0  0
M  END
>  <MODEL>
1

>  <REMARK>
 VINA RESULT:      -5.1      0.000      0.000
  Name = 
  2 active torsions:
  status: ('A' for Active; 'I' for Inactive)
    1  A    between atoms: C_1  and  C_32
    2  A    between atoms: C_7  and  C_26
                            x       y       z     vdW  Elec       q    Type
                         _______ _______ _______ _____ _____    ______ ____

>  <TORSDO>
F 2

$$$$
=
 OpenBabel11072411523D

 32 36  0  0  1  0  0  0  0  0999 V2000
  160.8480  211.3120  154.7540 C   0  0  0  0  0  3  0  0  0  0  0  0
  158.8770  212.6490  150.9850 C   0  0  0  0  0  2  0  0  0  0  0  0
  161.8640  206.3660  151.5000 C   0  0  2  0  0  3  0  0  0  0  0  0
  162.0410  209.6820  151.4250 C   0  0  0  0  0  2  0  0  0  0  0  0
  161.3930  203.9000  150.8390 C   0  0  1  0  0  0  0  0  0  0  0  0
  161.7050  208.6790  149.9170 S   0  0  0  0  0  0  0  0  0  0  0  0
  160.3200  210.5300  153.7770 N   0  0  0  0  0  0  0  0  0  0  0  0
  159.1860  212.2140  152.4040 C   0  0  0  0  0  2  0  0  0  0  0  0
  160.0430  205.0170  152.7170 C   0  0  0  0  0  2  0  0  0  0  0  0
  162.2340  205.1750  150.6060 C   0  0  0  0  0  2  0  0  0  0  0  0
  161.8230  206.9970  155.0780 C   0  0  0  0  0  3  0  0  0  0  0  0
  161.3070  205.8730  152.8620 C   0  0  2  0  0  3  0  0  0  0  0  0
  160.1770  212.9560  150.2630 C   0  0  2  0  0  3  0  0  0  0  0  0
  161.4060  210.5840  155.7610 N   0  0  0  0  0  0  0  0  0  0  0  0
  161.8760  208.1730  155.8610 C   0  0  0  0  0  3  0  0  0  0  0  0
  161.2350  209.3100  155.3620 C   0  0  0  0  0  0  0  0  0  0  0  0
  162.0590  203.0860  151.7600 O   0  0  0  0  0  1  0  0  0  0  0  0
  160.8800  207.2790  150.7540 C   0  0  0  0  0  2  0  0  0  0  0  0
  161.2730  211.0240  151.5280 C   0  0  2  0  0  3  0  0  0  0  0  0
  159.9980  204.2420  151.3900 C   0  0  0  0  0  2  0  0  0  0  0  0
  160.4470  208.1390  153.4270 C   0  0  0  0  0  3  0  0  0  0  0  0
  159.9900  210.9160  152.3980 C   0  0  1  0  0  3  0  0  0  0  0  0
  160.5530  209.2820  154.1880 C   0  0  0  0  0  0  0  0  0  0  0  0
  159.8770  213.4460  148.9900 O   0  0  0  0  0  1  0  0  0  0  0  0
  161.1240  206.9890  153.8460 C   0  0  0  0  0  0  0  0  0  0  0  0
  161.0530  211.7010  150.1560 C   0  0  2  0  0  3  0  0  0  0  0  0
  161.7770  203.8790  148.4730 F   0  0  0  0  0  0  0  0  0  0  0  0
  159.9120  202.8880  149.2550 F   0  0  0  0  0  0  0  0  0  0  0  0
  161.9170  201.9270  149.5890 F   0  0  0  0  0  0  0  0  0  0  0  0
  161.2490  203.1370  149.5160 C   0  0  0  0  0  0  0  0  0  0  0  0
  162.4060  212.0690  149.5550 C   0  0  0  0  0  2  0  0  0  0  0  0
  162.4110  211.8120  148.0600 C   0  0  0  0  0  1  0  0  0  0  0  0
  1 14  2  0  0  0  0
  2  8  1  0  0  0  0
  3 10  1  6  0  0  0
  3 12  1  0  0  0  0
  5 20  1  0  0  0  0
  5 17  1  1  0  0  0
  6 18  1  0  0  0  0
  6  4  1  0  0  0  0
  7 23  1  0  0  0  0
  7  1  1  0  0  0  0
 10  5  1  0  0  0  0
 11 15  1  0  0  0  0
 12  9  1  6  0  0  0
 12 25  1  0  0  0  0
 13 24  1  6  0  0  0
 13  2  1  0  0  0  0
 16 14  1  0  0  0  0
 16 15  2  0  0  0  0
 18  3  1  0  0  0  0
 19  4  1  6  0  0  0
 19 22  1  0  0  0  0
 20  9  1  0  0  0  0
 21 25  1  0  0  0  0
 21 23  2  0  0  0  0
 22  8  1  1  0  0  0
 22  7  1  0  0  0  0
 23 16  1  0  0  0  0
 25 11  2  0  0  0  0
 26 31  1  1  0  0  0
 26 13  1  0  0  0  0
 26 19  1  0  0  0  0
 27 30  1  0  0  0  0
 28 30  1  0  0  0  0
 30 29  1  0  0  0  0
 30  5  1  0  0  0  0
 32 31  1  0  0  0  0
M  END
>  <MODEL>
2

>  <REMARK>
 VINA RESULT:      -4.0      2.258      3.216
  Name = 
  2 active torsions:
  status: ('A' for Active; 'I' for Inactive)
    1  A    between atoms: C_1  and  C_32
    2  A    between atoms: C_7  and  C_26
                            x       y       z     vdW  Elec       q    Type
                         _______ _______ _______ _____ _____    ______ ____

>  <TORSDO>
F 2

$$$$
=
 OpenBabel11072411523D

 32 36  0  0  1  0  0  0  0  0999 V2000
  160.9230  209.7060  154.2140 C   0  0  0  0  0  3  0  0  0  0  0  0
  158.5240  212.4580  151.6560 C   0  0  0  0  0  2  0  0  0  0  0  0
  162.1180  207.1460  148.9130 C   0  0  2  0  0  3  0  0  0  0  0  0
  161.9770  210.0700  150.4830 C   0  0  0  0  0  2  0  0  0  0  0  0
  161.8260  205.2790  147.1320 C   0  0  1  0  0  0  0  0  0  0  0  0
  161.6100  209.8980  148.6860 S   0  0  0  0  0  0  0  0  0  0  0  0
  160.3900  209.4430  152.9930 N   0  0  0  0  0  0  0  0  0  0  0  0
  158.9910  211.4280  152.6640 C   0  0  0  0  0  2  0  0  0  0  0  0
  160.5410  205.1620  149.3530 C   0  0  0  0  0  2  0  0  0  0  0  0
  162.5210  206.5990  147.5370 C   0  0  0  0  0  2  0  0  0  0  0  0
  162.3220  205.9410  152.3340 C   0  0  0  0  0  3  0  0  0  0  0  0
  161.7270  205.9870  149.8680 C   0  0  2  0  0  3  0  0  0  0  0  0
  159.7220  213.2370  151.1440 C   0  0  2  0  0  3  0  0  0  0  0  0
  161.6310  208.6550  154.7130 N   0  0  0  0  0  0  0  0  0  0  0  0
  162.3310  206.5810  153.5940 C   0  0  0  0  0  3  0  0  0  0  0  0
  161.5460  207.7270  153.7420 C   0  0  0  0  0  0  0  0  0  0  0  0
  162.6410  204.2090  147.5110 O   0  0  0  0  0  1  0  0  0  0  0  0
  160.9930  208.1780  148.7430 C   0  0  0  0  0  2  0  0  0  0  0  0
  161.0980  211.0850  151.2570 C   0  0  2  0  0  3  0  0  0  0  0  0
  160.4570  205.1350  147.8190 C   0  0  0  0  0  2  0  0  0  0  0  0
  160.7110  207.5630  151.5030 C   0  0  0  0  0  3  0  0  0  0  0  0
  159.9100  210.4090  151.9950 C   0  0  1  0  0  3  0  0  0  0  0  0
  160.7730  208.1920  152.7260 C   0  0  0  0  0  0  0  0  0  0  0  0
  159.2720  214.2440  150.2890 O   0  0  0  0  0  1  0  0  0  0  0  0
  161.5250  206.4480  151.2800 C   0  0  0  0  0  0  0  0  0  0  0  0
  160.7010  212.3120  150.4060 C   0  0  2  0  0  3  0  0  0  0  0  0
  161.5180  203.9430  145.1660 F   0  0  0  0  0  0  0  0  0  0  0  0
  162.7330  205.8300  144.9870 F   0  0  0  0  0  0  0  0  0  0  0  0
  160.5030  205.9520  145.2540 F   0  0  0  0  0  0  0  0  0  0  0  0
  161.6420  205.2480  145.6100 C   0  0  0  0  0  0  0  0  0  0  0  0
  161.9570  213.0890  150.0290 C   0  0  0  0  0  2  0  0  0  0  0  0
  161.9220  213.4770  148.5630 C   0  0  0  0  0  1  0  0  0  0  0  0
  1 14  2  0  0  0  0
  2  8  1  0  0  0  0
  3 10  1  6  0  0  0
  3 12  1  0  0  0  0
  5 17  1  1  0  0  0
  5 10  1  0  0  0  0
  5 20  1  0  0  0  0
  6 18  1  0  0  0  0
  6  4  1  0  0  0  0
  7  1  1  0  0  0  0
 11 15  1  0  0  0  0
 12  9  1  6  0  0  0
 12 25  1  0  0  0  0
 13 24  1  6  0  0  0
 13  2  1  0  0  0  0
 15 16  2  0  0  0  0
 16 14  1  0  0  0  0
 18  3  1  0  0  0  0
 19  4  1  6  0  0  0
 19 22  1  0  0  0  0
 20  9  1  0  0  0  0
 21 23  2  0  0  0  0
 22  8  1  1  0  0  0
 22  7  1  0  0  0  0
 23  7  1  0  0  0  0
 23 16  1  0  0  0  0
 25 21  1  0  0  0  0
 25 11  2  0  0  0  0
 26 31  1  1  0  0  0
 26 13  1  0  0  0  0
 26 19  1  0  0  0  0
 27 30  1  0  0  0  0
 28 30  1  0  0  0  0
 29 30  1  0  0  0  0
 30  5  1  0  0  0  0
 32 31  1  0  0  0  0
M  END
>  <MODEL>
3

>  <REMARK>
 VINA RESULT:      -3.9      3.197      4.589
  Name = 
  2 active torsions:
  status: ('A' for Active; 'I' for Inactive)
    1  A    between atoms: C_1  and  C_32
    2  A    between atoms: C_7  and  C_26
                            x       y       z     vdW  Elec       q    Type
                         _______ _______ _______ _____ _____    ______ ____

>  <TORSDO>
F 2

$$$$
=
 OpenBabel11072411523D

 32 36  0  0  1  0  0  0  0  0999 V2000
  157.5810  212.2170  155.8990 C   0  0  0  0  0  3  0  0  0  0  0  0
  161.6300  210.9370  157.2590 C   0  0  0  0  0  2  0  0  0  0  0  0
  160.1960  211.8980  150.5010 C   0  0  2  0  0  3  0  0  0  0  0  0
  159.7960  210.2600  153.3630 C   0  0  0  0  0  2  0  0  0  0  0  0
  161.2710  212.9590  148.3890 C   0  0  1  0  0  0  0  0  0  0  0  0
  161.3260  210.1100  152.3480 S   0  0  0  0  0  0  0  0  0  0  0  0
  158.7640  212.3970  155.2550 N   0  0  0  0  0  0  0  0  0  0  0  0
  160.3450  211.6940  156.9910 C   0  0  0  0  0  2  0  0  0  0  0  0
  160.3860  214.4530  150.2820 C   0  0  0  0  0  2  0  0  0  0  0  0
  160.8450  211.6710  149.1280 C   0  0  0  0  0  2  0  0  0  0  0  0
  157.2330  213.6190  151.7060 C   0  0  0  0  0  3  0  0  0  0  0  0
  159.4560  213.2610  150.5360 C   0  0  2  0  0  3  0  0  0  0  0  0
  161.4470  209.4840  156.8590 C   0  0  2  0  0  3  0  0  0  0  0  0
  156.5220  212.7000  155.1920 N   0  0  0  0  0  0  0  0  0  0  0  0
  156.4370  213.4930  152.8670 C   0  0  0  0  0  3  0  0  0  0  0  0
  157.0840  213.1660  154.0620 C   0  0  0  0  0  0  0  0  0  0  0  0
  160.2300  213.3580  147.5450 O   0  0  0  0  0  1  0  0  0  0  0  0
  161.2650  211.7760  151.5970 C   0  0  0  0  0  2  0  0  0  0  0  0
  160.0030  210.2640  154.8990 C   0  0  2  0  0  3  0  0  0  0  0  0
  161.5780  214.0970  149.3790 C   0  0  0  0  0  2  0  0  0  0  0  0
  159.2360  213.1750  153.0130 C   0  0  0  0  0  3  0  0  0  0  0  0
  160.0340  211.6980  155.4960 C   0  0  1  0  0  3  0  0  0  0  0  0
  158.4320  213.0130  154.1180 C   0  0  0  0  0  0  0  0  0  0  0  0
  162.6020  208.7760  157.1970 O   0  0  0  0  0  1  0  0  0  0  0  0
  158.6360  213.4380  151.7780 C   0  0  0  0  0  0  0  0  0  0  0  0
  161.1730  209.3630  155.3530 C   0  0  2  0  0  3  0  0  0  0  0  0
  162.1770  212.5960  146.2000 F   0  0  0  0  0  0  0  0  0  0  0  0
  163.0830  211.4670  147.9240 F   0  0  0  0  0  0  0  0  0  0  0  0
  163.4530  213.6750  147.7110 F   0  0  0  0  0  0  0  0  0  0  0  0
  162.5160  212.6700  147.5400 C   0  0  0  0  0  0  0  0  0  0  0  0
  160.8530  207.9130  155.0040 C   0  0  0  0  0  2  0  0  0  0  0  0
  159.7030  207.4040  155.8530 C   0  0  0  0  0  1  0  0  0  0  0  0
  3 10  1  6  0  0  0
  3 12  1  0  0  0  0
  3 18  1  0  0  0  0
  5 17  1  6  0  0  0
  5 10  1  0  0  0  0
  5 20  1  0  0  0  0
  6  4  1  0  0  0  0
  7 22  1  0  0  0  0
  7  1  1  0  0  0  0
  8  2  1  0  0  0  0
 11 25  2  0  0  0  0
 11 15  1  0  0  0  0
 12  9  1  1  0  0  0
 12 25  1  0  0  0  0
 13 24  1  6  0  0  0
 13  2  1  0  0  0  0
 14  1  2  0  0  0  0
 15 16  2  0  0  0  0
 16 23  1  0  0  0  0
 16 14  1  0  0  0  0
 18  6  1  0  0  0  0
 19  4  1  6  0  0  0
 19 26  1  0  0  0  0
 19 22  1  0  0  0  0
 20  9  1  0  0  0  0
 21 23  2  0  0  0  0
 22  8  1  1  0  0  0
 23  7  1  0  0  0  0
 25 21  1  0  0  0  0
 26 31  1  1  0  0  0
 26 13  1  0  0  0  0
 27 30  1  0  0  0  0
 30 29  1  0  0  0  0
 30 28  1  0  0  0  0
 30  5  1  0  0  0  0
 31 32  1  0  0  0  0
M  END
>  <MODEL>
4

>  <REMARK>
 VINA RESULT:      -3.6      3.035      6.517
  Name = 
  2 active torsions:
  status: ('A' for Active; 'I' for Inactive)
    1  A    between atoms: C_1  and  C_32
    2  A    between atoms: C_7  and  C_26
                            x       y       z     vdW  Elec       q    Type
                         _______ _______ _______ _____ _____    ______ ____

>  <TORSDO>
F 2

$$$$
=
 OpenBabel11072411523D

 32 36  0  0  1  0  0  0  0  0999 V2000
  162.3310  208.6940  148.6310 C   0  0  0  0  0  3  0  0  0  0  0  0
  163.4160  212.8570  147.4610 C   0  0  0  0  0  2  0  0  0  0  0  0
  159.2460  211.5760  152.9040 C   0  0  2  0  0  3  0  0  0  0  0  0
  159.8770  211.5440  149.6430 C   0  0  0  0  0  2  0  0  0  0  0  0
  158.8860  212.3840  155.3450 C   0  0  1  0  0  0  0  0  0  0  0  0
  159.5130  213.0990  150.5600 S   0  0  0  0  0  0  0  0  0  0  0  0
  162.3500  209.7960  149.4240 N   0  0  0  0  0  0  0  0  0  0  0  0
  163.4250  211.4180  147.9350 C   0  0  0  0  0  2  0  0  0  0  0  0
  160.9460  210.9760  154.7380 C   0  0  0  0  0  2  0  0  0  0  0  0
  158.3550  212.3380  153.8940 C   0  0  0  0  0  2  0  0  0  0  0  0
  160.4550  208.1620  152.6140 C   0  0  0  0  0  3  0  0  0  0  0  0
  160.0270  210.4490  153.6290 C   0  0  2  0  0  3  0  0  0  0  0  0
  162.0830  213.1570  146.7990 C   0  0  2  0  0  3  0  0  0  0  0  0
  161.9200  207.5780  149.2950 N   0  0  0  0  0  0  0  0  0  0  0  0
  160.9190  207.3810  151.5310 C   0  0  0  0  0  3  0  0  0  0  0  0
  161.6510  208.0290  150.5340 C   0  0  0  0  0  0  0  0  0  0  0  0
  158.3300  211.3200  156.0600 O   0  0  0  0  0  1  0  0  0  0  0  0
  160.1710  212.5670  152.1810 C   0  0  0  0  0  2  0  0  0  0  0  0
  160.9500  211.6530  148.5290 C   0  0  2  0  0  3  0  0  0  0  0  0
  160.4200  212.2670  155.3830 C   0  0  0  0  0  2  0  0  0  0  0  0
  161.5430  210.1290  151.6810 C   0  0  0  0  0  3  0  0  0  0  0  0
  162.3590  211.2050  149.0060 C   0  0  1  0  0  3  0  0  0  0  0  0
  161.9430  209.3540  150.6160 C   0  0  0  0  0  0  0  0  0  0  0  0
  162.1190  214.4530  146.2830 O   0  0  0  0  0  1  0  0  0  0  0  0
  160.7510  209.5460  152.6760 C   0  0  0  0  0  0  0  0  0  0  0  0
  160.9300  213.0180  147.8040 C   0  0  2  0  0  3  0  0  0  0  0  0
  157.6960  213.4530  157.1310 F   0  0  0  0  0  0  0  0  0  0  0  0
  157.7030  214.4520  155.1130 F   0  0  0  0  0  0  0  0  0  0  0  0
  159.5710  214.4390  156.3650 F   0  0  0  0  0  0  0  0  0  0  0  0
  158.4560  213.7030  156.0010 C   0  0  0  0  0  0  0  0  0  0  0  0
  159.5970  213.1840  147.0830 C   0  0  0  0  0  2  0  0  0  0  0  0
  159.5100  212.2330  145.9040 C   0  0  0  0  0  1  0  0  0  0  0  0
  1 14  2  0  0  0  0
  1  7  1  0  0  0  0
  2  8  1  0  0  0  0
  3 18  1  1  0  0  0
  3 12  1  0  0  0  0
  3 10  1  0  0  0  0
  4  6  1  0  0  0  0
  5 20  1  0  0  0  0
  5 30  1  0  0  0  0
  5 17  1  1  0  0  0
  6 18  1  0  0  0  0
  7 23  1  0  0  0  0
  9 20  1  0  0  0  0
 10  5  1  0  0  0  0
 11 25  1  0  0  0  0
 12  9  1  1  0  0  0
 13 24  1  1  0  0  0
 13  2  1  0  0  0  0
 13 26  1  0  0  0  0
 14 16  1  0  0  0  0
 15 11  2  0  0  0  0
 16 23  2  0  0  0  0
 16 15  1  0  0  0  0
 19 22  1  0  0  0  0
 19  4  1  1  0  0  0
 21 25  2  0  0  0  0
 22  8  1  6  0  0  0
 22  7  1  0  0  0  0
 23 21  1  0  0  0  0
 25 12  1  0  0  0  0
 26 31  1  6  0  0  0
 26 19  1  0  0  0  0
 28 30  1  0  0  0  0
 30 29  1  0  0  0  0
 30 27  1  0  0  0  0
 32 31  1  0  0  0  0
M  END
>  <MODEL>
5

>  <REMARK>
 VINA RESULT:      -2.8      4.798      7.002
  Name = 
  2 active torsions:
  status: ('A' for Active; 'I' for Inactive)
    1  A    between atoms: C_1  and  C_32
    2  A    between atoms: C_7  and  C_26
                            x       y       z     vdW  Elec       q    Type
                         _______ _______ _______ _____ _____    ______ ____

>  <TORSDO>
F 2

$$$$
=
 OpenBabel11072411523D

 32 36  0  0  1  0  0  0  0  0999 V2000
  160.2120  212.4780  157.0280 C   0  0  0  0  0  3  0  0  0  0  0  0
  156.0190  212.4610  155.5120 C   0  0  0  0  0  2  0  0  0  0  0  0
  161.2270  209.6230  151.8410 C   0  0  2  0  0  3  0  0  0  0  0  0
  159.6920  212.2500  153.1750 C   0  0  0  0  0  2  0  0  0  0  0  0
  161.7160  207.4970  150.4320 C   0  0  1  0  0  0  0  0  0  0  0  0
  159.0380  211.3760  151.6910 S   0  0  0  0  0  0  0  0  0  0  0  0
  159.6570  211.6100  156.1420 N   0  0  0  0  0  0  0  0  0  0  0  0
  157.2940  212.2370  156.3000 C   0  0  0  0  0  2  0  0  0  0  0  0
  161.4900  207.3350  152.9860 C   0  0  0  0  0  2  0  0  0  0  0  0
  161.4810  209.0250  150.4510 C   0  0  0  0  0  2  0  0  0  0  0  0
  163.0990  209.8310  154.9480 C   0  0  0  0  0  3  0  0  0  0  0  0
  161.9550  208.7950  152.9330 C   0  0  2  0  0  3  0  0  0  0  0  0
  156.2360  213.5890  154.5200 C   0  0  2  0  0  3  0  0  0  0  0  0
  161.5300  212.2230  157.2540 N   0  0  0  0  0  0  0  0  0  0  0  0
  163.0470  210.7000  156.0610 C   0  0  0  0  0  3  0  0  0  0  0  0
  161.7920  211.1760  156.4510 C   0  0  0  0  0  0  0  0  0  0  0  0
  163.0900  207.2530  150.5070 O   0  0  0  0  0  1  0  0  0  0  0  0
  159.7130  209.7230  152.0850 C   0  0  0  0  0  2  0  0  0  0  0  0
  158.6300  212.7560  154.1830 C   0  0  2  0  0  3  0  0  0  0  0  0
  161.0190  206.8100  151.6200 C   0  0  0  0  0  2  0  0  0  0  0  0
  160.6750  209.9090  154.7530 C   0  0  0  0  0  3  0  0  0  0  0  0
  158.4170  211.7800  155.3730 C   0  0  1  0  0  3  0  0  0  0  0  0
  160.6570  210.7900  155.8110 C   0  0  0  0  0  0  0  0  0  0  0  0
  155.0300  213.8500  153.8670 O   0  0  0  0  0  1  0  0  0  0  0  0
  161.9090  209.4520  154.2790 C   0  0  0  0  0  0  0  0  0  0  0  0
  157.3220  213.2180  153.5000 C   0  0  2  0  0  3  0  0  0  0  0  0
  162.0510  205.9640  148.6200 F   0  0  0  0  0  0  0  0  0  0  0  0
  161.0340  207.9240  148.1780 F   0  0  0  0  0  0  0  0  0  0  0  0
  159.9430  206.3270  149.3270 F   0  0  0  0  0  0  0  0  0  0  0  0
  161.1790  206.9170  149.1180 C   0  0  0  0  0  0  0  0  0  0  0  0
  157.6190  214.4180  152.6070 C   0  0  0  0  0  2  0  0  0  0  0  0
  157.2940  214.0960  151.1610 C   0  0  0  0  0  1  0  0  0  0  0  0
  1 14  2  0  0  0  0
  2  8  1  0  0  0  0
  3 10  1  6  0  0  0
  3 18  1  0  0  0  0
  3 12  1  0  0  0  0
  5 10  1  0  0  0  0
  5 17  1  1  0  0  0
  5 20  1  0  0  0  0
  6 18  1  0  0  0  0
  6  4  1  0  0  0  0
  7  1  1  0  0  0  0
 11 15  1  0  0  0  0
 12  9  1  1  0  0  0
 12 25  1  0  0  0  0
 13 24  1  6  0  0  0
 13  2  1  0  0  0  0
 15 16  2  0  0  0  0
 16 14  1  0  0  0  0
 19  4  1  6  0  0  0
 19 22  1  0  0  0  0
 20  9  1  0  0  0  0
 21 23  2  0  0  0  0
 22  7  1  0  0  0  0
 22  8  1  1  0  0  0
 23  7  1  0  0  0  0
 23 16  1  0  0  0  0
 25 21  1  0  0  0  0
 25 11  2  0  0  0  0
 26 31  1  1  0  0  0
 26 19  1  0  0  0  0
 26 13  1  0  0  0  0
 27 30  1  0  0  0  0
 28 30  1  0  0  0  0
 30 29  1  0  0  0  0
 30  5  1  0  0  0  0
 32 31  1  0  0  0  0
M  END
>  <MODEL>
6

>  <REMARK>
 VINA RESULT:      -2.4      1.554      1.911
  Name = 
  2 active torsions:
  status: ('A' for Active; 'I' for Inactive)
    1  A    between atoms: C_1  and  C_32
    2  A    between atoms: C_7  and  C_26
                            x       y       z     vdW  Elec       q    Type
                         _______ _______ _______ _____ _____    ______ ____

>  <TORSDO>
F 2

$$$$
=
 OpenBabel11072411523D

 32 36  0  0  1  0  0  0  0  0999 V2000
  160.9220  201.9110  148.3330 C   0  0  0  0  0  3  0  0  0  0  0  0
  163.4090  204.4420  145.6360 C   0  0  0  0  0  2  0  0  0  0  0  0
  160.6320  207.0080  151.4980 C   0  0  2  0  0  3  0  0  0  0  0  0
  160.3370  205.7600  148.4330 C   0  0  0  0  0  2  0  0  0  0  0  0
  161.3000  208.5270  153.4940 C   0  0  1  0  0  0  0  0  0  0  0  0
  160.9470  207.4690  148.7460 S   0  0  0  0  0  0  0  0  0  0  0  0
  161.6290  203.0220  148.6640 N   0  0  0  0  0  0  0  0  0  0  0  0
  162.8970  203.3920  146.6010 C   0  0  0  0  0  2  0  0  0  0  0  0
  162.2900  206.1680  153.2750 C   0  0  0  0  0  2  0  0  0  0  0  0
  160.4560  208.3560  152.2110 C   0  0  0  0  0  2  0  0  0  0  0  0
  160.0800  203.5270  152.3770 C   0  0  0  0  0  3  0  0  0  0  0  0
  160.9860  205.8930  152.5170 C   0  0  2  0  0  3  0  0  0  0  0  0
  162.2300  205.1770  145.0240 C   0  0  2  0  0  3  0  0  0  0  0  0
  160.2400  201.3900  149.3920 N   0  0  0  0  0  0  0  0  0  0  0  0
  159.8580  202.3540  151.6200 C   0  0  0  0  0  3  0  0  0  0  0  0
  160.5240  202.2380  150.3970 C   0  0  0  0  0  0  0  0  0  0  0  0
  160.5290  208.1360  154.5930 O   0  0  0  0  0  1  0  0  0  0  0  0
  161.6850  207.1510  150.3880 C   0  0  0  0  0  2  0  0  0  0  0  0
  161.0250  204.9990  147.2720 C   0  0  2  0  0  3  0  0  0  0  0  0
  162.5750  207.6680  153.4450 C   0  0  0  0  0  2  0  0  0  0  0  0
  161.6530  204.3270  150.7020 C   0  0  0  0  0  3  0  0  0  0  0  0
  162.1570  204.0530  147.7610 C   0  0  1  0  0  3  0  0  0  0  0  0
  161.3830  203.1960  149.9650 C   0  0  0  0  0  0  0  0  0  0  0  0
  162.7070  206.0750  144.0680 O   0  0  0  0  0  1  0  0  0  0  0  0
  160.9660  204.5250  151.9040 C   0  0  0  0  0  0  0  0  0  0  0  0
  161.4320  205.9240  146.1020 C   0  0  2  0  0  3  0  0  0  0  0  0
  160.5920  210.8160  153.3950 F   0  0  0  0  0  0  0  0  0  0  0  0
  162.7020  210.3300  152.7790 F   0  0  0  0  0  0  0  0  0  0  0  0
  162.1190  210.2440  154.9490 F   0  0  0  0  0  0  0  0  0  0  0  0
  161.6820  210.0040  153.6560 C   0  0  0  0  0  0  0  0  0  0  0  0
  160.1780  206.5320  145.4840 C   0  0  0  0  0  2  0  0  0  0  0  0
  159.3010  205.4480  144.8870 C   0  0  0  0  0  1  0  0  0  0  0  0
  1  7  1  0  0  0  0
  1 14  2  0  0  0  0
  2  8  1  0  0  0  0
  3 18  1  6  0  0  0
  3 10  1  0  0  0  0
  3 12  1  0  0  0  0
  4  6  1  0  0  0  0
  5 30  1  0  0  0  0
  5 17  1  1  0  0  0
  6 18  1  0  0  0  0
  7 23  1  0  0  0  0
  9 20  1  0  0  0  0
 10  5  1  0  0  0  0
 12  9  1  6  0  0  0
 13 24  1  6  0  0  0
 13  2  1  0  0  0  0
 13 26  1  0  0  0  0
 14 16  1  0  0  0  0
 15 11  2  0  0  0  0
 16 15  1  0  0  0  0
 19 22  1  0  0  0  0
 19  4  1  1  0  0  0
 20  5  1  0  0  0  0
 21 25  2  0  0  0  0
 22  8  1  6  0  0  0
 22  7  1  0  0  0  0
 23 16  2  0  0  0  0
 23 21  1  0  0  0  0
 25 11  1  0  0  0  0
 25 12  1  0  0  0  0
 26 31  1  6  0  0  0
 26 19  1  0  0  0  0
 27 30  1  0  0  0  0
 28 30  1  0  0  0  0
 30 29  1  0  0  0  0
 32 31  1  0  0  0  0
M  END
>  <MODEL>
7

>  <REMARK>
 VINA RESULT:      -2.4      5.142      8.922
  Name = 
  2 active torsions:
  status: ('A' for Active; 'I' for Inactive)
    1  A    between atoms: C_1  and  C_32
    2  A    between atoms: C_7  and  C_26
                            x       y       z     vdW  Elec       q    Type
                         _______ _______ _______ _____ _____    ______ ____

>  <TORSDO>
F 2

$$$$
