=
 OpenBabel11072411523D

 32 34  0  0  1  0  0  0  0  0999 V2000
  161.7080  209.3030  155.8460 N   0  0  0  0  0  0  0  0  0  0  0  0
  161.3110  211.0680  154.1860 N   0  0  0  0  0  0  0  0  0  0  0  0
  160.6560  209.5970  152.3800 C   0  0  1  0  0  3  0  0  0  0  0  0
  160.9570  207.4740  153.8730 C   0  0  0  0  0  0  0  0  0  0  0  0
  161.3230  207.0300  155.1570 C   0  0  0  0  0  3  0  0  0  0  0  0
  161.3570  209.7220  154.6040 C   0  0  0  0  0  0  0  0  0  0  0  0
  161.6990  207.9700  156.1360 C   0  0  0  0  0  3  0  0  0  0  0  0
  160.9920  208.8490  153.6230 C   0  0  0  0  0  0  0  0  0  0  0  0
  160.8630  211.0730  152.7920 C   0  0  0  0  0  3  0  0  0  0  0  0
  161.1310  205.3850  152.6710 N   0  0  0  0  0  0  0  0  0  0  0  0
  160.5530  206.5340  152.8190 C   0  0  0  0  0  3  0  0  0  0  0  0
  160.7120  204.4790  151.6140 C   0  0  2  0  0  3  0  0  0  0  0  0
  160.5130  202.6920  149.6090 O   0  0  0  0  0  0  0  0  0  0  0  0
  161.5050  202.3310  150.5430 C   0  0  0  0  0  2  0  0  0  0  0  0
  161.3110  203.0920  151.8580 C   0  0  0  0  0  2  0  0  0  0  0  0
  160.7640  204.0110  149.1400 C   0  0  1  0  0  3  0  0  0  0  0  0
  161.1350  205.0160  150.2470 C   0  0  0  0  0  2  0  0  0  0  0  0
  161.7960  204.0270  148.0470 C   0  0  0  0  0  3  0  0  0  0  0  0
  161.7790  204.8910  147.0250 C   0  0  0  0  0  0  0  0  0  0  0  0
  162.8590  204.8090  146.0000 C   0  0  0  0  0  1  0  0  0  0  0  0
  160.5720  206.2980  145.5510 O   0  0  0  0  0  1  0  0  0  0  0  0
  160.7240  205.9440  146.8920 C   0  0  0  0  0  2  0  0  0  0  0  0
  161.6340  209.2330  151.2720 C   0  0  0  0  0  2  0  0  0  0  0  0
  162.1920  210.4820  150.6040 C   0  0  0  0  0  2  0  0  0  0  0  0
  161.8900  209.3260  148.5750 O   0  0  0  0  0  0  0  0  0  0  0  0
  162.0160  210.4150  149.1140 C   0  0  0  0  0  0  0  0  0  0  0  0
  163.2970  212.1290  148.0440 O   0  0  0  0  0  1  0  0  0  0  0  0
  162.0020  211.6580  148.2710 C   0  0  2  0  0  3  0  0  0  0  0  0
  161.1660  212.7370  148.9410 C   0  0  0  0  0  2  0  0  0  0  0  0
  160.1780  213.3010  147.9810 C   0  0  0  0  0  0  0  0  0  0  0  0
  160.5930  213.7240  146.7260 O   0  0  0  0  0  0  0  0  0  0  0  0
  158.9710  213.4210  148.3160 O   0  0  0  0  0  1  0  0  0  0  0  0
  1  7  1  0  0  0  0
  2  6  1  0  0  0  0
  3 23  1  6  0  0  0
  3  9  1  0  0  0  0
  3  8  1  0  0  0  0
  4  5  1  0  0  0  0
  5  7  2  0  0  0  0
  6  1  2  0  0  0  0
  8  4  2  0  0  0  0
  8  6  1  0  0  0  0
  9  2  2  0  0  0  0
 10 11  2  0  0  0  0
 11  4  1  0  0  0  0
 12 15  1  0  0  0  0
 12 10  1  1  0  0  0
 13 14  1  0  0  0  0
 14 15  1  0  0  0  0
 16 18  1  6  0  0  0
 16 13  1  0  0  0  0
 16 17  1  0  0  0  0
 17 12  1  0  0  0  0
 19 18  2  0  0  0  0
 20 19  1  0  0  0  0
 21 22  1  0  0  0  0
 22 19  1  0  0  0  0
 24 23  1  0  0  0  0
 25 26  2  0  0  0  0
 26 24  1  0  0  0  0
 28 27  1  1  0  0  0
 28 29  1  0  0  0  0
 28 26  1  0  0  0  0
 30 32  1  0  0  0  0
 30 29  1  0  0  0  0
 31 30  2  0  0  0  0
M  END
>  <MODEL>
1

>  <REMARK>
 VINA RESULT:      -7.5      0.000      0.000
  Name = 
  10 active torsions:
  status: ('A' for Active; 'I' for Inactive)
    1  A    between atoms: C_3  and  N_24
    2  A    between atoms: C_4  and  C_21
    3  A    between atoms: C_6  and  C_17
    4  A    between atoms: C_6  and  C_18
    5  A    between atoms: C_9  and  C_18
    6  A    between atoms: C_10  and  C_26
    7  A    between atoms: C_14  and  C_28
    8  A    between atoms: C_16  and  C_23
    9  A    between atoms: C_17  and  C_29
   10  A    between atoms: C_21  and  C_29
                            x       y       z     vdW  Elec       q    Type
                         _______ _______ _______ _____ _____    ______ ____

>  <TORSDO>
F 10

$$$$
=
 OpenBabel11072411523D

 32 34  0  0  1  0  0  0  0  0999 V2000
  160.8950  206.7290  154.3250 N   0  0  0  0  0  0  0  0  0  0  0  0
  160.4860  209.1370  154.0780 N   0  0  0  0  0  0  0  0  0  0  0  0
  160.8790  209.2340  151.6920 C   0  0  1  0  0  3  0  0  0  0  0  0
  161.3600  206.6690  151.5720 C   0  0  0  0  0  0  0  0  0  0  0  0
  161.4480  205.4920  152.3370 C   0  0  0  0  0  3  0  0  0  0  0  0
  160.8160  207.8600  153.5800 C   0  0  0  0  0  0  0  0  0  0  0  0
  161.2100  205.5450  153.7240 C   0  0  0  0  0  3  0  0  0  0  0  0
  161.0440  207.8580  152.2360 C   0  0  0  0  0  0  0  0  0  0  0  0
  160.4910  210.0590  152.9410 C   0  0  0  0  0  3  0  0  0  0  0  0
  161.5180  205.5780  149.4220 N   0  0  0  0  0  0  0  0  0  0  0  0
  161.5950  206.6640  150.1220 C   0  0  0  0  0  3  0  0  0  0  0  0
  161.7620  205.6050  147.9890 C   0  0  2  0  0  3  0  0  0  0  0  0
  161.6340  205.5520  145.3000 O   0  0  0  0  0  0  0  0  0  0  0  0
  160.5080  206.1800  145.8700 C   0  0  0  0  0  2  0  0  0  0  0  0
  160.7920  206.5820  147.3200 C   0  0  0  0  0  2  0  0  0  0  0  0
  161.7870  204.2550  145.8630 C   0  0  1  0  0  3  0  0  0  0  0  0
  161.6130  204.2050  147.3920 C   0  0  0  0  0  2  0  0  0  0  0  0
  160.8920  203.2490  145.1970 C   0  0  0  0  0  3  0  0  0  0  0  0
  160.6600  202.0250  145.6870 C   0  0  0  0  0  0  0  0  0  0  0  0
  159.7500  201.1130  144.9360 C   0  0  0  0  0  1  0  0  0  0  0  0
  161.4320  200.1690  146.9390 O   0  0  0  0  0  1  0  0  0  0  0  0
  161.2700  201.5530  146.9700 C   0  0  0  0  0  2  0  0  0  0  0  0
  162.2030  209.7370  151.1360 C   0  0  0  0  0  2  0  0  0  0  0  0
  162.0150  211.0410  150.3740 C   0  0  0  0  0  2  0  0  0  0  0  0
  162.1580  209.6750  148.4620 O   0  0  0  0  0  0  0  0  0  0  0  0
  162.1340  210.8170  148.8930 C   0  0  0  0  0  0  0  0  0  0  0  0
  163.4930  212.5660  147.9900 O   0  0  0  0  0  1  0  0  0  0  0  0
  162.2320  211.9670  147.9330 C   0  0  2  0  0  3  0  0  0  0  0  0
  161.1540  212.9970  148.2340 C   0  0  0  0  0  2  0  0  0  0  0  0
  160.0200  212.8560  147.2800 C   0  0  0  0  0  0  0  0  0  0  0  0
  158.7140  213.0040  147.7290 O   0  0  0  0  0  1  0  0  0  0  0  0
  160.2410  212.5760  146.0740 O   0  0  0  0  0  0  0  0  0  0  0  0
  3 23  1  1  0  0  0
  3  8  1  0  0  0  0
  3  9  1  0  0  0  0
  4  8  2  0  0  0  0
  4  5  1  0  0  0  0
  5  7  2  0  0  0  0
  6  2  1  0  0  0  0
  6  1  2  0  0  0  0
  7  1  1  0  0  0  0
  8  6  1  0  0  0  0
  9  2  2  0  0  0  0
 10 11  2  0  0  0  0
 11  4  1  0  0  0  0
 12 10  1  1  0  0  0
 13 16  1  0  0  0  0
 13 14  1  0  0  0  0
 14 15  1  0  0  0  0
 15 12  1  0  0  0  0
 16 18  1  6  0  0  0
 16 17  1  0  0  0  0
 17 12  1  0  0  0  0
 18 19  2  0  0  0  0
 19 22  1  0  0  0  0
 20 19  1  0  0  0  0
 21 22  1  0  0  0  0
 24 23  1  0  0  0  0
 25 26  2  0  0  0  0
 26 24  1  0  0  0  0
 28 27  1  1  0  0  0
 28 29  1  0  0  0  0
 28 26  1  0  0  0  0
 30 31  1  0  0  0  0
 30 29  1  0  0  0  0
 32 30  2  0  0  0  0
M  END
>  <MODEL>
2

>  <REMARK>
 VINA RESULT:      -7.4      1.833      3.196
  Name = 
  10 active torsions:
  status: ('A' for Active; 'I' for Inactive)
    1  A    between atoms: C_3  and  N_24
    2  A    between atoms: C_4  and  C_21
    3  A    between atoms: C_6  and  C_17
    4  A    between atoms: C_6  and  C_18
    5  A    between atoms: C_9  and  C_18
    6  A    between atoms: C_10  and  C_26
    7  A    between atoms: C_14  and  C_28
    8  A    between atoms: C_16  and  C_23
    9  A    between atoms: C_17  and  C_29
   10  A    between atoms: C_21  and  C_29
                            x       y       z     vdW  Elec       q    Type
                         _______ _______ _______ _____ _____    ______ ____

>  <TORSDO>
F 10

$$$$
=
 OpenBabel11072411523D

 32 34  0  0  1  0  0  0  0  0999 V2000
  160.8550  201.7130  148.1700 N   0  0  0  0  0  0  0  0  0  0  0  0
  161.6250  203.4130  146.5760 N   0  0  0  0  0  0  0  0  0  0  0  0
  161.6790  205.2520  148.1480 C   0  0  1  0  0  3  0  0  0  0  0  0
  160.8820  203.7220  150.1100 C   0  0  0  0  0  0  0  0  0  0  0  0
  160.5010  202.4100  150.4460 C   0  0  0  0  0  3  0  0  0  0  0  0
  161.2180  202.9820  147.8550 C   0  0  0  0  0  0  0  0  0  0  0  0
  160.4940  201.4130  149.4520 C   0  0  0  0  0  3  0  0  0  0  0  0
  161.2340  203.9810  148.7820 C   0  0  0  0  0  0  0  0  0  0  0  0
  161.9470  204.8370  146.6830 C   0  0  0  0  0  3  0  0  0  0  0  0
  161.9300  204.9790  151.8880 N   0  0  0  0  0  0  0  0  0  0  0  0
  160.9100  204.7960  151.1120 C   0  0  0  0  0  3  0  0  0  0  0  0
  161.9250  206.0480  152.8730 C   0  0  2  0  0  3  0  0  0  0  0  0
  161.3300  207.9740  154.6590 O   0  0  0  0  0  0  0  0  0  0  0  0
  160.4540  206.8740  154.7570 C   0  0  0  0  0  2  0  0  0  0  0  0
  161.0520  205.6460  154.0650 C   0  0  0  0  0  2  0  0  0  0  0  0
  161.3350  208.4550  153.3200 C   0  0  1  0  0  3  0  0  0  0  0  0
  161.4200  207.3500  152.2520 C   0  0  0  0  0  2  0  0  0  0  0  0
  160.1680  209.3620  153.0490 C   0  0  0  0  0  3  0  0  0  0  0  0
  160.0260  210.5730  153.6040 C   0  0  0  0  0  0  0  0  0  0  0  0
  158.8230  211.3830  153.2570 C   0  0  0  0  0  1  0  0  0  0  0  0
  160.4650  212.1420  155.3220 O   0  0  0  0  0  1  0  0  0  0  0  0
  161.0440  211.1420  154.5420 C   0  0  0  0  0  2  0  0  0  0  0  0
  160.5550  206.2780  148.1920 C   0  0  0  0  0  2  0  0  0  0  0  0
  160.9090  207.4360  149.1150 C   0  0  0  0  0  2  0  0  0  0  0  0
  162.8420  207.6700  147.7910 O   0  0  0  0  0  0  0  0  0  0  0  0
  162.0790  208.2090  148.5780 C   0  0  0  0  0  0  0  0  0  0  0  0
  162.0650  209.8130  150.3520 O   0  0  0  0  0  1  0  0  0  0  0  0
  162.3370  209.6290  148.9950 C   0  0  2  0  0  3  0  0  0  0  0  0
  161.4940  210.5820  148.1620 C   0  0  0  0  0  2  0  0  0  0  0  0
  161.9450  211.9870  148.3620 C   0  0  0  0  0  0  0  0  0  0  0  0
  161.1160  212.8970  149.0030 O   0  0  0  0  0  1  0  0  0  0  0  0
  163.0650  212.3570  147.9260 O   0  0  0  0  0  0  0  0  0  0  0  0
  1  7  1  0  0  0  0
  2  9  2  0  0  0  0
  2  6  1  0  0  0  0
  3 23  1  6  0  0  0
  3  8  1  0  0  0  0
  4  5  1  0  0  0  0
  4 11  1  0  0  0  0
  6  1  2  0  0  0  0
  6  8  1  0  0  0  0
  7  5  2  0  0  0  0
  8  4  2  0  0  0  0
  9  3  1  0  0  0  0
 11 10  2  0  0  0  0
 12 10  1  6  0  0  0
 12 15  1  0  0  0  0
 13 14  1  0  0  0  0
 15 14  1  0  0  0  0
 16 18  1  6  0  0  0
 16 13  1  0  0  0  0
 17 12  1  0  0  0  0
 17 16  1  0  0  0  0
 18 19  2  0  0  0  0
 19 22  1  0  0  0  0
 20 19  1  0  0  0  0
 22 21  1  0  0  0  0
 23 24  1  0  0  0  0
 25 26  2  0  0  0  0
 26 28  1  0  0  0  0
 26 24  1  0  0  0  0
 28 27  1  1  0  0  0
 29 30  1  0  0  0  0
 29 28  1  0  0  0  0
 30 31  1  0  0  0  0
 32 30  2  0  0  0  0
M  END
>  <MODEL>
3

>  <REMARK>
 VINA RESULT:      -7.2      2.643      6.542
  Name = 
  10 active torsions:
  status: ('A' for Active; 'I' for Inactive)
    1  A    between atoms: C_3  and  N_24
    2  A    between atoms: C_4  and  C_21
    3  A    between atoms: C_6  and  C_17
    4  A    between atoms: C_6  and  C_18
    5  A    between atoms: C_9  and  C_18
    6  A    between atoms: C_10  and  C_26
    7  A    between atoms: C_14  and  C_28
    8  A    between atoms: C_16  and  C_23
    9  A    between atoms: C_17  and  C_29
   10  A    between atoms: C_21  and  C_29
                            x       y       z     vdW  Elec       q    Type
                         _______ _______ _______ _____ _____    ______ ____

>  <TORSDO>
F 10

$$$$
=
 OpenBabel11072411523D

 32 34  0  0  1  0  0  0  0  0999 V2000
  160.7500  203.2760  149.0080 N   0  0  0  0  0  0  0  0  0  0  0  0
  161.6040  204.7920  147.2760 N   0  0  0  0  0  0  0  0  0  0  0  0
  162.1840  206.6070  148.7690 C   0  0  1  0  0  3  0  0  0  0  0  0
  161.3800  205.2680  150.8620 C   0  0  0  0  0  0  0  0  0  0  0  0
  160.8160  204.0500  151.2850 C   0  0  0  0  0  3  0  0  0  0  0  0
  161.2910  204.4550  148.6090 C   0  0  0  0  0  0  0  0  0  0  0  0
  160.5060  203.0600  150.3320 C   0  0  0  0  0  3  0  0  0  0  0  0
  161.6020  205.4440  149.4940 C   0  0  0  0  0  0  0  0  0  0  0  0
  162.1860  206.1360  147.2960 C   0  0  0  0  0  3  0  0  0  0  0  0
  160.8360  206.8670  152.5890 N   0  0  0  0  0  0  0  0  0  0  0  0
  161.7250  206.3290  151.8170 C   0  0  0  0  0  3  0  0  0  0  0  0
  161.2080  207.9200  153.5200 C   0  0  2  0  0  3  0  0  0  0  0  0
  161.4070  209.7050  155.5270 O   0  0  0  0  0  0  0  0  0  0  0  0
  160.9260  208.4580  155.9750 C   0  0  0  0  0  2  0  0  0  0  0  0
  161.2260  207.3640  154.9460 C   0  0  0  0  0  2  0  0  0  0  0  0
  160.5880  210.1720  154.4620 C   0  0  1  0  0  3  0  0  0  0  0  0
  160.2400  209.0980  153.4140 C   0  0  0  0  0  2  0  0  0  0  0  0
  159.3400  210.8370  154.9690 C   0  0  0  0  0  3  0  0  0  0  0  0
  158.7880  211.9130  154.3940 C   0  0  0  0  0  0  0  0  0  0  0  0
  157.5460  212.4850  154.9890 C   0  0  0  0  0  1  0  0  0  0  0  0
  158.5950  212.2110  152.0530 O   0  0  0  0  0  1  0  0  0  0  0  0
  159.3670  212.5430  153.1660 C   0  0  0  0  0  2  0  0  0  0  0  0
  161.2750  207.8200  148.9160 C   0  0  0  0  0  2  0  0  0  0  0  0
  161.9520  209.0760  148.3860 C   0  0  0  0  0  2  0  0  0  0  0  0
  162.1930  209.7740  150.6210 O   0  0  0  0  0  0  0  0  0  0  0  0
  162.0540  210.1220  149.4590 C   0  0  0  0  0  0  0  0  0  0  0  0
  161.1130  212.2530  150.0060 O   0  0  0  0  0  1  0  0  0  0  0  0
  161.9780  211.5870  149.1340 C   0  0  2  0  0  3  0  0  0  0  0  0
  161.5200  211.7830  147.6970 C   0  0  0  0  0  2  0  0  0  0  0  0
  162.2510  212.9180  147.0690 C   0  0  0  0  0  0  0  0  0  0  0  0
  162.9810  213.7960  147.8590 O   0  0  0  0  0  1  0  0  0  0  0  0
  162.1860  213.0980  145.8260 O   0  0  0  0  0  0  0  0  0  0  0  0
  1  7  1  0  0  0  0
  2  9  2  0  0  0  0
  2  6  1  0  0  0  0
  3 23  1  6  0  0  0
  3  8  1  0  0  0  0
  4  5  1  0  0  0  0
  4 11  1  0  0  0  0
  6  1  2  0  0  0  0
  6  8  1  0  0  0  0
  7  5  2  0  0  0  0
  8  4  2  0  0  0  0
  9  3  1  0  0  0  0
 11 10  2  0  0  0  0
 12 10  1  6  0  0  0
 12 15  1  0  0  0  0
 13 14  1  0  0  0  0
 15 14  1  0  0  0  0
 16 18  1  1  0  0  0
 16 13  1  0  0  0  0
 17 12  1  0  0  0  0
 17 16  1  0  0  0  0
 19 18  2  0  0  0  0
 19 20  1  0  0  0  0
 21 22  1  0  0  0  0
 22 19  1  0  0  0  0
 24 23  1  0  0  0  0
 24 26  1  0  0  0  0
 26 25  2  0  0  0  0
 28 26  1  0  0  0  0
 28 27  1  1  0  0  0
 29 28  1  0  0  0  0
 30 29  1  0  0  0  0
 30 31  1  0  0  0  0
 32 30  2  0  0  0  0
M  END
>  <MODEL>
4

>  <REMARK>
 VINA RESULT:      -6.9      2.504      6.479
  Name = 
  10 active torsions:
  status: ('A' for Active; 'I' for Inactive)
    1  A    between atoms: C_3  and  N_24
    2  A    between atoms: C_4  and  C_21
    3  A    between atoms: C_6  and  C_17
    4  A    between atoms: C_6  and  C_18
    5  A    between atoms: C_9  and  C_18
    6  A    between atoms: C_10  and  C_26
    7  A    between atoms: C_14  and  C_28
    8  A    between atoms: C_16  and  C_23
    9  A    between atoms: C_17  and  C_29
   10  A    between atoms: C_21  and  C_29
                            x       y       z     vdW  Elec       q    Type
                         _______ _______ _______ _____ _____    ______ ____

>  <TORSDO>
F 10

$$$$
=
 OpenBabel11072411523D

 32 34  0  0  1  0  0  0  0  0999 V2000
  159.5220  210.5350  156.3500 N   0  0  0  0  0  0  0  0  0  0  0  0
  160.1070  208.2400  156.9970 N   0  0  0  0  0  0  0  0  0  0  0  0
  161.2740  207.6730  154.9540 C   0  0  1  0  0  3  0  0  0  0  0  0
  160.8510  210.0440  153.9430 C   0  0  0  0  0  0  0  0  0  0  0  0
  160.2560  211.2950  154.1890 C   0  0  0  0  0  3  0  0  0  0  0  0
  160.0960  209.3300  156.1030 C   0  0  0  0  0  0  0  0  0  0  0  0
  159.5910  211.5200  155.4090 C   0  0  0  0  0  3  0  0  0  0  0  0
  160.7450  209.0640  154.9340 C   0  0  0  0  0  0  0  0  0  0  0  0
  160.8460  207.1560  156.3480 C   0  0  0  0  0  3  0  0  0  0  0  0
  161.1270  208.8810  151.8430 N   0  0  0  0  0  0  0  0  0  0  0  0
  161.5590  209.7610  152.6870 C   0  0  0  0  0  3  0  0  0  0  0  0
  161.8540  208.6200  150.6120 C   0  0  2  0  0  3  0  0  0  0  0  0
  162.7350  208.3910  148.0770 O   0  0  0  0  0  0  0  0  0  0  0  0
  162.0650  209.6120  148.2960 C   0  0  0  0  0  2  0  0  0  0  0  0
  161.9630  209.9100  149.7950 C   0  0  0  0  0  2  0  0  0  0  0  0
  161.8880  207.3140  148.4580 C   0  0  1  0  0  3  0  0  0  0  0  0
  161.1620  207.5250  149.8000 C   0  0  0  0  0  2  0  0  0  0  0  0
  160.9060  206.9670  147.3760 C   0  0  0  0  0  3  0  0  0  0  0  0
  161.1730  206.1160  146.3770 C   0  0  0  0  0  0  0  0  0  0  0  0
  160.1150  205.8500  145.3610 C   0  0  0  0  0  1  0  0  0  0  0  0
  162.5020  204.6120  145.1220 O   0  0  0  0  0  1  0  0  0  0  0  0
  162.4890  205.4130  146.2630 C   0  0  0  0  0  2  0  0  0  0  0  0
  160.5980  206.8430  153.8710 C   0  0  0  0  0  2  0  0  0  0  0  0
  161.0940  205.4040  153.8960 C   0  0  0  0  0  2  0  0  0  0  0  0
  162.4990  205.6300  152.0200 O   0  0  0  0  0  0  0  0  0  0  0  0
  161.6010  204.9900  152.5440 C   0  0  0  0  0  0  0  0  0  0  0  0
  161.9540  202.7790  151.7020 O   0  0  0  0  0  1  0  0  0  0  0  0
  161.0200  203.8110  151.8180 C   0  0  2  0  0  3  0  0  0  0  0  0
  160.5340  204.2300  150.4390 C   0  0  0  0  0  2  0  0  0  0  0  0
  160.7710  203.1420  149.4510 C   0  0  0  0  0  0  0  0  0  0  0  0
  160.1160  201.9250  149.5880 O   0  0  0  0  0  1  0  0  0  0  0  0
  161.5860  203.3140  148.5080 O   0  0  0  0  0  0  0  0  0  0  0  0
  3 23  1  6  0  0  0
  3  9  1  0  0  0  0
  4  5  1  0  0  0  0
  4  8  2  0  0  0  0
  5  7  2  0  0  0  0
  6  1  2  0  0  0  0
  6  2  1  0  0  0  0
  7  1  1  0  0  0  0
  8  3  1  0  0  0  0
  8  6  1  0  0  0  0
  9  2  2  0  0  0  0
 10 11  2  0  0  0  0
 11  4  1  0  0  0  0
 12 10  1  1  0  0  0
 13 14  1  0  0  0  0
 13 16  1  0  0  0  0
 14 15  1  0  0  0  0
 15 12  1  0  0  0  0
 16 18  1  6  0  0  0
 16 17  1  0  0  0  0
 17 12  1  0  0  0  0
 19 18  2  0  0  0  0
 20 19  1  0  0  0  0
 21 22  1  0  0  0  0
 22 19  1  0  0  0  0
 23 24  1  0  0  0  0
 25 26  2  0  0  0  0
 26 24  1  0  0  0  0
 28 27  1  6  0  0  0
 28 26  1  0  0  0  0
 29 28  1  0  0  0  0
 30 31  1  0  0  0  0
 30 29  1  0  0  0  0
 32 30  2  0  0  0  0
M  END
>  <MODEL>
5

>  <REMARK>
 VINA RESULT:      -6.8      2.361      5.838
  Name = 
  10 active torsions:
  status: ('A' for Active; 'I' for Inactive)
    1  A    between atoms: C_3  and  N_24
    2  A    between atoms: C_4  and  C_21
    3  A    between atoms: C_6  and  C_17
    4  A    between atoms: C_6  and  C_18
    5  A    between atoms: C_9  and  C_18
    6  A    between atoms: C_10  and  C_26
    7  A    between atoms: C_14  and  C_28
    8  A    between atoms: C_16  and  C_23
    9  A    between atoms: C_17  and  C_29
   10  A    between atoms: C_21  and  C_29
                            x       y       z     vdW  Elec       q    Type
                         _______ _______ _______ _____ _____    ______ ____

>  <TORSDO>
F 10

$$$$
=
 OpenBabel11072411523D

 32 34  0  0  1  0  0  0  0  0999 V2000
  160.8260  208.8140  153.7010 N   0  0  0  0  0  0  0  0  0  0  0  0
  161.3950  206.5920  152.8250 N   0  0  0  0  0  0  0  0  0  0  0  0
  162.0650  207.3340  150.6210 C   0  0  1  0  0  3  0  0  0  0  0  0
  161.5820  209.8330  151.2120 C   0  0  0  0  0  0  0  0  0  0  0  0
  161.1290  210.6930  152.2290 C   0  0  0  0  0  3  0  0  0  0  0  0
  161.2610  207.9910  152.7130 C   0  0  0  0  0  0  0  0  0  0  0  0
  160.7530  210.1580  153.4760 C   0  0  0  0  0  3  0  0  0  0  0  0
  161.6290  208.4630  151.4890 C   0  0  0  0  0  0  0  0  0  0  0  0
  161.9130  206.1040  151.5460 C   0  0  0  0  0  3  0  0  0  0  0  0
  161.5410  211.4640  149.4310 N   0  0  0  0  0  0  0  0  0  0  0  0
  161.9890  210.3430  149.8960 C   0  0  0  0  0  3  0  0  0  0  0  0
  161.9600  211.9390  148.1220 C   0  0  2  0  0  3  0  0  0  0  0  0
  162.4280  213.2990  145.8450 O   0  0  0  0  0  0  0  0  0  0  0  0
  162.4380  214.1410  146.9760 C   0  0  0  0  0  2  0  0  0  0  0  0
  162.6050  213.3200  148.2580 C   0  0  0  0  0  2  0  0  0  0  0  0
  161.2030  212.5780  145.8060 C   0  0  1  0  0  3  0  0  0  0  0  0
  160.7700  211.9930  147.1630 C   0  0  0  0  0  2  0  0  0  0  0  0
  160.0930  213.3950  145.2060 C   0  0  0  0  0  3  0  0  0  0  0  0
  159.7300  213.3200  143.9200 C   0  0  0  0  0  0  0  0  0  0  0  0
  158.6120  214.1810  143.4400 C   0  0  0  0  0  1  0  0  0  0  0  0
  161.5060  213.0090  142.3840 O   0  0  0  0  0  1  0  0  0  0  0  0
  160.3980  212.3870  142.9580 C   0  0  0  0  0  2  0  0  0  0  0  0
  161.1260  207.1990  149.4310 C   0  0  0  0  0  2  0  0  0  0  0  0
  160.6350  205.7660  149.2830 C   0  0  0  0  0  2  0  0  0  0  0  0
  161.6370  205.7840  147.1530 O   0  0  0  0  0  0  0  0  0  0  0  0
  161.2730  205.1010  148.0980 C   0  0  0  0  0  0  0  0  0  0  0  0
  161.3530  203.1340  146.7380 O   0  0  0  0  0  1  0  0  0  0  0  0
  161.4670  203.6120  148.0460 C   0  0  2  0  0  3  0  0  0  0  0  0
  160.4530  202.9190  148.9420 C   0  0  0  0  0  2  0  0  0  0  0  0
  160.9810  201.6070  149.4070 C   0  0  0  0  0  0  0  0  0  0  0  0
  161.1800  200.5780  148.4970 O   0  0  0  0  0  0  0  0  0  0  0  0
  161.2190  201.4210  150.6280 O   0  0  0  0  0  1  0  0  0  0  0  0
  3 23  1  6  0  0  0
  3  8  1  0  0  0  0
  3  9  1  0  0  0  0
  4  8  2  0  0  0  0
  4  5  1  0  0  0  0
  5  7  2  0  0  0  0
  6  2  1  0  0  0  0
  6  1  2  0  0  0  0
  7  1  1  0  0  0  0
  8  6  1  0  0  0  0
  9  2  2  0  0  0  0
 10 11  2  0  0  0  0
 11  4  1  0  0  0  0
 12 15  1  0  0  0  0
 12 10  1  1  0  0  0
 13 14  1  0  0  0  0
 14 15  1  0  0  0  0
 16 18  1  1  0  0  0
 16 13  1  0  0  0  0
 16 17  1  0  0  0  0
 17 12  1  0  0  0  0
 19 18  2  0  0  0  0
 20 19  1  0  0  0  0
 21 22  1  0  0  0  0
 22 19  1  0  0  0  0
 24 23  1  0  0  0  0
 25 26  2  0  0  0  0
 26 24  1  0  0  0  0
 28 27  1  6  0  0  0
 28 26  1  0  0  0  0
 28 29  1  0  0  0  0
 29 30  1  0  0  0  0
 30 32  1  0  0  0  0
 31 30  2  0  0  0  0
M  END
>  <MODEL>
6

>  <REMARK>
 VINA RESULT:      -6.8      2.469      7.942
  Name = 
  10 active torsions:
  status: ('A' for Active; 'I' for Inactive)
    1  A    between atoms: C_3  and  N_24
    2  A    between atoms: C_4  and  C_21
    3  A    between atoms: C_6  and  C_17
    4  A    between atoms: C_6  and  C_18
    5  A    between atoms: C_9  and  C_18
    6  A    between atoms: C_10  and  C_26
    7  A    between atoms: C_14  and  C_28
    8  A    between atoms: C_16  and  C_23
    9  A    between atoms: C_17  and  C_29
   10  A    between atoms: C_21  and  C_29
                            x       y       z     vdW  Elec       q    Type
                         _______ _______ _______ _____ _____    ______ ____

>  <TORSDO>
F 10

$$$$
=
 OpenBabel11072411523D

 32 34  0  0  1  0  0  0  0  0999 V2000
  160.5850  206.9860  155.0380 N   0  0  0  0  0  0  0  0  0  0  0  0
  161.6840  205.6710  153.2790 N   0  0  0  0  0  0  0  0  0  0  0  0
  162.0110  207.5060  151.7360 C   0  0  1  0  0  3  0  0  0  0  0  0
  160.9050  209.2100  153.3790 C   0  0  0  0  0  0  0  0  0  0  0  0
  160.2930  209.3400  154.6390 C   0  0  0  0  0  3  0  0  0  0  0  0
  161.1720  206.8690  153.8200 C   0  0  0  0  0  0  0  0  0  0  0  0
  160.1420  208.2050  155.4590 C   0  0  0  0  0  3  0  0  0  0  0  0
  161.3340  207.9370  152.9900 C   0  0  0  0  0  0  0  0  0  0  0  0
  162.2440  205.9950  151.9660 C   0  0  0  0  0  3  0  0  0  0  0  0
  160.2450  211.3430  152.4580 N   0  0  0  0  0  0  0  0  0  0  0  0
  161.0900  210.3640  152.4890 C   0  0  0  0  0  3  0  0  0  0  0  0
  160.4530  212.4690  151.5620 C   0  0  2  0  0  3  0  0  0  0  0  0
  160.3120  214.4010  149.6920 O   0  0  0  0  0  0  0  0  0  0  0  0
  159.0630  214.1630  150.3000 C   0  0  0  0  0  2  0  0  0  0  0  0
  159.2430  213.4030  151.6180 C   0  0  0  0  0  2  0  0  0  0  0  0
  160.8260  213.1800  149.1750 C   0  0  1  0  0  3  0  0  0  0  0  0
  160.6920  211.9820  150.1330 C   0  0  0  0  0  2  0  0  0  0  0  0
  160.2360  212.8510  147.8330 C   0  0  0  0  0  3  0  0  0  0  0  0
  160.9180  212.9340  146.6830 C   0  0  0  0  0  0  0  0  0  0  0  0
  160.2250  212.5790  145.4120 C   0  0  0  0  0  1  0  0  0  0  0  0
  162.8590  213.1840  145.3500 O   0  0  0  0  0  1  0  0  0  0  0  0
  162.3550  213.3510  146.6400 C   0  0  0  0  0  2  0  0  0  0  0  0
  161.0810  207.7040  150.5470 C   0  0  0  0  0  2  0  0  0  0  0  0
  160.7720  206.3770  149.8680 C   0  0  0  0  0  2  0  0  0  0  0  0
  161.7890  207.3790  147.9960 O   0  0  0  0  0  0  0  0  0  0  0  0
  161.2910  206.3640  148.4590 C   0  0  0  0  0  0  0  0  0  0  0  0
  161.5850  203.9950  148.3170 O   0  0  0  0  0  1  0  0  0  0  0  0
  161.2020  205.1330  147.6040 C   0  0  2  0  0  3  0  0  0  0  0  0
  162.0740  205.2880  146.3670 C   0  0  0  0  0  2  0  0  0  0  0  0
  161.2300  205.4970  145.1580 C   0  0  0  0  0  0  0  0  0  0  0  0
  160.0390  206.2030  145.2570 O   0  0  0  0  0  1  0  0  0  0  0  0
  161.5810  205.0100  144.0530 O   0  0  0  0  0  0  0  0  0  0  0  0
  1  7  1  0  0  0  0
  2  6  1  0  0  0  0
  3 23  1  6  0  0  0
  3  9  1  0  0  0  0
  3  8  1  0  0  0  0
  4  5  1  0  0  0  0
  5  7  2  0  0  0  0
  6  1  2  0  0  0  0
  8  4  2  0  0  0  0
  8  6  1  0  0  0  0
  9  2  2  0  0  0  0
 10 11  2  0  0  0  0
 11  4  1  0  0  0  0
 12 15  1  0  0  0  0
 12 10  1  1  0  0  0
 13 14  1  0  0  0  0
 14 15  1  0  0  0  0
 16 18  1  6  0  0  0
 16 13  1  0  0  0  0
 16 17  1  0  0  0  0
 17 12  1  0  0  0  0
 19 18  2  0  0  0  0
 20 19  1  0  0  0  0
 21 22  1  0  0  0  0
 22 19  1  0  0  0  0
 24 23  1  0  0  0  0
 25 26  2  0  0  0  0
 26 24  1  0  0  0  0
 28 27  1  1  0  0  0
 28 26  1  0  0  0  0
 29 28  1  0  0  0  0
 30 31  1  0  0  0  0
 30 29  1  0  0  0  0
 32 30  2  0  0  0  0
M  END
>  <MODEL>
7

>  <REMARK>
 VINA RESULT:      -6.7      1.857      6.860
  Name = 
  10 active torsions:
  status: ('A' for Active; 'I' for Inactive)
    1  A    between atoms: C_3  and  N_24
    2  A    between atoms: C_4  and  C_21
    3  A    between atoms: C_6  and  C_17
    4  A    between atoms: C_6  and  C_18
    5  A    between atoms: C_9  and  C_18
    6  A    between atoms: C_10  and  C_26
    7  A    between atoms: C_14  and  C_28
    8  A    between atoms: C_16  and  C_23
    9  A    between atoms: C_17  and  C_29
   10  A    between atoms: C_21  and  C_29
                            x       y       z     vdW  Elec       q    Type
                         _______ _______ _______ _____ _____    ______ ____

>  <TORSDO>
F 10

$$$$
=
 OpenBabel11072411523D

 32 34  0  0  1  0  0  0  0  0999 V2000
  160.8180  209.8220  155.9300 N   0  0  0  0  0  0  0  0  0  0  0  0
  160.3590  211.6580  154.3670 N   0  0  0  0  0  0  0  0  0  0  0  0
  160.4110  210.3170  152.3520 C   0  0  1  0  0  3  0  0  0  0  0  0
  160.8920  208.1340  153.7050 C   0  0  0  0  0  0  0  0  0  0  0  0
  161.0960  207.6210  154.9990 C   0  0  0  0  0  3  0  0  0  0  0  0
  160.6260  210.3090  154.6780 C   0  0  0  0  0  0  0  0  0  0  0  0
  161.0550  208.4890  156.1060 C   0  0  0  0  0  3  0  0  0  0  0  0
  160.6630  209.5070  153.5770 C   0  0  0  0  0  0  0  0  0  0  0  0
  160.1970  211.7420  152.9140 C   0  0  0  0  0  3  0  0  0  0  0  0
  162.0290  206.9660  151.9220 N   0  0  0  0  0  0  0  0  0  0  0  0
  160.9210  207.2680  152.5190 C   0  0  0  0  0  3  0  0  0  0  0  0
  162.0230  206.1110  150.7460 C   0  0  2  0  0  3  0  0  0  0  0  0
  161.4300  204.5970  148.6000 O   0  0  0  0  0  0  0  0  0  0  0  0
  160.6010  205.7330  148.6910 C   0  0  0  0  0  2  0  0  0  0  0  0
  161.2160  206.7750  149.6290 C   0  0  0  0  0  2  0  0  0  0  0  0
  161.3620  203.8650  149.8180 C   0  0  1  0  0  3  0  0  0  0  0  0
  161.4450  204.7360  151.0840 C   0  0  0  0  0  2  0  0  0  0  0  0
  160.1510  202.9760  149.8670 C   0  0  0  0  0  3  0  0  0  0  0  0
  160.0690  201.7990  149.2340 C   0  0  0  0  0  0  0  0  0  0  0  0
  158.8140  201.0050  149.3590 C   0  0  0  0  0  1  0  0  0  0  0  0
  160.9550  201.4490  147.0660 O   0  0  0  0  0  1  0  0  0  0  0  0
  161.2030  201.2520  148.4240 C   0  0  0  0  0  2  0  0  0  0  0  0
  161.6410  210.3000  151.4550 C   0  0  0  0  0  2  0  0  0  0  0  0
  161.6150  211.4620  150.4720 C   0  0  0  0  0  2  0  0  0  0  0  0
  162.1970  209.8140  148.8940 O   0  0  0  0  0  0  0  0  0  0  0  0
  161.9530  210.9960  149.0850 C   0  0  0  0  0  0  0  0  0  0  0  0
  163.1940  212.6900  147.9390 O   0  0  0  0  0  1  0  0  0  0  0  0
  162.0080  211.9530  147.9290 C   0  0  2  0  0  3  0  0  0  0  0  0
  160.8120  212.8930  147.9680 C   0  0  0  0  0  2  0  0  0  0  0  0
  159.9010  212.6230  146.8220 C   0  0  0  0  0  0  0  0  0  0  0  0
  160.4210  212.4600  145.5450 O   0  0  0  0  0  0  0  0  0  0  0  0
  158.6570  212.5710  147.0050 O   0  0  0  0  0  1  0  0  0  0  0  0
  1  7  1  0  0  0  0
  2  6  1  0  0  0  0
  3 23  1  6  0  0  0
  3  9  1  0  0  0  0
  3  8  1  0  0  0  0
  4  5  1  0  0  0  0
  5  7  2  0  0  0  0
  6  1  2  0  0  0  0
  8  4  2  0  0  0  0
  8  6  1  0  0  0  0
  9  2  2  0  0  0  0
 10 11  2  0  0  0  0
 11  4  1  0  0  0  0
 12 17  1  0  0  0  0
 12 10  1  1  0  0  0
 13 14  1  0  0  0  0
 13 16  1  0  0  0  0
 14 15  1  0  0  0  0
 15 12  1  0  0  0  0
 16 18  1  1  0  0  0
 16 17  1  0  0  0  0
 19 20  1  0  0  0  0
 19 18  2  0  0  0  0
 21 22  1  0  0  0  0
 22 19  1  0  0  0  0
 24 23  1  0  0  0  0
 25 26  2  0  0  0  0
 26 24  1  0  0  0  0
 28 27  1  1  0  0  0
 28 29  1  0  0  0  0
 28 26  1  0  0  0  0
 30 32  1  0  0  0  0
 30 29  1  0  0  0  0
 31 30  2  0  0  0  0
M  END
>  <MODEL>
8

>  <REMARK>
 VINA RESULT:      -6.7      1.520      2.422
  Name = 
  10 active torsions:
  status: ('A' for Active; 'I' for Inactive)
    1  A    between atoms: C_3  and  N_24
    2  A    between atoms: C_4  and  C_21
    3  A    between atoms: C_6  and  C_17
    4  A    between atoms: C_6  and  C_18
    5  A    between atoms: C_9  and  C_18
    6  A    between atoms: C_10  and  C_26
    7  A    between atoms: C_14  and  C_28
    8  A    between atoms: C_16  and  C_23
    9  A    between atoms: C_17  and  C_29
   10  A    between atoms: C_21  and  C_29
                            x       y       z     vdW  Elec       q    Type
                         _______ _______ _______ _____ _____    ______ ____

>  <TORSDO>
F 10

$$$$
=
 OpenBabel11072411523D

 32 34  0  0  1  0  0  0  0  0999 V2000
  161.5690  203.4970  147.3680 N   0  0  0  0  0  0  0  0  0  0  0  0
  160.7920  202.9560  149.6330 N   0  0  0  0  0  0  0  0  0  0  0  0
  160.7530  205.2320  150.4550 C   0  0  1  0  0  3  0  0  0  0  0  0
  161.5590  206.1770  148.1570 C   0  0  0  0  0  0  0  0  0  0  0  0
  161.9390  205.8180  146.8510 C   0  0  0  0  0  3  0  0  0  0  0  0
  161.2060  203.8530  148.6260 C   0  0  0  0  0  0  0  0  0  0  0  0
  161.9370  204.4610  146.4750 C   0  0  0  0  0  3  0  0  0  0  0  0
  161.1990  205.1520  149.0370 C   0  0  0  0  0  0  0  0  0  0  0  0
  160.4740  203.7550  150.8180 C   0  0  0  0  0  3  0  0  0  0  0  0
  162.5510  208.3650  148.4110 N   0  0  0  0  0  0  0  0  0  0  0  0
  161.5400  207.5780  148.5960 C   0  0  0  0  0  3  0  0  0  0  0  0
  162.5040  209.7460  148.8620 C   0  0  2  0  0  3  0  0  0  0  0  0
  161.8500  212.1820  149.8060 O   0  0  0  0  0  0  0  0  0  0  0  0
  161.2090  211.1490  150.5190 C   0  0  0  0  0  2  0  0  0  0  0  0
  161.9060  209.8080  150.2690 C   0  0  0  0  0  2  0  0  0  0  0  0
  161.5690  212.0430  148.4190 C   0  0  1  0  0  3  0  0  0  0  0  0
  161.6880  210.6010  147.8920 C   0  0  0  0  0  2  0  0  0  0  0  0
  160.2320  212.6270  148.0600 C   0  0  0  0  0  3  0  0  0  0  0  0
  160.0380  213.4530  147.0250 C   0  0  0  0  0  0  0  0  0  0  0  0
  158.6630  213.9690  146.7670 C   0  0  0  0  0  1  0  0  0  0  0  0
  161.2530  212.9520  145.0550 O   0  0  0  0  0  1  0  0  0  0  0  0
  161.1530  213.8570  146.1110 C   0  0  0  0  0  2  0  0  0  0  0  0
  161.8790  205.7690  151.3270 C   0  0  0  0  0  2  0  0  0  0  0  0
  161.4240  206.9870  152.1180 C   0  0  0  0  0  2  0  0  0  0  0  0
  161.2040  205.4620  153.8980 O   0  0  0  0  0  0  0  0  0  0  0  0
  161.2090  206.6360  153.5630 C   0  0  0  0  0  0  0  0  0  0  0  0
  159.9820  207.3290  155.4960 O   0  0  0  0  0  1  0  0  0  0  0  0
  160.9900  207.6980  154.6020 C   0  0  2  0  0  3  0  0  0  0  0  0
  160.6370  209.0190  153.9370 C   0  0  0  0  0  2  0  0  0  0  0  0
  161.1930  210.1590  154.7170 C   0  0  0  0  0  0  0  0  0  0  0  0
  160.8300  211.4610  154.3970 O   0  0  0  0  0  0  0  0  0  0  0  0
  162.0130  209.9470  155.6460 O   0  0  0  0  0  1  0  0  0  0  0  0
  1  6  2  0  0  0  0
  2  9  2  0  0  0  0
  3  9  1  0  0  0  0
  3 23  1  1  0  0  0
  4 11  1  0  0  0  0
  4  8  2  0  0  0  0
  5  4  1  0  0  0  0
  6  8  1  0  0  0  0
  6  2  1  0  0  0  0
  7  5  2  0  0  0  0
  7  1  1  0  0  0  0
  8  3  1  0  0  0  0
 10 11  2  0  0  0  0
 12 10  1  6  0  0  0
 12 15  1  0  0  0  0
 13 14  1  0  0  0  0
 15 14  1  0  0  0  0
 16 18  1  1  0  0  0
 16 13  1  0  0  0  0
 17 16  1  0  0  0  0
 17 12  1  0  0  0  0
 19 18  2  0  0  0  0
 20 19  1  0  0  0  0
 21 22  1  0  0  0  0
 22 19  1  0  0  0  0
 23 24  1  0  0  0  0
 24 26  1  0  0  0  0
 26 25  2  0  0  0  0
 26 28  1  0  0  0  0
 28 27  1  1  0  0  0
 29 28  1  0  0  0  0
 29 30  1  0  0  0  0
 30 32  1  0  0  0  0
 31 30  2  0  0  0  0
M  END
>  <MODEL>
9

>  <REMARK>
 VINA RESULT:      -6.5      3.017      7.596
  Name = 
  10 active torsions:
  status: ('A' for Active; 'I' for Inactive)
    1  A    between atoms: C_3  and  N_24
    2  A    between atoms: C_4  and  C_21
    3  A    between atoms: C_6  and  C_17
    4  A    between atoms: C_6  and  C_18
    5  A    between atoms: C_9  and  C_18
    6  A    between atoms: C_10  and  C_26
    7  A    between atoms: C_14  and  C_28
    8  A    between atoms: C_16  and  C_23
    9  A    between atoms: C_17  and  C_29
   10  A    between atoms: C_21  and  C_29
                            x       y       z     vdW  Elec       q    Type
                         _______ _______ _______ _____ _____    ______ ____

>  <TORSDO>
F 10

$$$$
