=
 OpenBabel11072414223D

 26 30  0  0  1  0  0  0  0  0999 V2000
  161.4450  205.2420  148.1230 C   0  0  2  0  0  0  0  0  0  0  0  0
  160.7140  206.0360  149.1690 C   0  0  1  0  0  3  0  0  0  0  0  0
  161.2460  203.7790  148.4330 C   0  0  0  0  0  2  0  0  0  0  0  0
  162.6720  208.6160  151.2240 C   0  0  0  0  0  3  0  0  0  0  0  0
  163.0800  206.9510  147.3080 O   0  0  0  0  0  1  0  0  0  0  0  0
  160.5260  204.9640  150.2410 C   0  0  1  0  0  3  0  0  0  0  0  0
  160.4560  203.7010  149.6020 O   0  0  0  0  0  0  0  0  0  0  0  0
  162.5600  209.7380  150.4020 C   0  0  0  0  0  3  0  0  0  0  0  0
  162.1030  206.2680  151.8530 C   0  0  2  0  0  3  0  0  0  0  0  0
  161.8290  209.6640  149.2160 C   0  0  0  0  0  0  0  0  0  0  0  0
  163.3320  204.6990  146.5980 O   0  0  0  0  0  1  0  0  0  0  0  0
  162.5090  205.6920  147.1370 C   0  0  0  0  0  0  0  0  0  0  0  0
  162.1500  203.9290  151.6360 O   0  0  0  0  0  0  0  0  0  0  0  0
  161.3560  207.3180  149.6440 C   0  0  0  0  0  0  0  0  0  0  0  0
  161.0520  205.6830  146.6970 C   0  0  1  0  0  3  0  0  0  0  0  0
  162.0630  207.4040  150.8660 C   0  0  0  0  0  0  0  0  0  0  0  0
  161.2210  208.4620  148.8460 C   0  0  0  0  0  3  0  0  0  0  0  0
  161.6530  204.9750  151.2490 C   0  0  0  0  0  0  0  0  0  0  0  0
  161.2570  206.5790  153.0440 C   0  0  0  0  0  0  0  0  0  0  0  0
  160.4560  207.4290  153.7080 N   0  0  0  0  0  0  0  0  0  0  0  0
  160.7120  206.1920  154.2530 N   0  0  0  0  0  2  0  0  0  0  0  0
  160.7990  205.1250  144.5740 C   0  0  0  0  0  1  0  0  0  0  0  0
  160.7930  204.5910  145.8620 O   0  0  0  0  0  0  0  0  0  0  0  0
  161.6730  210.8700  148.3610 C   0  0  0  0  0  2  0  0  0  0  0  0
  162.9960  212.5690  147.8860 C   0  0  0  0  0  1  0  0  0  0  0  0
  162.3330  211.9510  148.9440 O   0  0  0  0  0  0  0  0  0  0  0  0
  1  3  1  1  0  0  0
  1  2  1  0  0  0  0
  2 14  1  1  0  0  0
  2  6  1  0  0  0  0
  3  7  1  0  0  0  0
  6  7  1  6  0  0  0
  6 18  1  0  0  0  0
  8  4  2  0  0  0  0
  9 19  1  1  0  0  0
 10  8  1  0  0  0  0
 11 12  1  0  0  0  0
 12  5  1  0  0  0  0
 12  1  1  0  0  0  0
 14 16  2  0  0  0  0
 15 23  1  6  0  0  0
 15 12  1  0  0  0  0
 15  1  1  0  0  0  0
 16  4  1  0  0  0  0
 16  9  1  0  0  0  0
 17 10  2  0  0  0  0
 17 14  1  0  0  0  0
 18 13  2  0  0  0  0
 18  9  1  0  0  0  0
 19 20  2  0  0  0  0
 19 21  1  0  0  0  0
 20 21  1  0  0  0  0
 22 23  1  0  0  0  0
 24 26  1  0  0  0  0
 24 10  1  0  0  0  0
 25 26  1  0  0  0  0
M  END
>  <MODEL>
1

>  <REMARK>
 VINA RESULT:      -6.6      0.000      0.000
  Name = 
  4 active torsions:
  status: ('A' for Active; 'I' for Inactive)
    1  A    between atoms: O_8  and  C_13
    2  A    between atoms: C_11  and  C_18
    3  A    between atoms: C_13  and  C_14
    4  A    between atoms: C_20  and  O_24
                            x       y       z     vdW  Elec       q    Type
                         _______ _______ _______ _____ _____    ______ ____

>  <TORSDO>
F 4

$$$$
=
 OpenBabel11072414223D

 26 30  0  0  1  0  0  0  0  0999 V2000
  161.5170  206.5480  150.8720 C   0  0  2  0  0  0  0  0  0  0  0  0
  160.6600  206.2070  149.6860 C   0  0  1  0  0  3  0  0  0  0  0  0
  161.8960  208.0040  150.7620 C   0  0  0  0  0  2  0  0  0  0  0  0
  161.7480  203.3290  147.3940 C   0  0  0  0  0  3  0  0  0  0  0  0
  162.3290  204.2720  151.5230 O   0  0  0  0  0  1  0  0  0  0  0  0
  160.9850  207.3840  148.7680 C   0  0  1  0  0  3  0  0  0  0  0  0
  161.3120  208.5010  149.5750 O   0  0  0  0  0  0  0  0  0  0  0  0
  161.1530  202.2460  148.0410 C   0  0  0  0  0  3  0  0  0  0  0  0
  162.1380  205.7740  147.0760 C   0  0  2  0  0  3  0  0  0  0  0  0
  160.3810  202.4540  149.1840 C   0  0  0  0  0  0  0  0  0  0  0  0
  163.3050  206.1740  152.5590 O   0  0  0  0  0  1  0  0  0  0  0  0
  162.2390  205.6260  151.8400 C   0  0  0  0  0  0  0  0  0  0  0  0
  163.0080  207.8870  147.6240 O   0  0  0  0  0  0  0  0  0  0  0  0
  160.8380  204.8390  149.0690 C   0  0  0  0  0  0  0  0  0  0  0  0
  160.8470  206.1290  152.1970 C   0  0  1  0  0  3  0  0  0  0  0  0
  161.5880  204.6330  147.8870 C   0  0  0  0  0  0  0  0  0  0  0  0
  160.2160  203.7470  149.6880 C   0  0  0  0  0  3  0  0  0  0  0  0
  162.1280  207.0650  147.8310 C   0  0  0  0  0  0  0  0  0  0  0  0
  161.3640  205.9370  145.8080 C   0  0  0  0  0  0  0  0  0  0  0  0
  160.2380  206.3060  145.1760 N   0  0  0  0  0  0  0  0  0  0  0  0
  161.2960  205.8370  144.4310 N   0  0  0  0  0  2  0  0  0  0  0  0
  160.6080  206.4970  154.3630 C   0  0  0  0  0  1  0  0  0  0  0  0
  160.9180  207.1380  153.1640 O   0  0  0  0  0  0  0  0  0  0  0  0
  159.7110  201.3060  149.8500 C   0  0  0  0  0  2  0  0  0  0  0  0
  161.3960  201.1800  151.2680 C   0  0  0  0  0  1  0  0  0  0  0  0
  160.6700  200.4250  150.3490 O   0  0  0  0  0  0  0  0  0  0  0  0
  1  3  1  6  0  0  0
  1 12  1  0  0  0  0
  1 15  1  0  0  0  0
  2 14  1  6  0  0  0
  2  1  1  0  0  0  0
  4 16  2  0  0  0  0
  4  8  1  0  0  0  0
  5 12  1  0  0  0  0
  6 18  1  6  0  0  0
  6  7  1  0  0  0  0
  6  2  1  0  0  0  0
  7  3  1  0  0  0  0
  8 10  2  0  0  0  0
  9 19  1  6  0  0  0
  9 18  1  0  0  0  0
  9 16  1  0  0  0  0
 10 17  1  0  0  0  0
 10 24  1  0  0  0  0
 12 15  1  0  0  0  0
 12 11  1  0  0  0  0
 13 18  2  0  0  0  0
 14 17  2  0  0  0  0
 15 23  1  1  0  0  0
 16 14  1  0  0  0  0
 20 19  2  0  0  0  0
 21 20  1  0  0  0  0
 21 19  1  0  0  0  0
 23 22  1  0  0  0  0
 24 26  1  0  0  0  0
 26 25  1  0  0  0  0
M  END
>  <MODEL>
2

>  <REMARK>
 VINA RESULT:      -6.3      3.247      6.856
  Name = 
  4 active torsions:
  status: ('A' for Active; 'I' for Inactive)
    1  A    between atoms: O_8  and  C_13
    2  A    between atoms: C_11  and  C_18
    3  A    between atoms: C_13  and  C_14
    4  A    between atoms: C_20  and  O_24
                            x       y       z     vdW  Elec       q    Type
                         _______ _______ _______ _____ _____    ______ ____

>  <TORSDO>
F 4

$$$$
=
 OpenBabel11072414223D

 26 30  0  0  1  0  0  0  0  0999 V2000
  160.8850  203.4280  150.2540 C   0  0  2  0  0  0  0  0  0  0  0  0
  160.4120  204.8540  150.2330 C   0  0  1  0  0  3  0  0  0  0  0  0
  161.0310  203.0130  151.6980 C   0  0  0  0  0  2  0  0  0  0  0  0
  162.4910  207.4550  148.3270 C   0  0  0  0  0  3  0  0  0  0  0  0
  161.8810  203.2390  147.9670 O   0  0  0  0  0  1  0  0  0  0  0  0
  160.7500  205.2740  151.6620 C   0  0  1  0  0  3  0  0  0  0  0  0
  160.6790  204.1280  152.4920 O   0  0  0  0  0  0  0  0  0  0  0  0
  161.9450  207.3340  147.0490 C   0  0  0  0  0  3  0  0  0  0  0  0
  162.5330  206.9510  150.7710 C   0  0  2  0  0  3  0  0  0  0  0  0
  160.8940  206.4450  146.8200 C   0  0  0  0  0  0  0  0  0  0  0  0
  162.2440  201.4800  149.5210 O   0  0  0  0  0  1  0  0  0  0  0  0
  161.4920  202.5940  149.1390 C   0  0  0  0  0  0  0  0  0  0  0  0
  162.8770  205.6090  152.6700 O   0  0  0  0  0  0  0  0  0  0  0  0
  160.9610  205.7530  149.1500 C   0  0  0  0  0  0  0  0  0  0  0  0
  159.9910  202.5200  149.3840 C   0  0  1  0  0  3  0  0  0  0  0  0
  162.0000  206.6830  149.3900 C   0  0  0  0  0  0  0  0  0  0  0  0
  160.3980  205.6680  147.8690 C   0  0  0  0  0  3  0  0  0  0  0  0
  162.1230  205.8990  151.7530 C   0  0  0  0  0  0  0  0  0  0  0  0
  162.0750  208.2870  151.2590 C   0  0  0  0  0  0  0  0  0  0  0  0
  161.1230  209.0560  151.8120 N   0  0  0  0  0  0  0  0  0  0  0  0
  162.3330  209.6260  151.4880 N   0  0  0  0  0  2  0  0  0  0  0  0
  158.5030  200.8860  149.3920 C   0  0  0  0  0  1  0  0  0  0  0  0
  159.6550  201.3300  150.0400 O   0  0  0  0  0  0  0  0  0  0  0  0
  160.2830  206.3450  145.4680 C   0  0  0  0  0  2  0  0  0  0  0  0
  160.8020  204.3830  144.6060 C   0  0  0  0  0  1  0  0  0  0  0  0
  161.1740  205.7250  144.5920 O   0  0  0  0  0  0  0  0  0  0  0  0
  1  3  1  1  0  0  0
  2 14  1  6  0  0  0
  2  1  1  0  0  0  0
  2  6  1  0  0  0  0
  3  7  1  0  0  0  0
  4 16  1  0  0  0  0
  5 12  1  0  0  0  0
  6 18  1  6  0  0  0
  6  7  1  0  0  0  0
  8  4  2  0  0  0  0
  9 19  1  1  0  0  0
  9 18  1  0  0  0  0
 10  8  1  0  0  0  0
 10 17  2  0  0  0  0
 12 15  1  0  0  0  0
 12 11  1  0  0  0  0
 12  1  1  0  0  0  0
 14 16  2  0  0  0  0
 15 23  1  1  0  0  0
 15  1  1  0  0  0  0
 16  9  1  0  0  0  0
 17 14  1  0  0  0  0
 18 13  2  0  0  0  0
 19 21  1  0  0  0  0
 19 20  2  0  0  0  0
 21 20  1  0  0  0  0
 22 23  1  0  0  0  0
 24 10  1  0  0  0  0
 26 25  1  0  0  0  0
 26 24  1  0  0  0  0
M  END
>  <MODEL>
3

>  <REMARK>
 VINA RESULT:      -6.1      2.553      4.170
  Name = 
  4 active torsions:
  status: ('A' for Active; 'I' for Inactive)
    1  A    between atoms: O_8  and  C_13
    2  A    between atoms: C_11  and  C_18
    3  A    between atoms: C_13  and  C_14
    4  A    between atoms: C_20  and  O_24
                            x       y       z     vdW  Elec       q    Type
                         _______ _______ _______ _____ _____    ______ ____

>  <TORSDO>
F 4

$$$$
=
 OpenBabel11072414223D

 26 30  0  0  1  0  0  0  0  0999 V2000
  161.6150  207.0780  148.5220 C   0  0  2  0  0  0  0  0  0  0  0  0
  160.5840  206.1400  149.0850 C   0  0  1  0  0  3  0  0  0  0  0  0
  161.6450  206.8840  147.0260 C   0  0  0  0  0  2  0  0  0  0  0  0
  161.6520  203.6340  151.7860 C   0  0  0  0  0  3  0  0  0  0  0  0
  163.0160  207.4940  150.5530 O   0  0  0  0  0  1  0  0  0  0  0  0
  160.4230  205.1770  147.9100 C   0  0  1  0  0  3  0  0  0  0  0  0
  160.6980  205.8830  146.7130 O   0  0  0  0  0  0  0  0  0  0  0  0
  161.4720  204.4030  152.9360 C   0  0  0  0  0  3  0  0  0  0  0  0
  161.4360  203.2420  149.3300 C   0  0  2  0  0  3  0  0  0  0  0  0
  160.9770  205.7030  152.8350 C   0  0  0  0  0  0  0  0  0  0  0  0
  163.7990  208.2640  148.4470 O   0  0  0  0  0  1  0  0  0  0  0  0
  162.7270  207.8300  149.2330 C   0  0  0  0  0  0  0  0  0  0  0  0
  161.9550  203.5680  147.0620 O   0  0  0  0  0  0  0  0  0  0  0  0
  160.8860  205.4910  150.4150 C   0  0  0  0  0  0  0  0  0  0  0  0
  161.3910  208.5260  149.0060 C   0  0  1  0  0  3  0  0  0  0  0  0
  161.3500  204.1580  150.5200 C   0  0  0  0  0  0  0  0  0  0  0  0
  160.6750  206.2390  151.5810 C   0  0  0  0  0  3  0  0  0  0  0  0
  161.3430  203.9830  148.0340 C   0  0  0  0  0  0  0  0  0  0  0  0
  160.3590  202.2080  149.3870 C   0  0  0  0  0  0  0  0  0  0  0  0
  159.2140  201.6970  148.9040 N   0  0  0  0  0  0  0  0  0  0  0  0
  159.8290  201.0680  149.9620 N   0  0  0  0  0  2  0  0  0  0  0  0
  161.8030  210.6550  148.5840 C   0  0  0  0  0  1  0  0  0  0  0  0
  161.4860  209.4490  147.9590 O   0  0  0  0  0  0  0  0  0  0  0  0
  160.7440  206.5090  154.0630 C   0  0  0  0  0  2  0  0  0  0  0  0
  160.8280  208.4990  155.0110 C   0  0  0  0  0  1  0  0  0  0  0  0
  160.8880  207.8660  153.7710 O   0  0  0  0  0  0  0  0  0  0  0  0
  1  3  1  6  0  0  0
  1 15  1  0  0  0  0
  1  2  1  0  0  0  0
  1 12  1  0  0  0  0
  2 14  1  1  0  0  0
  4  8  1  0  0  0  0
  6  7  1  6  0  0  0
  6 18  1  0  0  0  0
  6  2  1  0  0  0  0
  7  3  1  0  0  0  0
  9 19  1  1  0  0  0
  9 16  1  0  0  0  0
 10  8  2  0  0  0  0
 10 24  1  0  0  0  0
 11 12  1  0  0  0  0
 12  5  1  0  0  0  0
 13 18  2  0  0  0  0
 14 16  1  0  0  0  0
 14 17  2  0  0  0  0
 15 23  1  6  0  0  0
 15 12  1  0  0  0  0
 16  4  2  0  0  0  0
 17 10  1  0  0  0  0
 18  9  1  0  0  0  0
 19 21  1  0  0  0  0
 20 19  2  0  0  0  0
 20 21  1  0  0  0  0
 23 22  1  0  0  0  0
 26 24  1  0  0  0  0
 26 25  1  0  0  0  0
M  END
>  <MODEL>
4

>  <REMARK>
 VINA RESULT:      -5.0      2.646      4.926
  Name = 
  4 active torsions:
  status: ('A' for Active; 'I' for Inactive)
    1  A    between atoms: O_8  and  C_13
    2  A    between atoms: C_11  and  C_18
    3  A    between atoms: C_13  and  C_14
    4  A    between atoms: C_20  and  O_24
                            x       y       z     vdW  Elec       q    Type
                         _______ _______ _______ _____ _____    ______ ____

>  <TORSDO>
F 4

$$$$
=
 OpenBabel11072414223D

 26 30  0  0  1  0  0  0  0  0999 V2000
  160.0530  210.8010  155.0360 C   0  0  2  0  0  0  0  0  0  0  0  0
  159.3630  210.7070  153.7050 C   0  0  1  0  0  3  0  0  0  0  0  0
  159.2070  211.6740  155.9310 C   0  0  0  0  0  2  0  0  0  0  0  0
  161.2850  211.7580  150.5560 C   0  0  0  0  0  3  0  0  0  0  0  0
  162.3950  210.2120  154.3840 O   0  0  0  0  0  1  0  0  0  0  0  0
  158.4040  211.8910  153.8100 C   0  0  1  0  0  3  0  0  0  0  0  0
  158.0860  212.0870  155.1770 O   0  0  0  0  0  0  0  0  0  0  0  0
  161.9190  210.5580  150.2290 C   0  0  0  0  0  3  0  0  0  0  0  0
  159.6700  213.1150  151.8900 C   0  0  2  0  0  3  0  0  0  0  0  0
  161.6950  209.4180  151.0010 C   0  0  0  0  0  0  0  0  0  0  0  0
  161.9930  211.0470  156.5710 O   0  0  0  0  0  1  0  0  0  0  0  0
  161.4840  210.4590  155.4100 C   0  0  0  0  0  0  0  0  0  0  0  0
  158.8840  214.2200  153.8090 O   0  0  0  0  0  0  0  0  0  0  0  0
  160.2330  210.6890  152.4700 C   0  0  0  0  0  0  0  0  0  0  0  0
  160.4000  209.4060  155.5970 C   0  0  1  0  0  3  0  0  0  0  0  0
  160.4290  211.8350  151.6640 C   0  0  0  0  0  0  0  0  0  0  0  0
  160.8460  209.4820  152.1090 C   0  0  0  0  0  3  0  0  0  0  0  0
  159.0040  213.1510  153.2300 C   0  0  0  0  0  0  0  0  0  0  0  0
  158.6440  213.3100  150.8220 C   0  0  0  0  0  0  0  0  0  0  0  0
  157.3550  213.3470  150.4450 N   0  0  0  0  0  0  0  0  0  0  0  0
  158.3300  213.6080  149.5090 N   0  0  0  0  0  2  0  0  0  0  0  0
  160.3390  207.9530  157.2610 C   0  0  0  0  0  1  0  0  0  0  0  0
  160.0580  209.2830  156.9480 O   0  0  0  0  0  0  0  0  0  0  0  0
  162.3350  208.1280  150.6290 C   0  0  0  0  0  2  0  0  0  0  0  0
  161.1920  207.0900  149.0540 C   0  0  0  0  0  1  0  0  0  0  0  0
  162.2700  207.9510  149.2470 O   0  0  0  0  0  0  0  0  0  0  0  0
  1 12  1  0  0  0  0
  1 15  1  0  0  0  0
  1  3  1  1  0  0  0
  2 14  1  6  0  0  0
  2  6  1  0  0  0  0
  2  1  1  0  0  0  0
  4 16  1  0  0  0  0
  5 12  1  0  0  0  0
  6 18  1  1  0  0  0
  6  7  1  0  0  0  0
  7  3  1  0  0  0  0
  8  4  2  0  0  0  0
  8 10  1  0  0  0  0
  9 19  1  6  0  0  0
  9 18  1  0  0  0  0
 10 17  2  0  0  0  0
 12 15  1  0  0  0  0
 12 11  1  0  0  0  0
 15 23  1  1  0  0  0
 16  9  1  0  0  0  0
 16 14  2  0  0  0  0
 17 14  1  0  0  0  0
 18 13  2  0  0  0  0
 20 19  2  0  0  0  0
 21 20  1  0  0  0  0
 21 19  1  0  0  0  0
 23 22  1  0  0  0  0
 24 10  1  0  0  0  0
 25 26  1  0  0  0  0
 26 24  1  0  0  0  0
M  END
>  <MODEL>
5

>  <REMARK>
 VINA RESULT:      -4.8      5.017      8.101
  Name = 
  4 active torsions:
  status: ('A' for Active; 'I' for Inactive)
    1  A    between atoms: O_8  and  C_13
    2  A    between atoms: C_11  and  C_18
    3  A    between atoms: C_13  and  C_14
    4  A    between atoms: C_20  and  O_24
                            x       y       z     vdW  Elec       q    Type
                         _______ _______ _______ _____ _____    ______ ____

>  <TORSDO>
F 4

$$$$
=
 OpenBabel11072414223D

 26 30  0  0  1  0  0  0  0  0999 V2000
  161.5280  204.6830  147.4570 C   0  0  2  0  0  0  0  0  0  0  0  0
  160.7240  205.0590  148.6700 C   0  0  1  0  0  3  0  0  0  0  0  0
  161.3370  203.2050  147.2200 C   0  0  0  0  0  2  0  0  0  0  0  0
  162.5150  206.7400  151.6170 C   0  0  0  0  0  3  0  0  0  0  0  0
  163.1790  206.5620  147.3970 O   0  0  0  0  0  1  0  0  0  0  0  0
  160.4930  203.6790  149.2820 C   0  0  1  0  0  3  0  0  0  0  0  0
  160.4820  202.7230  148.2360 O   0  0  0  0  0  0  0  0  0  0  0  0
  162.4320  208.0800  151.2380 C   0  0  0  0  0  3  0  0  0  0  0  0
  161.9520  204.3240  151.3420 C   0  0  2  0  0  3  0  0  0  0  0  0
  161.7720  208.4330  150.0600 C   0  0  0  0  0  0  0  0  0  0  0  0
  163.5090  204.7040  145.9550 O   0  0  0  0  0  1  0  0  0  0  0  0
  162.6400  205.4460  146.7590 C   0  0  0  0  0  0  0  0  0  0  0  0
  162.0510  202.2110  150.3180 O   0  0  0  0  0  0  0  0  0  0  0  0
  161.3160  206.0890  149.6040 C   0  0  0  0  0  0  0  0  0  0  0  0
  161.2100  205.6000  146.2580 C   0  0  1  0  0  3  0  0  0  0  0  0
  161.9500  205.7350  150.8190 C   0  0  0  0  0  0  0  0  0  0  0  0
  161.2080  207.4410  149.2540 C   0  0  0  0  0  3  0  0  0  0  0  0
  161.5590  203.3290  150.2950 C   0  0  0  0  0  0  0  0  0  0  0  0
  161.0330  204.1990  152.5130 C   0  0  0  0  0  0  0  0  0  0  0  0
  160.6210  204.6310  153.7160 N   0  0  0  0  0  0  0  0  0  0  0  0
  159.9730  203.5660  153.1350 N   0  0  0  0  0  2  0  0  0  0  0  0
  161.1850  205.8110  144.0580 C   0  0  0  0  0  1  0  0  0  0  0  0
  161.0200  204.8730  145.0770 O   0  0  0  0  0  0  0  0  0  0  0  0
  161.6450  209.8640  149.6760 C   0  0  0  0  0  2  0  0  0  0  0  0
  162.2340  211.4510  148.2630 C   0  0  0  0  0  1  0  0  0  0  0  0
  162.2130  210.0670  148.4180 O   0  0  0  0  0  0  0  0  0  0  0  0
  1  3  1  6  0  0  0
  1  2  1  0  0  0  0
  2  6  1  0  0  0  0
  2 14  1  1  0  0  0
  3  7  1  0  0  0  0
  6  7  1  6  0  0  0
  6 18  1  0  0  0  0
  8  4  1  0  0  0  0
  9 19  1  1  0  0  0
 10  8  2  0  0  0  0
 11 12  1  0  0  0  0
 12  5  1  0  0  0  0
 12  1  1  0  0  0  0
 14 16  1  0  0  0  0
 15 23  1  6  0  0  0
 15 12  1  0  0  0  0
 15  1  1  0  0  0  0
 16  9  1  0  0  0  0
 16  4  2  0  0  0  0
 17 14  2  0  0  0  0
 17 10  1  0  0  0  0
 18 13  2  0  0  0  0
 18  9  1  0  0  0  0
 19 21  1  0  0  0  0
 19 20  2  0  0  0  0
 21 20  1  0  0  0  0
 22 23  1  0  0  0  0
 24 10  1  0  0  0  0
 25 26  1  0  0  0  0
 26 24  1  0  0  0  0
M  END
>  <MODEL>
6

>  <REMARK>
 VINA RESULT:      -4.5      1.269      1.644
  Name = 
  4 active torsions:
  status: ('A' for Active; 'I' for Inactive)
    1  A    between atoms: O_8  and  C_13
    2  A    between atoms: C_11  and  C_18
    3  A    between atoms: C_13  and  C_14
    4  A    between atoms: C_20  and  O_24
                            x       y       z     vdW  Elec       q    Type
                         _______ _______ _______ _____ _____    ______ ____

>  <TORSDO>
F 4

$$$$
=
 OpenBabel11072414223D

 26 30  0  0  1  0  0  0  0  0999 V2000
  158.0660  211.8280  138.7900 C   0  0  2  0  0  0  0  0  0  0  0  0
  158.9410  210.9610  139.6510 C   0  0  1  0  0  3  0  0  0  0  0  0
  156.9930  210.9500  138.1940 C   0  0  0  0  0  2  0  0  0  0  0  0
  162.7090  210.8600  138.9340 C   0  0  0  0  0  3  0  0  0  0  0  0
  159.6090  213.7460  138.3500 O   0  0  0  0  0  1  0  0  0  0  0  0
  158.5570  209.5790  139.1240 C   0  0  1  0  0  3  0  0  0  0  0  0
  157.2200  209.6350  138.6590 O   0  0  0  0  0  0  0  0  0  0  0  0
  163.1460  211.9380  139.7040 C   0  0  0  0  0  3  0  0  0  0  0  0
  160.9600  209.2500  138.1720 C   0  0  2  0  0  3  0  0  0  0  0  0
  162.2340  212.6620  140.4720 C   0  0  0  0  0  0  0  0  0  0  0  0
  157.5740  213.6140  137.1330 O   0  0  0  0  0  1  0  0  0  0  0  0
  158.3230  213.2220  138.2460 C   0  0  0  0  0  0  0  0  0  0  0  0
  159.0250  208.5890  137.0140 O   0  0  0  0  0  0  0  0  0  0  0  0
  160.4220  211.2590  139.6600 C   0  0  0  0  0  0  0  0  0  0  0  0
  157.5650  213.0690  139.5580 C   0  0  1  0  0  3  0  0  0  0  0  0
  161.3530  210.5000  138.9120 C   0  0  0  0  0  0  0  0  0  0  0  0
  160.8810  212.3160  140.4580 C   0  0  0  0  0  3  0  0  0  0  0  0
  159.4770  209.1270  138.0130 C   0  0  0  0  0  0  0  0  0  0  0  0
  161.4840  208.0400  138.8730 C   0  0  0  0  0  0  0  0  0  0  0  0
  161.6880  207.3550  140.0100 N   0  0  0  0  0  0  0  0  0  0  0  0
  162.0910  206.7990  138.8170 N   0  0  0  0  0  2  0  0  0  0  0  0
  155.8820  214.3280  140.2410 C   0  0  0  0  0  1  0  0  0  0  0  0
  156.1960  213.2870  139.3670 O   0  0  0  0  0  0  0  0  0  0  0  0
  162.7040  213.7840  141.3280 C   0  0  0  0  0  2  0  0  0  0  0  0
  162.7440  213.1300  143.4330 C   0  0  0  0  0  1  0  0  0  0  0  0
  161.9630  213.8200  142.5080 O   0  0  0  0  0  0  0  0  0  0  0  0
  1  3  1  6  0  0  0
  1 15  1  0  0  0  0
  1  2  1  0  0  0  0
  2 14  1  6  0  0  0
  3  7  1  0  0  0  0
  4  8  1  0  0  0  0
  6 18  1  6  0  0  0
  6  2  1  0  0  0  0
  7  6  1  0  0  0  0
  8 10  2  0  0  0  0
  9 19  1  1  0  0  0
  9 16  1  0  0  0  0
 10 24  1  0  0  0  0
 11 12  1  0  0  0  0
 12  5  1  0  0  0  0
 12  1  1  0  0  0  0
 12 15  1  0  0  0  0
 13 18  2  0  0  0  0
 14 17  2  0  0  0  0
 15 23  1  6  0  0  0
 16  4  2  0  0  0  0
 16 14  1  0  0  0  0
 17 10  1  0  0  0  0
 18  9  1  0  0  0  0
 19 20  2  0  0  0  0
 21 19  1  0  0  0  0
 21 20  1  0  0  0  0
 23 22  1  0  0  0  0
 24 26  1  0  0  0  0
 26 25  1  0  0  0  0
M  END
>  <MODEL>
7

>  <REMARK>
 VINA RESULT:      -4.4      9.719     11.992
  Name = 
  4 active torsions:
  status: ('A' for Active; 'I' for Inactive)
    1  A    between atoms: O_8  and  C_13
    2  A    between atoms: C_11  and  C_18
    3  A    between atoms: C_13  and  C_14
    4  A    between atoms: C_20  and  O_24
                            x       y       z     vdW  Elec       q    Type
                         _______ _______ _______ _____ _____    ______ ____

>  <TORSDO>
F 4

$$$$
=
 OpenBabel11072414223D

 26 30  0  0  1  0  0  0  0  0999 V2000
  159.9870  213.1280  139.6810 C   0  0  2  0  0  0  0  0  0  0  0  0
  159.0840  211.9680  139.9950 C   0  0  1  0  0  3  0  0  0  0  0  0
  159.2350  214.3960  140.0010 C   0  0  0  0  0  2  0  0  0  0  0  0
  158.3150  209.4300  137.2240 C   0  0  0  0  0  3  0  0  0  0  0  0
  161.5820  212.0490  138.0840 O   0  0  0  0  0  1  0  0  0  0  0  0
  157.7350  212.6820  140.0520 C   0  0  1  0  0  3  0  0  0  0  0  0
  157.9540  214.0190  140.4650 O   0  0  0  0  0  0  0  0  0  0  0  0
  159.3820  208.5450  137.3820 C   0  0  0  0  0  3  0  0  0  0  0  0
  156.9340  211.3810  137.9410 C   0  0  2  0  0  3  0  0  0  0  0  0
  160.3160  208.7530  138.3970 C   0  0  0  0  0  0  0  0  0  0  0  0
  161.6510  214.4090  138.3510 O   0  0  0  0  0  1  0  0  0  0  0  0
  161.2600  213.1650  138.8550 C   0  0  0  0  0  0  0  0  0  0  0  0
  156.4740  213.6600  138.2880 O   0  0  0  0  0  0  0  0  0  0  0  0
  159.1430  210.7720  139.0750 C   0  0  0  0  0  0  0  0  0  0  0  0
  161.3640  212.9770  140.3620 C   0  0  1  0  0  3  0  0  0  0  0  0
  158.1740  210.5390  138.0710 C   0  0  0  0  0  0  0  0  0  0  0  0
  160.1890  209.8550  139.2460 C   0  0  0  0  0  3  0  0  0  0  0  0
  157.0320  212.6600  138.7130 C   0  0  0  0  0  0  0  0  0  0  0  0
  155.7330  210.6200  138.3970 C   0  0  0  0  0  0  0  0  0  0  0  0
  155.0210  210.0620  139.3910 N   0  0  0  0  0  0  0  0  0  0  0  0
  154.5340  209.9950  138.1050 N   0  0  0  0  0  2  0  0  0  0  0  0
  162.6580  213.7470  141.9790 C   0  0  0  0  0  1  0  0  0  0  0  0
  161.7760  214.1620  140.9810 O   0  0  0  0  0  0  0  0  0  0  0  0
  161.4300  207.7880  138.5940 C   0  0  0  0  0  2  0  0  0  0  0  0
  162.2920  206.7040  140.3110 C   0  0  0  0  0  1  0  0  0  0  0  0
  162.0100  207.9870  139.8470 O   0  0  0  0  0  0  0  0  0  0  0  0
  1  2  1  0  0  0  0
  1  3  1  1  0  0  0
  1 15  1  0  0  0  0
  2 14  1  6  0  0  0
  2  6  1  0  0  0  0
  3  7  1  0  0  0  0
  4  8  2  0  0  0  0
  4 16  1  0  0  0  0
  5 12  1  0  0  0  0
  6 18  1  6  0  0  0
  6  7  1  0  0  0  0
  8 10  1  0  0  0  0
  9 16  1  0  0  0  0
  9 19  1  1  0  0  0
  9 18  1  0  0  0  0
 10 24  1  0  0  0  0
 10 17  2  0  0  0  0
 11 12  1  0  0  0  0
 12  1  1  0  0  0  0
 12 15  1  0  0  0  0
 13 18  2  0  0  0  0
 14 17  1  0  0  0  0
 15 23  1  1  0  0  0
 16 14  2  0  0  0  0
 19 20  2  0  0  0  0
 21 19  1  0  0  0  0
 21 20  1  0  0  0  0
 23 22  1  0  0  0  0
 24 26  1  0  0  0  0
 26 25  1  0  0  0  0
M  END
>  <MODEL>
8

>  <REMARK>
 VINA RESULT:      -4.3      9.819     12.923
  Name = 
  4 active torsions:
  status: ('A' for Active; 'I' for Inactive)
    1  A    between atoms: O_8  and  C_13
    2  A    between atoms: C_11  and  C_18
    3  A    between atoms: C_13  and  C_14
    4  A    between atoms: C_20  and  O_24
                            x       y       z     vdW  Elec       q    Type
                         _______ _______ _______ _____ _____    ______ ____

>  <TORSDO>
F 4

$$$$
=
 OpenBabel11072414223D

 26 30  0  0  1  0  0  0  0  0999 V2000
  161.3250  211.1730  139.1930 C   0  0  2  0  0  0  0  0  0  0  0  0
  160.3750  211.1000  140.3550 C   0  0  1  0  0  3  0  0  0  0  0  0
  162.7290  211.1060  139.7420 C   0  0  0  0  0  2  0  0  0  0  0  0
  157.8150  213.9190  140.8220 C   0  0  0  0  0  3  0  0  0  0  0  0
  159.8580  212.2340  137.4660 O   0  0  0  0  0  1  0  0  0  0  0  0
  161.3240  211.4410  141.5030 C   0  0  1  0  0  3  0  0  0  0  0  0
  162.6260  211.0130  141.1480 O   0  0  0  0  0  0  0  0  0  0  0  0
  156.7670  213.4470  140.0310 C   0  0  0  0  0  3  0  0  0  0  0  0
  160.0330  213.6620  141.9380 C   0  0  2  0  0  3  0  0  0  0  0  0
  156.8790  212.2160  139.3860 C   0  0  0  0  0  0  0  0  0  0  0  0
  162.1800  212.0110  137.0140 O   0  0  0  0  0  1  0  0  0  0  0  0
  161.0690  211.6090  137.7610 C   0  0  0  0  0  0  0  0  0  0  0  0
  162.3770  213.5090  142.0220 O   0  0  0  0  0  0  0  0  0  0  0  0
  159.1220  211.9400  140.2830 C   0  0  0  0  0  0  0  0  0  0  0  0
  160.9800  210.1300  138.1100 C   0  0  1  0  0  3  0  0  0  0  0  0
  158.9920  213.1700  140.9690 C   0  0  0  0  0  0  0  0  0  0  0  0
  158.0460  211.4610  139.5220 C   0  0  0  0  0  3  0  0  0  0  0  0
  161.3270  212.9220  141.8060 C   0  0  0  0  0  0  0  0  0  0  0  0
  159.5380  213.5450  143.3430 C   0  0  0  0  0  0  0  0  0  0  0  0
  159.2890  212.7910  144.4260 N   0  0  0  0  0  0  0  0  0  0  0  0
  159.0220  214.1400  144.4790 N   0  0  0  0  0  2  0  0  0  0  0  0
  161.6100  208.3160  137.0160 C   0  0  0  0  0  1  0  0  0  0  0  0
  162.1140  209.4460  137.6590 O   0  0  0  0  0  0  0  0  0  0  0  0
  155.7460  211.6920  138.5780 C   0  0  0  0  0  2  0  0  0  0  0  0
  154.0160  210.8130  139.6270 C   0  0  0  0  0  1  0  0  0  0  0  0
  155.2810  210.5000  139.1340 O   0  0  0  0  0  0  0  0  0  0  0  0
  1  3  1  1  0  0  0
  1  2  1  0  0  0  0
  2 14  1  6  0  0  0
  2  6  1  0  0  0  0
  3  7  1  0  0  0  0
  4 16  1  0  0  0  0
  5 12  1  0  0  0  0
  6  7  1  6  0  0  0
  6 18  1  0  0  0  0
  8  4  2  0  0  0  0
  9 19  1  1  0  0  0
 10 17  2  0  0  0  0
 10  8  1  0  0  0  0
 11 12  1  0  0  0  0
 12 15  1  0  0  0  0
 12  1  1  0  0  0  0
 14 16  2  0  0  0  0
 15 23  1  6  0  0  0
 15  1  1  0  0  0  0
 16  9  1  0  0  0  0
 17 14  1  0  0  0  0
 18  9  1  0  0  0  0
 18 13  2  0  0  0  0
 19 20  2  0  0  0  0
 19 21  1  0  0  0  0
 20 21  1  0  0  0  0
 22 23  1  0  0  0  0
 24 26  1  0  0  0  0
 24 10  1  0  0  0  0
 26 25  1  0  0  0  0
M  END
>  <MODEL>
9

>  <REMARK>
 VINA RESULT:      -4.1      9.433     11.454
  Name = 
  4 active torsions:
  status: ('A' for Active; 'I' for Inactive)
    1  A    between atoms: O_8  and  C_13
    2  A    between atoms: C_11  and  C_18
    3  A    between atoms: C_13  and  C_14
    4  A    between atoms: C_20  and  O_24
                            x       y       z     vdW  Elec       q    Type
                         _______ _______ _______ _____ _____    ______ ____

>  <TORSDO>
F 4

$$$$
