=
 OpenBabel11072412553D

 41 43  0  0  1  0  0  0  0  0999 V2000
  160.8140  208.5320  153.3500 C   0  0  2  0  0  3  0  0  0  0  0  0
  161.4160  207.7200  152.1870 C   0  0  2  0  0  3  0  0  0  0  0  0
  162.7410  209.7680  151.6590 C   0  0  0  0  0  2  0  0  0  0  0  0
  162.7950  208.2530  151.8140 C   0  0  0  0  0  2  0  0  0  0  0  0
  162.3260  210.3760  152.8660 O   0  0  0  0  0  0  0  0  0  0  0  0
  160.9630  210.0730  153.1480 C   0  0  1  0  0  0  0  0  0  0  0  0
  158.9490  212.5550  151.6470 C   0  0  0  0  0  0  0  0  0  0  0  0
  160.0370  212.5190  150.7000 C   0  0  0  0  0  0  0  0  0  0  0  0
  162.1740  211.9090  149.0860 C   0  0  0  0  0  3  0  0  0  0  0  0
  158.9730  211.3910  152.4040 O   0  0  0  0  0  0  0  0  0  0  0  0
  161.7850  210.9900  150.0740 C   0  0  0  0  0  3  0  0  0  0  0  0
  160.7060  211.3370  150.8880 C   0  0  0  0  0  0  0  0  0  0  0  0
  160.4320  213.4210  149.7160 C   0  0  0  0  0  3  0  0  0  0  0  0
  160.0400  210.5370  151.9730 C   0  0  1  0  0  3  0  0  0  0  0  0
  158.0600  213.5270  151.7970 C   0  0  0  0  0  2  0  0  0  0  0  0
  161.5010  213.0910  148.9320 N   0  0  0  0  0  0  0  0  0  0  0  0
  160.4980  207.6880  150.9700 C   0  0  0  0  0  2  0  0  0  0  0  0
  161.0920  206.8230  149.8700 C   0  0  2  0  0  3  0  0  0  0  0  0
  162.3540  207.2780  147.8840 F   0  0  0  0  0  0  0  0  0  0  0  0
  161.1980  207.6130  148.5700 C   0  0  0  0  0  2  0  0  0  0  0  0
  160.2440  205.5750  149.6900 C   0  0  0  0  0  2  0  0  0  0  0  0
  161.1250  204.3410  149.6930 C   0  0  0  0  0  2  0  0  0  0  0  0
  160.6570  203.6830  151.9940 C   0  0  0  0  0  2  0  0  0  0  0  0
  161.5560  204.0430  151.0850 C   0  0  0  0  0  3  0  0  0  0  0  0
  161.4210  208.1240  154.5440 O   0  0  0  0  0  0  0  0  0  0  0  0
  160.8500  206.8810  154.8290 C   0  0  0  0  0  2  0  0  0  0  0  0
  159.9520  206.9960  156.0090 C   0  0  0  0  0  0  0  0  0  0  0  0
  158.5800  206.8650  155.8530 O   0  0  0  0  0  0  0  0  0  0  0  0
  160.4340  207.2390  157.1460 O   0  0  0  0  0  1  0  0  0  0  0  0
  160.6090  210.7850  154.4880 C   0  0  2  0  0  3  0  0  0  0  0  0
  159.4060  211.7290  154.4010 C   0  0  0  0  0  2  0  0  0  0  0  0
  157.3920  214.4280  157.1340 O   0  0  0  0  0  0  0  0  0  0  0  0
  157.8740  213.7280  156.2070 C   0  0  0  0  0  0  0  0  0  0  0  0
  158.5130  214.3710  155.1110 N   0  0  0  0  0  1  0  0  0  0  0  0
  158.0300  210.1360  155.4950 O   0  0  0  0  0  0  0  0  0  0  0  0
  158.3550  211.3480  155.3930 C   0  0  0  0  0  0  0  0  0  0  0  0
  157.7380  212.3050  156.2630 N   0  0  0  0  0  2  0  0  0  0  0  0
  161.7160  211.4470  155.0420 O   0  0  0  0  0  0  0  0  0  0  0  0
  161.3220  210.6770  157.2600 C   0  0  0  0  0  1  0  0  0  0  0  0
  162.2090  210.5930  156.0350 C   0  0  0  0  0  3  0  0  0  0  0  0
  163.6120  211.0170  156.4200 C   0  0  0  0  0  1  0  0  0  0  0  0
  1 25  1  1  0  0  0
  2 17  1  6  0  0  0
  2  1  1  0  0  0  0
  3  4  1  0  0  0  0
  3  5  1  0  0  0  0
  4  2  1  0  0  0  0
  5  6  1  0  0  0  0
  6  1  1  0  0  0  0
  6 30  1  1  0  0  0
  7 15  2  0  0  0  0
  7 10  1  0  0  0  0
  8 12  1  0  0  0  0
  8  7  1  0  0  0  0
  9 11  1  0  0  0  0
 11 12  2  0  0  0  0
 13  8  2  0  0  0  0
 14 12  1  6  0  0  0
 14 10  1  0  0  0  0
 14  6  1  0  0  0  0
 16  9  2  0  0  0  0
 16 13  1  0  0  0  0
 18 20  1  6  0  0  0
 18 17  1  0  0  0  0
 19 20  1  0  0  0  0
 21 22  1  0  0  0  0
 21 18  1  0  0  0  0
 22 24  1  0  0  0  0
 24 23  2  0  0  0  0
 25 26  1  0  0  0  0
 26 27  1  0  0  0  0
 27 29  1  0  0  0  0
 28 27  2  0  0  0  0
 30 31  1  6  0  0  0
 30 38  1  0  0  0  0
 31 36  1  0  0  0  0
 33 37  1  0  0  0  0
 33 32  2  0  0  0  0
 34 33  1  0  0  0  0
 36 35  2  0  0  0  0
 36 37  1  0  0  0  0
 38 40  1  0  0  0  0
 40 41  1  0  0  0  0
 40 39  1  0  0  0  0
M  END
>  <MODEL>
1

>  <REMARK>
 VINA RESULT:      -4.0      0.000      0.000
  Name = 
  15 active torsions:
  status: ('A' for Active; 'I' for Inactive)
    1  A    between atoms: C_4  and  C_13
    2  A    between atoms: C_4  and  C_14
    3  A    between atoms: C_5  and  C_16
    4  A    between atoms: C_7  and  O_11
    5  A    between atoms: C_8  and  C_10
    6  A    between atoms: C_8  and  C_13
    7  A    between atoms: C_10  and  C_39
    8  A    between atoms: O_11  and  C_16
    9  A    between atoms: C_13  and  C_36
   10  A    between atoms: C_19  and  C_32
   11  A    between atoms: C_19  and  C_35
   12  A    between atoms: O_21  and  C_33
   13  A    between atoms: O_21  and  C_35
   14  A    between atoms: C_30  and  C_41
   15  A    between atoms: C_35  and  C_41
                            x       y       z     vdW  Elec       q    Type
                         _______ _______ _______ _____ _____    ______ ____

>  <TORSDO>
F 15

$$$$
=
 OpenBabel11072412553D

 41 43  0  0  1  0  0  0  0  0999 V2000
  160.5360  208.9640  153.5000 C   0  0  2  0  0  3  0  0  0  0  0  0
  161.2900  208.1270  152.4490 C   0  0  2  0  0  3  0  0  0  0  0  0
  162.5360  210.2210  151.9130 C   0  0  0  0  0  2  0  0  0  0  0  0
  162.6640  208.7240  152.1670 C   0  0  0  0  0  2  0  0  0  0  0  0
  161.9760  210.8690  153.0370 O   0  0  0  0  0  0  0  0  0  0  0  0
  160.6140  210.4970  153.2160 C   0  0  1  0  0  0  0  0  0  0  0  0
  158.5090  212.7070  151.4390 C   0  0  0  0  0  0  0  0  0  0  0  0
  159.6900  212.7800  150.6150 C   0  0  0  0  0  0  0  0  0  0  0  0
  162.0440  212.3920  149.2540 C   0  0  0  0  0  3  0  0  0  0  0  0
  158.5810  211.5660  152.2280 O   0  0  0  0  0  0  0  0  0  0  0  0
  161.6560  211.4510  150.2210 C   0  0  0  0  0  3  0  0  0  0  0  0
  160.4630  211.6850  150.9070 C   0  0  0  0  0  0  0  0  0  0  0  0
  160.0860  213.7040  149.6520 C   0  0  0  0  0  3  0  0  0  0  0  0
  159.7770  210.8320  151.9370 C   0  0  1  0  0  3  0  0  0  0  0  0
  157.5060  213.5730  151.4660 C   0  0  0  0  0  2  0  0  0  0  0  0
  161.2640  213.4860  148.9960 N   0  0  0  0  0  0  0  0  0  0  0  0
  160.4910  207.9660  151.1600 C   0  0  0  0  0  2  0  0  0  0  0  0
  161.2110  207.0390  150.1930 C   0  0  2  0  0  3  0  0  0  0  0  0
  162.3400  206.9770  148.0800 F   0  0  0  0  0  0  0  0  0  0  0  0
  161.6510  207.8060  148.9500 C   0  0  0  0  0  2  0  0  0  0  0  0
  160.3030  205.8760  149.8310 C   0  0  0  0  0  2  0  0  0  0  0  0
  161.1060  204.5930  149.7550 C   0  0  0  0  0  2  0  0  0  0  0  0
  160.8260  203.9960  152.1020 C   0  0  0  0  0  2  0  0  0  0  0  0
  161.6520  204.2690  151.1000 C   0  0  0  0  0  3  0  0  0  0  0  0
  161.0540  208.6640  154.7670 O   0  0  0  0  0  0  0  0  0  0  0  0
  160.8610  207.2880  154.9160 C   0  0  0  0  0  2  0  0  0  0  0  0
  160.3190  206.9980  156.2710 C   0  0  0  0  0  0  0  0  0  0  0  0
  158.9540  206.8220  156.4490 O   0  0  0  0  0  0  0  0  0  0  0  0
  161.0940  206.9380  157.2600 O   0  0  0  0  0  1  0  0  0  0  0  0
  160.0960  211.2610  154.4720 C   0  0  2  0  0  3  0  0  0  0  0  0
  158.6100  211.0470  154.7710 C   0  0  0  0  0  2  0  0  0  0  0  0
  155.1740  212.3190  157.0940 O   0  0  0  0  0  0  0  0  0  0  0  0
  156.0530  211.8260  156.3400 C   0  0  0  0  0  0  0  0  0  0  0  0
  155.8460  211.8340  154.9330 N   0  0  0  0  0  1  0  0  0  0  0  0
  159.2820  210.1760  156.8730 O   0  0  0  0  0  0  0  0  0  0  0  0
  158.3900  210.7850  156.2260 C   0  0  0  0  0  0  0  0  0  0  0  0
  157.2230  211.2430  156.9210 N   0  0  0  0  0  2  0  0  0  0  0  0
  160.3960  212.6310  154.4160 O   0  0  0  0  0  0  0  0  0  0  0  0
  158.8020  214.3950  154.5440 C   0  0  0  0  0  1  0  0  0  0  0  0
  159.4810  213.2530  155.2720 C   0  0  0  0  0  3  0  0  0  0  0  0
  160.2090  213.8090  156.4790 C   0  0  0  0  0  1  0  0  0  0  0  0
  1 25  1  1  0  0  0
  2 17  1  6  0  0  0
  2  1  1  0  0  0  0
  3  4  1  0  0  0  0
  3  5  1  0  0  0  0
  4  2  1  0  0  0  0
  5  6  1  0  0  0  0
  6  1  1  0  0  0  0
  6 30  1  1  0  0  0
  7 15  2  0  0  0  0
  7 10  1  0  0  0  0
  8 12  1  0  0  0  0
  8  7  1  0  0  0  0
  9 11  1  0  0  0  0
 11 12  2  0  0  0  0
 13  8  2  0  0  0  0
 14 12  1  6  0  0  0
 14 10  1  0  0  0  0
 14  6  1  0  0  0  0
 16  9  2  0  0  0  0
 16 13  1  0  0  0  0
 18 20  1  6  0  0  0
 18 17  1  0  0  0  0
 19 20  1  0  0  0  0
 21 18  1  0  0  0  0
 22 21  1  0  0  0  0
 22 24  1  0  0  0  0
 24 23  2  0  0  0  0
 25 26  1  0  0  0  0
 26 27  1  0  0  0  0
 27 28  2  0  0  0  0
 27 29  1  0  0  0  0
 30 31  1  6  0  0  0
 31 36  1  0  0  0  0
 33 37  1  0  0  0  0
 33 32  2  0  0  0  0
 34 33  1  0  0  0  0
 36 35  2  0  0  0  0
 36 37  1  0  0  0  0
 38 30  1  0  0  0  0
 38 40  1  0  0  0  0
 39 40  1  0  0  0  0
 40 41  1  0  0  0  0
M  END
>  <MODEL>
2

>  <REMARK>
 VINA RESULT:      -3.9      1.377      1.644
  Name = 
  15 active torsions:
  status: ('A' for Active; 'I' for Inactive)
    1  A    between atoms: C_4  and  C_13
    2  A    between atoms: C_4  and  C_14
    3  A    between atoms: C_5  and  C_16
    4  A    between atoms: C_7  and  O_11
    5  A    between atoms: C_8  and  C_10
    6  A    between atoms: C_8  and  C_13
    7  A    between atoms: C_10  and  C_39
    8  A    between atoms: O_11  and  C_16
    9  A    between atoms: C_13  and  C_36
   10  A    between atoms: C_19  and  C_32
   11  A    between atoms: C_19  and  C_35
   12  A    between atoms: O_21  and  C_33
   13  A    between atoms: O_21  and  C_35
   14  A    between atoms: C_30  and  C_41
   15  A    between atoms: C_35  and  C_41
                            x       y       z     vdW  Elec       q    Type
                         _______ _______ _______ _____ _____    ______ ____

>  <TORSDO>
F 15

$$$$
=
 OpenBabel11072412553D

 41 43  0  0  1  0  0  0  0  0999 V2000
  160.9620  209.3850  150.8450 C   0  0  2  0  0  3  0  0  0  0  0  0
  161.5020  210.5310  149.9680 C   0  0  2  0  0  3  0  0  0  0  0  0
  163.3900  210.6650  151.5930 C   0  0  0  0  0  2  0  0  0  0  0  0
  163.0140  210.6580  150.1170 C   0  0  0  0  0  2  0  0  0  0  0  0
  162.9670  209.4710  152.2210 O   0  0  0  0  0  0  0  0  0  0  0  0
  161.5460  209.4090  152.2920 C   0  0  1  0  0  0  0  0  0  0  0  0
  159.0470  210.8500  154.3300 C   0  0  0  0  0  0  0  0  0  0  0  0
  160.1510  210.8520  155.2600 C   0  0  0  0  0  0  0  0  0  0  0  0
  162.5740  210.8720  156.5510 C   0  0  0  0  0  3  0  0  0  0  0  0
  159.5450  210.7080  153.0410 O   0  0  0  0  0  0  0  0  0  0  0  0
  162.5510  210.7390  155.1540 C   0  0  0  0  0  3  0  0  0  0  0  0
  161.3040  210.7160  154.5290 C   0  0  0  0  0  0  0  0  0  0  0  0
  160.1890  210.9850  156.6450 C   0  0  0  0  0  3  0  0  0  0  0  0
  160.9770  210.6460  153.0630 C   0  0  1  0  0  3  0  0  0  0  0  0
  157.7600  210.9580  154.6280 C   0  0  0  0  0  2  0  0  0  0  0  0
  161.4080  210.9860  157.2590 N   0  0  0  0  0  0  0  0  0  0  0  0
  160.8120  211.8580  150.2640 C   0  0  0  0  0  2  0  0  0  0  0  0
  161.1210  212.8780  149.1800 C   0  0  2  0  0  3  0  0  0  0  0  0
  159.3170  214.0020  150.2880 F   0  0  0  0  0  0  0  0  0  0  0  0
  160.4280  214.2030  149.4840 C   0  0  0  0  0  2  0  0  0  0  0  0
  160.6950  212.3300  147.8280 C   0  0  0  0  0  2  0  0  0  0  0  0
  159.8380  213.3470  147.1000 C   0  0  0  0  0  2  0  0  0  0  0  0
  157.5150  212.7280  147.5030 C   0  0  0  0  0  2  0  0  0  0  0  0
  158.5590  212.7110  146.6840 C   0  0  0  0  0  3  0  0  0  0  0  0
  161.2420  208.1660  150.2140 O   0  0  0  0  0  0  0  0  0  0  0  0
  161.4870  208.5020  148.8800 C   0  0  0  0  0  2  0  0  0  0  0  0
  161.8040  207.2760  148.1000 C   0  0  0  0  0  0  0  0  0  0  0  0
  160.8510  206.7230  147.2570 O   0  0  0  0  0  0  0  0  0  0  0  0
  162.9280  206.7230  148.2250 O   0  0  0  0  0  1  0  0  0  0  0  0
  161.1860  208.0650  152.9950 C   0  0  2  0  0  3  0  0  0  0  0  0
  160.9620  206.8930  152.0360 C   0  0  0  0  0  2  0  0  0  0  0  0
  160.8430  202.8840  150.3830 O   0  0  0  0  0  0  0  0  0  0  0  0
  160.9150  204.1020  150.6860 C   0  0  0  0  0  0  0  0  0  0  0  0
  160.0610  205.0330  150.0320 N   0  0  0  0  0  1  0  0  0  0  0  0
  162.9750  206.0750  152.9880 O   0  0  0  0  0  0  0  0  0  0  0  0
  161.9920  205.8290  152.2420 C   0  0  0  0  0  0  0  0  0  0  0  0
  161.8760  204.5250  151.6590 N   0  0  0  0  0  2  0  0  0  0  0  0
  160.0970  208.2020  153.8690 O   0  0  0  0  0  0  0  0  0  0  0  0
  159.0760  207.2150  155.7810 C   0  0  0  0  0  1  0  0  0  0  0  0
  160.2610  207.2050  154.8370 C   0  0  0  0  0  3  0  0  0  0  0  0
  161.5220  207.4720  155.6350 C   0  0  0  0  0  1  0  0  0  0  0  0
  1 25  1  6  0  0  0
  1  6  1  0  0  0  0
  2  4  1  0  0  0  0
  2 17  1  1  0  0  0
  2  1  1  0  0  0  0
  3  5  1  0  0  0  0
  4  3  1  0  0  0  0
  5  6  1  0  0  0  0
  6 30  1  1  0  0  0
  6 14  1  0  0  0  0
  7 15  2  0  0  0  0
  7  8  1  0  0  0  0
  8 13  1  0  0  0  0
  9 16  1  0  0  0  0
 10  7  1  0  0  0  0
 11  9  2  0  0  0  0
 12 11  1  0  0  0  0
 12  8  2  0  0  0  0
 13 16  2  0  0  0  0
 14 10  1  1  0  0  0
 14 12  1  0  0  0  0
 18 21  1  6  0  0  0
 18 20  1  0  0  0  0
 18 17  1  0  0  0  0
 20 19  1  0  0  0  0
 22 21  1  0  0  0  0
 24 22  1  0  0  0  0
 24 23  2  0  0  0  0
 26 25  1  0  0  0  0
 27 29  1  0  0  0  0
 27 26  1  0  0  0  0
 28 27  2  0  0  0  0
 30 31  1  6  0  0  0
 30 38  1  0  0  0  0
 31 36  1  0  0  0  0
 32 33  2  0  0  0  0
 33 37  1  0  0  0  0
 34 33  1  0  0  0  0
 36 35  2  0  0  0  0
 37 36  1  0  0  0  0
 38 40  1  0  0  0  0
 40 41  1  0  0  0  0
 40 39  1  0  0  0  0
M  END
>  <MODEL>
3

>  <REMARK>
 VINA RESULT:      -3.4      3.297      6.736
  Name = 
  15 active torsions:
  status: ('A' for Active; 'I' for Inactive)
    1  A    between atoms: C_4  and  C_13
    2  A    between atoms: C_4  and  C_14
    3  A    between atoms: C_5  and  C_16
    4  A    between atoms: C_7  and  O_11
    5  A    between atoms: C_8  and  C_10
    6  A    between atoms: C_8  and  C_13
    7  A    between atoms: C_10  and  C_39
    8  A    between atoms: O_11  and  C_16
    9  A    between atoms: C_13  and  C_36
   10  A    between atoms: C_19  and  C_32
   11  A    between atoms: C_19  and  C_35
   12  A    between atoms: O_21  and  C_33
   13  A    between atoms: O_21  and  C_35
   14  A    between atoms: C_30  and  C_41
   15  A    between atoms: C_35  and  C_41
                            x       y       z     vdW  Elec       q    Type
                         _______ _______ _______ _____ _____    ______ ____

>  <TORSDO>
F 15

$$$$
=
 OpenBabel11072412553D

 41 43  0  0  1  0  0  0  0  0999 V2000
  158.2950  211.6840  153.5490 C   0  0  2  0  0  3  0  0  0  0  0  0
  157.5380  212.7660  154.3440 C   0  0  2  0  0  3  0  0  0  0  0  0
  159.7870  213.6230  155.0030 C   0  0  0  0  0  2  0  0  0  0  0  0
  158.3990  214.0130  154.5120 C   0  0  0  0  0  2  0  0  0  0  0  0
  160.4140  212.7540  154.0800 O   0  0  0  0  0  0  0  0  0  0  0  0
  159.7620  211.4890  154.0450 C   0  0  1  0  0  0  0  0  0  0  0  0
  159.8430  208.6020  156.0780 C   0  0  0  0  0  0  0  0  0  0  0  0
  161.1230  209.1760  156.4180 C   0  0  0  0  0  0  0  0  0  0  0  0
  163.3060  210.7650  156.9180 C   0  0  0  0  0  3  0  0  0  0  0  0
  159.0490  209.5850  155.5000 O   0  0  0  0  0  0  0  0  0  0  0  0
  162.1780  211.3340  156.3050 C   0  0  0  0  0  3  0  0  0  0  0  0
  161.0920  210.4970  156.0490 C   0  0  0  0  0  0  0  0  0  0  0  0
  162.2470  208.6250  157.0280 C   0  0  0  0  0  3  0  0  0  0  0  0
  159.7480  210.8360  155.4670 C   0  0  1  0  0  3  0  0  0  0  0  0
  159.4610  207.3470  156.2680 C   0  0  0  0  0  2  0  0  0  0  0  0
  163.3180  209.4400  157.2590 N   0  0  0  0  0  0  0  0  0  0  0  0
  157.0520  212.2540  155.6950 C   0  0  0  0  0  2  0  0  0  0  0  0
  155.5640  212.5150  155.8660 C   0  0  2  0  0  3  0  0  0  0  0  0
  154.3270  214.2520  154.7720 F   0  0  0  0  0  0  0  0  0  0  0  0
  155.2700  214.0080  155.7570 C   0  0  0  0  0  2  0  0  0  0  0  0
  155.0990  211.9570  157.2010 C   0  0  0  0  0  2  0  0  0  0  0  0
  154.5870  210.5420  157.0230 C   0  0  0  0  0  2  0  0  0  0  0  0
  155.2420  209.3090  155.0240 C   0  0  0  0  0  2  0  0  0  0  0  0
  154.4650  210.2360  155.5730 C   0  0  0  0  0  3  0  0  0  0  0  0
  158.2690  212.0250  152.1900 O   0  0  0  0  0  0  0  0  0  0  0  0
  157.3780  213.0990  152.1080 C   0  0  0  0  0  2  0  0  0  0  0  0
  157.3870  213.6580  150.7300 C   0  0  0  0  0  0  0  0  0  0  0  0
  158.4460  214.4480  150.3070 O   0  0  0  0  0  1  0  0  0  0  0  0
  156.4210  213.4350  149.9530 O   0  0  0  0  0  0  0  0  0  0  0  0
  160.5250  210.6140  153.0060 C   0  0  2  0  0  3  0  0  0  0  0  0
  160.8190  211.3220  151.6810 C   0  0  0  0  0  2  0  0  0  0  0  0
  162.1290  211.9520  147.5940 O   0  0  0  0  0  0  0  0  0  0  0  0
  161.7860  211.9530  148.8040 C   0  0  0  0  0  0  0  0  0  0  0  0
  160.7600  212.8390  149.2360 N   0  0  0  0  0  1  0  0  0  0  0  0
  162.8720  210.1390  151.7980 O   0  0  0  0  0  0  0  0  0  0  0  0
  162.0990  210.8320  151.0860 C   0  0  0  0  0  0  0  0  0  0  0  0
  162.4570  211.0830  149.7210 N   0  0  0  0  0  2  0  0  0  0  0  0
  159.8830  209.3870  152.7770 O   0  0  0  0  0  0  0  0  0  0  0  0
  160.5350  207.7990  151.1270 C   0  0  0  0  0  1  0  0  0  0  0  0
  160.8970  208.4890  152.4260 C   0  0  0  0  0  3  0  0  0  0  0  0
  161.0460  207.4410  153.5100 C   0  0  0  0  0  1  0  0  0  0  0  0
  1 25  1  6  0  0  0
  1  6  1  0  0  0  0
  1  2  1  0  0  0  0
  2  4  1  0  0  0  0
  2 17  1  1  0  0  0
  4  3  1  0  0  0  0
  5  3  1  0  0  0  0
  6 30  1  6  0  0  0
  6  5  1  0  0  0  0
  6 14  1  0  0  0  0
  7 15  2  0  0  0  0
  7  8  1  0  0  0  0
  8 13  1  0  0  0  0
  9 16  1  0  0  0  0
 10  7  1  0  0  0  0
 11  9  2  0  0  0  0
 12 11  1  0  0  0  0
 12  8  2  0  0  0  0
 13 16  2  0  0  0  0
 14 10  1  6  0  0  0
 14 12  1  0  0  0  0
 18 17  1  1  0  0  0
 18 21  1  0  0  0  0
 19 20  1  0  0  0  0
 20 18  1  0  0  0  0
 22 21  1  0  0  0  0
 23 24  2  0  0  0  0
 24 22  1  0  0  0  0
 26 25  1  0  0  0  0
 27 26  1  0  0  0  0
 28 27  1  0  0  0  0
 29 27  2  0  0  0  0
 30 31  1  6  0  0  0
 32 33  2  0  0  0  0
 33 34  1  0  0  0  0
 33 37  1  0  0  0  0
 36 31  1  0  0  0  0
 36 35  2  0  0  0  0
 37 36  1  0  0  0  0
 38 30  1  0  0  0  0
 39 40  1  0  0  0  0
 40 38  1  0  0  0  0
 40 41  1  0  0  0  0
M  END
>  <MODEL>
4

>  <REMARK>
 VINA RESULT:      -3.2      3.108      7.595
  Name = 
  15 active torsions:
  status: ('A' for Active; 'I' for Inactive)
    1  A    between atoms: C_4  and  C_13
    2  A    between atoms: C_4  and  C_14
    3  A    between atoms: C_5  and  C_16
    4  A    between atoms: C_7  and  O_11
    5  A    between atoms: C_8  and  C_10
    6  A    between atoms: C_8  and  C_13
    7  A    between atoms: C_10  and  C_39
    8  A    between atoms: O_11  and  C_16
    9  A    between atoms: C_13  and  C_36
   10  A    between atoms: C_19  and  C_32
   11  A    between atoms: C_19  and  C_35
   12  A    between atoms: O_21  and  C_33
   13  A    between atoms: O_21  and  C_35
   14  A    between atoms: C_30  and  C_41
   15  A    between atoms: C_35  and  C_41
                            x       y       z     vdW  Elec       q    Type
                         _______ _______ _______ _____ _____    ______ ____

>  <TORSDO>
F 15

$$$$
=
 OpenBabel11072412553D

 41 43  0  0  1  0  0  0  0  0999 V2000
  161.6110  210.3960  151.3300 C   0  0  2  0  0  3  0  0  0  0  0  0
  161.8790  209.0640  150.6040 C   0  0  2  0  0  3  0  0  0  0  0  0
  160.0000  208.1360  151.9590 C   0  0  0  0  0  2  0  0  0  0  0  0
  160.6200  208.2050  150.5690 C   0  0  0  0  0  2  0  0  0  0  0  0
  159.6610  209.4300  152.4170 O   0  0  0  0  0  0  0  0  0  0  0  0
  160.8280  210.2060  152.6670 C   0  0  1  0  0  0  0  0  0  0  0  0
  162.5250  210.2470  155.7640 C   0  0  0  0  0  0  0  0  0  0  0  0
  161.5290  209.2410  156.0450 C   0  0  0  0  0  0  0  0  0  0  0  0
  159.6430  207.2450  156.0080 C   0  0  0  0  0  3  0  0  0  0  0  0
  162.6310  210.4020  154.3880 O   0  0  0  0  0  0  0  0  0  0  0  0
  160.1000  207.7700  154.7890 C   0  0  0  0  0  3  0  0  0  0  0  0
  161.0460  208.7940  154.8410 C   0  0  0  0  0  0  0  0  0  0  0  0
  161.0690  208.7100  157.2470 C   0  0  0  0  0  3  0  0  0  0  0  0
  161.7490  209.4950  153.7130 C   0  0  1  0  0  3  0  0  0  0  0  0
  163.2330  210.9310  156.6520 C   0  0  0  0  0  2  0  0  0  0  0  0
  160.1280  207.7220  157.1960 N   0  0  0  0  0  0  0  0  0  0  0  0
  163.0440  208.2960  151.2200 C   0  0  0  0  0  2  0  0  0  0  0  0
  163.0540  206.8550  150.7370 C   0  0  2  0  0  3  0  0  0  0  0  0
  162.6640  206.3380  148.4290 F   0  0  0  0  0  0  0  0  0  0  0  0
  162.0330  206.6610  149.6200 C   0  0  0  0  0  2  0  0  0  0  0  0
  162.7760  205.9240  151.9060 C   0  0  0  0  0  2  0  0  0  0  0  0
  161.4810  205.1700  151.6750 C   0  0  0  0  0  2  0  0  0  0  0  0
  160.9570  202.9530  150.8050 C   0  0  0  0  0  2  0  0  0  0  0  0
  161.7730  203.7200  151.5190 C   0  0  0  0  0  3  0  0  0  0  0  0
  160.9160  211.2480  150.4620 O   0  0  0  0  0  0  0  0  0  0  0  0
  161.7620  211.4040  149.3600 C   0  0  0  0  0  2  0  0  0  0  0  0
  161.3150  212.5610  148.5400 C   0  0  0  0  0  0  0  0  0  0  0  0
  160.6150  212.3490  147.3610 O   0  0  0  0  0  0  0  0  0  0  0  0
  161.5940  213.7340  148.9010 O   0  0  0  0  0  1  0  0  0  0  0  0
  160.3460  211.6020  153.1630 C   0  0  2  0  0  3  0  0  0  0  0  0
  159.0640  211.5660  153.9980 C   0  0  0  0  0  2  0  0  0  0  0  0
  156.0150  212.2850  156.9990 O   0  0  0  0  0  0  0  0  0  0  0  0
  156.8780  211.8940  156.1720 C   0  0  0  0  0  0  0  0  0  0  0  0
  156.5070  210.9560  155.1700 N   0  0  0  0  0  1  0  0  0  0  0  0
  160.4450  212.5610  155.6510 O   0  0  0  0  0  0  0  0  0  0  0  0
  159.2860  212.1760  155.3450 C   0  0  0  0  0  0  0  0  0  0  0  0
  158.2200  212.3810  156.2800 N   0  0  0  0  0  2  0  0  0  0  0  0
  160.2220  212.5220  152.1100 O   0  0  0  0  0  0  0  0  0  0  0  0
  158.3430  213.0390  150.7430 C   0  0  0  0  0  1  0  0  0  0  0  0
  158.8970  212.9680  152.1510 C   0  0  0  0  0  3  0  0  0  0  0  0
  158.8430  214.3510  152.7660 C   0  0  0  0  0  1  0  0  0  0  0  0
  1 25  1  6  0  0  0
  1  6  1  0  0  0  0
  2 17  1  1  0  0  0
  2  1  1  0  0  0  0
  3  5  1  0  0  0  0
  4  2  1  0  0  0  0
  4  3  1  0  0  0  0
  5  6  1  0  0  0  0
  6 30  1  1  0  0  0
  6 14  1  0  0  0  0
  7  8  1  0  0  0  0
  7 15  2  0  0  0  0
  8 13  1  0  0  0  0
  9 16  1  0  0  0  0
 10  7  1  0  0  0  0
 11 12  1  0  0  0  0
 11  9  2  0  0  0  0
 12  8  2  0  0  0  0
 14 10  1  1  0  0  0
 14 12  1  0  0  0  0
 16 13  2  0  0  0  0
 18 20  1  6  0  0  0
 18 17  1  0  0  0  0
 18 21  1  0  0  0  0
 19 20  1  0  0  0  0
 22 21  1  0  0  0  0
 23 24  2  0  0  0  0
 24 22  1  0  0  0  0
 26 25  1  0  0  0  0
 27 29  1  0  0  0  0
 27 26  1  0  0  0  0
 28 27  2  0  0  0  0
 30 31  1  6  0  0  0
 31 36  1  0  0  0  0
 33 37  1  0  0  0  0
 33 32  2  0  0  0  0
 34 33  1  0  0  0  0
 36 35  2  0  0  0  0
 36 37  1  0  0  0  0
 38 40  1  0  0  0  0
 38 30  1  0  0  0  0
 39 40  1  0  0  0  0
 40 41  1  0  0  0  0
M  END
>  <MODEL>
5

>  <REMARK>
 VINA RESULT:      -2.8      2.166      5.221
  Name = 
  15 active torsions:
  status: ('A' for Active; 'I' for Inactive)
    1  A    between atoms: C_4  and  C_13
    2  A    between atoms: C_4  and  C_14
    3  A    between atoms: C_5  and  C_16
    4  A    between atoms: C_7  and  O_11
    5  A    between atoms: C_8  and  C_10
    6  A    between atoms: C_8  and  C_13
    7  A    between atoms: C_10  and  C_39
    8  A    between atoms: O_11  and  C_16
    9  A    between atoms: C_13  and  C_36
   10  A    between atoms: C_19  and  C_32
   11  A    between atoms: C_19  and  C_35
   12  A    between atoms: O_21  and  C_33
   13  A    between atoms: O_21  and  C_35
   14  A    between atoms: C_30  and  C_41
   15  A    between atoms: C_35  and  C_41
                            x       y       z     vdW  Elec       q    Type
                         _______ _______ _______ _____ _____    ______ ____

>  <TORSDO>
F 15

$$$$
=
 OpenBabel11072412553D

 41 43  0  0  1  0  0  0  0  0999 V2000
  160.3500  209.0950  153.4770 C   0  0  2  0  0  3  0  0  0  0  0  0
  161.1910  208.2920  152.4650 C   0  0  2  0  0  3  0  0  0  0  0  0
  162.4440  210.4130  152.0700 C   0  0  0  0  0  2  0  0  0  0  0  0
  162.5740  208.9130  152.2990 C   0  0  0  0  0  2  0  0  0  0  0  0
  161.7940  211.0280  153.1640 O   0  0  0  0  0  0  0  0  0  0  0  0
  160.4270  210.6350  153.2330 C   0  0  1  0  0  0  0  0  0  0  0  0
  158.6470  212.9600  151.2580 C   0  0  0  0  0  0  0  0  0  0  0  0
  159.8610  212.8620  150.4850 C   0  0  0  0  0  0  0  0  0  0  0  0
  162.2100  212.1510  149.2500 C   0  0  0  0  0  3  0  0  0  0  0  0
  158.5640  211.8620  152.1040 O   0  0  0  0  0  0  0  0  0  0  0  0
  161.6830  211.3100  150.2440 C   0  0  0  0  0  3  0  0  0  0  0  0
  160.4980  211.7080  150.8630 C   0  0  0  0  0  0  0  0  0  0  0  0
  160.3930  213.6860  149.4960 C   0  0  0  0  0  3  0  0  0  0  0  0
  159.6830  210.9900  151.9030 C   0  0  1  0  0  3  0  0  0  0  0  0
  157.7450  213.9300  151.1980 C   0  0  0  0  0  2  0  0  0  0  0  0
  161.5640  213.3080  148.9050 N   0  0  0  0  0  0  0  0  0  0  0  0
  160.4920  208.1510  151.1180 C   0  0  0  0  0  2  0  0  0  0  0  0
  161.2890  207.2470  150.1900 C   0  0  2  0  0  3  0  0  0  0  0  0
  162.9190  207.7130  148.4970 F   0  0  0  0  0  0  0  0  0  0  0  0
  161.6160  207.9740  148.8900 C   0  0  0  0  0  2  0  0  0  0  0  0
  160.5060  205.9710  149.9270 C   0  0  0  0  0  2  0  0  0  0  0  0
  160.3690  205.1710  151.2070 C   0  0  0  0  0  2  0  0  0  0  0  0
  161.7110  203.1380  151.3120 C   0  0  0  0  0  2  0  0  0  0  0  0
  160.5900  203.7280  150.9170 C   0  0  0  0  0  3  0  0  0  0  0  0
  160.7770  208.7730  154.7710 O   0  0  0  0  0  0  0  0  0  0  0  0
  160.6980  207.3790  154.8380 C   0  0  0  0  0  2  0  0  0  0  0  0
  159.8540  206.9760  155.9940 C   0  0  0  0  0  0  0  0  0  0  0  0
  160.4490  206.5830  157.1840 O   0  0  0  0  0  1  0  0  0  0  0  0
  158.6000  206.9660  155.8860 O   0  0  0  0  0  0  0  0  0  0  0  0
  159.8070  211.3630  154.4630 C   0  0  2  0  0  3  0  0  0  0  0  0
  160.3740  210.9140  155.8130 C   0  0  0  0  0  2  0  0  0  0  0  0
  164.4540  211.1920  157.2600 O   0  0  0  0  0  0  0  0  0  0  0  0
  163.3450  211.1340  156.6690 C   0  0  0  0  0  0  0  0  0  0  0  0
  163.1440  210.1490  155.6630 N   0  0  0  0  0  1  0  0  0  0  0  0
  160.2250  213.0500  156.8350 O   0  0  0  0  0  0  0  0  0  0  0  0
  160.9630  212.0700  156.5550 C   0  0  0  0  0  0  0  0  0  0  0  0
  162.3250  212.0810  157.0010 N   0  0  0  0  0  2  0  0  0  0  0  0
  158.4050  211.2900  154.4680 O   0  0  0  0  0  0  0  0  0  0  0  0
  157.0570  211.5110  156.4180 C   0  0  0  0  0  1  0  0  0  0  0  0
  157.9820  212.2040  155.4390 C   0  0  0  0  0  3  0  0  0  0  0  0
  157.2280  213.3390  154.7760 C   0  0  0  0  0  1  0  0  0  0  0  0
  1 25  1  1  0  0  0
  2 17  1  6  0  0  0
  2  1  1  0  0  0  0
  3  4  1  0  0  0  0
  3  5  1  0  0  0  0
  4  2  1  0  0  0  0
  5  6  1  0  0  0  0
  6  1  1  0  0  0  0
  6 30  1  1  0  0  0
  7 10  1  0  0  0  0
  8 12  1  0  0  0  0
  8  7  1  0  0  0  0
  9 11  1  0  0  0  0
 11 12  2  0  0  0  0
 13  8  2  0  0  0  0
 14 12  1  6  0  0  0
 14 10  1  0  0  0  0
 14  6  1  0  0  0  0
 15  7  2  0  0  0  0
 16  9  2  0  0  0  0
 16 13  1  0  0  0  0
 18 20  1  6  0  0  0
 18 17  1  0  0  0  0
 19 20  1  0  0  0  0
 21 18  1  0  0  0  0
 21 22  1  0  0  0  0
 24 22  1  0  0  0  0
 24 23  2  0  0  0  0
 25 26  1  0  0  0  0
 26 27  1  0  0  0  0
 27 28  1  0  0  0  0
 29 27  2  0  0  0  0
 30 38  1  0  0  0  0
 30 31  1  1  0  0  0
 31 36  1  0  0  0  0
 33 37  1  0  0  0  0
 33 32  2  0  0  0  0
 34 33  1  0  0  0  0
 36 35  2  0  0  0  0
 36 37  1  0  0  0  0
 38 40  1  0  0  0  0
 40 39  1  0  0  0  0
 41 40  1  0  0  0  0
M  END
>  <MODEL>
6

>  <REMARK>
 VINA RESULT:      -2.1      1.597      2.767
  Name = 
  15 active torsions:
  status: ('A' for Active; 'I' for Inactive)
    1  A    between atoms: C_4  and  C_13
    2  A    between atoms: C_4  and  C_14
    3  A    between atoms: C_5  and  C_16
    4  A    between atoms: C_7  and  O_11
    5  A    between atoms: C_8  and  C_10
    6  A    between atoms: C_8  and  C_13
    7  A    between atoms: C_10  and  C_39
    8  A    between atoms: O_11  and  C_16
    9  A    between atoms: C_13  and  C_36
   10  A    between atoms: C_19  and  C_32
   11  A    between atoms: C_19  and  C_35
   12  A    between atoms: O_21  and  C_33
   13  A    between atoms: O_21  and  C_35
   14  A    between atoms: C_30  and  C_41
   15  A    between atoms: C_35  and  C_41
                            x       y       z     vdW  Elec       q    Type
                         _______ _______ _______ _____ _____    ______ ____

>  <TORSDO>
F 15

$$$$
=
 OpenBabel11072412553D

 41 43  0  0  1  0  0  0  0  0999 V2000
  159.2470  211.4090  152.3250 C   0  0  2  0  0  3  0  0  0  0  0  0
  158.5970  212.1420  153.5150 C   0  0  2  0  0  3  0  0  0  0  0  0
  160.7670  211.8020  154.6990 C   0  0  0  0  0  2  0  0  0  0  0  0
  159.6590  212.8000  154.3890 C   0  0  0  0  0  2  0  0  0  0  0  0
  161.3730  211.3460  153.5060 O   0  0  0  0  0  0  0  0  0  0  0  0
  160.4730  210.5420  152.7500 C   0  0  1  0  0  0  0  0  0  0  0  0
  160.8710  207.1910  153.7950 C   0  0  0  0  0  0  0  0  0  0  0  0
  161.1450  207.8690  155.0390 C   0  0  0  0  0  0  0  0  0  0  0  0
  161.3350  209.5730  157.1840 C   0  0  0  0  0  3  0  0  0  0  0  0
  160.2010  208.0640  152.9460 O   0  0  0  0  0  0  0  0  0  0  0  0
  160.7040  210.0230  156.0130 C   0  0  0  0  0  3  0  0  0  0  0  0
  160.6380  209.1390  154.9360 C   0  0  0  0  0  0  0  0  0  0  0  0
  161.7660  207.4350  156.2070 C   0  0  0  0  0  3  0  0  0  0  0  0
  159.9790  209.3220  153.5970 C   0  0  1  0  0  3  0  0  0  0  0  0
  161.1960  205.9450  153.4820 C   0  0  0  0  0  2  0  0  0  0  0  0
  161.8490  208.3070  157.2540 N   0  0  0  0  0  0  0  0  0  0  0  0
  157.7060  211.2210  154.3410 C   0  0  0  0  0  2  0  0  0  0  0  0
  157.3060  211.8890  155.6470 C   0  0  2  0  0  3  0  0  0  0  0  0
  155.6160  210.2050  155.4150 F   0  0  0  0  0  0  0  0  0  0  0  0
  156.1360  211.1480  156.2870 C   0  0  0  0  0  2  0  0  0  0  0  0
  156.9610  213.3460  155.3890 C   0  0  0  0  0  2  0  0  0  0  0  0
  155.4580  213.5150  155.2810 C   0  0  0  0  0  2  0  0  0  0  0  0
  154.1570  214.4340  153.4360 C   0  0  0  0  0  2  0  0  0  0  0  0
  155.0650  213.5570  153.8470 C   0  0  0  0  0  3  0  0  0  0  0  0
  159.6170  212.3570  151.3620 O   0  0  0  0  0  0  0  0  0  0  0  0
  158.7820  213.4530  151.6000 C   0  0  0  0  0  2  0  0  0  0  0  0
  157.7080  213.5010  150.5720 C   0  0  0  0  0  0  0  0  0  0  0  0
  156.5040  214.1300  150.8550 O   0  0  0  0  0  1  0  0  0  0  0  0
  157.8800  212.9490  149.4540 O   0  0  0  0  0  0  0  0  0  0  0  0
  161.2340  210.0940  151.4660 C   0  0  2  0  0  3  0  0  0  0  0  0
  161.1940  211.1130  150.3240 C   0  0  0  0  0  2  0  0  0  0  0  0
  162.1340  212.8430  146.4590 O   0  0  0  0  0  0  0  0  0  0  0  0
  161.8060  212.5150  147.6280 C   0  0  0  0  0  0  0  0  0  0  0  0
  160.4730  212.7460  148.0670 N   0  0  0  0  0  1  0  0  0  0  0  0
  163.5590  211.0300  150.4830 O   0  0  0  0  0  0  0  0  0  0  0  0
  162.5660  211.3700  149.7890 C   0  0  0  0  0  0  0  0  0  0  0  0
  162.7900  211.9460  148.4960 N   0  0  0  0  0  2  0  0  0  0  0  0
  160.8140  208.8330  151.0170 O   0  0  0  0  0  0  0  0  0  0  0  0
  161.1940  207.6990  148.9580 C   0  0  0  0  0  1  0  0  0  0  0  0
  161.8210  208.3840  150.1550 C   0  0  0  0  0  3  0  0  0  0  0  0
  162.7040  207.3880  150.8790 C   0  0  0  0  0  1  0  0  0  0  0  0
  1 25  1  6  0  0  0
  1  6  1  0  0  0  0
  1  2  1  0  0  0  0
  2 17  1  1  0  0  0
  2  4  1  0  0  0  0
  4  3  1  0  0  0  0
  5  3  1  0  0  0  0
  6 30  1  6  0  0  0
  6  5  1  0  0  0  0
  6 14  1  0  0  0  0
  7  8  1  0  0  0  0
  8 13  1  0  0  0  0
  9 16  1  0  0  0  0
 10  7  1  0  0  0  0
 11  9  2  0  0  0  0
 12  8  2  0  0  0  0
 12 11  1  0  0  0  0
 13 16  2  0  0  0  0
 14 10  1  6  0  0  0
 14 12  1  0  0  0  0
 15  7  2  0  0  0  0
 18 17  1  6  0  0  0
 18 20  1  0  0  0  0
 19 20  1  0  0  0  0
 21 18  1  0  0  0  0
 22 21  1  0  0  0  0
 23 24  2  0  0  0  0
 24 22  1  0  0  0  0
 25 26  1  0  0  0  0
 27 28  1  0  0  0  0
 27 26  1  0  0  0  0
 29 27  2  0  0  0  0
 30 31  1  6  0  0  0
 32 33  2  0  0  0  0
 33 34  1  0  0  0  0
 33 37  1  0  0  0  0
 36 31  1  0  0  0  0
 36 35  2  0  0  0  0
 37 36  1  0  0  0  0
 38 30  1  0  0  0  0
 39 40  1  0  0  0  0
 40 41  1  0  0  0  0
 40 38  1  0  0  0  0
M  END
>  <MODEL>
7

>  <REMARK>
 VINA RESULT:      -1.5      3.040      7.763
  Name = 
  15 active torsions:
  status: ('A' for Active; 'I' for Inactive)
    1  A    between atoms: C_4  and  C_13
    2  A    between atoms: C_4  and  C_14
    3  A    between atoms: C_5  and  C_16
    4  A    between atoms: C_7  and  O_11
    5  A    between atoms: C_8  and  C_10
    6  A    between atoms: C_8  and  C_13
    7  A    between atoms: C_10  and  C_39
    8  A    between atoms: O_11  and  C_16
    9  A    between atoms: C_13  and  C_36
   10  A    between atoms: C_19  and  C_32
   11  A    between atoms: C_19  and  C_35
   12  A    between atoms: O_21  and  C_33
   13  A    between atoms: O_21  and  C_35
   14  A    between atoms: C_30  and  C_41
   15  A    between atoms: C_35  and  C_41
                            x       y       z     vdW  Elec       q    Type
                         _______ _______ _______ _____ _____    ______ ____

>  <TORSDO>
F 15

$$$$
=
 OpenBabel11072412553D

 41 43  0  0  1  0  0  0  0  0999 V2000
  159.0600  211.2780  152.7380 C   0  0  2  0  0  3  0  0  0  0  0  0
  158.7810  211.9660  154.0880 C   0  0  2  0  0  3  0  0  0  0  0  0
  161.1470  211.4260  154.6680 C   0  0  0  0  0  2  0  0  0  0  0  0
  160.0710  212.5030  154.6970 C   0  0  0  0  0  2  0  0  0  0  0  0
  161.4030  211.0160  153.3390 O   0  0  0  0  0  0  0  0  0  0  0  0
  160.2880  210.3160  152.7960 C   0  0  1  0  0  0  0  0  0  0  0  0
  161.0070  207.0260  153.8620 C   0  0  0  0  0  0  0  0  0  0  0  0
  161.2780  207.7430  155.0840 C   0  0  0  0  0  0  0  0  0  0  0  0
  161.4200  209.4900  157.1980 C   0  0  0  0  0  3  0  0  0  0  0  0
  160.2320  207.8270  153.0340 O   0  0  0  0  0  0  0  0  0  0  0  0
  160.7030  209.8680  156.0520 C   0  0  0  0  0  3  0  0  0  0  0  0
  160.6640  208.9650  154.9890 C   0  0  0  0  0  0  0  0  0  0  0  0
  161.9840  207.3800  156.2280 C   0  0  0  0  0  3  0  0  0  0  0  0
  159.9350  209.0730  153.6790 C   0  0  1  0  0  3  0  0  0  0  0  0
  161.4210  205.8060  153.5500 C   0  0  0  0  0  2  0  0  0  0  0  0
  162.0400  208.2720  157.2600 N   0  0  0  0  0  0  0  0  0  0  0  0
  158.0600  211.0450  155.0660 C   0  0  0  0  0  2  0  0  0  0  0  0
  157.0000  211.8090  155.8430 C   0  0  2  0  0  3  0  0  0  0  0  0
  155.5540  210.3590  154.5980 F   0  0  0  0  0  0  0  0  0  0  0  0
  155.6620  211.0790  155.7770 C   0  0  0  0  0  2  0  0  0  0  0  0
  156.8850  213.2220  155.2940 C   0  0  0  0  0  2  0  0  0  0  0  0
  155.4260  213.6050  155.1420 C   0  0  0  0  0  2  0  0  0  0  0  0
  154.0810  214.4530  153.2950 C   0  0  0  0  0  2  0  0  0  0  0  0
  155.2540  214.4260  153.9140 C   0  0  0  0  0  3  0  0  0  0  0  0
  159.2460  212.2640  151.7610 O   0  0  0  0  0  0  0  0  0  0  0  0
  158.2130  213.1810  151.9790 C   0  0  0  0  0  2  0  0  0  0  0  0
  157.6980  213.6790  150.6760 C   0  0  0  0  0  0  0  0  0  0  0  0
  156.4490  214.2810  150.6070 O   0  0  0  0  0  1  0  0  0  0  0  0
  158.3810  213.5310  149.6290 O   0  0  0  0  0  0  0  0  0  0  0  0
  160.6720  209.9110  151.3410 C   0  0  2  0  0  3  0  0  0  0  0  0
  160.8560  208.4060  151.1330 C   0  0  0  0  0  2  0  0  0  0  0  0
  162.4210  205.9500  147.9180 O   0  0  0  0  0  0  0  0  0  0  0  0
  161.9360  206.7920  148.7170 C   0  0  0  0  0  0  0  0  0  0  0  0
  160.6250  207.2930  148.4900 N   0  0  0  0  0  1  0  0  0  0  0  0
  163.1510  208.4910  151.7290 O   0  0  0  0  0  0  0  0  0  0  0  0
  162.2950  208.0700  150.9080 C   0  0  0  0  0  0  0  0  0  0  0  0
  162.7300  207.2480  149.8180 N   0  0  0  0  0  2  0  0  0  0  0  0
  161.7940  210.6140  150.8770 O   0  0  0  0  0  0  0  0  0  0  0  0
  162.5230  210.5600  148.6110 C   0  0  0  0  0  1  0  0  0  0  0  0
  161.4670  211.0400  149.5860 C   0  0  0  0  0  3  0  0  0  0  0  0
  161.4190  212.5540  149.5450 C   0  0  0  0  0  1  0  0  0  0  0  0
  1 25  1  6  0  0  0
  1  6  1  0  0  0  0
  1  2  1  0  0  0  0
  2  4  1  0  0  0  0
  2 17  1  1  0  0  0
  3  4  1  0  0  0  0
  5  3  1  0  0  0  0
  6 30  1  6  0  0  0
  6  5  1  0  0  0  0
  6 14  1  0  0  0  0
  7  8  1  0  0  0  0
  8 13  1  0  0  0  0
  9 16  1  0  0  0  0
 10  7  1  0  0  0  0
 11  9  2  0  0  0  0
 12  8  2  0  0  0  0
 12 11  1  0  0  0  0
 13 16  2  0  0  0  0
 14 10  1  6  0  0  0
 14 12  1  0  0  0  0
 15  7  2  0  0  0  0
 18 17  1  6  0  0  0
 19 20  1  0  0  0  0
 20 18  1  0  0  0  0
 21 18  1  0  0  0  0
 22 21  1  0  0  0  0
 23 24  2  0  0  0  0
 24 22  1  0  0  0  0
 25 26  1  0  0  0  0
 27 26  1  0  0  0  0
 28 27  1  0  0  0  0
 29 27  2  0  0  0  0
 30 31  1  1  0  0  0
 32 33  2  0  0  0  0
 33 37  1  0  0  0  0
 34 33  1  0  0  0  0
 36 31  1  0  0  0  0
 36 35  2  0  0  0  0
 37 36  1  0  0  0  0
 38 30  1  0  0  0  0
 39 40  1  0  0  0  0
 40 38  1  0  0  0  0
 41 40  1  0  0  0  0
M  END
>  <MODEL>
8

>  <REMARK>
 VINA RESULT:      -1.2      3.083      7.970
  Name = 
  15 active torsions:
  status: ('A' for Active; 'I' for Inactive)
    1  A    between atoms: C_4  and  C_13
    2  A    between atoms: C_4  and  C_14
    3  A    between atoms: C_5  and  C_16
    4  A    between atoms: C_7  and  O_11
    5  A    between atoms: C_8  and  C_10
    6  A    between atoms: C_8  and  C_13
    7  A    between atoms: C_10  and  C_39
    8  A    between atoms: O_11  and  C_16
    9  A    between atoms: C_13  and  C_36
   10  A    between atoms: C_19  and  C_32
   11  A    between atoms: C_19  and  C_35
   12  A    between atoms: O_21  and  C_33
   13  A    between atoms: O_21  and  C_35
   14  A    between atoms: C_30  and  C_41
   15  A    between atoms: C_35  and  C_41
                            x       y       z     vdW  Elec       q    Type
                         _______ _______ _______ _____ _____    ______ ____

>  <TORSDO>
F 15

$$$$
=
 OpenBabel11072412553D

 41 43  0  0  1  0  0  0  0  0999 V2000
  160.3810  209.2180  152.2870 C   0  0  2  0  0  3  0  0  0  0  0  0
  161.3190  208.4460  151.3400 C   0  0  2  0  0  3  0  0  0  0  0  0
  162.7190  210.5110  151.3060 C   0  0  0  0  0  2  0  0  0  0  0  0
  162.7400  208.9930  151.4230 C   0  0  0  0  0  2  0  0  0  0  0  0
  161.9480  211.0790  152.3460 O   0  0  0  0  0  0  0  0  0  0  0  0
  160.5680  210.7650  152.1890 C   0  0  1  0  0  0  0  0  0  0  0  0
  159.3100  213.3690  150.1610 C   0  0  0  0  0  0  0  0  0  0  0  0
  160.5970  213.1750  149.5380 C   0  0  0  0  0  0  0  0  0  0  0  0
  162.9980  212.2690  148.5600 C   0  0  0  0  0  3  0  0  0  0  0  0
  159.0040  212.2460  150.9200 O   0  0  0  0  0  0  0  0  0  0  0  0
  162.2630  211.4440  149.4260 C   0  0  0  0  0  3  0  0  0  0  0  0
  161.0550  211.9390  149.9190 C   0  0  0  0  0  0  0  0  0  0  0  0
  161.3350  213.9820  148.6770 C   0  0  0  0  0  3  0  0  0  0  0  0
  160.0430  211.2660  150.8030 C   0  0  1  0  0  3  0  0  0  0  0  0
  158.5290  214.4350  150.0530 C   0  0  0  0  0  2  0  0  0  0  0  0
  162.5270  213.5060  148.2110 N   0  0  0  0  0  0  0  0  0  0  0  0
  160.8170  208.4520  149.9000 C   0  0  0  0  0  2  0  0  0  0  0  0
  160.8220  207.0460  149.3230 C   0  0  2  0  0  3  0  0  0  0  0  0
  160.5080  204.9840  150.5040 F   0  0  0  0  0  0  0  0  0  0  0  0
  161.3740  206.0540  150.3410 C   0  0  0  0  0  2  0  0  0  0  0  0
  161.6330  207.0260  148.0370 C   0  0  0  0  0  2  0  0  0  0  0  0
  161.9760  205.5980  147.6600 C   0  0  0  0  0  2  0  0  0  0  0  0
  161.7370  205.3570  145.2460 C   0  0  0  0  0  2  0  0  0  0  0  0
  161.2030  205.2050  146.4520 C   0  0  0  0  0  3  0  0  0  0  0  0
  160.5990  208.7720  153.5970 O   0  0  0  0  0  0  0  0  0  0  0  0
  161.3950  207.6310  153.4580 C   0  0  0  0  0  2  0  0  0  0  0  0
  160.8260  206.5180  154.2630 C   0  0  0  0  0  0  0  0  0  0  0  0
  160.1830  206.7860  155.4630 O   0  0  0  0  0  1  0  0  0  0  0  0
  160.9490  205.3290  153.8690 O   0  0  0  0  0  0  0  0  0  0  0  0
  159.8120  211.4330  153.3770 C   0  0  2  0  0  3  0  0  0  0  0  0
  160.1780  210.8680  154.7530 C   0  0  0  0  0  2  0  0  0  0  0  0
  163.7240  210.8980  157.2510 O   0  0  0  0  0  0  0  0  0  0  0  0
  162.8140  210.9160  156.3830 C   0  0  0  0  0  0  0  0  0  0  0  0
  162.8610  209.9870  155.3070 N   0  0  0  0  0  1  0  0  0  0  0  0
  159.8250  212.9590  155.8150 O   0  0  0  0  0  0  0  0  0  0  0  0
  160.5810  211.9610  155.6890 C   0  0  0  0  0  0  0  0  0  0  0  0
  161.7720  211.8920  156.4830 N   0  0  0  0  0  2  0  0  0  0  0  0
  158.4210  211.4190  153.1920 O   0  0  0  0  0  0  0  0  0  0  0  0
  156.8420  211.0950  154.9440 C   0  0  0  0  0  1  0  0  0  0  0  0
  157.8820  212.0140  154.3380 C   0  0  0  0  0  3  0  0  0  0  0  0
  157.2170  213.3240  153.9660 C   0  0  0  0  0  1  0  0  0  0  0  0
  1 25  1  1  0  0  0
  2 17  1  6  0  0  0
  2  4  1  0  0  0  0
  2  1  1  0  0  0  0
  3  4  1  0  0  0  0
  3  5  1  0  0  0  0
  6  1  1  0  0  0  0
  6  5  1  0  0  0  0
  6 30  1  1  0  0  0
  7 10  1  0  0  0  0
  8 12  1  0  0  0  0
  8  7  1  0  0  0  0
  9 11  1  0  0  0  0
 11 12  2  0  0  0  0
 13  8  2  0  0  0  0
 14 12  1  1  0  0  0
 14 10  1  0  0  0  0
 14  6  1  0  0  0  0
 15  7  2  0  0  0  0
 16  9  2  0  0  0  0
 16 13  1  0  0  0  0
 18 21  1  6  0  0  0
 18 17  1  0  0  0  0
 18 20  1  0  0  0  0
 20 19  1  0  0  0  0
 22 21  1  0  0  0  0
 23 24  2  0  0  0  0
 24 22  1  0  0  0  0
 26 25  1  0  0  0  0
 26 27  1  0  0  0  0
 27 28  1  0  0  0  0
 29 27  2  0  0  0  0
 30 31  1  1  0  0  0
 31 36  1  0  0  0  0
 33 37  1  0  0  0  0
 33 32  2  0  0  0  0
 34 33  1  0  0  0  0
 36 35  2  0  0  0  0
 36 37  1  0  0  0  0
 38 30  1  0  0  0  0
 38 40  1  0  0  0  0
 40 39  1  0  0  0  0
 41 40  1  0  0  0  0
M  END
>  <MODEL>
9

>  <REMARK>
 VINA RESULT:      -1.0      2.027      3.273
  Name = 
  15 active torsions:
  status: ('A' for Active; 'I' for Inactive)
    1  A    between atoms: C_4  and  C_13
    2  A    between atoms: C_4  and  C_14
    3  A    between atoms: C_5  and  C_16
    4  A    between atoms: C_7  and  O_11
    5  A    between atoms: C_8  and  C_10
    6  A    between atoms: C_8  and  C_13
    7  A    between atoms: C_10  and  C_39
    8  A    between atoms: O_11  and  C_16
    9  A    between atoms: C_13  and  C_36
   10  A    between atoms: C_19  and  C_32
   11  A    between atoms: C_19  and  C_35
   12  A    between atoms: O_21  and  C_33
   13  A    between atoms: O_21  and  C_35
   14  A    between atoms: C_30  and  C_41
   15  A    between atoms: C_35  and  C_41
                            x       y       z     vdW  Elec       q    Type
                         _______ _______ _______ _____ _____    ______ ____

>  <TORSDO>
F 15

$$$$
