=
 OpenBabel11072413523D

 67 75  0  0  1  0  0  0  0  0999 V2000
  160.7240  211.6110  154.9830 C   0  0  0  0  0  2  0  0  0  0  0  0
  160.2550  206.1060  154.0980 C   0  0  0  0  0  2  0  0  0  0  0  0
  158.0040  212.8660  155.0260 F   0  0  0  0  0  0  0  0  0  0  0  0
  162.7750  210.3410  150.3460 N   0  0  0  0  0  2  0  0  0  0  0  0
  161.0520  206.0560  152.8020 C   0  0  2  0  0  0  0  0  0  0  0  0
  160.5560  208.3260  150.1050 N   0  0  0  0  0  0  0  0  0  0  0  0
  160.7890  208.4420  148.7460 C   0  0  0  0  0  0  0  0  0  0  0  0
  159.9180  204.7030  150.7530 C   0  0  0  0  0  2  0  0  0  0  0  0
  159.1240  214.0410  153.4280 N   0  0  0  0  0  0  0  0  0  0  0  0
  159.0660  210.3640  156.7500 C   0  0  0  0  0  1  0  0  0  0  0  0
  158.9640  212.9880  154.1510 C   0  0  0  0  0  0  0  0  0  0  0  0
  162.5970  211.0890  151.5710 N   0  0  0  0  0  2  0  0  0  0  0  0
  160.1040  208.0560  155.5840 C   0  0  1  0  0  3  0  0  0  0  0  0
  161.0860  209.2410  155.7790 C   0  0  2  0  0  3  0  0  0  0  0  0
  160.1410  205.9440  149.9550 C   0  0  0  0  0  0  0  0  0  0  0  0
  160.1680  213.8530  152.4700 C   0  0  0  0  0  2  0  0  0  0  0  0
  160.1540  205.9830  148.5640 C   0  0  0  0  0  3  0  0  0  0  0  0
  160.5000  211.3730  150.2270 C   0  0  1  0  0  3  0  0  0  0  0  0
  162.1400  208.9910  156.6640 F   0  0  0  0  0  0  0  0  0  0  0  0
  160.5170  210.5600  156.1660 C   0  0  1  0  0  3  0  0  0  0  0  0
  161.3830  209.6360  148.3810 C   0  0  0  0  0  3  0  0  0  0  0  0
  161.7070  210.7950  149.3940 C   0  0  2  0  0  3  0  0  0  0  0  0
  159.7850  211.8430  153.7790 C   0  0  1  0  0  3  0  0  0  0  0  0
  160.6510  212.4700  152.7120 C   0  0  1  0  0  3  0  0  0  0  0  0
  160.9090  207.1000  154.9010 N   0  0  0  0  0  2  0  0  0  0  0  0
  160.5750  207.2280  152.0610 O   0  0  0  0  0  0  0  0  0  0  0  0
  160.7510  204.6950  152.0730 C   0  0  0  0  0  2  0  0  0  0  0  0
  160.4740  207.3090  147.8230 C   0  0  0  0  0  2  0  0  0  0  0  0
  159.5700  207.4430  156.8010 C   0  0  0  0  0  1  0  0  0  0  0  0
  160.3720  207.1600  150.6930 C   0  0  0  0  0  0  0  0  0  0  0  0
  161.2200  211.5820  151.5520 C   0  0  2  0  0  3  0  0  0  0  0  0
  162.0250  213.9560  149.1630 O   0  0  0  0  0  0  0  0  0  0  0  0
  160.1230  212.7000  149.7750 N   0  0  0  0  0  2  0  0  0  0  0  0
  160.8340  213.6120  148.9290 C   0  0  0  0  0  0  0  0  0  0  0  0
  160.0920  214.4240  147.8040 C   0  0  1  0  0  3  0  0  0  0  0  0
  160.6160  214.1100  146.5380 O   0  0  0  0  0  0  0  0  0  0  0  0
  161.5980  213.1320  146.6970 C   0  0  0  0  0  1  0  0  0  0  0  0
  158.5570  214.1820  147.8660 C   0  0  0  0  0  2  0  0  0  0  0  0
  158.1100  214.0960  144.4790 C   0  0  0  0  0  1  0  0  0  0  0  0
  158.1050  213.2600  146.8420 N   0  0  0  0  0  2  0  0  0  0  0  0
  156.2380  214.2150  145.9060 O   0  0  0  0  0  0  0  0  0  0  0  0
  157.4080  213.8080  145.7400 C   0  0  0  0  0  0  0  0  0  0  0  0
  162.5990  206.2070  152.9880 C   0  0  0  0  0  2  0  0  0  0  0  0
  163.4030  206.0620  151.8700 O   0  0  0  0  0  0  0  0  0  0  0  0
  162.8430  204.9300  151.2000 C   0  0  0  0  0  2  0  0  0  0  0  0
  162.9350  204.2250  149.7510 C   0  0  0  0  0  2  0  0  0  0  0  0
  161.2790  203.6820  146.3490 N   0  0  1  0  0  0  0  0  0  0  0  0
  161.9310  206.5330  143.4660 C   0  0  0  0  0  3  0  0  0  0  0  0
  162.2520  206.6350  144.8570 N   0  0  0  0  0  0  0  0  0  0  0  0
  161.2710  201.0690  146.2840 C   0  0  0  0  0  2  0  0  0  0  0  0
  161.7220  203.8680  148.7720 C   0  0  2  0  0  3  0  0  0  0  0  0
  161.6510  205.3560  142.9220 C   0  0  0  0  0  3  0  0  0  0  0  0
  162.4030  205.5610  145.6010 C   0  0  0  0  0  0  0  0  0  0  0  0
  161.2680  202.3330  148.6110 C   0  0  2  0  0  3  0  0  0  0  0  0
  162.1840  204.1500  145.1720 C   0  0  2  0  0  3  0  0  0  0  0  0
  161.1430  202.2400  146.9870 C   0  0  0  0  0  0  0  0  0  0  0  0
  162.3940  205.6190  146.9950 N   0  0  0  0  0  2  0  0  0  0  0  0
  161.4980  204.0660  143.7660 C   0  0  0  0  0  2  0  0  0  0  0  0
  159.7720  201.5150  146.5410 C   0  0  0  0  0  2  0  0  0  0  0  0
  162.1560  204.2760  147.3660 C   0  0  2  0  0  3  0  0  0  0  0  0
  160.9060  201.3710  149.8600 C   0  0  2  0  0  3  0  0  0  0  0  0
  162.1390  200.7740  150.5370 C   0  0  0  0  0  2  0  0  0  0  0  0
  162.2900  201.4610  151.8760 C   0  0  0  0  0  1  0  0  0  0  0  0
  159.5240  200.6930  149.8000 N   0  0  0  0  0  0  0  0  0  0  0  0
  158.9530  200.3500  151.1130 C   0  0  0  0  0  1  0  0  0  0  0  0
  158.4990  201.4190  149.0820 C   0  0  0  0  0  2  0  0  0  0  0  0
  157.1750  200.8120  149.0600 O   0  0  0  0  0  1  0  0  0  0  0  0
  1 20  1  0  0  0  0
  2 25  1  0  0  0  0
  4 12  1  0  0  0  0
  5 43  1  1  0  0  0
  5  2  1  0  0  0  0
  6 30  2  0  0  0  0
  7  6  1  0  0  0  0
  8 27  1  0  0  0  0
  9 11  2  0  0  0  0
 11  3  1  0  0  0  0
 13 14  1  0  0  0  0
 13 29  1  1  0  0  0
 14 20  1  0  0  0  0
 14 19  1  1  0  0  0
 15 30  1  0  0  0  0
 15  8  1  0  0  0  0
 16  9  1  0  0  0  0
 17 15  2  0  0  0  0
 18 33  1  6  0  0  0
 18 31  1  0  0  0  0
 20 10  1  6  0  0  0
 21  7  2  0  0  0  0
 22 21  1  1  0  0  0
 22 18  1  0  0  0  0
 22  4  1  0  0  0  0
 23 11  1  0  0  0  0
 23  1  1  1  0  0  0
 24 16  1  6  0  0  0
 24 23  1  0  0  0  0
 25 13  1  0  0  0  0
 26  5  1  0  0  0  0
 27  5  1  0  0  0  0
 28 17  1  0  0  0  0
 28  7  1  0  0  0  0
 30 26  1  0  0  0  0
 31 12  1  6  0  0  0
 31 24  1  0  0  0  0
 34 32  2  0  0  0  0
 34 33  1  0  0  0  0
 35 38  1  6  0  0  0
 35 34  1  0  0  0  0
 36 37  1  0  0  0  0
 36 35  1  0  0  0  0
 39 42  1  0  0  0  0
 40 38  1  0  0  0  0
 42 41  2  0  0  0  0
 42 40  1  0  0  0  0
 44 43  1  0  0  0  0
 45 44  1  0  0  0  0
 46 45  1  0  0  0  0
 47 56  1  1  0  0  0
 47 60  1  0  0  0  0
 48 49  1  0  0  0  0
 49 53  2  0  0  0  0
 50 59  1  0  0  0  0
 50 56  1  0  0  0  0
 51 46  1  1  0  0  0
 52 48  2  0  0  0  0
 52 58  1  0  0  0  0
 53 57  1  0  0  0  0
 54 51  1  0  0  0  0
 54 61  1  1  0  0  0
 55 58  1  6  0  0  0
 55 53  1  0  0  0  0
 55 47  1  0  0  0  0
 56 54  1  0  0  0  0
 59 56  1  0  0  0  0
 60 57  1  1  0  0  0
 60 51  1  0  0  0  0
 61 62  1  6  0  0  0
 62 63  1  0  0  0  0
 64 61  1  0  0  0  0
 64 65  1  0  0  0  0
 66 64  1  0  0  0  0
 67 66  1  0  0  0  0
M  END
>  <MODEL>
1

>  <REMARK>
 VINA RESULT:      12.7      0.000      0.000
  Name = 
  14 active torsions:
  status: ('A' for Active; 'I' for Inactive)
    1  A    between atoms: C_3  and  C_30
    2  A    between atoms: C_9  and  C_38
    3  A    between atoms: N_13  and  C_49
    4  A    between atoms: O_17  and  C_36
    5  A    between atoms: C_20  and  C_57
    6  A    between atoms: N_23  and  C_37
    7  A    between atoms: C_25  and  C_30
    8  A    between atoms: O_27  and  C_38
    9  A    between atoms: O_27  and  C_39
   10  A    between atoms: C_28  and  N_41
   11  A    between atoms: C_30  and  N_41
   12  A    between atoms: C_36  and  C_49
   13  A    between atoms: C_36  and  C_67
   14  A    between atoms: C_39  and  C_57
                            x       y       z     vdW  Elec       q    Type
                         _______ _______ _______ _____ _____    ______ ____

>  <TORSDO>
F 14

$$$$
=
 OpenBabel11072413523D

 67 75  0  0  1  0  0  0  0  0999 V2000
  162.1320  206.8090  149.1700 C   0  0  0  0  0  2  0  0  0  0  0  0
  159.4990  209.5320  145.0520 C   0  0  0  0  0  2  0  0  0  0  0  0
  160.1410  205.2930  150.8170 F   0  0  0  0  0  0  0  0  0  0  0  0
  162.4990  211.9720  149.8910 N   0  0  0  0  0  2  0  0  0  0  0  0
  159.9160  210.9390  145.4620 C   0  0  2  0  0  0  0  0  0  0  0  0
  159.7030  212.1540  148.8000 N   0  0  0  0  0  0  0  0  0  0  0  0
  159.6560  213.3430  149.5060 C   0  0  0  0  0  0  0  0  0  0  0  0
  157.9440  212.7870  145.5660 C   0  0  0  0  0  2  0  0  0  0  0  0
  161.2300  206.5940  152.3370 N   0  0  0  0  0  0  0  0  0  0  0  0
  160.5670  205.1960  147.6290 C   0  0  0  0  0  1  0  0  0  0  0  0
  160.8600  206.3350  151.1310 C   0  0  0  0  0  0  0  0  0  0  0  0
  162.8810  210.5800  149.9690 N   0  0  0  0  0  2  0  0  0  0  0  0
  160.4040  207.4600  146.0130 C   0  0  1  0  0  3  0  0  0  0  0  0
  161.7680  207.1910  146.7000 C   0  0  2  0  0  3  0  0  0  0  0  0
  158.4230  213.0590  146.9530 C   0  0  0  0  0  0  0  0  0  0  0  0
  161.8940  207.8580  152.4090 C   0  0  0  0  0  2  0  0  0  0  0  0
  158.1420  214.2250  147.6580 C   0  0  0  0  0  3  0  0  0  0  0  0
  160.7930  210.8430  151.3290 C   0  0  1  0  0  3  0  0  0  0  0  0
  162.8250  206.9230  145.8230 F   0  0  0  0  0  0  0  0  0  0  0  0
  161.8210  206.1420  147.7540 C   0  0  1  0  0  3  0  0  0  0  0  0
  160.5490  213.4020  150.5600 C   0  0  0  0  0  3  0  0  0  0  0  0
  161.4890  212.2120  150.9760 C   0  0  2  0  0  3  0  0  0  0  0  0
  161.1010  207.3950  150.1610 C   0  0  1  0  0  3  0  0  0  0  0  0
  161.8790  208.3680  151.0150 C   0  0  1  0  0  3  0  0  0  0  0  0
  160.6320  208.7040  145.3560 N   0  0  0  0  0  2  0  0  0  0  0  0
  159.7490  210.9350  146.9180 O   0  0  0  0  0  0  0  0  0  0  0  0
  158.9850  211.9760  144.7330 C   0  0  0  0  0  2  0  0  0  0  0  0
  158.7530  214.4520  149.0670 C   0  0  0  0  0  2  0  0  0  0  0  0
  159.9650  206.4760  145.0220 C   0  0  0  0  0  1  0  0  0  0  0  0
  159.2390  212.0440  147.5710 C   0  0  0  0  0  0  0  0  0  0  0  0
  161.8130  209.9020  150.7010 C   0  0  2  0  0  3  0  0  0  0  0  0
  160.0670  212.4260  153.9930 O   0  0  0  0  0  0  0  0  0  0  0  0
  160.8370  210.5700  152.7540 N   0  0  0  0  0  2  0  0  0  0  0  0
  160.0980  211.1770  153.8220 C   0  0  0  0  0  0  0  0  0  0  0  0
  159.4880  210.3090  154.9840 C   0  0  1  0  0  3  0  0  0  0  0  0
  160.2590  210.4340  156.1530 O   0  0  0  0  0  0  0  0  0  0  0  0
  160.1920  211.7580  156.5860 C   0  0  0  0  0  1  0  0  0  0  0  0
  158.0000  210.6840  155.2360 C   0  0  0  0  0  2  0  0  0  0  0  0
  155.5350  213.0500  155.2480 C   0  0  0  0  0  1  0  0  0  0  0  0
  157.8330  212.0930  155.5390 N   0  0  0  0  0  2  0  0  0  0  0  0
  157.1930  213.0940  153.5740 O   0  0  0  0  0  0  0  0  0  0  0  0
  156.9020  212.8170  154.7580 C   0  0  0  0  0  0  0  0  0  0  0  0
  161.4110  211.2860  145.1530 C   0  0  0  0  0  2  0  0  0  0  0  0
  161.6780  212.4770  144.5010 O   0  0  0  0  0  0  0  0  0  0  0  0
  161.5380  212.1400  143.1180 C   0  0  0  0  0  3  0  0  0  0  0  0
  160.4950  212.4090  141.9150 C   0  0  0  0  0  3  0  0  0  0  0  0
  160.7640  209.7070  139.2260 N   0  0  1  0  0  0  0  0  0  0  0  0
  163.5680  206.7600  139.7970 C   0  0  0  0  0  3  0  0  0  0  0  0
  163.4450  207.9780  140.5380 N   0  0  0  0  0  0  0  0  0  0  0  0
  158.2790  209.6530  138.4170 C   0  0  0  0  0  2  0  0  0  0  0  0
  160.5910  211.8650  140.4150 C   0  0  2  0  0  3  0  0  0  0  0  0
  162.5740  206.3350  139.0270 C   0  0  0  0  0  3  0  0  0  0  0  0
  162.3070  208.6380  140.5790 C   0  0  0  0  0  0  0  0  0  0  0  0
  159.2700  211.8590  139.4970 C   0  0  2  0  0  3  0  0  0  0  0  0
  161.0630  208.3030  139.8290 C   0  0  2  0  0  3  0  0  0  0  0  0
  159.3670  210.3580  138.8640 C   0  0  0  0  0  0  0  0  0  0  0  0
  162.2360  209.9630  141.0100 N   0  0  0  0  0  2  0  0  0  0  0  0
  161.3080  207.1870  138.7580 C   0  0  0  0  0  2  0  0  0  0  0  0
  159.1080  210.3700  137.2720 C   0  0  0  0  0  2  0  0  0  0  0  0
  160.9870  210.3930  140.5050 C   0  0  2  0  0  3  0  0  0  0  0  0
  158.3390  213.1600  139.2580 C   0  0  2  0  0  3  0  0  0  0  0  0
  159.1410  214.4470  139.0760 C   0  0  0  0  0  2  0  0  0  0  0  0
  160.6030  214.0870  139.2170 C   0  0  0  0  0  1  0  0  0  0  0  0
  156.9230  213.0850  139.8610 N   0  0  0  0  0  0  0  0  0  0  0  0
  156.2180  214.3760  139.9300 C   0  0  0  0  0  1  0  0  0  0  0  0
  156.0170  212.1540  139.2240 C   0  0  0  0  0  2  0  0  0  0  0  0
  156.2990  210.7400  139.4270 O   0  0  0  0  0  1  0  0  0  0  0  0
  2 25  1  0  0  0  0
  2  5  1  0  0  0  0
  3 11  1  0  0  0  0
  4 12  1  0  0  0  0
  4 22  1  0  0  0  0
  5 43  1  6  0  0  0
  5 26  1  0  0  0  0
  6  7  1  0  0  0  0
  7 21  2  0  0  0  0
  8 15  1  0  0  0  0
  9 16  1  0  0  0  0
 11  9  2  0  0  0  0
 13 29  1  6  0  0  0
 13 14  1  0  0  0  0
 14 19  1  6  0  0  0
 14 20  1  0  0  0  0
 15 30  1  0  0  0  0
 15 17  2  0  0  0  0
 17 28  1  0  0  0  0
 18 33  1  1  0  0  0
 20 10  1  1  0  0  0
 20  1  1  0  0  0  0
 22 21  1  6  0  0  0
 22 18  1  0  0  0  0
 23  1  1  6  0  0  0
 23 24  1  0  0  0  0
 23 11  1  0  0  0  0
 24 16  1  1  0  0  0
 25 13  1  0  0  0  0
 26 30  1  0  0  0  0
 27  5  1  0  0  0  0
 27  8  1  0  0  0  0
 28  7  1  0  0  0  0
 30  6  2  0  0  0  0
 31 12  1  1  0  0  0
 31 24  1  0  0  0  0
 31 18  1  0  0  0  0
 33 34  1  0  0  0  0
 34 32  2  0  0  0  0
 34 35  1  0  0  0  0
 35 38  1  1  0  0  0
 35 36  1  0  0  0  0
 36 37  1  0  0  0  0
 38 40  1  0  0  0  0
 41 42  2  0  0  0  0
 42 39  1  0  0  0  0
 42 40  1  0  0  0  0
 44 43  1  0  0  0  0
 45 44  1  0  0  0  0
 46 45  2  0  0  0  0
 47 56  1  1  0  0  0
 47 55  1  0  0  0  0
 47 60  1  0  0  0  0
 48 49  1  0  0  0  0
 49 53  2  0  0  0  0
 50 56  1  0  0  0  0
 51 60  1  0  0  0  0
 51 46  1  1  0  0  0
 52 48  2  0  0  0  0
 53 57  1  0  0  0  0
 54 61  1  6  0  0  0
 54 51  1  0  0  0  0
 55 58  1  6  0  0  0
 55 53  1  0  0  0  0
 56 54  1  0  0  0  0
 58 52  1  0  0  0  0
 59 50  1  0  0  0  0
 59 56  1  0  0  0  0
 60 57  1  6  0  0  0
 61 62  1  1  0  0  0
 61 64  1  0  0  0  0
 62 63  1  0  0  0  0
 64 65  1  0  0  0  0
 66 67  1  0  0  0  0
 66 64  1  0  0  0  0
M  END
>  <MODEL>
2

>  <REMARK>
 VINA RESULT:      14.0      4.111      9.526
  Name = 
  14 active torsions:
  status: ('A' for Active; 'I' for Inactive)
    1  A    between atoms: C_3  and  C_30
    2  A    between atoms: C_9  and  C_38
    3  A    between atoms: N_13  and  C_49
    4  A    between atoms: O_17  and  C_36
    5  A    between atoms: C_20  and  C_57
    6  A    between atoms: N_23  and  C_37
    7  A    between atoms: C_25  and  C_30
    8  A    between atoms: O_27  and  C_38
    9  A    between atoms: O_27  and  C_39
   10  A    between atoms: C_28  and  N_41
   11  A    between atoms: C_30  and  N_41
   12  A    between atoms: C_36  and  C_49
   13  A    between atoms: C_36  and  C_67
   14  A    between atoms: C_39  and  C_57
                            x       y       z     vdW  Elec       q    Type
                         _______ _______ _______ _____ _____    ______ ____

>  <TORSDO>
F 14

$$$$
=
 OpenBabel11072413523D

 67 75  0  0  1  0  0  0  0  0999 V2000
  160.4970  207.0360  143.3750 C   0  0  0  0  0  2  0  0  0  0  0  0
  162.7290  208.5680  148.2720 C   0  0  0  0  0  2  0  0  0  0  0  0
  162.6620  206.1280  141.5140 F   0  0  0  0  0  0  0  0  0  0  0  0
  159.8820  212.1730  144.1160 N   0  0  0  0  0  2  0  0  0  0  0  0
  162.2580  210.0170  148.2470 C   0  0  2  0  0  0  0  0  0  0  0  0
  162.5950  212.1410  145.4110 N   0  0  0  0  0  0  0  0  0  0  0  0
  162.6160  213.4830  145.0740 C   0  0  0  0  0  0  0  0  0  0  0  0
  164.1260  211.8900  148.8090 C   0  0  0  0  0  2  0  0  0  0  0  0
  161.5900  207.7670  140.3500 N   0  0  0  0  0  0  0  0  0  0  0  0
  162.0580  205.1100  144.5070 C   0  0  0  0  0  1  0  0  0  0  0  0
  161.9040  207.1880  141.4570 C   0  0  0  0  0  0  0  0  0  0  0  0
  159.5830  210.8470  143.6220 N   0  0  0  0  0  2  0  0  0  0  0  0
  161.9990  206.8240  146.7040 C   0  0  1  0  0  3  0  0  0  0  0  0
  160.6950  206.7110  145.8730 C   0  0  2  0  0  3  0  0  0  0  0  0
  163.7130  212.5290  147.5250 C   0  0  0  0  0  0  0  0  0  0  0  0
  160.8610  208.9730  140.5890 C   0  0  0  0  0  2  0  0  0  0  0  0
  163.9680  213.8570  147.1990 C   0  0  0  0  0  3  0  0  0  0  0  0
  161.7290  211.5650  142.5440 C   0  0  1  0  0  3  0  0  0  0  0  0
  159.6060  206.1650  146.5600 F   0  0  0  0  0  0  0  0  0  0  0  0
  160.7620  206.0050  144.5650 C   0  0  1  0  0  3  0  0  0  0  0  0
  161.7830  213.8060  144.0190 C   0  0  0  0  0  3  0  0  0  0  0  0
  160.9370  212.7490  143.2180 C   0  0  2  0  0  3  0  0  0  0  0  0
  161.5480  207.9180  142.6670 C   0  0  1  0  0  3  0  0  0  0  0  0
  160.7670  209.0650  142.0680 C   0  0  1  0  0  3  0  0  0  0  0  0
  161.6640  207.8200  147.6660 N   0  0  0  0  0  2  0  0  0  0  0  0
  162.5090  210.4340  146.8640 O   0  0  0  0  0  0  0  0  0  0  0  0
  163.0850  210.8370  149.3030 C   0  0  0  0  0  2  0  0  0  0  0  0
  163.4280  214.4530  145.8710 C   0  0  0  0  0  2  0  0  0  0  0  0
  162.4350  205.6150  147.4050 C   0  0  0  0  0  1  0  0  0  0  0  0
  162.9930  211.7020  146.5890 C   0  0  0  0  0  0  0  0  0  0  0  0
  160.7290  210.4470  142.8060 C   0  0  2  0  0  3  0  0  0  0  0  0
  162.6480  213.8190  140.4930 O   0  0  0  0  0  0  0  0  0  0  0  0
  161.7830  211.7090  141.1000 N   0  0  0  0  0  2  0  0  0  0  0  0
  162.5980  212.5740  140.2990 C   0  0  0  0  0  0  0  0  0  0  0  0
  163.2820  212.0560  138.9810 C   0  0  1  0  0  3  0  0  0  0  0  0
  164.6390  211.7660  139.2070 O   0  0  0  0  0  0  0  0  0  0  0  0
  165.4050  212.8110  138.6910 C   0  0  0  0  0  1  0  0  0  0  0  0
  162.5200  210.8270  138.4070 C   0  0  0  0  0  2  0  0  0  0  0  0
  160.4300  213.3220  137.3650 C   0  0  0  0  0  1  0  0  0  0  0  0
  161.7140  211.1720  137.2520 N   0  0  0  0  0  2  0  0  0  0  0  0
  159.5400  211.2310  137.9900 O   0  0  0  0  0  0  0  0  0  0  0  0
  160.5000  211.8580  137.4920 C   0  0  0  0  0  0  0  0  0  0  0  0
  160.7300  210.2050  148.5330 C   0  0  0  0  0  2  0  0  0  0  0  0
  160.3560  211.1950  149.4250 O   0  0  0  0  0  0  0  0  0  0  0  0
  161.2120  210.9740  150.5490 C   0  0  0  0  0  2  0  0  0  0  0  0
  161.0710  210.7220  152.1370 C   0  0  0  0  0  2  0  0  0  0  0  0
  160.5270  207.1230  153.2990 N   0  0  1  0  0  0  0  0  0  0  0  0
  161.1790  204.1420  150.5510 C   0  0  0  0  0  3  0  0  0  0  0  0
  161.0980  205.5460  150.2860 N   0  0  0  0  0  0  0  0  0  0  0  0
  161.1730  207.3790  155.8190 C   0  0  0  0  0  2  0  0  0  0  0  0
  160.2750  209.5400  152.8610 C   0  0  2  0  0  3  0  0  0  0  0  0
  161.3440  203.6970  151.7900 C   0  0  0  0  0  3  0  0  0  0  0  0
  161.3110  206.4310  151.2360 C   0  0  0  0  0  0  0  0  0  0  0  0
  160.2660  209.4690  154.4680 C   0  0  2  0  0  3  0  0  0  0  0  0
  161.5600  206.1400  152.6760 C   0  0  2  0  0  3  0  0  0  0  0  0
  160.5880  207.8840  154.6860 C   0  0  0  0  0  0  0  0  0  0  0  0
  160.9320  207.7670  151.1010 N   0  0  0  0  0  2  0  0  0  0  0  0
  161.3000  204.6340  153.0230 C   0  0  0  0  0  2  0  0  0  0  0  0
  159.5960  207.2250  155.7750 C   0  0  0  0  0  2  0  0  0  0  0  0
  160.9420  208.2340  152.4350 C   0  0  2  0  0  3  0  0  0  0  0  0
  159.8420  210.7080  155.4180 C   0  0  2  0  0  3  0  0  0  0  0  0
  158.7420  211.5790  154.8130 C   0  0  0  0  0  2  0  0  0  0  0  0
  157.5240  210.7000  154.6340 C   0  0  0  0  0  1  0  0  0  0  0  0
  160.9340  211.2140  156.3800 N   0  0  0  0  0  0  0  0  0  0  0  0
  162.2960  211.1980  155.8230 C   0  0  0  0  0  1  0  0  0  0  0  0
  160.7260  212.5380  156.9240 C   0  0  0  0  0  2  0  0  0  0  0  0
  160.1820  213.5320  156.0100 O   0  0  0  0  0  1  0  0  0  0  0  0
  1 20  1  0  0  0  0
  5  2  1  0  0  0  0
  5 43  1  1  0  0  0
  5 27  1  0  0  0  0
  6 30  2  0  0  0  0
  7  6  1  0  0  0  0
  7 28  1  0  0  0  0
  8 27  1  0  0  0  0
  9 16  1  0  0  0  0
  9 11  2  0  0  0  0
 11  3  1  0  0  0  0
 11 23  1  0  0  0  0
 12  4  1  0  0  0  0
 13 29  1  1  0  0  0
 13 25  1  0  0  0  0
 14 19  1  1  0  0  0
 14 13  1  0  0  0  0
 15  8  1  0  0  0  0
 17 15  2  0  0  0  0
 18 33  1  6  0  0  0
 18 31  1  0  0  0  0
 18 22  1  0  0  0  0
 20 10  1  6  0  0  0
 20 14  1  0  0  0  0
 21  7  2  0  0  0  0
 22 21  1  1  0  0  0
 22  4  1  0  0  0  0
 23  1  1  1  0  0  0
 24 16  1  6  0  0  0
 24 23  1  0  0  0  0
 24 31  1  0  0  0  0
 25  2  1  0  0  0  0
 26  5  1  0  0  0  0
 28 17  1  0  0  0  0
 30 26  1  0  0  0  0
 30 15  1  0  0  0  0
 31 12  1  6  0  0  0
 34 32  2  0  0  0  0
 34 33  1  0  0  0  0
 35 38  1  1  0  0  0
 35 36  1  0  0  0  0
 35 34  1  0  0  0  0
 37 36  1  0  0  0  0
 39 42  1  0  0  0  0
 40 42  1  0  0  0  0
 40 38  1  0  0  0  0
 42 41  2  0  0  0  0
 43 44  1  0  0  0  0
 44 45  1  0  0  0  0
 45 46  1  0  0  0  0
 47 56  1  1  0  0  0
 48 52  2  0  0  0  0
 49 48  1  0  0  0  0
 49 53  2  0  0  0  0
 51 46  1  1  0  0  0
 51 54  1  0  0  0  0
 52 58  1  0  0  0  0
 53 55  1  0  0  0  0
 54 56  1  0  0  0  0
 54 61  1  6  0  0  0
 55 58  1  6  0  0  0
 55 47  1  0  0  0  0
 56 59  1  0  0  0  0
 56 50  1  0  0  0  0
 57 53  1  0  0  0  0
 59 50  1  0  0  0  0
 60 57  1  6  0  0  0
 60 51  1  0  0  0  0
 60 47  1  0  0  0  0
 61 62  1  6  0  0  0
 61 64  1  0  0  0  0
 63 62  1  0  0  0  0
 64 66  1  0  0  0  0
 65 64  1  0  0  0  0
 67 66  1  0  0  0  0
M  END
>  <MODEL>
3

>  <REMARK>
 VINA RESULT:      14.2      4.533      9.566
  Name = 
  14 active torsions:
  status: ('A' for Active; 'I' for Inactive)
    1  A    between atoms: C_3  and  C_30
    2  A    between atoms: C_9  and  C_38
    3  A    between atoms: N_13  and  C_49
    4  A    between atoms: O_17  and  C_36
    5  A    between atoms: C_20  and  C_57
    6  A    between atoms: N_23  and  C_37
    7  A    between atoms: C_25  and  C_30
    8  A    between atoms: O_27  and  C_38
    9  A    between atoms: O_27  and  C_39
   10  A    between atoms: C_28  and  N_41
   11  A    between atoms: C_30  and  N_41
   12  A    between atoms: C_36  and  C_49
   13  A    between atoms: C_36  and  C_67
   14  A    between atoms: C_39  and  C_57
                            x       y       z     vdW  Elec       q    Type
                         _______ _______ _______ _____ _____    ______ ____

>  <TORSDO>
F 14

$$$$
=
 OpenBabel11072413523D

 67 75  0  0  1  0  0  0  0  0999 V2000
  160.3780  207.1190  143.3670 C   0  0  0  0  0  2  0  0  0  0  0  0
  162.5840  208.4250  148.3410 C   0  0  0  0  0  2  0  0  0  0  0  0
  162.5600  206.3740  141.4550 F   0  0  0  0  0  0  0  0  0  0  0  0
  159.6360  212.1880  144.4020 N   0  0  0  0  0  2  0  0  0  0  0  0
  162.0770  209.8600  148.4000 C   0  0  2  0  0  0  0  0  0  0  0  0
  162.3530  212.1510  145.6900 N   0  0  0  0  0  0  0  0  0  0  0  0
  162.3390  213.5090  145.4300 C   0  0  0  0  0  0  0  0  0  0  0  0
  163.8980  211.7450  149.0660 C   0  0  0  0  0  2  0  0  0  0  0  0
  161.4450  208.0500  140.3870 N   0  0  0  0  0  0  0  0  0  0  0  0
  161.9910  205.1720  144.3850 C   0  0  0  0  0  1  0  0  0  0  0  0
  161.7760  207.4170  141.4590 C   0  0  0  0  0  0  0  0  0  0  0  0
  159.3690  210.8850  143.8330 N   0  0  0  0  0  2  0  0  0  0  0  0
  161.8950  206.7550  146.6760 C   0  0  1  0  0  3  0  0  0  0  0  0
  160.5910  206.6570  145.8420 C   0  0  2  0  0  3  0  0  0  0  0  0
  163.4660  212.4450  147.8210 C   0  0  0  0  0  0  0  0  0  0  0  0
  160.6860  209.2210  140.6960 C   0  0  0  0  0  2  0  0  0  0  0  0
  163.6870  213.7960  147.5710 C   0  0  0  0  0  3  0  0  0  0  0  0
  161.4930  211.7180  142.7950 C   0  0  1  0  0  3  0  0  0  0  0  0
  159.5180  206.0450  146.4990 F   0  0  0  0  0  0  0  0  0  0  0  0
  160.6730  206.0290  144.4960 C   0  0  1  0  0  3  0  0  0  0  0  0
  161.4950  213.8720  144.3960 C   0  0  0  0  0  3  0  0  0  0  0  0
  160.6740  212.8410  143.5370 C   0  0  2  0  0  3  0  0  0  0  0  0
  161.4050  208.0660  142.7090 C   0  0  1  0  0  3  0  0  0  0  0  0
  160.5940  209.2260  142.1780 C   0  0  1  0  0  3  0  0  0  0  0  0
  161.5370  207.6850  147.6950 N   0  0  0  0  0  2  0  0  0  0  0  0
  162.3130  210.3620  147.0430 O   0  0  0  0  0  0  0  0  0  0  0  0
  162.8860  210.6390  149.5000 C   0  0  0  0  0  2  0  0  0  0  0  0
  163.1280  214.4530  146.2810 C   0  0  0  0  0  2  0  0  0  0  0  0
  162.3620  205.5190  147.3060 C   0  0  0  0  0  1  0  0  0  0  0  0
  162.7640  211.6550  146.8400 C   0  0  0  0  0  0  0  0  0  0  0  0
  160.5230  210.5620  142.9940 C   0  0  2  0  0  3  0  0  0  0  0  0
  162.1960  214.1610  140.8790 O   0  0  0  0  0  0  0  0  0  0  0  0
  161.5390  211.9450  141.3620 N   0  0  0  0  0  2  0  0  0  0  0  0
  162.2700  212.9290  140.6170 C   0  0  0  0  0  0  0  0  0  0  0  0
  163.0070  212.5530  139.2800 C   0  0  1  0  0  3  0  0  0  0  0  0
  162.0930  212.0640  138.3300 O   0  0  0  0  0  0  0  0  0  0  0  0
  162.7970  211.3170  137.3850 C   0  0  0  0  0  1  0  0  0  0  0  0
  163.8120  213.7660  138.7300 C   0  0  0  0  0  2  0  0  0  0  0  0
  166.9490  213.5930  137.3880 C   0  0  0  0  0  1  0  0  0  0  0  0
  165.1930  213.7530  139.1700 N   0  0  0  0  0  2  0  0  0  0  0  0
  166.0510  211.7270  138.5130 O   0  0  0  0  0  0  0  0  0  0  0  0
  166.1040  212.9720  138.4200 C   0  0  0  0  0  0  0  0  0  0  0  0
  160.5460  209.9920  148.6980 C   0  0  0  0  0  2  0  0  0  0  0  0
  160.1580  210.8200  149.7380 O   0  0  0  0  0  0  0  0  0  0  0  0
  161.1580  210.5950  150.7350 C   0  0  0  0  0  2  0  0  0  0  0  0
  161.2410  210.4300  152.3380 C   0  0  0  0  0  2  0  0  0  0  0  0
  160.7070  206.9040  153.7120 N   0  0  1  0  0  0  0  0  0  0  0  0
  160.6980  203.8140  151.0070 C   0  0  0  0  0  3  0  0  0  0  0  0
  160.6500  205.2130  150.7070 N   0  0  0  0  0  0  0  0  0  0  0  0
  161.8000  207.1880  156.0700 C   0  0  0  0  0  2  0  0  0  0  0  0
  160.5190  209.3190  153.2330 C   0  0  2  0  0  3  0  0  0  0  0  0
  161.0520  203.3940  152.2140 C   0  0  0  0  0  3  0  0  0  0  0  0
  161.0770  206.1090  151.5710 C   0  0  0  0  0  0  0  0  0  0  0  0
  160.7890  209.2920  154.8200 C   0  0  2  0  0  3  0  0  0  0  0  0
  161.5580  205.8420  152.9570 C   0  0  2  0  0  3  0  0  0  0  0  0
  161.0540  207.6970  155.0380 C   0  0  0  0  0  0  0  0  0  0  0  0
  160.7550  207.4620  151.4540 N   0  0  0  0  0  2  0  0  0  0  0  0
  161.2780  204.3660  153.3990 C   0  0  0  0  0  2  0  0  0  0  0  0
  160.2330  207.1310  156.3060 C   0  0  0  0  0  2  0  0  0  0  0  0
  161.0260  207.9640  152.7470 C   0  0  2  0  0  3  0  0  0  0  0  0
  160.6090  210.5810  155.7810 C   0  0  2  0  0  3  0  0  0  0  0  0
  161.3060  210.4250  157.1310 C   0  0  0  0  0  2  0  0  0  0  0  0
  162.7950  210.4820  156.8740 C   0  0  0  0  0  1  0  0  0  0  0  0
  159.3390  211.4200  155.5400 N   0  0  0  0  0  0  0  0  0  0  0  0
  158.4700  211.5680  156.7190 C   0  0  0  0  0  1  0  0  0  0  0  0
  159.5550  212.7510  155.0160 C   0  0  0  0  0  2  0  0  0  0  0  0
  158.9870  213.8470  155.7890 O   0  0  0  0  0  1  0  0  0  0  0  0
  1 20  1  0  0  0  0
  2  5  1  0  0  0  0
  3 11  1  0  0  0  0
  5 43  1  1  0  0  0
  5 27  1  0  0  0  0
  6 30  2  0  0  0  0
  7  6  1  0  0  0  0
  7 28  1  0  0  0  0
  8 27  1  0  0  0  0
  9 16  1  0  0  0  0
  9 11  2  0  0  0  0
 11 23  1  0  0  0  0
 12  4  1  0  0  0  0
 13 29  1  1  0  0  0
 13 25  1  0  0  0  0
 14 19  1  1  0  0  0
 14 13  1  0  0  0  0
 15  8  1  0  0  0  0
 17 15  2  0  0  0  0
 18 33  1  6  0  0  0
 18 31  1  0  0  0  0
 18 22  1  0  0  0  0
 20 10  1  6  0  0  0
 20 14  1  0  0  0  0
 21  7  2  0  0  0  0
 22 21  1  1  0  0  0
 22  4  1  0  0  0  0
 23  1  1  1  0  0  0
 24 16  1  6  0  0  0
 24 23  1  0  0  0  0
 24 31  1  0  0  0  0
 25  2  1  0  0  0  0
 26  5  1  0  0  0  0
 28 17  1  0  0  0  0
 30 26  1  0  0  0  0
 30 15  1  0  0  0  0
 31 12  1  6  0  0  0
 34 32  2  0  0  0  0
 34 33  1  0  0  0  0
 35 38  1  6  0  0  0
 35 34  1  0  0  0  0
 36 35  1  0  0  0  0
 37 36  1  0  0  0  0
 38 40  1  0  0  0  0
 39 42  1  0  0  0  0
 42 41  2  0  0  0  0
 42 40  1  0  0  0  0
 43 44  1  0  0  0  0
 44 45  1  0  0  0  0
 45 46  1  0  0  0  0
 47 56  1  1  0  0  0
 48 52  2  0  0  0  0
 49 48  1  0  0  0  0
 49 53  2  0  0  0  0
 50 59  1  0  0  0  0
 51 46  1  6  0  0  0
 51 54  1  0  0  0  0
 52 58  1  0  0  0  0
 53 55  1  0  0  0  0
 54 56  1  0  0  0  0
 54 61  1  1  0  0  0
 55 58  1  1  0  0  0
 55 47  1  0  0  0  0
 56 50  1  0  0  0  0
 56 59  1  0  0  0  0
 57 53  1  0  0  0  0
 60 57  1  6  0  0  0
 60 51  1  0  0  0  0
 60 47  1  0  0  0  0
 61 62  1  1  0  0  0
 63 62  1  0  0  0  0
 64 61  1  0  0  0  0
 64 65  1  0  0  0  0
 66 64  1  0  0  0  0
 66 67  1  0  0  0  0
M  END
>  <MODEL>
4

>  <REMARK>
 VINA RESULT:      15.7      4.674      9.648
  Name = 
  14 active torsions:
  status: ('A' for Active; 'I' for Inactive)
    1  A    between atoms: C_3  and  C_30
    2  A    between atoms: C_9  and  C_38
    3  A    between atoms: N_13  and  C_49
    4  A    between atoms: O_17  and  C_36
    5  A    between atoms: C_20  and  C_57
    6  A    between atoms: N_23  and  C_37
    7  A    between atoms: C_25  and  C_30
    8  A    between atoms: O_27  and  C_38
    9  A    between atoms: O_27  and  C_39
   10  A    between atoms: C_28  and  N_41
   11  A    between atoms: C_30  and  N_41
   12  A    between atoms: C_36  and  C_49
   13  A    between atoms: C_36  and  C_67
   14  A    between atoms: C_39  and  C_57
                            x       y       z     vdW  Elec       q    Type
                         _______ _______ _______ _____ _____    ______ ____

>  <TORSDO>
F 14

$$$$
