=
 OpenBabel11072411283D

 35 37  0  0  1  0  0  0  0  0999 V2000
  161.4910  207.0260  151.9600 C   0  0  0  0  0  0  0  0  0  0  0  0
  162.2760  206.6310  150.7570 C   0  0  0  0  0  2  0  0  0  0  0  0
  162.4670  207.9650  150.0170 C   0  0  2  0  0  3  0  0  0  0  0  0
  161.3190  208.3360  151.9720 C   0  0  0  0  0  0  0  0  0  0  0  0
  161.8520  208.9330  150.8510 O   0  0  0  0  0  0  0  0  0  0  0  0
  161.7970  207.9490  148.6460 C   0  0  0  0  0  0  0  0  0  0  0  0
  162.6130  207.3350  147.7110 F   0  0  0  0  0  0  0  0  0  0  0  0
  161.5320  209.2420  148.2370 F   0  0  0  0  0  0  0  0  0  0  0  0
  160.6040  207.2530  148.7360 F   0  0  0  0  0  0  0  0  0  0  0  0
  161.1280  204.7430  152.9110 C   0  0  0  0  0  3  0  0  0  0  0  0
  161.1260  206.0740  153.0220 C   0  0  0  0  0  3  0  0  0  0  0  0
  161.5860  204.0100  151.6990 C   0  0  0  0  0  2  0  0  0  0  0  0
  160.4760  203.6010  150.9550 O   0  0  0  0  0  0  0  0  0  0  0  0
  160.8650  202.4300  150.2790 C   0  0  2  0  0  0  0  0  0  0  0  0
  159.9480  201.9640  149.1670 C   0  0  0  0  0  2  0  0  0  0  0  0
  161.5560  201.4490  150.9720 F   0  0  0  0  0  0  0  0  0  0  0  0
  161.2920  202.6070  148.8300 C   0  0  1  0  0  3  0  0  0  0  0  0
  161.0460  204.0200  148.3100 C   0  0  0  0  0  2  0  0  0  0  0  0
  162.9650  204.4930  146.9770 F   0  0  0  0  0  0  0  0  0  0  0  0
  161.6150  204.1970  146.9090 C   0  0  0  0  0  0  0  0  0  0  0  0
  161.4310  203.0380  146.1800 F   0  0  0  0  0  0  0  0  0  0  0  0
  160.9550  205.2360  146.2790 F   0  0  0  0  0  0  0  0  0  0  0  0
  160.6970  209.0740  153.0260 N   0  0  0  0  0  2  0  0  0  0  0  0
  161.4710  209.8840  153.9500 C   0  0  0  0  0  2  0  0  0  0  0  0
  160.8090  209.9080  155.3250 C   0  0  2  0  0  3  0  0  0  0  0  0
  161.9360  208.1230  156.4580 O   0  0  0  0  0  1  0  0  0  0  0  0
  160.8630  208.5570  155.9610 C   0  0  0  0  0  0  0  0  0  0  0  0
  159.7100  207.7880  156.0300 O   0  0  0  0  0  0  0  0  0  0  0  0
  159.3710  210.3900  155.2140 C   0  0  0  0  0  2  0  0  0  0  0  0
  160.4670  212.3020  156.0990 O   0  0  0  0  0  1  0  0  0  0  0  0
  159.2680  211.8740  155.5250 C   0  0  1  0  0  3  0  0  0  0  0  0
  157.5690  212.8220  154.0490 N   0  0  0  0  0  2  0  0  0  0  0  0
  159.0130  212.6590  154.2490 C   0  0  2  0  0  3  0  0  0  0  0  0
  158.5520  212.3050  151.9910 O   0  0  0  0  0  1  0  0  0  0  0  0
  158.3160  211.8210  153.2780 C   0  0  2  0  0  3  0  0  0  0  0  0
  1  4  2  0  0  0  0
  1 11  1  0  0  0  0
  2  1  1  0  0  0  0
  3  6  1  6  0  0  0
  3  2  1  0  0  0  0
  3  5  1  0  0  0  0
  4 23  1  0  0  0  0
  5  4  1  0  0  0  0
  6  9  1  0  0  0  0
  7  6  1  0  0  0  0
  8  6  1  0  0  0  0
 10 11  2  0  0  0  0
 12 10  1  0  0  0  0
 13 12  1  0  0  0  0
 14 13  1  0  0  0  0
 14 16  1  1  0  0  0
 15 14  1  0  0  0  0
 17 18  1  6  0  0  0
 17 15  1  0  0  0  0
 17 14  1  0  0  0  0
 20 19  1  0  0  0  0
 20 18  1  0  0  0  0
 21 20  1  0  0  0  0
 22 20  1  0  0  0  0
 23 24  1  0  0  0  0
 25 24  1  6  0  0  0
 25 27  1  0  0  0  0
 27 28  2  0  0  0  0
 27 26  1  0  0  0  0
 29 25  1  0  0  0  0
 29 31  1  0  0  0  0
 31 30  1  6  0  0  0
 32 33  1  0  0  0  0
 33 31  1  1  0  0  0
 35 34  1  6  0  0  0
 35 32  1  0  0  0  0
 35 33  1  0  0  0  0
M  END
>  <MODEL>
1

>  <REMARK>
 VINA RESULT:      -7.8      0.000      0.000
  Name = 
  14 active torsions:
  status: ('A' for Active; 'I' for Inactive)
    1  A    between atoms: C_1  and  O_3
    2  A    between atoms: O_3  and  C_18
    3  A    between atoms: C_4  and  C_18
    4  A    between atoms: C_5  and  C_11
    5  A    between atoms: C_9  and  C_34
    6  A    between atoms: C_12  and  C_28
    7  A    between atoms: C_12  and  C_34
    8  A    between atoms: C_13  and  C_23
    9  A    between atoms: C_19  and  C_21
   10  A    between atoms: C_19  and  C_31
   11  A    between atoms: C_22  and  N_27
   12  A    between atoms: C_22  and  C_28
   13  A    between atoms: C_25  and  C_28
   14  A    between atoms: C_26  and  N_27
                            x       y       z     vdW  Elec       q    Type
                         _______ _______ _______ _____ _____    ______ ____

>  <TORSDO>
F 14

$$$$
=
 OpenBabel11072411283D

 35 37  0  0  1  0  0  0  0  0999 V2000
  161.2400  205.4170  150.5910 C   0  0  0  0  0  0  0  0  0  0  0  0
  160.5610  204.3590  149.7910 C   0  0  0  0  0  2  0  0  0  0  0  0
  160.2970  203.2570  150.8290 C   0  0  2  0  0  3  0  0  0  0  0  0
  161.2960  205.0510  151.8590 C   0  0  0  0  0  0  0  0  0  0  0  0
  160.7770  203.7900  152.0530 O   0  0  0  0  0  0  0  0  0  0  0  0
  161.0430  201.9700  150.4870 C   0  0  0  0  0  0  0  0  0  0  0  0
  160.1670  200.8990  150.4310 F   0  0  0  0  0  0  0  0  0  0  0  0
  162.0080  201.7170  151.4420 F   0  0  0  0  0  0  0  0  0  0  0  0
  161.6570  202.1190  149.2560 F   0  0  0  0  0  0  0  0  0  0  0  0
  161.4300  207.1120  148.7640 C   0  0  0  0  0  3  0  0  0  0  0  0
  161.6250  206.7200  150.0250 C   0  0  0  0  0  3  0  0  0  0  0  0
  160.7060  206.3050  147.7450 C   0  0  0  0  0  2  0  0  0  0  0  0
  161.6290  205.7240  146.8700 O   0  0  0  0  0  0  0  0  0  0  0  0
  160.9690  205.5890  145.6350 C   0  0  2  0  0  0  0  0  0  0  0  0
  161.8020  205.0580  144.4860 C   0  0  0  0  0  2  0  0  0  0  0  0
  159.9520  206.4730  145.3130 F   0  0  0  0  0  0  0  0  0  0  0  0
  160.7540  204.1640  145.1460 C   0  0  1  0  0  3  0  0  0  0  0  0
  161.4630  203.1290  146.0130 C   0  0  0  0  0  2  0  0  0  0  0  0
  161.4700  200.7610  146.2850 F   0  0  0  0  0  0  0  0  0  0  0  0
  160.6370  201.8550  146.1350 C   0  0  0  0  0  0  0  0  0  0  0  0
  159.7940  201.9470  147.2270 F   0  0  0  0  0  0  0  0  0  0  0  0
  159.8790  201.6940  144.9910 F   0  0  0  0  0  0  0  0  0  0  0  0
  161.7900  205.8620  152.9280 N   0  0  0  0  0  2  0  0  0  0  0  0
  160.8950  206.5870  153.8130 C   0  0  0  0  0  2  0  0  0  0  0  0
  161.3430  208.0390  153.9540 C   0  0  2  0  0  3  0  0  0  0  0  0
  159.7900  208.6410  155.6770 O   0  0  0  0  0  0  0  0  0  0  0  0
  160.9920  208.5700  155.3060 C   0  0  0  0  0  0  0  0  0  0  0  0
  162.0040  208.9600  156.1710 O   0  0  0  0  0  1  0  0  0  0  0  0
  160.7190  208.8970  152.8640 C   0  0  0  0  0  2  0  0  0  0  0  0
  162.2660  209.9340  151.3920 O   0  0  0  0  0  1  0  0  0  0  0  0
  161.5670  210.1270  152.5850 C   0  0  1  0  0  3  0  0  0  0  0  0
  160.2060  211.7620  153.7840 N   0  0  0  0  0  2  0  0  0  0  0  0
  160.6810  211.3540  152.4580 C   0  0  2  0  0  3  0  0  0  0  0  0
  158.4280  211.9260  152.2740 O   0  0  0  0  0  1  0  0  0  0  0  0
  159.3190  211.0330  152.8700 C   0  0  2  0  0  3  0  0  0  0  0  0
  1  4  2  0  0  0  0
  2  1  1  0  0  0  0
  2  3  1  0  0  0  0
  3  6  1  6  0  0  0
  3  5  1  0  0  0  0
  4  5  1  0  0  0  0
  4 23  1  0  0  0  0
  6  8  1  0  0  0  0
  7  6  1  0  0  0  0
  9  6  1  0  0  0  0
 10 11  2  0  0  0  0
 11  1  1  0  0  0  0
 12 10  1  0  0  0  0
 13 12  1  0  0  0  0
 14 16  1  6  0  0  0
 14 13  1  0  0  0  0
 15 17  1  0  0  0  0
 15 14  1  0  0  0  0
 17 14  1  0  0  0  0
 17 18  1  1  0  0  0
 18 20  1  0  0  0  0
 20 19  1  0  0  0  0
 20 21  1  0  0  0  0
 22 20  1  0  0  0  0
 23 24  1  0  0  0  0
 24 25  1  0  0  0  0
 25 29  1  6  0  0  0
 25 27  1  0  0  0  0
 27 26  2  0  0  0  0
 27 28  1  0  0  0  0
 31 30  1  6  0  0  0
 31 29  1  0  0  0  0
 33 31  1  1  0  0  0
 33 35  1  0  0  0  0
 33 32  1  0  0  0  0
 35 34  1  6  0  0  0
 35 32  1  0  0  0  0
M  END
>  <MODEL>
2

>  <REMARK>
 VINA RESULT:      -7.8      2.063      4.330
  Name = 
  14 active torsions:
  status: ('A' for Active; 'I' for Inactive)
    1  A    between atoms: C_1  and  O_3
    2  A    between atoms: O_3  and  C_18
    3  A    between atoms: C_4  and  C_18
    4  A    between atoms: C_5  and  C_11
    5  A    between atoms: C_9  and  C_34
    6  A    between atoms: C_12  and  C_28
    7  A    between atoms: C_12  and  C_34
    8  A    between atoms: C_13  and  C_23
    9  A    between atoms: C_19  and  C_21
   10  A    between atoms: C_19  and  C_31
   11  A    between atoms: C_22  and  N_27
   12  A    between atoms: C_22  and  C_28
   13  A    between atoms: C_25  and  C_28
   14  A    between atoms: C_26  and  N_27
                            x       y       z     vdW  Elec       q    Type
                         _______ _______ _______ _____ _____    ______ ____

>  <TORSDO>
F 14

$$$$
=
 OpenBabel11072411283D

 35 37  0  0  1  0  0  0  0  0999 V2000
  161.2410  207.1020  150.3140 C   0  0  0  0  0  0  0  0  0  0  0  0
  160.6210  205.7790  150.0200 C   0  0  0  0  0  2  0  0  0  0  0  0
  160.4080  205.1790  151.4190 C   0  0  2  0  0  3  0  0  0  0  0  0
  161.3100  207.2820  151.6210 C   0  0  0  0  0  0  0  0  0  0  0  0
  160.8550  206.1830  152.3160 O   0  0  0  0  0  0  0  0  0  0  0  0
  161.2200  203.9010  151.6130 C   0  0  0  0  0  0  0  0  0  0  0  0
  161.0760  203.0620  150.5210 F   0  0  0  0  0  0  0  0  0  0  0  0
  160.7970  203.2420  152.7510 F   0  0  0  0  0  0  0  0  0  0  0  0
  162.5560  204.2340  151.7570 F   0  0  0  0  0  0  0  0  0  0  0  0
  162.0630  207.8010  148.0600 C   0  0  0  0  0  3  0  0  0  0  0  0
  161.5630  208.0830  149.2650 C   0  0  0  0  0  3  0  0  0  0  0  0
  162.2980  206.4190  147.5590 C   0  0  0  0  0  2  0  0  0  0  0  0
  161.1810  205.9880  146.8380 O   0  0  0  0  0  0  0  0  0  0  0  0
  161.6760  205.2260  145.7650 C   0  0  2  0  0  0  0  0  0  0  0  0
  163.0050  204.5350  145.9910 C   0  0  0  0  0  2  0  0  0  0  0  0
  161.3900  205.6230  144.4680 F   0  0  0  0  0  0  0  0  0  0  0  0
  161.7130  203.7210  145.9760 C   0  0  1  0  0  3  0  0  0  0  0  0
  161.3680  203.3170  147.4060 C   0  0  0  0  0  2  0  0  0  0  0  0
  161.8290  201.0680  148.0480 F   0  0  0  0  0  0  0  0  0  0  0  0
  160.8710  201.8790  147.4670 C   0  0  0  0  0  0  0  0  0  0  0  0
  159.7050  201.8180  148.2070 F   0  0  0  0  0  0  0  0  0  0  0  0
  160.6160  201.4310  146.1850 F   0  0  0  0  0  0  0  0  0  0  0  0
  161.7580  208.4780  152.2640 N   0  0  0  0  0  2  0  0  0  0  0  0
  160.8300  209.5190  152.6710 C   0  0  0  0  0  2  0  0  0  0  0  0
  161.3050  210.1860  153.9600 C   0  0  2  0  0  3  0  0  0  0  0  0
  160.0840  208.5520  155.2150 O   0  0  0  0  0  0  0  0  0  0  0  0
  161.1120  209.2740  155.1270 C   0  0  0  0  0  0  0  0  0  0  0  0
  162.0910  209.2020  156.1080 O   0  0  0  0  0  1  0  0  0  0  0  0
  160.5720  211.5000  154.1800 C   0  0  0  0  0  2  0  0  0  0  0  0
  158.2090  211.3100  154.0540 O   0  0  0  0  0  1  0  0  0  0  0  0
  159.3430  211.5950  153.2910 C   0  0  1  0  0  3  0  0  0  0  0  0
  158.2660  212.9890  151.6010 N   0  0  0  0  0  2  0  0  0  0  0  0
  159.2230  212.9940  152.7130 C   0  0  2  0  0  3  0  0  0  0  0  0
  160.1030  214.3040  150.9960 O   0  0  0  0  0  1  0  0  0  0  0  0
  159.7100  213.0100  151.3370 C   0  0  2  0  0  3  0  0  0  0  0  0
  1  4  2  0  0  0  0
  2  1  1  0  0  0  0
  2  3  1  0  0  0  0
  3  6  1  6  0  0  0
  3  5  1  0  0  0  0
  4 23  1  0  0  0  0
  4  5  1  0  0  0  0
  6  9  1  0  0  0  0
  6  8  1  0  0  0  0
  7  6  1  0  0  0  0
 10 11  2  0  0  0  0
 11  1  1  0  0  0  0
 12 10  1  0  0  0  0
 13 12  1  0  0  0  0
 14 16  1  6  0  0  0
 14 17  1  0  0  0  0
 14 15  1  0  0  0  0
 14 13  1  0  0  0  0
 17 15  1  0  0  0  0
 17 18  1  1  0  0  0
 18 20  1  0  0  0  0
 20 19  1  0  0  0  0
 20 21  1  0  0  0  0
 22 20  1  0  0  0  0
 23 24  1  0  0  0  0
 25 24  1  6  0  0  0
 25 29  1  0  0  0  0
 25 27  1  0  0  0  0
 27 26  2  0  0  0  0
 27 28  1  0  0  0  0
 31 30  1  1  0  0  0
 31 29  1  0  0  0  0
 32 33  1  0  0  0  0
 33 31  1  6  0  0  0
 35 34  1  1  0  0  0
 35 32  1  0  0  0  0
 35 33  1  0  0  0  0
M  END
>  <MODEL>
3

>  <REMARK>
 VINA RESULT:      -7.4      2.176      3.767
  Name = 
  14 active torsions:
  status: ('A' for Active; 'I' for Inactive)
    1  A    between atoms: C_1  and  O_3
    2  A    between atoms: O_3  and  C_18
    3  A    between atoms: C_4  and  C_18
    4  A    between atoms: C_5  and  C_11
    5  A    between atoms: C_9  and  C_34
    6  A    between atoms: C_12  and  C_28
    7  A    between atoms: C_12  and  C_34
    8  A    between atoms: C_13  and  C_23
    9  A    between atoms: C_19  and  C_21
   10  A    between atoms: C_19  and  C_31
   11  A    between atoms: C_22  and  N_27
   12  A    between atoms: C_22  and  C_28
   13  A    between atoms: C_25  and  C_28
   14  A    between atoms: C_26  and  N_27
                            x       y       z     vdW  Elec       q    Type
                         _______ _______ _______ _____ _____    ______ ____

>  <TORSDO>
F 14

$$$$
=
 OpenBabel11072411283D

 35 37  0  0  1  0  0  0  0  0999 V2000
  161.2490  207.0310  150.2930 C   0  0  0  0  0  0  0  0  0  0  0  0
  160.6620  205.6910  150.0130 C   0  0  0  0  0  2  0  0  0  0  0  0
  160.4360  205.1120  151.4190 C   0  0  2  0  0  3  0  0  0  0  0  0
  161.2910  207.2370  151.5980 C   0  0  0  0  0  0  0  0  0  0  0  0
  160.8460  206.1410  152.3050 O   0  0  0  0  0  0  0  0  0  0  0  0
  161.2710  203.8550  151.6510 C   0  0  0  0  0  0  0  0  0  0  0  0
  160.8410  203.1870  152.7850 F   0  0  0  0  0  0  0  0  0  0  0  0
  162.6010  204.1940  151.8000 F   0  0  0  0  0  0  0  0  0  0  0  0
  161.1410  203.0200  150.5540 F   0  0  0  0  0  0  0  0  0  0  0  0
  162.0360  207.7000  148.0180 C   0  0  0  0  0  3  0  0  0  0  0  0
  161.5680  208.0000  149.2320 C   0  0  0  0  0  3  0  0  0  0  0  0
  162.2300  206.3120  147.5200 C   0  0  0  0  0  2  0  0  0  0  0  0
  161.0390  205.8480  146.9550 O   0  0  0  0  0  0  0  0  0  0  0  0
  161.4040  205.1300  145.8020 C   0  0  2  0  0  0  0  0  0  0  0  0
  162.7870  204.5130  145.8080 C   0  0  0  0  0  2  0  0  0  0  0  0
  160.9020  205.5280  144.5730 F   0  0  0  0  0  0  0  0  0  0  0  0
  161.5540  203.6260  145.9710 C   0  0  1  0  0  3  0  0  0  0  0  0
  161.4540  203.1830  147.4270 C   0  0  0  0  0  2  0  0  0  0  0  0
  160.6570  201.2550  146.2750 F   0  0  0  0  0  0  0  0  0  0  0  0
  160.8870  201.7740  147.5360 C   0  0  0  0  0  0  0  0  0  0  0  0
  161.7780  200.9630  148.2150 F   0  0  0  0  0  0  0  0  0  0  0  0
  159.6940  201.8160  148.2330 F   0  0  0  0  0  0  0  0  0  0  0  0
  161.7020  208.4540  152.2260 N   0  0  0  0  0  2  0  0  0  0  0  0
  160.9190  209.6720  152.1150 C   0  0  0  0  0  2  0  0  0  0  0  0
  160.5780  210.2160  153.5000 C   0  0  2  0  0  3  0  0  0  0  0  0
  158.8450  211.5350  152.5020 O   0  0  0  0  0  0  0  0  0  0  0  0
  159.7320  211.4420  153.3910 C   0  0  0  0  0  0  0  0  0  0  0  0
  159.9060  212.4760  154.3010 O   0  0  0  0  0  1  0  0  0  0  0  0
  161.8470  210.5100  154.2850 C   0  0  0  0  0  2  0  0  0  0  0  0
  161.8800  210.9200  156.6230 O   0  0  0  0  0  1  0  0  0  0  0  0
  161.7830  209.8990  155.6750 C   0  0  1  0  0  3  0  0  0  0  0  0
  160.3340  208.7350  157.2580 N   0  0  0  0  0  2  0  0  0  0  0  0
  160.4680  209.1620  155.8620 C   0  0  2  0  0  3  0  0  0  0  0  0
  159.6190  206.9900  155.8760 O   0  0  0  0  0  1  0  0  0  0  0  0
  160.7220  207.7710  156.2230 C   0  0  2  0  0  3  0  0  0  0  0  0
  1  4  2  0  0  0  0
  2  1  1  0  0  0  0
  2  3  1  0  0  0  0
  3  6  1  6  0  0  0
  3  5  1  0  0  0  0
  4 23  1  0  0  0  0
  4  5  1  0  0  0  0
  6  8  1  0  0  0  0
  6  7  1  0  0  0  0
  9  6  1  0  0  0  0
 10 11  2  0  0  0  0
 11  1  1  0  0  0  0
 12 10  1  0  0  0  0
 13 12  1  0  0  0  0
 14 16  1  6  0  0  0
 14 15  1  0  0  0  0
 14 17  1  0  0  0  0
 14 13  1  0  0  0  0
 15 17  1  0  0  0  0
 17 18  1  1  0  0  0
 18 20  1  0  0  0  0
 19 20  1  0  0  0  0
 20 21  1  0  0  0  0
 20 22  1  0  0  0  0
 24 23  1  0  0  0  0
 25 24  1  6  0  0  0
 25 29  1  0  0  0  0
 26 27  2  0  0  0  0
 27 25  1  0  0  0  0
 27 28  1  0  0  0  0
 29 31  1  0  0  0  0
 31 30  1  1  0  0  0
 33 31  1  1  0  0  0
 33 35  1  0  0  0  0
 33 32  1  0  0  0  0
 35 34  1  6  0  0  0
 35 32  1  0  0  0  0
M  END
>  <MODEL>
4

>  <REMARK>
 VINA RESULT:      -7.3      2.340      4.374
  Name = 
  14 active torsions:
  status: ('A' for Active; 'I' for Inactive)
    1  A    between atoms: C_1  and  O_3
    2  A    between atoms: O_3  and  C_18
    3  A    between atoms: C_4  and  C_18
    4  A    between atoms: C_5  and  C_11
    5  A    between atoms: C_9  and  C_34
    6  A    between atoms: C_12  and  C_28
    7  A    between atoms: C_12  and  C_34
    8  A    between atoms: C_13  and  C_23
    9  A    between atoms: C_19  and  C_21
   10  A    between atoms: C_19  and  C_31
   11  A    between atoms: C_22  and  N_27
   12  A    between atoms: C_22  and  C_28
   13  A    between atoms: C_25  and  C_28
   14  A    between atoms: C_26  and  N_27
                            x       y       z     vdW  Elec       q    Type
                         _______ _______ _______ _____ _____    ______ ____

>  <TORSDO>
F 14

$$$$
=
 OpenBabel11072411283D

 35 37  0  0  1  0  0  0  0  0999 V2000
  160.9410  206.2080  150.3340 C   0  0  0  0  0  0  0  0  0  0  0  0
  160.2670  204.9590  149.8800 C   0  0  0  0  0  2  0  0  0  0  0  0
  160.3730  204.0430  151.1100 C   0  0  2  0  0  3  0  0  0  0  0  0
  161.3030  206.0860  151.5990 C   0  0  0  0  0  0  0  0  0  0  0  0
  161.0120  204.8340  152.0970 O   0  0  0  0  0  0  0  0  0  0  0  0
  161.2030  202.7970  150.8140 C   0  0  0  0  0  0  0  0  0  0  0  0
  161.9860  202.4620  151.9060 F   0  0  0  0  0  0  0  0  0  0  0  0
  162.0200  203.0240  149.7230 F   0  0  0  0  0  0  0  0  0  0  0  0
  160.3510  201.7450  150.5260 F   0  0  0  0  0  0  0  0  0  0  0  0
  161.5280  207.4860  148.2690 C   0  0  0  0  0  3  0  0  0  0  0  0
  161.0210  207.4190  149.5020 C   0  0  0  0  0  3  0  0  0  0  0  0
  162.0240  206.3070  147.5070 C   0  0  0  0  0  2  0  0  0  0  0  0
  161.0040  205.8240  146.6820 O   0  0  0  0  0  0  0  0  0  0  0  0
  161.6410  205.2130  145.5870 C   0  0  2  0  0  0  0  0  0  0  0  0
  163.0090  204.6190  145.8540 C   0  0  0  0  0  2  0  0  0  0  0  0
  161.4130  205.7070  144.3120 F   0  0  0  0  0  0  0  0  0  0  0  0
  161.8020  203.7020  145.6650 C   0  0  1  0  0  3  0  0  0  0  0  0
  161.3960  203.1350  147.0220 C   0  0  0  0  0  2  0  0  0  0  0  0
  159.6300  201.6700  147.6690 F   0  0  0  0  0  0  0  0  0  0  0  0
  160.7590  201.7590  146.8750 C   0  0  0  0  0  0  0  0  0  0  0  0
  160.4140  201.5430  145.5540 F   0  0  0  0  0  0  0  0  0  0  0  0
  161.6670  200.7950  147.2690 F   0  0  0  0  0  0  0  0  0  0  0  0
  161.8870  207.1230  152.3910 N   0  0  0  0  0  2  0  0  0  0  0  0
  161.1040  207.8850  153.3480 C   0  0  0  0  0  2  0  0  0  0  0  0
  160.7510  209.2570  152.7790 C   0  0  2  0  0  3  0  0  0  0  0  0
  162.0960  210.2190  151.0450 O   0  0  0  0  0  0  0  0  0  0  0  0
  161.9740  209.9470  152.2690 C   0  0  0  0  0  0  0  0  0  0  0  0
  162.9710  210.3180  153.1600 O   0  0  0  0  0  1  0  0  0  0  0  0
  160.0570  210.1070  153.8320 C   0  0  0  0  0  2  0  0  0  0  0  0
  158.6300  211.4320  152.4730 O   0  0  0  0  0  1  0  0  0  0  0  0
  159.7550  211.4970  153.2980 C   0  0  1  0  0  3  0  0  0  0  0  0
  160.3470  212.1170  155.5840 N   0  0  0  0  0  2  0  0  0  0  0  0
  159.4820  212.4510  154.4480 C   0  0  2  0  0  3  0  0  0  0  0  0
  158.2050  212.5910  156.3940 O   0  0  0  0  0  1  0  0  0  0  0  0
  158.9340  211.7190  155.5850 C   0  0  2  0  0  3  0  0  0  0  0  0
  1  4  2  0  0  0  0
  2  1  1  0  0  0  0
  2  3  1  0  0  0  0
  3  6  1  6  0  0  0
  3  5  1  0  0  0  0
  4  5  1  0  0  0  0
  4 23  1  0  0  0  0
  6  7  1  0  0  0  0
  8  6  1  0  0  0  0
  9  6  1  0  0  0  0
 10 11  2  0  0  0  0
 11  1  1  0  0  0  0
 12 10  1  0  0  0  0
 13 12  1  0  0  0  0
 14 16  1  6  0  0  0
 14 17  1  0  0  0  0
 14 15  1  0  0  0  0
 14 13  1  0  0  0  0
 17 15  1  0  0  0  0
 17 18  1  1  0  0  0
 20 18  1  0  0  0  0
 20 22  1  0  0  0  0
 20 19  1  0  0  0  0
 21 20  1  0  0  0  0
 23 24  1  0  0  0  0
 25 24  1  1  0  0  0
 25 29  1  0  0  0  0
 26 27  2  0  0  0  0
 27 25  1  0  0  0  0
 27 28  1  0  0  0  0
 31 30  1  6  0  0  0
 31 29  1  0  0  0  0
 32 35  1  0  0  0  0
 33 31  1  6  0  0  0
 33 32  1  0  0  0  0
 33 35  1  0  0  0  0
 35 34  1  1  0  0  0
M  END
>  <MODEL>
5

>  <REMARK>
 VINA RESULT:      -7.2      2.386      4.256
  Name = 
  14 active torsions:
  status: ('A' for Active; 'I' for Inactive)
    1  A    between atoms: C_1  and  O_3
    2  A    between atoms: O_3  and  C_18
    3  A    between atoms: C_4  and  C_18
    4  A    between atoms: C_5  and  C_11
    5  A    between atoms: C_9  and  C_34
    6  A    between atoms: C_12  and  C_28
    7  A    between atoms: C_12  and  C_34
    8  A    between atoms: C_13  and  C_23
    9  A    between atoms: C_19  and  C_21
   10  A    between atoms: C_19  and  C_31
   11  A    between atoms: C_22  and  N_27
   12  A    between atoms: C_22  and  C_28
   13  A    between atoms: C_25  and  C_28
   14  A    between atoms: C_26  and  N_27
                            x       y       z     vdW  Elec       q    Type
                         _______ _______ _______ _____ _____    ______ ____

>  <TORSDO>
F 14

$$$$
=
 OpenBabel11072411283D

 35 37  0  0  1  0  0  0  0  0999 V2000
  161.8960  207.1070  152.0130 C   0  0  0  0  0  0  0  0  0  0  0  0
  162.7650  207.1180  150.8030 C   0  0  0  0  0  2  0  0  0  0  0  0
  162.5350  208.5230  150.2240 C   0  0  2  0  0  3  0  0  0  0  0  0
  161.3270  208.2900  152.1650 C   0  0  0  0  0  0  0  0  0  0  0  0
  161.6510  209.1510  151.1380 O   0  0  0  0  0  0  0  0  0  0  0  0
  161.9040  208.4640  148.8370 C   0  0  0  0  0  0  0  0  0  0  0  0
  162.7760  207.8910  147.9270 F   0  0  0  0  0  0  0  0  0  0  0  0
  161.5790  209.7380  148.4130 F   0  0  0  0  0  0  0  0  0  0  0  0
  160.7480  207.7040  148.8990 F   0  0  0  0  0  0  0  0  0  0  0  0
  161.2100  204.8150  152.7340 C   0  0  0  0  0  3  0  0  0  0  0  0
  161.8430  205.9710  152.9470 C   0  0  0  0  0  3  0  0  0  0  0  0
  160.5200  204.4660  151.4620 C   0  0  0  0  0  2  0  0  0  0  0  0
  161.4680  204.0970  150.5040 O   0  0  0  0  0  0  0  0  0  0  0  0
  160.9470  204.4990  149.2600 C   0  0  2  0  0  0  0  0  0  0  0  0
  161.9540  204.7010  148.1470 C   0  0  0  0  0  2  0  0  0  0  0  0
  159.8130  205.2960  149.2290 F   0  0  0  0  0  0  0  0  0  0  0  0
  161.0380  203.4780  148.1370 C   0  0  1  0  0  3  0  0  0  0  0  0
  161.8540  202.2480  148.5220 C   0  0  0  0  0  2  0  0  0  0  0  0
  161.1890  200.6110  150.1220 F   0  0  0  0  0  0  0  0  0  0  0  0
  160.9490  201.0640  148.8380 C   0  0  0  0  0  0  0  0  0  0  0  0
  159.6250  201.4440  148.7220 F   0  0  0  0  0  0  0  0  0  0  0  0
  161.2060  200.0440  147.9410 F   0  0  0  0  0  0  0  0  0  0  0  0
  160.5070  208.6730  153.2720 N   0  0  0  0  0  2  0  0  0  0  0  0
  160.6880  209.9430  153.9520 C   0  0  0  0  0  2  0  0  0  0  0  0
  160.3080  209.8200  155.4260 C   0  0  2  0  0  3  0  0  0  0  0  0
  159.7100  207.5870  156.0580 O   0  0  0  0  0  0  0  0  0  0  0  0
  160.6190  208.4510  155.9380 C   0  0  0  0  0  0  0  0  0  0  0  0
  161.9290  208.1220  156.2550 O   0  0  0  0  0  1  0  0  0  0  0  0
  158.8350  210.1430  155.6240 C   0  0  0  0  0  2  0  0  0  0  0  0
  159.8690  212.0000  156.6820 O   0  0  0  0  0  1  0  0  0  0  0  0
  158.6570  211.3140  156.5760 C   0  0  1  0  0  3  0  0  0  0  0  0
  156.2750  211.8510  156.5630 N   0  0  0  0  0  2  0  0  0  0  0  0
  157.5890  212.2570  156.0520 C   0  0  2  0  0  3  0  0  0  0  0  0
  156.0500  212.4280  154.3080 O   0  0  0  0  0  1  0  0  0  0  0  0
  156.6660  211.5330  155.1840 C   0  0  2  0  0  3  0  0  0  0  0  0
  1  4  2  0  0  0  0
  1 11  1  0  0  0  0
  2  1  1  0  0  0  0
  3  6  1  6  0  0  0
  3  2  1  0  0  0  0
  3  5  1  0  0  0  0
  4 23  1  0  0  0  0
  5  4  1  0  0  0  0
  6  9  1  0  0  0  0
  7  6  1  0  0  0  0
  8  6  1  0  0  0  0
 10 11  2  0  0  0  0
 12 10  1  0  0  0  0
 13 12  1  0  0  0  0
 14 16  1  1  0  0  0
 14 13  1  0  0  0  0
 15 14  1  0  0  0  0
 17 15  1  0  0  0  0
 17 18  1  1  0  0  0
 17 14  1  0  0  0  0
 18 20  1  0  0  0  0
 20 19  1  0  0  0  0
 21 20  1  0  0  0  0
 22 20  1  0  0  0  0
 23 24  1  0  0  0  0
 25 24  1  6  0  0  0
 25 29  1  0  0  0  0
 25 27  1  0  0  0  0
 27 26  2  0  0  0  0
 27 28  1  0  0  0  0
 29 31  1  0  0  0  0
 31 30  1  6  0  0  0
 33 32  1  0  0  0  0
 33 31  1  1  0  0  0
 35 34  1  6  0  0  0
 35 33  1  0  0  0  0
 35 32  1  0  0  0  0
M  END
>  <MODEL>
6

>  <REMARK>
 VINA RESULT:      -7.1      1.581      2.275
  Name = 
  14 active torsions:
  status: ('A' for Active; 'I' for Inactive)
    1  A    between atoms: C_1  and  O_3
    2  A    between atoms: O_3  and  C_18
    3  A    between atoms: C_4  and  C_18
    4  A    between atoms: C_5  and  C_11
    5  A    between atoms: C_9  and  C_34
    6  A    between atoms: C_12  and  C_28
    7  A    between atoms: C_12  and  C_34
    8  A    between atoms: C_13  and  C_23
    9  A    between atoms: C_19  and  C_21
   10  A    between atoms: C_19  and  C_31
   11  A    between atoms: C_22  and  N_27
   12  A    between atoms: C_22  and  C_28
   13  A    between atoms: C_25  and  C_28
   14  A    between atoms: C_26  and  N_27
                            x       y       z     vdW  Elec       q    Type
                         _______ _______ _______ _____ _____    ______ ____

>  <TORSDO>
F 14

$$$$
=
 OpenBabel11072411283D

 35 37  0  0  1  0  0  0  0  0999 V2000
  161.3580  207.9940  152.1450 C   0  0  0  0  0  0  0  0  0  0  0  0
  162.3560  207.6990  151.0780 C   0  0  0  0  0  2  0  0  0  0  0  0
  162.4150  209.0160  150.2870 C   0  0  2  0  0  3  0  0  0  0  0  0
  160.9640  209.2520  152.0530 C   0  0  0  0  0  0  0  0  0  0  0  0
  161.5360  209.8910  150.9750 O   0  0  0  0  0  0  0  0  0  0  0  0
  161.9510  208.8280  148.8460 C   0  0  0  0  0  0  0  0  0  0  0  0
  161.6360  210.0480  148.2720 F   0  0  0  0  0  0  0  0  0  0  0  0
  160.8380  208.0100  148.8130 F   0  0  0  0  0  0  0  0  0  0  0  0
  162.9680  208.2330  148.1190 F   0  0  0  0  0  0  0  0  0  0  0  0
  161.2070  205.7130  153.1560 C   0  0  0  0  0  3  0  0  0  0  0  0
  161.0200  207.0340  153.2090 C   0  0  0  0  0  3  0  0  0  0  0  0
  161.8710  205.0120  152.0240 C   0  0  0  0  0  2  0  0  0  0  0  0
  160.9510  204.1690  151.3930 O   0  0  0  0  0  0  0  0  0  0  0  0
  160.6880  204.7450  150.1370 C   0  0  2  0  0  0  0  0  0  0  0  0
  161.8590  204.8230  149.1790 C   0  0  0  0  0  2  0  0  0  0  0  0
  159.7320  205.7430  150.0380 F   0  0  0  0  0  0  0  0  0  0  0  0
  160.7480  203.8010  148.9450 C   0  0  1  0  0  3  0  0  0  0  0  0
  161.2670  202.4150  149.3150 C   0  0  0  0  0  2  0  0  0  0  0  0
  161.3000  200.1770  148.4960 F   0  0  0  0  0  0  0  0  0  0  0  0
  160.5350  201.3280  148.5390 C   0  0  0  0  0  0  0  0  0  0  0  0
  159.3240  201.0560  149.1460 F   0  0  0  0  0  0  0  0  0  0  0  0
  160.3060  201.7680  147.2490 F   0  0  0  0  0  0  0  0  0  0  0  0
  160.0870  209.9090  152.9720 N   0  0  0  0  0  2  0  0  0  0  0  0
  160.5760  210.8920  153.9230 C   0  0  0  0  0  2  0  0  0  0  0  0
  159.4290  211.4250  154.7770 C   0  0  2  0  0  3  0  0  0  0  0  0
  158.7560  211.0790  157.0510 O   0  0  0  0  0  1  0  0  0  0  0  0
  159.2480  210.5870  156.0000 C   0  0  0  0  0  0  0  0  0  0  0  0
  159.5990  209.2450  155.9670 O   0  0  0  0  0  0  0  0  0  0  0  0
  158.1410  211.4760  153.9680 C   0  0  0  0  0  2  0  0  0  0  0  0
  157.7360  213.5200  155.1070 O   0  0  0  0  0  1  0  0  0  0  0  0
  157.6200  212.8990  153.8610 C   0  0  1  0  0  3  0  0  0  0  0  0
  157.5650  214.0520  151.7100 N   0  0  0  0  0  2  0  0  0  0  0  0
  158.4270  213.6760  152.8350 C   0  0  2  0  0  3  0  0  0  0  0  0
  159.6210  213.3300  150.8620 O   0  0  0  0  0  1  0  0  0  0  0  0
  158.4980  212.9260  151.5850 C   0  0  2  0  0  3  0  0  0  0  0  0
  1 11  1  0  0  0  0
  2  1  1  0  0  0  0
  3  6  1  6  0  0  0
  3  5  1  0  0  0  0
  3  2  1  0  0  0  0
  4  1  2  0  0  0  0
  4 23  1  0  0  0  0
  5  4  1  0  0  0  0
  7  6  1  0  0  0  0
  8  6  1  0  0  0  0
  9  6  1  0  0  0  0
 10 11  2  0  0  0  0
 12 10  1  0  0  0  0
 13 12  1  0  0  0  0
 14 16  1  6  0  0  0
 14 13  1  0  0  0  0
 15 14  1  0  0  0  0
 17 15  1  0  0  0  0
 17 18  1  1  0  0  0
 17 14  1  0  0  0  0
 19 20  1  0  0  0  0
 20 21  1  0  0  0  0
 20 18  1  0  0  0  0
 22 20  1  0  0  0  0
 23 24  1  0  0  0  0
 25 24  1  6  0  0  0
 25 27  1  0  0  0  0
 27 26  1  0  0  0  0
 28 27  2  0  0  0  0
 29 25  1  0  0  0  0
 31 29  1  0  0  0  0
 31 30  1  1  0  0  0
 32 33  1  0  0  0  0
 33 31  1  1  0  0  0
 35 34  1  6  0  0  0
 35 32  1  0  0  0  0
 35 33  1  0  0  0  0
M  END
>  <MODEL>
7

>  <REMARK>
 VINA RESULT:      -6.8      1.693      2.471
  Name = 
  14 active torsions:
  status: ('A' for Active; 'I' for Inactive)
    1  A    between atoms: C_1  and  O_3
    2  A    between atoms: O_3  and  C_18
    3  A    between atoms: C_4  and  C_18
    4  A    between atoms: C_5  and  C_11
    5  A    between atoms: C_9  and  C_34
    6  A    between atoms: C_12  and  C_28
    7  A    between atoms: C_12  and  C_34
    8  A    between atoms: C_13  and  C_23
    9  A    between atoms: C_19  and  C_21
   10  A    between atoms: C_19  and  C_31
   11  A    between atoms: C_22  and  N_27
   12  A    between atoms: C_22  and  C_28
   13  A    between atoms: C_25  and  C_28
   14  A    between atoms: C_26  and  N_27
                            x       y       z     vdW  Elec       q    Type
                         _______ _______ _______ _____ _____    ______ ____

>  <TORSDO>
F 14

$$$$
=
 OpenBabel11072411283D

 35 37  0  0  1  0  0  0  0  0999 V2000
  161.3730  208.4210  149.7070 C   0  0  0  0  0  0  0  0  0  0  0  0
  162.1460  209.1410  148.6560 C   0  0  0  0  0  2  0  0  0  0  0  0
  162.5580  210.4430  149.3610 C   0  0  2  0  0  3  0  0  0  0  0  0
  161.3890  209.1180  150.8300 C   0  0  0  0  0  0  0  0  0  0  0  0
  162.0520  210.3170  150.6800 O   0  0  0  0  0  0  0  0  0  0  0  0
  161.9540  211.6680  148.6810 C   0  0  0  0  0  0  0  0  0  0  0  0
  161.1830  212.3920  149.5740 F   0  0  0  0  0  0  0  0  0  0  0  0
  161.1660  211.2740  147.6160 F   0  0  0  0  0  0  0  0  0  0  0  0
  162.9780  212.4720  148.2090 F   0  0  0  0  0  0  0  0  0  0  0  0
  161.0070  206.3040  148.4310 C   0  0  0  0  0  3  0  0  0  0  0  0
  160.8290  207.0680  149.5110 C   0  0  0  0  0  3  0  0  0  0  0  0
  161.8660  206.6840  147.2760 C   0  0  0  0  0  2  0  0  0  0  0  0
  162.1190  205.5550  146.4920 O   0  0  0  0  0  0  0  0  0  0  0  0
  161.1560  205.5640  145.4670 C   0  0  2  0  0  0  0  0  0  0  0  0
  161.5960  204.9990  144.1320 C   0  0  0  0  0  2  0  0  0  0  0  0
  160.2120  206.5780  145.4360 F   0  0  0  0  0  0  0  0  0  0  0  0
  160.6430  204.2030  145.0210 C   0  0  1  0  0  3  0  0  0  0  0  0
  161.4100  203.0460  145.6550 C   0  0  0  0  0  2  0  0  0  0  0  0
  161.1980  200.6720  145.6190 F   0  0  0  0  0  0  0  0  0  0  0  0
  160.5050  201.8410  145.8760 C   0  0  0  0  0  0  0  0  0  0  0  0
  160.0510  201.8320  147.1820 F   0  0  0  0  0  0  0  0  0  0  0  0
  159.4220  201.9230  145.0210 F   0  0  0  0  0  0  0  0  0  0  0  0
  160.8340  208.6860  152.0750 N   0  0  0  0  0  2  0  0  0  0  0  0
  161.6390  208.0080  153.0750 C   0  0  0  0  0  2  0  0  0  0  0  0
  160.7770  207.0540  153.8990 C   0  0  2  0  0  3  0  0  0  0  0  0
  161.5960  208.3250  155.7570 O   0  0  0  0  0  0  0  0  0  0  0  0
  160.8250  207.4170  155.3470 C   0  0  0  0  0  0  0  0  0  0  0  0
  159.9880  206.7670  156.2430 O   0  0  0  0  0  1  0  0  0  0  0  0
  161.2280  205.6170  153.6920 C   0  0  0  0  0  2  0  0  0  0  0  0
  162.6630  205.1650  151.8550 O   0  0  0  0  0  1  0  0  0  0  0  0
  161.3180  205.2810  152.2130 C   0  0  1  0  0  3  0  0  0  0  0  0
  161.5700  202.8630  151.9820 N   0  0  0  0  0  2  0  0  0  0  0  0
  160.6080  203.9680  151.9300 C   0  0  2  0  0  3  0  0  0  0  0  0
  160.1490  202.5260  150.1560 O   0  0  0  0  0  1  0  0  0  0  0  0
  161.1100  203.3850  150.6900 C   0  0  2  0  0  3  0  0  0  0  0  0
  1  4  2  0  0  0  0
  2  3  1  0  0  0  0
  2  1  1  0  0  0  0
  3  6  1  6  0  0  0
  3  5  1  0  0  0  0
  4 23  1  0  0  0  0
  5  4  1  0  0  0  0
  6  7  1  0  0  0  0
  8  6  1  0  0  0  0
  9  6  1  0  0  0  0
 10 11  2  0  0  0  0
 11  1  1  0  0  0  0
 12 10  1  0  0  0  0
 13 12  1  0  0  0  0
 14 16  1  6  0  0  0
 14 13  1  0  0  0  0
 15 17  1  0  0  0  0
 15 14  1  0  0  0  0
 17 14  1  0  0  0  0
 17 18  1  1  0  0  0
 18 20  1  0  0  0  0
 19 20  1  0  0  0  0
 20 21  1  0  0  0  0
 22 20  1  0  0  0  0
 23 24  1  0  0  0  0
 25 24  1  6  0  0  0
 25 27  1  0  0  0  0
 27 26  2  0  0  0  0
 27 28  1  0  0  0  0
 29 25  1  0  0  0  0
 31 30  1  1  0  0  0
 31 29  1  0  0  0  0
 33 32  1  0  0  0  0
 33 31  1  6  0  0  0
 35 34  1  1  0  0  0
 35 33  1  0  0  0  0
 35 32  1  0  0  0  0
M  END
>  <MODEL>
8

>  <REMARK>
 VINA RESULT:      -6.8      2.777      5.269
  Name = 
  14 active torsions:
  status: ('A' for Active; 'I' for Inactive)
    1  A    between atoms: C_1  and  O_3
    2  A    between atoms: O_3  and  C_18
    3  A    between atoms: C_4  and  C_18
    4  A    between atoms: C_5  and  C_11
    5  A    between atoms: C_9  and  C_34
    6  A    between atoms: C_12  and  C_28
    7  A    between atoms: C_12  and  C_34
    8  A    between atoms: C_13  and  C_23
    9  A    between atoms: C_19  and  C_21
   10  A    between atoms: C_19  and  C_31
   11  A    between atoms: C_22  and  N_27
   12  A    between atoms: C_22  and  C_28
   13  A    between atoms: C_25  and  C_28
   14  A    between atoms: C_26  and  N_27
                            x       y       z     vdW  Elec       q    Type
                         _______ _______ _______ _____ _____    ______ ____

>  <TORSDO>
F 14

$$$$
=
 OpenBabel11072411283D

 35 37  0  0  1  0  0  0  0  0999 V2000
  162.0780  210.1840  150.0130 C   0  0  0  0  0  0  0  0  0  0  0  0
  162.0390  211.6650  149.8530 C   0  0  0  0  0  2  0  0  0  0  0  0
  161.6700  211.8430  148.3720 C   0  0  2  0  0  3  0  0  0  0  0  0
  161.7280  209.6030  148.8790 C   0  0  0  0  0  0  0  0  0  0  0  0
  161.4960  210.5240  147.8810 O   0  0  0  0  0  0  0  0  0  0  0  0
  162.7770  212.5520  147.5970 C   0  0  0  0  0  0  0  0  0  0  0  0
  163.0010  213.8160  148.1140 F   0  0  0  0  0  0  0  0  0  0  0  0
  162.4250  212.6610  146.2660 F   0  0  0  0  0  0  0  0  0  0  0  0
  163.9420  211.8090  147.6950 F   0  0  0  0  0  0  0  0  0  0  0  0
  161.6580  209.7630  152.4400 C   0  0  0  0  0  3  0  0  0  0  0  0
  162.3240  209.5270  151.3070 C   0  0  0  0  0  3  0  0  0  0  0  0
  160.4930  210.6830  152.5450 C   0  0  0  0  0  2  0  0  0  0  0  0
  159.6410  210.2430  153.5620 O   0  0  0  0  0  0  0  0  0  0  0  0
  160.0380  210.9210  154.7290 C   0  0  2  0  0  0  0  0  0  0  0  0
  158.9670  211.1210  155.7820 C   0  0  0  0  0  2  0  0  0  0  0  0
  161.0200  211.8940  154.6430 F   0  0  0  0  0  0  0  0  0  0  0  0
  160.0730  210.0910  156.0030 C   0  0  1  0  0  3  0  0  0  0  0  0
  159.4910  208.6940  155.8150 C   0  0  0  0  0  2  0  0  0  0  0  0
  160.4090  206.5640  156.3640 F   0  0  0  0  0  0  0  0  0  0  0  0
  160.5880  207.6710  155.5540 C   0  0  0  0  0  0  0  0  0  0  0  0
  160.5600  207.2830  154.2280 F   0  0  0  0  0  0  0  0  0  0  0  0
  161.8160  208.2410  155.8310 F   0  0  0  0  0  0  0  0  0  0  0  0
  161.5590  208.1950  148.6940 N   0  0  0  0  0  2  0  0  0  0  0  0
  162.5670  207.3870  148.0300 C   0  0  0  0  0  2  0  0  0  0  0  0
  162.0050  206.0100  147.6840 C   0  0  2  0  0  3  0  0  0  0  0  0
  162.5980  205.5020  145.4190 O   0  0  0  0  0  0  0  0  0  0  0  0
  161.7170  205.9100  146.2220 C   0  0  0  0  0  0  0  0  0  0  0  0
  160.4550  206.2410  145.7500 O   0  0  0  0  0  1  0  0  0  0  0  0
  160.7510  205.7270  148.4980 C   0  0  0  0  0  2  0  0  0  0  0  0
  161.4470  203.4630  148.3320 O   0  0  0  0  0  1  0  0  0  0  0  0
  160.8460  204.3810  149.1960 C   0  0  1  0  0  3  0  0  0  0  0  0
  160.8370  204.2750  151.6350 N   0  0  0  0  0  2  0  0  0  0  0  0
  161.6820  204.5040  150.4590 C   0  0  2  0  0  3  0  0  0  0  0  0
  162.2560  206.0800  152.0790 O   0  0  0  0  0  1  0  0  0  0  0  0
  161.2220  205.6390  151.2530 C   0  0  2  0  0  3  0  0  0  0  0  0
  1 11  1  0  0  0  0
  2  1  1  0  0  0  0
  3  6  1  6  0  0  0
  3  2  1  0  0  0  0
  4  1  2  0  0  0  0
  5  3  1  0  0  0  0
  5  4  1  0  0  0  0
  6  9  1  0  0  0  0
  6  7  1  0  0  0  0
  8  6  1  0  0  0  0
 10 12  1  0  0  0  0
 11 10  2  0  0  0  0
 12 13  1  0  0  0  0
 13 14  1  0  0  0  0
 14 16  1  6  0  0  0
 14 15  1  0  0  0  0
 14 17  1  0  0  0  0
 15 17  1  0  0  0  0
 17 18  1  6  0  0  0
 20 18  1  0  0  0  0
 20 22  1  0  0  0  0
 20 19  1  0  0  0  0
 21 20  1  0  0  0  0
 23  4  1  0  0  0  0
 24 23  1  0  0  0  0
 25 24  1  6  0  0  0
 25 29  1  0  0  0  0
 26 27  2  0  0  0  0
 27 25  1  0  0  0  0
 28 27  1  0  0  0  0
 29 31  1  0  0  0  0
 31 30  1  6  0  0  0
 33 31  1  6  0  0  0
 33 35  1  0  0  0  0
 33 32  1  0  0  0  0
 35 32  1  0  0  0  0
 35 34  1  1  0  0  0
M  END
>  <MODEL>
9

>  <REMARK>
 VINA RESULT:      -6.7      3.830      8.119
  Name = 
  14 active torsions:
  status: ('A' for Active; 'I' for Inactive)
    1  A    between atoms: C_1  and  O_3
    2  A    between atoms: O_3  and  C_18
    3  A    between atoms: C_4  and  C_18
    4  A    between atoms: C_5  and  C_11
    5  A    between atoms: C_9  and  C_34
    6  A    between atoms: C_12  and  C_28
    7  A    between atoms: C_12  and  C_34
    8  A    between atoms: C_13  and  C_23
    9  A    between atoms: C_19  and  C_21
   10  A    between atoms: C_19  and  C_31
   11  A    between atoms: C_22  and  N_27
   12  A    between atoms: C_22  and  C_28
   13  A    between atoms: C_25  and  C_28
   14  A    between atoms: C_26  and  N_27
                            x       y       z     vdW  Elec       q    Type
                         _______ _______ _______ _____ _____    ______ ____

>  <TORSDO>
F 14

$$$$
