=
 OpenBabel11072411093D

 46 49  0  0  1  0  0  0  0  0999 V2000
  162.0860  208.9470  155.0750 C   0  0  0  0  0  1  0  0  0  0  0  0
  161.8570  211.1000  149.1480 O   0  0  0  0  0  0  0  0  0  0  0  0
  160.5470  203.9260  150.6730 C   0  0  1  0  0  3  0  0  0  0  0  0
  161.9520  203.6600  151.2080 C   0  0  0  0  0  2  0  0  0  0  0  0
  161.4220  208.0210  147.0990 N   0  0  0  0  0  0  0  0  0  0  0  0
  161.7610  203.3880  148.0910 O   0  0  0  0  0  0  0  0  0  0  0  0
  161.1060  208.9820  151.1680 C   0  0  0  0  0  2  0  0  0  0  0  0
  160.2230  207.8780  153.7410 C   0  0  0  0  0  2  0  0  0  0  0  0
  161.2830  204.5390  148.2910 C   0  0  0  0  0  0  0  0  0  0  0  0
  161.5150  206.9450  147.8140 C   0  0  0  0  0  3  0  0  0  0  0  0
  162.4830  211.1030  151.5120 C   0  0  0  0  0  2  0  0  0  0  0  0
  161.9370  204.7210  153.4320 C   0  0  0  0  0  3  0  0  0  0  0  0
  160.4850  206.6090  154.4900 C   0  0  0  0  0  3  0  0  0  0  0  0
  161.2110  205.6690  153.9550 C   0  0  0  0  0  0  0  0  0  0  0  0
  160.6130  204.8330  149.5260 N   0  0  0  0  0  2  0  0  0  0  0  0
  161.5480  209.3620  147.6070 C   0  0  0  0  0  3  0  0  0  0  0  0
  161.9890  208.7040  149.9680 C   0  0  0  0  0  2  0  0  0  0  0  0
  161.3500  205.5880  147.2110 C   0  0  1  0  0  3  0  0  0  0  0  0
  160.7090  209.1750  154.4350 C   0  0  2  0  0  0  0  0  0  0  0  0
  161.8170  209.8850  152.1810 C   0  0  1  0  0  3  0  0  0  0  0  0
  162.4430  204.8350  152.0360 C   0  0  0  0  0  2  0  0  0  0  0  0
  161.6080  211.7060  150.4180 C   0  0  0  0  0  2  0  0  0  0  0  0
  161.2450  211.4950  153.8920 O   0  0  0  0  0  1  0  0  0  0  0  0
  161.7740  209.7230  148.8810 C   0  0  0  0  0  0  0  0  0  0  0  0
  160.8570  210.2730  153.3310 C   0  0  2  0  0  3  0  0  0  0  0  0
  159.6550  209.6140  155.5180 C   0  0  1  0  0  0  0  0  0  0  0  0
  159.9090  211.0430  156.0410 C   0  0  2  0  0  3  0  0  0  0  0  0
  158.8120  213.8290  154.8980 C   0  0  0  0  0  2  0  0  0  0  0  0
  158.2170  209.6410  154.9700 C   0  0  0  0  0  2  0  0  0  0  0  0
  160.5950  211.0370  157.2600 O   0  0  0  0  0  1  0  0  0  0  0  0
  157.6790  211.0540  155.1100 C   0  0  2  0  0  3  0  0  0  0  0  0
  157.8410  211.7480  153.7480 C   0  0  0  0  0  2  0  0  0  0  0  0
  159.6820  208.7060  156.5840 O   0  0  0  0  0  1  0  0  0  0  0  0
  158.5120  213.2020  156.2520 C   0  0  1  0  0  3  0  0  0  0  0  0
  158.5390  211.6630  156.2150 C   0  0  2  0  0  3  0  0  0  0  0  0
  157.2330  213.9490  153.1500 O   0  0  0  0  0  0  0  0  0  0  0  0
  159.3950  213.6940  157.2150 O   0  0  0  0  0  1  0  0  0  0  0  0
  157.8920  213.2340  153.8860 C   0  0  0  0  0  0  0  0  0  0  0  0
  162.1510  205.3300  144.8610 O   0  0  0  0  0  0  0  0  0  0  0  0
  162.4420  205.3170  146.2180 C   0  0  0  0  0  0  0  0  0  0  0  0
  163.6170  205.0790  146.6030 O   0  0  0  0  0  1  0  0  0  0  0  0
  160.0770  201.5680  151.3820 C   0  0  0  0  0  1  0  0  0  0  0  0
  159.8240  202.6220  150.3150 C   0  0  2  0  0  3  0  0  0  0  0  0
  160.3090  202.0940  148.9690 C   0  0  0  0  0  2  0  0  0  0  0  0
  161.0190  200.7590  149.1290 C   0  0  0  0  0  2  0  0  0  0  0  0
  161.3150  200.2240  147.8750 O   0  0  0  0  0  1  0  0  0  0  0  0
  2 22  1  0  0  0  0
  3 43  1  6  0  0  0
  3  4  1  0  0  0  0
  4 21  1  0  0  0  0
  5 16  1  0  0  0  0
  5 10  2  0  0  0  0
  6  9  2  0  0  0  0
  8 19  1  0  0  0  0
  8 13  1  0  0  0  0
  9 15  1  0  0  0  0
 11 20  1  0  0  0  0
 12 14  2  0  0  0  0
 14 13  2  0  0  0  0
 15  3  1  0  0  0  0
 16 24  2  0  0  0  0
 17  7  1  0  0  0  0
 18 40  1  6  0  0  0
 18 10  1  0  0  0  0
 18  9  1  0  0  0  0
 19  1  1  1  0  0  0
 19 26  1  0  0  0  0
 20  7  1  6  0  0  0
 20 25  1  0  0  0  0
 21 12  1  0  0  0  0
 22 11  1  0  0  0  0
 24  2  1  0  0  0  0
 24 17  1  0  0  0  0
 25 23  1  1  0  0  0
 25 19  1  0  0  0  0
 26 27  1  0  0  0  0
 26 33  1  1  0  0  0
 27 35  1  0  0  0  0
 27 30  1  1  0  0  0
 28 34  1  0  0  0  0
 29 31  1  0  0  0  0
 29 26  1  0  0  0  0
 31 32  1  6  0  0  0
 31 35  1  0  0  0  0
 32 38  1  0  0  0  0
 34 37  1  1  0  0  0
 35 34  1  0  0  0  0
 36 38  2  0  0  0  0
 38 28  1  0  0  0  0
 39 40  2  0  0  0  0
 40 41  1  0  0  0  0
 43 42  1  0  0  0  0
 44 45  1  0  0  0  0
 44 43  1  0  0  0  0
 46 45  1  0  0  0  0
M  END
>  <MODEL>
1

>  <REMARK>
 VINA RESULT:      -1.6      0.000      0.000
  Name = 
  5 active torsions:
  status: ('A' for Active; 'I' for Inactive)
    1  A    between atoms: C_1  and  C_35
    2  A    between atoms: C_7  and  C_32
    3  A    between atoms: C_9  and  C_46
    4  A    between atoms: C_25  and  C_30
    5  A    between atoms: C_32  and  C_46
                            x       y       z     vdW  Elec       q    Type
                         _______ _______ _______ _____ _____    ______ ____

>  <TORSDO>
F 5

$$$$
=
 OpenBabel11072411093D

 46 49  0  0  1  0  0  0  0  0999 V2000
  163.3670  207.3100  149.0610 C   0  0  0  0  0  1  0  0  0  0  0  0
  160.8010  206.9430  154.8140 O   0  0  0  0  0  0  0  0  0  0  0  0
  159.4700  212.7880  150.3910 C   0  0  1  0  0  3  0  0  0  0  0  0
  160.9250  213.2490  150.3620 C   0  0  0  0  0  2  0  0  0  0  0  0
  159.1510  210.2510  155.2650 N   0  0  0  0  0  0  0  0  0  0  0  0
  159.3490  214.3340  152.8450 O   0  0  0  0  0  0  0  0  0  0  0  0
  160.7760  208.1280  152.0350 C   0  0  0  0  0  2  0  0  0  0  0  0
  160.9960  208.1880  149.1080 C   0  0  0  0  0  2  0  0  0  0  0  0
  159.1470  213.0900  152.9190 C   0  0  0  0  0  0  0  0  0  0  0  0
  159.4240  211.0660  154.2970 C   0  0  0  0  0  3  0  0  0  0  0  0
  162.4000  206.4340  153.0360 C   0  0  0  0  0  2  0  0  0  0  0  0
  162.0170  211.6360  148.8530 C   0  0  0  0  0  3  0  0  0  0  0  0
  161.4120  209.2150  148.1020 C   0  0  0  0  0  3  0  0  0  0  0  0
  161.7110  210.4240  148.4840 C   0  0  0  0  0  0  0  0  0  0  0  0
  159.1290  212.2930  151.7250 N   0  0  0  0  0  2  0  0  0  0  0  0
  159.6440  208.9020  155.3730 C   0  0  0  0  0  3  0  0  0  0  0  0
  161.0000  208.9560  153.2850 C   0  0  0  0  0  2  0  0  0  0  0  0
  158.8520  212.4450  154.2500 C   0  0  1  0  0  3  0  0  0  0  0  0
  161.8850  206.9210  149.1760 C   0  0  2  0  0  0  0  0  0  0  0  0
  161.9610  207.1950  151.7700 C   0  0  1  0  0  3  0  0  0  0  0  0
  161.8650  212.0590  150.2730 C   0  0  0  0  0  2  0  0  0  0  0  0
  161.2110  205.9590  153.8620 C   0  0  0  0  0  2  0  0  0  0  0  0
  162.3940  205.0740  150.6900 O   0  0  0  0  0  1  0  0  0  0  0  0
  160.4480  208.2670  154.5050 C   0  0  0  0  0  0  0  0  0  0  0  0
  161.6590  206.2600  150.5740 C   0  0  2  0  0  3  0  0  0  0  0  0
  161.4770  205.9340  148.0210 C   0  0  1  0  0  0  0  0  0  0  0  0
  162.3230  204.6440  148.0220 C   0  0  2  0  0  3  0  0  0  0  0  0
  161.7920  201.8910  149.5740 C   0  0  0  0  0  2  0  0  0  0  0  0
  160.0190  205.4540  148.1390 C   0  0  0  0  0  2  0  0  0  0  0  0
  163.3630  204.7020  147.0880 O   0  0  0  0  0  1  0  0  0  0  0  0
  160.0240  203.9410  148.2710 C   0  0  2  0  0  3  0  0  0  0  0  0
  159.8900  203.6070  149.7650 C   0  0  0  0  0  2  0  0  0  0  0  0
  161.6060  206.5850  146.7870 O   0  0  0  0  0  1  0  0  0  0  0  0
  161.8220  202.1130  148.0690 C   0  0  1  0  0  3  0  0  0  0  0  0
  161.3640  203.5270  147.6670 C   0  0  2  0  0  3  0  0  0  0  0  0
  159.8090  201.4780  150.7830 O   0  0  0  0  0  0  0  0  0  0  0  0
  163.0960  201.8390  147.5690 O   0  0  0  0  0  1  0  0  0  0  0  0
  160.4370  202.2540  150.0810 C   0  0  0  0  0  0  0  0  0  0  0  0
  158.5820  214.3070  155.8910 O   0  0  0  0  0  0  0  0  0  0  0  0
  159.3540  213.2610  155.4040 C   0  0  0  0  0  0  0  0  0  0  0  0
  160.4680  213.0080  155.9360 O   0  0  0  0  0  1  0  0  0  0  0  0
  157.0930  213.3770  149.8570 C   0  0  0  0  0  1  0  0  0  0  0  0
  158.5170  213.9030  149.9460 C   0  0  2  0  0  3  0  0  0  0  0  0
  158.9310  214.4490  148.5830 C   0  0  0  0  0  2  0  0  0  0  0  0
  158.3240  213.6270  147.4580 C   0  0  0  0  0  2  0  0  0  0  0  0
  159.2630  212.7170  146.9710 O   0  0  0  0  0  1  0  0  0  0  0  0
  3 43  1  1  0  0  0
  3 15  1  0  0  0  0
  4  3  1  0  0  0  0
  5 16  1  0  0  0  0
  6  9  2  0  0  0  0
  7 17  1  0  0  0  0
  8 19  1  0  0  0  0
  9 18  1  0  0  0  0
 10  5  2  0  0  0  0
 11 22  1  0  0  0  0
 12 21  1  0  0  0  0
 13 14  2  0  0  0  0
 13  8  1  0  0  0  0
 14 12  2  0  0  0  0
 15  9  1  0  0  0  0
 17 24  1  0  0  0  0
 18 10  1  0  0  0  0
 18 40  1  1  0  0  0
 19  1  1  6  0  0  0
 19 25  1  0  0  0  0
 20  7  1  1  0  0  0
 20 11  1  0  0  0  0
 21  4  1  0  0  0  0
 22  2  1  0  0  0  0
 24  2  1  0  0  0  0
 24 16  2  0  0  0  0
 25 23  1  1  0  0  0
 25 20  1  0  0  0  0
 26 33  1  6  0  0  0
 26 27  1  0  0  0  0
 26 29  1  0  0  0  0
 26 19  1  0  0  0  0
 27 30  1  6  0  0  0
 28 38  1  0  0  0  0
 31 29  1  1  0  0  0
 31 32  1  0  0  0  0
 32 38  1  0  0  0  0
 34 37  1  1  0  0  0
 34 28  1  0  0  0  0
 35 27  1  0  0  0  0
 35 34  1  0  0  0  0
 35 31  1  0  0  0  0
 38 36  2  0  0  0  0
 40 39  2  0  0  0  0
 40 41  1  0  0  0  0
 42 43  1  0  0  0  0
 44 43  1  0  0  0  0
 45 44  1  0  0  0  0
 46 45  1  0  0  0  0
M  END
>  <MODEL>
2

>  <REMARK>
 VINA RESULT:       0.5      2.587      9.836
  Name = 
  5 active torsions:
  status: ('A' for Active; 'I' for Inactive)
    1  A    between atoms: C_1  and  C_35
    2  A    between atoms: C_7  and  C_32
    3  A    between atoms: C_9  and  C_46
    4  A    between atoms: C_25  and  C_30
    5  A    between atoms: C_32  and  C_46
                            x       y       z     vdW  Elec       q    Type
                         _______ _______ _______ _____ _____    ______ ____

>  <TORSDO>
F 5

$$$$
=
 OpenBabel11072411093D

 46 49  0  0  1  0  0  0  0  0999 V2000
  162.8170  206.1900  149.8310 C   0  0  0  0  0  1  0  0  0  0  0  0
  160.5120  206.8150  155.6710 O   0  0  0  0  0  0  0  0  0  0  0  0
  159.7500  212.2640  150.6480 C   0  0  1  0  0  3  0  0  0  0  0  0
  161.2510  212.5150  150.5170 C   0  0  0  0  0  2  0  0  0  0  0  0
  159.3380  210.3470  155.7910 N   0  0  0  0  0  0  0  0  0  0  0  0
  159.9560  214.0720  152.9100 O   0  0  0  0  0  0  0  0  0  0  0  0
  160.5070  207.6790  152.7760 C   0  0  0  0  0  2  0  0  0  0  0  0
  160.5880  207.3850  149.8560 C   0  0  0  0  0  2  0  0  0  0  0  0
  159.5950  212.8840  153.1340 C   0  0  0  0  0  0  0  0  0  0  0  0
  159.6690  211.0050  154.7260 C   0  0  0  0  0  3  0  0  0  0  0  0
  161.9400  205.8980  153.9110 C   0  0  0  0  0  2  0  0  0  0  0  0
  162.0430  210.6110  149.1690 C   0  0  0  0  0  3  0  0  0  0  0  0
  161.0870  208.2280  148.7240 C   0  0  0  0  0  3  0  0  0  0  0  0
  161.5620  209.4190  148.9530 C   0  0  0  0  0  0  0  0  0  0  0  0
  159.4130  211.9710  152.0420 N   0  0  0  0  0  2  0  0  0  0  0  0
  159.6530  208.9640  156.0380 C   0  0  0  0  0  3  0  0  0  0  0  0
  160.9000  208.6000  153.9140 C   0  0  0  0  0  2  0  0  0  0  0  0
  159.2830  212.4360  154.5390 C   0  0  1  0  0  3  0  0  0  0  0  0
  161.3050  206.0240  150.0400 C   0  0  2  0  0  0  0  0  0  0  0  0
  161.5430  206.5680  152.5810 C   0  0  1  0  0  3  0  0  0  0  0  0
  162.0190  211.2050  150.5340 C   0  0  0  0  0  2  0  0  0  0  0  0
  160.7400  205.6850  154.8260 C   0  0  0  0  0  2  0  0  0  0  0  0
  161.6380  204.3020  151.7400 O   0  0  0  0  0  1  0  0  0  0  0  0
  160.3220  208.1320  155.2230 C   0  0  0  0  0  0  0  0  0  0  0  0
  161.0620  205.5570  151.5120 C   0  0  2  0  0  3  0  0  0  0  0  0
  160.7130  204.9800  149.0210 C   0  0  1  0  0  0  0  0  0  0  0  0
  160.5850  205.5560  147.5950 C   0  0  2  0  0  3  0  0  0  0  0  0
  162.7400  205.5560  145.2240 C   0  0  0  0  0  2  0  0  0  0  0  0
  161.6010  203.7330  148.8670 C   0  0  0  0  0  2  0  0  0  0  0  0
  159.2830  205.9890  147.3240 O   0  0  0  0  0  1  0  0  0  0  0  0
  162.0280  203.6270  147.4140 C   0  0  2  0  0  3  0  0  0  0  0  0
  163.4410  204.2200  147.3020 C   0  0  0  0  0  2  0  0  0  0  0  0
  159.4590  204.5510  149.4740 O   0  0  0  0  0  1  0  0  0  0  0  0
  161.3890  204.8550  145.2460 C   0  0  1  0  0  3  0  0  0  0  0  0
  160.9650  204.4260  146.6630 C   0  0  2  0  0  3  0  0  0  0  0  0
  164.7950  204.4110  145.3780 O   0  0  0  0  0  0  0  0  0  0  0  0
  160.4180  205.6660  144.6580 O   0  0  0  0  0  1  0  0  0  0  0  0
  163.7370  204.6890  145.9150 C   0  0  0  0  0  0  0  0  0  0  0  0
  161.0500  212.8170  156.2620 O   0  0  0  0  0  1  0  0  0  0  0  0
  159.9450  213.2980  155.5740 C   0  0  0  0  0  0  0  0  0  0  0  0
  159.5070  214.4530  155.8250 O   0  0  0  0  0  0  0  0  0  0  0  0
  157.4960  213.0160  149.8510 C   0  0  0  0  0  1  0  0  0  0  0  0
  158.9330  213.4440  150.1100 C   0  0  2  0  0  3  0  0  0  0  0  0
  159.5380  213.9650  148.8110 C   0  0  0  0  0  2  0  0  0  0  0  0
  159.0810  213.1350  147.6220 C   0  0  0  0  0  2  0  0  0  0  0  0
  160.1890  212.6490  146.9260 O   0  0  0  0  0  1  0  0  0  0  0  0
  3 43  1  1  0  0  0
  3 15  1  0  0  0  0
  4 21  1  0  0  0  0
  4  3  1  0  0  0  0
  5 16  1  0  0  0  0
  6  9  2  0  0  0  0
  7 17  1  0  0  0  0
  8 19  1  0  0  0  0
  9 18  1  0  0  0  0
 10  5  2  0  0  0  0
 11 22  1  0  0  0  0
 12 21  1  0  0  0  0
 13 14  2  0  0  0  0
 13  8  1  0  0  0  0
 14 12  2  0  0  0  0
 15  9  1  0  0  0  0
 17 24  1  0  0  0  0
 18 10  1  0  0  0  0
 18 40  1  1  0  0  0
 19  1  1  6  0  0  0
 19 25  1  0  0  0  0
 20  7  1  1  0  0  0
 20 11  1  0  0  0  0
 22  2  1  0  0  0  0
 24  2  1  0  0  0  0
 24 16  2  0  0  0  0
 25 23  1  1  0  0  0
 25 20  1  0  0  0  0
 26 33  1  1  0  0  0
 26 19  1  0  0  0  0
 27 30  1  6  0  0  0
 27 26  1  0  0  0  0
 28 34  1  0  0  0  0
 28 38  1  0  0  0  0
 29 26  1  0  0  0  0
 31 32  1  1  0  0  0
 31 29  1  0  0  0  0
 34 37  1  1  0  0  0
 34 35  1  0  0  0  0
 35 31  1  0  0  0  0
 35 27  1  0  0  0  0
 36 38  2  0  0  0  0
 38 32  1  0  0  0  0
 40 41  2  0  0  0  0
 40 39  1  0  0  0  0
 42 43  1  0  0  0  0
 44 43  1  0  0  0  0
 45 44  1  0  0  0  0
 46 45  1  0  0  0  0
M  END
>  <MODEL>
3

>  <REMARK>
 VINA RESULT:       1.2      2.568      9.810
  Name = 
  5 active torsions:
  status: ('A' for Active; 'I' for Inactive)
    1  A    between atoms: C_1  and  C_35
    2  A    between atoms: C_7  and  C_32
    3  A    between atoms: C_9  and  C_46
    4  A    between atoms: C_25  and  C_30
    5  A    between atoms: C_32  and  C_46
                            x       y       z     vdW  Elec       q    Type
                         _______ _______ _______ _____ _____    ______ ____

>  <TORSDO>
F 5

$$$$
