=
 OpenBabel11072414093D

 57 62  0  0  1  0  0  0  0  0999 V2000
  162.4760  205.6710  147.9430 C   0  0  0  0  0  0  0  0  0  0  0  0
  163.7020  205.5110  147.6940 O   0  0  0  0  0  0  0  0  0  0  0  0
  161.8470  206.9240  147.6170 N   0  0  0  0  0  0  0  0  0  0  0  0
  160.1840  203.8430  150.3760 C   0  0  0  0  0  3  0  0  0  0  0  0
  161.7310  204.6180  148.6650 C   0  0  0  0  0  0  0  0  0  0  0  0
  160.1180  202.5920  149.7620 C   0  0  0  0  0  3  0  0  0  0  0  0
  160.9920  204.8650  149.8510 C   0  0  0  0  0  0  0  0  0  0  0  0
  161.6630  203.3500  148.0690 C   0  0  0  0  0  3  0  0  0  0  0  0
  160.8670  202.3420  148.6150 C   0  0  0  0  0  3  0  0  0  0  0  0
  161.0870  206.1240  150.6260 C   0  0  0  0  0  0  0  0  0  0  0  0
  160.2830  207.0650  150.3910 O   0  0  0  0  0  0  0  0  0  0  0  0
  162.0510  206.2780  151.7550 C   0  0  0  0  0  2  0  0  0  0  0  0
  161.5480  205.5230  152.9730 C   0  0  0  0  0  2  0  0  0  0  0  0
  160.9330  206.4800  153.9730 C   0  0  0  0  0  2  0  0  0  0  0  0
  161.2080  207.9190  153.5700 C   0  0  0  0  0  2  0  0  0  0  0  0
  160.2140  211.3860  156.5890 O   0  0  0  0  0  1  0  0  0  0  0  0
  161.7700  210.1480  154.4940 C   0  0  0  0  0  2  0  0  0  0  0  0
  158.3690  211.9980  154.3750 C   0  0  1  0  0  3  0  0  0  0  0  0
  159.4760  210.5090  155.7890 C   0  0  2  0  0  3  0  0  0  0  0  0
  160.2580  210.0620  154.5460 C   0  0  1  0  0  0  0  0  0  0  0  0
  159.9270  212.2070  152.4920 O   0  0  0  0  0  1  0  0  0  0  0  0
  159.5710  210.0730  153.3170 O   0  0  0  0  0  0  0  0  0  0  0  0
  159.0080  211.3570  153.1120 C   0  0  1  0  0  3  0  0  0  0  0  0
  158.2230  211.0700  155.4390 O   0  0  0  0  0  0  0  0  0  0  0  0
  161.1020  208.8150  154.7930 C   0  0  1  0  0  3  0  0  0  0  0  0
  159.0770  213.1290  154.8000 O   0  0  0  0  0  1  0  0  0  0  0  0
  162.5670  208.1060  147.6200 O   0  0  0  0  0  0  0  0  0  0  0  0
  161.8690  210.1910  150.5900 C   0  0  0  0  0  3  0  0  0  0  0  0
  161.5030  211.4030  149.9940 C   0  0  0  0  0  3  0  0  0  0  0  0
  161.8580  210.4310  147.8140 C   0  0  0  0  0  3  0  0  0  0  0  0
  161.5020  211.5240  148.6020 C   0  0  0  0  0  0  0  0  0  0  0  0
  162.2270  209.1000  149.7950 C   0  0  0  0  0  3  0  0  0  0  0  0
  162.2100  209.2100  148.4030 C   0  0  0  0  0  0  0  0  0  0  0  0
  159.6410  213.3890  148.1470 O   0  0  0  0  0  0  0  0  0  0  0  0
  161.9450  214.1420  148.3990 O   0  0  0  0  0  0  0  0  0  0  0  0
  161.0740  213.0500  147.8440 S   0  0  0  0  0  0  0  0  0  0  0  0
  162.5390  213.5000  145.5700 C   0  0  0  0  0  2  0  0  0  0  0  0
  160.4300  212.3370  143.7760 C   0  0  2  0  0  0  0  0  0  0  0  0
  159.9310  213.4680  140.7370 C   0  0  0  0  0  0  0  0  0  0  0  0
  161.2580  213.5870  140.8750 C   0  0  0  0  0  3  0  0  0  0  0  0
  160.2500  212.4540  145.2770 C   0  0  0  0  0  0  0  0  0  0  0  0
  158.7970  214.2880  143.3710 C   0  0  0  0  0  1  0  0  0  0  0  0
  159.1470  212.8340  143.0690 C   0  0  1  0  0  3  0  0  0  0  0  0
  160.6120  210.9800  143.4820 O   0  0  0  0  0  1  0  0  0  0  0  0
  161.6660  213.1360  143.2960 C   0  0  2  0  0  3  0  0  0  0  0  0
  159.1780  212.0410  145.7980 O   0  0  0  0  0  0  0  0  0  0  0  0
  162.0630  212.7970  141.8600 C   0  0  0  0  0  2  0  0  0  0  0  0
  162.8550  212.9030  144.2100 C   0  0  0  0  0  2  0  0  0  0  0  0
  161.3100  212.9380  146.1260 N   0  0  0  0  0  0  0  0  0  0  0  0
  159.1140  214.4520  139.5370 Cl  0  0  0  0  0  0  0  0  0  0  0  0
  159.1090  212.5220  141.5680 C   0  0  0  0  0  2  0  0  0  0  0  0
  160.5310  206.9220  146.9910 C   0  0  0  0  0  2  0  0  0  0  0  0
  160.4190  205.8040  145.9610 C   0  0  1  0  0  3  0  0  0  0  0  0
  159.2280  205.9320  145.2650 F   0  0  0  0  0  0  0  0  0  0  0  0
  162.2020  204.5850  144.9530 F   0  0  0  0  0  0  0  0  0  0  0  0
  161.5890  205.8240  144.9870 C   0  0  0  0  0  3  0  0  0  0  0  0
  161.1600  206.1680  143.7170 F   0  0  0  0  0  0  0  0  0  0  0  0
  1  5  1  0  0  0  0
  2  1  2  0  0  0  0
  3 27  1  0  0  0  0
  3  1  1  0  0  0  0
  5  7  2  0  0  0  0
  6  4  2  0  0  0  0
  7  4  1  0  0  0  0
  7 10  1  0  0  0  0
  8  9  2  0  0  0  0
  8  5  1  0  0  0  0
  9  6  1  0  0  0  0
 10 12  1  0  0  0  0
 11 10  2  0  0  0  0
 12 13  1  0  0  0  0
 13 14  1  0  0  0  0
 15 14  1  0  0  0  0
 17 25  1  0  0  0  0
 18 26  1  1  0  0  0
 18 24  1  0  0  0  0
 19 16  1  6  0  0  0
 20 17  1  6  0  0  0
 20 25  1  0  0  0  0
 20 19  1  0  0  0  0
 22 20  1  0  0  0  0
 23 21  1  1  0  0  0
 23 22  1  0  0  0  0
 23 18  1  0  0  0  0
 24 19  1  0  0  0  0
 25 15  1  6  0  0  0
 27 33  1  0  0  0  0
 29 28  1  0  0  0  0
 30 33  2  0  0  0  0
 30 31  1  0  0  0  0
 31 29  2  0  0  0  0
 32 28  2  0  0  0  0
 33 32  1  0  0  0  0
 36 34  2  0  0  0  0
 36 35  2  0  0  0  0
 36 31  1  0  0  0  0
 37 49  1  0  0  0  0
 38 44  1  6  0  0  0
 38 41  1  0  0  0  0
 39 40  2  0  0  0  0
 39 51  1  0  0  0  0
 40 47  1  0  0  0  0
 41 46  2  0  0  0  0
 41 49  1  0  0  0  0
 43 42  1  6  0  0  0
 43 38  1  0  0  0  0
 45 47  1  6  0  0  0
 45 38  1  0  0  0  0
 45 48  1  0  0  0  0
 48 37  1  0  0  0  0
 49 36  1  0  0  0  0
 50 39  1  0  0  0  0
 51 43  1  0  0  0  0
 52  3  1  0  0  0  0
 53 54  1  6  0  0  0
 53 52  1  0  0  0  0
 55 56  1  0  0  0  0
 56 53  1  0  0  0  0
 57 56  1  0  0  0  0
M  END
>  <MODEL>
1

>  <REMARK>
 VINA RESULT:      -6.5      0.000      0.000
  Name = 
  14 active torsions:
  status: ('A' for Active; 'I' for Inactive)
    1  A    between atoms: C_6  and  C_21
    2  A    between atoms: C_8  and  C_32
    3  A    between atoms: C_8  and  C_45
    4  A    between atoms: C_11  and  C_14
    5  A    between atoms: C_14  and  C_57
    6  A    between atoms: O_31  and  C_50
    7  A    between atoms: O_31  and  N_56
    8  A    between atoms: C_40  and  S_42
    9  A    between atoms: S_42  and  N_48
   10  A    between atoms: C_44  and  C_45
   11  A    between atoms: C_44  and  C_46
   12  A    between atoms: C_46  and  C_54
   13  A    between atoms: C_52  and  C_54
   14  A    between atoms: N_56  and  C_57
                            x       y       z     vdW  Elec       q    Type
                         _______ _______ _______ _____ _____    ______ ____

>  <TORSDO>
F 14

$$$$
=
 OpenBabel11072414093D

 57 62  0  0  1  0  0  0  0  0999 V2000
  162.3180  204.8520  147.4110 C   0  0  0  0  0  0  0  0  0  0  0  0
  163.4580  204.6960  146.8930 O   0  0  0  0  0  0  0  0  0  0  0  0
  161.7400  206.1690  147.4610 N   0  0  0  0  0  0  0  0  0  0  0  0
  160.2380  202.7030  149.7690 C   0  0  0  0  0  3  0  0  0  0  0  0
  161.6440  203.7050  148.0550 C   0  0  0  0  0  0  0  0  0  0  0  0
  160.1450  201.5290  149.0190 C   0  0  0  0  0  3  0  0  0  0  0  0
  160.9900  203.7970  149.3110 C   0  0  0  0  0  0  0  0  0  0  0  0
  161.5500  202.5140  147.3210 C   0  0  0  0  0  3  0  0  0  0  0  0
  160.8110  201.4310  147.8000 C   0  0  0  0  0  3  0  0  0  0  0  0
  161.1240  204.9590  150.2200 C   0  0  0  0  0  0  0  0  0  0  0  0
  160.4360  205.9950  150.0140 O   0  0  0  0  0  0  0  0  0  0  0  0
  161.9820  204.9050  151.4390 C   0  0  0  0  0  2  0  0  0  0  0  0
  161.1140  204.9370  152.6850 C   0  0  0  0  0  2  0  0  0  0  0  0
  160.6500  206.3490  152.9720 C   0  0  0  0  0  2  0  0  0  0  0  0
  160.9120  206.7100  154.4250 C   0  0  0  0  0  2  0  0  0  0  0  0
  162.5060  211.0580  155.2540 O   0  0  0  0  0  1  0  0  0  0  0  0
  161.0010  209.0960  153.7610 C   0  0  0  0  0  2  0  0  0  0  0  0
  160.1930  210.9300  157.0760 C   0  0  1  0  0  3  0  0  0  0  0  0
  162.0550  209.9870  156.0340 C   0  0  2  0  0  3  0  0  0  0  0  0
  161.0590  209.0990  155.2750 C   0  0  1  0  0  0  0  0  0  0  0  0
  158.3780  210.3960  155.5140 O   0  0  0  0  0  1  0  0  0  0  0  0
  159.8960  208.7060  155.9630 O   0  0  0  0  0  0  0  0  0  0  0  0
  159.2450  209.8590  156.4680 C   0  0  1  0  0  3  0  0  0  0  0  0
  161.5130  210.4430  157.2600 O   0  0  0  0  0  0  0  0  0  0  0  0
  161.7410  207.9830  154.4880 C   0  0  1  0  0  3  0  0  0  0  0  0
  160.2020  212.1070  156.3160 O   0  0  0  0  0  1  0  0  0  0  0  0
  162.5380  207.2960  147.5430 O   0  0  0  0  0  0  0  0  0  0  0  0
  162.0070  209.0590  150.7460 C   0  0  0  0  0  3  0  0  0  0  0  0
  161.8320  210.3760  150.3080 C   0  0  0  0  0  3  0  0  0  0  0  0
  162.1410  209.6530  148.0270 C   0  0  0  0  0  3  0  0  0  0  0  0
  161.9040  210.6740  148.9450 C   0  0  0  0  0  0  0  0  0  0  0  0
  162.2460  208.0400  149.8220 C   0  0  0  0  0  3  0  0  0  0  0  0
  162.3020  208.3290  148.4560 C   0  0  0  0  0  0  0  0  0  0  0  0
  160.8130  213.0860  149.3200 O   0  0  0  0  0  0  0  0  0  0  0  0
  163.0590  213.0060  148.3790 O   0  0  0  0  0  0  0  0  0  0  0  0
  161.7170  212.3300  148.3870 S   0  0  0  0  0  0  0  0  0  0  0  0
  160.2000  211.2160  146.3920 C   0  0  0  0  0  2  0  0  0  0  0  0
  160.9100  213.3660  144.4190 C   0  0  2  0  0  0  0  0  0  0  0  0
  161.1790  212.7440  141.2090 C   0  0  0  0  0  0  0  0  0  0  0  0
  160.1800  211.9310  141.5770 C   0  0  0  0  0  3  0  0  0  0  0  0
  161.4770  213.3310  145.8250 C   0  0  0  0  0  0  0  0  0  0  0  0
  163.1630  212.6000  143.4310 C   0  0  0  0  0  1  0  0  0  0  0  0
  162.0540  213.6480  143.4160 C   0  0  1  0  0  3  0  0  0  0  0  0
  159.9920  214.4220  144.3650 O   0  0  0  0  0  1  0  0  0  0  0  0
  160.1890  212.0410  144.0710 C   0  0  2  0  0  3  0  0  0  0  0  0
  162.2710  214.2410  146.1860 O   0  0  0  0  0  0  0  0  0  0  0  0
  159.3460  212.1470  142.8020 C   0  0  0  0  0  2  0  0  0  0  0  0
  159.3080  211.5820  145.2180 C   0  0  0  0  0  2  0  0  0  0  0  0
  161.0560  212.3360  146.7800 N   0  0  0  0  0  0  0  0  0  0  0  0
  162.0720  212.3760  139.7440 Cl  0  0  0  0  0  0  0  0  0  0  0  0
  161.5660  213.9650  141.9970 C   0  0  0  0  0  2  0  0  0  0  0  0
  160.3320  206.3450  147.1250 C   0  0  0  0  0  2  0  0  0  0  0  0
  159.9790  205.5910  145.8480 C   0  0  1  0  0  3  0  0  0  0  0  0
  159.1360  206.3680  145.0700 F   0  0  0  0  0  0  0  0  0  0  0  0
  160.8880  204.4060  143.9900 F   0  0  0  0  0  0  0  0  0  0  0  0
  161.2240  205.2270  145.0520 C   0  0  0  0  0  3  0  0  0  0  0  0
  161.8530  206.3660  144.5810 F   0  0  0  0  0  0  0  0  0  0  0  0
  1  3  1  0  0  0  0
  1  5  1  0  0  0  0
  2  1  2  0  0  0  0
  3 27  1  0  0  0  0
  5  7  2  0  0  0  0
  6  4  2  0  0  0  0
  7  4  1  0  0  0  0
  7 10  1  0  0  0  0
  8  9  2  0  0  0  0
  8  5  1  0  0  0  0
  9  6  1  0  0  0  0
 10 12  1  0  0  0  0
 11 10  2  0  0  0  0
 12 13  1  0  0  0  0
 13 14  1  0  0  0  0
 14 15  1  0  0  0  0
 17 25  1  0  0  0  0
 18 26  1  6  0  0  0
 18 24  1  0  0  0  0
 19 16  1  6  0  0  0
 19 24  1  0  0  0  0
 20 17  1  6  0  0  0
 20 22  1  0  0  0  0
 20 19  1  0  0  0  0
 22 23  1  0  0  0  0
 23 21  1  6  0  0  0
 23 18  1  0  0  0  0
 25 15  1  1  0  0  0
 25 20  1  0  0  0  0
 27 33  1  0  0  0  0
 29 28  1  0  0  0  0
 30 33  2  0  0  0  0
 30 31  1  0  0  0  0
 31 29  2  0  0  0  0
 32 28  2  0  0  0  0
 33 32  1  0  0  0  0
 35 36  2  0  0  0  0
 36 31  1  0  0  0  0
 36 34  2  0  0  0  0
 37 49  1  0  0  0  0
 38 44  1  6  0  0  0
 38 41  1  0  0  0  0
 39 40  2  0  0  0  0
 39 51  1  0  0  0  0
 40 47  1  0  0  0  0
 41 46  2  0  0  0  0
 41 49  1  0  0  0  0
 43 42  1  6  0  0  0
 43 38  1  0  0  0  0
 45 47  1  6  0  0  0
 45 38  1  0  0  0  0
 45 48  1  0  0  0  0
 48 37  1  0  0  0  0
 49 36  1  0  0  0  0
 50 39  1  0  0  0  0
 51 43  1  0  0  0  0
 52  3  1  0  0  0  0
 53 54  1  6  0  0  0
 53 52  1  0  0  0  0
 55 56  1  0  0  0  0
 56 53  1  0  0  0  0
 57 56  1  0  0  0  0
M  END
>  <MODEL>
2

>  <REMARK>
 VINA RESULT:      -5.2      1.516      2.130
  Name = 
  14 active torsions:
  status: ('A' for Active; 'I' for Inactive)
    1  A    between atoms: C_6  and  C_21
    2  A    between atoms: C_8  and  C_32
    3  A    between atoms: C_8  and  C_45
    4  A    between atoms: C_11  and  C_14
    5  A    between atoms: C_14  and  C_57
    6  A    between atoms: O_31  and  C_50
    7  A    between atoms: O_31  and  N_56
    8  A    between atoms: C_40  and  S_42
    9  A    between atoms: S_42  and  N_48
   10  A    between atoms: C_44  and  C_45
   11  A    between atoms: C_44  and  C_46
   12  A    between atoms: C_46  and  C_54
   13  A    between atoms: C_52  and  C_54
   14  A    between atoms: N_56  and  C_57
                            x       y       z     vdW  Elec       q    Type
                         _______ _______ _______ _____ _____    ______ ____

>  <TORSDO>
F 14

$$$$
=
 OpenBabel11072414093D

 57 62  0  0  1  0  0  0  0  0999 V2000
  161.0170  206.0730  148.8660 C   0  0  0  0  0  0  0  0  0  0  0  0
  160.1570  206.8550  148.3760 O   0  0  0  0  0  0  0  0  0  0  0  0
  162.0580  206.6060  149.7050 N   0  0  0  0  0  0  0  0  0  0  0  0
  161.5890  202.7910  147.0180 C   0  0  0  0  0  3  0  0  0  0  0  0
  161.0100  204.6450  148.4840 C   0  0  0  0  0  0  0  0  0  0  0  0
  161.2210  201.8810  148.0100 C   0  0  0  0  0  3  0  0  0  0  0  0
  161.4810  204.1750  147.2310 C   0  0  0  0  0  0  0  0  0  0  0  0
  160.6330  203.7160  149.4650 C   0  0  0  0  0  3  0  0  0  0  0  0
  160.7320  202.3430  149.2290 C   0  0  0  0  0  3  0  0  0  0  0  0
  161.7880  205.0660  146.0870 C   0  0  0  0  0  0  0  0  0  0  0  0
  162.6390  205.9850  146.2230 O   0  0  0  0  0  0  0  0  0  0  0  0
  161.1890  204.8450  144.7390 C   0  0  0  0  0  2  0  0  0  0  0  0
  162.0550  205.4960  143.6740 C   0  0  0  0  0  2  0  0  0  0  0  0
  161.1920  206.1190  142.5970 C   0  0  0  0  0  2  0  0  0  0  0  0
  161.9360  206.1520  141.2720 C   0  0  0  0  0  2  0  0  0  0  0  0
  163.0490  210.4400  139.6910 O   0  0  0  0  0  1  0  0  0  0  0  0
  163.2750  207.5610  139.7360 C   0  0  0  0  0  2  0  0  0  0  0  0
  160.5980  209.8740  138.1570 C   0  0  1  0  0  3  0  0  0  0  0  0
  161.8790  209.7940  140.1040 C   0  0  2  0  0  3  0  0  0  0  0  0
  161.9470  208.2770  139.8820 C   0  0  1  0  0  0  0  0  0  0  0  0
  161.2080  207.7820  137.0290 O   0  0  0  0  0  1  0  0  0  0  0  0
  160.8190  207.6620  139.3090 O   0  0  0  0  0  0  0  0  0  0  0  0
  160.4920  208.3250  138.1000 C   0  0  1  0  0  3  0  0  0  0  0  0
  160.7380  210.3590  139.4840 O   0  0  0  0  0  0  0  0  0  0  0  0
  162.5460  207.5300  141.0700 C   0  0  1  0  0  3  0  0  0  0  0  0
  161.6310  210.3550  137.3430 O   0  0  0  0  0  1  0  0  0  0  0  0
  162.5270  207.8960  149.5290 O   0  0  0  0  0  0  0  0  0  0  0  0
  161.3410  211.2890  150.3830 C   0  0  0  0  0  3  0  0  0  0  0  0
  161.1340  211.1680  151.7610 C   0  0  0  0  0  3  0  0  0  0  0  0
  161.8390  208.8630  151.6590 C   0  0  0  0  0  3  0  0  0  0  0  0
  161.3800  209.9500  152.4000 C   0  0  0  0  0  0  0  0  0  0  0  0
  161.7990  210.1960  149.6450 C   0  0  0  0  0  3  0  0  0  0  0  0
  162.0640  208.9810  150.2810 C   0  0  0  0  0  0  0  0  0  0  0  0
  160.3780  208.4840  154.3980 O   0  0  0  0  0  0  0  0  0  0  0  0
  162.4100  209.7520  154.8480 O   0  0  0  0  0  0  0  0  0  0  0  0
  161.0930  209.7780  154.1250 S   0  0  0  0  0  0  0  0  0  0  0  0
  160.6040  211.8120  155.8980 C   0  0  0  0  0  2  0  0  0  0  0  0
  158.0210  212.5790  154.5690 C   0  0  2  0  0  0  0  0  0  0  0  0
  155.4860  213.7670  156.2780 C   0  0  0  0  0  0  0  0  0  0  0  0
  156.5370  214.2820  156.9280 C   0  0  0  0  0  3  0  0  0  0  0  0
  158.8670  211.4120  154.0960 C   0  0  0  0  0  0  0  0  0  0  0  0
  156.2830  210.9760  155.5920 C   0  0  0  0  0  1  0  0  0  0  0  0
  156.5400  212.1390  154.6380 C   0  0  1  0  0  3  0  0  0  0  0  0
  158.1470  213.5980  153.6180 O   0  0  0  0  0  1  0  0  0  0  0  0
  158.5040  213.0990  155.9460 C   0  0  2  0  0  3  0  0  0  0  0  0
  158.4790  210.7400  153.1020 O   0  0  0  0  0  0  0  0  0  0  0  0
  157.8920  214.4500  156.3100 C   0  0  0  0  0  2  0  0  0  0  0  0
  160.0170  213.2100  155.9870 C   0  0  0  0  0  2  0  0  0  0  0  0
  160.1440  211.1160  154.6980 N   0  0  0  0  0  0  0  0  0  0  0  0
  153.9540  213.6340  157.1220 Cl  0  0  0  0  0  0  0  0  0  0  0  0
  155.5610  213.3000  154.8510 C   0  0  0  0  0  2  0  0  0  0  0  0
  162.4170  205.9050  150.9320 C   0  0  0  0  0  2  0  0  0  0  0  0
  161.3200  206.0480  151.9810 C   0  0  1  0  0  3  0  0  0  0  0  0
  160.0990  206.2310  151.3520 F   0  0  0  0  0  0  0  0  0  0  0  0
  161.2070  205.2230  154.2140 F   0  0  0  0  0  0  0  0  0  0  0  0
  161.2530  204.8280  152.8890 C   0  0  0  0  0  3  0  0  0  0  0  0
  160.1420  204.0590  152.5920 F   0  0  0  0  0  0  0  0  0  0  0  0
  1  3  1  0  0  0  0
  2  1  2  0  0  0  0
  3 52  1  0  0  0  0
  4  7  2  0  0  0  0
  4  6  1  0  0  0  0
  5  1  1  0  0  0  0
  5  8  2  0  0  0  0
  6  9  2  0  0  0  0
  7  5  1  0  0  0  0
  9  8  1  0  0  0  0
 10 11  2  0  0  0  0
 10  7  1  0  0  0  0
 12 10  1  0  0  0  0
 13 12  1  0  0  0  0
 14 13  1  0  0  0  0
 15 14  1  0  0  0  0
 17 25  1  0  0  0  0
 18 26  1  6  0  0  0
 18 24  1  0  0  0  0
 19 16  1  6  0  0  0
 20 17  1  6  0  0  0
 20 19  1  0  0  0  0
 20 25  1  0  0  0  0
 22 20  1  0  0  0  0
 23 21  1  6  0  0  0
 23 18  1  0  0  0  0
 23 22  1  0  0  0  0
 24 19  1  0  0  0  0
 25 15  1  6  0  0  0
 27  3  1  0  0  0  0
 27 33  1  0  0  0  0
 28 29  1  0  0  0  0
 29 31  2  0  0  0  0
 30 31  1  0  0  0  0
 31 36  1  0  0  0  0
 32 33  1  0  0  0  0
 32 28  2  0  0  0  0
 33 30  2  0  0  0  0
 36 34  2  0  0  0  0
 36 49  1  0  0  0  0
 36 35  2  0  0  0  0
 37 48  1  0  0  0  0
 38 44  1  6  0  0  0
 38 43  1  0  0  0  0
 38 45  1  0  0  0  0
 39 40  2  0  0  0  0
 39 50  1  0  0  0  0
 41 38  1  0  0  0  0
 41 49  1  0  0  0  0
 43 51  1  0  0  0  0
 43 42  1  1  0  0  0
 45 48  1  6  0  0  0
 45 47  1  0  0  0  0
 46 41  2  0  0  0  0
 47 40  1  0  0  0  0
 49 37  1  0  0  0  0
 51 39  1  0  0  0  0
 52 53  1  0  0  0  0
 53 54  1  6  0  0  0
 53 56  1  0  0  0  0
 56 55  1  0  0  0  0
 57 56  1  0  0  0  0
M  END
>  <MODEL>
3

>  <REMARK>
 VINA RESULT:      -4.5      4.375     10.516
  Name = 
  14 active torsions:
  status: ('A' for Active; 'I' for Inactive)
    1  A    between atoms: C_6  and  C_21
    2  A    between atoms: C_8  and  C_32
    3  A    between atoms: C_8  and  C_45
    4  A    between atoms: C_11  and  C_14
    5  A    between atoms: C_14  and  C_57
    6  A    between atoms: O_31  and  C_50
    7  A    between atoms: O_31  and  N_56
    8  A    between atoms: C_40  and  S_42
    9  A    between atoms: S_42  and  N_48
   10  A    between atoms: C_44  and  C_45
   11  A    between atoms: C_44  and  C_46
   12  A    between atoms: C_46  and  C_54
   13  A    between atoms: C_52  and  C_54
   14  A    between atoms: N_56  and  C_57
                            x       y       z     vdW  Elec       q    Type
                         _______ _______ _______ _____ _____    ______ ____

>  <TORSDO>
F 14

$$$$
=
 OpenBabel11072414093D

 57 62  0  0  1  0  0  0  0  0999 V2000
  161.1670  206.5470  150.4770 C   0  0  0  0  0  0  0  0  0  0  0  0
  161.2170  207.7730  150.7690 O   0  0  0  0  0  0  0  0  0  0  0  0
  161.1840  205.5690  151.5330 N   0  0  0  0  0  0  0  0  0  0  0  0
  161.6810  206.5020  146.7030 C   0  0  0  0  0  3  0  0  0  0  0  0
  161.2030  206.1300  149.0590 C   0  0  0  0  0  0  0  0  0  0  0  0
  161.5350  205.1370  146.4490 C   0  0  0  0  0  3  0  0  0  0  0  0
  161.5090  207.0200  147.9970 C   0  0  0  0  0  0  0  0  0  0  0  0
  161.0470  204.7640  148.7830 C   0  0  0  0  0  3  0  0  0  0  0  0
  161.2060  204.2700  147.4880 C   0  0  0  0  0  3  0  0  0  0  0  0
  161.5740  208.4910  148.1560 C   0  0  0  0  0  0  0  0  0  0  0  0
  160.6360  209.2080  147.7160 O   0  0  0  0  0  0  0  0  0  0  0  0
  162.6770  209.1490  148.9150 C   0  0  0  0  0  2  0  0  0  0  0  0
  162.3290  210.6050  149.1750 C   0  0  0  0  0  2  0  0  0  0  0  0
  163.1000  211.5100  148.2370 C   0  0  0  0  0  2  0  0  0  0  0  0
  162.6950  212.9600  148.4440 C   0  0  0  0  0  2  0  0  0  0  0  0
  158.5480  213.4460  146.2780 O   0  0  0  0  0  1  0  0  0  0  0  0
  161.0100  214.4500  147.4050 C   0  0  0  0  0  2  0  0  0  0  0  0
  160.2940  212.6960  144.0260 C   0  0  1  0  0  3  0  0  0  0  0  0
  159.5960  212.5200  146.2440 C   0  0  2  0  0  3  0  0  0  0  0  0
  160.9420  213.1580  146.6170 C   0  0  1  0  0  0  0  0  0  0  0  0
  162.0080  214.4470  144.1420 O   0  0  0  0  0  1  0  0  0  0  0  0
  162.0480  212.8390  145.8070 O   0  0  0  0  0  0  0  0  0  0  0  0
  161.7280  213.1150  144.4550 C   0  0  1  0  0  3  0  0  0  0  0  0
  159.6600  211.8680  144.9900 O   0  0  0  0  0  0  0  0  0  0  0  0
  161.2190  213.1230  148.1170 C   0  0  1  0  0  3  0  0  0  0  0  0
  159.4950  213.8070  143.7270 O   0  0  0  0  0  1  0  0  0  0  0  0
  161.8310  205.8220  152.7300 O   0  0  0  0  0  0  0  0  0  0  0  0
  159.5680  207.0400  155.3840 C   0  0  0  0  0  3  0  0  0  0  0  0
  160.1810  208.2480  155.7340 C   0  0  0  0  0  3  0  0  0  0  0  0
  161.9050  207.8410  154.0950 C   0  0  0  0  0  3  0  0  0  0  0  0
  161.3550  208.6470  155.0900 C   0  0  0  0  0  0  0  0  0  0  0  0
  160.1250  206.2350  154.3880 C   0  0  0  0  0  3  0  0  0  0  0  0
  161.2880  206.6370  153.7290 C   0  0  0  0  0  0  0  0  0  0  0  0
  162.9550  209.9420  156.7960 O   0  0  0  0  0  0  0  0  0  0  0  0
  163.0860  210.5650  154.4430 O   0  0  0  0  0  0  0  0  0  0  0  0
  162.1500  210.1470  155.5420 S   0  0  0  0  0  0  0  0  0  0  0  0
  160.7680  211.8800  157.1570 C   0  0  0  0  0  2  0  0  0  0  0  0
  159.0510  212.8790  154.9040 C   0  0  2  0  0  0  0  0  0  0  0  0
  155.9430  213.8120  155.3850 C   0  0  0  0  0  0  0  0  0  0  0  0
  156.5400  214.2050  156.5170 C   0  0  0  0  0  3  0  0  0  0  0  0
  160.0920  211.7920  154.7170 C   0  0  0  0  0  0  0  0  0  0  0  0
  157.1420  211.1550  154.7520 C   0  0  0  0  0  1  0  0  0  0  0  0
  157.7370  212.4510  154.2080 C   0  0  1  0  0  3  0  0  0  0  0  0
  159.5370  214.0340  154.2820 O   0  0  0  0  0  1  0  0  0  0  0  0
  158.8080  213.1690  156.4060 C   0  0  2  0  0  3  0  0  0  0  0  0
  160.2510  211.2900  153.5700 O   0  0  0  0  0  0  0  0  0  0  0  0
  158.0120  214.4520  156.6340 C   0  0  0  0  0  2  0  0  0  0  0  0
  160.1200  213.2540  157.1640 C   0  0  0  0  0  2  0  0  0  0  0  0
  160.9610  211.3890  155.7940 N   0  0  0  0  0  0  0  0  0  0  0  0
  154.2060  213.5650  155.3860 Cl  0  0  0  0  0  0  0  0  0  0  0  0
  156.6990  213.5750  154.1060 C   0  0  0  0  0  2  0  0  0  0  0  0
  160.2730  204.4330  151.4700 C   0  0  0  0  0  2  0  0  0  0  0  0
  161.0070  203.1300  151.7650 C   0  0  1  0  0  3  0  0  0  0  0  0
  160.3590  202.4550  152.7870 F   0  0  0  0  0  0  0  0  0  0  0  0
  161.8350  201.1110  150.8060 F   0  0  0  0  0  0  0  0  0  0  0  0
  161.0870  202.2420  150.5320 C   0  0  0  0  0  3  0  0  0  0  0  0
  159.8210  201.8730  150.1130 F   0  0  0  0  0  0  0  0  0  0  0  0
  1  2  2  0  0  0  0
  1  3  1  0  0  0  0
  3 27  1  0  0  0  0
  4  7  1  0  0  0  0
  5  1  1  0  0  0  0
  6  4  2  0  0  0  0
  6  9  1  0  0  0  0
  7 10  1  0  0  0  0
  7  5  2  0  0  0  0
  8  5  1  0  0  0  0
  9  8  2  0  0  0  0
 10 12  1  0  0  0  0
 11 10  2  0  0  0  0
 12 13  1  0  0  0  0
 14 15  1  0  0  0  0
 14 13  1  0  0  0  0
 17 25  1  0  0  0  0
 18 26  1  1  0  0  0
 18 23  1  0  0  0  0
 18 24  1  0  0  0  0
 19 16  1  6  0  0  0
 19 20  1  0  0  0  0
 20 17  1  6  0  0  0
 20 25  1  0  0  0  0
 22 20  1  0  0  0  0
 23 21  1  1  0  0  0
 23 22  1  0  0  0  0
 24 19  1  0  0  0  0
 25 15  1  6  0  0  0
 27 33  1  0  0  0  0
 28 29  1  0  0  0  0
 30 31  1  0  0  0  0
 31 36  1  0  0  0  0
 31 29  2  0  0  0  0
 32 28  2  0  0  0  0
 33 30  2  0  0  0  0
 33 32  1  0  0  0  0
 35 36  2  0  0  0  0
 36 49  1  0  0  0  0
 36 34  2  0  0  0  0
 37 48  1  0  0  0  0
 38 44  1  6  0  0  0
 38 45  1  0  0  0  0
 39 50  1  0  0  0  0
 39 40  2  0  0  0  0
 40 47  1  0  0  0  0
 41 38  1  0  0  0  0
 41 49  1  0  0  0  0
 43 42  1  1  0  0  0
 43 38  1  0  0  0  0
 45 47  1  6  0  0  0
 45 48  1  0  0  0  0
 46 41  2  0  0  0  0
 49 37  1  0  0  0  0
 51 43  1  0  0  0  0
 51 39  1  0  0  0  0
 52  3  1  0  0  0  0
 52 53  1  0  0  0  0
 53 54  1  1  0  0  0
 56 55  1  0  0  0  0
 56 53  1  0  0  0  0
 57 56  1  0  0  0  0
M  END
>  <MODEL>
4

>  <REMARK>
 VINA RESULT:      -3.6      3.744      8.914
  Name = 
  14 active torsions:
  status: ('A' for Active; 'I' for Inactive)
    1  A    between atoms: C_6  and  C_21
    2  A    between atoms: C_8  and  C_32
    3  A    between atoms: C_8  and  C_45
    4  A    between atoms: C_11  and  C_14
    5  A    between atoms: C_14  and  C_57
    6  A    between atoms: O_31  and  C_50
    7  A    between atoms: O_31  and  N_56
    8  A    between atoms: C_40  and  S_42
    9  A    between atoms: S_42  and  N_48
   10  A    between atoms: C_44  and  C_45
   11  A    between atoms: C_44  and  C_46
   12  A    between atoms: C_46  and  C_54
   13  A    between atoms: C_52  and  C_54
   14  A    between atoms: N_56  and  C_57
                            x       y       z     vdW  Elec       q    Type
                         _______ _______ _______ _____ _____    ______ ____

>  <TORSDO>
F 14

$$$$
=
 OpenBabel11072414093D

 57 62  0  0  1  0  0  0  0  0999 V2000
  161.2380  206.9040  148.8610 C   0  0  0  0  0  0  0  0  0  0  0  0
  161.2550  207.6720  147.8600 O   0  0  0  0  0  0  0  0  0  0  0  0
  161.5280  207.4390  150.1650 N   0  0  0  0  0  0  0  0  0  0  0  0
  161.2960  203.3730  147.4350 C   0  0  0  0  0  3  0  0  0  0  0  0
  161.0310  205.4530  148.6680 C   0  0  0  0  0  0  0  0  0  0  0  0
  160.8680  202.6480  148.5490 C   0  0  0  0  0  3  0  0  0  0  0  0
  161.3740  204.7740  147.4700 C   0  0  0  0  0  0  0  0  0  0  0  0
  160.5910  204.7100  149.7730 C   0  0  0  0  0  3  0  0  0  0  0  0
  160.5040  203.3180  149.7140 C   0  0  0  0  0  3  0  0  0  0  0  0
  161.7320  205.4680  146.2110 C   0  0  0  0  0  0  0  0  0  0  0  0
  162.9290  205.4670  145.8160 O   0  0  0  0  0  0  0  0  0  0  0  0
  160.6960  206.0900  145.3370 C   0  0  0  0  0  2  0  0  0  0  0  0
  160.7010  205.4230  143.9720 C   0  0  0  0  0  2  0  0  0  0  0  0
  161.9550  205.7900  143.2070 C   0  0  0  0  0  2  0  0  0  0  0  0
  161.6090  206.2140  141.7900 C   0  0  0  0  0  2  0  0  0  0  0  0
  163.1390  210.1660  139.7470 O   0  0  0  0  0  1  0  0  0  0  0  0
  163.2970  207.3520  140.3770 C   0  0  0  0  0  2  0  0  0  0  0  0
  161.1090  209.2600  137.8120 C   0  0  1  0  0  3  0  0  0  0  0  0
  161.8930  209.5760  139.9860 C   0  0  2  0  0  3  0  0  0  0  0  0
  161.9850  208.0460  140.0720 C   0  0  1  0  0  0  0  0  0  0  0  0
  161.9310  207.0140  137.2680 O   0  0  0  0  0  1  0  0  0  0  0  0
  161.0130  207.3050  139.3730 O   0  0  0  0  0  0  0  0  0  0  0  0
  160.9930  207.7250  138.0210 C   0  0  1  0  0  3  0  0  0  0  0  0
  160.9420  209.9850  139.0210 O   0  0  0  0  0  0  0  0  0  0  0  0
  162.2740  207.5470  141.4850 C   0  0  1  0  0  3  0  0  0  0  0  0
  162.3140  209.6110  137.1890 O   0  0  0  0  0  1  0  0  0  0  0  0
  162.3730  208.5240  150.3200 O   0  0  0  0  0  0  0  0  0  0  0  0
  162.3960  211.3470  147.9370 C   0  0  0  0  0  3  0  0  0  0  0  0
  161.5960  212.2790  148.6070 C   0  0  0  0  0  3  0  0  0  0  0  0
  161.2970  210.7100  150.4160 C   0  0  0  0  0  3  0  0  0  0  0  0
  161.0410  211.9570  149.8490 C   0  0  0  0  0  0  0  0  0  0  0  0
  162.6470  210.0980  148.5090 C   0  0  0  0  0  3  0  0  0  0  0  0
  162.1090  209.7780  149.7580 C   0  0  0  0  0  0  0  0  0  0  0  0
  160.7030  214.4380  150.7860 O   0  0  0  0  0  0  0  0  0  0  0  0
  158.7390  213.2950  149.9050 O   0  0  0  0  0  0  0  0  0  0  0  0
  160.0100  213.1070  150.6850 S   0  0  0  0  0  0  0  0  0  0  0  0
  160.0180  211.1370  152.5930 C   0  0  0  0  0  2  0  0  0  0  0  0
  158.4820  212.8030  154.5640 C   0  0  2  0  0  0  0  0  0  0  0  0
  156.3780  211.4590  156.6920 C   0  0  0  0  0  0  0  0  0  0  0  0
  157.3380  210.5290  156.6110 C   0  0  0  0  0  3  0  0  0  0  0  0
  158.8210  213.2950  153.1700 C   0  0  0  0  0  0  0  0  0  0  0  0
  156.0170  212.4530  153.9030 C   0  0  0  0  0  1  0  0  0  0  0  0
  156.9970  213.1140  154.8670 C   0  0  1  0  0  3  0  0  0  0  0  0
  159.2860  213.5130  155.4640 O   0  0  0  0  0  1  0  0  0  0  0  0
  158.7660  211.2880  154.7090 C   0  0  2  0  0  3  0  0  0  0  0  0
  158.4520  214.4500  152.8240 O   0  0  0  0  0  0  0  0  0  0  0  0
  158.7370  210.8210  156.1630 C   0  0  0  0  0  2  0  0  0  0  0  0
  160.1050  210.9220  154.0940 C   0  0  0  0  0  2  0  0  0  0  0  0
  159.6310  212.5100  152.2720 N   0  0  0  0  0  0  0  0  0  0  0  0
  154.7820  210.9790  157.2400 Cl  0  0  0  0  0  0  0  0  0  0  0  0
  156.6100  212.9010  156.3360 C   0  0  0  0  0  2  0  0  0  0  0  0
  160.7070  207.0390  151.3010 C   0  0  0  0  0  2  0  0  0  0  0  0
  161.4810  207.1740  152.6070 C   0  0  1  0  0  3  0  0  0  0  0  0
  160.7150  207.8640  153.5320 F   0  0  0  0  0  0  0  0  0  0  0  0
  160.7970  204.9400  153.0830 F   0  0  0  0  0  0  0  0  0  0  0  0
  161.8670  205.8130  153.1710 C   0  0  0  0  0  3  0  0  0  0  0  0
  162.9520  205.2920  152.4890 F   0  0  0  0  0  0  0  0  0  0  0  0
  1  3  1  0  0  0  0
  2  1  2  0  0  0  0
  3 27  1  0  0  0  0
  3 52  1  0  0  0  0
  4  7  2  0  0  0  0
  4  6  1  0  0  0  0
  5  1  1  0  0  0  0
  5  8  2  0  0  0  0
  6  9  2  0  0  0  0
  7  5  1  0  0  0  0
  9  8  1  0  0  0  0
 10  7  1  0  0  0  0
 11 10  2  0  0  0  0
 12 10  1  0  0  0  0
 13 12  1  0  0  0  0
 14 13  1  0  0  0  0
 15 14  1  0  0  0  0
 17 25  1  0  0  0  0
 18 26  1  1  0  0  0
 18 23  1  0  0  0  0
 18 24  1  0  0  0  0
 19 16  1  6  0  0  0
 19 20  1  0  0  0  0
 20 17  1  6  0  0  0
 20 25  1  0  0  0  0
 22 20  1  0  0  0  0
 23 21  1  6  0  0  0
 23 22  1  0  0  0  0
 24 19  1  0  0  0  0
 25 15  1  6  0  0  0
 28 32  2  0  0  0  0
 28 29  1  0  0  0  0
 29 31  2  0  0  0  0
 31 30  1  0  0  0  0
 31 36  1  0  0  0  0
 32 33  1  0  0  0  0
 33 27  1  0  0  0  0
 33 30  2  0  0  0  0
 35 36  2  0  0  0  0
 36 34  2  0  0  0  0
 36 49  1  0  0  0  0
 37 48  1  0  0  0  0
 38 45  1  0  0  0  0
 38 43  1  0  0  0  0
 38 44  1  1  0  0  0
 39 50  1  0  0  0  0
 40 39  2  0  0  0  0
 41 38  1  0  0  0  0
 43 42  1  6  0  0  0
 43 51  1  0  0  0  0
 45 48  1  1  0  0  0
 45 47  1  0  0  0  0
 46 41  2  0  0  0  0
 47 40  1  0  0  0  0
 49 37  1  0  0  0  0
 49 41  1  0  0  0  0
 51 39  1  0  0  0  0
 52 53  1  0  0  0  0
 53 56  1  0  0  0  0
 53 54  1  1  0  0  0
 55 56  1  0  0  0  0
 57 56  1  0  0  0  0
M  END
>  <MODEL>
5

>  <REMARK>
 VINA RESULT:      -3.6      4.237     10.274
  Name = 
  14 active torsions:
  status: ('A' for Active; 'I' for Inactive)
    1  A    between atoms: C_6  and  C_21
    2  A    between atoms: C_8  and  C_32
    3  A    between atoms: C_8  and  C_45
    4  A    between atoms: C_11  and  C_14
    5  A    between atoms: C_14  and  C_57
    6  A    between atoms: O_31  and  C_50
    7  A    between atoms: O_31  and  N_56
    8  A    between atoms: C_40  and  S_42
    9  A    between atoms: S_42  and  N_48
   10  A    between atoms: C_44  and  C_45
   11  A    between atoms: C_44  and  C_46
   12  A    between atoms: C_46  and  C_54
   13  A    between atoms: C_52  and  C_54
   14  A    between atoms: N_56  and  C_57
                            x       y       z     vdW  Elec       q    Type
                         _______ _______ _______ _____ _____    ______ ____

>  <TORSDO>
F 14

$$$$
