=
 OpenBabel11072414203D

 56 60  0  0  1  0  0  0  0  0999 V2000
  159.0760  211.9620  152.2040 C   0  0  1  0  0  3  0  0  0  0  0  0
  156.8040  212.1060  153.3120 C   0  0  0  0  0  2  0  0  0  0  0  0
  156.4700  213.1700  154.3410 C   0  0  0  0  0  2  0  0  0  0  0  0
  157.8050  213.7200  154.7930 C   0  0  2  0  0  3  0  0  0  0  0  0
  158.7910  212.5580  154.6950 C   0  0  2  0  0  3  0  0  0  0  0  0
  158.2770  211.7540  153.5020 C   0  0  2  0  0  3  0  0  0  0  0  0
  157.7160  214.2730  156.1370 N   0  0  0  0  0  1  0  0  0  0  0  0
  158.7410  211.6660  155.9430 C   0  0  0  0  0  2  0  0  0  0  0  0
  158.6150  210.1880  155.5920 C   0  0  0  0  0  2  0  0  0  0  0  0
  159.7530  209.3490  156.1650 C   0  0  2  0  0  3  0  0  0  0  0  0
  160.5210  210.0780  157.2590 C   0  0  0  0  0  1  0  0  0  0  0  0
  160.6580  208.7930  155.0540 C   0  0  0  0  0  2  0  0  0  0  0  0
  160.4590  207.3150  154.6720 C   0  0  2  0  0  3  0  0  0  0  0  0
  159.7960  206.6260  155.6900 O   0  0  0  0  0  0  0  0  0  0  0  0
  160.6940  206.6180  156.7570 C   0  0  0  0  0  1  0  0  0  0  0  0
  161.7610  206.6040  154.3210 C   0  0  0  0  0  2  0  0  0  0  0  0
  161.8890  206.4020  152.8210 C   0  0  0  0  0  2  0  0  0  0  0  0
  160.2250  204.7120  152.1270 N   0  0  0  0  0  0  0  0  0  0  0  0
  160.5820  205.9560  152.2530 C   0  0  0  0  0  3  0  0  0  0  0  0
  160.9640  203.5920  152.5590 N   0  0  0  0  0  2  0  0  0  0  0  0
  161.4910  202.5540  151.6820 C   0  0  0  0  0  2  0  0  0  0  0  0
  160.1010  201.0340  148.9040 C   0  0  1  0  0  3  0  0  0  0  0  0
  161.9090  204.6430  149.6720 O   0  0  0  0  0  0  0  0  0  0  0  0
  160.7370  201.7940  147.7130 C   0  0  2  0  0  3  0  0  0  0  0  0
  160.8730  202.6520  150.3630 N   0  0  0  0  0  0  0  0  0  0  0  0
  161.5660  200.8070  148.5360 C   0  0  0  0  0  2  0  0  0  0  0  0
  159.8110  201.8620  150.0390 O   0  0  0  0  0  0  0  0  0  0  0  0
  161.3290  203.5640  149.3750 C   0  0  0  0  0  0  0  0  0  0  0  0
  161.1560  203.1690  148.0220 N   0  0  0  0  0  2  0  0  0  0  0  0
  159.8930  214.4530  152.6340 C   0  0  0  0  0  1  0  0  0  0  0  0
  159.4610  213.6700  150.2420 C   0  0  2  0  0  3  0  0  0  0  0  0
  159.2300  213.4240  151.7310 C   0  0  1  0  0  0  0  0  0  0  0  0
  158.1150  213.9870  150.8780 C   0  0  0  0  0  2  0  0  0  0  0  0
  159.3210  212.4070  149.3870 C   0  0  0  0  0  2  0  0  0  0  0  0
  159.9360  213.6620  147.2650 C   0  0  2  0  0  3  0  0  0  0  0  0
  160.6390  214.4530  145.1070 O   0  0  0  0  0  0  0  0  0  0  0  0
  162.1750  213.1640  146.2040 O   0  0  0  0  0  0  0  0  0  0  0  0
  160.9180  213.7650  146.1250 C   0  0  0  0  0  0  0  0  0  0  0  0
  162.6020  212.4560  147.3280 C   0  0  0  0  0  0  0  0  0  0  0  0
  160.2200  212.4300  148.1420 C   0  0  1  0  0  3  0  0  0  0  0  0
  161.7050  212.2900  148.5250 C   0  0  1  0  0  3  0  0  0  0  0  0
  163.7840  212.0180  147.3570 O   0  0  0  0  0  0  0  0  0  0  0  0
  161.4160  209.7810  148.6450 N   0  0  0  0  0  2  0  0  0  0  0  0
  162.6130  210.9370  150.2890 O   0  0  0  0  0  0  0  0  0  0  0  0
  161.9630  210.9760  149.2080 C   0  0  0  0  0  0  0  0  0  0  0  0
  161.6080  208.4760  149.2680 C   0  0  2  0  0  3  0  0  0  0  0  0
  162.4650  208.6170  150.5220 C   0  0  0  0  0  1  0  0  0  0  0  0
  162.1900  207.5170  148.2660 C   0  0  0  0  0  0  0  0  0  0  0  0
  163.3280  207.1070  148.4430 O   0  0  0  0  0  0  0  0  0  0  0  0
  161.4050  207.0410  147.0770 C   0  0  2  0  0  3  0  0  0  0  0  0
  160.1260  206.4980  147.5020 N   0  0  0  0  0  1  0  0  0  0  0  0
  162.1850  205.9860  146.3170 C   0  0  0  0  0  1  0  0  0  0  0  0
  158.5030  213.5950  146.7390 C   0  0  0  0  0  2  0  0  0  0  0  0
  158.3480  212.4180  145.7890 C   0  0  0  0  0  1  0  0  0  0  0  0
  160.3960  211.2600  152.2690 C   0  0  0  0  0  3  0  0  0  0  0  0
  161.2510  211.6280  153.0580 O   0  0  0  0  0  0  0  0  0  0  0  0
  1 55  1  1  0  0  0
  2  6  1  0  0  0  0
  2  3  1  0  0  0  0
  3  4  1  0  0  0  0
  4  7  1  1  0  0  0
  5  4  1  0  0  0  0
  5  8  1  1  0  0  0
  6  1  1  6  0  0  0
  6  5  1  0  0  0  0
  9  8  1  0  0  0  0
  9 10  1  0  0  0  0
 10 11  1  1  0  0  0
 12 10  1  0  0  0  0
 13 16  1  1  0  0  0
 13 12  1  0  0  0  0
 13 14  1  0  0  0  0
 14 15  1  0  0  0  0
 17 16  1  0  0  0  0
 18 19  2  0  0  0  0
 18 20  1  0  0  0  0
 19 17  1  0  0  0  0
 21 20  1  0  0  0  0
 22 26  1  1  0  0  0
 22 27  1  0  0  0  0
 24 29  1  0  0  0  0
 24 26  1  1  0  0  0
 24 22  1  0  0  0  0
 25 21  1  0  0  0  0
 27 25  1  0  0  0  0
 28 23  2  0  0  0  0
 28 25  1  0  0  0  0
 29 28  1  0  0  0  0
 31 34  1  6  0  0  0
 31 33  1  0  0  0  0
 31 32  1  0  0  0  0
 32  1  1  0  0  0  0
 32 30  1  1  0  0  0
 33 32  1  0  0  0  0
 35 53  1  6  0  0  0
 35 40  1  0  0  0  0
 36 38  2  0  0  0  0
 37 39  1  0  0  0  0
 38 37  1  0  0  0  0
 38 35  1  0  0  0  0
 39 42  2  0  0  0  0
 39 41  1  0  0  0  0
 40 41  1  0  0  0  0
 40 34  1  1  0  0  0
 41 45  1  6  0  0  0
 43 45  1  0  0  0  0
 43 46  1  0  0  0  0
 45 44  2  0  0  0  0
 46 47  1  1  0  0  0
 48 49  2  0  0  0  0
 48 46  1  0  0  0  0
 50 52  1  1  0  0  0
 50 51  1  0  0  0  0
 50 48  1  0  0  0  0
 54 53  1  0  0  0  0
 55 56  2  0  0  0  0
M  END
>  <MODEL>
1

>  <REMARK>
 VINA RESULT:      -3.2      0.000      0.000
  Name = 
  22 active torsions:
  status: ('A' for Active; 'I' for Inactive)
    1  A    between atoms: C_3  and  C_9
    2  A    between atoms: C_4  and  C_7
    3  A    between atoms: C_4  and  C_38
    4  A    between atoms: N_5  and  C_10
    5  A    between atoms: C_7  and  O_13
    6  A    between atoms: C_7  and  C_35
    7  A    between atoms: C_8  and  C_17
    8  A    between atoms: C_9  and  C_41
    9  A    between atoms: C_10  and  C_18
   10  A    between atoms: C_11  and  N_34
   11  A    between atoms: C_11  and  N_45
   12  A    between atoms: C_12  and  C_35
   13  A    between atoms: C_12  and  C_39
   14  A    between atoms: C_18  and  C_24
   15  A    between atoms: C_19  and  C_46
   16  A    between atoms: N_21  and  N_45
   17  A    between atoms: C_25  and  C_31
   18  A    between atoms: C_25  and  C_40
   19  A    between atoms: C_25  and  C_49
   20  A    between atoms: C_28  and  C_44
   21  A    between atoms: C_33  and  C_38
   22  A    between atoms: C_39  and  C_44
                            x       y       z     vdW  Elec       q    Type
                         _______ _______ _______ _____ _____    ______ ____

>  <TORSDO>
F 22

$$$$
=
 OpenBabel11072414203D

 56 60  0  0  1  0  0  0  0  0999 V2000
  161.2470  207.6010  149.7030 C   0  0  1  0  0  3  0  0  0  0  0  0
  160.2990  205.2580  149.5710 C   0  0  0  0  0  2  0  0  0  0  0  0
  161.0150  204.1330  148.8460 C   0  0  0  0  0  2  0  0  0  0  0  0
  162.0380  204.8150  147.9650 C   0  0  2  0  0  3  0  0  0  0  0  0
  161.4260  206.1580  147.5760 C   0  0  2  0  0  3  0  0  0  0  0  0
  160.5950  206.5400  148.7990 C   0  0  2  0  0  3  0  0  0  0  0  0
  162.3720  203.9900  146.8120 N   0  0  0  0  0  1  0  0  0  0  0  0
  160.4860  206.0230  146.3700 C   0  0  0  0  0  2  0  0  0  0  0  0
  161.0460  206.6960  145.1230 C   0  0  0  0  0  2  0  0  0  0  0  0
  160.8920  205.8370  143.8720 C   0  0  2  0  0  3  0  0  0  0  0  0
  160.4940  204.4040  144.1950 C   0  0  0  0  0  1  0  0  0  0  0  0
  162.1280  205.9350  142.9640 C   0  0  0  0  0  2  0  0  0  0  0  0
  161.8810  206.3180  141.4940 C   0  0  2  0  0  3  0  0  0  0  0  0
  163.0450  206.1590  140.7390 O   0  0  0  0  0  0  0  0  0  0  0  0
  162.6160  205.5860  139.5410 C   0  0  0  0  0  1  0  0  0  0  0  0
  161.3360  207.7320  141.3230 C   0  0  0  0  0  2  0  0  0  0  0  0
  162.0220  208.4500  140.1750 C   0  0  0  0  0  2  0  0  0  0  0  0
  160.2500  209.8010  139.1070 N   0  0  0  0  0  0  0  0  0  0  0  0
  161.0300  208.7600  139.1020 C   0  0  0  0  0  3  0  0  0  0  0  0
  160.2520  210.8330  140.0670 N   0  0  0  0  0  2  0  0  0  0  0  0
  159.9790  212.2360  139.7810 C   0  0  0  0  0  2  0  0  0  0  0  0
  162.4880  213.1140  137.5700 C   0  0  1  0  0  3  0  0  0  0  0  0
  162.1460  212.8420  141.6560 O   0  0  0  0  0  0  0  0  0  0  0  0
  163.7870  212.9280  138.3960 C   0  0  2  0  0  3  0  0  0  0  0  0
  161.2250  212.9410  139.4970 N   0  0  0  0  0  0  0  0  0  0  0  0
  163.0020  211.7130  137.8980 C   0  0  0  0  0  2  0  0  0  0  0  0
  161.3810  213.6210  138.3270 O   0  0  0  0  0  0  0  0  0  0  0  0
  162.3110  212.9640  140.4120 C   0  0  0  0  0  0  0  0  0  0  0  0
  163.6100  213.0700  139.8480 N   0  0  0  0  0  2  0  0  0  0  0  0
  163.3130  206.4040  150.8680 C   0  0  0  0  0  1  0  0  0  0  0  0
  161.7340  207.8330  152.2770 C   0  0  2  0  0  3  0  0  0  0  0  0
  161.9500  207.0700  150.9710 C   0  0  1  0  0  0  0  0  0  0  0  0
  161.0640  206.4850  152.0490 C   0  0  0  0  0  2  0  0  0  0  0  0
  160.6780  208.9360  152.1700 C   0  0  0  0  0  2  0  0  0  0  0  0
  161.1350  208.9110  154.6700 C   0  0  2  0  0  3  0  0  0  0  0  0
  161.1620  209.0560  157.0680 O   0  0  0  0  0  0  0  0  0  0  0  0
  160.5630  210.9840  155.9970 O   0  0  0  0  0  0  0  0  0  0  0  0
  160.9340  209.6390  155.9750 C   0  0  0  0  0  0  0  0  0  0  0  0
  160.3720  211.7320  154.8340 C   0  0  0  0  0  0  0  0  0  0  0  0
  160.3540  209.5810  153.5260 C   0  0  1  0  0  3  0  0  0  0  0  0
  160.5470  211.1080  153.4760 C   0  0  1  0  0  3  0  0  0  0  0  0
  160.1240  212.9630  154.9390 O   0  0  0  0  0  0  0  0  0  0  0  0
  160.0210  212.9290  151.8020 N   0  0  0  0  0  2  0  0  0  0  0  0
  158.4720  211.2410  152.2730 O   0  0  0  0  0  0  0  0  0  0  0  0
  159.6160  211.7350  152.4770 C   0  0  0  0  0  0  0  0  0  0  0  0
  159.1580  213.6030  150.8380 C   0  0  2  0  0  3  0  0  0  0  0  0
  157.7160  213.1390  151.0160 C   0  0  0  0  0  1  0  0  0  0  0  0
  159.6790  213.3760  149.4470 C   0  0  0  0  0  0  0  0  0  0  0  0
  158.9010  212.9850  148.5880 O   0  0  0  0  0  0  0  0  0  0  0  0
  161.1150  213.6330  149.0860 C   0  0  2  0  0  3  0  0  0  0  0  0
  161.1940  214.4470  147.8850 N   0  0  0  0  0  1  0  0  0  0  0  0
  161.8490  212.3240  148.8700 C   0  0  0  0  0  1  0  0  0  0  0  0
  160.7050  207.4500  154.7940 C   0  0  0  0  0  2  0  0  0  0  0  0
  159.4490  207.3430  155.6440 C   0  0  0  0  0  1  0  0  0  0  0  0
  162.1420  208.5030  148.9110 C   0  0  0  0  0  3  0  0  0  0  0  0
  161.6650  209.3420  148.1650 O   0  0  0  0  0  0  0  0  0  0  0  0
  1 55  1  6  0  0  0
  1 32  1  0  0  0  0
  3  2  1  0  0  0  0
  4  7  1  6  0  0  0
  4  3  1  0  0  0  0
  5  8  1  6  0  0  0
  5  4  1  0  0  0  0
  5  6  1  0  0  0  0
  6  2  1  0  0  0  0
  6  1  1  1  0  0  0
  9  8  1  0  0  0  0
 10 11  1  1  0  0  0
 10  9  1  0  0  0  0
 12 10  1  0  0  0  0
 13 16  1  1  0  0  0
 13 12  1  0  0  0  0
 14 13  1  0  0  0  0
 15 14  1  0  0  0  0
 17 16  1  0  0  0  0
 18 20  1  0  0  0  0
 19 18  2  0  0  0  0
 19 17  1  0  0  0  0
 21 20  1  0  0  0  0
 22 26  1  1  0  0  0
 22 27  1  0  0  0  0
 22 24  1  0  0  0  0
 24 26  1  1  0  0  0
 24 29  1  0  0  0  0
 25 21  1  0  0  0  0
 25 28  1  0  0  0  0
 27 25  1  0  0  0  0
 28 23  2  0  0  0  0
 29 28  1  0  0  0  0
 31 34  1  6  0  0  0
 32 30  1  6  0  0  0
 32 33  1  0  0  0  0
 32 31  1  0  0  0  0
 33 31  1  0  0  0  0
 35 53  1  1  0  0  0
 35 38  1  0  0  0  0
 38 37  1  0  0  0  0
 38 36  2  0  0  0  0
 39 42  2  0  0  0  0
 39 37  1  0  0  0  0
 40 34  1  6  0  0  0
 40 35  1  0  0  0  0
 41 45  1  6  0  0  0
 41 40  1  0  0  0  0
 41 39  1  0  0  0  0
 43 45  1  0  0  0  0
 44 45  2  0  0  0  0
 46 47  1  6  0  0  0
 46 43  1  0  0  0  0
 48 46  1  0  0  0  0
 49 48  2  0  0  0  0
 50 52  1  6  0  0  0
 50 48  1  0  0  0  0
 51 50  1  0  0  0  0
 53 54  1  0  0  0  0
 56 55  2  0  0  0  0
M  END
>  <MODEL>
2

>  <REMARK>
 VINA RESULT:      -3.1      4.541     10.942
  Name = 
  22 active torsions:
  status: ('A' for Active; 'I' for Inactive)
    1  A    between atoms: C_3  and  C_9
    2  A    between atoms: C_4  and  C_7
    3  A    between atoms: C_4  and  C_38
    4  A    between atoms: N_5  and  C_10
    5  A    between atoms: C_7  and  O_13
    6  A    between atoms: C_7  and  C_35
    7  A    between atoms: C_8  and  C_17
    8  A    between atoms: C_9  and  C_41
    9  A    between atoms: C_10  and  C_18
   10  A    between atoms: C_11  and  N_34
   11  A    between atoms: C_11  and  N_45
   12  A    between atoms: C_12  and  C_35
   13  A    between atoms: C_12  and  C_39
   14  A    between atoms: C_18  and  C_24
   15  A    between atoms: C_19  and  C_46
   16  A    between atoms: N_21  and  N_45
   17  A    between atoms: C_25  and  C_31
   18  A    between atoms: C_25  and  C_40
   19  A    between atoms: C_25  and  C_49
   20  A    between atoms: C_28  and  C_44
   21  A    between atoms: C_33  and  C_38
   22  A    between atoms: C_39  and  C_44
                            x       y       z     vdW  Elec       q    Type
                         _______ _______ _______ _____ _____    ______ ____

>  <TORSDO>
F 22

$$$$
=
 OpenBabel11072414203D

 56 60  0  0  1  0  0  0  0  0999 V2000
  161.1120  207.8020  149.5130 C   0  0  1  0  0  3  0  0  0  0  0  0
  160.3480  205.3890  149.4970 C   0  0  0  0  0  2  0  0  0  0  0  0
  161.1380  204.2920  148.8080 C   0  0  0  0  0  2  0  0  0  0  0  0
  162.0930  205.0120  147.8810 C   0  0  2  0  0  3  0  0  0  0  0  0
  161.3730  206.2860  147.4460 C   0  0  2  0  0  3  0  0  0  0  0  0
  160.5320  206.6560  148.6660 C   0  0  2  0  0  3  0  0  0  0  0  0
  162.4730  204.1660  146.7590 N   0  0  0  0  0  1  0  0  0  0  0  0
  160.4290  206.0260  146.2640 C   0  0  0  0  0  2  0  0  0  0  0  0
  160.9000  206.7120  144.9870 C   0  0  0  0  0  2  0  0  0  0  0  0
  160.8930  205.7780  143.7810 C   0  0  2  0  0  3  0  0  0  0  0  0
  160.7110  204.3190  144.1750 C   0  0  0  0  0  1  0  0  0  0  0  0
  162.1120  206.0160  142.8750 C   0  0  0  0  0  2  0  0  0  0  0  0
  161.8250  206.3680  141.4040 C   0  0  2  0  0  3  0  0  0  0  0  0
  162.9520  206.1360  140.6130 O   0  0  0  0  0  0  0  0  0  0  0  0
  162.4420  205.8130  139.3540 C   0  0  0  0  0  1  0  0  0  0  0  0
  161.3360  207.7980  141.2120 C   0  0  0  0  0  2  0  0  0  0  0  0
  162.3040  208.6010  140.3600 C   0  0  0  0  0  2  0  0  0  0  0  0
  161.0880  210.4520  139.2650 N   0  0  0  0  0  0  0  0  0  0  0  0
  161.5740  209.2460  139.2290 C   0  0  0  0  0  3  0  0  0  0  0  0
  161.2240  211.3670  140.3280 N   0  0  0  0  0  2  0  0  0  0  0  0
  160.7750  212.7530  140.2960 C   0  0  0  0  0  2  0  0  0  0  0  0
  157.4210  212.7700  139.4560 C   0  0  1  0  0  3  0  0  0  0  0  0
  159.6600  214.1640  142.6070 O   0  0  0  0  0  0  0  0  0  0  0  0
  156.8350  213.9260  140.3060 C   0  0  2  0  0  3  0  0  0  0  0  0
  159.3730  212.8350  140.6910 N   0  0  0  0  0  0  0  0  0  0  0  0
  157.7180  214.2240  139.0920 C   0  0  0  0  0  2  0  0  0  0  0  0
  158.4460  212.0180  140.1190 O   0  0  0  0  0  0  0  0  0  0  0  0
  158.9140  213.7440  141.6820 C   0  0  0  0  0  0  0  0  0  0  0  0
  157.5800  214.2110  141.5410 N   0  0  0  0  0  2  0  0  0  0  0  0
  163.2450  206.8200  150.7560 C   0  0  0  0  0  1  0  0  0  0  0  0
  161.5410  208.1880  152.0790 C   0  0  2  0  0  3  0  0  0  0  0  0
  161.8340  207.3850  150.8130 C   0  0  1  0  0  0  0  0  0  0  0  0
  160.9790  206.7840  151.9070 C   0  0  0  0  0  2  0  0  0  0  0  0
  160.4070  209.2020  151.9080 C   0  0  0  0  0  2  0  0  0  0  0  0
  160.6550  209.1800  154.4370 C   0  0  2  0  0  3  0  0  0  0  0  0
  160.4970  209.3560  156.8280 O   0  0  0  0  0  0  0  0  0  0  0  0
  160.1230  211.3050  155.6950 O   0  0  0  0  0  0  0  0  0  0  0  0
  160.4000  209.9380  155.7150 C   0  0  0  0  0  0  0  0  0  0  0  0
  160.0810  212.0490  154.5150 C   0  0  0  0  0  0  0  0  0  0  0  0
  160.0190  209.8870  153.2270 C   0  0  1  0  0  3  0  0  0  0  0  0
  160.3220  211.3950  153.1810 C   0  0  1  0  0  3  0  0  0  0  0  0
  159.9120  213.2960  154.5880 O   0  0  0  0  0  0  0  0  0  0  0  0
  160.2070  212.8080  151.0860 N   0  0  0  0  0  2  0  0  0  0  0  0
  158.2610  212.0300  152.1240 O   0  0  0  0  0  0  0  0  0  0  0  0
  159.5220  212.0720  152.1030 C   0  0  0  0  0  0  0  0  0  0  0  0
  159.4920  213.5070  150.0240 C   0  0  2  0  0  3  0  0  0  0  0  0
  158.0970  212.9130  149.8560 C   0  0  0  0  0  1  0  0  0  0  0  0
  160.3020  213.4680  148.7580 C   0  0  0  0  0  0  0  0  0  0  0  0
  161.5190  213.5570  148.8400 O   0  0  0  0  0  0  0  0  0  0  0  0
  159.6590  213.3040  147.4110 C   0  0  2  0  0  3  0  0  0  0  0  0
  160.0360  212.0290  146.8250 N   0  0  0  0  0  1  0  0  0  0  0  0
  160.0680  214.4350  146.4880 C   0  0  0  0  0  1  0  0  0  0  0  0
  160.1150  207.7540  154.5370 C   0  0  0  0  0  2  0  0  0  0  0  0
  161.1160  206.8640  155.2560 C   0  0  0  0  0  1  0  0  0  0  0  0
  161.9590  208.7090  148.6770 C   0  0  0  0  0  3  0  0  0  0  0  0
  162.0650  209.8910  148.9650 O   0  0  0  0  0  0  0  0  0  0  0  0
  1 55  1  6  0  0  0
  1 32  1  0  0  0  0
  3  2  1  0  0  0  0
  4  7  1  6  0  0  0
  4  3  1  0  0  0  0
  5  8  1  6  0  0  0
  5  4  1  0  0  0  0
  5  6  1  0  0  0  0
  6  2  1  0  0  0  0
  6  1  1  1  0  0  0
  9  8  1  0  0  0  0
 10 11  1  1  0  0  0
 10  9  1  0  0  0  0
 12 10  1  0  0  0  0
 13 16  1  1  0  0  0
 13 12  1  0  0  0  0
 14 13  1  0  0  0  0
 15 14  1  0  0  0  0
 17 16  1  0  0  0  0
 18 20  1  0  0  0  0
 19 18  2  0  0  0  0
 19 17  1  0  0  0  0
 21 20  1  0  0  0  0
 21 25  1  0  0  0  0
 22 26  1  6  0  0  0
 22 27  1  0  0  0  0
 22 24  1  0  0  0  0
 24 26  1  6  0  0  0
 24 29  1  0  0  0  0
 25 28  1  0  0  0  0
 27 25  1  0  0  0  0
 28 23  2  0  0  0  0
 29 28  1  0  0  0  0
 31 34  1  6  0  0  0
 32 30  1  6  0  0  0
 32 33  1  0  0  0  0
 32 31  1  0  0  0  0
 33 31  1  0  0  0  0
 35 53  1  1  0  0  0
 35 38  1  0  0  0  0
 37 38  1  0  0  0  0
 38 36  2  0  0  0  0
 39 42  2  0  0  0  0
 39 37  1  0  0  0  0
 40 34  1  6  0  0  0
 40 35  1  0  0  0  0
 41 45  1  6  0  0  0
 41 40  1  0  0  0  0
 41 39  1  0  0  0  0
 43 45  1  0  0  0  0
 45 44  2  0  0  0  0
 46 47  1  6  0  0  0
 46 43  1  0  0  0  0
 48 49  2  0  0  0  0
 48 46  1  0  0  0  0
 50 52  1  6  0  0  0
 50 48  1  0  0  0  0
 51 50  1  0  0  0  0
 53 54  1  0  0  0  0
 55 56  2  0  0  0  0
M  END
>  <MODEL>
3

>  <REMARK>
 VINA RESULT:      -2.8      4.146     10.792
  Name = 
  22 active torsions:
  status: ('A' for Active; 'I' for Inactive)
    1  A    between atoms: C_3  and  C_9
    2  A    between atoms: C_4  and  C_7
    3  A    between atoms: C_4  and  C_38
    4  A    between atoms: N_5  and  C_10
    5  A    between atoms: C_7  and  O_13
    6  A    between atoms: C_7  and  C_35
    7  A    between atoms: C_8  and  C_17
    8  A    between atoms: C_9  and  C_41
    9  A    between atoms: C_10  and  C_18
   10  A    between atoms: C_11  and  N_34
   11  A    between atoms: C_11  and  N_45
   12  A    between atoms: C_12  and  C_35
   13  A    between atoms: C_12  and  C_39
   14  A    between atoms: C_18  and  C_24
   15  A    between atoms: C_19  and  C_46
   16  A    between atoms: N_21  and  N_45
   17  A    between atoms: C_25  and  C_31
   18  A    between atoms: C_25  and  C_40
   19  A    between atoms: C_25  and  C_49
   20  A    between atoms: C_28  and  C_44
   21  A    between atoms: C_33  and  C_38
   22  A    between atoms: C_39  and  C_44
                            x       y       z     vdW  Elec       q    Type
                         _______ _______ _______ _____ _____    ______ ____

>  <TORSDO>
F 22

$$$$
=
 OpenBabel11072414203D

 56 60  0  0  1  0  0  0  0  0999 V2000
  161.1720  207.5150  149.6850 C   0  0  1  0  0  3  0  0  0  0  0  0
  160.1290  205.2230  149.4280 C   0  0  0  0  0  2  0  0  0  0  0  0
  160.8590  204.0700  148.7620 C   0  0  0  0  0  2  0  0  0  0  0  0
  161.9970  204.7080  147.9970 C   0  0  2  0  0  3  0  0  0  0  0  0
  161.4930  206.0830  147.5670 C   0  0  2  0  0  3  0  0  0  0  0  0
  160.5640  206.4960  148.7060 C   0  0  2  0  0  3  0  0  0  0  0  0
  162.4030  203.8780  146.8710 N   0  0  0  0  0  1  0  0  0  0  0  0
  160.6730  206.0060  146.2720 C   0  0  0  0  0  2  0  0  0  0  0  0
  161.3990  206.6350  145.0890 C   0  0  0  0  0  2  0  0  0  0  0  0
  161.1310  205.9030  143.7780 C   0  0  2  0  0  3  0  0  0  0  0  0
  160.7590  204.4430  143.9920 C   0  0  0  0  0  1  0  0  0  0  0  0
  162.2820  206.0970  142.7780 C   0  0  0  0  0  2  0  0  0  0  0  0
  161.8910  206.3560  141.3110 C   0  0  2  0  0  3  0  0  0  0  0  0
  162.9930  206.1860  140.4690 O   0  0  0  0  0  0  0  0  0  0  0  0
  162.4430  205.8920  139.2210 C   0  0  0  0  0  1  0  0  0  0  0  0
  161.2680  207.7290  141.0880 C   0  0  0  0  0  2  0  0  0  0  0  0
  162.2770  208.7030  140.5060 C   0  0  0  0  0  2  0  0  0  0  0  0
  161.3960  210.2520  138.7940 N   0  0  0  0  0  0  0  0  0  0  0  0
  161.8740  209.0870  139.1200 C   0  0  0  0  0  3  0  0  0  0  0  0
  161.2430  211.3540  139.6580 N   0  0  0  0  0  2  0  0  0  0  0  0
  160.0510  211.6310  140.4510 C   0  0  0  0  0  2  0  0  0  0  0  0
  158.1260  214.3370  139.4870 C   0  0  1  0  0  3  0  0  0  0  0  0
  157.7450  210.2500  139.2880 O   0  0  0  0  0  0  0  0  0  0  0  0
  156.6970  213.7470  139.3670 C   0  0  2  0  0  3  0  0  0  0  0  0
  159.0090  212.2050  139.6050 N   0  0  0  0  0  0  0  0  0  0  0  0
  157.3310  213.9720  140.7410 C   0  0  0  0  0  2  0  0  0  0  0  0
  159.1650  213.4450  139.0640 O   0  0  0  0  0  0  0  0  0  0  0  0
  157.8090  211.5090  139.3010 C   0  0  0  0  0  0  0  0  0  0  0  0
  156.6570  212.3080  139.0700 N   0  0  0  0  0  2  0  0  0  0  0  0
  163.5640  206.6180  150.4140 C   0  0  0  0  0  1  0  0  0  0  0  0
  161.9170  207.3930  152.2040 C   0  0  2  0  0  3  0  0  0  0  0  0
  162.1190  206.9380  150.7610 C   0  0  1  0  0  0  0  0  0  0  0  0
  161.5080  205.9930  151.7720 C   0  0  0  0  0  2  0  0  0  0  0  0
  160.6560  208.2380  152.4060 C   0  0  0  0  0  2  0  0  0  0  0  0
  161.2280  207.9560  154.8650 C   0  0  2  0  0  3  0  0  0  0  0  0
  161.4230  207.9500  157.2610 O   0  0  0  0  0  0  0  0  0  0  0  0
  161.2640  210.0250  156.3160 O   0  0  0  0  0  0  0  0  0  0  0  0
  161.2870  208.6340  156.2110 C   0  0  0  0  0  0  0  0  0  0  0  0
  161.2020  210.8640  155.2020 C   0  0  0  0  0  0  0  0  0  0  0  0
  160.5770  208.8640  153.8060 C   0  0  1  0  0  3  0  0  0  0  0  0
  161.1410  210.2960  153.8090 C   0  0  1  0  0  3  0  0  0  0  0  0
  161.2740  212.1100  155.3750 O   0  0  0  0  0  0  0  0  0  0  0  0
  159.1430  211.7910  153.3990 N   0  0  0  0  0  2  0  0  0  0  0  0
  160.7000  211.3680  151.7060 O   0  0  0  0  0  0  0  0  0  0  0  0
  160.3420  211.1900  152.9030 C   0  0  0  0  0  0  0  0  0  0  0  0
  158.3080  212.6500  152.5670 C   0  0  2  0  0  3  0  0  0  0  0  0
  159.1520  213.7630  151.9540 C   0  0  0  0  0  1  0  0  0  0  0  0
  157.1520  213.1700  153.3760 C   0  0  0  0  0  0  0  0  0  0  0  0
  156.3760  213.9550  152.8500 O   0  0  0  0  0  0  0  0  0  0  0  0
  156.9200  212.7350  154.7950 C   0  0  2  0  0  3  0  0  0  0  0  0
  155.5440  212.2990  154.9690 N   0  0  0  0  0  1  0  0  0  0  0  0
  157.2250  213.8700  155.7530 C   0  0  0  0  0  1  0  0  0  0  0  0
  160.4560  206.6410  154.9560 C   0  0  0  0  0  2  0  0  0  0  0  0
  159.1790  206.8370  155.7570 C   0  0  0  0  0  1  0  0  0  0  0  0
  161.8020  208.6540  148.9480 C   0  0  0  0  0  3  0  0  0  0  0  0
  162.3050  209.5820  149.5610 O   0  0  0  0  0  0  0  0  0  0  0  0
  1 55  1  6  0  0  0
  1 32  1  0  0  0  0
  3  2  1  0  0  0  0
  4  7  1  6  0  0  0
  4  3  1  0  0  0  0
  5  8  1  6  0  0  0
  5  4  1  0  0  0  0
  5  6  1  0  0  0  0
  6  2  1  0  0  0  0
  6  1  1  1  0  0  0
  9  8  1  0  0  0  0
 10 11  1  1  0  0  0
 10  9  1  0  0  0  0
 12 10  1  0  0  0  0
 13 16  1  1  0  0  0
 13 12  1  0  0  0  0
 14 13  1  0  0  0  0
 15 14  1  0  0  0  0
 17 16  1  0  0  0  0
 18 19  2  0  0  0  0
 18 20  1  0  0  0  0
 19 17  1  0  0  0  0
 20 21  1  0  0  0  0
 22 26  1  1  0  0  0
 23 28  2  0  0  0  0
 24 22  1  0  0  0  0
 24 26  1  1  0  0  0
 25 21  1  0  0  0  0
 27 22  1  0  0  0  0
 27 25  1  0  0  0  0
 28 25  1  0  0  0  0
 29 28  1  0  0  0  0
 29 24  1  0  0  0  0
 31 34  1  6  0  0  0
 32 30  1  6  0  0  0
 32 33  1  0  0  0  0
 32 31  1  0  0  0  0
 33 31  1  0  0  0  0
 35 53  1  1  0  0  0
 35 38  1  0  0  0  0
 38 37  1  0  0  0  0
 38 36  2  0  0  0  0
 39 42  2  0  0  0  0
 39 37  1  0  0  0  0
 40 34  1  6  0  0  0
 40 41  1  0  0  0  0
 40 35  1  0  0  0  0
 41 45  1  6  0  0  0
 41 39  1  0  0  0  0
 44 45  2  0  0  0  0
 45 43  1  0  0  0  0
 46 47  1  1  0  0  0
 46 48  1  0  0  0  0
 46 43  1  0  0  0  0
 48 50  1  0  0  0  0
 49 48  2  0  0  0  0
 50 51  1  0  0  0  0
 50 52  1  1  0  0  0
 53 54  1  0  0  0  0
 55 56  2  0  0  0  0
M  END
>  <MODEL>
4

>  <REMARK>
 VINA RESULT:      -2.8      4.487     11.357
  Name = 
  22 active torsions:
  status: ('A' for Active; 'I' for Inactive)
    1  A    between atoms: C_3  and  C_9
    2  A    between atoms: C_4  and  C_7
    3  A    between atoms: C_4  and  C_38
    4  A    between atoms: N_5  and  C_10
    5  A    between atoms: C_7  and  O_13
    6  A    between atoms: C_7  and  C_35
    7  A    between atoms: C_8  and  C_17
    8  A    between atoms: C_9  and  C_41
    9  A    between atoms: C_10  and  C_18
   10  A    between atoms: C_11  and  N_34
   11  A    between atoms: C_11  and  N_45
   12  A    between atoms: C_12  and  C_35
   13  A    between atoms: C_12  and  C_39
   14  A    between atoms: C_18  and  C_24
   15  A    between atoms: C_19  and  C_46
   16  A    between atoms: N_21  and  N_45
   17  A    between atoms: C_25  and  C_31
   18  A    between atoms: C_25  and  C_40
   19  A    between atoms: C_25  and  C_49
   20  A    between atoms: C_28  and  C_44
   21  A    between atoms: C_33  and  C_38
   22  A    between atoms: C_39  and  C_44
                            x       y       z     vdW  Elec       q    Type
                         _______ _______ _______ _____ _____    ______ ____

>  <TORSDO>
F 22

$$$$
=
 OpenBabel11072414203D

 56 60  0  0  1  0  0  0  0  0999 V2000
  161.3330  207.6710  149.6980 C   0  0  1  0  0  3  0  0  0  0  0  0
  160.3790  205.3460  149.3980 C   0  0  0  0  0  2  0  0  0  0  0  0
  161.1380  204.2430  148.6840 C   0  0  0  0  0  2  0  0  0  0  0  0
  162.2320  204.9480  147.9130 C   0  0  2  0  0  3  0  0  0  0  0  0
  161.6620  206.3130  147.5330 C   0  0  2  0  0  3  0  0  0  0  0  0
  160.7440  206.6550  148.7040 C   0  0  2  0  0  3  0  0  0  0  0  0
  162.6450  204.1660  146.7550 N   0  0  0  0  0  1  0  0  0  0  0  0
  160.8160  206.2370  146.2550 C   0  0  0  0  0  2  0  0  0  0  0  0
  161.6190  206.5890  145.0080 C   0  0  0  0  0  2  0  0  0  0  0  0
  161.1060  205.8810  143.7580 C   0  0  2  0  0  3  0  0  0  0  0  0
  160.5750  204.4860  144.0560 C   0  0  0  0  0  1  0  0  0  0  0  0
  162.1450  205.9080  142.6270 C   0  0  0  0  0  2  0  0  0  0  0  0
  161.7200  206.5810  141.3090 C   0  0  2  0  0  3  0  0  0  0  0  0
  161.8160  205.6830  140.2430 O   0  0  0  0  0  0  0  0  0  0  0  0
  163.0320  205.9870  139.6310 C   0  0  0  0  0  1  0  0  0  0  0  0
  162.5070  207.8480  140.9980 C   0  0  0  0  0  2  0  0  0  0  0  0
  161.5880  208.9680  140.5440 C   0  0  0  0  0  2  0  0  0  0  0  0
  162.2150  211.0620  139.3910 N   0  0  0  0  0  0  0  0  0  0  0  0
  162.2490  209.7640  139.4670 C   0  0  0  0  0  3  0  0  0  0  0  0
  161.6210  211.9300  140.3290 N   0  0  0  0  0  2  0  0  0  0  0  0
  161.1460  211.5310  141.6480 C   0  0  0  0  0  2  0  0  0  0  0  0
  160.5970  213.3230  144.5540 C   0  0  1  0  0  3  0  0  0  0  0  0
  158.7080  212.9820  140.9210 O   0  0  0  0  0  0  0  0  0  0  0  0
  159.0920  213.6860  144.4830 C   0  0  2  0  0  3  0  0  0  0  0  0
  160.5580  212.6760  142.3350 N   0  0  0  0  0  0  0  0  0  0  0  0
  159.5320  212.2520  144.7830 C   0  0  0  0  0  2  0  0  0  0  0  0
  161.2660  213.3480  143.2860 O   0  0  0  0  0  0  0  0  0  0  0  0
  159.2490  213.1460  142.0470 C   0  0  0  0  0  0  0  0  0  0  0  0
  158.5480  213.7610  143.1190 N   0  0  0  0  0  2  0  0  0  0  0  0
  163.2680  206.3360  150.9370 C   0  0  0  0  0  1  0  0  0  0  0  0
  161.7090  207.8350  152.2950 C   0  0  2  0  0  3  0  0  0  0  0  0
  161.9430  207.0800  150.9880 C   0  0  1  0  0  0  0  0  0  0  0  0
  160.9730  206.5330  152.0120 C   0  0  0  0  0  2  0  0  0  0  0  0
  160.7260  209.0000  152.1580 C   0  0  0  0  0  2  0  0  0  0  0  0
  161.1870  209.0180  154.6570 C   0  0  2  0  0  3  0  0  0  0  0  0
  161.2110  209.1870  157.0540 O   0  0  0  0  0  0  0  0  0  0  0  0
  160.5310  211.0780  155.9660 O   0  0  0  0  0  0  0  0  0  0  0  0
  160.9580  209.7500  155.9560 C   0  0  0  0  0  0  0  0  0  0  0  0
  160.3080  211.8070  154.7960 C   0  0  0  0  0  0  0  0  0  0  0  0
  160.3770  209.6450  153.5080 C   0  0  1  0  0  3  0  0  0  0  0  0
  160.5060  211.1770  153.4430 C   0  0  1  0  0  3  0  0  0  0  0  0
  160.0090  213.0280  154.8890 O   0  0  0  0  0  0  0  0  0  0  0  0
  160.0170  212.7500  151.5240 N   0  0  0  0  0  2  0  0  0  0  0  0
  158.3370  211.4040  152.4390 O   0  0  0  0  0  0  0  0  0  0  0  0
  159.5490  211.7560  152.4400 C   0  0  0  0  0  0  0  0  0  0  0  0
  159.1370  213.3700  150.5400 C   0  0  2  0  0  3  0  0  0  0  0  0
  157.8310  212.5870  150.4420 C   0  0  0  0  0  1  0  0  0  0  0  0
  159.8520  213.4840  149.2230 C   0  0  0  0  0  0  0  0  0  0  0  0
  159.2120  213.8280  148.2380 O   0  0  0  0  0  0  0  0  0  0  0  0
  161.3230  213.2090  149.0930 C   0  0  2  0  0  3  0  0  0  0  0  0
  162.0540  214.4530  148.9210 N   0  0  0  0  0  1  0  0  0  0  0  0
  161.5870  212.2900  147.9160 C   0  0  0  0  0  1  0  0  0  0  0  0
  160.8180  207.5420  154.7970 C   0  0  0  0  0  2  0  0  0  0  0  0
  159.8430  207.3510  155.9470 C   0  0  0  0  0  1  0  0  0  0  0  0
  162.2850  208.6000  149.0120 C   0  0  0  0  0  3  0  0  0  0  0  0
  161.9170  209.7090  148.6610 O   0  0  0  0  0  0  0  0  0  0  0  0
  1 55  1  6  0  0  0
  1 32  1  0  0  0  0
  3  2  1  0  0  0  0
  4  7  1  6  0  0  0
  4  3  1  0  0  0  0
  5  8  1  6  0  0  0
  5  4  1  0  0  0  0
  5  6  1  0  0  0  0
  6  2  1  0  0  0  0
  6  1  1  1  0  0  0
  9  8  1  0  0  0  0
 10 11  1  1  0  0  0
 10  9  1  0  0  0  0
 12 10  1  0  0  0  0
 13 16  1  6  0  0  0
 13 12  1  0  0  0  0
 14 13  1  0  0  0  0
 15 14  1  0  0  0  0
 17 16  1  0  0  0  0
 18 19  2  0  0  0  0
 18 20  1  0  0  0  0
 19 17  1  0  0  0  0
 20 21  1  0  0  0  0
 21 25  1  0  0  0  0
 22 26  1  6  0  0  0
 23 28  2  0  0  0  0
 24 22  1  0  0  0  0
 24 26  1  1  0  0  0
 25 27  1  0  0  0  0
 27 22  1  0  0  0  0
 28 25  1  0  0  0  0
 28 29  1  0  0  0  0
 29 24  1  0  0  0  0
 31 34  1  6  0  0  0
 32 30  1  6  0  0  0
 32 33  1  0  0  0  0
 32 31  1  0  0  0  0
 33 31  1  0  0  0  0
 35 53  1  1  0  0  0
 35 38  1  0  0  0  0
 38 37  1  0  0  0  0
 38 36  2  0  0  0  0
 39 42  2  0  0  0  0
 39 37  1  0  0  0  0
 40 34  1  6  0  0  0
 40 35  1  0  0  0  0
 41 45  1  6  0  0  0
 41 40  1  0  0  0  0
 41 39  1  0  0  0  0
 43 45  1  0  0  0  0
 44 45  2  0  0  0  0
 46 47  1  6  0  0  0
 46 43  1  0  0  0  0
 48 46  1  0  0  0  0
 49 48  2  0  0  0  0
 50 52  1  6  0  0  0
 50 48  1  0  0  0  0
 51 50  1  0  0  0  0
 53 54  1  0  0  0  0
 56 55  2  0  0  0  0
M  END
>  <MODEL>
5

>  <REMARK>
 VINA RESULT:      -2.8      3.787     10.567
  Name = 
  22 active torsions:
  status: ('A' for Active; 'I' for Inactive)
    1  A    between atoms: C_3  and  C_9
    2  A    between atoms: C_4  and  C_7
    3  A    between atoms: C_4  and  C_38
    4  A    between atoms: N_5  and  C_10
    5  A    between atoms: C_7  and  O_13
    6  A    between atoms: C_7  and  C_35
    7  A    between atoms: C_8  and  C_17
    8  A    between atoms: C_9  and  C_41
    9  A    between atoms: C_10  and  C_18
   10  A    between atoms: C_11  and  N_34
   11  A    between atoms: C_11  and  N_45
   12  A    between atoms: C_12  and  C_35
   13  A    between atoms: C_12  and  C_39
   14  A    between atoms: C_18  and  C_24
   15  A    between atoms: C_19  and  C_46
   16  A    between atoms: N_21  and  N_45
   17  A    between atoms: C_25  and  C_31
   18  A    between atoms: C_25  and  C_40
   19  A    between atoms: C_25  and  C_49
   20  A    between atoms: C_28  and  C_44
   21  A    between atoms: C_33  and  C_38
   22  A    between atoms: C_39  and  C_44
                            x       y       z     vdW  Elec       q    Type
                         _______ _______ _______ _____ _____    ______ ____

>  <TORSDO>
F 22

$$$$
=
 OpenBabel11072414203D

 56 60  0  0  1  0  0  0  0  0999 V2000
  162.0560  207.1120  151.0950 C   0  0  1  0  0  3  0  0  0  0  0  0
  159.8800  205.9210  150.5900 C   0  0  0  0  0  2  0  0  0  0  0  0
  159.7380  204.4140  150.6930 C   0  0  0  0  0  2  0  0  0  0  0  0
  161.1540  203.8810  150.7080 C   0  0  2  0  0  3  0  0  0  0  0  0
  161.9750  204.8510  149.8620 C   0  0  2  0  0  3  0  0  0  0  0  0
  161.3030  206.1990  150.1120 C   0  0  2  0  0  3  0  0  0  0  0  0
  161.2050  202.5130  150.2080 N   0  0  0  0  0  1  0  0  0  0  0  0
  161.8730  204.5250  148.3660 C   0  0  0  0  0  2  0  0  0  0  0  0
  162.7640  205.4230  147.5170 C   0  0  0  0  0  2  0  0  0  0  0  0
  162.0370  205.9960  146.3050 C   0  0  2  0  0  3  0  0  0  0  0  0
  160.6450  206.5060  146.6490 C   0  0  0  0  0  1  0  0  0  0  0  0
  162.0500  205.0140  145.1220 C   0  0  0  0  0  2  0  0  0  0  0  0
  161.3270  205.4620  143.8400 C   0  0  2  0  0  3  0  0  0  0  0  0
  160.5130  204.4390  143.3480 O   0  0  0  0  0  0  0  0  0  0  0  0
  159.8950  203.9030  144.4790 C   0  0  0  0  0  1  0  0  0  0  0  0
  162.2770  205.9450  142.7500 C   0  0  0  0  0  2  0  0  0  0  0  0
  161.5200  206.3170  141.4870 C   0  0  0  0  0  2  0  0  0  0  0  0
  162.3320  207.2820  139.3610 N   0  0  0  0  0  0  0  0  0  0  0  0
  162.4700  206.4370  140.3410 C   0  0  0  0  0  3  0  0  0  0  0  0
  161.3220  208.2590  139.2480 N   0  0  0  0  0  2  0  0  0  0  0  0
  161.0010  208.9860  138.0260 C   0  0  0  0  0  2  0  0  0  0  0  0
  163.2410  211.3590  139.1710 C   0  0  1  0  0  3  0  0  0  0  0  0
  159.2740  211.3500  138.0990 O   0  0  0  0  0  0  0  0  0  0  0  0
  162.3320  212.4740  139.7470 C   0  0  2  0  0  3  0  0  0  0  0  0
  161.4130  210.3800  138.1500 N   0  0  0  0  0  0  0  0  0  0  0  0
  162.4960  211.1450  140.4880 C   0  0  0  0  0  2  0  0  0  0  0  0
  162.7200  210.7300  137.9920 O   0  0  0  0  0  0  0  0  0  0  0  0
  160.4900  211.4240  138.4230 C   0  0  0  0  0  0  0  0  0  0  0  0
  160.9930  212.5410  139.1430 N   0  0  0  0  0  2  0  0  0  0  0  0
  162.1980  209.1290  149.3720 C   0  0  0  0  0  1  0  0  0  0  0  0
  161.0460  209.4820  151.6230 C   0  0  2  0  0  3  0  0  0  0  0  0
  161.9990  208.6260  150.7930 C   0  0  1  0  0  0  0  0  0  0  0  0
  162.5480  209.5550  151.8530 C   0  0  0  0  0  2  0  0  0  0  0  0
  160.4010  208.7230  152.7860 C   0  0  0  0  0  2  0  0  0  0  0  0
  161.6100  209.0030  155.0040 C   0  0  2  0  0  3  0  0  0  0  0  0
  162.3680  209.4190  157.2460 O   0  0  0  0  0  0  0  0  0  0  0  0
  161.3100  211.1820  156.2470 O   0  0  0  0  0  0  0  0  0  0  0  0
  161.7650  209.8630  156.2320 C   0  0  0  0  0  0  0  0  0  0  0  0
  160.7080  211.7840  155.1410 C   0  0  0  0  0  0  0  0  0  0  0  0
  160.4610  209.5010  154.1090 C   0  0  1  0  0  3  0  0  0  0  0  0
  160.5030  211.0200  153.8610 C   0  0  1  0  0  3  0  0  0  0  0  0
  160.4040  213.0060  155.2050 O   0  0  0  0  0  0  0  0  0  0  0  0
  158.3600  212.3620  153.8360 N   0  0  0  0  0  2  0  0  0  0  0  0
  158.9930  211.0660  151.9950 O   0  0  0  0  0  0  0  0  0  0  0  0
  159.2610  211.4840  153.1550 C   0  0  0  0  0  0  0  0  0  0  0  0
  157.1250  212.8320  153.2190 C   0  0  2  0  0  3  0  0  0  0  0  0
  157.4010  214.0800  152.3860 C   0  0  0  0  0  1  0  0  0  0  0  0
  156.0820  213.0550  154.2790 C   0  0  0  0  0  0  0  0  0  0  0  0
  154.9230  213.2290  153.9320 O   0  0  0  0  0  0  0  0  0  0  0  0
  156.4260  213.0480  155.7420 C   0  0  2  0  0  3  0  0  0  0  0  0
  155.3260  212.4960  156.5140 N   0  0  0  0  0  1  0  0  0  0  0  0
  156.7370  214.4530  156.2190 C   0  0  0  0  0  1  0  0  0  0  0  0
  161.3610  207.5470  155.3920 C   0  0  0  0  0  2  0  0  0  0  0  0
  160.1030  207.4370  156.2370 C   0  0  0  0  0  1  0  0  0  0  0  0
  161.6620  206.8170  152.5090 C   0  0  0  0  0  3  0  0  0  0  0  0
  162.1930  205.9010  153.1170 O   0  0  0  0  0  0  0  0  0  0  0  0
  1 55  1  1  0  0  0
  2  3  1  0  0  0  0
  3  4  1  0  0  0  0
  4  7  1  6  0  0  0
  5  8  1  6  0  0  0
  5  6  1  0  0  0  0
  5  4  1  0  0  0  0
  6  2  1  0  0  0  0
  6  1  1  1  0  0  0
  9  8  1  0  0  0  0
 10 11  1  1  0  0  0
 10  9  1  0  0  0  0
 12 10  1  0  0  0  0
 13 16  1  6  0  0  0
 13 12  1  0  0  0  0
 14 13  1  0  0  0  0
 14 15  1  0  0  0  0
 17 16  1  0  0  0  0
 18 19  2  0  0  0  0
 19 17  1  0  0  0  0
 20 18  1  0  0  0  0
 21 25  1  0  0  0  0
 21 20  1  0  0  0  0
 22 24  1  0  0  0  0
 22 26  1  1  0  0  0
 23 28  2  0  0  0  0
 24 26  1  1  0  0  0
 25 28  1  0  0  0  0
 27 25  1  0  0  0  0
 27 22  1  0  0  0  0
 28 29  1  0  0  0  0
 29 24  1  0  0  0  0
 31 33  1  0  0  0  0
 31 34  1  1  0  0  0
 32 30  1  6  0  0  0
 32  1  1  0  0  0  0
 32 31  1  0  0  0  0
 32 33  1  0  0  0  0
 35 53  1  1  0  0  0
 35 38  1  0  0  0  0
 38 37  1  0  0  0  0
 38 36  2  0  0  0  0
 39 42  2  0  0  0  0
 39 37  1  0  0  0  0
 40 34  1  6  0  0  0
 40 35  1  0  0  0  0
 41 45  1  1  0  0  0
 41 40  1  0  0  0  0
 41 39  1  0  0  0  0
 44 45  2  0  0  0  0
 45 43  1  0  0  0  0
 46 47  1  1  0  0  0
 46 43  1  0  0  0  0
 46 48  1  0  0  0  0
 48 50  1  0  0  0  0
 49 48  2  0  0  0  0
 50 52  1  1  0  0  0
 50 51  1  0  0  0  0
 53 54  1  0  0  0  0
 55 56  2  0  0  0  0
M  END
>  <MODEL>
6

>  <REMARK>
 VINA RESULT:      -2.2      4.384     10.605
  Name = 
  22 active torsions:
  status: ('A' for Active; 'I' for Inactive)
    1  A    between atoms: C_3  and  C_9
    2  A    between atoms: C_4  and  C_7
    3  A    between atoms: C_4  and  C_38
    4  A    between atoms: N_5  and  C_10
    5  A    between atoms: C_7  and  O_13
    6  A    between atoms: C_7  and  C_35
    7  A    between atoms: C_8  and  C_17
    8  A    between atoms: C_9  and  C_41
    9  A    between atoms: C_10  and  C_18
   10  A    between atoms: C_11  and  N_34
   11  A    between atoms: C_11  and  N_45
   12  A    between atoms: C_12  and  C_35
   13  A    between atoms: C_12  and  C_39
   14  A    between atoms: C_18  and  C_24
   15  A    between atoms: C_19  and  C_46
   16  A    between atoms: N_21  and  N_45
   17  A    between atoms: C_25  and  C_31
   18  A    between atoms: C_25  and  C_40
   19  A    between atoms: C_25  and  C_49
   20  A    between atoms: C_28  and  C_44
   21  A    between atoms: C_33  and  C_38
   22  A    between atoms: C_39  and  C_44
                            x       y       z     vdW  Elec       q    Type
                         _______ _______ _______ _____ _____    ______ ____

>  <TORSDO>
F 22

$$$$
=
 OpenBabel11072414203D

 56 60  0  0  1  0  0  0  0  0999 V2000
  162.1380  207.7080  150.1270 C   0  0  1  0  0  3  0  0  0  0  0  0
  160.1440  206.1590  149.9520 C   0  0  0  0  0  2  0  0  0  0  0  0
  160.2600  204.7470  149.4080 C   0  0  0  0  0  2  0  0  0  0  0  0
  161.5830  204.7100  148.6760 C   0  0  2  0  0  3  0  0  0  0  0  0
  161.7980  206.1180  148.1280 C   0  0  2  0  0  3  0  0  0  0  0  0
  161.1450  207.0130  149.1790 C   0  0  2  0  0  3  0  0  0  0  0  0
  161.5770  203.6930  147.6330 N   0  0  0  0  0  1  0  0  0  0  0  0
  161.0710  206.3240  146.7920 C   0  0  0  0  0  2  0  0  0  0  0  0
  161.9960  206.1360  145.5960 C   0  0  0  0  0  2  0  0  0  0  0  0
  161.2380  205.8200  144.3100 C   0  0  2  0  0  3  0  0  0  0  0  0
  160.4020  204.5530  144.4250 C   0  0  0  0  0  1  0  0  0  0  0  0
  162.1710  205.8250  143.0890 C   0  0  0  0  0  2  0  0  0  0  0  0
  161.5690  206.3100  141.7580 C   0  0  2  0  0  3  0  0  0  0  0  0
  161.9990  205.5070  140.7000 O   0  0  0  0  0  0  0  0  0  0  0  0
  163.0850  206.1920  140.1520 C   0  0  0  0  0  1  0  0  0  0  0  0
  161.8700  207.7750  141.4600 C   0  0  0  0  0  2  0  0  0  0  0  0
  161.5690  208.1130  140.0100 C   0  0  0  0  0  2  0  0  0  0  0  0
  160.4300  210.1420  139.1760 N   0  0  0  0  0  0  0  0  0  0  0  0
  161.3890  209.5880  139.8590 C   0  0  0  0  0  3  0  0  0  0  0  0
  159.3760  209.4640  138.5320 N   0  0  0  0  0  2  0  0  0  0  0  0
  158.6830  209.9430  137.3420 C   0  0  0  0  0  2  0  0  0  0  0  0
  157.5000  212.9280  138.6260 C   0  0  1  0  0  3  0  0  0  0  0  0
  156.0330  209.1070  138.2650 O   0  0  0  0  0  0  0  0  0  0  0  0
  156.3740  212.4890  139.5960 C   0  0  2  0  0  3  0  0  0  0  0  0
  157.5670  210.8010  137.7230 N   0  0  0  0  0  0  0  0  0  0  0  0
  157.8430  212.2650  139.9600 C   0  0  0  0  0  2  0  0  0  0  0  0
  157.5910  212.1320  137.4360 O   0  0  0  0  0  0  0  0  0  0  0  0
  156.4160  210.3010  138.3890 C   0  0  0  0  0  0  0  0  0  0  0  0
  155.7470  211.2030  139.2580 N   0  0  0  0  0  2  0  0  0  0  0  0
  162.0130  210.0770  148.9310 C   0  0  0  0  0  1  0  0  0  0  0  0
  161.2220  209.8500  151.3480 C   0  0  2  0  0  3  0  0  0  0  0  0
  162.0360  209.2470  150.2050 C   0  0  1  0  0  0  0  0  0  0  0  0
  162.7420  209.9210  151.3610 C   0  0  0  0  0  2  0  0  0  0  0  0
  160.7640  208.8160  152.3810 C   0  0  0  0  0  2  0  0  0  0  0  0
  161.5900  208.7070  154.7820 C   0  0  2  0  0  3  0  0  0  0  0  0
  161.9730  208.7640  157.1530 O   0  0  0  0  0  0  0  0  0  0  0  0
  161.1930  210.7180  156.2600 O   0  0  0  0  0  0  0  0  0  0  0  0
  161.5760  209.3820  156.1300 C   0  0  0  0  0  0  0  0  0  0  0  0
  160.8200  211.5050  155.1700 C   0  0  0  0  0  0  0  0  0  0  0  0
  160.6370  209.4040  153.7940 C   0  0  1  0  0  3  0  0  0  0  0  0
  160.7980  210.9350  153.7770 C   0  0  1  0  0  3  0  0  0  0  0  0
  160.5730  212.7260  155.3580 O   0  0  0  0  0  0  0  0  0  0  0  0
  160.0620  212.6640  152.0840 N   0  0  0  0  0  2  0  0  0  0  0  0
  158.5210  211.2020  153.0640 O   0  0  0  0  0  0  0  0  0  0  0  0
  159.7200  211.5800  152.9530 C   0  0  0  0  0  0  0  0  0  0  0  0
  159.0620  213.3510  151.2750 C   0  0  2  0  0  3  0  0  0  0  0  0
  157.6870  212.7330  151.5100 C   0  0  0  0  0  1  0  0  0  0  0  0
  159.4750  213.3240  149.8290 C   0  0  0  0  0  0  0  0  0  0  0  0
  160.5460  212.8110  149.5370 O   0  0  0  0  0  0  0  0  0  0  0  0
  158.6030  213.8890  148.7450 C   0  0  2  0  0  3  0  0  0  0  0  0
  157.2080  213.8490  149.1500 N   0  0  0  0  0  1  0  0  0  0  0  0
  158.7880  213.1100  147.4570 C   0  0  0  0  0  1  0  0  0  0  0  0
  161.2040  207.2350  154.9110 C   0  0  0  0  0  2  0  0  0  0  0  0
  159.6950  207.0960  155.0310 C   0  0  0  0  0  1  0  0  0  0  0  0
  162.1060  207.0830  151.4870 C   0  0  0  0  0  3  0  0  0  0  0  0
  162.8070  206.1160  151.7370 O   0  0  0  0  0  0  0  0  0  0  0  0
  1 32  1  0  0  0  0
  1 55  1  1  0  0  0
  3  2  1  0  0  0  0
  4  7  1  6  0  0  0
  4  3  1  0  0  0  0
  5  8  1  6  0  0  0
  5  4  1  0  0  0  0
  5  6  1  0  0  0  0
  6  2  1  0  0  0  0
  6  1  1  1  0  0  0
  9  8  1  0  0  0  0
 10 11  1  1  0  0  0
 10  9  1  0  0  0  0
 12 10  1  0  0  0  0
 13 16  1  6  0  0  0
 13 12  1  0  0  0  0
 14 13  1  0  0  0  0
 15 14  1  0  0  0  0
 17 16  1  0  0  0  0
 18 19  2  0  0  0  0
 19 17  1  0  0  0  0
 20 18  1  0  0  0  0
 21 25  1  0  0  0  0
 21 20  1  0  0  0  0
 22 24  1  0  0  0  0
 22 26  1  1  0  0  0
 23 28  2  0  0  0  0
 24 26  1  1  0  0  0
 25 28  1  0  0  0  0
 27 25  1  0  0  0  0
 27 22  1  0  0  0  0
 28 29  1  0  0  0  0
 29 24  1  0  0  0  0
 31 33  1  0  0  0  0
 31 34  1  1  0  0  0
 32 30  1  6  0  0  0
 32 31  1  0  0  0  0
 32 33  1  0  0  0  0
 35 53  1  1  0  0  0
 35 38  1  0  0  0  0
 38 37  1  0  0  0  0
 38 36  2  0  0  0  0
 39 42  2  0  0  0  0
 39 37  1  0  0  0  0
 40 34  1  6  0  0  0
 40 35  1  0  0  0  0
 41 45  1  6  0  0  0
 41 40  1  0  0  0  0
 41 39  1  0  0  0  0
 43 45  1  0  0  0  0
 45 44  2  0  0  0  0
 46 47  1  6  0  0  0
 46 43  1  0  0  0  0
 48 46  1  0  0  0  0
 49 48  2  0  0  0  0
 50 52  1  6  0  0  0
 50 51  1  0  0  0  0
 50 48  1  0  0  0  0
 53 54  1  0  0  0  0
 55 56  2  0  0  0  0
M  END
>  <MODEL>
7

>  <REMARK>
 VINA RESULT:      -1.6      4.778     10.837
  Name = 
  22 active torsions:
  status: ('A' for Active; 'I' for Inactive)
    1  A    between atoms: C_3  and  C_9
    2  A    between atoms: C_4  and  C_7
    3  A    between atoms: C_4  and  C_38
    4  A    between atoms: N_5  and  C_10
    5  A    between atoms: C_7  and  O_13
    6  A    between atoms: C_7  and  C_35
    7  A    between atoms: C_8  and  C_17
    8  A    between atoms: C_9  and  C_41
    9  A    between atoms: C_10  and  C_18
   10  A    between atoms: C_11  and  N_34
   11  A    between atoms: C_11  and  N_45
   12  A    between atoms: C_12  and  C_35
   13  A    between atoms: C_12  and  C_39
   14  A    between atoms: C_18  and  C_24
   15  A    between atoms: C_19  and  C_46
   16  A    between atoms: N_21  and  N_45
   17  A    between atoms: C_25  and  C_31
   18  A    between atoms: C_25  and  C_40
   19  A    between atoms: C_25  and  C_49
   20  A    between atoms: C_28  and  C_44
   21  A    between atoms: C_33  and  C_38
   22  A    between atoms: C_39  and  C_44
                            x       y       z     vdW  Elec       q    Type
                         _______ _______ _______ _____ _____    ______ ____

>  <TORSDO>
F 22

$$$$
=
 OpenBabel11072414203D

 56 60  0  0  1  0  0  0  0  0999 V2000
  162.1770  207.5030  150.1100 C   0  0  1  0  0  3  0  0  0  0  0  0
  160.2890  205.8220  150.0020 C   0  0  0  0  0  2  0  0  0  0  0  0
  160.4630  204.4450  149.3890 C   0  0  0  0  0  2  0  0  0  0  0  0
  161.7300  204.5320  148.5670 C   0  0  2  0  0  3  0  0  0  0  0  0
  161.8070  205.9730  148.0690 C   0  0  2  0  0  3  0  0  0  0  0  0
  161.1700  206.7760  149.2020 C   0  0  2  0  0  3  0  0  0  0  0  0
  161.7210  203.5590  147.4830 N   0  0  0  0  0  1  0  0  0  0  0  0
  160.9740  206.1780  146.7970 C   0  0  0  0  0  2  0  0  0  0  0  0
  161.8440  206.4110  145.5680 C   0  0  0  0  0  2  0  0  0  0  0  0
  161.2270  205.8400  144.2940 C   0  0  2  0  0  3  0  0  0  0  0  0
  160.6700  204.4390  144.4940 C   0  0  0  0  0  1  0  0  0  0  0  0
  162.1920  205.9480  143.1030 C   0  0  0  0  0  2  0  0  0  0  0  0
  161.5910  206.4030  141.7610 C   0  0  2  0  0  3  0  0  0  0  0  0
  162.1790  205.7160  140.6970 O   0  0  0  0  0  0  0  0  0  0  0  0
  163.0830  206.6240  140.1430 C   0  0  0  0  0  1  0  0  0  0  0  0
  161.6960  207.9070  141.5340 C   0  0  0  0  0  2  0  0  0  0  0  0
  161.5590  208.2510  140.0620 C   0  0  0  0  0  2  0  0  0  0  0  0
  160.3170  210.2290  139.2540 N   0  0  0  0  0  0  0  0  0  0  0  0
  161.3230  209.7170  139.9010 C   0  0  0  0  0  3  0  0  0  0  0  0
  159.2590  209.5080  138.6640 N   0  0  0  0  0  2  0  0  0  0  0  0
  158.1570  210.1060  137.9210 C   0  0  0  0  0  2  0  0  0  0  0  0
  154.8670  209.4830  138.7850 C   0  0  1  0  0  3  0  0  0  0  0  0
  157.5520  212.5170  139.4700 O   0  0  0  0  0  0  0  0  0  0  0  0
  154.3040  210.8870  139.1220 C   0  0  2  0  0  3  0  0  0  0  0  0
  157.0180  210.3280  138.8060 N   0  0  0  0  0  0  0  0  0  0  0  0
  154.5870  210.4910  137.6720 C   0  0  0  0  0  2  0  0  0  0  0  0
  156.2290  209.2860  139.1890 O   0  0  0  0  0  0  0  0  0  0  0  0
  156.6880  211.6130  139.3120 C   0  0  0  0  0  0  0  0  0  0  0  0
  155.3130  211.8540  139.5770 N   0  0  0  0  0  2  0  0  0  0  0  0
  162.0810  209.8720  148.9100 C   0  0  0  0  0  1  0  0  0  0  0  0
  161.1380  209.6210  151.2700 C   0  0  2  0  0  3  0  0  0  0  0  0
  162.0370  209.0390  150.1820 C   0  0  1  0  0  0  0  0  0  0  0  0
  162.6520  209.7250  151.3830 C   0  0  0  0  0  2  0  0  0  0  0  0
  160.6360  208.5760  152.2690 C   0  0  0  0  0  2  0  0  0  0  0  0
  161.5860  208.3710  154.6170 C   0  0  2  0  0  3  0  0  0  0  0  0
  162.0940  208.3330  156.9660 O   0  0  0  0  0  0  0  0  0  0  0  0
  161.2710  210.3210  156.1940 O   0  0  0  0  0  0  0  0  0  0  0  0
  161.6440  208.9920  155.9900 C   0  0  0  0  0  0  0  0  0  0  0  0
  160.8430  211.1510  155.1570 C   0  0  0  0  0  0  0  0  0  0  0  0
  160.5840  209.1070  153.7100 C   0  0  1  0  0  3  0  0  0  0  0  0
  160.7470  210.6370  153.7450 C   0  0  1  0  0  3  0  0  0  0  0  0
  160.6080  212.3640  155.4070 O   0  0  0  0  0  0  0  0  0  0  0  0
  158.6570  212.0600  153.7440 N   0  0  0  0  0  2  0  0  0  0  0  0
  159.5200  211.1860  151.7540 O   0  0  0  0  0  0  0  0  0  0  0  0
  159.6280  211.3150  153.0050 C   0  0  0  0  0  0  0  0  0  0  0  0
  157.5320  212.7230  153.0930 C   0  0  2  0  0  3  0  0  0  0  0  0
  157.9880  214.0450  152.4830 C   0  0  0  0  0  1  0  0  0  0  0  0
  156.4050  212.8890  154.0740 C   0  0  0  0  0  0  0  0  0  0  0  0
  155.5300  213.7070  153.8270 O   0  0  0  0  0  0  0  0  0  0  0  0
  156.3190  212.0660  155.3280 C   0  0  2  0  0  3  0  0  0  0  0  0
  155.1800  211.1670  155.2630 N   0  0  0  0  0  1  0  0  0  0  0  0
  156.1960  212.9660  156.5430 C   0  0  0  0  0  1  0  0  0  0  0  0
  161.2050  206.8950  154.7070 C   0  0  0  0  0  2  0  0  0  0  0  0
  159.8350  206.7440  155.3480 C   0  0  0  0  0  1  0  0  0  0  0  0
  162.2110  206.8870  151.4730 C   0  0  0  0  0  3  0  0  0  0  0  0
  163.1790  206.2360  151.8300 O   0  0  0  0  0  0  0  0  0  0  0  0
  1 32  1  0  0  0  0
  1 55  1  1  0  0  0
  3  2  1  0  0  0  0
  4  7  1  6  0  0  0
  4  3  1  0  0  0  0
  5  8  1  6  0  0  0
  5  4  1  0  0  0  0
  5  6  1  0  0  0  0
  6  2  1  0  0  0  0
  6  1  1  1  0  0  0
  9  8  1  0  0  0  0
 10 11  1  1  0  0  0
 10  9  1  0  0  0  0
 12 10  1  0  0  0  0
 13 16  1  6  0  0  0
 13 12  1  0  0  0  0
 14 13  1  0  0  0  0
 15 14  1  0  0  0  0
 17 16  1  0  0  0  0
 18 19  2  0  0  0  0
 19 17  1  0  0  0  0
 20 18  1  0  0  0  0
 21 20  1  0  0  0  0
 21 25  1  0  0  0  0
 22 26  1  6  0  0  0
 22 24  1  0  0  0  0
 22 27  1  0  0  0  0
 24 26  1  6  0  0  0
 24 29  1  0  0  0  0
 25 27  1  0  0  0  0
 25 28  1  0  0  0  0
 28 23  2  0  0  0  0
 28 29  1  0  0  0  0
 31 33  1  0  0  0  0
 31 34  1  1  0  0  0
 32 30  1  6  0  0  0
 32 31  1  0  0  0  0
 32 33  1  0  0  0  0
 35 53  1  1  0  0  0
 35 38  1  0  0  0  0
 38 37  1  0  0  0  0
 38 36  2  0  0  0  0
 39 42  2  0  0  0  0
 39 37  1  0  0  0  0
 40 34  1  6  0  0  0
 40 41  1  0  0  0  0
 40 35  1  0  0  0  0
 41 45  1  1  0  0  0
 41 39  1  0  0  0  0
 44 45  2  0  0  0  0
 45 43  1  0  0  0  0
 46 47  1  1  0  0  0
 46 43  1  0  0  0  0
 46 48  1  0  0  0  0
 48 50  1  0  0  0  0
 49 48  2  0  0  0  0
 50 52  1  1  0  0  0
 51 50  1  0  0  0  0
 53 54  1  0  0  0  0
 55 56  2  0  0  0  0
M  END
>  <MODEL>
8

>  <REMARK>
 VINA RESULT:      -1.6      4.775     11.102
  Name = 
  22 active torsions:
  status: ('A' for Active; 'I' for Inactive)
    1  A    between atoms: C_3  and  C_9
    2  A    between atoms: C_4  and  C_7
    3  A    between atoms: C_4  and  C_38
    4  A    between atoms: N_5  and  C_10
    5  A    between atoms: C_7  and  O_13
    6  A    between atoms: C_7  and  C_35
    7  A    between atoms: C_8  and  C_17
    8  A    between atoms: C_9  and  C_41
    9  A    between atoms: C_10  and  C_18
   10  A    between atoms: C_11  and  N_34
   11  A    between atoms: C_11  and  N_45
   12  A    between atoms: C_12  and  C_35
   13  A    between atoms: C_12  and  C_39
   14  A    between atoms: C_18  and  C_24
   15  A    between atoms: C_19  and  C_46
   16  A    between atoms: N_21  and  N_45
   17  A    between atoms: C_25  and  C_31
   18  A    between atoms: C_25  and  C_40
   19  A    between atoms: C_25  and  C_49
   20  A    between atoms: C_28  and  C_44
   21  A    between atoms: C_33  and  C_38
   22  A    between atoms: C_39  and  C_44
                            x       y       z     vdW  Elec       q    Type
                         _______ _______ _______ _____ _____    ______ ____

>  <TORSDO>
F 22

$$$$
=
 OpenBabel11072414203D

 56 60  0  0  1  0  0  0  0  0999 V2000
  161.0470  209.0250  154.7930 C   0  0  1  0  0  3  0  0  0  0  0  0
  162.5970  209.0890  152.7940 C   0  0  0  0  0  2  0  0  0  0  0  0
  162.1210  208.7700  151.3880 C   0  0  0  0  0  2  0  0  0  0  0  0
  160.8010  208.0540  151.5680 C   0  0  2  0  0  3  0  0  0  0  0  0
  160.9120  207.2950  152.8880 C   0  0  2  0  0  3  0  0  0  0  0  0
  161.8040  208.1950  153.7420 C   0  0  2  0  0  3  0  0  0  0  0  0
  160.5190  207.1800  150.4370 N   0  0  0  0  0  1  0  0  0  0  0  0
  161.6150  205.9430  152.7070 C   0  0  0  0  0  2  0  0  0  0  0  0
  160.7420  204.9320  151.9740 C   0  0  0  0  0  2  0  0  0  0  0  0
  161.2900  203.5110  152.0590 C   0  0  2  0  0  3  0  0  0  0  0  0
  162.7230  203.4080  151.5560 C   0  0  0  0  0  1  0  0  0  0  0  0
  160.3400  202.4990  151.4000 C   0  0  0  0  0  2  0  0  0  0  0  0
  160.6090  202.1520  149.9250 C   0  0  2  0  0  3  0  0  0  0  0  0
  159.4480  202.3000  149.1620 O   0  0  0  0  0  0  0  0  0  0  0  0
  158.5860  201.3080  149.6310 C   0  0  0  0  0  1  0  0  0  0  0  0
  161.1880  200.7550  149.7310 C   0  0  0  0  0  2  0  0  0  0  0  0
  162.0240  200.6780  148.4660 C   0  0  0  0  0  2  0  0  0  0  0  0
  160.6850  201.0110  146.4150 N   0  0  0  0  0  0  0  0  0  0  0  0
  161.1790  200.2200  147.3230 C   0  0  0  0  0  3  0  0  0  0  0  0
  160.9140  202.3970  146.3130 N   0  0  0  0  0  2  0  0  0  0  0  0
  161.6880  203.0380  145.2560 C   0  0  0  0  0  2  0  0  0  0  0  0
  162.8800  205.2780  147.6060 C   0  0  1  0  0  3  0  0  0  0  0  0
  160.4700  205.5180  144.2860 O   0  0  0  0  0  0  0  0  0  0  0  0
  161.8920  206.4690  147.5110 C   0  0  2  0  0  3  0  0  0  0  0  0
  162.0300  204.4030  145.6430 N   0  0  0  0  0  0  0  0  0  0  0  0
  161.4610  205.1520  148.1610 C   0  0  0  0  0  2  0  0  0  0  0  0
  163.1680  204.6560  146.3460 O   0  0  0  0  0  0  0  0  0  0  0  0
  161.2160  205.5160  145.3020 C   0  0  0  0  0  0  0  0  0  0  0  0
  161.2360  206.6130  146.2040 N   0  0  0  0  0  2  0  0  0  0  0  0
  163.0200  210.5700  155.6760 C   0  0  0  0  0  1  0  0  0  0  0  0
  161.2190  211.5740  154.1690 C   0  0  2  0  0  3  0  0  0  0  0  0
  161.6230  210.4260  155.0920 C   0  0  1  0  0  0  0  0  0  0  0  0
  160.6470  211.4770  155.5760 C   0  0  0  0  0  2  0  0  0  0  0  0
  160.1300  211.1920  153.1630 C   0  0  0  0  0  2  0  0  0  0  0  0
  159.9780  212.1550  150.8170 C   0  0  2  0  0  3  0  0  0  0  0  0
  159.8390  213.4560  148.8010 O   0  0  0  0  0  0  0  0  0  0  0  0
  158.3020  214.0000  150.4030 O   0  0  0  0  0  0  0  0  0  0  0  0
  159.3910  213.2480  149.9600 C   0  0  0  0  0  0  0  0  0  0  0  0
  157.6870  213.7820  151.6370 C   0  0  0  0  0  0  0  0  0  0  0  0
  159.6680  212.3800  152.3070 C   0  0  1  0  0  3  0  0  0  0  0  0
  158.1890  212.7160  152.5730 C   0  0  1  0  0  3  0  0  0  0  0  0
  156.6540  214.4440  151.9260 O   0  0  0  0  0  0  0  0  0  0  0  0
  157.0400  212.3920  154.8020 N   0  0  0  0  0  2  0  0  0  0  0  0
  158.5850  214.1190  154.4810 O   0  0  0  0  0  0  0  0  0  0  0  0
  157.9780  213.1200  154.0050 C   0  0  0  0  0  0  0  0  0  0  0  0
  156.7700  212.7450  156.1920 C   0  0  2  0  0  3  0  0  0  0  0  0
  157.7990  212.0880  157.1060 C   0  0  0  0  0  1  0  0  0  0  0  0
  155.3550  212.3740  156.5410 C   0  0  0  0  0  0  0  0  0  0  0  0
  154.5960  213.2560  156.9180 O   0  0  0  0  0  0  0  0  0  0  0  0
  154.8520  210.9640  156.4200 C   0  0  2  0  0  3  0  0  0  0  0  0
  154.7950  210.5690  155.0230 N   0  0  0  0  0  1  0  0  0  0  0  0
  153.4780  210.8370  157.0480 C   0  0  0  0  0  1  0  0  0  0  0  0
  161.4900  212.0660  150.6170 C   0  0  0  0  0  2  0  0  0  0  0  0
  161.8050  211.4330  149.2720 C   0  0  0  0  0  1  0  0  0  0  0  0
  159.5850  209.0850  154.4770 C   0  0  0  0  0  3  0  0  0  0  0  0
  158.7600  209.0950  155.3760 O   0  0  0  0  0  0  0  0  0  0  0  0
  1 55  1  6  0  0  0
  1 32  1  0  0  0  0
  2  6  1  0  0  0  0
  3  4  1  0  0  0  0
  3  2  1  0  0  0  0
  4  7  1  6  0  0  0
  4  5  1  0  0  0  0
  5  8  1  6  0  0  0
  5  6  1  0  0  0  0
  6  1  1  1  0  0  0
  9 10  1  0  0  0  0
  9  8  1  0  0  0  0
 10 11  1  6  0  0  0
 12 10  1  0  0  0  0
 13 16  1  1  0  0  0
 13 12  1  0  0  0  0
 14 15  1  0  0  0  0
 14 13  1  0  0  0  0
 17 16  1  0  0  0  0
 18 19  2  0  0  0  0
 19 17  1  0  0  0  0
 20 18  1  0  0  0  0
 21 25  1  0  0  0  0
 21 20  1  0  0  0  0
 22 26  1  1  0  0  0
 23 28  2  0  0  0  0
 24 22  1  0  0  0  0
 24 26  1  1  0  0  0
 25 27  1  0  0  0  0
 27 22  1  0  0  0  0
 28 25  1  0  0  0  0
 28 29  1  0  0  0  0
 29 24  1  0  0  0  0
 31 34  1  6  0  0  0
 31 32  1  0  0  0  0
 31 33  1  0  0  0  0
 32 33  1  0  0  0  0
 32 30  1  1  0  0  0
 35 53  1  1  0  0  0
 35 40  1  0  0  0  0
 36 38  2  0  0  0  0
 37 39  1  0  0  0  0
 38 37  1  0  0  0  0
 38 35  1  0  0  0  0
 39 42  2  0  0  0  0
 39 41  1  0  0  0  0
 40 41  1  0  0  0  0
 40 34  1  1  0  0  0
 41 45  1  1  0  0  0
 43 46  1  0  0  0  0
 45 44  2  0  0  0  0
 45 43  1  0  0  0  0
 46 48  1  0  0  0  0
 46 47  1  1  0  0  0
 48 49  2  0  0  0  0
 50 48  1  0  0  0  0
 50 52  1  6  0  0  0
 51 50  1  0  0  0  0
 54 53  1  0  0  0  0
 55 56  2  0  0  0  0
M  END
>  <MODEL>
9

>  <REMARK>
 VINA RESULT:      -1.6      2.594      7.148
  Name = 
  22 active torsions:
  status: ('A' for Active; 'I' for Inactive)
    1  A    between atoms: C_3  and  C_9
    2  A    between atoms: C_4  and  C_7
    3  A    between atoms: C_4  and  C_38
    4  A    between atoms: N_5  and  C_10
    5  A    between atoms: C_7  and  O_13
    6  A    between atoms: C_7  and  C_35
    7  A    between atoms: C_8  and  C_17
    8  A    between atoms: C_9  and  C_41
    9  A    between atoms: C_10  and  C_18
   10  A    between atoms: C_11  and  N_34
   11  A    between atoms: C_11  and  N_45
   12  A    between atoms: C_12  and  C_35
   13  A    between atoms: C_12  and  C_39
   14  A    between atoms: C_18  and  C_24
   15  A    between atoms: C_19  and  C_46
   16  A    between atoms: N_21  and  N_45
   17  A    between atoms: C_25  and  C_31
   18  A    between atoms: C_25  and  C_40
   19  A    between atoms: C_25  and  C_49
   20  A    between atoms: C_28  and  C_44
   21  A    between atoms: C_33  and  C_38
   22  A    between atoms: C_39  and  C_44
                            x       y       z     vdW  Elec       q    Type
                         _______ _______ _______ _____ _____    ______ ____

>  <TORSDO>
F 22

$$$$
