=
 OpenBabel11072411423D

 49 52  0  0  1  0  0  0  0  0999 V2000
  161.2690  207.4030  151.0810 O   0  0  0  0  0  1  0  0  0  0  0  0
  160.8190  204.4550  149.0490 C   0  0  0  0  0  3  0  0  0  0  0  0
  160.8940  205.1730  151.8610 C   0  0  2  0  0  3  0  0  0  0  0  0
  160.7900  203.4200  150.0340 N   0  0  0  0  0  2  0  0  0  0  0  0
  160.8850  203.7290  151.4240 C   0  0  0  0  0  0  0  0  0  0  0  0
  161.0900  205.7220  149.3740 C   0  0  0  0  0  0  0  0  0  0  0  0
  160.8630  202.7940  152.2680 O   0  0  0  0  0  0  0  0  0  0  0  0
  161.5310  206.0650  150.7860 C   0  0  1  0  0  3  0  0  0  0  0  0
  161.1660  206.7070  148.2430 C   0  0  2  0  0  3  0  0  0  0  0  0
  160.5630  205.6900  144.6450 C   0  0  0  0  0  3  0  0  0  0  0  0
  161.3760  206.0850  146.8950 C   0  0  0  0  0  0  0  0  0  0  0  0
  161.6910  204.9110  144.3700 C   0  0  0  0  0  3  0  0  0  0  0  0
  162.6630  204.7160  145.3570 C   0  0  0  0  0  3  0  0  0  0  0  0
  162.5050  205.2990  146.6180 C   0  0  0  0  0  3  0  0  0  0  0  0
  160.4050  206.2750  145.9050 C   0  0  0  0  0  3  0  0  0  0  0  0
  161.9940  207.9300  148.5270 C   0  0  0  0  0  0  0  0  0  0  0  0
  163.2060  207.8540  148.6700 O   0  0  0  0  0  0  0  0  0  0  0  0
  161.3140  209.2550  148.6570 C   0  0  0  0  0  2  0  0  0  0  0  0
  162.3250  210.3950  148.6080 C   0  0  0  0  0  2  0  0  0  0  0  0
  160.7470  211.4540  147.0920 C   0  0  0  0  0  3  0  0  0  0  0  0
  161.7290  211.6160  147.9910 C   0  0  0  0  0  0  0  0  0  0  0  0
  158.7120  214.0880  145.8610 C   0  0  0  0  0  3  0  0  0  0  0  0
  160.5390  213.0390  145.2350 C   0  0  0  0  0  3  0  0  0  0  0  0
  159.6730  214.0540  144.8630 C   0  0  0  0  0  3  0  0  0  0  0  0
  158.9930  213.1420  146.7760 N   0  0  0  0  0  0  0  0  0  0  0  0
  160.0880  212.5140  146.3850 N   0  0  0  0  0  0  0  0  0  0  0  0
  161.2470  213.6300  149.3490 C   0  0  0  0  0  1  0  0  0  0  0  0
  162.2420  212.9540  148.4230 C   0  0  0  0  0  2  0  0  0  0  0  0
  161.6350  205.3700  153.1800 C   0  0  0  0  0  2  0  0  0  0  0  0
  161.3490  208.6540  154.6490 C   0  0  0  0  0  3  0  0  0  0  0  0
  161.0870  207.3970  154.3920 C   0  0  0  0  0  0  0  0  0  0  0  0
  160.8020  206.1530  154.1330 C   0  0  0  0  0  3  0  0  0  0  0  0
  160.4160  209.5600  155.4020 C   0  0  2  0  0  3  0  0  0  0  0  0
  159.6590  208.7540  156.4390 C   0  0  0  0  0  1  0  0  0  0  0  0
  159.4240  210.2960  154.5020 C   0  0  0  0  0  2  0  0  0  0  0  0
  159.6570  211.7990  154.5460 C   0  0  2  0  0  3  0  0  0  0  0  0
  160.8130  212.1120  155.4760 C   0  0  0  0  0  1  0  0  0  0  0  0
  156.5150  213.0850  156.2180 C   0  0  1  0  0  3  0  0  0  0  0  0
  157.5290  211.9590  155.9580 C   0  0  0  0  0  2  0  0  0  0  0  0
  156.6420  214.0930  155.0470 C   0  0  1  0  0  3  0  0  0  0  0  0
  158.4520  212.4970  154.9810 N   0  0  0  0  0  0  0  0  0  0  0  0
  157.9570  213.7270  154.4800 C   0  0  0  0  0  0  0  0  0  0  0  0
  158.5760  214.4270  153.6340 O   0  0  0  0  0  0  0  0  0  0  0  0
  154.3870  213.5040  157.2420 O   0  0  0  0  0  1  0  0  0  0  0  0
  155.1050  212.5580  156.5050 C   0  0  2  0  0  3  0  0  0  0  0  0
  154.4170  210.3290  156.5150 C   0  0  0  0  0  1  0  0  0  0  0  0
  155.1760  211.3170  157.2580 N   0  0  0  0  0  2  0  0  0  0  0  0
  155.6150  213.9060  154.0050 C   0  0  0  0  0  0  0  0  0  0  0  0
  154.7760  213.7540  153.1520 C   0  0  0  0  0  3  0  0  0  0  0  0
  2  6  2  0  0  0  0
  2  4  1  0  0  0  0
  3 29  1  1  0  0  0
  4  5  1  0  0  0  0
  5  3  1  0  0  0  0
  5  7  2  0  0  0  0
  6  8  1  0  0  0  0
  8  1  1  1  0  0  0
  8  3  1  0  0  0  0
  9 16  1  1  0  0  0
  9  6  1  0  0  0  0
 10 15  1  0  0  0  0
 11  9  1  0  0  0  0
 12 10  2  0  0  0  0
 12 13  1  0  0  0  0
 13 14  2  0  0  0  0
 14 11  1  0  0  0  0
 15 11  2  0  0  0  0
 16 18  1  0  0  0  0
 16 17  2  0  0  0  0
 19 18  1  0  0  0  0
 20 21  2  0  0  0  0
 21 28  1  0  0  0  0
 21 19  1  0  0  0  0
 22 25  2  0  0  0  0
 23 26  1  0  0  0  0
 24 23  2  0  0  0  0
 24 22  1  0  0  0  0
 26 25  1  0  0  0  0
 26 20  1  0  0  0  0
 28 27  1  0  0  0  0
 29 32  1  0  0  0  0
 30 33  1  0  0  0  0
 31 30  2  0  0  0  0
 32 31  2  0  0  0  0
 33 34  1  1  0  0  0
 35 36  1  0  0  0  0
 35 33  1  0  0  0  0
 36 41  1  0  0  0  0
 36 37  1  1  0  0  0
 38 45  1  6  0  0  0
 39 38  1  0  0  0  0
 40 48  1  6  0  0  0
 40 38  1  0  0  0  0
 41 39  1  0  0  0  0
 42 41  1  0  0  0  0
 42 40  1  0  0  0  0
 43 42  2  0  0  0  0
 45 44  1  1  0  0  0
 45 47  1  0  0  0  0
 46 47  1  0  0  0  0
 49 48  3  0  0  0  0
M  END
>  <MODEL>
1

>  <REMARK>
 VINA RESULT:      -6.6      0.000      0.000
  Name = 
  17 active torsions:
  status: ('A' for Active; 'I' for Inactive)
    1  A    between atoms: C_4  and  C_17
    2  A    between atoms: C_5  and  C_8
    3  A    between atoms: C_5  and  C_13
    4  A    between atoms: C_5  and  C_31
    5  A    between atoms: C_6  and  C_42
    6  A    between atoms: C_6  and  C_48
    7  A    between atoms: C_7  and  C_26
    8  A    between atoms: C_8  and  C_48
    9  A    between atoms: C_9  and  C_45
   10  A    between atoms: C_11  and  C_41
   11  A    between atoms: C_16  and  N_18
   12  A    between atoms: C_16  and  C_39
   13  A    between atoms: C_26  and  C_39
   14  A    between atoms: C_29  and  N_38
   15  A    between atoms: C_34  and  C_41
   16  A    between atoms: C_37  and  C_42
   17  A    between atoms: N_44  and  C_45
                            x       y       z     vdW  Elec       q    Type
                         _______ _______ _______ _____ _____    ______ ____

>  <TORSDO>
F 17

$$$$
=
 OpenBabel11072411423D

 49 52  0  0  1  0  0  0  0  0999 V2000
  159.0310  209.9780  154.4000 O   0  0  0  0  0  1  0  0  0  0  0  0
  160.4720  212.2660  156.7910 C   0  0  0  0  0  3  0  0  0  0  0  0
  161.1000  209.7070  155.5710 C   0  0  2  0  0  3  0  0  0  0  0  0
  161.6030  211.5270  157.2600 N   0  0  0  0  0  2  0  0  0  0  0  0
  161.9090  210.2390  156.7270 C   0  0  0  0  0  0  0  0  0  0  0  0
  159.5800  211.7230  155.9590 C   0  0  0  0  0  0  0  0  0  0  0  0
  162.9080  209.6110  157.1660 O   0  0  0  0  0  0  0  0  0  0  0  0
  159.6630  210.2460  155.6150 C   0  0  1  0  0  3  0  0  0  0  0  0
  158.3950  212.5700  155.5940 C   0  0  2  0  0  3  0  0  0  0  0  0
  155.3620  210.3060  155.4230 C   0  0  0  0  0  3  0  0  0  0  0  0
  157.0680  211.9540  155.9280 C   0  0  0  0  0  0  0  0  0  0  0  0
  154.5790  210.7910  156.4750 C   0  0  0  0  0  3  0  0  0  0  0  0
  155.0370  211.8590  157.2540 C   0  0  0  0  0  3  0  0  0  0  0  0
  156.2770  212.4410  156.9790 C   0  0  0  0  0  3  0  0  0  0  0  0
  156.6040  210.8870  155.1490 C   0  0  0  0  0  3  0  0  0  0  0  0
  158.4800  213.2270  154.2430 C   0  0  0  0  0  0  0  0  0  0  0  0
  158.3930  214.4400  154.1240 O   0  0  0  0  0  0  0  0  0  0  0  0
  158.6520  212.3720  153.0290 C   0  0  0  0  0  2  0  0  0  0  0  0
  160.1280  212.2000  152.6870 C   0  0  0  0  0  2  0  0  0  0  0  0
  159.8510  213.5510  150.6860 C   0  0  0  0  0  3  0  0  0  0  0  0
  160.3760  212.4480  151.2360 C   0  0  0  0  0  0  0  0  0  0  0  0
  160.7870  214.4530  147.3830 C   0  0  0  0  0  3  0  0  0  0  0  0
  158.9230  214.0310  148.4690 C   0  0  0  0  0  3  0  0  0  0  0  0
  159.4120  214.3750  147.2200 C   0  0  0  0  0  3  0  0  0  0  0  0
  161.0950  214.1690  148.6620 N   0  0  0  0  0  0  0  0  0  0  0  0
  159.9670  213.9250  149.3060 N   0  0  0  0  0  0  0  0  0  0  0  0
  161.6980  210.3610  151.4020 C   0  0  0  0  0  1  0  0  0  0  0  0
  161.2150  211.4650  150.4800 C   0  0  0  0  0  2  0  0  0  0  0  0
  161.0630  208.1820  155.5480 C   0  0  0  0  0  2  0  0  0  0  0  0
  161.0280  205.3740  153.2810 C   0  0  0  0  0  3  0  0  0  0  0  0
  161.3810  206.5170  153.8150 C   0  0  0  0  0  0  0  0  0  0  0  0
  161.7320  207.6630  154.3240 C   0  0  0  0  0  3  0  0  0  0  0  0
  161.4860  204.9140  151.9250 C   0  0  2  0  0  3  0  0  0  0  0  0
  162.3260  206.0010  151.2820 C   0  0  0  0  0  1  0  0  0  0  0  0
  160.3370  204.5350  150.9910 C   0  0  0  0  0  2  0  0  0  0  0  0
  160.4610  203.0900  150.5330 C   0  0  2  0  0  3  0  0  0  0  0  0
  161.3180  202.3110  151.5120 C   0  0  0  0  0  1  0  0  0  0  0  0
  162.0480  203.6480  147.1440 C   0  0  1  0  0  3  0  0  0  0  0  0
  161.3280  204.1870  148.3900 C   0  0  0  0  0  2  0  0  0  0  0  0
  161.7560  202.1280  147.0680 C   0  0  1  0  0  3  0  0  0  0  0  0
  161.0320  203.0190  149.1910 N   0  0  0  0  0  0  0  0  0  0  0  0
  161.2990  201.8440  148.4450 C   0  0  0  0  0  0  0  0  0  0  0  0
  161.1540  200.6820  148.9110 O   0  0  0  0  0  0  0  0  0  0  0  0
  162.8270  204.4190  145.0090 O   0  0  0  0  0  1  0  0  0  0  0  0
  161.7350  204.4590  145.8810 C   0  0  2  0  0  3  0  0  0  0  0  0
  160.4020  206.2930  145.3340 C   0  0  0  0  0  1  0  0  0  0  0  0
  161.4500  205.8400  146.2290 N   0  0  0  0  0  2  0  0  0  0  0  0
  160.6650  201.7910  146.1350 C   0  0  0  0  0  0  0  0  0  0  0  0
  159.7720  201.5150  145.3730 C   0  0  0  0  0  3  0  0  0  0  0  0
  2  4  1  0  0  0  0
  3 29  1  1  0  0  0
  3  8  1  0  0  0  0
  3  5  1  0  0  0  0
  5  7  2  0  0  0  0
  5  4  1  0  0  0  0
  6  2  2  0  0  0  0
  8  1  1  6  0  0  0
  8  6  1  0  0  0  0
  9 16  1  6  0  0  0
  9 11  1  0  0  0  0
  9  6  1  0  0  0  0
 10 12  1  0  0  0  0
 11 14  2  0  0  0  0
 12 13  2  0  0  0  0
 14 13  1  0  0  0  0
 15 10  2  0  0  0  0
 15 11  1  0  0  0  0
 17 16  2  0  0  0  0
 18 16  1  0  0  0  0
 19 18  1  0  0  0  0
 20 21  2  0  0  0  0
 21 19  1  0  0  0  0
 22 25  2  0  0  0  0
 23 26  1  0  0  0  0
 24 22  1  0  0  0  0
 24 23  2  0  0  0  0
 25 26  1  0  0  0  0
 26 20  1  0  0  0  0
 28 21  1  0  0  0  0
 28 27  1  0  0  0  0
 30 31  2  0  0  0  0
 31 32  2  0  0  0  0
 32 29  1  0  0  0  0
 33 34  1  6  0  0  0
 33 30  1  0  0  0  0
 35 33  1  0  0  0  0
 36 35  1  0  0  0  0
 36 37  1  1  0  0  0
 38 45  1  6  0  0  0
 38 39  1  0  0  0  0
 39 41  1  0  0  0  0
 40 48  1  6  0  0  0
 40 38  1  0  0  0  0
 40 42  1  0  0  0  0
 41 36  1  0  0  0  0
 42 43  2  0  0  0  0
 42 41  1  0  0  0  0
 45 44  1  6  0  0  0
 45 47  1  0  0  0  0
 46 47  1  0  0  0  0
 49 48  3  0  0  0  0
M  END
>  <MODEL>
2

>  <REMARK>
 VINA RESULT:      -6.2      2.463     10.020
  Name = 
  17 active torsions:
  status: ('A' for Active; 'I' for Inactive)
    1  A    between atoms: C_4  and  C_17
    2  A    between atoms: C_5  and  C_8
    3  A    between atoms: C_5  and  C_13
    4  A    between atoms: C_5  and  C_31
    5  A    between atoms: C_6  and  C_42
    6  A    between atoms: C_6  and  C_48
    7  A    between atoms: C_7  and  C_26
    8  A    between atoms: C_8  and  C_48
    9  A    between atoms: C_9  and  C_45
   10  A    between atoms: C_11  and  C_41
   11  A    between atoms: C_16  and  N_18
   12  A    between atoms: C_16  and  C_39
   13  A    between atoms: C_26  and  C_39
   14  A    between atoms: C_29  and  N_38
   15  A    between atoms: C_34  and  C_41
   16  A    between atoms: C_37  and  C_42
   17  A    between atoms: N_44  and  C_45
                            x       y       z     vdW  Elec       q    Type
                         _______ _______ _______ _____ _____    ______ ____

>  <TORSDO>
F 17

$$$$
=
 OpenBabel11072411423D

 49 52  0  0  1  0  0  0  0  0999 V2000
  160.9850  208.9230  151.1750 O   0  0  0  0  0  1  0  0  0  0  0  0
  161.4060  206.8920  154.1290 C   0  0  0  0  0  3  0  0  0  0  0  0
  160.5360  209.5730  153.4330 C   0  0  2  0  0  3  0  0  0  0  0  0
  161.1360  207.8310  155.1720 N   0  0  0  0  0  2  0  0  0  0  0  0
  160.7640  209.1750  154.8700 C   0  0  0  0  0  0  0  0  0  0  0  0
  161.4720  207.2700  152.8490 C   0  0  0  0  0  0  0  0  0  0  0  0
  160.5400  209.9810  155.8120 O   0  0  0  0  0  0  0  0  0  0  0  0
  161.4180  208.7440  152.4890 C   0  0  1  0  0  3  0  0  0  0  0  0
  161.8350  206.2090  151.8500 C   0  0  2  0  0  3  0  0  0  0  0  0
  162.6580  207.6360  148.4400 C   0  0  0  0  0  3  0  0  0  0  0  0
  161.6840  206.6300  150.4190 C   0  0  0  0  0  0  0  0  0  0  0  0
  161.4470  207.4770  147.7580 C   0  0  0  0  0  3  0  0  0  0  0  0
  160.3520  206.8960  148.4060 C   0  0  0  0  0  3  0  0  0  0  0  0
  160.4680  206.4760  149.7340 C   0  0  0  0  0  3  0  0  0  0  0  0
  162.7760  207.2150  149.7670 C   0  0  0  0  0  3  0  0  0  0  0  0
  161.3230  204.8320  152.1770 C   0  0  0  0  0  0  0  0  0  0  0  0
  160.4970  204.6590  153.0610 O   0  0  0  0  0  0  0  0  0  0  0  0
  161.8560  203.6600  151.4170 C   0  0  0  0  0  2  0  0  0  0  0  0
  160.7280  202.8950  150.7340 C   0  0  0  0  0  2  0  0  0  0  0  0
  161.4820  203.8040  148.6110 C   0  0  0  0  0  3  0  0  0  0  0  0
  160.9860  202.7490  149.2720 C   0  0  0  0  0  0  0  0  0  0  0  0
  161.5880  203.6050  145.0690 C   0  0  0  0  0  3  0  0  0  0  0  0
  162.8260  204.4630  146.6700 C   0  0  0  0  0  3  0  0  0  0  0  0
  162.7520  204.3240  145.2940 C   0  0  0  0  0  3  0  0  0  0  0  0
  161.0040  203.3310  146.2500 N   0  0  0  0  0  0  0  0  0  0  0  0
  161.7610  203.8450  147.2040 N   0  0  0  0  0  0  0  0  0  0  0  0
  160.8710  200.3020  149.6290 C   0  0  0  0  0  1  0  0  0  0  0  0
  160.7000  201.4290  148.6270 C   0  0  0  0  0  2  0  0  0  0  0  0
  160.8040  211.0560  153.1970 C   0  0  0  0  0  2  0  0  0  0  0  0
  158.9790  213.5040  151.2730 C   0  0  0  0  0  3  0  0  0  0  0  0
  159.2660  212.6660  152.2380 C   0  0  0  0  0  0  0  0  0  0  0  0
  159.5290  211.8230  153.1950 C   0  0  0  0  0  3  0  0  0  0  0  0
  157.6200  214.1190  151.0840 C   0  0  2  0  0  3  0  0  0  0  0  0
  156.7920  213.9050  152.3360 C   0  0  0  0  0  1  0  0  0  0  0  0
  156.8670  213.5700  149.8730 C   0  0  0  0  0  2  0  0  0  0  0  0
  157.2100  214.3550  148.6150 C   0  0  2  0  0  3  0  0  0  0  0  0
  155.9890  214.4510  147.7210 C   0  0  0  0  0  1  0  0  0  0  0  0
  160.5100  213.1320  147.2260 C   0  0  1  0  0  3  0  0  0  0  0  0
  159.6910  214.1620  148.0210 C   0  0  0  0  0  2  0  0  0  0  0  0
  159.5210  212.3740  146.3050 C   0  0  1  0  0  3  0  0  0  0  0  0
  158.3160  213.7280  147.8980 N   0  0  0  0  0  0  0  0  0  0  0  0
  158.2230  212.6910  146.9360 C   0  0  0  0  0  0  0  0  0  0  0  0
  157.1420  212.1090  146.6500 O   0  0  0  0  0  0  0  0  0  0  0  0
  162.0680  213.0040  145.4070 O   0  0  0  0  0  1  0  0  0  0  0  0
  161.7330  213.7500  146.5400 C   0  0  2  0  0  3  0  0  0  0  0  0
  162.9050  212.4750  148.1030 C   0  0  0  0  0  1  0  0  0  0  0  0
  162.8640  213.7710  147.4520 N   0  0  0  0  0  2  0  0  0  0  0  0
  159.5050  212.8860  144.9220 C   0  0  0  0  0  0  0  0  0  0  0  0
  159.4920  213.3060  143.7910 C   0  0  0  0  0  3  0  0  0  0  0  0
  2  4  1  0  0  0  0
  3 29  1  1  0  0  0
  3  5  1  0  0  0  0
  5  4  1  0  0  0  0
  5  7  2  0  0  0  0
  6  2  2  0  0  0  0
  8  1  1  6  0  0  0
  8  6  1  0  0  0  0
  8  3  1  0  0  0  0
  9 16  1  1  0  0  0
  9  6  1  0  0  0  0
 10 15  1  0  0  0  0
 11  9  1  0  0  0  0
 12 13  1  0  0  0  0
 12 10  2  0  0  0  0
 13 14  2  0  0  0  0
 14 11  1  0  0  0  0
 15 11  2  0  0  0  0
 16 17  2  0  0  0  0
 18 16  1  0  0  0  0
 19 18  1  0  0  0  0
 20 21  2  0  0  0  0
 21 19  1  0  0  0  0
 22 24  1  0  0  0  0
 22 25  2  0  0  0  0
 23 26  1  0  0  0  0
 24 23  2  0  0  0  0
 25 26  1  0  0  0  0
 26 20  1  0  0  0  0
 28 21  1  0  0  0  0
 28 27  1  0  0  0  0
 30 31  2  0  0  0  0
 31 32  2  0  0  0  0
 32 29  1  0  0  0  0
 33 30  1  0  0  0  0
 33 34  1  1  0  0  0
 35 33  1  0  0  0  0
 36 37  1  6  0  0  0
 36 35  1  0  0  0  0
 38 45  1  6  0  0  0
 38 39  1  0  0  0  0
 40 48  1  6  0  0  0
 40 42  1  0  0  0  0
 40 38  1  0  0  0  0
 41 39  1  0  0  0  0
 41 36  1  0  0  0  0
 42 41  1  0  0  0  0
 43 42  2  0  0  0  0
 45 44  1  6  0  0  0
 45 47  1  0  0  0  0
 47 46  1  0  0  0  0
 49 48  3  0  0  0  0
M  END
>  <MODEL>
3

>  <REMARK>
 VINA RESULT:      -6.0      2.758      8.030
  Name = 
  17 active torsions:
  status: ('A' for Active; 'I' for Inactive)
    1  A    between atoms: C_4  and  C_17
    2  A    between atoms: C_5  and  C_8
    3  A    between atoms: C_5  and  C_13
    4  A    between atoms: C_5  and  C_31
    5  A    between atoms: C_6  and  C_42
    6  A    between atoms: C_6  and  C_48
    7  A    between atoms: C_7  and  C_26
    8  A    between atoms: C_8  and  C_48
    9  A    between atoms: C_9  and  C_45
   10  A    between atoms: C_11  and  C_41
   11  A    between atoms: C_16  and  N_18
   12  A    between atoms: C_16  and  C_39
   13  A    between atoms: C_26  and  C_39
   14  A    between atoms: C_29  and  N_38
   15  A    between atoms: C_34  and  C_41
   16  A    between atoms: C_37  and  C_42
   17  A    between atoms: N_44  and  C_45
                            x       y       z     vdW  Elec       q    Type
                         _______ _______ _______ _____ _____    ______ ____

>  <TORSDO>
F 17

$$$$
=
 OpenBabel11072411423D

 49 52  0  0  1  0  0  0  0  0999 V2000
  161.5170  210.0140  140.9620 O   0  0  0  0  0  1  0  0  0  0  0  0
  161.2050  210.1010  137.3680 C   0  0  0  0  0  3  0  0  0  0  0  0
  161.6750  208.1520  139.4680 C   0  0  2  0  0  3  0  0  0  0  0  0
  161.5330  208.7560  137.0110 N   0  0  0  0  0  0  0  0  0  0  0  0
  161.8290  207.7840  138.0140 C   0  0  0  0  0  0  0  0  0  0  0  0
  161.3130  210.5360  138.6260 C   0  0  1  0  0  3  0  0  0  0  0  0
  162.1210  206.6090  137.6670 O   0  0  0  0  0  0  0  0  0  0  0  0
  161.9420  209.6480  139.6840 C   0  0  1  0  0  3  0  0  0  0  0  0
  161.0120  211.9880  138.8660 C   0  0  2  0  0  3  0  0  0  0  0  0
  164.3610  213.6520  138.2630 C   0  0  0  0  0  3  0  0  0  0  0  0
  162.2260  212.8430  139.0790 C   0  0  0  0  0  0  0  0  0  0  0  0
  164.5360  214.3880  139.4390 C   0  0  0  0  0  3  0  0  0  0  0  0
  163.5580  214.3520  140.4380 C   0  0  0  0  0  3  0  0  0  0  0  0
  162.4070  213.5780  140.2600 C   0  0  0  0  0  3  0  0  0  0  0  0
  163.2090  212.8810  138.0830 C   0  0  0  0  0  3  0  0  0  0  0  0
  159.8650  212.2480  139.8040 C   0  0  0  0  0  0  0  0  0  0  0  0
  160.0050  212.9530  140.7930 O   0  0  0  0  0  0  0  0  0  0  0  0
  158.5410  211.6120  139.5260 C   0  0  0  0  0  2  0  0  0  0  0  0
  157.9370  212.1510  138.2350 C   0  0  0  0  0  2  0  0  0  0  0  0
  155.8830  210.9010  138.5840 C   0  0  0  0  0  3  0  0  0  0  0  0
  156.4470  212.0740  138.2650 C   0  0  0  0  0  0  0  0  0  0  0  0
  152.4290  210.2840  138.0450 C   0  0  0  0  0  3  0  0  0  0  0  0
  153.7920  210.4070  139.7650 C   0  0  0  0  0  3  0  0  0  0  0  0
  152.4700  210.1740  139.4260 C   0  0  0  0  0  3  0  0  0  0  0  0
  153.6630  210.5670  137.5890 N   0  0  0  0  0  0  0  0  0  0  0  0
  154.4710  210.6460  138.6310 N   0  0  0  0  0  0  0  0  0  0  0  0
  155.3490  214.0690  139.2370 C   0  0  0  0  0  1  0  0  0  0  0  0
  155.6640  213.3130  137.9600 C   0  0  0  0  0  2  0  0  0  0  0  0
  162.6020  207.3410  140.3690 C   0  0  0  0  0  2  0  0  0  0  0  0
  161.8440  206.0590  143.6560 C   0  0  0  0  0  3  0  0  0  0  0  0
  161.8570  206.1590  142.3500 C   0  0  0  0  0  0  0  0  0  0  0  0
  161.8470  206.2560  141.0510 C   0  0  0  0  0  3  0  0  0  0  0  0
  160.9150  205.1480  144.4090 C   0  0  2  0  0  3  0  0  0  0  0  0
  159.8620  205.9770  145.1180 C   0  0  0  0  0  1  0  0  0  0  0  0
  161.6300  204.2530  145.4220 C   0  0  0  0  0  2  0  0  0  0  0  0
  162.5980  205.0590  146.2750 C   0  0  2  0  0  3  0  0  0  0  0  0
  163.8070  204.2120  146.6190 C   0  0  0  0  0  1  0  0  0  0  0  0
  161.1680  206.9600  149.2180 C   0  0  1  0  0  3  0  0  0  0  0  0
  162.1620  206.8490  148.0510 C   0  0  0  0  0  2  0  0  0  0  0  0
  160.7070  205.5210  149.5640 C   0  0  1  0  0  3  0  0  0  0  0  0
  161.9460  205.5320  147.4920 N   0  0  0  0  0  0  0  0  0  0  0  0
  161.0960  204.7820  148.3440 C   0  0  0  0  0  0  0  0  0  0  0  0
  160.7200  203.6080  148.0840 O   0  0  0  0  0  0  0  0  0  0  0  0
  160.7900  207.8000  151.4330 O   0  0  0  0  0  1  0  0  0  0  0  0
  161.7130  207.7920  150.3840 C   0  0  2  0  0  3  0  0  0  0  0  0
  161.9840  209.9800  151.1480 C   0  0  0  0  0  1  0  0  0  0  0  0
  161.9610  209.1580  149.9530 N   0  0  0  0  0  2  0  0  0  0  0  0
  161.4280  204.9400  150.7120 C   0  0  0  0  0  0  0  0  0  0  0  0
  162.0160  204.4630  151.6510 C   0  0  0  0  0  3  0  0  0  0  0  0
  2  6  1  0  0  0  0
  3  8  1  0  0  0  0
  3 29  1  1  0  0  0
  4  2  2  0  0  0  0
  4  5  1  0  0  0  0
  5  3  1  0  0  0  0
  6  9  1  6  0  0  0
  6  8  1  0  0  0  0
  7  5  2  0  0  0  0
  8  1  1  1  0  0  0
  9 11  1  0  0  0  0
  9 16  1  1  0  0  0
 10 12  1  0  0  0  0
 11 14  2  0  0  0  0
 12 13  2  0  0  0  0
 14 13  1  0  0  0  0
 15 10  2  0  0  0  0
 15 11  1  0  0  0  0
 16 17  2  0  0  0  0
 18 16  1  0  0  0  0
 19 21  1  0  0  0  0
 19 18  1  0  0  0  0
 20 26  1  0  0  0  0
 21 20  2  0  0  0  0
 22 24  1  0  0  0  0
 24 23  2  0  0  0  0
 25 22  2  0  0  0  0
 25 26  1  0  0  0  0
 26 23  1  0  0  0  0
 28 21  1  0  0  0  0
 28 27  1  0  0  0  0
 29 32  1  0  0  0  0
 30 33  1  0  0  0  0
 31 30  2  0  0  0  0
 32 31  2  0  0  0  0
 33 34  1  1  0  0  0
 33 35  1  0  0  0  0
 35 36  1  0  0  0  0
 36 37  1  1  0  0  0
 36 41  1  0  0  0  0
 38 40  1  0  0  0  0
 38 45  1  1  0  0  0
 39 38  1  0  0  0  0
 40 48  1  1  0  0  0
 41 39  1  0  0  0  0
 41 42  1  0  0  0  0
 42 40  1  0  0  0  0
 43 42  2  0  0  0  0
 45 44  1  1  0  0  0
 47 45  1  0  0  0  0
 47 46  1  0  0  0  0
 48 49  3  0  0  0  0
M  END
>  <MODEL>
4

>  <REMARK>
 VINA RESULT:      -5.6      6.272     11.319
  Name = 
  17 active torsions:
  status: ('A' for Active; 'I' for Inactive)
    1  A    between atoms: C_4  and  C_17
    2  A    between atoms: C_5  and  C_8
    3  A    between atoms: C_5  and  C_13
    4  A    between atoms: C_5  and  C_31
    5  A    between atoms: C_6  and  C_42
    6  A    between atoms: C_6  and  C_48
    7  A    between atoms: C_7  and  C_26
    8  A    between atoms: C_8  and  C_48
    9  A    between atoms: C_9  and  C_45
   10  A    between atoms: C_11  and  C_41
   11  A    between atoms: C_16  and  N_18
   12  A    between atoms: C_16  and  C_39
   13  A    between atoms: C_26  and  C_39
   14  A    between atoms: C_29  and  N_38
   15  A    between atoms: C_34  and  C_41
   16  A    between atoms: C_37  and  C_42
   17  A    between atoms: N_44  and  C_45
                            x       y       z     vdW  Elec       q    Type
                         _______ _______ _______ _____ _____    ______ ____

>  <TORSDO>
F 17

$$$$
=
 OpenBabel11072411423D

 49 52  0  0  1  0  0  0  0  0999 V2000
  162.1630  208.1600  148.4750 O   0  0  0  0  0  1  0  0  0  0  0  0
  161.0990  206.8590  151.6680 C   0  0  0  0  0  3  0  0  0  0  0  0
  161.4880  209.4340  150.3840 C   0  0  2  0  0  3  0  0  0  0  0  0
  160.9710  208.0520  152.4440 N   0  0  0  0  0  2  0  0  0  0  0  0
  161.2130  209.3330  151.8640 C   0  0  0  0  0  0  0  0  0  0  0  0
  161.5930  206.8820  150.4280 C   0  0  0  0  0  0  0  0  0  0  0  0
  161.0990  210.3650  152.5760 O   0  0  0  0  0  0  0  0  0  0  0  0
  162.1830  208.1650  149.8700 C   0  0  1  0  0  3  0  0  0  0  0  0
  161.7490  205.5570  149.7380 C   0  0  2  0  0  3  0  0  0  0  0  0
  162.4390  205.1680  146.0340 C   0  0  0  0  0  3  0  0  0  0  0  0
  161.5610  205.6080  148.2510 C   0  0  0  0  0  0  0  0  0  0  0  0
  161.2870  205.7180  145.4640 C   0  0  0  0  0  3  0  0  0  0  0  0
  160.2700  206.2160  146.2860 C   0  0  0  0  0  3  0  0  0  0  0  0
  160.4080  206.1650  147.6760 C   0  0  0  0  0  3  0  0  0  0  0  0
  162.5770  205.1140  147.4240 C   0  0  0  0  0  3  0  0  0  0  0  0
  161.0830  204.4010  150.4340 C   0  0  0  0  0  0  0  0  0  0  0  0
  159.8690  204.3600  150.5700 O   0  0  0  0  0  0  0  0  0  0  0  0
  161.9290  203.2990  150.9850 C   0  0  0  0  0  2  0  0  0  0  0  0
  161.0960  202.0490  151.2430 C   0  0  0  0  0  2  0  0  0  0  0  0
  161.4630  201.5750  148.8880 C   0  0  0  0  0  3  0  0  0  0  0  0
  160.6790  201.4060  149.9620 C   0  0  0  0  0  0  0  0  0  0  0  0
  160.5700  200.8870  145.5230 C   0  0  0  0  0  3  0  0  0  0  0  0
  161.5710  199.8300  147.1700 C   0  0  0  0  0  3  0  0  0  0  0  0
  161.1780  199.6840  145.8500 C   0  0  0  0  0  3  0  0  0  0  0  0
  160.6000  201.7020  146.5930 N   0  0  0  0  0  0  0  0  0  0  0  0
  161.1970  201.0540  147.5780 N   0  0  0  0  0  0  0  0  0  0  0  0
  158.3040  201.3520  149.2630 C   0  0  0  0  0  1  0  0  0  0  0  0
  159.4240  200.5920  149.9500 C   0  0  0  0  0  2  0  0  0  0  0  0
  162.3420  210.6490  150.0380 C   0  0  0  0  0  2  0  0  0  0  0  0
  162.9290  212.9830  147.3490 C   0  0  0  0  0  3  0  0  0  0  0  0
  162.2810  212.2630  148.2300 C   0  0  0  0  0  0  0  0  0  0  0  0
  161.6210  211.5400  149.0890 C   0  0  0  0  0  3  0  0  0  0  0  0
  162.2600  213.7060  146.2130 C   0  0  2  0  0  3  0  0  0  0  0  0
  161.0480  214.4530  146.7360 C   0  0  0  0  0  1  0  0  0  0  0  0
  161.8390  212.7850  145.0690 C   0  0  0  0  0  2  0  0  0  0  0  0
  160.5770  213.2980  144.3910 C   0  0  2  0  0  3  0  0  0  0  0  0
  159.3760  212.5120  144.8790 C   0  0  0  0  0  1  0  0  0  0  0  0
  160.1220  213.0230  140.6440 C   0  0  1  0  0  3  0  0  0  0  0  0
  159.5840  212.8560  142.0740 C   0  0  0  0  0  2  0  0  0  0  0  0
  161.6690  213.0430  140.7370 C   0  0  1  0  0  3  0  0  0  0  0  0
  160.6930  213.1980  142.9390 N   0  0  0  0  0  0  0  0  0  0  0  0
  161.8780  213.3290  142.1720 C   0  0  0  0  0  0  0  0  0  0  0  0
  162.9900  213.6500  142.6700 O   0  0  0  0  0  0  0  0  0  0  0  0
  159.8130  212.3960  138.3490 O   0  0  0  0  0  1  0  0  0  0  0  0
  159.5180  212.0150  139.6610 C   0  0  2  0  0  3  0  0  0  0  0  0
  157.5810  210.9810  138.8720 C   0  0  0  0  0  1  0  0  0  0  0  0
  158.0760  211.9520  139.8290 N   0  0  0  0  0  2  0  0  0  0  0  0
  162.2870  211.7400  140.4260 C   0  0  0  0  0  0  0  0  0  0  0  0
  162.7920  210.6750  140.1700 C   0  0  0  0  0  3  0  0  0  0  0  0
  2  4  1  0  0  0  0
  3 29  1  1  0  0  0
  3  5  1  0  0  0  0
  5  4  1  0  0  0  0
  5  7  2  0  0  0  0
  6  2  2  0  0  0  0
  8  1  1  6  0  0  0
  8  3  1  0  0  0  0
  8  6  1  0  0  0  0
  9  6  1  0  0  0  0
  9 16  1  1  0  0  0
 10 15  1  0  0  0  0
 11  9  1  0  0  0  0
 12 10  2  0  0  0  0
 12 13  1  0  0  0  0
 13 14  2  0  0  0  0
 14 11  1  0  0  0  0
 15 11  2  0  0  0  0
 16 17  2  0  0  0  0
 16 18  1  0  0  0  0
 18 19  1  0  0  0  0
 20 21  2  0  0  0  0
 21 19  1  0  0  0  0
 22 24  1  0  0  0  0
 22 25  2  0  0  0  0
 23 26  1  0  0  0  0
 24 23  2  0  0  0  0
 25 26  1  0  0  0  0
 26 20  1  0  0  0  0
 27 28  1  0  0  0  0
 28 21  1  0  0  0  0
 30 31  2  0  0  0  0
 31 32  2  0  0  0  0
 32 29  1  0  0  0  0
 33 34  1  1  0  0  0
 33 30  1  0  0  0  0
 35 33  1  0  0  0  0
 36 37  1  1  0  0  0
 36 35  1  0  0  0  0
 38 45  1  6  0  0  0
 38 40  1  0  0  0  0
 38 39  1  0  0  0  0
 39 41  1  0  0  0  0
 40 48  1  1  0  0  0
 40 42  1  0  0  0  0
 41 36  1  0  0  0  0
 42 43  2  0  0  0  0
 42 41  1  0  0  0  0
 45 44  1  6  0  0  0
 45 47  1  0  0  0  0
 46 47  1  0  0  0  0
 49 48  3  0  0  0  0
M  END
>  <MODEL>
5

>  <REMARK>
 VINA RESULT:      -5.4      4.161     10.560
  Name = 
  17 active torsions:
  status: ('A' for Active; 'I' for Inactive)
    1  A    between atoms: C_4  and  C_17
    2  A    between atoms: C_5  and  C_8
    3  A    between atoms: C_5  and  C_13
    4  A    between atoms: C_5  and  C_31
    5  A    between atoms: C_6  and  C_42
    6  A    between atoms: C_6  and  C_48
    7  A    between atoms: C_7  and  C_26
    8  A    between atoms: C_8  and  C_48
    9  A    between atoms: C_9  and  C_45
   10  A    between atoms: C_11  and  C_41
   11  A    between atoms: C_16  and  N_18
   12  A    between atoms: C_16  and  C_39
   13  A    between atoms: C_26  and  C_39
   14  A    between atoms: C_29  and  N_38
   15  A    between atoms: C_34  and  C_41
   16  A    between atoms: C_37  and  C_42
   17  A    between atoms: N_44  and  C_45
                            x       y       z     vdW  Elec       q    Type
                         _______ _______ _______ _____ _____    ______ ____

>  <TORSDO>
F 17

$$$$
=
 OpenBabel11072411423D

 49 52  0  0  1  0  0  0  0  0999 V2000
  159.8410  208.5630  153.0700 O   0  0  0  0  0  1  0  0  0  0  0  0
  161.7810  210.8060  151.0140 C   0  0  0  0  0  3  0  0  0  0  0  0
  160.9850  208.0140  151.0420 C   0  0  2  0  0  3  0  0  0  0  0  0
  162.3360  209.9130  150.0460 N   0  0  0  0  0  0  0  0  0  0  0  0
  162.0160  208.5220  150.0650 C   0  0  0  0  0  0  0  0  0  0  0  0
  161.0730  210.3570  152.0540 C   0  0  1  0  0  3  0  0  0  0  0  0
  162.5270  207.7590  149.2020 O   0  0  0  0  0  0  0  0  0  0  0  0
  160.9770  208.8660  152.3190 C   0  0  1  0  0  3  0  0  0  0  0  0
  160.6040  211.3840  153.0450 C   0  0  2  0  0  3  0  0  0  0  0  0
  162.5870  210.3350  156.0960 C   0  0  0  0  0  3  0  0  0  0  0  0
  160.9440  211.0680  154.4710 C   0  0  0  0  0  0  0  0  0  0  0  0
  161.6270  210.4200  157.1100 C   0  0  0  0  0  3  0  0  0  0  0  0
  160.3240  210.8270  156.8060 C   0  0  0  0  0  3  0  0  0  0  0  0
  159.9820  211.1470  155.4890 C   0  0  0  0  0  3  0  0  0  0  0  0
  162.2460  210.6570  154.7800 C   0  0  0  0  0  3  0  0  0  0  0  0
  159.2080  211.8950  152.8110 C   0  0  0  0  0  0  0  0  0  0  0  0
  158.2460  211.1420  152.8420 O   0  0  0  0  0  0  0  0  0  0  0  0
  159.0060  213.3460  152.5150 C   0  0  0  0  0  2  0  0  0  0  0  0
  160.0610  213.8560  151.5400 C   0  0  0  0  0  2  0  0  0  0  0  0
  160.3310  213.2740  149.1970 C   0  0  0  0  0  3  0  0  0  0  0  0
  159.5550  213.8300  150.1370 C   0  0  0  0  0  0  0  0  0  0  0  0
  158.9480  213.2870  145.9280 C   0  0  0  0  0  3  0  0  0  0  0  0
  160.9040  212.8860  146.8450 C   0  0  0  0  0  3  0  0  0  0  0  0
  160.2530  212.9320  145.6240 C   0  0  0  0  0  3  0  0  0  0  0  0
  158.8320  213.4430  147.2600 N   0  0  0  0  0  0  0  0  0  0  0  0
  160.0110  213.1910  147.8000 N   0  0  0  0  0  0  0  0  0  0  0  0
  157.1420  213.3190  149.9180 C   0  0  0  0  0  1  0  0  0  0  0  0
  158.2000  214.4050  149.8590 C   0  0  0  0  0  2  0  0  0  0  0  0
  161.2170  206.5530  151.4140 C   0  0  0  0  0  2  0  0  0  0  0  0
  161.0830  203.0720  150.4720 C   0  0  0  0  0  3  0  0  0  0  0  0
  160.9140  204.3690  150.4060 C   0  0  0  0  0  0  0  0  0  0  0  0
  160.7240  205.6560  150.3340 C   0  0  0  0  0  3  0  0  0  0  0  0
  160.4030  202.0990  149.5490 C   0  0  2  0  0  3  0  0  0  0  0  0
  159.3900  201.2860  150.3310 C   0  0  0  0  0  1  0  0  0  0  0  0
  161.3740  201.1580  148.8350 C   0  0  0  0  0  2  0  0  0  0  0  0
  160.7810  200.6500  147.5290 C   0  0  2  0  0  3  0  0  0  0  0  0
  161.5780  199.4600  147.0320 C   0  0  0  0  0  1  0  0  0  0  0  0
  161.1940  203.7520  145.4010 C   0  0  1  0  0  3  0  0  0  0  0  0
  161.2670  203.0430  146.7630 C   0  0  0  0  0  2  0  0  0  0  0  0
  160.2390  202.9230  144.5050 C   0  0  1  0  0  3  0  0  0  0  0  0
  160.7650  201.7070  146.5220 N   0  0  0  0  0  0  0  0  0  0  0  0
  160.2000  201.6320  145.2240 C   0  0  0  0  0  0  0  0  0  0  0  0
  159.7120  200.5740  144.7440 O   0  0  0  0  0  0  0  0  0  0  0  0
  161.1280  205.8880  144.3110 O   0  0  0  0  0  1  0  0  0  0  0  0
  160.8750  205.2460  145.5260 C   0  0  2  0  0  3  0  0  0  0  0  0
  163.0770  205.6090  146.2050 C   0  0  0  0  0  1  0  0  0  0  0  0
  161.6920  205.8480  146.5660 N   0  0  0  0  0  2  0  0  0  0  0  0
  158.8700  203.4700  144.4520 C   0  0  0  0  0  0  0  0  0  0  0  0
  157.7500  203.9160  144.4090 C   0  0  0  0  0  3  0  0  0  0  0  0
  2  6  1  0  0  0  0
  3 29  1  1  0  0  0
  3  8  1  0  0  0  0
  4  5  1  0  0  0  0
  4  2  2  0  0  0  0
  5  3  1  0  0  0  0
  6  8  1  0  0  0  0
  6  9  1  1  0  0  0
  7  5  2  0  0  0  0
  8  1  1  6  0  0  0
  9 16  1  1  0  0  0
  9 11  1  0  0  0  0
 10 12  1  0  0  0  0
 11 15  1  0  0  0  0
 11 14  2  0  0  0  0
 13 12  2  0  0  0  0
 14 13  1  0  0  0  0
 15 10  2  0  0  0  0
 16 17  2  0  0  0  0
 18 16  1  0  0  0  0
 19 18  1  0  0  0  0
 20 21  2  0  0  0  0
 21 19  1  0  0  0  0
 22 25  2  0  0  0  0
 23 26  1  0  0  0  0
 24 22  1  0  0  0  0
 24 23  2  0  0  0  0
 25 26  1  0  0  0  0
 26 20  1  0  0  0  0
 28 27  1  0  0  0  0
 28 21  1  0  0  0  0
 31 30  2  0  0  0  0
 32 31  2  0  0  0  0
 32 29  1  0  0  0  0
 33 34  1  1  0  0  0
 33 30  1  0  0  0  0
 35 33  1  0  0  0  0
 36 37  1  6  0  0  0
 36 35  1  0  0  0  0
 38 45  1  1  0  0  0
 38 39  1  0  0  0  0
 40 48  1  1  0  0  0
 40 42  1  0  0  0  0
 40 38  1  0  0  0  0
 41 39  1  0  0  0  0
 41 36  1  0  0  0  0
 42 41  1  0  0  0  0
 43 42  2  0  0  0  0
 45 44  1  6  0  0  0
 45 47  1  0  0  0  0
 46 47  1  0  0  0  0
 49 48  3  0  0  0  0
M  END
>  <MODEL>
6

>  <REMARK>
 VINA RESULT:      -5.0      3.120      9.819
  Name = 
  17 active torsions:
  status: ('A' for Active; 'I' for Inactive)
    1  A    between atoms: C_4  and  C_17
    2  A    between atoms: C_5  and  C_8
    3  A    between atoms: C_5  and  C_13
    4  A    between atoms: C_5  and  C_31
    5  A    between atoms: C_6  and  C_42
    6  A    between atoms: C_6  and  C_48
    7  A    between atoms: C_7  and  C_26
    8  A    between atoms: C_8  and  C_48
    9  A    between atoms: C_9  and  C_45
   10  A    between atoms: C_11  and  C_41
   11  A    between atoms: C_16  and  N_18
   12  A    between atoms: C_16  and  C_39
   13  A    between atoms: C_26  and  C_39
   14  A    between atoms: C_29  and  N_38
   15  A    between atoms: C_34  and  C_41
   16  A    between atoms: C_37  and  C_42
   17  A    between atoms: N_44  and  C_45
                            x       y       z     vdW  Elec       q    Type
                         _______ _______ _______ _____ _____    ______ ____

>  <TORSDO>
F 17

$$$$
=
 OpenBabel11072411423D

 49 52  0  0  1  0  0  0  0  0999 V2000
  161.6200  210.8830  150.8160 O   0  0  0  0  0  1  0  0  0  0  0  0
  158.7250  212.1770  152.5390 C   0  0  0  0  0  3  0  0  0  0  0  0
  160.1110  212.5580  150.0160 C   0  0  2  0  0  3  0  0  0  0  0  0
  158.3130  213.2340  151.6680 N   0  0  0  0  0  0  0  0  0  0  0  0
  159.0070  213.4900  150.4480 C   0  0  0  0  0  0  0  0  0  0  0  0
  159.8550  211.4980  152.3250 C   0  0  1  0  0  3  0  0  0  0  0  0
  158.6230  214.4330  149.7060 O   0  0  0  0  0  0  0  0  0  0  0  0
  160.8130  211.9410  151.2340 C   0  0  1  0  0  3  0  0  0  0  0  0
  160.2220  210.4610  153.3480 C   0  0  2  0  0  3  0  0  0  0  0  0
  161.9290  210.8630  156.7060 C   0  0  0  0  0  3  0  0  0  0  0  0
  160.5900  211.0210  154.6900 C   0  0  0  0  0  0  0  0  0  0  0  0
  161.2890  211.9940  157.2230 C   0  0  0  0  0  3  0  0  0  0  0  0
  160.2980  212.6390  156.4770 C   0  0  0  0  0  3  0  0  0  0  0  0
  159.9460  212.1520  155.2150 C   0  0  0  0  0  3  0  0  0  0  0  0
  161.5790  210.3770  155.4430 C   0  0  0  0  0  3  0  0  0  0  0  0
  161.1140  209.3610  152.8400 C   0  0  0  0  0  0  0  0  0  0  0  0
  162.3250  209.5130  152.7650 O   0  0  0  0  0  0  0  0  0  0  0  0
  160.4990  208.0710  152.4010 C   0  0  0  0  0  2  0  0  0  0  0  0
  161.4610  206.9080  152.6140 C   0  0  0  0  0  2  0  0  0  0  0  0
  161.5040  206.7370  150.1900 C   0  0  0  0  0  3  0  0  0  0  0  0
  161.6150  206.1040  151.3660 C   0  0  0  0  0  0  0  0  0  0  0  0
  161.3270  204.7420  147.2590 C   0  0  0  0  0  3  0  0  0  0  0  0
  162.2400  206.6520  147.8540 C   0  0  0  0  0  3  0  0  0  0  0  0
  162.0930  205.7930  146.7770 C   0  0  0  0  0  3  0  0  0  0  0  0
  161.0360  204.9670  148.5540 N   0  0  0  0  0  0  0  0  0  0  0  0
  161.5960  206.1130  148.9010 N   0  0  0  0  0  0  0  0  0  0  0  0
  160.6940  203.9010  152.0220 C   0  0  0  0  0  1  0  0  0  0  0  0
  161.9090  204.6410  151.4940 C   0  0  0  0  0  2  0  0  0  0  0  0
  161.1470  213.2590  149.1420 C   0  0  0  0  0  2  0  0  0  0  0  0
  161.4750  213.9210  145.6100 C   0  0  0  0  0  3  0  0  0  0  0  0
  161.3680  213.2480  146.7280 C   0  0  0  0  0  0  0  0  0  0  0  0
  161.2800  212.5650  147.8330 C   0  0  0  0  0  3  0  0  0  0  0  0
  161.8540  213.2950  144.2960 C   0  0  2  0  0  3  0  0  0  0  0  0
  163.3440  213.4660  144.0700 C   0  0  0  0  0  1  0  0  0  0  0  0
  161.0860  213.8670  143.1060 C   0  0  0  0  0  2  0  0  0  0  0  0
  160.0500  212.8750  142.5980 C   0  0  2  0  0  3  0  0  0  0  0  0
  160.3990  211.4780  143.0720 C   0  0  0  0  0  1  0  0  0  0  0  0
  159.1410  213.2300  138.9420 C   0  0  1  0  0  3  0  0  0  0  0  0
  158.7300  213.1070  140.4180 C   0  0  0  0  0  2  0  0  0  0  0  0
  160.5790  212.6650  138.8190 C   0  0  1  0  0  3  0  0  0  0  0  0
  159.9690  212.9110  141.1410 N   0  0  0  0  0  0  0  0  0  0  0  0
  161.0280  212.6830  140.2280 C   0  0  0  0  0  0  0  0  0  0  0  0
  162.2230  212.5080  140.5860 O   0  0  0  0  0  0  0  0  0  0  0  0
  157.6550  213.6250  137.1010 O   0  0  0  0  0  1  0  0  0  0  0  0
  158.1000  212.6380  137.9850 C   0  0  2  0  0  3  0  0  0  0  0  0
  156.9370  210.6860  138.5130 C   0  0  0  0  0  1  0  0  0  0  0  0
  156.9680  212.1200  138.7340 N   0  0  0  0  0  2  0  0  0  0  0  0
  160.6180  211.2720  138.3350 C   0  0  0  0  0  0  0  0  0  0  0  0
  160.6480  210.1330  137.9390 C   0  0  0  0  0  3  0  0  0  0  0  0
  3 29  1  1  0  0  0
  3  5  1  0  0  0  0
  3  8  1  0  0  0  0
  4  2  2  0  0  0  0
  5  4  1  0  0  0  0
  6  2  1  0  0  0  0
  6  9  1  1  0  0  0
  7  5  2  0  0  0  0
  8  1  1  6  0  0  0
  8  6  1  0  0  0  0
  9 16  1  6  0  0  0
  9 11  1  0  0  0  0
 10 12  1  0  0  0  0
 11 14  2  0  0  0  0
 11 15  1  0  0  0  0
 13 12  2  0  0  0  0
 14 13  1  0  0  0  0
 15 10  2  0  0  0  0
 17 16  2  0  0  0  0
 18 19  1  0  0  0  0
 18 16  1  0  0  0  0
 20 21  2  0  0  0  0
 21 28  1  0  0  0  0
 21 19  1  0  0  0  0
 22 25  2  0  0  0  0
 23 26  1  0  0  0  0
 24 22  1  0  0  0  0
 24 23  2  0  0  0  0
 25 26  1  0  0  0  0
 26 20  1  0  0  0  0
 28 27  1  0  0  0  0
 30 31  2  0  0  0  0
 31 32  2  0  0  0  0
 32 29  1  0  0  0  0
 33 34  1  6  0  0  0
 33 30  1  0  0  0  0
 35 33  1  0  0  0  0
 36 37  1  6  0  0  0
 36 35  1  0  0  0  0
 38 45  1  6  0  0  0
 38 39  1  0  0  0  0
 39 41  1  0  0  0  0
 40 48  1  1  0  0  0
 40 38  1  0  0  0  0
 40 42  1  0  0  0  0
 41 36  1  0  0  0  0
 42 43  2  0  0  0  0
 42 41  1  0  0  0  0
 45 44  1  6  0  0  0
 45 47  1  0  0  0  0
 46 47  1  0  0  0  0
 49 48  3  0  0  0  0
M  END
>  <MODEL>
7

>  <REMARK>
 VINA RESULT:      -5.0      4.250     11.759
  Name = 
  17 active torsions:
  status: ('A' for Active; 'I' for Inactive)
    1  A    between atoms: C_4  and  C_17
    2  A    between atoms: C_5  and  C_8
    3  A    between atoms: C_5  and  C_13
    4  A    between atoms: C_5  and  C_31
    5  A    between atoms: C_6  and  C_42
    6  A    between atoms: C_6  and  C_48
    7  A    between atoms: C_7  and  C_26
    8  A    between atoms: C_8  and  C_48
    9  A    between atoms: C_9  and  C_45
   10  A    between atoms: C_11  and  C_41
   11  A    between atoms: C_16  and  N_18
   12  A    between atoms: C_16  and  C_39
   13  A    between atoms: C_26  and  C_39
   14  A    between atoms: C_29  and  N_38
   15  A    between atoms: C_34  and  C_41
   16  A    between atoms: C_37  and  C_42
   17  A    between atoms: N_44  and  C_45
                            x       y       z     vdW  Elec       q    Type
                         _______ _______ _______ _____ _____    ______ ____

>  <TORSDO>
F 17

$$$$
=
 OpenBabel11072411423D

 49 53  0  0  1  0  0  0  0  0999 V2000
  161.2790  211.4860  151.8370 O   0  0  0  0  0  1  0  0  0  0  0  0
  159.5940  210.7250  154.9370 C   0  0  0  0  0  3  0  0  0  0  0  0
  161.5690  209.5260  153.1780 C   0  0  2  0  0  3  0  0  0  0  0  0
  160.0400  209.3920  155.1940 N   0  0  0  0  0  2  0  0  0  0  0  0
  160.9640  208.7460  154.3190 C   0  0  0  0  0  0  0  0  0  0  0  0
  159.8990  211.3560  153.8000 C   0  0  0  0  0  0  0  0  0  0  0  0
  161.3320  207.5680  154.5690 O   0  0  0  0  0  0  0  0  0  0  0  0
  160.5990  210.6070  152.6800 C   0  0  1  0  0  3  0  0  0  0  0  0
  159.3130  212.7260  153.6100 C   0  0  2  0  0  3  0  0  0  0  0  0
  158.8970  214.3690  156.9970 C   0  0  0  0  0  3  0  0  0  0  0  0
  158.6630  213.2950  154.8360 C   0  0  0  0  0  0  0  0  0  0  0  0
  157.5090  214.3340  157.1690 C   0  0  0  0  0  3  0  0  0  0  0  0
  156.6960  213.7780  156.1760 C   0  0  0  0  0  3  0  0  0  0  0  0
  157.2710  213.2570  155.0140 C   0  0  0  0  0  3  0  0  0  0  0  0
  159.4730  213.8500  155.8340 C   0  0  0  0  0  3  0  0  0  0  0  0
  158.5490  212.9140  152.3270 C   0  0  0  0  0  0  0  0  0  0  0  0
  157.8540  212.0190  151.8700 O   0  0  0  0  0  0  0  0  0  0  0  0
  158.6660  214.2120  151.5950 C   0  0  0  0  0  2  0  0  0  0  0  0
  160.0160  214.3260  150.8980 C   0  0  0  0  0  2  0  0  0  0  0  0
  158.6700  213.8700  148.9270 C   0  0  0  0  0  3  0  0  0  0  0  0
  159.8980  214.0160  149.4430 C   0  0  0  0  0  0  0  0  0  0  0  0
  158.4130  213.5070  145.4060 C   0  0  0  0  0  3  0  0  0  0  0  0
  157.5340  212.5680  147.1880 C   0  0  0  0  0  3  0  0  0  0  0  0
  157.5260  212.5190  145.8050 C   0  0  0  0  0  3  0  0  0  0  0  0
  158.9200  214.1110  146.4970 N   0  0  0  0  0  0  0  0  0  0  0  0
  158.3790  213.5430  147.5610 N   0  0  0  0  0  0  0  0  0  0  0  0
  161.6320  212.4690  148.5870 C   0  0  0  0  0  1  0  0  0  0  0  0
  161.1540  213.9090  148.6350 C   0  0  0  0  0  2  0  0  0  0  0  0
  161.9610  208.6270  152.0100 C   0  0  0  0  0  2  0  0  0  0  0  0
  161.8590  205.0340  151.6820 C   0  0  0  0  0  3  0  0  0  0  0  0
  161.4380  206.2710  151.7730 C   0  0  0  0  0  0  0  0  0  0  0  0
  161.0040  207.4940  151.8800 C   0  0  0  0  0  3  0  0  0  0  0  0
  160.9540  203.8390  151.7950 C   0  0  2  0  0  3  0  0  0  0  0  0
  161.7910  202.5910  152.0010 C   0  0  0  0  0  2  0  0  0  0  0  0
  160.0420  203.6510  150.5840 C   0  0  0  0  0  2  0  0  0  0  0  0
  160.4470  202.4240  149.7800 C   0  0  2  0  0  3  0  0  0  0  0  0
  161.5040  201.6410  150.5350 C   0  0  0  0  0  2  0  0  0  0  0  0
  161.8610  204.0940  146.6930 C   0  0  1  0  0  3  0  0  0  0  0  0
  161.2140  204.1800  148.0840 C   0  0  0  0  0  2  0  0  0  0  0  0
  161.5490  202.6840  146.1300 C   0  0  1  0  0  3  0  0  0  0  0  0
  160.9460  202.8090  148.4640 N   0  0  0  0  0  0  0  0  0  0  0  0
  161.1610  201.9530  147.3540 C   0  0  0  0  0  0  0  0  0  0  0  0
  161.0270  200.7010  147.4130 O   0  0  0  0  0  0  0  0  0  0  0  0
  162.6490  205.9600  145.4070 O   0  0  0  0  0  1  0  0  0  0  0  0
  161.4920  205.2770  145.7920 C   0  0  2  0  0  3  0  0  0  0  0  0
  161.4460  206.9990  147.3650 C   0  0  0  0  0  1  0  0  0  0  0  0
  160.6100  206.1900  146.4990 N   0  0  0  0  0  2  0  0  0  0  0  0
  160.4060  202.6710  145.1970 C   0  0  0  0  0  0  0  0  0  0  0  0
  159.4720  202.6610  144.4330 C   0  0  0  0  0  3  0  0  0  0  0  0
  2  4  1  0  0  0  0
  3 29  1  6  0  0  0
  3  5  1  0  0  0  0
  5  7  2  0  0  0  0
  5  4  1  0  0  0  0
  6  2  2  0  0  0  0
  8  1  1  1  0  0  0
  8  3  1  0  0  0  0
  8  6  1  0  0  0  0
  9 16  1  6  0  0  0
  9  6  1  0  0  0  0
  9 11  1  0  0  0  0
 10 12  1  0  0  0  0
 11 14  2  0  0  0  0
 11 15  1  0  0  0  0
 13 12  2  0  0  0  0
 14 13  1  0  0  0  0
 15 10  2  0  0  0  0
 17 16  2  0  0  0  0
 18 16  1  0  0  0  0
 19 18  1  0  0  0  0
 20 21  2  0  0  0  0
 21 19  1  0  0  0  0
 22 24  1  0  0  0  0
 22 25  2  0  0  0  0
 23 26  1  0  0  0  0
 24 23  2  0  0  0  0
 25 26  1  0  0  0  0
 26 20  1  0  0  0  0
 27 28  1  0  0  0  0
 28 21  1  0  0  0  0
 30 31  2  0  0  0  0
 31 32  2  0  0  0  0
 32 29  1  0  0  0  0
 33 30  1  6  0  0  0
 33 34  1  0  0  0  0
 35 33  1  0  0  0  0
 36 41  1  6  0  0  0
 36 37  1  0  0  0  0
 36 35  1  0  0  0  0
 37 34  1  0  0  0  0
 38 45  1  6  0  0  0
 38 39  1  0  0  0  0
 39 41  1  0  0  0  0
 40 48  1  6  0  0  0
 40 38  1  0  0  0  0
 40 42  1  0  0  0  0
 42 43  2  0  0  0  0
 42 41  1  0  0  0  0
 45 44  1  1  0  0  0
 45 47  1  0  0  0  0
 47 46  1  0  0  0  0
 49 48  3  0  0  0  0
M  END
>  <MODEL>
8

>  <REMARK>
 VINA RESULT:      -5.0      2.351      9.728
  Name = 
  17 active torsions:
  status: ('A' for Active; 'I' for Inactive)
    1  A    between atoms: C_4  and  C_17
    2  A    between atoms: C_5  and  C_8
    3  A    between atoms: C_5  and  C_13
    4  A    between atoms: C_5  and  C_31
    5  A    between atoms: C_6  and  C_42
    6  A    between atoms: C_6  and  C_48
    7  A    between atoms: C_7  and  C_26
    8  A    between atoms: C_8  and  C_48
    9  A    between atoms: C_9  and  C_45
   10  A    between atoms: C_11  and  C_41
   11  A    between atoms: C_16  and  N_18
   12  A    between atoms: C_16  and  C_39
   13  A    between atoms: C_26  and  C_39
   14  A    between atoms: C_29  and  N_38
   15  A    between atoms: C_34  and  C_41
   16  A    between atoms: C_37  and  C_42
   17  A    between atoms: N_44  and  C_45
                            x       y       z     vdW  Elec       q    Type
                         _______ _______ _______ _____ _____    ______ ____

>  <TORSDO>
F 17

$$$$
=
 OpenBabel11072411423D

 49 52  0  0  1  0  0  0  0  0999 V2000
  160.7730  206.3210  150.8380 O   0  0  0  0  0  1  0  0  0  0  0  0
  161.1110  203.8530  148.2270 C   0  0  0  0  0  3  0  0  0  0  0  0
  160.7270  203.9440  151.1030 C   0  0  2  0  0  3  0  0  0  0  0  0
  161.1590  202.6370  148.9760 N   0  0  0  0  0  2  0  0  0  0  0  0
  161.0340  202.6470  150.3970 C   0  0  0  0  0  0  0  0  0  0  0  0
  161.1050  205.0450  148.8300 C   0  0  0  0  0  0  0  0  0  0  0  0
  161.0860  201.5590  151.0290 O   0  0  0  0  0  0  0  0  0  0  0  0
  161.3090  205.1370  150.3310 C   0  0  1  0  0  3  0  0  0  0  0  0
  161.1300  206.2530  147.9380 C   0  0  2  0  0  3  0  0  0  0  0  0
  160.4640  205.9710  144.2190 C   0  0  0  0  0  3  0  0  0  0  0  0
  161.3310  205.9430  146.4840 C   0  0  0  0  0  0  0  0  0  0  0  0
  161.6300  205.3490  143.7620 C   0  0  0  0  0  3  0  0  0  0  0  0
  162.6480  205.0210  144.6640 C   0  0  0  0  0  3  0  0  0  0  0  0
  162.4970  205.3140  146.0230 C   0  0  0  0  0  3  0  0  0  0  0  0
  160.3140  206.2660  145.5770 C   0  0  0  0  0  3  0  0  0  0  0  0
  161.9270  207.4130  148.4680 C   0  0  0  0  0  0  0  0  0  0  0  0
  163.1140  207.2950  148.7330 O   0  0  0  0  0  0  0  0  0  0  0  0
  161.2430  208.7240  148.6910 C   0  0  0  0  0  2  0  0  0  0  0  0
  162.2360  209.7850  149.1520 C   0  0  0  0  0  2  0  0  0  0  0  0
  160.7980  211.2450  147.8440 C   0  0  0  0  0  3  0  0  0  0  0  0
  161.9580  211.0990  148.5000 C   0  0  0  0  0  0  0  0  0  0  0  0
  159.2870  214.1770  146.5350 C   0  0  0  0  0  3  0  0  0  0  0  0
  161.1020  212.9970  146.1570 C   0  0  0  0  0  3  0  0  0  0  0  0
  160.4200  214.1270  145.7380 C   0  0  0  0  0  3  0  0  0  0  0  0
  159.2970  213.1320  147.3820 N   0  0  0  0  0  0  0  0  0  0  0  0
  160.3880  212.4260  147.1400 N   0  0  0  0  0  0  0  0  0  0  0  0
  163.9750  212.1210  147.4910 C   0  0  0  0  0  1  0  0  0  0  0  0
  162.9770  212.1880  148.6320 C   0  0  0  0  0  2  0  0  0  0  0  0
  161.2610  203.9620  152.5320 C   0  0  0  0  0  2  0  0  0  0  0  0
  161.8250  207.1450  154.1360 C   0  0  0  0  0  3  0  0  0  0  0  0
  161.2020  206.0640  153.7390 C   0  0  0  0  0  0  0  0  0  0  0  0
  160.5640  205.0020  153.3360 C   0  0  0  0  0  3  0  0  0  0  0  0
  161.1260  208.3350  154.7320 C   0  0  2  0  0  3  0  0  0  0  0  0
  159.8150  207.8900  155.3510 C   0  0  0  0  0  1  0  0  0  0  0  0
  160.8640  209.4540  153.7250 C   0  0  0  0  0  2  0  0  0  0  0  0
  160.9480  210.8190  154.3920 C   0  0  2  0  0  3  0  0  0  0  0  0
  161.4140  210.6630  155.8260 C   0  0  0  0  0  1  0  0  0  0  0  0
  157.7930  212.7410  153.5700 C   0  0  1  0  0  3  0  0  0  0  0  0
  159.2640  212.3960  153.2850 C   0  0  0  0  0  2  0  0  0  0  0  0
  157.5130  212.3610  155.0470 C   0  0  1  0  0  3  0  0  0  0  0  0
  159.6560  211.4960  154.3490 N   0  0  0  0  0  0  0  0  0  0  0  0
  158.6450  211.4580  155.3430 C   0  0  0  0  0  0  0  0  0  0  0  0
  158.7150  210.7320  156.3710 O   0  0  0  0  0  0  0  0  0  0  0  0
  156.0440  214.3460  153.2260 O   0  0  0  0  0  1  0  0  0  0  0  0
  157.4300  214.1720  153.1610 C   0  0  2  0  0  3  0  0  0  0  0  0
  156.8130  214.0300  150.9160 C   0  0  0  0  0  1  0  0  0  0  0  0
  157.8830  214.4370  151.8070 N   0  0  0  0  0  2  0  0  0  0  0  0
  157.5810  213.5120  155.9670 C   0  0  0  0  0  0  0  0  0  0  0  0
  157.6350  214.4530  156.7190 C   0  0  0  0  0  3  0  0  0  0  0  0
  2  6  2  0  0  0  0
  2  4  1  0  0  0  0
  3 29  1  1  0  0  0
  4  5  1  0  0  0  0
  5  7  2  0  0  0  0
  5  3  1  0  0  0  0
  6  8  1  0  0  0  0
  8  1  1  1  0  0  0
  8  3  1  0  0  0  0
  9 16  1  1  0  0  0
  9  6  1  0  0  0  0
 10 15  1  0  0  0  0
 11  9  1  0  0  0  0
 12 10  2  0  0  0  0
 12 13  1  0  0  0  0
 13 14  2  0  0  0  0
 14 11  1  0  0  0  0
 15 11  2  0  0  0  0
 16 18  1  0  0  0  0
 16 17  2  0  0  0  0
 18 19  1  0  0  0  0
 20 21  2  0  0  0  0
 21 28  1  0  0  0  0
 21 19  1  0  0  0  0
 22 25  2  0  0  0  0
 23 26  1  0  0  0  0
 24 23  2  0  0  0  0
 24 22  1  0  0  0  0
 26 25  1  0  0  0  0
 26 20  1  0  0  0  0
 27 28  1  0  0  0  0
 29 32  1  0  0  0  0
 30 33  1  0  0  0  0
 31 30  2  0  0  0  0
 32 31  2  0  0  0  0
 33 34  1  6  0  0  0
 35 36  1  0  0  0  0
 35 33  1  0  0  0  0
 36 37  1  1  0  0  0
 38 45  1  1  0  0  0
 38 40  1  0  0  0  0
 39 38  1  0  0  0  0
 39 41  1  0  0  0  0
 40 42  1  0  0  0  0
 40 48  1  1  0  0  0
 41 36  1  0  0  0  0
 41 42  1  0  0  0  0
 42 43  2  0  0  0  0
 45 44  1  6  0  0  0
 46 47  1  0  0  0  0
 47 45  1  0  0  0  0
 48 49  3  0  0  0  0
M  END
>  <MODEL>
9

>  <REMARK>
 VINA RESULT:      -5.0      1.685      2.387
  Name = 
  17 active torsions:
  status: ('A' for Active; 'I' for Inactive)
    1  A    between atoms: C_4  and  C_17
    2  A    between atoms: C_5  and  C_8
    3  A    between atoms: C_5  and  C_13
    4  A    between atoms: C_5  and  C_31
    5  A    between atoms: C_6  and  C_42
    6  A    between atoms: C_6  and  C_48
    7  A    between atoms: C_7  and  C_26
    8  A    between atoms: C_8  and  C_48
    9  A    between atoms: C_9  and  C_45
   10  A    between atoms: C_11  and  C_41
   11  A    between atoms: C_16  and  N_18
   12  A    between atoms: C_16  and  C_39
   13  A    between atoms: C_26  and  C_39
   14  A    between atoms: C_29  and  N_38
   15  A    between atoms: C_34  and  C_41
   16  A    between atoms: C_37  and  C_42
   17  A    between atoms: N_44  and  C_45
                            x       y       z     vdW  Elec       q    Type
                         _______ _______ _______ _____ _____    ______ ____

>  <TORSDO>
F 17

$$$$
