=
 OpenBabel11072410363D

 54 59  0  0  1  0  0  0  0  0999 V2000
  161.1140  204.5080  146.7900 C   0  0  2  0  0  3  0  0  0  0  0  0
  161.5220  211.6150  151.1470 C   0  0  2  0  0  3  0  0  0  0  0  0
  161.3290  205.1900  148.1540 C   0  0  1  0  0  3  0  0  0  0  0  0
  161.3070  202.5290  150.0560 N   0  0  0  0  0  0  0  0  0  0  0  0
  161.9560  208.9440  147.7590 C   0  0  0  0  0  2  0  0  0  0  0  0
  161.6890  204.4410  151.4480 C   0  0  0  0  0  2  0  0  0  0  0  0
  161.1950  203.8120  150.1840 C   0  0  0  0  0  0  0  0  0  0  0  0
  161.7010  200.8330  146.8880 C   0  0  0  0  0  2  0  0  0  0  0  0
  159.7340  207.0030  148.5410 O   0  0  0  0  0  1  0  0  0  0  0  0
  160.9870  206.6760  148.0080 C   0  0  1  0  0  3  0  0  0  0  0  0
  162.1760  209.9930  148.8190 C   0  0  2  0  0  3  0  0  0  0  0  0
  161.6370  209.3710  150.0730 C   0  0  2  0  0  3  0  0  0  0  0  0
  160.9870  200.3050  149.1290 C   0  0  0  0  0  2  0  0  0  0  0  0
  161.7980  212.2520  149.7640 C   0  0  0  0  0  2  0  0  0  0  0  0
  161.4390  206.9130  150.9110 C   0  0  2  0  0  3  0  0  0  0  0  0
  160.5670  204.5850  149.2010 O   0  0  0  0  0  0  0  0  0  0  0  0
  162.4180  205.7570  151.1880 C   0  0  1  0  0  3  0  0  0  0  0  0
  160.6110  203.0640  146.8290 C   0  0  0  0  0  2  0  0  0  0  0  0
  160.7770  201.7860  148.9230 C   0  0  2  0  0  3  0  0  0  0  0  0
  161.0930  199.7360  147.7390 C   0  0  0  0  0  2  0  0  0  0  0  0
  161.5050  202.1380  147.6370 C   0  0  1  0  0  3  0  0  0  0  0  0
  162.1040  207.6100  148.4900 C   0  0  2  0  0  3  0  0  0  0  0  0
  162.1210  210.2020  151.2540 C   0  0  0  0  0  2  0  0  0  0  0  0
  162.1370  207.9460  150.0030 C   0  0  1  0  0  3  0  0  0  0  0  0
  161.4600  211.3140  148.5910 C   0  0  0  0  0  2  0  0  0  0  0  0
  160.6150  206.3970  153.8500 C   0  0  0  0  0  0  0  0  0  0  0  0
  161.6480  207.3800  153.3920 C   0  0  0  0  0  2  0  0  0  0  0  0
  160.7530  207.4820  152.1730 C   0  0  2  0  0  3  0  0  0  0  0  0
  161.1170  205.1010  153.9760 O   0  0  0  0  0  1  0  0  0  0  0  0
  159.8380  206.5420  152.6960 O   0  0  0  0  0  0  0  0  0  0  0  0
  159.9320  206.8150  154.9940 O   0  0  0  0  0  1  0  0  0  0  0  0
  164.7490  205.7930  151.7850 F   0  0  0  0  0  0  0  0  0  0  0  0
  163.3960  207.3680  152.6380 F   0  0  0  0  0  0  0  0  0  0  0  0
  163.4770  206.0440  152.2650 C   0  0  0  0  0  0  0  0  0  0  0  0
  163.2500  205.2620  153.3850 F   0  0  0  0  0  0  0  0  0  0  0  0
  162.3610  204.6190  145.9170 C   0  0  0  0  0  2  0  0  0  0  0  0
  161.3320  205.2250  143.8540 O   0  0  0  0  0  1  0  0  0  0  0  0
  162.1850  205.6930  144.8540 C   0  0  0  0  0  2  0  0  0  0  0  0
  160.0240  211.5720  151.4620 C   0  0  0  0  0  2  0  0  0  0  0  0
  159.6090  212.4360  152.6550 C   0  0  1  0  0  0  0  0  0  0  0  0
  159.4410  213.8790  152.1580 C   0  0  0  0  0  1  0  0  0  0  0  0
  157.5030  212.5270  153.9140 N   0  0  0  0  0  0  0  0  0  0  0  0
  158.2870  211.8770  153.1110 C   0  0  0  0  0  3  0  0  0  0  0  0
  155.1540  212.7530  154.4020 N   0  0  0  0  0  0  0  0  0  0  0  0
  156.2380  212.0290  154.3850 C   0  0  0  0  0  0  0  0  0  0  0  0
  154.9530  210.0540  155.3030 C   0  0  0  0  0  1  0  0  0  0  0  0
  156.1720  210.6650  154.8010 N   0  0  0  0  0  2  0  0  0  0  0  0
  155.0350  214.1250  153.9240 C   0  0  0  0  0  2  0  0  0  0  0  0
  155.5970  214.2900  151.5860 N   0  0  0  0  0  0  0  0  0  0  0  0
  154.6850  214.1360  152.4760 C   0  0  0  0  0  3  0  0  0  0  0  0
  156.4110  213.8190  149.3490 C   0  0  0  0  0  1  0  0  0  0  0  0
  155.2520  214.3170  150.1920 C   0  0  0  0  0  2  0  0  0  0  0  0
  160.6010  212.3160  153.6690 O   0  0  0  0  0  0  0  0  0  0  0  0
  160.3640  211.1820  154.4630 C   0  0  0  0  0  1  0  0  0  0  0  0
  1 36  1  1  0  0  0
  1 18  1  0  0  0  0
  1  3  1  0  0  0  0
  2 23  1  0  0  0  0
  2 39  1  6  0  0  0
  3 16  1  1  0  0  0
  4  7  2  0  0  0  0
  7  6  1  0  0  0  0
  8 21  1  0  0  0  0
  8 20  1  0  0  0  0
 10  3  1  0  0  0  0
 10 22  1  0  0  0  0
 10  9  1  1  0  0  0
 11  5  1  6  0  0  0
 11 12  1  0  0  0  0
 12 23  1  1  0  0  0
 14  2  1  0  0  0  0
 15 17  1  0  0  0  0
 15 28  1  1  0  0  0
 16  7  1  0  0  0  0
 17  6  1  0  0  0  0
 17 34  1  1  0  0  0
 19 13  1  1  0  0  0
 19  4  1  0  0  0  0
 20 13  1  0  0  0  0
 21 18  1  6  0  0  0
 21 19  1  0  0  0  0
 22  5  1  6  0  0  0
 22 24  1  0  0  0  0
 24 12  1  0  0  0  0
 24 15  1  0  0  0  0
 25 11  1  0  0  0  0
 25 14  1  0  0  0  0
 26 29  1  0  0  0  0
 26 31  1  0  0  0  0
 27 26  1  0  0  0  0
 28 30  1  0  0  0  0
 28 27  1  0  0  0  0
 30 26  1  0  0  0  0
 32 34  1  0  0  0  0
 34 33  1  0  0  0  0
 34 35  1  0  0  0  0
 37 38  1  0  0  0  0
 38 36  1  0  0  0  0
 39 40  1  0  0  0  0
 40 43  1  0  0  0  0
 40 53  1  0  0  0  0
 41 40  1  0  0  0  0
 42 45  1  0  0  0  0
 43 42  2  0  0  0  0
 45 44  2  0  0  0  0
 45 47  1  0  0  0  0
 47 46  1  0  0  0  0
 48 44  1  0  0  0  0
 49 50  2  0  0  0  0
 50 48  1  0  0  0  0
 51 52  1  0  0  0  0
 52 49  1  0  0  0  0
 53 54  1  0  0  0  0
M  END
>  <MODEL>
1

>  <REMARK>
 VINA RESULT:       0.8      0.000      0.000
  Name = 
  12 active torsions:
  status: ('A' for Active; 'I' for Inactive)
    1  A    between atoms: C_1  and  C_3
    2  A    between atoms: C_2  and  C_18
    3  A    between atoms: C_3  and  C_35
    4  A    between atoms: C_4  and  O_17
    5  A    between atoms: C_4  and  C_18
    6  A    between atoms: C_4  and  C_36
    7  A    between atoms: N_7  and  C_24
    8  A    between atoms: N_11  and  C_25
    9  A    between atoms: N_19  and  C_53
   10  A    between atoms: C_24  and  C_48
   11  A    between atoms: C_28  and  C_31
   12  A    between atoms: C_34  and  C_50
                            x       y       z     vdW  Elec       q    Type
                         _______ _______ _______ _____ _____    ______ ____

>  <TORSDO>
F 12

$$$$
=
 OpenBabel11072410363D

 54 59  0  0  1  0  0  0  0  0999 V2000
  161.5880  204.4360  147.1520 C   0  0  2  0  0  3  0  0  0  0  0  0
  161.3160  212.0000  150.6690 C   0  0  2  0  0  3  0  0  0  0  0  0
  161.4930  205.2710  148.4420 C   0  0  1  0  0  3  0  0  0  0  0  0
  160.8290  202.8590  150.5510 N   0  0  0  0  0  0  0  0  0  0  0  0
  162.4270  208.9280  147.8180 C   0  0  0  0  0  2  0  0  0  0  0  0
  160.9640  204.9130  151.7790 C   0  0  0  0  0  2  0  0  0  0  0  0
  160.7670  204.1520  150.5060 C   0  0  0  0  0  0  0  0  0  0  0  0
  161.9060  200.7830  147.7940 C   0  0  0  0  0  2  0  0  0  0  0  0
  159.9650  207.1660  148.2060 O   0  0  0  0  0  1  0  0  0  0  0  0
  161.2900  206.7380  148.0530 C   0  0  1  0  0  3  0  0  0  0  0  0
  162.4360  210.0900  148.7790 C   0  0  2  0  0  3  0  0  0  0  0  0
  161.5610  209.6400  149.9110 C   0  0  2  0  0  3  0  0  0  0  0  0
  160.6180  200.5520  149.8200 C   0  0  0  0  0  2  0  0  0  0  0  0
  161.9700  212.4570  149.3440 C   0  0  0  0  0  2  0  0  0  0  0  0
  161.0080  207.3080  150.9310 C   0  0  2  0  0  3  0  0  0  0  0  0
  160.4560  204.8200  149.3160 O   0  0  0  0  0  0  0  0  0  0  0  0
  161.8130  206.1640  151.5750 C   0  0  1  0  0  3  0  0  0  0  0  0
  161.0040  203.0240  147.2150 C   0  0  0  0  0  2  0  0  0  0  0  0
  160.5580  202.0030  149.4070 C   0  0  2  0  0  3  0  0  0  0  0  0
  161.0370  199.8160  148.5740 C   0  0  0  0  0  2  0  0  0  0  0  0
  161.6070  202.1740  148.3220 C   0  0  1  0  0  3  0  0  0  0  0  0
  162.3050  207.6880  148.7030 C   0  0  2  0  0  3  0  0  0  0  0  0
  161.7810  210.5910  151.0810 C   0  0  0  0  0  2  0  0  0  0  0  0
  161.9750  208.2020  150.1280 C   0  0  1  0  0  3  0  0  0  0  0  0
  161.8840  211.3960  148.2330 C   0  0  0  0  0  2  0  0  0  0  0  0
  160.7860  209.1720  153.3930 C   0  0  0  0  0  0  0  0  0  0  0  0
  160.3890  209.5230  151.9930 C   0  0  0  0  0  2  0  0  0  0  0  0
  160.0620  208.0460  151.9050 C   0  0  2  0  0  3  0  0  0  0  0  0
  162.1490  209.3530  153.6330 O   0  0  0  0  0  1  0  0  0  0  0  0
  160.4620  207.8190  153.2390 O   0  0  0  0  0  0  0  0  0  0  0  0
  159.9900  209.7910  154.3590 O   0  0  0  0  0  1  0  0  0  0  0  0
  161.8360  206.2620  153.9790 F   0  0  0  0  0  0  0  0  0  0  0  0
  163.7570  205.8270  152.9030 F   0  0  0  0  0  0  0  0  0  0  0  0
  162.5820  206.5450  152.8500 C   0  0  0  0  0  0  0  0  0  0  0  0
  162.8980  207.8940  152.8380 F   0  0  0  0  0  0  0  0  0  0  0  0
  163.0200  204.4020  146.6230 C   0  0  0  0  0  2  0  0  0  0  0  0
  161.8510  205.5340  144.8800 O   0  0  0  0  0  1  0  0  0  0  0  0
  163.1020  205.0310  145.2390 C   0  0  0  0  0  2  0  0  0  0  0  0
  159.7870  212.0420  150.5900 C   0  0  0  0  0  2  0  0  0  0  0  0
  159.1800  213.4080  150.9170 C   0  0  1  0  0  0  0  0  0  0  0  0
  160.3320  214.3870  151.1820 C   0  0  0  0  0  1  0  0  0  0  0  0
  158.8930  213.6320  148.4890 N   0  0  0  0  0  0  0  0  0  0  0  0
  158.4170  213.8100  149.6820 C   0  0  0  0  0  3  0  0  0  0  0  0
  158.8260  214.2420  146.1580 N   0  0  0  0  0  0  0  0  0  0  0  0
  158.2070  214.0090  147.2820 C   0  0  0  0  0  0  0  0  0  0  0  0
  155.9810  214.4530  146.1670 C   0  0  0  0  0  1  0  0  0  0  0  0
  156.7810  214.0760  147.3200 N   0  0  0  0  0  2  0  0  0  0  0  0
  160.2610  214.1230  145.9320 C   0  0  0  0  0  2  0  0  0  0  0  0
  161.0980  212.6670  144.2030 N   0  0  0  0  0  0  0  0  0  0  0  0
  160.5300  213.7780  144.5080 C   0  0  0  0  0  3  0  0  0  0  0  0
  161.3400  213.6000  141.9760 C   0  0  0  0  0  1  0  0  0  0  0  0
  161.3710  212.3470  142.8300 C   0  0  0  0  0  2  0  0  0  0  0  0
  158.3140  213.2630  152.0370 O   0  0  0  0  0  0  0  0  0  0  0  0
  158.8570  213.8920  153.1700 C   0  0  0  0  0  1  0  0  0  0  0  0
  1 36  1  1  0  0  0
  1 18  1  0  0  0  0
  1  3  1  0  0  0  0
  2 39  1  6  0  0  0
  2 23  1  0  0  0  0
  3 16  1  1  0  0  0
  7  4  2  0  0  0  0
  7  6  1  0  0  0  0
  8 21  1  0  0  0  0
  8 20  1  0  0  0  0
 10  9  1  1  0  0  0
 10  3  1  0  0  0  0
 10 22  1  0  0  0  0
 11  5  1  6  0  0  0
 11 12  1  0  0  0  0
 12 24  1  0  0  0  0
 12 23  1  1  0  0  0
 14  2  1  0  0  0  0
 15 17  1  0  0  0  0
 15 28  1  1  0  0  0
 16  7  1  0  0  0  0
 17  6  1  0  0  0  0
 17 34  1  1  0  0  0
 19 13  1  1  0  0  0
 19  4  1  0  0  0  0
 20 13  1  0  0  0  0
 21 18  1  6  0  0  0
 21 19  1  0  0  0  0
 22  5  1  6  0  0  0
 22 24  1  0  0  0  0
 24 15  1  0  0  0  0
 25 11  1  0  0  0  0
 25 14  1  0  0  0  0
 26 29  1  0  0  0  0
 26 31  1  0  0  0  0
 27 26  1  0  0  0  0
 28 27  1  0  0  0  0
 28 30  1  0  0  0  0
 30 26  1  0  0  0  0
 34 33  1  0  0  0  0
 34 32  1  0  0  0  0
 35 34  1  0  0  0  0
 37 38  1  0  0  0  0
 38 36  1  0  0  0  0
 39 40  1  0  0  0  0
 40 41  1  0  0  0  0
 40 53  1  0  0  0  0
 42 43  2  0  0  0  0
 43 40  1  0  0  0  0
 44 45  2  0  0  0  0
 45 47  1  0  0  0  0
 45 42  1  0  0  0  0
 46 47  1  0  0  0  0
 48 44  1  0  0  0  0
 49 50  2  0  0  0  0
 50 48  1  0  0  0  0
 51 52  1  0  0  0  0
 52 49  1  0  0  0  0
 53 54  1  0  0  0  0
M  END
>  <MODEL>
2

>  <REMARK>
 VINA RESULT:       1.1      2.641      4.139
  Name = 
  12 active torsions:
  status: ('A' for Active; 'I' for Inactive)
    1  A    between atoms: C_1  and  C_3
    2  A    between atoms: C_2  and  C_18
    3  A    between atoms: C_3  and  C_35
    4  A    between atoms: C_4  and  O_17
    5  A    between atoms: C_4  and  C_18
    6  A    between atoms: C_4  and  C_36
    7  A    between atoms: N_7  and  C_24
    8  A    between atoms: N_11  and  C_25
    9  A    between atoms: N_19  and  C_53
   10  A    between atoms: C_24  and  C_48
   11  A    between atoms: C_28  and  C_31
   12  A    between atoms: C_34  and  C_50
                            x       y       z     vdW  Elec       q    Type
                         _______ _______ _______ _____ _____    ______ ____

>  <TORSDO>
F 12

$$$$
=
 OpenBabel11072410363D

 54 59  0  0  1  0  0  0  0  0999 V2000
  161.3200  204.8140  146.6770 C   0  0  2  0  0  3  0  0  0  0  0  0
  160.9910  211.0620  152.2010 C   0  0  2  0  0  3  0  0  0  0  0  0
  161.3150  205.2490  148.1540 C   0  0  1  0  0  3  0  0  0  0  0  0
  161.0220  202.3020  149.5440 N   0  0  0  0  0  0  0  0  0  0  0  0
  161.9650  209.0030  148.5120 C   0  0  0  0  0  2  0  0  0  0  0  0
  161.1690  203.9410  151.2860 C   0  0  0  0  0  2  0  0  0  0  0  0
  160.8810  203.5470  149.8720 C   0  0  0  0  0  0  0  0  0  0  0  0
  161.9140  201.1670  146.2290 C   0  0  0  0  0  2  0  0  0  0  0  0
  159.6650  206.9980  148.5980 O   0  0  0  0  0  1  0  0  0  0  0  0
  160.9880  206.7440  148.2160 C   0  0  1  0  0  3  0  0  0  0  0  0
  162.0100  209.8510  149.7580 C   0  0  2  0  0  3  0  0  0  0  0  0
  161.2890  209.0330  150.7880 C   0  0  2  0  0  3  0  0  0  0  0  0
  160.8680  200.2770  148.2110 C   0  0  0  0  0  2  0  0  0  0  0  0
  161.4720  211.9220  151.0080 C   0  0  0  0  0  2  0  0  0  0  0  0
  160.9840  206.4720  151.1500 C   0  0  2  0  0  3  0  0  0  0  0  0
  160.4060  204.4880  148.9520 O   0  0  0  0  0  0  0  0  0  0  0  0
  161.9180  205.2680  151.3720 C   0  0  1  0  0  3  0  0  0  0  0  0
  160.8280  203.3950  146.3890 C   0  0  0  0  0  2  0  0  0  0  0  0
  160.6800  201.7750  148.2320 C   0  0  2  0  0  3  0  0  0  0  0  0
  161.1920  199.9520  146.7760 C   0  0  0  0  0  2  0  0  0  0  0  0
  161.5940  202.3280  147.1530 C   0  0  1  0  0  3  0  0  0  0  0  0
  162.0100  207.5610  149.0170 C   0  0  2  0  0  3  0  0  0  0  0  0
  161.5780  209.6400  152.1550 C   0  0  0  0  0  2  0  0  0  0  0  0
  161.8060  207.6320  150.5520 C   0  0  1  0  0  3  0  0  0  0  0  0
  161.3270  211.2050  149.6540 C   0  0  0  0  0  2  0  0  0  0  0  0
  160.9320  207.3840  154.1090 C   0  0  0  0  0  0  0  0  0  0  0  0
  160.4600  208.1890  152.9370 C   0  0  0  0  0  2  0  0  0  0  0  0
  160.1070  206.8290  152.3710 C   0  0  2  0  0  3  0  0  0  0  0  0
  162.3090  207.4800  154.3140 O   0  0  0  0  0  1  0  0  0  0  0  0
  160.5800  206.1630  153.5230 O   0  0  0  0  0  0  0  0  0  0  0  0
  160.2030  207.6330  155.2730 O   0  0  0  0  0  1  0  0  0  0  0  0
  162.0620  205.0510  153.7640 F   0  0  0  0  0  0  0  0  0  0  0  0
  163.8280  204.4390  152.5210 F   0  0  0  0  0  0  0  0  0  0  0  0
  162.7960  205.3470  152.6310 C   0  0  0  0  0  0  0  0  0  0  0  0
  163.3430  206.6130  152.7590 F   0  0  0  0  0  0  0  0  0  0  0  0
  162.6860  205.0500  146.0380 C   0  0  0  0  0  2  0  0  0  0  0  0
  161.5410  205.7770  144.0770 O   0  0  0  0  0  1  0  0  0  0  0  0
  162.5950  204.9770  144.5210 C   0  0  0  0  0  2  0  0  0  0  0  0
  159.4630  210.9940  152.2710 C   0  0  0  0  0  2  0  0  0  0  0  0
  158.8290  212.0400  153.1900 C   0  0  1  0  0  0  0  0  0  0  0  0
  159.9570  212.9000  153.7770 C   0  0  0  0  0  1  0  0  0  0  0  0
  158.0790  212.8830  151.0100 N   0  0  0  0  0  0  0  0  0  0  0  0
  157.9410  212.8670  152.3000 C   0  0  0  0  0  3  0  0  0  0  0  0
  157.7460  214.3040  149.0910 N   0  0  0  0  0  0  0  0  0  0  0  0
  157.2620  213.6650  150.1200 C   0  0  0  0  0  0  0  0  0  0  0  0
  154.9310  214.4510  149.5330 C   0  0  0  0  0  1  0  0  0  0  0  0
  155.8550  213.6910  150.3580 N   0  0  0  0  0  2  0  0  0  0  0  0
  159.1390  214.2990  148.6600 C   0  0  0  0  0  2  0  0  0  0  0  0
  158.2700  213.2500  146.6710 N   0  0  0  0  0  0  0  0  0  0  0  0
  159.2320  213.8920  147.2300 C   0  0  0  0  0  3  0  0  0  0  0  0
  159.7110  212.1800  145.0390 C   0  0  0  0  0  1  0  0  0  0  0  0
  158.3730  212.8450  145.2970 C   0  0  0  0  0  2  0  0  0  0  0  0
  158.0750  211.3660  154.1920 O   0  0  0  0  0  0  0  0  0  0  0  0
  158.9010  210.9850  155.2630 C   0  0  0  0  0  1  0  0  0  0  0  0
  1 36  1  1  0  0  0
  1  3  1  0  0  0  0
  2 39  1  6  0  0  0
  3 10  1  0  0  0  0
  3 16  1  1  0  0  0
  4  7  2  0  0  0  0
  6 17  1  0  0  0  0
  7  6  1  0  0  0  0
  8 20  1  0  0  0  0
 10  9  1  1  0  0  0
 10 22  1  0  0  0  0
 11  5  1  6  0  0  0
 11 12  1  0  0  0  0
 12 23  1  1  0  0  0
 14  2  1  0  0  0  0
 15 17  1  0  0  0  0
 15 28  1  1  0  0  0
 16  7  1  0  0  0  0
 17 34  1  1  0  0  0
 18  1  1  0  0  0  0
 18 21  1  0  0  0  0
 19 13  1  1  0  0  0
 19  4  1  0  0  0  0
 20 13  1  0  0  0  0
 21  8  1  6  0  0  0
 21 19  1  0  0  0  0
 22  5  1  6  0  0  0
 22 24  1  0  0  0  0
 23  2  1  0  0  0  0
 24 12  1  0  0  0  0
 24 15  1  0  0  0  0
 25 11  1  0  0  0  0
 25 14  1  0  0  0  0
 26 29  1  0  0  0  0
 26 31  1  0  0  0  0
 27 26  1  0  0  0  0
 28 27  1  0  0  0  0
 28 30  1  0  0  0  0
 30 26  1  0  0  0  0
 33 34  1  0  0  0  0
 34 35  1  0  0  0  0
 34 32  1  0  0  0  0
 37 38  1  0  0  0  0
 38 36  1  0  0  0  0
 39 40  1  0  0  0  0
 40 41  1  0  0  0  0
 40 53  1  0  0  0  0
 42 43  2  0  0  0  0
 43 40  1  0  0  0  0
 44 45  2  0  0  0  0
 45 47  1  0  0  0  0
 45 42  1  0  0  0  0
 46 47  1  0  0  0  0
 48 44  1  0  0  0  0
 49 50  2  0  0  0  0
 50 48  1  0  0  0  0
 51 52  1  0  0  0  0
 52 49  1  0  0  0  0
 53 54  1  0  0  0  0
M  END
>  <MODEL>
3

>  <REMARK>
 VINA RESULT:       1.6      1.723      2.774
  Name = 
  12 active torsions:
  status: ('A' for Active; 'I' for Inactive)
    1  A    between atoms: C_1  and  C_3
    2  A    between atoms: C_2  and  C_18
    3  A    between atoms: C_3  and  C_35
    4  A    between atoms: C_4  and  O_17
    5  A    between atoms: C_4  and  C_18
    6  A    between atoms: C_4  and  C_36
    7  A    between atoms: N_7  and  C_24
    8  A    between atoms: N_11  and  C_25
    9  A    between atoms: N_19  and  C_53
   10  A    between atoms: C_24  and  C_48
   11  A    between atoms: C_28  and  C_31
   12  A    between atoms: C_34  and  C_50
                            x       y       z     vdW  Elec       q    Type
                         _______ _______ _______ _____ _____    ______ ____

>  <TORSDO>
F 12

$$$$
=
 OpenBabel11072410363D

 54 59  0  0  1  0  0  0  0  0999 V2000
  161.2590  204.4230  147.0930 C   0  0  2  0  0  3  0  0  0  0  0  0
  161.2770  211.7540  151.0840 C   0  0  2  0  0  3  0  0  0  0  0  0
  161.3040  205.1770  148.4360 C   0  0  1  0  0  3  0  0  0  0  0  0
  160.9380  202.6270  150.4530 N   0  0  0  0  0  0  0  0  0  0  0  0
  162.0930  208.8870  147.9350 C   0  0  0  0  0  2  0  0  0  0  0  0
  161.1830  204.6060  151.7820 C   0  0  0  0  0  2  0  0  0  0  0  0
  160.8490  203.9190  150.4960 C   0  0  0  0  0  0  0  0  0  0  0  0
  161.7150  200.7480  147.4640 C   0  0  0  0  0  2  0  0  0  0  0  0
  159.7270  207.0440  148.5000 O   0  0  0  0  0  1  0  0  0  0  0  0
  161.0310  206.6590  148.1660 C   0  0  1  0  0  3  0  0  0  0  0  0
  162.1960  209.9890  148.9590 C   0  0  2  0  0  3  0  0  0  0  0  0
  161.4710  209.4500  150.1560 C   0  0  2  0  0  3  0  0  0  0  0  0
  160.6830  200.3630  149.6090 C   0  0  0  0  0  2  0  0  0  0  0  0
  161.7600  212.3060  149.7210 C   0  0  0  0  0  2  0  0  0  0  0  0
  161.0840  207.0490  151.0870 C   0  0  2  0  0  3  0  0  0  0  0  0
  160.3870  204.6490  149.3960 O   0  0  0  0  0  0  0  0  0  0  0  0
  161.9810  205.8880  151.5580 C   0  0  1  0  0  3  0  0  0  0  0  0
  160.7120  202.9960  147.1370 C   0  0  0  0  0  2  0  0  0  0  0  0
  160.5490  201.8350  149.2980 C   0  0  2  0  0  3  0  0  0  0  0  0
  160.9620  199.7140  148.2790 C   0  0  0  0  0  2  0  0  0  0  0  0
  161.4570  202.0970  148.1090 C   0  0  1  0  0  3  0  0  0  0  0  0
  162.0990  207.5930  148.7490 C   0  0  2  0  0  3  0  0  0  0  0  0
  161.8120  210.3350  151.3480 C   0  0  0  0  0  2  0  0  0  0  0  0
  161.9330  208.0130  150.2320 C   0  0  1  0  0  3  0  0  0  0  0  0
  161.5600  211.3110  148.5640 C   0  0  0  0  0  2  0  0  0  0  0  0
  161.0990  208.9160  153.5560 C   0  0  0  0  0  0  0  0  0  0  0  0
  160.4370  209.2060  152.2450 C   0  0  0  0  0  2  0  0  0  0  0  0
  160.2480  207.7030  152.2090 C   0  0  2  0  0  3  0  0  0  0  0  0
  162.4580  209.2340  153.5610 O   0  0  0  0  0  1  0  0  0  0  0  0
  160.8900  207.5360  153.4550 O   0  0  0  0  0  0  0  0  0  0  0  0
  160.4200  209.4670  154.6450 O   0  0  0  0  0  1  0  0  0  0  0  0
  162.3150  205.7880  153.9390 F   0  0  0  0  0  0  0  0  0  0  0  0
  164.0970  205.5680  152.5930 F   0  0  0  0  0  0  0  0  0  0  0  0
  162.8890  206.2110  152.7550 C   0  0  0  0  0  0  0  0  0  0  0  0
  163.1280  207.5740  152.8250 F   0  0  0  0  0  0  0  0  0  0  0  0
  162.6180  204.4570  146.3980 C   0  0  0  0  0  2  0  0  0  0  0  0
  161.2930  205.6880  144.8450 O   0  0  0  0  0  1  0  0  0  0  0  0
  162.6090  205.4400  145.2370 C   0  0  0  0  0  2  0  0  0  0  0  0
  159.7490  211.7630  151.1880 C   0  0  0  0  0  2  0  0  0  0  0  0
  159.1800  212.9570  151.9570 C   0  0  1  0  0  0  0  0  0  0  0  0
  159.9670  214.2080  151.5380 C   0  0  0  0  0  1  0  0  0  0  0  0
  157.0200  214.1100  151.7780 N   0  0  0  0  0  0  0  0  0  0  0  0
  157.7440  213.0650  151.5190 C   0  0  0  0  0  3  0  0  0  0  0  0
  154.6730  214.3880  152.2530 N   0  0  0  0  0  0  0  0  0  0  0  0
  155.6420  214.2540  151.3900 C   0  0  0  0  0  0  0  0  0  0  0  0
  153.9920  214.4370  149.4830 C   0  0  0  0  0  1  0  0  0  0  0  0
  155.3450  214.3030  149.9950 N   0  0  0  0  0  2  0  0  0  0  0  0
  154.8210  214.4530  153.7010 C   0  0  0  0  0  2  0  0  0  0  0  0
  156.0580  212.7270  154.8430 N   0  0  0  0  0  0  0  0  0  0  0  0
  154.9670  213.0810  154.2650 C   0  0  0  0  0  3  0  0  0  0  0  0
  155.3050  211.2110  156.5810 C   0  0  0  0  0  1  0  0  0  0  0  0
  156.1990  211.3980  155.3690 C   0  0  0  0  0  2  0  0  0  0  0  0
  159.2780  212.6880  153.3510 O   0  0  0  0  0  0  0  0  0  0  0  0
  159.3370  213.8840  154.0850 C   0  0  0  0  0  1  0  0  0  0  0  0
  1 36  1  1  0  0  0
  1 18  1  0  0  0  0
  1  3  1  0  0  0  0
  2 39  1  6  0  0  0
  2 23  1  0  0  0  0
  3 16  1  1  0  0  0
  4  7  2  0  0  0  0
  7  6  1  0  0  0  0
  8 21  1  0  0  0  0
  8 20  1  0  0  0  0
 10  3  1  0  0  0  0
 10  9  1  1  0  0  0
 10 22  1  0  0  0  0
 11  5  1  6  0  0  0
 11 12  1  0  0  0  0
 12 24  1  0  0  0  0
 12 23  1  1  0  0  0
 14  2  1  0  0  0  0
 15 17  1  0  0  0  0
 15 28  1  1  0  0  0
 16  7  1  0  0  0  0
 17  6  1  0  0  0  0
 17 34  1  1  0  0  0
 19 13  1  1  0  0  0
 19  4  1  0  0  0  0
 20 13  1  0  0  0  0
 21 18  1  6  0  0  0
 21 19  1  0  0  0  0
 22  5  1  6  0  0  0
 22 24  1  0  0  0  0
 24 15  1  0  0  0  0
 25 11  1  0  0  0  0
 25 14  1  0  0  0  0
 26 29  1  0  0  0  0
 26 31  1  0  0  0  0
 27 26  1  0  0  0  0
 28 27  1  0  0  0  0
 28 30  1  0  0  0  0
 30 26  1  0  0  0  0
 33 34  1  0  0  0  0
 34 35  1  0  0  0  0
 34 32  1  0  0  0  0
 37 38  1  0  0  0  0
 38 36  1  0  0  0  0
 39 40  1  0  0  0  0
 40 53  1  0  0  0  0
 41 40  1  0  0  0  0
 43 42  2  0  0  0  0
 43 40  1  0  0  0  0
 44 48  1  0  0  0  0
 45 42  1  0  0  0  0
 45 44  2  0  0  0  0
 46 47  1  0  0  0  0
 47 45  1  0  0  0  0
 48 50  1  0  0  0  0
 49 52  1  0  0  0  0
 50 49  2  0  0  0  0
 52 51  1  0  0  0  0
 53 54  1  0  0  0  0
M  END
>  <MODEL>
4

>  <REMARK>
 VINA RESULT:       1.9      1.108      2.433
  Name = 
  12 active torsions:
  status: ('A' for Active; 'I' for Inactive)
    1  A    between atoms: C_1  and  C_3
    2  A    between atoms: C_2  and  C_18
    3  A    between atoms: C_3  and  C_35
    4  A    between atoms: C_4  and  O_17
    5  A    between atoms: C_4  and  C_18
    6  A    between atoms: C_4  and  C_36
    7  A    between atoms: N_7  and  C_24
    8  A    between atoms: N_11  and  C_25
    9  A    between atoms: N_19  and  C_53
   10  A    between atoms: C_24  and  C_48
   11  A    between atoms: C_28  and  C_31
   12  A    between atoms: C_34  and  C_50
                            x       y       z     vdW  Elec       q    Type
                         _______ _______ _______ _____ _____    ______ ____

>  <TORSDO>
F 12

$$$$
=
 OpenBabel11072410363D

 54 59  0  0  1  0  0  0  0  0999 V2000
  157.8330  212.8680  144.3990 C   0  0  2  0  0  3  0  0  0  0  0  0
  159.3660  213.2490  152.5950 C   0  0  2  0  0  3  0  0  0  0  0  0
  158.8660  212.7740  145.5380 C   0  0  1  0  0  3  0  0  0  0  0  0
  161.4110  211.6530  143.8160 N   0  0  0  0  0  0  0  0  0  0  0  0
  157.4790  214.1970  148.8080 C   0  0  0  0  0  2  0  0  0  0  0  0
  162.1130  211.9410  146.0890 C   0  0  0  0  0  2  0  0  0  0  0  0
  161.0480  211.7540  145.0550 C   0  0  0  0  0  0  0  0  0  0  0  0
  159.3710  212.6820  141.0150 C   0  0  0  0  0  2  0  0  0  0  0  0
  158.0150  211.5140  147.4550 O   0  0  0  0  0  1  0  0  0  0  0  0
  158.1140  212.7850  146.8720 C   0  0  1  0  0  3  0  0  0  0  0  0
  158.1260  214.2720  150.1680 C   0  0  2  0  0  3  0  0  0  0  0  0
  159.2330  213.2620  150.1080 C   0  0  2  0  0  3  0  0  0  0  0  0
  161.2420  211.2190  141.4310 C   0  0  0  0  0  2  0  0  0  0  0  0
  158.0470  214.0580  152.6350 C   0  0  0  0  0  2  0  0  0  0  0  0
  160.7200  212.3470  148.1760 C   0  0  2  0  0  3  0  0  0  0  0  0
  159.7060  211.6230  145.4280 O   0  0  0  0  0  0  0  0  0  0  0  0
  161.7050  212.9520  147.1580 C   0  0  1  0  0  3  0  0  0  0  0  0
  158.1730  212.1120  143.1150 C   0  0  0  0  0  2  0  0  0  0  0  0
  160.4860  211.3710  142.7300 C   0  0  2  0  0  3  0  0  0  0  0  0
  160.2630  211.6410  140.3670 C   0  0  0  0  0  2  0  0  0  0  0  0
  159.5110  212.5150  142.5160 C   0  0  1  0  0  3  0  0  0  0  0  0
  158.6190  213.8530  147.8500 C   0  0  2  0  0  3  0  0  0  0  0  0
  160.1530  213.5040  151.2970 C   0  0  0  0  0  2  0  0  0  0  0  0
  159.8330  213.4770  148.7380 C   0  0  1  0  0  3  0  0  0  0  0  0
  157.2230  213.9300  151.3420 C   0  0  0  0  0  2  0  0  0  0  0  0
  161.6680  209.4790  148.8530 C   0  0  0  0  0  0  0  0  0  0  0  0
  162.5570  210.6670  148.6470 C   0  0  0  0  0  2  0  0  0  0  0  0
  161.3790  211.4240  149.2260 C   0  0  2  0  0  3  0  0  0  0  0  0
  161.3050  208.8590  147.6570 O   0  0  0  0  0  1  0  0  0  0  0  0
  160.6210  210.2430  149.3800 O   0  0  0  0  0  0  0  0  0  0  0  0
  162.1750  208.5740  149.7880 O   0  0  0  0  0  1  0  0  0  0  0  0
  163.5570  214.4530  146.8330 F   0  0  0  0  0  0  0  0  0  0  0  0
  162.5100  214.4500  148.8190 F   0  0  0  0  0  0  0  0  0  0  0  0
  162.9250  213.6580  147.7700 C   0  0  0  0  0  0  0  0  0  0  0  0
  163.8250  212.7260  148.2600 F   0  0  0  0  0  0  0  0  0  0  0  0
  157.4850  214.3220  144.0910 C   0  0  0  0  0  2  0  0  0  0  0  0
  155.1260  214.2940  144.4340 O   0  0  0  0  0  1  0  0  0  0  0  0
  156.1080  214.4270  143.4510 C   0  0  0  0  0  2  0  0  0  0  0  0
  159.1150  211.7490  152.7680 C   0  0  0  0  0  2  0  0  0  0  0  0
  158.5280  211.3630  154.1270 C   0  0  1  0  0  0  0  0  0  0  0  0
  157.1090  210.8250  153.8940 C   0  0  0  0  0  1  0  0  0  0  0  0
  159.7680  209.2530  153.9340 N   0  0  0  0  0  0  0  0  0  0  0  0
  159.4260  210.2750  154.6540 C   0  0  0  0  0  3  0  0  0  0  0  0
  160.9490  207.1710  153.6490 N   0  0  0  0  0  0  0  0  0  0  0  0
  160.6130  208.1850  154.3970 C   0  0  0  0  0  0  0  0  0  0  0  0
  162.0010  207.2610  156.2990 C   0  0  0  0  0  1  0  0  0  0  0  0
  161.1430  208.2810  155.7190 N   0  0  0  0  0  2  0  0  0  0  0  0
  160.5710  206.9760  152.2550 C   0  0  0  0  0  2  0  0  0  0  0  0
  160.8030  205.2550  150.5820 N   0  0  0  0  0  0  0  0  0  0  0  0
  160.9290  205.5980  151.8130 C   0  0  0  0  0  3  0  0  0  0  0  0
  161.3480  203.8730  148.6640 C   0  0  0  0  0  1  0  0  0  0  0  0
  161.1330  203.9210  150.1650 C   0  0  0  0  0  2  0  0  0  0  0  0
  158.5490  212.5080  154.9720 O   0  0  0  0  0  0  0  0  0  0  0  0
  158.9150  212.1530  156.2810 C   0  0  0  0  0  1  0  0  0  0  0  0
  1 36  1  6  0  0  0
  1  3  1  0  0  0  0
  2 14  1  0  0  0  0
  2 39  1  6  0  0  0
  3 16  1  6  0  0  0
  3 10  1  0  0  0  0
  4  7  2  0  0  0  0
  6 17  1  0  0  0  0
  7 16  1  0  0  0  0
  7  6  1  0  0  0  0
 10  9  1  1  0  0  0
 10 22  1  0  0  0  0
 11  5  1  6  0  0  0
 11 25  1  0  0  0  0
 12 11  1  0  0  0  0
 12 23  1  1  0  0  0
 15 24  1  0  0  0  0
 15 28  1  1  0  0  0
 17 34  1  1  0  0  0
 17 15  1  0  0  0  0
 18  1  1  0  0  0  0
 19 13  1  6  0  0  0
 19  4  1  0  0  0  0
 20  8  1  0  0  0  0
 20 13  1  0  0  0  0
 21  8  1  6  0  0  0
 21 19  1  0  0  0  0
 21 18  1  0  0  0  0
 22 24  1  0  0  0  0
 22  5  1  1  0  0  0
 23  2  1  0  0  0  0
 24 12  1  0  0  0  0
 25 14  1  0  0  0  0
 26 30  1  0  0  0  0
 26 31  1  0  0  0  0
 27 26  1  0  0  0  0
 27 28  1  0  0  0  0
 28 30  1  0  0  0  0
 29 26  1  0  0  0  0
 32 34  1  0  0  0  0
 34 35  1  0  0  0  0
 34 33  1  0  0  0  0
 38 36  1  0  0  0  0
 38 37  1  0  0  0  0
 39 40  1  0  0  0  0
 40 43  1  0  0  0  0
 40 53  1  0  0  0  0
 41 40  1  0  0  0  0
 42 45  1  0  0  0  0
 42 43  2  0  0  0  0
 44 45  2  0  0  0  0
 45 47  1  0  0  0  0
 47 46  1  0  0  0  0
 48 44  1  0  0  0  0
 49 50  2  0  0  0  0
 50 48  1  0  0  0  0
 51 52  1  0  0  0  0
 52 49  1  0  0  0  0
 53 54  1  0  0  0  0
M  END
>  <MODEL>
5

>  <REMARK>
 VINA RESULT:       2.4      4.448      8.180
  Name = 
  12 active torsions:
  status: ('A' for Active; 'I' for Inactive)
    1  A    between atoms: C_1  and  C_3
    2  A    between atoms: C_2  and  C_18
    3  A    between atoms: C_3  and  C_35
    4  A    between atoms: C_4  and  O_17
    5  A    between atoms: C_4  and  C_18
    6  A    between atoms: C_4  and  C_36
    7  A    between atoms: N_7  and  C_24
    8  A    between atoms: N_11  and  C_25
    9  A    between atoms: N_19  and  C_53
   10  A    between atoms: C_24  and  C_48
   11  A    between atoms: C_28  and  C_31
   12  A    between atoms: C_34  and  C_50
                            x       y       z     vdW  Elec       q    Type
                         _______ _______ _______ _____ _____    ______ ____

>  <TORSDO>
F 12

$$$$
=
 OpenBabel11072410363D

 54 59  0  0  1  0  0  0  0  0999 V2000
  160.8410  204.5650  146.6760 C   0  0  2  0  0  3  0  0  0  0  0  0
  161.4720  211.2840  151.5870 C   0  0  2  0  0  3  0  0  0  0  0  0
  161.1570  205.1350  148.0710 C   0  0  1  0  0  3  0  0  0  0  0  0
  161.3550  202.3220  149.7280 N   0  0  0  0  0  0  0  0  0  0  0  0
  161.6690  208.9260  147.9550 C   0  0  0  0  0  2  0  0  0  0  0  0
  161.8160  204.1190  151.2450 C   0  0  0  0  0  2  0  0  0  0  0  0
  161.2280  203.5860  149.9770 C   0  0  0  0  0  0  0  0  0  0  0  0
  161.5110  200.9140  146.4020 C   0  0  0  0  0  2  0  0  0  0  0  0
  159.5640  206.8620  148.7480 O   0  0  0  0  0  1  0  0  0  0  0  0
  160.7730  206.6170  148.0850 C   0  0  1  0  0  3  0  0  0  0  0  0
  161.9570  209.8860  149.0800 C   0  0  2  0  0  3  0  0  0  0  0  0
  161.5420  209.1440  150.3150 C   0  0  2  0  0  3  0  0  0  0  0  0
  161.0040  200.1770  148.6410 C   0  0  0  0  0  2  0  0  0  0  0  0
  161.6140  212.0450  150.2470 C   0  0  0  0  0  2  0  0  0  0  0  0
  161.4680  206.6190  150.9490 C   0  0  2  0  0  3  0  0  0  0  0  0
  160.5020  204.4210  149.1210 O   0  0  0  0  0  0  0  0  0  0  0  0
  162.4920  205.4720  151.0410 C   0  0  1  0  0  3  0  0  0  0  0  0
  160.3730  203.1100  146.6300 C   0  0  0  0  0  2  0  0  0  0  0  0
  160.7470  201.6640  148.5830 C   0  0  2  0  0  3  0  0  0  0  0  0
  161.0020  199.7310  147.2020 C   0  0  0  0  0  2  0  0  0  0  0  0
  161.3530  202.1440  147.2760 C   0  0  1  0  0  3  0  0  0  0  0  0
  161.9080  207.5390  148.5510 C   0  0  2  0  0  3  0  0  0  0  0  0
  162.1080  209.8840  151.5200 C   0  0  0  0  0  2  0  0  0  0  0  0
  162.0640  207.7450  150.0800 C   0  0  1  0  0  3  0  0  0  0  0  0
  161.1970  211.2010  149.0290 C   0  0  0  0  0  2  0  0  0  0  0  0
  160.8070  205.7920  153.8580 C   0  0  0  0  0  0  0  0  0  0  0  0
  161.8450  206.7910  153.4480 C   0  0  0  0  0  2  0  0  0  0  0  0
  160.8820  207.0580  152.3090 C   0  0  2  0  0  3  0  0  0  0  0  0
  161.2690  204.4760  153.8040 O   0  0  0  0  0  1  0  0  0  0  0  0
  159.9670  206.0920  152.7810 O   0  0  0  0  0  0  0  0  0  0  0  0
  160.2110  206.0960  155.0840 O   0  0  0  0  0  1  0  0  0  0  0  0
  163.2960  206.6690  152.9680 F   0  0  0  0  0  0  0  0  0  0  0  0
  163.8850  204.5180  152.7150 F   0  0  0  0  0  0  0  0  0  0  0  0
  163.6340  205.6960  152.0460 C   0  0  0  0  0  0  0  0  0  0  0  0
  164.7900  206.0760  151.3840 F   0  0  0  0  0  0  0  0  0  0  0  0
  162.0060  204.7860  145.7140 C   0  0  0  0  0  2  0  0  0  0  0  0
  160.2730  206.0270  144.6450 O   0  0  0  0  0  1  0  0  0  0  0  0
  161.6560  205.8370  144.6700 C   0  0  0  0  0  2  0  0  0  0  0  0
  160.0080  211.1720  152.0220 C   0  0  0  0  0  2  0  0  0  0  0  0
  159.7980  211.2170  153.5370 C   0  0  1  0  0  0  0  0  0  0  0  0
  161.0570  211.8250  154.1710 C   0  0  0  0  0  1  0  0  0  0  0  0
  157.4300  211.8200  153.3010 N   0  0  0  0  0  0  0  0  0  0  0  0
  158.6110  212.1180  153.7480 C   0  0  0  0  0  3  0  0  0  0  0  0
  155.5940  212.7120  154.5830 N   0  0  0  0  0  0  0  0  0  0  0  0
  156.2690  212.6530  153.4690 C   0  0  0  0  0  0  0  0  0  0  0  0
  154.7250  214.3620  152.4240 C   0  0  0  0  0  1  0  0  0  0  0  0
  155.8830  213.4850  152.3750 N   0  0  0  0  0  2  0  0  0  0  0  0
  155.9150  212.0010  155.8140 C   0  0  0  0  0  2  0  0  0  0  0  0
  157.8470  213.3540  156.3150 N   0  0  0  0  0  0  0  0  0  0  0  0
  156.7250  212.8710  156.7130 C   0  0  0  0  0  3  0  0  0  0  0  0
  160.1110  213.9170  156.9780 C   0  0  0  0  0  1  0  0  0  0  0  0
  158.6320  214.1770  157.1910 C   0  0  0  0  0  2  0  0  0  0  0  0
  159.5350  209.8960  153.9970 O   0  0  0  0  0  0  0  0  0  0  0  0
  159.5580  209.8450  155.4010 C   0  0  0  0  0  1  0  0  0  0  0  0
  1 36  1  6  0  0  0
  1  3  1  0  0  0  0
  2 39  1  6  0  0  0
  3 10  1  0  0  0  0
  3 16  1  1  0  0  0
  4  7  2  0  0  0  0
  7  6  1  0  0  0  0
  8 20  1  0  0  0  0
 10 22  1  0  0  0  0
 10  9  1  1  0  0  0
 11  5  1  6  0  0  0
 11 12  1  0  0  0  0
 12 23  1  1  0  0  0
 14  2  1  0  0  0  0
 15 17  1  0  0  0  0
 15 28  1  1  0  0  0
 16  7  1  0  0  0  0
 17  6  1  0  0  0  0
 17 34  1  1  0  0  0
 18  1  1  0  0  0  0
 18 21  1  0  0  0  0
 19 13  1  1  0  0  0
 19  4  1  0  0  0  0
 20 13  1  0  0  0  0
 21  8  1  6  0  0  0
 21 19  1  0  0  0  0
 22  5  1  6  0  0  0
 22 24  1  0  0  0  0
 23  2  1  0  0  0  0
 24 12  1  0  0  0  0
 24 15  1  0  0  0  0
 25 11  1  0  0  0  0
 25 14  1  0  0  0  0
 26 31  1  0  0  0  0
 27 26  1  0  0  0  0
 28 30  1  0  0  0  0
 28 27  1  0  0  0  0
 29 26  1  0  0  0  0
 30 26  1  0  0  0  0
 34 33  1  0  0  0  0
 34 32  1  0  0  0  0
 35 34  1  0  0  0  0
 37 38  1  0  0  0  0
 38 36  1  0  0  0  0
 39 40  1  0  0  0  0
 40 43  1  0  0  0  0
 40 53  1  0  0  0  0
 40 41  1  0  0  0  0
 42 45  1  0  0  0  0
 42 43  2  0  0  0  0
 44 48  1  0  0  0  0
 45 44  2  0  0  0  0
 47 46  1  0  0  0  0
 47 45  1  0  0  0  0
 48 50  1  0  0  0  0
 49 50  2  0  0  0  0
 49 52  1  0  0  0  0
 51 52  1  0  0  0  0
 53 54  1  0  0  0  0
M  END
>  <MODEL>
6

>  <REMARK>
 VINA RESULT:       3.2      1.185      2.316
  Name = 
  12 active torsions:
  status: ('A' for Active; 'I' for Inactive)
    1  A    between atoms: C_1  and  C_3
    2  A    between atoms: C_2  and  C_18
    3  A    between atoms: C_3  and  C_35
    4  A    between atoms: C_4  and  O_17
    5  A    between atoms: C_4  and  C_18
    6  A    between atoms: C_4  and  C_36
    7  A    between atoms: N_7  and  C_24
    8  A    between atoms: N_11  and  C_25
    9  A    between atoms: N_19  and  C_53
   10  A    between atoms: C_24  and  C_48
   11  A    between atoms: C_28  and  C_31
   12  A    between atoms: C_34  and  C_50
                            x       y       z     vdW  Elec       q    Type
                         _______ _______ _______ _____ _____    ______ ____

>  <TORSDO>
F 12

$$$$
=
 OpenBabel11072410363D

 54 59  0  0  1  0  0  0  0  0999 V2000
  160.9260  204.4660  146.6450 C   0  0  2  0  0  3  0  0  0  0  0  0
  161.5010  211.3030  151.3980 C   0  0  2  0  0  3  0  0  0  0  0  0
  161.2000  205.0680  148.0360 C   0  0  1  0  0  3  0  0  0  0  0  0
  161.2780  202.2970  149.7730 N   0  0  0  0  0  0  0  0  0  0  0  0
  161.7900  208.8430  147.8400 C   0  0  0  0  0  2  0  0  0  0  0  0
  161.7160  204.1250  151.2580 C   0  0  0  0  0  2  0  0  0  0  0  0
  161.1670  203.5700  149.9830 C   0  0  0  0  0  0  0  0  0  0  0  0
  161.5330  200.7970  146.4940 C   0  0  0  0  0  2  0  0  0  0  0  0
  159.6160  206.8420  148.6050 O   0  0  0  0  0  1  0  0  0  0  0  0
  160.8450  206.5570  147.9960 C   0  0  1  0  0  3  0  0  0  0  0  0
  162.0540  209.8280  148.9500 C   0  0  2  0  0  3  0  0  0  0  0  0
  161.5770  209.1280  150.1870 C   0  0  2  0  0  3  0  0  0  0  0  0
  160.9270  200.1310  148.7300 C   0  0  0  0  0  2  0  0  0  0  0  0
  161.7100  212.0240  150.0450 C   0  0  0  0  0  2  0  0  0  0  0  0
  161.4290  206.6230  150.8840 C   0  0  2  0  0  3  0  0  0  0  0  0
  160.4900  204.3950  149.0780 O   0  0  0  0  0  0  0  0  0  0  0  0
  162.4260  205.4600  151.0460 C   0  0  1  0  0  3  0  0  0  0  0  0
  160.4310  203.0200  146.6190 C   0  0  0  0  0  2  0  0  0  0  0  0
  160.7010  201.6200  148.6230 C   0  0  2  0  0  3  0  0  0  0  0  0
  160.9710  199.6460  147.3040 C   0  0  0  0  0  2  0  0  0  0  0  0
  161.3660  202.0530  147.3280 C   0  0  1  0  0  3  0  0  0  0  0  0
  161.9790  207.4690  148.4810 C   0  0  2  0  0  3  0  0  0  0  0  0
  162.1120  209.8900  151.3930 C   0  0  0  0  0  2  0  0  0  0  0  0
  162.0810  207.7140  150.0090 C   0  0  1  0  0  3  0  0  0  0  0  0
  161.3230  211.1550  148.8350 C   0  0  0  0  0  2  0  0  0  0  0  0
  160.7110  205.9120  153.8100 C   0  0  0  0  0  0  0  0  0  0  0  0
  161.7390  206.9130  153.3810 C   0  0  0  0  0  2  0  0  0  0  0  0
  160.8000  207.1100  152.2080 C   0  0  2  0  0  3  0  0  0  0  0  0
  161.2000  204.6050  153.8260 O   0  0  0  0  0  1  0  0  0  0  0  0
  159.8930  206.1460  152.7000 O   0  0  0  0  0  0  0  0  0  0  0  0
  160.0780  206.2570  155.0060 O   0  0  0  0  0  1  0  0  0  0  0  0
  163.6450  204.6040  152.9360 F   0  0  0  0  0  0  0  0  0  0  0  0
  164.7350  205.8720  151.4390 F   0  0  0  0  0  0  0  0  0  0  0  0
  163.5330  205.6890  152.0880 C   0  0  0  0  0  0  0  0  0  0  0  0
  163.2640  206.8260  152.8330 F   0  0  0  0  0  0  0  0  0  0  0  0
  162.1310  204.6390  145.7230 C   0  0  0  0  0  2  0  0  0  0  0  0
  161.8960  206.0230  143.7970 O   0  0  0  0  0  1  0  0  0  0  0  0
  161.6930  204.7250  144.2690 C   0  0  0  0  0  2  0  0  0  0  0  0
  160.0200  211.2300  151.7790 C   0  0  0  0  0  2  0  0  0  0  0  0
  159.7240  211.6270  153.2260 C   0  0  1  0  0  0  0  0  0  0  0  0
  158.2350  211.3630  153.4940 C   0  0  0  0  0  1  0  0  0  0  0  0
  160.5890  210.7910  155.3660 N   0  0  0  0  0  0  0  0  0  0  0  0
  160.5810  210.7220  154.0710 C   0  0  0  0  0  3  0  0  0  0  0  0
  162.4420  210.4000  156.8570 N   0  0  0  0  0  0  0  0  0  0  0  0
  161.3980  209.9560  156.2140 C   0  0  0  0  0  0  0  0  0  0  0  0
  161.7380  207.6580  157.2130 C   0  0  0  0  0  1  0  0  0  0  0  0
  160.9960  208.5980  156.3890 N   0  0  0  0  0  2  0  0  0  0  0  0
  162.9240  211.7750  156.8580 C   0  0  0  0  0  2  0  0  0  0  0  0
  165.0410  212.9160  157.0340 N   0  0  0  0  0  0  0  0  0  0  0  0
  164.4100  211.7990  156.9770 C   0  0  0  0  0  3  0  0  0  0  0  0
  167.0900  212.0920  156.0300 C   0  0  0  0  0  1  0  0  0  0  0  0
  166.4730  212.9340  157.1310 C   0  0  0  0  0  2  0  0  0  0  0  0
  160.0800  212.9940  153.4040 O   0  0  0  0  0  0  0  0  0  0  0  0
  158.9340  213.7860  153.5850 C   0  0  0  0  0  1  0  0  0  0  0  0
  1 36  1  6  0  0  0
  1  3  1  0  0  0  0
  2 39  1  6  0  0  0
  3 16  1  1  0  0  0
  4  7  2  0  0  0  0
  7  6  1  0  0  0  0
  8 20  1  0  0  0  0
 10  3  1  0  0  0  0
 10 22  1  0  0  0  0
 10  9  1  1  0  0  0
 11  5  1  6  0  0  0
 11 12  1  0  0  0  0
 12 23  1  1  0  0  0
 14  2  1  0  0  0  0
 15 17  1  0  0  0  0
 15 28  1  1  0  0  0
 16  7  1  0  0  0  0
 17  6  1  0  0  0  0
 17 34  1  1  0  0  0
 18  1  1  0  0  0  0
 18 21  1  0  0  0  0
 19 13  1  1  0  0  0
 19  4  1  0  0  0  0
 20 13  1  0  0  0  0
 21  8  1  6  0  0  0
 21 19  1  0  0  0  0
 22  5  1  6  0  0  0
 22 24  1  0  0  0  0
 23  2  1  0  0  0  0
 24 12  1  0  0  0  0
 24 15  1  0  0  0  0
 25 11  1  0  0  0  0
 25 14  1  0  0  0  0
 26 29  1  0  0  0  0
 26 31  1  0  0  0  0
 27 26  1  0  0  0  0
 28 30  1  0  0  0  0
 28 27  1  0  0  0  0
 30 26  1  0  0  0  0
 33 34  1  0  0  0  0
 34 35  1  0  0  0  0
 34 32  1  0  0  0  0
 37 38  1  0  0  0  0
 38 36  1  0  0  0  0
 39 40  1  0  0  0  0
 40 53  1  0  0  0  0
 40 41  1  0  0  0  0
 40 43  1  0  0  0  0
 42 45  1  0  0  0  0
 43 42  2  0  0  0  0
 44 48  1  0  0  0  0
 45 47  1  0  0  0  0
 45 44  2  0  0  0  0
 47 46  1  0  0  0  0
 48 50  1  0  0  0  0
 49 52  1  0  0  0  0
 50 49  2  0  0  0  0
 51 52  1  0  0  0  0
 53 54  1  0  0  0  0
M  END
>  <MODEL>
7

>  <REMARK>
 VINA RESULT:       3.4      2.410      4.086
  Name = 
  12 active torsions:
  status: ('A' for Active; 'I' for Inactive)
    1  A    between atoms: C_1  and  C_3
    2  A    between atoms: C_2  and  C_18
    3  A    between atoms: C_3  and  C_35
    4  A    between atoms: C_4  and  O_17
    5  A    between atoms: C_4  and  C_18
    6  A    between atoms: C_4  and  C_36
    7  A    between atoms: N_7  and  C_24
    8  A    between atoms: N_11  and  C_25
    9  A    between atoms: N_19  and  C_53
   10  A    between atoms: C_24  and  C_48
   11  A    between atoms: C_28  and  C_31
   12  A    between atoms: C_34  and  C_50
                            x       y       z     vdW  Elec       q    Type
                         _______ _______ _______ _____ _____    ______ ____

>  <TORSDO>
F 12

$$$$
