=
 OpenBabel11072410133D

 37 41  0  0  1  0  0  0  0  0999 V2000
  160.8390  211.0430  153.1310 C   0  0  2  0  0  3  0  0  0  0  0  0
  156.9360  214.0830  152.8290 C   0  0  0  0  0  2  0  0  0  0  0  0
  159.7280  211.6360  152.2710 C   0  0  1  0  0  3  0  0  0  0  0  0
  158.5370  212.0340  153.1270 C   0  0  0  0  0  2  0  0  0  0  0  0
  159.1810  213.7110  151.4750 C   0  0  2  0  0  3  0  0  0  0  0  0
  160.2060  212.7410  151.5150 O   0  0  0  0  0  0  0  0  0  0  0  0
  158.1380  214.3260  153.5200 O   0  0  0  0  0  0  0  0  0  0  0  0
  158.1750  213.3350  152.5220 C   0  0  1  0  0  0  0  0  0  0  0  0
  157.0950  213.3470  148.5530 N   0  0  0  0  0  0  0  0  0  0  0  0
  158.5710  213.7690  150.1080 C   0  0  0  0  0  0  0  0  0  0  0  0
  158.0950  214.2200  147.9530 C   0  0  0  0  0  3  0  0  0  0  0  0
  159.0500  214.4530  149.0810 C   0  0  0  0  0  3  0  0  0  0  0  0
  157.3750  213.0980  149.7640 N   0  0  0  0  0  2  0  0  0  0  0  0
  161.1480  209.0980  151.8130 N   0  0  0  0  0  0  0  0  0  0  0  0
  160.9030  209.5990  152.9570 N   0  0  0  0  0  0  0  0  0  0  0  0
  161.3530  204.9220  151.1730 C   0  0  0  0  0  3  0  0  0  0  0  0
  161.2190  207.6850  151.6130 C   0  0  0  0  0  0  0  0  0  0  0  0
  160.9760  207.1640  150.3390 C   0  0  0  0  0  3  0  0  0  0  0  0
  161.5950  205.4370  152.4490 C   0  0  0  0  0  3  0  0  0  0  0  0
  161.5290  206.8150  152.6700 C   0  0  0  0  0  3  0  0  0  0  0  0
  161.0430  205.7850  150.1110 C   0  0  0  0  0  0  0  0  0  0  0  0
  160.7740  205.2640  148.7290 C   0  0  1  0  0  3  0  0  0  0  0  0
  161.4050  206.1020  147.6550 C   0  0  0  0  0  0  0  0  0  0  0  0
  162.4670  206.6750  147.8490 O   0  0  0  0  0  0  0  0  0  0  0  0
  160.7180  206.2490  146.3410 C   0  0  0  0  0  1  0  0  0  0  0  0
  161.0900  203.8060  148.5830 C   0  0  0  0  0  0  0  0  0  0  0  0
  162.0130  203.4270  147.8090 O   0  0  0  0  0  0  0  0  0  0  0  0
  160.4960  201.4790  149.1150 C   0  0  0  0  0  1  0  0  0  0  0  0
  160.3440  202.8770  149.3080 O   0  0  0  0  0  0  0  0  0  0  0  0
  160.6070  211.3480  154.4750 O   0  0  0  0  0  0  0  0  0  0  0  0
  162.6770  209.6830  156.9620 C   0  0  0  0  0  1  0  0  0  0  0  0
  161.0380  210.2210  155.1810 C   0  0  1  0  0  3  0  0  0  0  0  0
  160.1290  208.6690  156.8540 O   0  0  0  0  0  1  0  0  0  0  0  0
  161.5870  210.6570  156.5390 C   0  0  1  0  0  3  0  0  0  0  0  0
  160.2180  210.0010  156.4420 C   0  0  1  0  0  0  0  0  0  0  0  0
  158.1320  211.5350  156.8840 N   0  0  0  0  0  0  0  0  0  0  0  0
  159.0540  210.8630  156.6880 C   0  0  0  0  0  0  0  0  0  0  0  0
  1 15  1  1  0  0  0
  1 30  1  0  0  0  0
  2  7  1  0  0  0  0
  3  4  1  0  0  0  0
  3  1  1  1  0  0  0
  5 10  1  6  0  0  0
  5  6  1  0  0  0  0
  5  8  1  0  0  0  0
  6  3  1  0  0  0  0
  8  2  1  6  0  0  0
  8  4  1  0  0  0  0
  8  7  1  0  0  0  0
  9 13  1  0  0  0  0
 11  9  2  0  0  0  0
 11 12  1  0  0  0  0
 12 10  2  0  0  0  0
 13 10  1  0  0  0  0
 14 15  2  0  0  0  0
 16 19  1  0  0  0  0
 17 14  1  0  0  0  0
 17 20  1  0  0  0  0
 18 17  2  0  0  0  0
 19 20  2  0  0  0  0
 21 18  1  0  0  0  0
 21 16  2  0  0  0  0
 22 23  1  6  0  0  0
 22 21  1  0  0  0  0
 23 24  2  0  0  0  0
 25 23  1  0  0  0  0
 26 22  1  0  0  0  0
 26 29  1  0  0  0  0
 27 26  2  0  0  0  0
 28 29  1  0  0  0  0
 32 30  1  6  0  0  0
 32 35  1  0  0  0  0
 32 34  1  0  0  0  0
 34 31  1  1  0  0  0
 35 34  1  0  0  0  0
 35 37  1  0  0  0  0
 35 33  1  1  0  0  0
 37 36  3  0  0  0  0
M  END
>  <MODEL>
1

>  <REMARK>
 VINA RESULT:      -7.6      0.000      0.000
  Name = 
  11 active torsions:
  status: ('A' for Active; 'I' for Inactive)
    1  A    between atoms: C_3  and  C_12
    2  A    between atoms: C_5  and  C_11
    3  A    between atoms: O_7  and  C_29
    4  A    between atoms: C_8  and  N_25
    5  A    between atoms: C_11  and  O_23
    6  A    between atoms: C_11  and  N_26
    7  A    between atoms: C_12  and  C_29
    8  A    between atoms: C_12  and  C_30
    9  A    between atoms: C_13  and  C_18
   10  A    between atoms: C_16  and  O_23
   11  A    between atoms: C_33  and  C_35
                            x       y       z     vdW  Elec       q    Type
                         _______ _______ _______ _____ _____    ______ ____

>  <TORSDO>
F 11

$$$$
=
 OpenBabel11072410133D

 37 41  0  0  1  0  0  0  0  0999 V2000
  162.3380  209.5100  149.4880 C   0  0  2  0  0  3  0  0  0  0  0  0
  161.2340  204.6830  149.2820 C   0  0  0  0  0  2  0  0  0  0  0  0
  162.3430  208.2180  148.6790 C   0  0  1  0  0  3  0  0  0  0  0  0
  162.3960  207.0070  149.5960 C   0  0  0  0  0  2  0  0  0  0  0  0
  160.7680  206.8180  147.7870 C   0  0  2  0  0  3  0  0  0  0  0  0
  161.2160  208.1550  147.8140 O   0  0  0  0  0  0  0  0  0  0  0  0
  160.4500  205.6990  149.8600 O   0  0  0  0  0  0  0  0  0  0  0  0
  161.4260  206.1070  148.9320 C   0  0  1  0  0  0  0  0  0  0  0  0
  162.3150  205.0900  145.0230 N   0  0  0  0  0  0  0  0  0  0  0  0
  161.0980  206.1840  146.4710 C   0  0  0  0  0  0  0  0  0  0  0  0
  161.0490  205.3830  144.3660 C   0  0  0  0  0  3  0  0  0  0  0  0
  160.2900  206.1210  145.4230 C   0  0  0  0  0  3  0  0  0  0  0  0
  162.3320  205.5480  146.2050 N   0  0  0  0  0  2  0  0  0  0  0  0
  161.0370  208.8910  151.3700 N   0  0  0  0  0  0  0  0  0  0  0  0
  162.1750  209.2240  150.9070 N   0  0  0  0  0  0  0  0  0  0  0  0
  160.4650  208.0850  155.4820 C   0  0  0  0  0  3  0  0  0  0  0  0
  160.8490  208.6020  152.7560 C   0  0  0  0  0  0  0  0  0  0  0  0
  160.5720  209.6510  153.6390 C   0  0  0  0  0  3  0  0  0  0  0  0
  160.7430  207.0320  154.6060 C   0  0  0  0  0  3  0  0  0  0  0  0
  160.9340  207.2900  153.2460 C   0  0  0  0  0  3  0  0  0  0  0  0
  160.3770  209.4000  155.0010 C   0  0  0  0  0  0  0  0  0  0  0  0
  160.0850  210.5530  155.9170 C   0  0  1  0  0  3  0  0  0  0  0  0
  161.3280  211.2020  156.4550 C   0  0  0  0  0  0  0  0  0  0  0  0
  161.2590  212.1200  157.2600 O   0  0  0  0  0  0  0  0  0  0  0  0
  162.6610  210.7300  155.9880 C   0  0  0  0  0  1  0  0  0  0  0  0
  159.1280  211.5420  155.3240 C   0  0  0  0  0  0  0  0  0  0  0  0
  157.8850  211.3220  155.3470 O   0  0  0  0  0  0  0  0  0  0  0  0
  158.7820  213.7020  154.1980 C   0  0  0  0  0  1  0  0  0  0  0  0
  159.6340  212.7030  154.7400 O   0  0  0  0  0  0  0  0  0  0  0  0
  161.2980  210.3360  149.0490 O   0  0  0  0  0  0  0  0  0  0  0  0
  161.5000  212.6400  146.2400 C   0  0  0  0  0  1  0  0  0  0  0  0
  161.9250  211.3430  148.3100 C   0  0  1  0  0  3  0  0  0  0  0  0
  162.4500  213.7290  148.5720 O   0  0  0  0  0  1  0  0  0  0  0  0
  160.8700  212.1220  147.5240 C   0  0  1  0  0  3  0  0  0  0  0  0
  161.4960  212.7270  148.7710 C   0  0  1  0  0  0  0  0  0  0  0  0
  159.9590  212.9270  150.8910 N   0  0  0  0  0  0  0  0  0  0  0  0
  160.6340  212.8420  149.9550 C   0  0  0  0  0  0  0  0  0  0  0  0
  1 30  1  6  0  0  0
  1 15  1  0  0  0  0
  2  7  1  0  0  0  0
  3  1  1  1  0  0  0
  3  4  1  0  0  0  0
  5 10  1  6  0  0  0
  5  6  1  0  0  0  0
  5  8  1  0  0  0  0
  6  3  1  0  0  0  0
  8  2  1  6  0  0  0
  8  4  1  0  0  0  0
  8  7  1  0  0  0  0
  9 13  1  0  0  0  0
 11  9  2  0  0  0  0
 11 12  1  0  0  0  0
 12 10  2  0  0  0  0
 13 10  1  0  0  0  0
 14 17  1  0  0  0  0
 15 14  2  0  0  0  0
 17 20  2  0  0  0  0
 17 18  1  0  0  0  0
 18 21  2  0  0  0  0
 19 16  2  0  0  0  0
 20 19  1  0  0  0  0
 21 16  1  0  0  0  0
 21 22  1  0  0  0  0
 22 26  1  6  0  0  0
 22 23  1  0  0  0  0
 23 24  2  0  0  0  0
 25 23  1  0  0  0  0
 26 27  2  0  0  0  0
 28 29  1  0  0  0  0
 29 26  1  0  0  0  0
 32 35  1  0  0  0  0
 32 30  1  1  0  0  0
 34 31  1  6  0  0  0
 34 32  1  0  0  0  0
 34 35  1  0  0  0  0
 35 33  1  6  0  0  0
 35 37  1  0  0  0  0
 37 36  3  0  0  0  0
M  END
>  <MODEL>
2

>  <REMARK>
 VINA RESULT:      -7.1      2.793      8.341
  Name = 
  11 active torsions:
  status: ('A' for Active; 'I' for Inactive)
    1  A    between atoms: C_3  and  C_12
    2  A    between atoms: C_5  and  C_11
    3  A    between atoms: O_7  and  C_29
    4  A    between atoms: C_8  and  N_25
    5  A    between atoms: C_11  and  O_23
    6  A    between atoms: C_11  and  N_26
    7  A    between atoms: C_12  and  C_29
    8  A    between atoms: C_12  and  C_30
    9  A    between atoms: C_13  and  C_18
   10  A    between atoms: C_16  and  O_23
   11  A    between atoms: C_33  and  C_35
                            x       y       z     vdW  Elec       q    Type
                         _______ _______ _______ _____ _____    ______ ____

>  <TORSDO>
F 11

$$$$
=
 OpenBabel11072410133D

 37 41  0  0  1  0  0  0  0  0999 V2000
  161.7080  209.2090  150.3010 C   0  0  2  0  0  3  0  0  0  0  0  0
  161.2060  204.3240  149.6230 C   0  0  0  0  0  2  0  0  0  0  0  0
  161.9720  207.9940  149.4180 C   0  0  1  0  0  3  0  0  0  0  0  0
  162.0390  206.7250  150.2520 C   0  0  0  0  0  2  0  0  0  0  0  0
  160.7050  206.5130  148.2190 C   0  0  2  0  0  3  0  0  0  0  0  0
  160.9890  207.8830  148.3980 O   0  0  0  0  0  0  0  0  0  0  0  0
  160.2400  205.2030  150.1470 O   0  0  0  0  0  0  0  0  0  0  0  0
  161.2790  205.7850  149.3980 C   0  0  1  0  0  0  0  0  0  0  0  0
  162.8000  205.1760  145.6020 N   0  0  0  0  0  0  0  0  0  0  0  0
  161.2820  206.0250  146.9250 C   0  0  0  0  0  0  0  0  0  0  0  0
  161.6150  205.4030  144.7860 C   0  0  0  0  0  3  0  0  0  0  0  0
  160.6420  205.9760  145.7680 C   0  0  0  0  0  3  0  0  0  0  0  0
  162.6020  205.5320  146.8020 N   0  0  0  0  0  2  0  0  0  0  0  0
  161.4410  210.8280  148.5910 N   0  0  0  0  0  0  0  0  0  0  0  0
  162.0900  210.4330  149.6130 N   0  0  0  0  0  0  0  0  0  0  0  0
  162.4460  214.3660  146.5040 C   0  0  0  0  0  3  0  0  0  0  0  0
  161.7920  212.0260  147.8980 C   0  0  0  0  0  0  0  0  0  0  0  0
  161.2100  212.2890  146.6540 C   0  0  0  0  0  3  0  0  0  0  0  0
  163.0320  214.1090  147.7460 C   0  0  0  0  0  3  0  0  0  0  0  0
  162.7060  212.9420  148.4420 C   0  0  0  0  0  3  0  0  0  0  0  0
  161.5300  213.4560  145.9530 C   0  0  0  0  0  0  0  0  0  0  0  0
  160.8860  213.7020  144.6190 C   0  0  1  0  0  3  0  0  0  0  0  0
  161.8430  213.5490  143.4720 C   0  0  0  0  0  0  0  0  0  0  0  0
  162.7550  212.7360  143.5190 O   0  0  0  0  0  0  0  0  0  0  0  0
  161.6850  214.4100  142.2660 C   0  0  0  0  0  1  0  0  0  0  0  0
  159.6250  212.9170  144.4260 C   0  0  0  0  0  0  0  0  0  0  0  0
  159.6380  211.8350  143.7750 O   0  0  0  0  0  0  0  0  0  0  0  0
  157.6940  212.6680  145.9310 C   0  0  0  0  0  1  0  0  0  0  0  0
  158.4360  213.4040  144.9700 O   0  0  0  0  0  0  0  0  0  0  0  0
  162.4300  209.0900  151.4920 O   0  0  0  0  0  0  0  0  0  0  0  0
  159.6410  211.1150  152.6580 C   0  0  0  0  0  1  0  0  0  0  0  0
  161.8400  210.0090  152.3650 C   0  0  1  0  0  3  0  0  0  0  0  0
  161.1330  210.0840  154.7160 O   0  0  0  0  0  1  0  0  0  0  0  0
  160.3270  209.7850  152.3840 C   0  0  1  0  0  3  0  0  0  0  0  0
  161.1850  209.3170  153.5500 C   0  0  1  0  0  0  0  0  0  0  0  0
  161.4860  206.7210  153.8170 N   0  0  0  0  0  0  0  0  0  0  0  0
  161.3550  207.8660  153.7030 C   0  0  0  0  0  0  0  0  0  0  0  0
  1 15  1  6  0  0  0
  1 30  1  0  0  0  0
  2  7  1  0  0  0  0
  3  4  1  0  0  0  0
  3  1  1  1  0  0  0
  5 10  1  6  0  0  0
  5  6  1  0  0  0  0
  5  8  1  0  0  0  0
  6  3  1  0  0  0  0
  8  2  1  6  0  0  0
  8  7  1  0  0  0  0
  8  4  1  0  0  0  0
  9 13  1  0  0  0  0
 11  9  2  0  0  0  0
 11 12  1  0  0  0  0
 12 10  2  0  0  0  0
 13 10  1  0  0  0  0
 14 15  2  0  0  0  0
 16 19  1  0  0  0  0
 17 20  1  0  0  0  0
 17 14  1  0  0  0  0
 18 17  2  0  0  0  0
 19 20  2  0  0  0  0
 21 16  2  0  0  0  0
 21 18  1  0  0  0  0
 22 23  1  6  0  0  0
 22 21  1  0  0  0  0
 23 24  2  0  0  0  0
 25 23  1  0  0  0  0
 26 22  1  0  0  0  0
 26 29  1  0  0  0  0
 27 26  2  0  0  0  0
 29 28  1  0  0  0  0
 32 30  1  6  0  0  0
 32 34  1  0  0  0  0
 32 35  1  0  0  0  0
 34 31  1  1  0  0  0
 34 35  1  0  0  0  0
 35 37  1  0  0  0  0
 35 33  1  1  0  0  0
 37 36  3  0  0  0  0
M  END
>  <MODEL>
3

>  <REMARK>
 VINA RESULT:      -6.7      3.879      7.929
  Name = 
  11 active torsions:
  status: ('A' for Active; 'I' for Inactive)
    1  A    between atoms: C_3  and  C_12
    2  A    between atoms: C_5  and  C_11
    3  A    between atoms: O_7  and  C_29
    4  A    between atoms: C_8  and  N_25
    5  A    between atoms: C_11  and  O_23
    6  A    between atoms: C_11  and  N_26
    7  A    between atoms: C_12  and  C_29
    8  A    between atoms: C_12  and  C_30
    9  A    between atoms: C_13  and  C_18
   10  A    between atoms: C_16  and  O_23
   11  A    between atoms: C_33  and  C_35
                            x       y       z     vdW  Elec       q    Type
                         _______ _______ _______ _____ _____    ______ ____

>  <TORSDO>
F 11

$$$$
=
 OpenBabel11072410133D

 37 41  0  0  1  0  0  0  0  0999 V2000
  161.8340  210.5610  151.6880 C   0  0  2  0  0  3  0  0  0  0  0  0
  159.3960  214.3730  149.6650 C   0  0  0  0  0  2  0  0  0  0  0  0
  161.1590  211.1540  150.4560 C   0  0  1  0  0  3  0  0  0  0  0  0
  160.0770  212.1450  150.8570 C   0  0  0  0  0  2  0  0  0  0  0  0
  161.5300  212.9280  149.0590 C   0  0  2  0  0  3  0  0  0  0  0  0
  162.1140  211.7610  149.5960 O   0  0  0  0  0  0  0  0  0  0  0  0
  160.4830  214.4490  150.5550 O   0  0  0  0  0  0  0  0  0  0  0  0
  160.3100  213.2290  149.8760 C   0  0  1  0  0  0  0  0  0  0  0  0
  159.9560  212.1870  145.8970 N   0  0  0  0  0  0  0  0  0  0  0  0
  161.1990  212.7270  147.6110 C   0  0  0  0  0  0  0  0  0  0  0  0
  161.2260  212.6580  145.3600 C   0  0  0  0  0  3  0  0  0  0  0  0
  161.9990  213.0030  146.5940 C   0  0  0  0  0  3  0  0  0  0  0  0
  159.9540  212.2280  147.1640 N   0  0  0  0  0  2  0  0  0  0  0  0
  161.5490  208.4770  150.5960 N   0  0  0  0  0  0  0  0  0  0  0  0
  161.7110  209.1100  151.6880 N   0  0  0  0  0  0  0  0  0  0  0  0
  161.2080  204.2630  150.4610 C   0  0  0  0  0  3  0  0  0  0  0  0
  161.4280  207.0540  150.5660 C   0  0  0  0  0  0  0  0  0  0  0  0
  161.6610  206.3750  149.3660 C   0  0  0  0  0  3  0  0  0  0  0  0
  160.9740  204.9360  151.6640 C   0  0  0  0  0  3  0  0  0  0  0  0
  161.0830  206.3280  151.7170 C   0  0  0  0  0  3  0  0  0  0  0  0
  161.5550  204.9810  149.3060 C   0  0  0  0  0  0  0  0  0  0  0  0
  161.8100  204.2890  147.9990 C   0  0  1  0  0  3  0  0  0  0  0  0
  160.9690  203.0580  147.8160 C   0  0  0  0  0  0  0  0  0  0  0  0
  160.1750  202.7060  148.6770 O   0  0  0  0  0  0  0  0  0  0  0  0
  161.1150  202.2480  146.5750 C   0  0  0  0  0  1  0  0  0  0  0  0
  161.7380  205.2160  146.8240 C   0  0  0  0  0  0  0  0  0  0  0  0
  162.7870  205.5390  146.1990 O   0  0  0  0  0  0  0  0  0  0  0  0
  160.2150  206.0640  145.0880 C   0  0  0  0  0  1  0  0  0  0  0  0
  160.4970  205.7210  146.4370 O   0  0  0  0  0  0  0  0  0  0  0  0
  161.2480  211.0860  152.8430 O   0  0  0  0  0  0  0  0  0  0  0  0
  162.6110  210.1490  156.0840 C   0  0  0  0  0  1  0  0  0  0  0  0
  161.5390  210.1590  153.8490 C   0  0  1  0  0  3  0  0  0  0  0  0
  160.3030  208.7960  155.4760 O   0  0  0  0  0  1  0  0  0  0  0  0
  161.6220  210.8830  155.1930 C   0  0  1  0  0  3  0  0  0  0  0  0
  160.4020  210.0420  154.8500 C   0  0  1  0  0  0  0  0  0  0  0  0
  158.1680  211.3430  154.3880 N   0  0  0  0  0  0  0  0  0  0  0  0
  159.1510  210.7670  154.5880 C   0  0  0  0  0  0  0  0  0  0  0  0
  1 15  1  1  0  0  0
  1 30  1  0  0  0  0
  2  7  1  0  0  0  0
  3  4  1  0  0  0  0
  3  1  1  1  0  0  0
  5 10  1  6  0  0  0
  5  6  1  0  0  0  0
  5  8  1  0  0  0  0
  6  3  1  0  0  0  0
  8  2  1  6  0  0  0
  8  7  1  0  0  0  0
  8  4  1  0  0  0  0
  9 13  1  0  0  0  0
 11  9  2  0  0  0  0
 11 12  1  0  0  0  0
 12 10  2  0  0  0  0
 13 10  1  0  0  0  0
 14 15  2  0  0  0  0
 16 19  1  0  0  0  0
 17 14  1  0  0  0  0
 17 20  1  0  0  0  0
 18 17  2  0  0  0  0
 19 20  2  0  0  0  0
 21 18  1  0  0  0  0
 21 16  2  0  0  0  0
 22 26  1  6  0  0  0
 22 21  1  0  0  0  0
 23 22  1  0  0  0  0
 23 24  2  0  0  0  0
 25 23  1  0  0  0  0
 27 26  2  0  0  0  0
 28 29  1  0  0  0  0
 29 26  1  0  0  0  0
 32 30  1  6  0  0  0
 32 35  1  0  0  0  0
 32 34  1  0  0  0  0
 34 31  1  1  0  0  0
 35 34  1  0  0  0  0
 35 33  1  1  0  0  0
 36 37  3  0  0  0  0
 37 35  1  0  0  0  0
M  END
>  <MODEL>
4

>  <REMARK>
 VINA RESULT:      -6.3      2.080      2.908
  Name = 
  11 active torsions:
  status: ('A' for Active; 'I' for Inactive)
    1  A    between atoms: C_3  and  C_12
    2  A    between atoms: C_5  and  C_11
    3  A    between atoms: O_7  and  C_29
    4  A    between atoms: C_8  and  N_25
    5  A    between atoms: C_11  and  O_23
    6  A    between atoms: C_11  and  N_26
    7  A    between atoms: C_12  and  C_29
    8  A    between atoms: C_12  and  C_30
    9  A    between atoms: C_13  and  C_18
   10  A    between atoms: C_16  and  O_23
   11  A    between atoms: C_33  and  C_35
                            x       y       z     vdW  Elec       q    Type
                         _______ _______ _______ _____ _____    ______ ____

>  <TORSDO>
F 11

$$$$
=
 OpenBabel11072410133D

 37 41  0  0  1  0  0  0  0  0999 V2000
  161.4190  207.4500  149.3810 C   0  0  2  0  0  3  0  0  0  0  0  0
  161.3210  205.4960  144.8260 C   0  0  0  0  0  2  0  0  0  0  0  0
  161.0120  206.2860  148.4830 C   0  0  1  0  0  3  0  0  0  0  0  0
  160.7860  206.7580  147.0560 C   0  0  0  0  0  2  0  0  0  0  0  0
  162.0930  204.7040  147.2320 C   0  0  2  0  0  3  0  0  0  0  0  0
  161.9790  205.2460  148.5300 O   0  0  0  0  0  0  0  0  0  0  0  0
  162.3860  206.2050  145.4130 O   0  0  0  0  0  0  0  0  0  0  0  0
  161.4290  205.6660  146.2920 C   0  0  1  0  0  0  0  0  0  0  0  0
  160.6920  201.5330  146.2330 N   0  0  0  0  0  0  0  0  0  0  0  0
  161.4670  203.3450  147.1770 C   0  0  0  0  0  0  0  0  0  0  0  0
  160.5580  201.3440  147.6720 C   0  0  0  0  0  2  0  0  0  0  0  0
  161.1110  202.6190  148.2260 C   0  0  0  0  0  3  0  0  0  0  0  0
  161.2010  202.6620  145.9680 N   0  0  0  0  0  0  0  0  0  0  0  0
  161.6120  209.7940  149.0950 N   0  0  0  0  0  0  0  0  0  0  0  0
  161.7080  208.6330  148.5830 N   0  0  0  0  0  0  0  0  0  0  0  0
  162.3890  213.2890  146.8440 C   0  0  0  0  0  3  0  0  0  0  0  0
  161.8910  210.9720  148.3370 C   0  0  0  0  0  0  0  0  0  0  0  0
  160.8440  211.6200  147.6740 C   0  0  0  0  0  3  0  0  0  0  0  0
  163.4400  212.6460  147.5030 C   0  0  0  0  0  3  0  0  0  0  0  0
  163.1920  211.4910  148.2490 C   0  0  0  0  0  3  0  0  0  0  0  0
  161.0850  212.7790  146.9280 C   0  0  0  0  0  0  0  0  0  0  0  0
  159.9350  213.4440  146.2290 C   0  0  1  0  0  3  0  0  0  0  0  0
  159.7900  213.0080  144.7990 C   0  0  0  0  0  0  0  0  0  0  0  0
  160.1210  211.8850  144.4480 O   0  0  0  0  0  0  0  0  0  0  0  0
  159.2490  213.9640  143.7930 C   0  0  0  0  0  1  0  0  0  0  0  0
  158.6510  213.3470  146.9940 C   0  0  0  0  0  0  0  0  0  0  0  0
  157.7620  212.5170  146.6500 O   0  0  0  0  0  0  0  0  0  0  0  0
  158.2400  213.6870  149.3960 C   0  0  0  0  0  1  0  0  0  0  0  0
  158.4490  214.1920  148.0850 O   0  0  0  0  0  0  0  0  0  0  0  0
  162.5460  207.0960  150.1280 O   0  0  0  0  0  0  0  0  0  0  0  0
  160.4720  208.7310  152.6310 C   0  0  0  0  0  1  0  0  0  0  0  0
  162.3270  207.6440  151.3950 C   0  0  1  0  0  3  0  0  0  0  0  0
  162.1510  206.8490  153.7120 O   0  0  0  0  0  1  0  0  0  0  0  0
  160.8360  207.5630  151.7270 C   0  0  1  0  0  3  0  0  0  0  0  0
  161.8190  206.6010  152.3770 C   0  0  1  0  0  0  0  0  0  0  0  0
  161.7100  204.0920  151.6090 N   0  0  0  0  0  0  0  0  0  0  0  0
  161.7530  205.1980  151.9480 C   0  0  0  0  0  0  0  0  0  0  0  0
  1 15  1  6  0  0  0
  1 30  1  0  0  0  0
  2  7  1  0  0  0  0
  3  6  1  0  0  0  0
  3  1  1  1  0  0  0
  4  3  1  0  0  0  0
  5 10  1  1  0  0  0
  5  6  1  0  0  0  0
  7  8  1  0  0  0  0
  8  2  1  6  0  0  0
  8  4  1  0  0  0  0
  8  5  1  0  0  0  0
  9 11  1  0  0  0  0
 10 12  2  0  0  0  0
 11 12  1  0  0  0  0
 13  9  2  0  0  0  0
 13 10  1  0  0  0  0
 15 14  2  0  0  0  0
 16 21  2  0  0  0  0
 16 19  1  0  0  0  0
 17 14  1  0  0  0  0
 18 17  2  0  0  0  0
 19 20  2  0  0  0  0
 20 17  1  0  0  0  0
 21 18  1  0  0  0  0
 22 23  1  6  0  0  0
 22 21  1  0  0  0  0
 22 26  1  0  0  0  0
 24 23  2  0  0  0  0
 25 23  1  0  0  0  0
 26 29  1  0  0  0  0
 27 26  2  0  0  0  0
 29 28  1  0  0  0  0
 32 30  1  6  0  0  0
 32 34  1  0  0  0  0
 32 35  1  0  0  0  0
 34 35  1  0  0  0  0
 34 31  1  1  0  0  0
 35 33  1  1  0  0  0
 36 37  3  0  0  0  0
 37 35  1  0  0  0  0
M  END
>  <MODEL>
5

>  <REMARK>
 VINA RESULT:      -6.3      3.702      8.826
  Name = 
  11 active torsions:
  status: ('A' for Active; 'I' for Inactive)
    1  A    between atoms: C_3  and  C_12
    2  A    between atoms: C_5  and  C_11
    3  A    between atoms: O_7  and  C_29
    4  A    between atoms: C_8  and  N_25
    5  A    between atoms: C_11  and  O_23
    6  A    between atoms: C_11  and  N_26
    7  A    between atoms: C_12  and  C_29
    8  A    between atoms: C_12  and  C_30
    9  A    between atoms: C_13  and  C_18
   10  A    between atoms: C_16  and  O_23
   11  A    between atoms: C_33  and  C_35
                            x       y       z     vdW  Elec       q    Type
                         _______ _______ _______ _____ _____    ______ ____

>  <TORSDO>
F 11

$$$$
=
 OpenBabel11072410133D

 37 41  0  0  1  0  0  0  0  0999 V2000
  162.0520  209.9100  149.6270 C   0  0  2  0  0  3  0  0  0  0  0  0
  161.3030  205.0150  149.8320 C   0  0  0  0  0  2  0  0  0  0  0  0
  162.2380  208.5470  148.9690 C   0  0  1  0  0  3  0  0  0  0  0  0
  162.2640  207.4430  150.0140 C   0  0  0  0  0  2  0  0  0  0  0  0
  160.8750  206.9440  148.0690 C   0  0  2  0  0  3  0  0  0  0  0  0
  161.2270  208.3080  147.9990 O   0  0  0  0  0  0  0  0  0  0  0  0
  160.3910  206.0200  150.2050 O   0  0  0  0  0  0  0  0  0  0  0  0
  161.4400  206.4070  149.3510 C   0  0  1  0  0  0  0  0  0  0  0  0
  162.8420  205.0580  145.7040 N   0  0  0  0  0  0  0  0  0  0  0  0
  161.3990  206.2070  146.8750 C   0  0  0  0  0  0  0  0  0  0  0  0
  161.6530  205.2040  144.8740 C   0  0  0  0  0  3  0  0  0  0  0  0
  160.7320  205.9910  145.7510 C   0  0  0  0  0  3  0  0  0  0  0  0
  162.6880  205.6290  146.8250 N   0  0  0  0  0  2  0  0  0  0  0  0
  161.7320  210.5340  151.8900 N   0  0  0  0  0  0  0  0  0  0  0  0
  161.4120  209.7680  150.9260 N   0  0  0  0  0  0  0  0  0  0  0  0
  159.8880  210.2310  155.6840 C   0  0  0  0  0  3  0  0  0  0  0  0
  161.1200  210.4190  153.1750 C   0  0  0  0  0  0  0  0  0  0  0  0
  160.1980  211.3900  153.5800 C   0  0  0  0  0  3  0  0  0  0  0  0
  160.8080  209.2580  155.2850 C   0  0  0  0  0  3  0  0  0  0  0  0
  161.4230  209.3510  154.0340 C   0  0  0  0  0  3  0  0  0  0  0  0
  159.5780  211.3020  154.8310 C   0  0  0  0  0  0  0  0  0  0  0  0
  158.5960  212.3650  155.2310 C   0  0  1  0  0  3  0  0  0  0  0  0
  158.4040  213.4110  154.1710 C   0  0  0  0  0  0  0  0  0  0  0  0
  159.0430  214.4530  154.1940 O   0  0  0  0  0  0  0  0  0  0  0  0
  157.4090  213.1810  153.0860 C   0  0  0  0  0  1  0  0  0  0  0  0
  157.2990  211.8040  155.7290 C   0  0  0  0  0  0  0  0  0  0  0  0
  156.7700  212.2550  156.7840 O   0  0  0  0  0  0  0  0  0  0  0  0
  155.3670  210.3430  155.2980 C   0  0  0  0  0  1  0  0  0  0  0  0
  156.6900  210.7730  155.0130 O   0  0  0  0  0  0  0  0  0  0  0  0
  161.2730  210.7270  148.8020 O   0  0  0  0  0  0  0  0  0  0  0  0
  162.5300  212.9490  146.2090 C   0  0  0  0  0  1  0  0  0  0  0  0
  162.1560  211.6950  148.3150 C   0  0  1  0  0  3  0  0  0  0  0  0
  162.6450  214.0700  148.7110 O   0  0  0  0  0  1  0  0  0  0  0  0
  161.4720  212.4850  147.1980 C   0  0  1  0  0  3  0  0  0  0  0  0
  161.6450  213.1030  148.5770 C   0  0  1  0  0  0  0  0  0  0  0  0
  159.4690  213.4020  150.0170 N   0  0  0  0  0  0  0  0  0  0  0  0
  160.4280  213.2750  149.3820 C   0  0  0  0  0  0  0  0  0  0  0  0
  1 30  1  6  0  0  0
  1 15  1  0  0  0  0
  2  7  1  0  0  0  0
  3  1  1  1  0  0  0
  3  4  1  0  0  0  0
  5 10  1  6  0  0  0
  5  8  1  0  0  0  0
  6  5  1  0  0  0  0
  6  3  1  0  0  0  0
  8  2  1  6  0  0  0
  8  4  1  0  0  0  0
  8  7  1  0  0  0  0
  9 13  1  0  0  0  0
 11  9  2  0  0  0  0
 11 12  1  0  0  0  0
 12 10  2  0  0  0  0
 13 10  1  0  0  0  0
 14 17  1  0  0  0  0
 15 14  2  0  0  0  0
 17 18  2  0  0  0  0
 17 20  1  0  0  0  0
 18 21  1  0  0  0  0
 19 16  1  0  0  0  0
 20 19  2  0  0  0  0
 21 22  1  0  0  0  0
 21 16  2  0  0  0  0
 22 23  1  6  0  0  0
 22 26  1  0  0  0  0
 23 24  2  0  0  0  0
 25 23  1  0  0  0  0
 26 27  2  0  0  0  0
 29 28  1  0  0  0  0
 29 26  1  0  0  0  0
 32 35  1  0  0  0  0
 32 30  1  1  0  0  0
 34 31  1  6  0  0  0
 34 32  1  0  0  0  0
 34 35  1  0  0  0  0
 35 33  1  1  0  0  0
 35 37  1  0  0  0  0
 37 36  3  0  0  0  0
M  END
>  <MODEL>
6

>  <REMARK>
 VINA RESULT:      -6.3      2.889      8.493
  Name = 
  11 active torsions:
  status: ('A' for Active; 'I' for Inactive)
    1  A    between atoms: C_3  and  C_12
    2  A    between atoms: C_5  and  C_11
    3  A    between atoms: O_7  and  C_29
    4  A    between atoms: C_8  and  N_25
    5  A    between atoms: C_11  and  O_23
    6  A    between atoms: C_11  and  N_26
    7  A    between atoms: C_12  and  C_29
    8  A    between atoms: C_12  and  C_30
    9  A    between atoms: C_13  and  C_18
   10  A    between atoms: C_16  and  O_23
   11  A    between atoms: C_33  and  C_35
                            x       y       z     vdW  Elec       q    Type
                         _______ _______ _______ _____ _____    ______ ____

>  <TORSDO>
F 11

$$$$
=
 OpenBabel11072410133D

 37 41  0  0  1  0  0  0  0  0999 V2000
  161.4300  209.2620  149.8960 C   0  0  2  0  0  3  0  0  0  0  0  0
  161.9190  211.0400  154.4970 C   0  0  0  0  0  2  0  0  0  0  0  0
  161.6400  208.9690  151.3780 C   0  0  1  0  0  3  0  0  0  0  0  0
  162.3140  210.1430  152.0690 C   0  0  0  0  0  2  0  0  0  0  0  0
  160.4230  209.2120  153.3000 C   0  0  2  0  0  3  0  0  0  0  0  0
  160.4100  208.6410  152.0100 O   0  0  0  0  0  0  0  0  0  0  0  0
  161.0290  211.5000  153.5090 O   0  0  0  0  0  0  0  0  0  0  0  0
  161.5470  210.2040  153.3340 C   0  0  1  0  0  0  0  0  0  0  0  0
  161.1830  206.2010  155.1400 N   0  0  0  0  0  0  0  0  0  0  0  0
  160.5870  208.1450  154.3400 C   0  0  0  0  0  0  0  0  0  0  0  0
  160.6180  206.9540  156.2520 C   0  0  0  0  0  2  0  0  0  0  0  0
  160.2460  208.2560  155.6150 C   0  0  0  0  0  3  0  0  0  0  0  0
  161.1580  206.8800  154.0700 N   0  0  0  0  0  0  0  0  0  0  0  0
  161.0240  207.2340  148.7390 N   0  0  0  0  0  0  0  0  0  0  0  0
  161.8580  208.1300  149.0860 N   0  0  0  0  0  0  0  0  0  0  0  0
  162.1610  203.8880  146.4160 C   0  0  0  0  0  3  0  0  0  0  0  0
  161.4150  206.1140  147.9430 C   0  0  0  0  0  0  0  0  0  0  0  0
  161.2210  204.8220  148.4430 C   0  0  0  0  0  3  0  0  0  0  0  0
  162.3580  205.1760  145.9120 C   0  0  0  0  0  3  0  0  0  0  0  0
  161.9860  206.2870  146.6730 C   0  0  0  0  0  3  0  0  0  0  0  0
  161.5900  203.7060  147.6850 C   0  0  0  0  0  0  0  0  0  0  0  0
  161.3680  202.3350  148.2570 C   0  0  1  0  0  3  0  0  0  0  0  0
  160.4540  202.3400  149.4480 C   0  0  0  0  0  0  0  0  0  0  0  0
  159.3340  201.8530  149.3820 O   0  0  0  0  0  0  0  0  0  0  0  0
  160.9130  202.9610  150.7220 C   0  0  0  0  0  1  0  0  0  0  0  0
  160.9620  201.3300  147.2230 C   0  0  0  0  0  0  0  0  0  0  0  0
  161.5180  200.1960  147.1800 O   0  0  0  0  0  0  0  0  0  0  0  0
  160.0750  201.3400  144.9280 C   0  0  0  0  0  1  0  0  0  0  0  0
  159.9670  201.6690  146.3050 O   0  0  0  0  0  0  0  0  0  0  0  0
  162.1530  210.4020  149.5350 O   0  0  0  0  0  0  0  0  0  0  0  0
  160.0010  213.3140  149.1760 C   0  0  0  0  0  1  0  0  0  0  0  0
  161.2450  211.1980  148.8300 C   0  0  1  0  0  3  0  0  0  0  0  0
  161.2530  212.6280  146.8330 O   0  0  0  0  0  1  0  0  0  0  0  0
  161.3590  212.6430  149.3160 C   0  0  1  0  0  3  0  0  0  0  0  0
  161.9540  212.2370  147.9760 C   0  0  1  0  0  0  0  0  0  0  0  0
  164.5750  212.1610  147.8220 N   0  0  0  0  0  0  0  0  0  0  0  0
  163.4200  212.1990  147.8890 C   0  0  0  0  0  0  0  0  0  0  0  0
  1 15  1  6  0  0  0
  3  1  1  6  0  0  0
  3  6  1  0  0  0  0
  3  4  1  0  0  0  0
  5  8  1  0  0  0  0
  5 10  1  1  0  0  0
  6  5  1  0  0  0  0
  7  2  1  0  0  0  0
  8  4  1  6  0  0  0
  8  7  1  0  0  0  0
  8  2  1  0  0  0  0
  9 11  1  0  0  0  0
 10 12  2  0  0  0  0
 12 11  1  0  0  0  0
 13 10  1  0  0  0  0
 13  9  2  0  0  0  0
 14 15  2  0  0  0  0
 16 21  1  0  0  0  0
 17 18  1  0  0  0  0
 17 14  1  0  0  0  0
 19 16  2  0  0  0  0
 19 20  1  0  0  0  0
 20 17  2  0  0  0  0
 21 22  1  0  0  0  0
 21 18  2  0  0  0  0
 22 26  1  6  0  0  0
 22 23  1  0  0  0  0
 23 25  1  0  0  0  0
 24 23  2  0  0  0  0
 27 26  2  0  0  0  0
 28 29  1  0  0  0  0
 29 26  1  0  0  0  0
 30  1  1  0  0  0  0
 32 34  1  0  0  0  0
 32 30  1  1  0  0  0
 34 31  1  6  0  0  0
 35 33  1  6  0  0  0
 35 32  1  0  0  0  0
 35 34  1  0  0  0  0
 36 37  3  0  0  0  0
 37 35  1  0  0  0  0
M  END
>  <MODEL>
7

>  <REMARK>
 VINA RESULT:      -6.2      3.120      6.462
  Name = 
  11 active torsions:
  status: ('A' for Active; 'I' for Inactive)
    1  A    between atoms: C_3  and  C_12
    2  A    between atoms: C_5  and  C_11
    3  A    between atoms: O_7  and  C_29
    4  A    between atoms: C_8  and  N_25
    5  A    between atoms: C_11  and  O_23
    6  A    between atoms: C_11  and  N_26
    7  A    between atoms: C_12  and  C_29
    8  A    between atoms: C_12  and  C_30
    9  A    between atoms: C_13  and  C_18
   10  A    between atoms: C_16  and  O_23
   11  A    between atoms: C_33  and  C_35
                            x       y       z     vdW  Elec       q    Type
                         _______ _______ _______ _____ _____    ______ ____

>  <TORSDO>
F 11

$$$$
=
 OpenBabel11072410133D

 37 41  0  0  1  0  0  0  0  0999 V2000
  162.2360  210.8450  149.5560 C   0  0  2  0  0  3  0  0  0  0  0  0
  159.5400  214.1830  147.0750 C   0  0  0  0  0  2  0  0  0  0  0  0
  161.8020  211.4090  148.2080 C   0  0  1  0  0  3  0  0  0  0  0  0
  160.4280  212.0520  148.3080 C   0  0  0  0  0  2  0  0  0  0  0  0
  162.0640  213.3820  147.0780 C   0  0  2  0  0  3  0  0  0  0  0  0
  162.7630  212.3320  147.7100 O   0  0  0  0  0  0  0  0  0  0  0  0
  160.2710  214.4050  148.2570 O   0  0  0  0  0  0  0  0  0  0  0  0
  160.6290  213.2750  147.4990 C   0  0  1  0  0  0  0  0  0  0  0  0
  161.6430  212.7940  143.5430 N   0  0  0  0  0  0  0  0  0  0  0  0
  162.2190  213.2910  145.5910 C   0  0  0  0  0  0  0  0  0  0  0  0
  162.9410  213.4500  143.4630 C   0  0  0  0  0  3  0  0  0  0  0  0
  163.2480  213.7520  144.8960 C   0  0  0  0  0  3  0  0  0  0  0  0
  161.2490  212.7080  144.7440 N   0  0  0  0  0  2  0  0  0  0  0  0
  161.9950  208.6360  148.7340 N   0  0  0  0  0  0  0  0  0  0  0  0
  161.8150  209.4580  149.6890 N   0  0  0  0  0  0  0  0  0  0  0  0
  160.8210  204.5810  148.9920 C   0  0  0  0  0  3  0  0  0  0  0  0
  161.5930  207.2690  148.8370 C   0  0  0  0  0  0  0  0  0  0  0  0
  161.6010  206.4680  147.6910 C   0  0  0  0  0  3  0  0  0  0  0  0
  160.8100  205.3760  150.1410 C   0  0  0  0  0  3  0  0  0  0  0  0
  161.1950  206.7170  150.0650 C   0  0  0  0  0  3  0  0  0  0  0  0
  161.2180  205.1240  147.7610 C   0  0  0  0  0  0  0  0  0  0  0  0
  161.2380  204.2970  146.5080 C   0  0  1  0  0  3  0  0  0  0  0  0
  162.3950  204.6260  145.6090 C   0  0  0  0  0  0  0  0  0  0  0  0
  162.2130  205.1050  144.4990 O   0  0  0  0  0  0  0  0  0  0  0  0
  163.7840  204.3490  146.0730 C   0  0  0  0  0  1  0  0  0  0  0  0
  161.1150  202.8280  146.7760 C   0  0  0  0  0  0  0  0  0  0  0  0
  160.5690  202.0670  145.9280 O   0  0  0  0  0  0  0  0  0  0  0  0
  161.5450  200.9320  148.2830 C   0  0  0  0  0  1  0  0  0  0  0  0
  161.6040  202.3170  147.9780 O   0  0  0  0  0  0  0  0  0  0  0  0
  161.6800  211.6090  150.5870 O   0  0  0  0  0  0  0  0  0  0  0  0
  161.5520  209.7780  153.7280 C   0  0  0  0  0  1  0  0  0  0  0  0
  161.1120  210.6780  151.4600 C   0  0  1  0  0  3  0  0  0  0  0  0
  159.0630  210.4570  152.7970 O   0  0  0  0  0  1  0  0  0  0  0  0
  161.4740  211.0510  152.8990 C   0  0  1  0  0  3  0  0  0  0  0  0
  160.0740  211.3200  152.3670 C   0  0  1  0  0  0  0  0  0  0  0  0
  159.4270  213.8350  151.9740 N   0  0  0  0  0  0  0  0  0  0  0  0
  159.7120  212.7260  152.1420 C   0  0  0  0  0  0  0  0  0  0  0  0
  1 15  1  1  0  0  0
  1 30  1  0  0  0  0
  2  7  1  0  0  0  0
  3  4  1  0  0  0  0
  3  1  1  1  0  0  0
  5 10  1  6  0  0  0
  5  8  1  0  0  0  0
  5  6  1  0  0  0  0
  6  3  1  0  0  0  0
  8  2  1  6  0  0  0
  8  7  1  0  0  0  0
  8  4  1  0  0  0  0
  9 13  1  0  0  0  0
 11  9  2  0  0  0  0
 11 12  1  0  0  0  0
 12 10  2  0  0  0  0
 13 10  1  0  0  0  0
 14 17  1  0  0  0  0
 14 15  2  0  0  0  0
 16 19  1  0  0  0  0
 17 20  1  0  0  0  0
 18 21  1  0  0  0  0
 18 17  2  0  0  0  0
 20 19  2  0  0  0  0
 21 16  2  0  0  0  0
 22 23  1  1  0  0  0
 22 26  1  0  0  0  0
 22 21  1  0  0  0  0
 23 25  1  0  0  0  0
 24 23  2  0  0  0  0
 26 29  1  0  0  0  0
 27 26  2  0  0  0  0
 29 28  1  0  0  0  0
 32 30  1  6  0  0  0
 32 35  1  0  0  0  0
 32 34  1  0  0  0  0
 34 31  1  1  0  0  0
 35 33  1  1  0  0  0
 35 34  1  0  0  0  0
 36 37  3  0  0  0  0
 37 35  1  0  0  0  0
M  END
>  <MODEL>
8

>  <REMARK>
 VINA RESULT:      -6.2      3.195      4.302
  Name = 
  11 active torsions:
  status: ('A' for Active; 'I' for Inactive)
    1  A    between atoms: C_3  and  C_12
    2  A    between atoms: C_5  and  C_11
    3  A    between atoms: O_7  and  C_29
    4  A    between atoms: C_8  and  N_25
    5  A    between atoms: C_11  and  O_23
    6  A    between atoms: C_11  and  N_26
    7  A    between atoms: C_12  and  C_29
    8  A    between atoms: C_12  and  C_30
    9  A    between atoms: C_13  and  C_18
   10  A    between atoms: C_16  and  O_23
   11  A    between atoms: C_33  and  C_35
                            x       y       z     vdW  Elec       q    Type
                         _______ _______ _______ _____ _____    ______ ____

>  <TORSDO>
F 11

$$$$
=
 OpenBabel11072410133D

 37 41  0  0  1  0  0  0  0  0999 V2000
  160.9250  209.2900  151.2980 C   0  0  2  0  0  3  0  0  0  0  0  0
  162.1910  210.3070  155.9810 C   0  0  0  0  0  2  0  0  0  0  0  0
  160.4750  209.6820  152.7010 C   0  0  1  0  0  3  0  0  0  0  0  0
  161.4500  209.1640  153.7460 C   0  0  0  0  0  2  0  0  0  0  0  0
  160.7590  211.4800  154.0880 C   0  0  2  0  0  3  0  0  0  0  0  0
  160.3120  211.0900  152.8070 O   0  0  0  0  0  0  0  0  0  0  0  0
  162.8820  210.7020  154.8200 O   0  0  0  0  0  0  0  0  0  0  0  0
  161.5350  210.3290  154.6550 C   0  0  1  0  0  0  0  0  0  0  0  0
  157.7220  211.5420  156.0360 N   0  0  0  0  0  0  0  0  0  0  0  0
  159.5960  211.8530  154.9550 C   0  0  0  0  0  0  0  0  0  0  0  0
  158.1380  212.9120  156.3070 C   0  0  0  0  0  2  0  0  0  0  0  0
  159.4160  213.0280  155.5370 C   0  0  0  0  0  3  0  0  0  0  0  0
  158.5480  210.9580  155.2730 N   0  0  0  0  0  0  0  0  0  0  0  0
  160.4970  207.0470  150.6630 N   0  0  0  0  0  0  0  0  0  0  0  0
  161.2670  207.8750  151.2480 N   0  0  0  0  0  0  0  0  0  0  0  0
  161.4290  202.9290  150.4190 C   0  0  0  0  0  3  0  0  0  0  0  0
  160.8080  205.6540  150.5970 C   0  0  0  0  0  0  0  0  0  0  0  0
  161.0970  205.0790  149.3560 C   0  0  0  0  0  3  0  0  0  0  0  0
  161.1410  203.4980  151.6620 C   0  0  0  0  0  3  0  0  0  0  0  0
  160.8310  204.8570  151.7520 C   0  0  0  0  0  3  0  0  0  0  0  0
  161.4100  203.7190  149.2590 C   0  0  0  0  0  0  0  0  0  0  0  0
  161.7120  203.1380  147.9080 C   0  0  1  0  0  3  0  0  0  0  0  0
  160.7220  202.0880  147.4900 C   0  0  0  0  0  0  0  0  0  0  0  0
  159.8380  201.7200  148.2500 O   0  0  0  0  0  0  0  0  0  0  0  0
  160.8310  201.4770  146.1360 C   0  0  0  0  0  1  0  0  0  0  0  0
  161.9220  204.1830  146.8560 C   0  0  0  0  0  0  0  0  0  0  0  0
  163.0760  204.6480  146.6380 O   0  0  0  0  0  0  0  0  0  0  0  0
  160.7140  205.9900  145.7020 C   0  0  0  0  0  1  0  0  0  0  0  0
  160.8230  204.6400  146.1280 O   0  0  0  0  0  0  0  0  0  0  0  0
  162.0330  210.0580  150.9280 O   0  0  0  0  0  0  0  0  0  0  0  0
  162.4000  212.8610  148.6370 C   0  0  0  0  0  1  0  0  0  0  0  0
  161.5500  210.9440  149.9610 C   0  0  1  0  0  3  0  0  0  0  0  0
  160.8310  210.8560  147.6140 O   0  0  0  0  0  1  0  0  0  0  0  0
  162.7190  211.4530  149.1160 C   0  0  1  0  0  3  0  0  0  0  0  0
  161.7640  210.4110  148.5540 C   0  0  1  0  0  0  0  0  0  0  0  0
  162.7080  207.9770  148.2610 N   0  0  0  0  0  0  0  0  0  0  0  0
  162.2950  209.0510  148.3860 C   0  0  0  0  0  0  0  0  0  0  0  0
  1 30  1  1  0  0  0
  3  1  1  6  0  0  0
  3  6  1  0  0  0  0
  3  4  1  0  0  0  0
  5  8  1  0  0  0  0
  5 10  1  1  0  0  0
  6  5  1  0  0  0  0
  7  2  1  0  0  0  0
  8  4  1  6  0  0  0
  8  7  1  0  0  0  0
  8  2  1  0  0  0  0
  9 11  1  0  0  0  0
 10 13  1  0  0  0  0
 10 12  2  0  0  0  0
 12 11  1  0  0  0  0
 13  9  2  0  0  0  0
 14 15  2  0  0  0  0
 15  1  1  0  0  0  0
 16 19  1  0  0  0  0
 17 14  1  0  0  0  0
 17 20  1  0  0  0  0
 18 17  2  0  0  0  0
 19 20  2  0  0  0  0
 21 18  1  0  0  0  0
 21 16  2  0  0  0  0
 22 26  1  6  0  0  0
 22 21  1  0  0  0  0
 23 22  1  0  0  0  0
 23 24  2  0  0  0  0
 25 23  1  0  0  0  0
 27 26  2  0  0  0  0
 28 29  1  0  0  0  0
 29 26  1  0  0  0  0
 32 30  1  1  0  0  0
 34 31  1  6  0  0  0
 34 32  1  0  0  0  0
 35 33  1  6  0  0  0
 35 34  1  0  0  0  0
 35 32  1  0  0  0  0
 36 37  3  0  0  0  0
 37 35  1  0  0  0  0
M  END
>  <MODEL>
9

>  <REMARK>
 VINA RESULT:      -6.2      2.765      5.452
  Name = 
  11 active torsions:
  status: ('A' for Active; 'I' for Inactive)
    1  A    between atoms: C_3  and  C_12
    2  A    between atoms: C_5  and  C_11
    3  A    between atoms: O_7  and  C_29
    4  A    between atoms: C_8  and  N_25
    5  A    between atoms: C_11  and  O_23
    6  A    between atoms: C_11  and  N_26
    7  A    between atoms: C_12  and  C_29
    8  A    between atoms: C_12  and  C_30
    9  A    between atoms: C_13  and  C_18
   10  A    between atoms: C_16  and  O_23
   11  A    between atoms: C_33  and  C_35
                            x       y       z     vdW  Elec       q    Type
                         _______ _______ _______ _____ _____    ______ ____

>  <TORSDO>
F 11

$$$$
