=
 OpenBabel11072411293D

 35 41  0  0  1  0  0  0  0  0999 V2000
  161.6560  207.1080  150.6600 C   0  0  1  0  0  0  0  0  0  0  0  0
  161.3680  205.9710  153.1220 N   0  0  0  0  0  2  0  0  0  0  0  0
  161.8000  208.5820  150.4720 C   0  0  0  0  0  2  0  0  0  0  0  0
  161.0200  208.2020  154.0730 C   0  0  0  0  0  0  0  0  0  0  0  0
  161.3090  206.6560  152.0450 C   0  0  1  0  0  3  0  0  0  0  0  0
  160.8300  208.0080  151.4790 C   0  0  2  0  0  0  0  0  0  0  0  0
  160.8830  206.6890  154.2980 C   0  0  0  0  0  2  0  0  0  0  0  0
  161.0460  208.7800  152.7950 C   0  0  0  0  0  0  0  0  0  0  0  0
  161.0260  209.1530  155.0240 N   0  0  0  0  0  0  0  0  0  0  0  0
  161.0220  210.1150  152.9880 N   0  0  0  0  0  0  0  0  0  0  0  0
  161.0270  210.3150  154.3270 C   0  0  0  0  0  3  0  0  0  0  0  0
  160.0670  213.0220  150.9900 C   0  0  1  0  0  3  0  0  0  0  0  0
  157.5230  214.1990  152.5220 O   0  0  0  0  0  1  0  0  0  0  0  0
  161.5720  211.2680  150.8010 C   0  0  0  0  0  3  0  0  0  0  0  0
  159.9690  212.2920  152.2630 C   0  0  2  0  0  3  0  0  0  0  0  0
  157.7950  213.1650  151.6220 C   0  0  1  0  0  3  0  0  0  0  0  0
  158.0710  211.8770  153.6620 O   0  0  0  0  0  1  0  0  0  0  0  0
  160.9900  212.4940  150.1810 C   0  0  0  0  0  0  0  0  0  0  0  0
  158.7870  213.6710  150.5760 C   0  0  2  0  0  3  0  0  0  0  0  0
  160.8050  211.1250  152.0320 N   0  0  0  0  0  0  0  0  0  0  0  0
  158.4860  211.9860  152.3330 C   0  0  2  0  0  3  0  0  0  0  0  0
  158.3790  213.2160  149.3340 F   0  0  0  0  0  0  0  0  0  0  0  0
  161.1530  212.8450  148.7330 C   0  0  0  0  0  2  0  0  0  0  0  0
  163.3790  212.5620  147.9080 O   0  0  0  0  0  1  0  0  0  0  0  0
  162.1500  211.9190  148.0550 C   0  0  0  0  0  2  0  0  0  0  0  0
  160.7800  206.5090  149.6640 N   0  0  0  0  0  2  0  0  0  0  0  0
  160.7580  202.7350  149.2760 C   0  0  0  0  0  3  0  0  0  0  0  0
  161.3210  202.2170  147.9900 C   0  0  2  0  0  3  0  0  0  0  0  0
  161.6200  205.3640  147.7890 C   0  0  0  0  0  3  0  0  0  0  0  0
  161.0650  205.2710  149.0040 C   0  0  0  0  0  0  0  0  0  0  0  0
  161.2330  202.4580  145.6330 F   0  0  0  0  0  0  0  0  0  0  0  0
  162.0650  204.2520  146.8990 C   0  0  0  0  0  2  0  0  0  0  0  0
  160.6800  204.0060  149.6870 C   0  0  0  0  0  3  0  0  0  0  0  0
  161.0460  203.1420  146.8210 C   0  0  2  0  0  3  0  0  0  0  0  0
  160.7940  200.9620  147.7480 F   0  0  0  0  0  0  0  0  0  0  0  0
  1 26  1  6  0  0  0
  1  6  1  0  0  0  0
  1  5  1  0  0  0  0
  2  7  1  0  0  0  0
  3  1  1  0  0  0  0
  4  7  1  0  0  0  0
  4  9  1  0  0  0  0
  5  2  1  1  0  0  0
  6  3  1  1  0  0  0
  6  5  1  0  0  0  0
  6  8  1  0  0  0  0
  8 10  1  0  0  0  0
  8  4  2  0  0  0  0
 10 11  1  0  0  0  0
 11  9  2  0  0  0  0
 12 18  1  6  0  0  0
 12 15  1  0  0  0  0
 14 20  1  0  0  0  0
 15 20  1  6  0  0  0
 15 21  1  0  0  0  0
 16 21  1  0  0  0  0
 16 13  1  1  0  0  0
 18 14  2  0  0  0  0
 19 22  1  6  0  0  0
 19 12  1  0  0  0  0
 19 16  1  0  0  0  0
 20 10  1  0  0  0  0
 21 17  1  1  0  0  0
 23 18  1  0  0  0  0
 24 25  1  0  0  0  0
 25 23  1  0  0  0  0
 27 33  2  0  0  0  0
 28 35  1  6  0  0  0
 28 27  1  0  0  0  0
 29 30  2  0  0  0  0
 30 26  1  0  0  0  0
 30 33  1  0  0  0  0
 32 29  1  0  0  0  0
 34 31  1  6  0  0  0
 34 32  1  0  0  0  0
 34 28  1  0  0  0  0
M  END
>  <MODEL>
1

>  <REMARK>
 VINA RESULT:      -9.1      0.000      0.000
  Name = 
  5 active torsions:
  status: ('A' for Active; 'I' for Inactive)
    1  A    between atoms: C_3  and  N_4
    2  A    between atoms: N_4  and  C_19
    3  A    between atoms: C_18  and  C_31
    4  A    between atoms: N_23  and  N_34
    5  A    between atoms: C_24  and  C_31
                            x       y       z     vdW  Elec       q    Type
                         _______ _______ _______ _____ _____    ______ ____

>  <TORSDO>
F 5

$$$$
=
 OpenBabel11072411293D

 35 41  0  0  1  0  0  0  0  0999 V2000
  161.8780  207.9560  150.6580 C   0  0  1  0  0  0  0  0  0  0  0  0
  161.9000  206.0810  152.6380 N   0  0  0  0  0  2  0  0  0  0  0  0
  161.7000  209.4120  150.9370 C   0  0  0  0  0  2  0  0  0  0  0  0
  161.1070  207.7840  154.2110 C   0  0  0  0  0  0  0  0  0  0  0  0
  161.6690  207.0370  151.8210 C   0  0  1  0  0  3  0  0  0  0  0  0
  160.9000  208.3650  151.6760 C   0  0  2  0  0  0  0  0  0  0  0  0
  161.3020  206.2830  153.9550 C   0  0  0  0  0  2  0  0  0  0  0  0
  160.9780  208.7200  153.1730 C   0  0  0  0  0  0  0  0  0  0  0  0
  160.9330  208.3740  155.4070 N   0  0  0  0  0  0  0  0  0  0  0  0
  160.6730  209.8940  153.7660 N   0  0  0  0  0  0  0  0  0  0  0  0
  160.6690  209.6680  155.1000 C   0  0  0  0  0  3  0  0  0  0  0  0
  159.1790  213.0800  152.7780 C   0  0  1  0  0  3  0  0  0  0  0  0
  156.8520  213.5270  154.9200 O   0  0  0  0  0  1  0  0  0  0  0  0
  160.7570  211.6170  151.9110 C   0  0  0  0  0  3  0  0  0  0  0  0
  159.3540  212.0460  153.8090 C   0  0  2  0  0  3  0  0  0  0  0  0
  157.0440  212.7940  153.7470 C   0  0  1  0  0  3  0  0  0  0  0  0
  157.7570  211.0730  155.3060 O   0  0  0  0  0  1  0  0  0  0  0  0
  159.9890  212.8840  151.7330 C   0  0  0  0  0  0  0  0  0  0  0  0
  157.8030  213.6580  152.7430 C   0  0  2  0  0  3  0  0  0  0  0  0
  160.2230  211.0800  153.1560 N   0  0  0  0  0  0  0  0  0  0  0  0
  157.9320  211.5620  154.0090 C   0  0  2  0  0  3  0  0  0  0  0  0
  157.2250  213.4880  151.4970 F   0  0  0  0  0  0  0  0  0  0  0  0
  159.8760  213.6050  150.4240 C   0  0  0  0  0  2  0  0  0  0  0  0
  161.6050  214.0840  148.8430 O   0  0  0  0  0  1  0  0  0  0  0  0
  160.8600  213.0490  149.4070 C   0  0  0  0  0  2  0  0  0  0  0  0
  161.1270  207.5230  149.4890 N   0  0  0  0  0  2  0  0  0  0  0  0
  160.9810  203.7930  148.8140 C   0  0  0  0  0  3  0  0  0  0  0  0
  161.6320  203.3430  147.5450 C   0  0  2  0  0  3  0  0  0  0  0  0
  162.0790  206.4780  147.6100 C   0  0  0  0  0  3  0  0  0  0  0  0
  161.4160  206.3240  148.7630 C   0  0  0  0  0  0  0  0  0  0  0  0
  161.7610  203.7570  145.2140 F   0  0  0  0  0  0  0  0  0  0  0  0
  162.5540  205.4130  146.6780 C   0  0  0  0  0  2  0  0  0  0  0  0
  160.9200  205.0330  149.3130 C   0  0  0  0  0  3  0  0  0  0  0  0
  161.4990  204.3610  146.4310 C   0  0  2  0  0  3  0  0  0  0  0  0
  161.0760  202.1350  147.1640 F   0  0  0  0  0  0  0  0  0  0  0  0
  1 26  1  6  0  0  0
  1  3  1  0  0  0  0
  1  6  1  0  0  0  0
  1  5  1  0  0  0  0
  2  7  1  0  0  0  0
  4  9  1  0  0  0  0
  5  2  1  1  0  0  0
  6  3  1  1  0  0  0
  6  5  1  0  0  0  0
  6  8  1  0  0  0  0
  7  4  1  0  0  0  0
  8 10  1  0  0  0  0
  8  4  2  0  0  0  0
 10 11  1  0  0  0  0
 11  9  2  0  0  0  0
 12 18  1  6  0  0  0
 12 15  1  0  0  0  0
 14 20  1  0  0  0  0
 15 20  1  6  0  0  0
 15 21  1  0  0  0  0
 16 21  1  0  0  0  0
 16 13  1  1  0  0  0
 18 14  2  0  0  0  0
 19 22  1  6  0  0  0
 19 12  1  0  0  0  0
 19 16  1  0  0  0  0
 20 10  1  0  0  0  0
 21 17  1  1  0  0  0
 23 18  1  0  0  0  0
 24 25  1  0  0  0  0
 25 23  1  0  0  0  0
 27 33  2  0  0  0  0
 28 35  1  6  0  0  0
 28 27  1  0  0  0  0
 29 30  2  0  0  0  0
 30 33  1  0  0  0  0
 30 26  1  0  0  0  0
 32 29  1  0  0  0  0
 34 31  1  6  0  0  0
 34 32  1  0  0  0  0
 34 28  1  0  0  0  0
M  END
>  <MODEL>
2

>  <REMARK>
 VINA RESULT:      -8.8      1.288      1.534
  Name = 
  5 active torsions:
  status: ('A' for Active; 'I' for Inactive)
    1  A    between atoms: C_3  and  N_4
    2  A    between atoms: N_4  and  C_19
    3  A    between atoms: C_18  and  C_31
    4  A    between atoms: N_23  and  N_34
    5  A    between atoms: C_24  and  C_31
                            x       y       z     vdW  Elec       q    Type
                         _______ _______ _______ _____ _____    ______ ____

>  <TORSDO>
F 5

$$$$
=
 OpenBabel11072411293D

 35 41  0  0  1  0  0  0  0  0999 V2000
  161.7090  207.2180  150.1560 C   0  0  1  0  0  0  0  0  0  0  0  0
  161.6890  204.8320  151.4750 N   0  0  0  0  0  2  0  0  0  0  0  0
  161.6900  208.5280  150.8720 C   0  0  0  0  0  2  0  0  0  0  0  0
  161.1740  206.0230  153.5520 C   0  0  0  0  0  0  0  0  0  0  0  0
  161.4940  206.0040  151.0070 C   0  0  1  0  0  3  0  0  0  0  0  0
  160.8470  207.3630  151.3380 C   0  0  2  0  0  0  0  0  0  0  0  0
  161.2060  204.6620  152.8430 C   0  0  0  0  0  2  0  0  0  0  0  0
  161.0630  207.2380  152.8590 C   0  0  0  0  0  0  0  0  0  0  0  0
  161.1410  206.2310  154.8800 N   0  0  0  0  0  0  0  0  0  0  0  0
  160.9140  208.1940  153.8000 N   0  0  0  0  0  0  0  0  0  0  0  0
  160.9810  207.5720  155.0000 C   0  0  0  0  0  3  0  0  0  0  0  0
  160.2790  211.7910  153.9130 C   0  0  1  0  0  3  0  0  0  0  0  0
  160.9260  212.5850  156.9380 O   0  0  0  0  0  1  0  0  0  0  0  0
  159.9710  210.0720  152.3860 C   0  0  0  0  0  3  0  0  0  0  0  0
  160.8960  210.6090  154.5340 C   0  0  2  0  0  3  0  0  0  0  0  0
  159.8670  212.0130  156.2280 C   0  0  1  0  0  3  0  0  0  0  0  0
  160.9870  209.9440  156.8330 O   0  0  0  0  0  1  0  0  0  0  0  0
  159.8010  211.5220  152.6940 C   0  0  0  0  0  0  0  0  0  0  0  0
  159.7060  212.7530  154.9010 C   0  0  2  0  0  3  0  0  0  0  0  0
  160.5380  209.5370  153.6180 N   0  0  0  0  0  0  0  0  0  0  0  0
  160.1780  210.5480  155.8670 C   0  0  2  0  0  3  0  0  0  0  0  0
  158.3560  212.9520  154.6750 F   0  0  0  0  0  0  0  0  0  0  0  0
  158.9010  212.4320  151.9140 C   0  0  0  0  0  2  0  0  0  0  0  0
  160.4660  212.8730  150.1590 O   0  0  0  0  0  1  0  0  0  0  0  0
  159.7040  213.4790  151.1580 C   0  0  0  0  0  2  0  0  0  0  0  0
  160.8400  207.2160  148.9880 N   0  0  0  0  0  2  0  0  0  0  0  0
  160.4730  206.2030  145.3510 C   0  0  0  0  0  3  0  0  0  0  0  0
  161.2350  204.9820  144.9430 C   0  0  2  0  0  3  0  0  0  0  0  0
  161.8690  205.3330  148.0260 C   0  0  0  0  0  3  0  0  0  0  0  0
  161.0490  206.3770  147.8490 C   0  0  0  0  0  0  0  0  0  0  0  0
  163.3690  203.9520  145.0130 F   0  0  0  0  0  0  0  0  0  0  0  0
  162.2290  204.2730  147.0400 C   0  0  0  0  0  2  0  0  0  0  0  0
  160.3920  206.7540  146.5680 C   0  0  0  0  0  3  0  0  0  0  0  0
  162.5520  204.8460  145.6810 C   0  0  2  0  0  3  0  0  0  0  0  0
  161.4490  205.0270  143.5770 F   0  0  0  0  0  0  0  0  0  0  0  0
  1 26  1  6  0  0  0
  1  3  1  0  0  0  0
  1  5  1  0  0  0  0
  1  6  1  0  0  0  0
  2  7  1  0  0  0  0
  4  9  1  0  0  0  0
  5  6  1  0  0  0  0
  5  2  1  1  0  0  0
  6  3  1  1  0  0  0
  6  8  1  0  0  0  0
  7  4  1  0  0  0  0
  8  4  2  0  0  0  0
  8 10  1  0  0  0  0
  9 11  2  0  0  0  0
 10 11  1  0  0  0  0
 12 18  1  6  0  0  0
 12 15  1  0  0  0  0
 12 19  1  0  0  0  0
 14 18  2  0  0  0  0
 14 20  1  0  0  0  0
 15 20  1  6  0  0  0
 15 21  1  0  0  0  0
 16 13  1  6  0  0  0
 19 22  1  6  0  0  0
 19 16  1  0  0  0  0
 20 10  1  0  0  0  0
 21 16  1  0  0  0  0
 21 17  1  1  0  0  0
 23 18  1  0  0  0  0
 24 25  1  0  0  0  0
 25 23  1  0  0  0  0
 27 33  2  0  0  0  0
 28 35  1  6  0  0  0
 28 27  1  0  0  0  0
 28 34  1  0  0  0  0
 30 29  2  0  0  0  0
 30 26  1  0  0  0  0
 32 29  1  0  0  0  0
 33 30  1  0  0  0  0
 34 31  1  6  0  0  0
 34 32  1  0  0  0  0
M  END
>  <MODEL>
3

>  <REMARK>
 VINA RESULT:      -7.8      2.355      3.339
  Name = 
  5 active torsions:
  status: ('A' for Active; 'I' for Inactive)
    1  A    between atoms: C_3  and  N_4
    2  A    between atoms: N_4  and  C_19
    3  A    between atoms: C_18  and  C_31
    4  A    between atoms: N_23  and  N_34
    5  A    between atoms: C_24  and  C_31
                            x       y       z     vdW  Elec       q    Type
                         _______ _______ _______ _____ _____    ______ ____

>  <TORSDO>
F 5

$$$$
=
 OpenBabel11072411293D

 35 41  0  0  1  0  0  0  0  0999 V2000
  158.3860  212.8690  153.1000 C   0  0  1  0  0  0  0  0  0  0  0  0
  158.9930  213.7690  155.6020 N   0  0  0  0  0  2  0  0  0  0  0  0
  158.7580  211.5010  152.6300 C   0  0  0  0  0  2  0  0  0  0  0  0
  160.4440  211.8200  155.9130 C   0  0  0  0  0  0  0  0  0  0  0  0
  158.9600  213.2860  154.4190 C   0  0  1  0  0  3  0  0  0  0  0  0
  159.7060  212.3320  153.4650 C   0  0  2  0  0  0  0  0  0  0  0  0
  160.0620  213.2150  156.4280 C   0  0  0  0  0  2  0  0  0  0  0  0
  160.2310  211.4160  154.5860 C   0  0  0  0  0  0  0  0  0  0  0  0
  161.1020  210.8680  156.5990 N   0  0  0  0  0  0  0  0  0  0  0  0
  160.8190  210.2080  154.4650 N   0  0  0  0  0  0  0  0  0  0  0  0
  161.3180  209.8920  155.6830 C   0  0  0  0  0  3  0  0  0  0  0  0
  161.2130  207.8150  151.7310 C   0  0  1  0  0  3  0  0  0  0  0  0
  160.7960  204.9760  153.1350 O   0  0  0  0  0  1  0  0  0  0  0  0
  161.4950  210.0980  152.0260 C   0  0  0  0  0  3  0  0  0  0  0  0
  160.7390  208.0880  153.0960 C   0  0  2  0  0  3  0  0  0  0  0  0
  161.8210  205.9160  152.9970 C   0  0  1  0  0  3  0  0  0  0  0  0
  160.9080  206.7610  155.0820 O   0  0  0  0  0  1  0  0  0  0  0  0
  161.5930  208.9300  151.1020 C   0  0  0  0  0  0  0  0  0  0  0  0
  161.8070  206.4540  151.5680 C   0  0  2  0  0  3  0  0  0  0  0  0
  161.0830  209.4880  153.2840 N   0  0  0  0  0  0  0  0  0  0  0  0
  161.5800  207.1290  153.9150 C   0  0  2  0  0  3  0  0  0  0  0  0
  163.1140  206.5340  151.1190 F   0  0  0  0  0  0  0  0  0  0  0  0
  162.3510  208.9620  149.8090 C   0  0  0  0  0  2  0  0  0  0  0  0
  162.3920  207.3010  148.0880 O   0  0  0  0  0  1  0  0  0  0  0  0
  161.5810  208.2540  148.7050 C   0  0  0  0  0  2  0  0  0  0  0  0
  158.6010  213.8810  152.0770 N   0  0  0  0  0  2  0  0  0  0  0  0
  157.0810  213.1080  148.6880 C   0  0  0  0  0  3  0  0  0  0  0  0
  158.0520  213.0150  147.5530 C   0  0  2  0  0  3  0  0  0  0  0  0
  159.8400  213.6310  150.0940 C   0  0  0  0  0  3  0  0  0  0  0  0
  158.6350  213.5920  150.6750 C   0  0  0  0  0  0  0  0  0  0  0  0
  159.8550  214.1270  146.4880 F   0  0  0  0  0  0  0  0  0  0  0  0
  160.1810  213.3290  148.6720 C   0  0  0  0  0  2  0  0  0  0  0  0
  157.3460  213.3270  149.9810 C   0  0  0  0  0  3  0  0  0  0  0  0
  159.2170  213.9720  147.7060 C   0  0  2  0  0  3  0  0  0  0  0  0
  157.3780  213.2600  146.3700 F   0  0  0  0  0  0  0  0  0  0  0  0
  1 26  1  6  0  0  0
  1  6  1  0  0  0  0
  1  5  1  0  0  0  0
  2  7  1  0  0  0  0
  3  1  1  0  0  0  0
  4  7  1  0  0  0  0
  4  9  1  0  0  0  0
  5  2  1  1  0  0  0
  6  3  1  1  0  0  0
  6  5  1  0  0  0  0
  6  8  1  0  0  0  0
  8  4  2  0  0  0  0
 10  8  1  0  0  0  0
 10 11  1  0  0  0  0
 11  9  2  0  0  0  0
 12 18  1  1  0  0  0
 12 15  1  0  0  0  0
 14 20  1  0  0  0  0
 15 20  1  1  0  0  0
 15 21  1  0  0  0  0
 16 13  1  6  0  0  0
 16 21  1  0  0  0  0
 18 14  2  0  0  0  0
 19 22  1  1  0  0  0
 19 12  1  0  0  0  0
 19 16  1  0  0  0  0
 20 10  1  0  0  0  0
 21 17  1  1  0  0  0
 23 18  1  0  0  0  0
 24 25  1  0  0  0  0
 25 23  1  0  0  0  0
 27 33  2  0  0  0  0
 28 35  1  6  0  0  0
 28 34  1  0  0  0  0
 28 27  1  0  0  0  0
 29 30  2  0  0  0  0
 30 26  1  0  0  0  0
 32 29  1  0  0  0  0
 33 30  1  0  0  0  0
 34 31  1  6  0  0  0
 34 32  1  0  0  0  0
M  END
>  <MODEL>
4

>  <REMARK>
 VINA RESULT:      -7.6      3.550      7.350
  Name = 
  5 active torsions:
  status: ('A' for Active; 'I' for Inactive)
    1  A    between atoms: C_3  and  N_4
    2  A    between atoms: N_4  and  C_19
    3  A    between atoms: C_18  and  C_31
    4  A    between atoms: N_23  and  N_34
    5  A    between atoms: C_24  and  C_31
                            x       y       z     vdW  Elec       q    Type
                         _______ _______ _______ _____ _____    ______ ____

>  <TORSDO>
F 5

$$$$
=
 OpenBabel11072411293D

 35 41  0  0  1  0  0  0  0  0999 V2000
  160.8800  206.9470  150.7820 C   0  0  1  0  0  0  0  0  0  0  0  0
  161.8090  207.9030  148.4040 N   0  0  0  0  0  2  0  0  0  0  0  0
  160.4560  207.8480  151.8960 C   0  0  0  0  0  2  0  0  0  0  0  0
  161.9460  210.1390  149.3950 C   0  0  0  0  0  0  0  0  0  0  0  0
  161.5500  207.6140  149.6210 C   0  0  1  0  0  3  0  0  0  0  0  0
  161.6790  208.1500  151.0610 C   0  0  2  0  0  0  0  0  0  0  0  0
  162.3760  209.2380  148.2290 C   0  0  0  0  0  2  0  0  0  0  0  0
  161.5850  209.6320  150.6530 C   0  0  0  0  0  0  0  0  0  0  0  0
  161.9560  211.4840  149.4110 N   0  0  0  0  0  0  0  0  0  0  0  0
  161.4190  210.7050  151.4540 N   0  0  0  0  0  0  0  0  0  0  0  0
  161.6290  211.8010  150.6880 C   0  0  0  0  0  3  0  0  0  0  0  0
  160.3910  210.8560  154.9580 C   0  0  1  0  0  3  0  0  0  0  0  0
  157.4850  212.1770  154.8450 O   0  0  0  0  0  1  0  0  0  0  0  0
  162.3220  210.3240  153.7900 C   0  0  0  0  0  3  0  0  0  0  0  0
  160.0090  210.9080  153.5390 C   0  0  2  0  0  3  0  0  0  0  0  0
  158.8140  212.6070  154.7980 C   0  0  1  0  0  3  0  0  0  0  0  0
  158.4840  212.3640  152.4040 O   0  0  0  0  0  1  0  0  0  0  0  0
  161.6640  210.4840  155.1190 C   0  0  0  0  0  0  0  0  0  0  0  0
  159.6260  211.8090  155.8160 C   0  0  2  0  0  3  0  0  0  0  0  0
  161.2800  210.7270  152.8550 N   0  0  0  0  0  0  0  0  0  0  0  0
  159.4390  212.3070  153.4220 C   0  0  2  0  0  3  0  0  0  0  0  0
  160.4780  212.6810  156.4710 F   0  0  0  0  0  0  0  0  0  0  0  0
  162.4210  210.5790  156.4100 C   0  0  0  0  0  2  0  0  0  0  0  0
  161.9580  208.2330  156.4460 O   0  0  0  0  0  1  0  0  0  0  0  0
  162.2100  209.3370  157.2610 C   0  0  0  0  0  2  0  0  0  0  0  0
  161.6430  205.8040  151.2600 N   0  0  0  0  0  2  0  0  0  0  0  0
  161.4240  202.0190  151.4150 C   0  0  0  0  0  3  0  0  0  0  0  0
  161.1900  201.3350  150.1060 C   0  0  2  0  0  3  0  0  0  0  0  0
  161.3190  204.4170  149.3890 C   0  0  0  0  0  3  0  0  0  0  0  0
  161.5230  204.4880  150.7100 C   0  0  0  0  0  0  0  0  0  0  0  0
  159.8210  201.3320  148.1700 F   0  0  0  0  0  0  0  0  0  0  0  0
  161.2060  203.1910  148.5440 C   0  0  0  0  0  2  0  0  0  0  0  0
  161.5800  203.3290  151.6420 C   0  0  0  0  0  3  0  0  0  0  0  0
  160.3150  202.1470  149.1730 C   0  0  2  0  0  3  0  0  0  0  0  0
  160.6200  200.0970  150.3470 F   0  0  0  0  0  0  0  0  0  0  0  0
  1  6  1  0  0  0  0
  1 26  1  1  0  0  0
  1  3  1  0  0  0  0
  4  9  1  0  0  0  0
  4  8  2  0  0  0  0
  5  2  1  6  0  0  0
  5  1  1  0  0  0  0
  5  6  1  0  0  0  0
  6  3  1  6  0  0  0
  7  2  1  0  0  0  0
  7  4  1  0  0  0  0
  8  6  1  0  0  0  0
  8 10  1  0  0  0  0
  9 11  2  0  0  0  0
 10 20  1  0  0  0  0
 11 10  1  0  0  0  0
 12 18  1  6  0  0  0
 12 19  1  0  0  0  0
 14 18  2  0  0  0  0
 15 20  1  6  0  0  0
 15 12  1  0  0  0  0
 16 13  1  6  0  0  0
 16 19  1  0  0  0  0
 18 23  1  0  0  0  0
 19 22  1  6  0  0  0
 20 14  1  0  0  0  0
 21 17  1  6  0  0  0
 21 15  1  0  0  0  0
 21 16  1  0  0  0  0
 23 25  1  0  0  0  0
 24 25  1  0  0  0  0
 27 33  2  0  0  0  0
 28 35  1  1  0  0  0
 28 27  1  0  0  0  0
 29 30  2  0  0  0  0
 30 26  1  0  0  0  0
 30 33  1  0  0  0  0
 32 34  1  0  0  0  0
 32 29  1  0  0  0  0
 34 31  1  6  0  0  0
 34 28  1  0  0  0  0
M  END
>  <MODEL>
5

>  <REMARK>
 VINA RESULT:      -7.4      2.408      4.331
  Name = 
  5 active torsions:
  status: ('A' for Active; 'I' for Inactive)
    1  A    between atoms: C_3  and  N_4
    2  A    between atoms: N_4  and  C_19
    3  A    between atoms: C_18  and  C_31
    4  A    between atoms: N_23  and  N_34
    5  A    between atoms: C_24  and  C_31
                            x       y       z     vdW  Elec       q    Type
                         _______ _______ _______ _____ _____    ______ ____

>  <TORSDO>
F 5

$$$$
=
 OpenBabel11072411293D

 35 41  0  0  1  0  0  0  0  0999 V2000
  158.3280  212.6860  153.5350 C   0  0  1  0  0  0  0  0  0  0  0  0
  159.1760  213.0830  156.0960 N   0  0  0  0  0  2  0  0  0  0  0  0
  158.7390  211.4950  152.7320 C   0  0  0  0  0  2  0  0  0  0  0  0
  160.7960  211.2680  155.8050 C   0  0  0  0  0  0  0  0  0  0  0  0
  159.0310  212.8640  154.8460 C   0  0  1  0  0  3  0  0  0  0  0  0
  159.7190  212.2180  153.6270 C   0  0  2  0  0  0  0  0  0  0  0  0
  160.3790  212.4740  156.6580 C   0  0  0  0  0  2  0  0  0  0  0  0
  160.4480  211.1390  154.4510 C   0  0  0  0  0  0  0  0  0  0  0  0
  161.6030  210.2620  156.1850 N   0  0  0  0  0  0  0  0  0  0  0  0
  161.1040  210.0510  153.9990 N   0  0  0  0  0  0  0  0  0  0  0  0
  161.7740  209.5330  155.0550 C   0  0  0  0  0  3  0  0  0  0  0  0
  161.2270  208.3880  150.7470 C   0  0  1  0  0  3  0  0  0  0  0  0
  160.7000  205.3150  151.4410 O   0  0  0  0  0  1  0  0  0  0  0  0
  161.6620  210.5110  151.5720 C   0  0  0  0  0  3  0  0  0  0  0  0
  160.8330  208.3400  152.1630 C   0  0  2  0  0  3  0  0  0  0  0  0
  161.7740  206.2080  151.4750 C   0  0  1  0  0  3  0  0  0  0  0  0
  161.0090  206.5580  153.7540 O   0  0  0  0  0  1  0  0  0  0  0  0
  161.6460  209.6040  150.3870 C   0  0  0  0  0  0  0  0  0  0  0  0
  161.7290  207.0820  150.2240 C   0  0  2  0  0  3  0  0  0  0  0  0
  161.2710  209.6320  152.6660 N   0  0  0  0  0  0  0  0  0  0  0  0
  161.6500  207.1690  152.6730 C   0  0  2  0  0  3  0  0  0  0  0  0
  163.0160  207.2060  149.7320 F   0  0  0  0  0  0  0  0  0  0  0  0
  162.3460  209.9160  149.0990 C   0  0  0  0  0  2  0  0  0  0  0  0
  163.1140  211.9140  148.0320 O   0  0  0  0  0  1  0  0  0  0  0  0
  161.9960  211.3120  148.6090 C   0  0  0  0  0  2  0  0  0  0  0  0
  158.3380  213.9100  152.7490 N   0  0  0  0  0  2  0  0  0  0  0  0
  159.7260  214.0370  149.2200 C   0  0  0  0  0  3  0  0  0  0  0  0
  158.7130  213.9160  148.1260 C   0  0  2  0  0  3  0  0  0  0  0  0
  157.0240  213.7840  150.8020 C   0  0  0  0  0  3  0  0  0  0  0  0
  158.2500  213.9320  151.3210 C   0  0  0  0  0  0  0  0  0  0  0  0
  156.8800  212.6250  147.3560 F   0  0  0  0  0  0  0  0  0  0  0  0
  156.6290  213.8160  149.3630 C   0  0  0  0  0  2  0  0  0  0  0  0
  159.5110  214.0630  150.5410 C   0  0  0  0  0  3  0  0  0  0  0  0
  157.5610  213.0040  148.4980 C   0  0  2  0  0  3  0  0  0  0  0  0
  159.3450  213.4550  146.9850 F   0  0  0  0  0  0  0  0  0  0  0  0
  1 26  1  6  0  0  0
  1  6  1  0  0  0  0
  1  5  1  0  0  0  0
  2  7  1  0  0  0  0
  3  1  1  0  0  0  0
  4  9  1  0  0  0  0
  4  7  1  0  0  0  0
  5  2  1  1  0  0  0
  6  3  1  1  0  0  0
  6  8  1  0  0  0  0
  6  5  1  0  0  0  0
  8  4  2  0  0  0  0
 10  8  1  0  0  0  0
 10 11  1  0  0  0  0
 11  9  2  0  0  0  0
 12 18  1  1  0  0  0
 12 15  1  0  0  0  0
 14 20  1  0  0  0  0
 15 20  1  1  0  0  0
 15 21  1  0  0  0  0
 16 13  1  6  0  0  0
 16 21  1  0  0  0  0
 18 14  2  0  0  0  0
 19 22  1  1  0  0  0
 19 12  1  0  0  0  0
 19 16  1  0  0  0  0
 20 10  1  0  0  0  0
 21 17  1  1  0  0  0
 23 18  1  0  0  0  0
 24 25  1  0  0  0  0
 25 23  1  0  0  0  0
 27 33  2  0  0  0  0
 28 35  1  6  0  0  0
 28 34  1  0  0  0  0
 28 27  1  0  0  0  0
 29 30  2  0  0  0  0
 30 26  1  0  0  0  0
 32 29  1  0  0  0  0
 33 30  1  0  0  0  0
 34 31  1  6  0  0  0
 34 32  1  0  0  0  0
M  END
>  <MODEL>
6

>  <REMARK>
 VINA RESULT:      -7.3      3.254      7.242
  Name = 
  5 active torsions:
  status: ('A' for Active; 'I' for Inactive)
    1  A    between atoms: C_3  and  N_4
    2  A    between atoms: N_4  and  C_19
    3  A    between atoms: C_18  and  C_31
    4  A    between atoms: N_23  and  N_34
    5  A    between atoms: C_24  and  C_31
                            x       y       z     vdW  Elec       q    Type
                         _______ _______ _______ _____ _____    ______ ____

>  <TORSDO>
F 5

$$$$
=
 OpenBabel11072411293D

 35 41  0  0  1  0  0  0  0  0999 V2000
  160.4610  205.7200  149.7280 C   0  0  1  0  0  0  0  0  0  0  0  0
  161.7940  206.8080  147.6130 N   0  0  0  0  0  2  0  0  0  0  0  0
  160.0560  206.5270  150.9190 C   0  0  0  0  0  2  0  0  0  0  0  0
  162.1620  208.8390  148.9330 C   0  0  0  0  0  0  0  0  0  0  0  0
  161.3550  206.4100  148.7450 C   0  0  1  0  0  3  0  0  0  0  0  0
  161.4000  206.7230  150.2540 C   0  0  2  0  0  0  0  0  0  0  0  0
  162.5780  208.0380  147.6910 C   0  0  0  0  0  2  0  0  0  0  0  0
  161.5840  208.2400  150.0630 C   0  0  0  0  0  0  0  0  0  0  0  0
  162.3780  210.1480  149.1480 N   0  0  0  0  0  0  0  0  0  0  0  0
  161.4950  209.2120  150.9960 N   0  0  0  0  0  0  0  0  0  0  0  0
  161.9590  210.3460  150.4220 C   0  0  0  0  0  3  0  0  0  0  0  0
  160.2510  209.3270  154.4300 C   0  0  1  0  0  3  0  0  0  0  0  0
  158.5930  212.0540  154.5500 O   0  0  0  0  0  1  0  0  0  0  0  0
  161.7130  208.0020  153.2100 C   0  0  0  0  0  3  0  0  0  0  0  0
  160.1590  209.8220  153.0490 C   0  0  2  0  0  3  0  0  0  0  0  0
  159.9310  211.6590  154.6210 C   0  0  1  0  0  3  0  0  0  0  0  0
  159.8530  212.0500  152.2250 O   0  0  0  0  0  1  0  0  0  0  0  0
  161.0760  208.2810  154.5310 C   0  0  0  0  0  0  0  0  0  0  0  0
  160.0260  210.3860  155.4590 C   0  0  2  0  0  3  0  0  0  0  0  0
  161.2010  209.0730  152.3650 N   0  0  0  0  0  0  0  0  0  0  0  0
  160.4710  211.2950  153.2250 C   0  0  2  0  0  3  0  0  0  0  0  0
  161.1170  210.4990  156.3020 F   0  0  0  0  0  0  0  0  0  0  0  0
  161.5760  207.7140  155.8250 C   0  0  0  0  0  2  0  0  0  0  0  0
  159.4630  206.6270  156.0950 O   0  0  0  0  0  1  0  0  0  0  0  0
  160.4240  207.3870  156.7620 C   0  0  0  0  0  2  0  0  0  0  0  0
  160.9770  204.4110  150.0990 N   0  0  0  0  0  2  0  0  0  0  0  0
  161.3610  200.8010  149.0010 C   0  0  0  0  0  3  0  0  0  0  0  0
  161.5760  200.5940  147.5350 C   0  0  2  0  0  3  0  0  0  0  0  0
  161.3610  203.7350  147.8800 C   0  0  0  0  0  3  0  0  0  0  0  0
  161.2180  203.3610  149.1580 C   0  0  0  0  0  0  0  0  0  0  0  0
  160.7480  201.1570  145.3860 F   0  0  0  0  0  0  0  0  0  0  0  0
  161.6670  202.8710  146.7020 C   0  0  0  0  0  2  0  0  0  0  0  0
  161.2360  201.9590  149.6580 C   0  0  0  0  0  3  0  0  0  0  0  0
  160.8360  201.6110  146.6900 C   0  0  2  0  0  3  0  0  0  0  0  0
  161.1800  199.3110  147.2040 F   0  0  0  0  0  0  0  0  0  0  0  0
  1 26  1  1  0  0  0
  1  6  1  0  0  0  0
  1  3  1  0  0  0  0
  2  7  1  0  0  0  0
  4  9  1  0  0  0  0
  4  8  2  0  0  0  0
  5  2  1  6  0  0  0
  5  1  1  0  0  0  0
  5  6  1  0  0  0  0
  6  3  1  6  0  0  0
  7  4  1  0  0  0  0
  8  6  1  0  0  0  0
  8 10  1  0  0  0  0
  9 11  2  0  0  0  0
 10 20  1  0  0  0  0
 11 10  1  0  0  0  0
 12 18  1  1  0  0  0
 12 19  1  0  0  0  0
 14 18  2  0  0  0  0
 15 20  1  6  0  0  0
 15 21  1  0  0  0  0
 15 12  1  0  0  0  0
 16 13  1  6  0  0  0
 16 19  1  0  0  0  0
 18 23  1  0  0  0  0
 19 22  1  1  0  0  0
 20 14  1  0  0  0  0
 21 17  1  6  0  0  0
 21 16  1  0  0  0  0
 23 25  1  0  0  0  0
 24 25  1  0  0  0  0
 27 33  2  0  0  0  0
 28 35  1  6  0  0  0
 28 27  1  0  0  0  0
 29 30  2  0  0  0  0
 30 33  1  0  0  0  0
 30 26  1  0  0  0  0
 32 29  1  0  0  0  0
 34 31  1  6  0  0  0
 34 32  1  0  0  0  0
 34 28  1  0  0  0  0
M  END
>  <MODEL>
7

>  <REMARK>
 VINA RESULT:      -6.4      2.556      4.635
  Name = 
  5 active torsions:
  status: ('A' for Active; 'I' for Inactive)
    1  A    between atoms: C_3  and  N_4
    2  A    between atoms: N_4  and  C_19
    3  A    between atoms: C_18  and  C_31
    4  A    between atoms: N_23  and  N_34
    5  A    between atoms: C_24  and  C_31
                            x       y       z     vdW  Elec       q    Type
                         _______ _______ _______ _____ _____    ______ ____

>  <TORSDO>
F 5

$$$$
=
 OpenBabel11072411293D

 35 41  0  0  1  0  0  0  0  0999 V2000
  161.0290  208.3830  151.1380 C   0  0  1  0  0  0  0  0  0  0  0  0
  161.2990  207.3130  153.6310 N   0  0  0  0  0  2  0  0  0  0  0  0
  160.6780  207.5540  149.9460 C   0  0  0  0  0  2  0  0  0  0  0  0
  161.2340  205.0730  152.6400 C   0  0  0  0  0  0  0  0  0  0  0  0
  161.3350  207.6250  152.3930 C   0  0  1  0  0  3  0  0  0  0  0  0
  161.6450  207.0550  150.9950 C   0  0  2  0  0  0  0  0  0  0  0  0
  161.5800  205.9020  153.8850 C   0  0  0  0  0  2  0  0  0  0  0  0
  161.2160  205.6180  151.3460 C   0  0  0  0  0  0  0  0  0  0  0  0
  161.0120  203.7480  152.5990 N   0  0  0  0  0  0  0  0  0  0  0  0
  161.0240  204.5790  150.5070 N   0  0  0  0  0  0  0  0  0  0  0  0
  160.8870  203.4750  151.2770 C   0  0  0  0  0  3  0  0  0  0  0  0
  160.9800  203.9720  146.9030 C   0  0  1  0  0  3  0  0  0  0  0  0
  160.0210  200.9350  146.6530 O   0  0  0  0  0  1  0  0  0  0  0  0
  161.6870  205.6680  148.3180 C   0  0  0  0  0  3  0  0  0  0  0  0
  160.5550  203.5540  148.2480 C   0  0  2  0  0  3  0  0  0  0  0  0
  161.2070  201.6210  146.9290 C   0  0  1  0  0  3  0  0  0  0  0  0
  160.4530  201.3700  149.2250 O   0  0  0  0  0  1  0  0  0  0  0  0
  161.5700  205.1710  146.9160 C   0  0  0  0  0  0  0  0  0  0  0  0
  161.3060  202.8280  146.0000 C   0  0  2  0  0  3  0  0  0  0  0  0
  161.1570  204.5630  149.1060 N   0  0  0  0  0  0  0  0  0  0  0  0
  161.1930  202.1840  148.3630 C   0  0  2  0  0  3  0  0  0  0  0  0
  162.6080  202.9160  145.5390 F   0  0  0  0  0  0  0  0  0  0  0  0
  162.3310  205.7560  145.7650 C   0  0  0  0  0  2  0  0  0  0  0  0
  160.1530  206.2040  144.8860 O   0  0  0  0  0  1  0  0  0  0  0  0
  161.4560  205.8600  144.5260 C   0  0  0  0  0  2  0  0  0  0  0  0
  162.0580  209.3680  150.8400 N   0  0  0  0  0  2  0  0  0  0  0  0
  162.1680  212.1650  148.2790 C   0  0  0  0  0  3  0  0  0  0  0  0
  161.3920  213.3930  148.6340 C   0  0  2  0  0  3  0  0  0  0  0  0
  160.9830  211.4440  151.0970 C   0  0  0  0  0  3  0  0  0  0  0  0
  161.7750  210.6780  150.3370 C   0  0  0  0  0  0  0  0  0  0  0  0
  159.2810  214.1680  149.3850 F   0  0  0  0  0  0  0  0  0  0  0  0
  160.5640  212.8550  150.8500 C   0  0  0  0  0  2  0  0  0  0  0  0
  162.3320  211.0550  149.0090 C   0  0  0  0  0  3  0  0  0  0  0  0
  160.1350  213.0800  149.4200 C   0  0  2  0  0  3  0  0  0  0  0  0
  161.0780  214.0730  147.4710 F   0  0  0  0  0  0  0  0  0  0  0  0
  1 26  1  6  0  0  0
  1  5  1  0  0  0  0
  2  7  1  0  0  0  0
  3  1  1  0  0  0  0
  4  7  1  0  0  0  0
  5  2  1  6  0  0  0
  6  3  1  1  0  0  0
  6  1  1  0  0  0  0
  6  8  1  0  0  0  0
  6  5  1  0  0  0  0
  8  4  2  0  0  0  0
  9  4  1  0  0  0  0
 10 11  1  0  0  0  0
 10  8  1  0  0  0  0
 11  9  2  0  0  0  0
 12 18  1  1  0  0  0
 12 15  1  0  0  0  0
 14 20  1  0  0  0  0
 15 21  1  0  0  0  0
 15 20  1  1  0  0  0
 16 13  1  6  0  0  0
 16 21  1  0  0  0  0
 18 14  2  0  0  0  0
 19 22  1  1  0  0  0
 19 12  1  0  0  0  0
 19 16  1  0  0  0  0
 20 10  1  0  0  0  0
 21 17  1  1  0  0  0
 23 18  1  0  0  0  0
 25 24  1  0  0  0  0
 25 23  1  0  0  0  0
 27 28  1  0  0  0  0
 27 33  2  0  0  0  0
 28 35  1  6  0  0  0
 28 34  1  0  0  0  0
 30 26  1  0  0  0  0
 30 29  2  0  0  0  0
 32 29  1  0  0  0  0
 33 30  1  0  0  0  0
 34 31  1  1  0  0  0
 34 32  1  0  0  0  0
M  END
>  <MODEL>
8

>  <REMARK>
 VINA RESULT:      -6.2      3.449      8.430
  Name = 
  5 active torsions:
  status: ('A' for Active; 'I' for Inactive)
    1  A    between atoms: C_3  and  N_4
    2  A    between atoms: N_4  and  C_19
    3  A    between atoms: C_18  and  C_31
    4  A    between atoms: N_23  and  N_34
    5  A    between atoms: C_24  and  C_31
                            x       y       z     vdW  Elec       q    Type
                         _______ _______ _______ _____ _____    ______ ____

>  <TORSDO>
F 5

$$$$
=
 OpenBabel11072411293D

 35 41  0  0  1  0  0  0  0  0999 V2000
  162.3790  207.2610  152.7510 C   0  0  1  0  0  0  0  0  0  0  0  0
  162.1600  209.8820  152.0310 N   0  0  0  0  0  2  0  0  0  0  0  0
  162.5200  206.1650  151.7470 C   0  0  0  0  0  2  0  0  0  0  0  0
  161.8420  209.1800  149.7050 C   0  0  0  0  0  0  0  0  0  0  0  0
  162.0710  208.6180  152.1980 C   0  0  1  0  0  3  0  0  0  0  0  0
  161.5780  207.3250  151.5190 C   0  0  2  0  0  0  0  0  0  0  0  0
  161.7100  210.3290  150.7150 C   0  0  0  0  0  2  0  0  0  0  0  0
  161.8330  207.8300  150.0860 C   0  0  0  0  0  0  0  0  0  0  0  0
  161.8780  209.2950  148.3660 N   0  0  0  0  0  0  0  0  0  0  0  0
  161.8160  207.1190  148.9390 N   0  0  0  0  0  0  0  0  0  0  0  0
  161.8600  208.0130  147.9250 C   0  0  0  0  0  3  0  0  0  0  0  0
  161.6080  203.5980  147.9820 C   0  0  1  0  0  3  0  0  0  0  0  0
  162.7090  203.5560  144.9840 O   0  0  0  0  0  1  0  0  0  0  0  0
  160.9220  204.9010  149.7740 C   0  0  0  0  0  3  0  0  0  0  0  0
  162.1600  204.9350  147.7200 C   0  0  2  0  0  3  0  0  0  0  0  0
  161.5130  203.8650  145.6370 C   0  0  1  0  0  3  0  0  0  0  0  0
  162.4590  206.1020  145.6500 O   0  0  0  0  0  1  0  0  0  0  0  0
  160.9560  203.5470  149.1470 C   0  0  0  0  0  0  0  0  0  0  0  0
  161.2740  202.8370  146.7410 C   0  0  2  0  0  3  0  0  0  0  0  0
  161.5730  205.7410  148.7780 N   0  0  0  0  0  0  0  0  0  0  0  0
  161.6100  205.2330  146.3390 C   0  0  2  0  0  3  0  0  0  0  0  0
  159.9360  202.4810  146.7220 F   0  0  0  0  0  0  0  0  0  0  0  0
  160.0750  202.4140  149.5800 C   0  0  0  0  0  2  0  0  0  0  0  0
  161.3240  200.4640  148.9820 O   0  0  0  0  0  1  0  0  0  0  0  0
  160.9000  201.2330  150.0660 C   0  0  0  0  0  2  0  0  0  0  0  0
  161.4740  206.9030  153.8330 N   0  0  0  0  0  2  0  0  0  0  0  0
  161.7610  209.8710  156.1800 C   0  0  0  0  0  3  0  0  0  0  0  0
  160.5000  210.2550  156.8870 C   0  0  2  0  0  3  0  0  0  0  0  0
  159.7000  207.7480  155.1250 C   0  0  0  0  0  3  0  0  0  0  0  0
  160.9970  207.8380  154.8060 C   0  0  0  0  0  0  0  0  0  0  0  0
  158.2010  210.7350  156.5650 F   0  0  0  0  0  0  0  0  0  0  0  0
  158.9470  208.5510  156.1330 C   0  0  0  0  0  2  0  0  0  0  0  0
  161.9510  208.8500  155.3360 C   0  0  0  0  0  3  0  0  0  0  0  0
  159.2650  210.0240  156.0400 C   0  0  2  0  0  3  0  0  0  0  0  0
  160.5870  211.5840  157.2600 F   0  0  0  0  0  0  0  0  0  0  0  0
  1 26  1  1  0  0  0
  3  1  1  0  0  0  0
  4  8  2  0  0  0  0
  4  7  1  0  0  0  0
  5  2  1  6  0  0  0
  5  1  1  0  0  0  0
  6  3  1  6  0  0  0
  6  5  1  0  0  0  0
  6  1  1  0  0  0  0
  7  2  1  0  0  0  0
  8  6  1  0  0  0  0
  9  4  1  0  0  0  0
 10  8  1  0  0  0  0
 11  9  2  0  0  0  0
 11 10  1  0  0  0  0
 12 18  1  1  0  0  0
 15 12  1  0  0  0  0
 15 20  1  1  0  0  0
 16 13  1  1  0  0  0
 16 21  1  0  0  0  0
 16 19  1  0  0  0  0
 18 23  1  0  0  0  0
 18 14  2  0  0  0  0
 19 22  1  1  0  0  0
 19 12  1  0  0  0  0
 20 10  1  0  0  0  0
 20 14  1  0  0  0  0
 21 17  1  6  0  0  0
 21 15  1  0  0  0  0
 23 25  1  0  0  0  0
 24 25  1  0  0  0  0
 26 30  1  0  0  0  0
 27 28  1  0  0  0  0
 28 35  1  6  0  0  0
 29 32  1  0  0  0  0
 30 29  2  0  0  0  0
 30 33  1  0  0  0  0
 33 27  2  0  0  0  0
 34 32  1  0  0  0  0
 34 31  1  1  0  0  0
 34 28  1  0  0  0  0
M  END
>  <MODEL>
9

>  <REMARK>
 VINA RESULT:      -6.1      3.800      8.962
  Name = 
  5 active torsions:
  status: ('A' for Active; 'I' for Inactive)
    1  A    between atoms: C_3  and  N_4
    2  A    between atoms: N_4  and  C_19
    3  A    between atoms: C_18  and  C_31
    4  A    between atoms: N_23  and  N_34
    5  A    between atoms: C_24  and  C_31
                            x       y       z     vdW  Elec       q    Type
                         _______ _______ _______ _____ _____    ______ ____

>  <TORSDO>
F 5

$$$$
