=
 OpenBabel11072412303D

 33 34  0  0  1  0  0  0  0  0999 V2000
  161.7610  208.9570  150.8980 C   0  0  0  0  0  2  0  0  0  0  0  0
  161.6660  208.5470  152.3590 C   0  0  2  0  0  3  0  0  0  0  0  0
  160.7670  207.4850  152.4640 O   0  0  0  0  0  1  0  0  0  0  0  0
  161.2120  209.7180  153.2380 C   0  0  2  0  0  3  0  0  0  0  0  0
  160.7680  209.2340  154.4850 O   0  0  0  0  0  0  0  0  0  0  0  0
  162.5150  210.6560  155.0560 O   0  0  0  0  0  1  0  0  0  0  0  0
  161.9360  208.8900  156.5180 C   0  0  0  0  0  1  0  0  0  0  0  0
  161.4210  209.9240  155.5360 C   0  0  2  0  0  0  0  0  0  0  0  0
  159.1550  210.3200  156.2780 O   0  0  0  0  0  1  0  0  0  0  0  0
  160.4480  210.8500  156.2750 C   0  0  0  0  0  2  0  0  0  0  0  0
  160.0620  210.4680  152.5670 C   0  0  0  0  0  2  0  0  0  0  0  0
  160.2150  211.9060  152.7440 N   0  0  0  0  0  2  0  0  0  0  0  0
  159.0150  212.5480  152.2290 C   0  0  0  0  0  2  0  0  0  0  0  0
  158.7930  213.6600  154.7070 O   0  0  0  0  0  1  0  0  0  0  0  0
  157.1100  211.7230  154.1970 O   0  0  0  0  0  1  0  0  0  0  0  0
  156.8410  214.2250  153.0600 O   0  0  0  0  0  0  0  0  0  0  0  0
  157.9470  213.0670  153.6040 P   0  0  0  0  0  0  0  0  0  0  0  0
  162.1150  207.7570  150.0330 C   0  0  0  0  0  2  0  0  0  0  0  0
  161.3950  207.8170  148.6890 C   0  0  0  0  0  2  0  0  0  0  0  0
  161.5020  204.4480  149.0880 C   0  0  1  0  0  3  0  0  0  0  0  0
  160.6700  201.3030  147.7000 O   0  0  0  0  0  0  0  0  0  0  0  0
  161.1370  205.8010  147.2120 C   0  0  1  0  0  3  0  0  0  0  0  0
  161.6090  204.6280  147.6160 C   0  0  2  0  0  3  0  0  0  0  0  0
  161.4530  203.3900  146.9160 N   0  0  0  0  0  0  0  0  0  0  0  0
  160.8050  206.1470  145.8010 C   0  0  0  0  0  1  0  0  0  0  0  0
  160.5370  205.5490  149.5130 C   0  0  0  0  0  2  0  0  0  0  0  0
  160.5740  206.5630  148.3630 C   0  0  1  0  0  3  0  0  0  0  0  0
  161.2650  203.1930  145.4860 C   0  0  0  0  0  1  0  0  0  0  0  0
  160.9320  203.1110  149.2080 N   0  0  0  0  0  0  0  0  0  0  0  0
  160.9980  202.4990  147.9230 C   0  0  0  0  0  0  0  0  0  0  0  0
  160.6950  202.4190  150.4650 C   0  0  0  0  0  2  0  0  0  0  0  0
  160.8240  203.7550  152.5480 C   0  0  0  0  0  1  0  0  0  0  0  0
  161.6220  202.9630  151.5320 C   0  0  0  0  0  2  0  0  0  0  0  0
  1  2  1  0  0  0  0
  2  3  1  6  0  0  0
  2  4  1  0  0  0  0
  4 11  1  6  0  0  0
  4  5  1  0  0  0  0
  5  8  1  0  0  0  0
  6  8  1  0  0  0  0
  8 10  1  0  0  0  0
  8  7  1  1  0  0  0
 10  9  1  0  0  0  0
 11 12  1  0  0  0  0
 13 12  1  0  0  0  0
 13 17  1  0  0  0  0
 16 17  2  0  0  0  0
 17 15  1  0  0  0  0
 17 14  1  0  0  0  0
 18  1  1  0  0  0  0
 19 18  1  0  0  0  0
 20 29  1  0  0  0  0
 20 26  1  6  0  0  0
 21 30  2  0  0  0  0
 22 25  1  6  0  0  0
 22 23  1  0  0  0  0
 22 27  1  0  0  0  0
 23 24  1  6  0  0  0
 23 20  1  0  0  0  0
 24 30  1  0  0  0  0
 27 19  1  1  0  0  0
 27 26  1  0  0  0  0
 28 24  1  0  0  0  0
 29 31  1  0  0  0  0
 30 29  1  0  0  0  0
 31 33  1  0  0  0  0
 33 32  1  0  0  0  0
M  END
>  <MODEL>
1

>  <REMARK>
 VINA RESULT:      -7.1      0.000      0.000
  Name = 
  14 active torsions:
  status: ('A' for Active; 'I' for Inactive)
    1  A    between atoms: C_6  and  C_24
    2  A    between atoms: C_7  and  C_23
    3  A    between atoms: C_7  and  C_27
    4  A    between atoms: C_8  and  O_11
    5  A    between atoms: C_8  and  C_17
    6  A    between atoms: C_8  and  C_29
    7  A    between atoms: N_9  and  C_25
    8  A    between atoms: N_9  and  C_29
    9  A    between atoms: O_11  and  C_33
   10  A    between atoms: C_17  and  C_23
   11  A    between atoms: P_20  and  C_25
   12  A    between atoms: C_22  and  C_33
   13  A    between atoms: C_24  and  N_30
   14  A    between atoms: C_26  and  C_27
                            x       y       z     vdW  Elec       q    Type
                         _______ _______ _______ _____ _____    ______ ____

>  <TORSDO>
F 14

$$$$
=
 OpenBabel11072412303D

 33 34  0  0  1  0  0  0  0  0999 V2000
  160.0840  209.6790  152.6030 C   0  0  0  0  0  2  0  0  0  0  0  0
  160.6130  211.0940  152.7710 C   0  0  2  0  0  3  0  0  0  0  0  0
  161.3710  211.1480  153.9410 O   0  0  0  0  0  1  0  0  0  0  0  0
  159.4690  212.1140  152.8320 C   0  0  2  0  0  3  0  0  0  0  0  0
  158.3020  211.4940  153.3230 O   0  0  0  0  0  0  0  0  0  0  0  0
  156.5800  212.8730  154.0530 O   0  0  0  0  0  1  0  0  0  0  0  0
  158.7900  213.3020  154.7740 C   0  0  0  0  0  1  0  0  0  0  0  0
  157.7760  212.2360  154.4090 C   0  0  2  0  0  0  0  0  0  0  0  0
  158.6280  210.4630  155.8130 O   0  0  0  0  0  1  0  0  0  0  0  0
  157.5540  211.3390  155.6330 C   0  0  0  0  0  2  0  0  0  0  0  0
  159.1790  212.6680  151.4380 C   0  0  0  0  0  2  0  0  0  0  0  0
  160.3520  213.3450  150.9000 N   0  0  0  0  0  2  0  0  0  0  0  0
  160.1370  213.5420  149.4750 C   0  0  0  0  0  2  0  0  0  0  0  0
  162.5390  213.5790  148.1890 O   0  0  0  0  0  1  0  0  0  0  0  0
  160.7100  212.0630  147.0940 O   0  0  0  0  0  0  0  0  0  0  0  0
  161.9840  211.3480  149.4370 O   0  0  0  0  0  1  0  0  0  0  0  0
  161.3990  212.6460  148.5240 P   0  0  0  0  0  0  0  0  0  0  0  0
  161.1210  208.8040  151.9170 C   0  0  0  0  0  2  0  0  0  0  0  0
  160.9900  207.3490  152.3570 C   0  0  0  0  0  2  0  0  0  0  0  0
  160.9090  206.0290  149.2310 C   0  0  1  0  0  3  0  0  0  0  0  0
  161.5490  203.1800  147.2340 O   0  0  0  0  0  0  0  0  0  0  0  0
  161.0570  205.0470  151.3520 C   0  0  1  0  0  3  0  0  0  0  0  0
  160.6280  204.8620  150.1090 C   0  0  2  0  0  3  0  0  0  0  0  0
  160.6920  203.6270  149.3900 N   0  0  0  0  0  0  0  0  0  0  0  0
  161.2200  203.9680  152.3680 C   0  0  0  0  0  1  0  0  0  0  0  0
  161.9260  206.8390  150.0280 C   0  0  0  0  0  2  0  0  0  0  0  0
  161.7580  206.3570  151.4750 C   0  0  1  0  0  3  0  0  0  0  0  0
  160.7060  202.2780  149.9360 C   0  0  0  0  0  1  0  0  0  0  0  0
  161.4810  205.4070  148.0430 N   0  0  0  0  0  0  0  0  0  0  0  0
  161.2580  204.0030  148.1440 C   0  0  0  0  0  0  0  0  0  0  0  0
  161.8610  206.1190  146.8330 C   0  0  0  0  0  2  0  0  0  0  0  0
  160.9520  205.4930  144.6150 C   0  0  0  0  0  1  0  0  0  0  0  0
  160.6680  206.2300  145.9080 C   0  0  0  0  0  2  0  0  0  0  0  0
  1  2  1  0  0  0  0
  2  4  1  0  0  0  0
  2  3  1  1  0  0  0
  4 11  1  6  0  0  0
  4  5  1  0  0  0  0
  5  8  1  0  0  0  0
  6  8  1  0  0  0  0
  8  7  1  1  0  0  0
  8 10  1  0  0  0  0
 10  9  1  0  0  0  0
 12 11  1  0  0  0  0
 13 12  1  0  0  0  0
 14 17  1  0  0  0  0
 15 17  2  0  0  0  0
 17 16  1  0  0  0  0
 17 13  1  0  0  0  0
 18 19  1  0  0  0  0
 18  1  1  0  0  0  0
 20 26  1  1  0  0  0
 20 23  1  0  0  0  0
 21 30  2  0  0  0  0
 22 27  1  0  0  0  0
 22 25  1  6  0  0  0
 23 24  1  6  0  0  0
 23 22  1  0  0  0  0
 24 28  1  0  0  0  0
 26 27  1  0  0  0  0
 27 19  1  1  0  0  0
 29 30  1  0  0  0  0
 29 20  1  0  0  0  0
 30 24  1  0  0  0  0
 31 29  1  0  0  0  0
 32 33  1  0  0  0  0
 33 31  1  0  0  0  0
M  END
>  <MODEL>
2

>  <REMARK>
 VINA RESULT:      -6.9      2.713      4.512
  Name = 
  14 active torsions:
  status: ('A' for Active; 'I' for Inactive)
    1  A    between atoms: C_6  and  C_24
    2  A    between atoms: C_7  and  C_23
    3  A    between atoms: C_7  and  C_27
    4  A    between atoms: C_8  and  O_11
    5  A    between atoms: C_8  and  C_17
    6  A    between atoms: C_8  and  C_29
    7  A    between atoms: N_9  and  C_25
    8  A    between atoms: N_9  and  C_29
    9  A    between atoms: O_11  and  C_33
   10  A    between atoms: C_17  and  C_23
   11  A    between atoms: P_20  and  C_25
   12  A    between atoms: C_22  and  C_33
   13  A    between atoms: C_24  and  N_30
   14  A    between atoms: C_26  and  C_27
                            x       y       z     vdW  Elec       q    Type
                         _______ _______ _______ _____ _____    ______ ____

>  <TORSDO>
F 14

$$$$
=
 OpenBabel11072412303D

 33 34  0  0  1  0  0  0  0  0999 V2000
  160.4720  208.7060  152.6170 C   0  0  0  0  0  2  0  0  0  0  0  0
  161.0490  210.0740  152.2910 C   0  0  2  0  0  3  0  0  0  0  0  0
  162.4390  209.9670  152.2380 O   0  0  0  0  0  1  0  0  0  0  0  0
  160.6360  211.1170  153.3370 C   0  0  2  0  0  3  0  0  0  0  0  0
  159.8530  210.5070  154.3360 O   0  0  0  0  0  0  0  0  0  0  0  0
  161.7550  211.1620  155.5000 O   0  0  0  0  0  1  0  0  0  0  0  0
  160.4090  209.4230  156.3690 C   0  0  0  0  0  1  0  0  0  0  0  0
  160.4250  210.7370  155.6120 C   0  0  2  0  0  0  0  0  0  0  0  0
  160.0920  213.0570  156.2030 O   0  0  0  0  0  1  0  0  0  0  0  0
  159.6060  211.7620  156.4060 C   0  0  0  0  0  2  0  0  0  0  0  0
  159.8170  212.2270  152.6810 C   0  0  0  0  0  2  0  0  0  0  0  0
  158.3910  211.9720  152.8340 N   0  0  0  0  0  2  0  0  0  0  0  0
  157.7260  213.2530  153.0150 C   0  0  0  0  0  2  0  0  0  0  0  0
  156.9110  213.9180  155.5290 O   0  0  0  0  0  1  0  0  0  0  0  0
  156.2790  211.5020  154.7520 O   0  0  0  0  0  1  0  0  0  0  0  0
  154.9970  213.7350  153.7550 O   0  0  0  0  0  0  0  0  0  0  0  0
  156.4700  213.1250  154.3210 P   0  0  0  0  0  0  0  0  0  0  0  0
  161.5860  207.6780  152.7500 C   0  0  0  0  0  2  0  0  0  0  0  0
  161.0510  206.2620  152.5740 C   0  0  0  0  0  2  0  0  0  0  0  0
  160.9180  205.4810  149.2730 C   0  0  1  0  0  3  0  0  0  0  0  0
  161.5270  203.0080  146.8180 O   0  0  0  0  0  0  0  0  0  0  0  0
  161.1040  204.1590  151.1970 C   0  0  1  0  0  3  0  0  0  0  0  0
  160.6540  204.1830  149.9490 C   0  0  2  0  0  3  0  0  0  0  0  0
  160.7070  203.0850  149.0320 N   0  0  0  0  0  0  0  0  0  0  0  0
  161.2860  202.9270  152.0160 C   0  0  0  0  0  1  0  0  0  0  0  0
  161.9470  206.1510  150.1770 C   0  0  0  0  0  2  0  0  0  0  0  0
  161.8050  205.4340  151.5250 C   0  0  1  0  0  3  0  0  0  0  0  0
  160.7320  201.6640  149.3450 C   0  0  0  0  0  1  0  0  0  0  0  0
  161.4700  205.0680  147.9880 N   0  0  0  0  0  0  0  0  0  0  0  0
  161.2510  203.6660  147.8570 C   0  0  0  0  0  0  0  0  0  0  0  0
  161.8290  205.9740  146.9080 C   0  0  0  0  0  2  0  0  0  0  0  0
  160.9100  205.6770  144.6260 C   0  0  0  0  0  1  0  0  0  0  0  0
  160.6280  206.2090  146.0170 C   0  0  0  0  0  2  0  0  0  0  0  0
  1 18  1  0  0  0  0
  2  3  1  1  0  0  0
  2  1  1  0  0  0  0
  2  4  1  0  0  0  0
  4 11  1  6  0  0  0
  4  5  1  0  0  0  0
  5  8  1  0  0  0  0
  6  8  1  0  0  0  0
  8  7  1  1  0  0  0
  8 10  1  0  0  0  0
  9 10  1  0  0  0  0
 11 12  1  0  0  0  0
 12 13  1  0  0  0  0
 13 17  1  0  0  0  0
 16 17  2  0  0  0  0
 17 15  1  0  0  0  0
 17 14  1  0  0  0  0
 19 18  1  0  0  0  0
 20 23  1  0  0  0  0
 20 26  1  1  0  0  0
 21 30  2  0  0  0  0
 22 27  1  0  0  0  0
 22 25  1  6  0  0  0
 23 24  1  6  0  0  0
 23 22  1  0  0  0  0
 24 28  1  0  0  0  0
 26 27  1  0  0  0  0
 27 19  1  1  0  0  0
 29 20  1  0  0  0  0
 30 29  1  0  0  0  0
 30 24  1  0  0  0  0
 31 29  1  0  0  0  0
 32 33  1  0  0  0  0
 33 31  1  0  0  0  0
M  END
>  <MODEL>
3

>  <REMARK>
 VINA RESULT:      -6.8      1.532      3.227
  Name = 
  14 active torsions:
  status: ('A' for Active; 'I' for Inactive)
    1  A    between atoms: C_6  and  C_24
    2  A    between atoms: C_7  and  C_23
    3  A    between atoms: C_7  and  C_27
    4  A    between atoms: C_8  and  O_11
    5  A    between atoms: C_8  and  C_17
    6  A    between atoms: C_8  and  C_29
    7  A    between atoms: N_9  and  C_25
    8  A    between atoms: N_9  and  C_29
    9  A    between atoms: O_11  and  C_33
   10  A    between atoms: C_17  and  C_23
   11  A    between atoms: P_20  and  C_25
   12  A    between atoms: C_22  and  C_33
   13  A    between atoms: C_24  and  N_30
   14  A    between atoms: C_26  and  C_27
                            x       y       z     vdW  Elec       q    Type
                         _______ _______ _______ _____ _____    ______ ____

>  <TORSDO>
F 14

$$$$
=
 OpenBabel11072412303D

 33 34  0  0  1  0  0  0  0  0999 V2000
  160.5150  208.8640  152.4690 C   0  0  0  0  0  2  0  0  0  0  0  0
  161.0910  210.2670  152.5710 C   0  0  2  0  0  3  0  0  0  0  0  0
  162.4670  210.1980  152.3540 O   0  0  0  0  0  1  0  0  0  0  0  0
  160.8000  210.8910  153.9420 C   0  0  2  0  0  3  0  0  0  0  0  0
  160.2060  209.9320  154.7860 O   0  0  0  0  0  0  0  0  0  0  0  0
  160.2830  210.2540  157.0870 O   0  0  0  0  0  1  0  0  0  0  0  0
  162.2380  210.6020  155.8040 C   0  0  0  0  0  1  0  0  0  0  0  0
  160.9760  209.7780  155.9660 C   0  0  2  0  0  0  0  0  0  0  0  0
  160.3670  207.4500  155.7430 O   0  0  0  0  0  1  0  0  0  0  0  0
  161.3770  208.3140  156.1750 C   0  0  0  0  0  2  0  0  0  0  0  0
  159.8430  212.0730  153.7930 C   0  0  0  0  0  2  0  0  0  0  0  0
  158.4700  211.6570  154.0450 N   0  0  0  0  0  2  0  0  0  0  0  0
  157.9670  212.4400  155.1640 C   0  0  0  0  0  2  0  0  0  0  0  0
  155.7750  210.8210  155.1880 O   0  0  0  0  0  1  0  0  0  0  0  0
  155.4470  213.1270  153.9970 O   0  0  0  0  0  0  0  0  0  0  0  0
  155.6220  212.9170  156.7450 O   0  0  0  0  0  1  0  0  0  0  0  0
  156.1610  212.2790  155.2750 P   0  0  0  0  0  0  0  0  0  0  0  0
  161.6320  207.8330  152.4350 C   0  0  0  0  0  2  0  0  0  0  0  0
  161.0720  206.4170  152.3720 C   0  0  0  0  0  2  0  0  0  0  0  0
  160.9660  205.4600  149.1170 C   0  0  1  0  0  3  0  0  0  0  0  0
  161.5010  202.8280  146.8150 O   0  0  0  0  0  0  0  0  0  0  0  0
  161.0480  204.2410  151.1150 C   0  0  1  0  0  3  0  0  0  0  0  0
  160.6250  204.2170  149.8570 C   0  0  2  0  0  3  0  0  0  0  0  0
  160.6420  203.0680  149.0030 N   0  0  0  0  0  0  0  0  0  0  0  0
  161.1530  203.0490  152.0040 C   0  0  0  0  0  1  0  0  0  0  0  0
  162.0080  206.1300  150.0070 C   0  0  0  0  0  2  0  0  0  0  0  0
  161.8050  205.4970  151.3880 C   0  0  1  0  0  3  0  0  0  0  0  0
  160.5910  201.6670  149.3940 C   0  0  0  0  0  1  0  0  0  0  0  0
  161.5220  204.9510  147.8700 N   0  0  0  0  0  0  0  0  0  0  0  0
  161.2360  203.5560  147.8110 C   0  0  0  0  0  0  0  0  0  0  0  0
  161.9460  205.7770  146.7500 C   0  0  0  0  0  2  0  0  0  0  0  0
  160.9930  205.4680  144.4840 C   0  0  0  0  0  1  0  0  0  0  0  0
  160.7620  206.0720  145.8550 C   0  0  0  0  0  2  0  0  0  0  0  0
  1  2  1  0  0  0  0
  2  3  1  1  0  0  0
  2  4  1  0  0  0  0
  4 11  1  6  0  0  0
  4  5  1  0  0  0  0
  5  8  1  0  0  0  0
  8  7  1  6  0  0  0
  8 10  1  0  0  0  0
  8  6  1  0  0  0  0
  9 10  1  0  0  0  0
 11 12  1  0  0  0  0
 12 13  1  0  0  0  0
 13 17  1  0  0  0  0
 14 17  1  0  0  0  0
 15 17  2  0  0  0  0
 17 16  1  0  0  0  0
 18  1  1  0  0  0  0
 19 18  1  0  0  0  0
 20 23  1  0  0  0  0
 20 26  1  1  0  0  0
 21 30  2  0  0  0  0
 22 27  1  0  0  0  0
 22 25  1  6  0  0  0
 23 24  1  6  0  0  0
 23 22  1  0  0  0  0
 24 28  1  0  0  0  0
 26 27  1  0  0  0  0
 27 19  1  1  0  0  0
 29 20  1  0  0  0  0
 30 29  1  0  0  0  0
 30 24  1  0  0  0  0
 31 29  1  0  0  0  0
 32 33  1  0  0  0  0
 33 31  1  0  0  0  0
M  END
>  <MODEL>
4

>  <REMARK>
 VINA RESULT:      -6.8      1.696      3.463
  Name = 
  14 active torsions:
  status: ('A' for Active; 'I' for Inactive)
    1  A    between atoms: C_6  and  C_24
    2  A    between atoms: C_7  and  C_23
    3  A    between atoms: C_7  and  C_27
    4  A    between atoms: C_8  and  O_11
    5  A    between atoms: C_8  and  C_17
    6  A    between atoms: C_8  and  C_29
    7  A    between atoms: N_9  and  C_25
    8  A    between atoms: N_9  and  C_29
    9  A    between atoms: O_11  and  C_33
   10  A    between atoms: C_17  and  C_23
   11  A    between atoms: P_20  and  C_25
   12  A    between atoms: C_22  and  C_33
   13  A    between atoms: C_24  and  N_30
   14  A    between atoms: C_26  and  C_27
                            x       y       z     vdW  Elec       q    Type
                         _______ _______ _______ _____ _____    ______ ____

>  <TORSDO>
F 14

$$$$
=
 OpenBabel11072412303D

 33 34  0  0  1  0  0  0  0  0999 V2000
  160.7360  207.3500  154.8080 C   0  0  0  0  0  2  0  0  0  0  0  0
  161.5330  208.5900  155.1760 C   0  0  2  0  0  3  0  0  0  0  0  0
  161.7760  208.5700  156.5500 O   0  0  0  0  0  1  0  0  0  0  0  0
  160.7840  209.8700  154.7870 C   0  0  2  0  0  3  0  0  0  0  0  0
  161.5380  210.5970  153.8440 O   0  0  0  0  0  0  0  0  0  0  0  0
  159.8900  209.5610  152.5740 O   0  0  0  0  0  1  0  0  0  0  0  0
  162.0520  209.8380  151.6590 C   0  0  0  0  0  1  0  0  0  0  0  0
  160.9820  210.4380  152.5500 C   0  0  2  0  0  0  0  0  0  0  0  0
  159.9290  212.5810  152.9210 O   0  0  0  0  0  1  0  0  0  0  0  0
  160.5640  211.7900  151.9600 C   0  0  0  0  0  2  0  0  0  0  0  0
  160.5630  210.7490  156.0180 C   0  0  0  0  0  2  0  0  0  0  0  0
  159.2220  210.5570  156.5520 N   0  0  0  0  0  2  0  0  0  0  0  0
  158.2740  210.8240  155.4810 C   0  0  0  0  0  2  0  0  0  0  0  0
  157.9160  213.0670  156.9860 O   0  0  0  0  0  1  0  0  0  0  0  0
  155.7400  211.7110  156.4680 O   0  0  0  0  0  1  0  0  0  0  0  0
  157.0120  213.2200  154.5360 O   0  0  0  0  0  0  0  0  0  0  0  0
  157.2390  212.2550  155.9060 P   0  0  0  0  0  0  0  0  0  0  0  0
  161.5540  206.4430  153.9020 C   0  0  0  0  0  2  0  0  0  0  0  0
  160.8390  206.2000  152.5770 C   0  0  0  0  0  2  0  0  0  0  0  0
  160.8660  205.4270  149.2720 C   0  0  1  0  0  3  0  0  0  0  0  0
  161.6580  202.9850  146.8380 O   0  0  0  0  0  0  0  0  0  0  0  0
  161.0190  204.1060  151.2000 C   0  0  1  0  0  3  0  0  0  0  0  0
  160.6190  204.1180  149.9340 C   0  0  2  0  0  3  0  0  0  0  0  0
  160.7470  203.0260  149.0180 N   0  0  0  0  0  0  0  0  0  0  0  0
  161.2110  202.8780  152.0220 C   0  0  0  0  0  1  0  0  0  0  0  0
  161.8340  206.1290  150.2190 C   0  0  0  0  0  2  0  0  0  0  0  0
  161.6630  205.4020  151.5580 C   0  0  1  0  0  3  0  0  0  0  0  0
  160.8090  201.6060  149.3290 C   0  0  0  0  0  1  0  0  0  0  0  0
  161.4830  205.0380  148.0100 N   0  0  0  0  0  0  0  0  0  0  0  0
  161.3170  203.6290  147.8670 C   0  0  0  0  0  0  0  0  0  0  0  0
  161.8540  205.9590  146.9470 C   0  0  0  0  0  2  0  0  0  0  0  0
  160.4970  205.6790  144.8930 C   0  0  0  0  0  1  0  0  0  0  0  0
  160.6120  206.4180  146.2120 C   0  0  0  0  0  2  0  0  0  0  0  0
  1  2  1  0  0  0  0
  2  3  1  1  0  0  0
  4  2  1  0  0  0  0
  4 11  1  1  0  0  0
  5  4  1  0  0  0  0
  8  7  1  6  0  0  0
  8  6  1  0  0  0  0
  8  5  1  0  0  0  0
 10  8  1  0  0  0  0
 10  9  1  0  0  0  0
 11 12  1  0  0  0  0
 13 17  1  0  0  0  0
 13 12  1  0  0  0  0
 16 17  2  0  0  0  0
 17 15  1  0  0  0  0
 17 14  1  0  0  0  0
 18  1  1  0  0  0  0
 19 18  1  0  0  0  0
 20 23  1  0  0  0  0
 20 26  1  1  0  0  0
 21 30  2  0  0  0  0
 22 27  1  0  0  0  0
 22 25  1  6  0  0  0
 23 24  1  6  0  0  0
 23 22  1  0  0  0  0
 24 28  1  0  0  0  0
 26 27  1  0  0  0  0
 27 19  1  1  0  0  0
 29 20  1  0  0  0  0
 30 29  1  0  0  0  0
 30 24  1  0  0  0  0
 31 29  1  0  0  0  0
 32 33  1  0  0  0  0
 33 31  1  0  0  0  0
M  END
>  <MODEL>
5

>  <REMARK>
 VINA RESULT:      -6.7      1.866      3.865
  Name = 
  14 active torsions:
  status: ('A' for Active; 'I' for Inactive)
    1  A    between atoms: C_6  and  C_24
    2  A    between atoms: C_7  and  C_23
    3  A    between atoms: C_7  and  C_27
    4  A    between atoms: C_8  and  O_11
    5  A    between atoms: C_8  and  C_17
    6  A    between atoms: C_8  and  C_29
    7  A    between atoms: N_9  and  C_25
    8  A    between atoms: N_9  and  C_29
    9  A    between atoms: O_11  and  C_33
   10  A    between atoms: C_17  and  C_23
   11  A    between atoms: P_20  and  C_25
   12  A    between atoms: C_22  and  C_33
   13  A    between atoms: C_24  and  N_30
   14  A    between atoms: C_26  and  C_27
                            x       y       z     vdW  Elec       q    Type
                         _______ _______ _______ _____ _____    ______ ____

>  <TORSDO>
F 14

$$$$
=
 OpenBabel11072412303D

 33 34  0  0  1  0  0  0  0  0999 V2000
  160.5530  208.9300  152.2420 C   0  0  0  0  0  2  0  0  0  0  0  0
  161.1400  210.3030  151.9570 C   0  0  2  0  0  3  0  0  0  0  0  0
  162.5320  210.2010  151.9680 O   0  0  0  0  0  1  0  0  0  0  0  0
  160.6750  211.3340  152.9920 C   0  0  2  0  0  3  0  0  0  0  0  0
  159.8490  210.7110  153.9480 O   0  0  0  0  0  0  0  0  0  0  0  0
  161.7980  210.6840  155.2140 O   0  0  0  0  0  1  0  0  0  0  0  0
  159.8150  209.7740  156.1240 C   0  0  0  0  0  1  0  0  0  0  0  0
  160.4070  210.8550  155.2430 C   0  0  2  0  0  0  0  0  0  0  0  0
  159.3050  212.0710  157.0160 O   0  0  0  0  0  1  0  0  0  0  0  0
  160.0550  212.2190  155.8460 C   0  0  0  0  0  2  0  0  0  0  0  0
  159.8810  212.4470  152.3100 C   0  0  0  0  0  2  0  0  0  0  0  0
  159.9100  212.2870  150.8620 N   0  0  0  0  0  2  0  0  0  0  0  0
  160.4310  213.5190  150.2890 C   0  0  0  0  0  2  0  0  0  0  0  0
  162.0150  211.8930  148.7810 O   0  0  0  0  0  1  0  0  0  0  0  0
  162.2570  214.4520  148.2950 O   0  0  0  0  0  1  0  0  0  0  0  0
  160.0370  213.0200  147.4920 O   0  0  0  0  0  0  0  0  0  0  0  0
  161.2210  213.1760  148.6890 P   0  0  0  0  0  0  0  0  0  0  0  0
  161.6630  207.9210  152.4960 C   0  0  0  0  0  2  0  0  0  0  0  0
  161.1240  206.4950  152.4780 C   0  0  0  0  0  2  0  0  0  0  0  0
  160.9470  205.5430  149.2240 C   0  0  1  0  0  3  0  0  0  0  0  0
  161.4190  202.9100  146.9100 O   0  0  0  0  0  0  0  0  0  0  0  0
  161.0610  204.3210  151.2190 C   0  0  1  0  0  3  0  0  0  0  0  0
  160.6130  204.3000  149.9700 C   0  0  2  0  0  3  0  0  0  0  0  0
  160.6060  203.1520  149.1150 N   0  0  0  0  0  0  0  0  0  0  0  0
  161.1770  203.1270  152.1040 C   0  0  0  0  0  1  0  0  0  0  0  0
  162.0110  206.2050  150.0930 C   0  0  0  0  0  2  0  0  0  0  0  0
  161.8310  205.5710  151.4780 C   0  0  1  0  0  3  0  0  0  0  0  0
  160.5540  201.7510  149.5050 C   0  0  0  0  0  1  0  0  0  0  0  0
  161.4750  205.0300  147.9660 N   0  0  0  0  0  0  0  0  0  0  0  0
  161.1800  203.6370  147.9110 C   0  0  0  0  0  0  0  0  0  0  0  0
  161.8820  205.8550  146.8380 C   0  0  0  0  0  2  0  0  0  0  0  0
  161.2250  205.4570  144.4830 C   0  0  0  0  0  1  0  0  0  0  0  0
  160.7500  205.9460  145.8360 C   0  0  0  0  0  2  0  0  0  0  0  0
  1 18  1  0  0  0  0
  2  3  1  1  0  0  0
  2  1  1  0  0  0  0
  2  4  1  0  0  0  0
  4 11  1  6  0  0  0
  4  5  1  0  0  0  0
  5  8  1  0  0  0  0
  6  8  1  0  0  0  0
  8 10  1  0  0  0  0
  8  7  1  1  0  0  0
 10  9  1  0  0  0  0
 12 11  1  0  0  0  0
 13 12  1  0  0  0  0
 15 17  1  0  0  0  0
 16 17  2  0  0  0  0
 17 14  1  0  0  0  0
 17 13  1  0  0  0  0
 19 18  1  0  0  0  0
 20 23  1  0  0  0  0
 20 26  1  1  0  0  0
 21 30  2  0  0  0  0
 22 27  1  0  0  0  0
 22 25  1  6  0  0  0
 23 24  1  6  0  0  0
 23 22  1  0  0  0  0
 24 28  1  0  0  0  0
 26 27  1  0  0  0  0
 27 19  1  1  0  0  0
 29 20  1  0  0  0  0
 30 29  1  0  0  0  0
 30 24  1  0  0  0  0
 31 29  1  0  0  0  0
 32 33  1  0  0  0  0
 33 31  1  0  0  0  0
M  END
>  <MODEL>
6

>  <REMARK>
 VINA RESULT:      -6.6      2.655      4.014
  Name = 
  14 active torsions:
  status: ('A' for Active; 'I' for Inactive)
    1  A    between atoms: C_6  and  C_24
    2  A    between atoms: C_7  and  C_23
    3  A    between atoms: C_7  and  C_27
    4  A    between atoms: C_8  and  O_11
    5  A    between atoms: C_8  and  C_17
    6  A    between atoms: C_8  and  C_29
    7  A    between atoms: N_9  and  C_25
    8  A    between atoms: N_9  and  C_29
    9  A    between atoms: O_11  and  C_33
   10  A    between atoms: C_17  and  C_23
   11  A    between atoms: P_20  and  C_25
   12  A    between atoms: C_22  and  C_33
   13  A    between atoms: C_24  and  N_30
   14  A    between atoms: C_26  and  C_27
                            x       y       z     vdW  Elec       q    Type
                         _______ _______ _______ _____ _____    ______ ____

>  <TORSDO>
F 14

$$$$
=
 OpenBabel11072412303D

 33 34  0  0  1  0  0  0  0  0999 V2000
  160.8360  208.4430  152.1230 C   0  0  0  0  0  2  0  0  0  0  0  0
  161.2610  209.9020  152.1120 C   0  0  2  0  0  3  0  0  0  0  0  0
  162.6550  209.9570  152.1640 O   0  0  0  0  0  1  0  0  0  0  0  0
  160.6550  210.6690  153.2930 C   0  0  2  0  0  3  0  0  0  0  0  0
  160.0790  209.7620  154.2060 O   0  0  0  0  0  0  0  0  0  0  0  0
  161.3510  208.5820  155.7530 O   0  0  0  0  0  1  0  0  0  0  0  0
  159.7460  210.1390  156.5210 C   0  0  0  0  0  1  0  0  0  0  0  0
  160.7640  209.8170  155.4450 C   0  0  2  0  0  0  0  0  0  0  0  0
  163.0670  210.4270  155.8510 O   0  0  0  0  0  1  0  0  0  0  0  0
  161.8270  210.9210  155.4390 C   0  0  0  0  0  2  0  0  0  0  0  0
  159.5690  211.6250  152.8030 C   0  0  0  0  0  2  0  0  0  0  0  0
  159.2150  212.5790  153.8450 N   0  0  0  0  0  2  0  0  0  0  0  0
  157.9590  213.2080  153.4640 C   0  0  0  0  0  2  0  0  0  0  0  0
  156.5420  211.2730  154.7580 O   0  0  0  0  0  1  0  0  0  0  0  0
  155.1860  213.4220  154.1320 O   0  0  0  0  0  0  0  0  0  0  0  0
  157.0450  213.4140  156.1750 O   0  0  0  0  0  1  0  0  0  0  0  0
  156.6590  212.7770  154.6570 P   0  0  0  0  0  0  0  0  0  0  0  0
  161.9880  207.5510  151.6860 C   0  0  0  0  0  2  0  0  0  0  0  0
  161.5530  206.0920  151.6040 C   0  0  0  0  0  2  0  0  0  0  0  0
  161.5350  203.7300  149.1670 C   0  0  1  0  0  3  0  0  0  0  0  0
  160.9800  203.0570  145.7390 O   0  0  0  0  0  0  0  0  0  0  0  0
  161.5900  206.0690  149.0910 C   0  0  1  0  0  3  0  0  0  0  0  0
  161.9530  204.9640  148.4520 C   0  0  2  0  0  3  0  0  0  0  0  0
  161.9350  204.7890  147.0320 N   0  0  0  0  0  0  0  0  0  0  0  0
  161.5690  207.4340  148.4930 C   0  0  0  0  0  1  0  0  0  0  0  0
  160.5140  204.2330  150.1820 C   0  0  0  0  0  2  0  0  0  0  0  0
  160.8050  205.7330  150.3140 C   0  0  1  0  0  3  0  0  0  0  0  0
  162.0520  205.8150  146.0060 C   0  0  0  0  0  1  0  0  0  0  0  0
  160.9370  202.9300  148.1050 N   0  0  0  0  0  0  0  0  0  0  0  0
  161.2670  203.5480  146.8640 C   0  0  0  0  0  0  0  0  0  0  0  0
  160.4320  201.5760  148.2680 C   0  0  0  0  0  2  0  0  0  0  0  0
  161.5830  199.8280  146.9410 C   0  0  0  0  0  1  0  0  0  0  0  0
  161.5840  200.5940  148.2490 C   0  0  0  0  0  2  0  0  0  0  0  0
  2  1  1  0  0  0  0
  2  3  1  1  0  0  0
  2  4  1  0  0  0  0
  4 11  1  6  0  0  0
  4  5  1  0  0  0  0
  5  8  1  0  0  0  0
  8  6  1  0  0  0  0
  8  7  1  1  0  0  0
 10  8  1  0  0  0  0
 10  9  1  0  0  0  0
 11 12  1  0  0  0  0
 13 12  1  0  0  0  0
 13 17  1  0  0  0  0
 15 17  2  0  0  0  0
 17 14  1  0  0  0  0
 17 16  1  0  0  0  0
 18  1  1  0  0  0  0
 19 18  1  0  0  0  0
 20 26  1  1  0  0  0
 21 30  2  0  0  0  0
 22 25  1  6  0  0  0
 22 27  1  0  0  0  0
 23 24  1  6  0  0  0
 23 22  1  0  0  0  0
 23 20  1  0  0  0  0
 26 27  1  0  0  0  0
 27 19  1  1  0  0  0
 28 24  1  0  0  0  0
 29 31  1  0  0  0  0
 29 20  1  0  0  0  0
 30 24  1  0  0  0  0
 30 29  1  0  0  0  0
 32 33  1  0  0  0  0
 33 31  1  0  0  0  0
M  END
>  <MODEL>
7

>  <REMARK>
 VINA RESULT:      -6.2      1.581      2.530
  Name = 
  14 active torsions:
  status: ('A' for Active; 'I' for Inactive)
    1  A    between atoms: C_6  and  C_24
    2  A    between atoms: C_7  and  C_23
    3  A    between atoms: C_7  and  C_27
    4  A    between atoms: C_8  and  O_11
    5  A    between atoms: C_8  and  C_17
    6  A    between atoms: C_8  and  C_29
    7  A    between atoms: N_9  and  C_25
    8  A    between atoms: N_9  and  C_29
    9  A    between atoms: O_11  and  C_33
   10  A    between atoms: C_17  and  C_23
   11  A    between atoms: P_20  and  C_25
   12  A    between atoms: C_22  and  C_33
   13  A    between atoms: C_24  and  N_30
   14  A    between atoms: C_26  and  C_27
                            x       y       z     vdW  Elec       q    Type
                         _______ _______ _______ _____ _____    ______ ____

>  <TORSDO>
F 14

$$$$
=
 OpenBabel11072412303D

 33 34  0  0  1  0  0  0  0  0999 V2000
  161.9600  206.5210  152.6010 C   0  0  0  0  0  2  0  0  0  0  0  0
  161.5580  207.3600  153.8030 C   0  0  2  0  0  3  0  0  0  0  0  0
  160.3490  206.8710  154.2990 O   0  0  0  0  0  1  0  0  0  0  0  0
  161.4190  208.8400  153.4290 C   0  0  2  0  0  3  0  0  0  0  0  0
  160.4070  209.4360  154.2080 O   0  0  0  0  0  0  0  0  0  0  0  0
  162.3030  210.6630  154.7570 O   0  0  0  0  0  1  0  0  0  0  0  0
  160.9460  209.7960  156.4870 C   0  0  0  0  0  1  0  0  0  0  0  0
  160.9710  210.3890  155.0930 C   0  0  2  0  0  0  0  0  0  0  0  0
  159.4880  211.8680  153.8870 O   0  0  0  0  0  1  0  0  0  0  0  0
  160.1510  211.6840  155.1030 C   0  0  0  0  0  2  0  0  0  0  0  0
  161.0470  208.9810  151.9540 C   0  0  0  0  0  2  0  0  0  0  0  0
  161.3570  210.3190  151.4710 N   0  0  0  0  0  2  0  0  0  0  0  0
  162.3300  210.1910  150.3960 C   0  0  0  0  0  2  0  0  0  0  0  0
  163.2420  212.0170  148.5910 O   0  0  0  0  0  1  0  0  0  0  0  0
  160.9300  212.5800  149.6770 O   0  0  0  0  0  1  0  0  0  0  0  0
  161.2060  210.5850  147.7870 O   0  0  0  0  0  0  0  0  0  0  0  0
  161.9590  211.3810  149.0750 P   0  0  0  0  0  0  0  0  0  0  0  0
  161.0560  205.3040  152.4760 C   0  0  0  0  0  2  0  0  0  0  0  0
  161.5550  204.3570  151.3910 C   0  0  0  0  0  2  0  0  0  0  0  0
  161.5640  203.0590  148.2550 C   0  0  1  0  0  3  0  0  0  0  0  0
  160.8830  203.6500  144.8350 O   0  0  0  0  0  0  0  0  0  0  0  0
  161.4680  205.2600  149.0480 C   0  0  1  0  0  3  0  0  0  0  0  0
  161.8680  204.4980  148.0370 C   0  0  2  0  0  3  0  0  0  0  0  0
  161.7890  204.8550  146.6530 N   0  0  0  0  0  0  0  0  0  0  0  0
  161.3310  206.7440  148.9960 C   0  0  0  0  0  1  0  0  0  0  0  0
  160.5660  203.0750  149.4070 C   0  0  0  0  0  2  0  0  0  0  0  0
  160.7680  204.4400  150.0770 C   0  0  1  0  0  3  0  0  0  0  0  0
  161.7900  206.1910  146.0770 C   0  0  0  0  0  1  0  0  0  0  0  0
  160.9660  202.6610  146.9860 N   0  0  0  0  0  0  0  0  0  0  0  0
  161.1940  203.7150  146.0550 C   0  0  0  0  0  0  0  0  0  0  0  0
  160.5560  201.3060  146.6500 C   0  0  0  0  0  2  0  0  0  0  0  0
  161.5850  199.0840  146.2710 C   0  0  0  0  0  1  0  0  0  0  0  0
  161.5910  200.3200  147.1490 C   0  0  0  0  0  2  0  0  0  0  0  0
  1  2  1  0  0  0  0
  2  3  1  6  0  0  0
  4 11  1  6  0  0  0
  4  2  1  0  0  0  0
  4  5  1  0  0  0  0
  5  8  1  0  0  0  0
  6  8  1  0  0  0  0
  8 10  1  0  0  0  0
  8  7  1  1  0  0  0
  9 10  1  0  0  0  0
 12 11  1  0  0  0  0
 13 12  1  0  0  0  0
 14 17  1  0  0  0  0
 16 17  2  0  0  0  0
 17 15  1  0  0  0  0
 17 13  1  0  0  0  0
 18  1  1  0  0  0  0
 19 18  1  0  0  0  0
 20 26  1  1  0  0  0
 21 30  2  0  0  0  0
 22 25  1  6  0  0  0
 22 27  1  0  0  0  0
 23 24  1  6  0  0  0
 23 20  1  0  0  0  0
 23 22  1  0  0  0  0
 26 27  1  0  0  0  0
 27 19  1  1  0  0  0
 28 24  1  0  0  0  0
 29 20  1  0  0  0  0
 30 24  1  0  0  0  0
 30 29  1  0  0  0  0
 31 29  1  0  0  0  0
 31 33  1  0  0  0  0
 32 33  1  0  0  0  0
M  END
>  <MODEL>
8

>  <REMARK>
 VINA RESULT:      -6.1      2.614      3.724
  Name = 
  14 active torsions:
  status: ('A' for Active; 'I' for Inactive)
    1  A    between atoms: C_6  and  C_24
    2  A    between atoms: C_7  and  C_23
    3  A    between atoms: C_7  and  C_27
    4  A    between atoms: C_8  and  O_11
    5  A    between atoms: C_8  and  C_17
    6  A    between atoms: C_8  and  C_29
    7  A    between atoms: N_9  and  C_25
    8  A    between atoms: N_9  and  C_29
    9  A    between atoms: O_11  and  C_33
   10  A    between atoms: C_17  and  C_23
   11  A    between atoms: P_20  and  C_25
   12  A    between atoms: C_22  and  C_33
   13  A    between atoms: C_24  and  N_30
   14  A    between atoms: C_26  and  C_27
                            x       y       z     vdW  Elec       q    Type
                         _______ _______ _______ _____ _____    ______ ____

>  <TORSDO>
F 14

$$$$
=
 OpenBabel11072412303D

 33 34  0  0  1  0  0  0  0  0999 V2000
  162.2880  207.4920  149.8590 C   0  0  0  0  0  2  0  0  0  0  0  0
  161.4800  206.4700  150.6430 C   0  0  2  0  0  3  0  0  0  0  0  0
  162.3170  205.8720  151.5860 O   0  0  0  0  0  1  0  0  0  0  0  0
  160.8770  205.4070  149.7180 C   0  0  2  0  0  3  0  0  0  0  0  0
  161.6210  204.2140  149.8130 O   0  0  0  0  0  0  0  0  0  0  0  0
  159.7320  203.7240  151.0750 O   0  0  0  0  0  1  0  0  0  0  0  0
  161.6910  202.4350  151.3770 C   0  0  0  0  0  1  0  0  0  0  0  0
  160.8280  203.1880  150.3850 C   0  0  2  0  0  0  0  0  0  0  0  0
  160.4430  200.8830  149.7680 O   0  0  0  0  0  1  0  0  0  0  0  0
  160.3480  202.2020  149.3140 C   0  0  0  0  0  2  0  0  0  0  0  0
  160.9070  205.8880  148.2680 C   0  0  0  0  0  2  0  0  0  0  0  0
  161.7750  205.0400  147.4630 N   0  0  0  0  0  2  0  0  0  0  0  0
  162.0670  205.7490  146.2260 C   0  0  0  0  0  2  0  0  0  0  0  0
  159.5960  205.8190  145.0800 O   0  0  0  0  0  1  0  0  0  0  0  0
  160.8050  203.5010  144.9870 O   0  0  0  0  0  1  0  0  0  0  0  0
  161.5910  205.6210  143.4010 O   0  0  0  0  0  0  0  0  0  0  0  0
  160.9560  205.1830  144.9060 P   0  0  0  0  0  0  0  0  0  0  0  0
  161.7930  208.8990  150.1560 C   0  0  0  0  0  2  0  0  0  0  0  0
  162.0670  209.2840  151.6060 C   0  0  0  0  0  2  0  0  0  0  0  0
  160.7680  211.1640  154.1160 C   0  0  1  0  0  3  0  0  0  0  0  0
  158.7360  211.1890  157.0110 O   0  0  0  0  0  0  0  0  0  0  0  0
  161.0240  208.8510  153.8510 C   0  0  1  0  0  3  0  0  0  0  0  0
  160.9640  209.8310  154.7450 C   0  0  2  0  0  3  0  0  0  0  0  0
  160.3220  209.7450  156.0210 N   0  0  0  0  0  0  0  0  0  0  0  0
  160.8880  207.4000  154.1650 C   0  0  0  0  0  1  0  0  0  0  0  0
  160.3360  210.8260  152.6930 C   0  0  0  0  0  2  0  0  0  0  0  0
  160.8070  209.3830  152.4750 C   0  0  1  0  0  3  0  0  0  0  0  0
  160.0940  208.5530  156.8250 C   0  0  0  0  0  1  0  0  0  0  0  0
  159.6950  211.7420  154.9160 N   0  0  0  0  0  0  0  0  0  0  0  0
  159.5240  210.9170  156.0650 C   0  0  0  0  0  0  0  0  0  0  0  0
  159.1730  213.0900  154.7550 C   0  0  0  0  0  2  0  0  0  0  0  0
  156.9340  214.1250  154.5210 C   0  0  0  0  0  1  0  0  0  0  0  0
  157.8600  213.0430  154.0020 C   0  0  0  0  0  2  0  0  0  0  0  0
  1 18  1  0  0  0  0
  1  2  1  0  0  0  0
  2  3  1  1  0  0  0
  4 11  1  6  0  0  0
  4  5  1  0  0  0  0
  4  2  1  0  0  0  0
  5  8  1  0  0  0  0
  8  6  1  0  0  0  0
  8  7  1  1  0  0  0
 10  9  1  0  0  0  0
 10  8  1  0  0  0  0
 12 11  1  0  0  0  0
 13 12  1  0  0  0  0
 16 17  2  0  0  0  0
 17 15  1  0  0  0  0
 17 14  1  0  0  0  0
 17 13  1  0  0  0  0
 18 19  1  0  0  0  0
 20 26  1  6  0  0  0
 20 23  1  0  0  0  0
 20 29  1  0  0  0  0
 22 25  1  1  0  0  0
 22 23  1  0  0  0  0
 23 24  1  1  0  0  0
 24 30  1  0  0  0  0
 24 28  1  0  0  0  0
 27 19  1  6  0  0  0
 27 26  1  0  0  0  0
 27 22  1  0  0  0  0
 29 30  1  0  0  0  0
 30 21  2  0  0  0  0
 31 29  1  0  0  0  0
 33 32  1  0  0  0  0
 33 31  1  0  0  0  0
M  END
>  <MODEL>
9

>  <REMARK>
 VINA RESULT:      -6.1      3.209      9.346
  Name = 
  14 active torsions:
  status: ('A' for Active; 'I' for Inactive)
    1  A    between atoms: C_6  and  C_24
    2  A    between atoms: C_7  and  C_23
    3  A    between atoms: C_7  and  C_27
    4  A    between atoms: C_8  and  O_11
    5  A    between atoms: C_8  and  C_17
    6  A    between atoms: C_8  and  C_29
    7  A    between atoms: N_9  and  C_25
    8  A    between atoms: N_9  and  C_29
    9  A    between atoms: O_11  and  C_33
   10  A    between atoms: C_17  and  C_23
   11  A    between atoms: P_20  and  C_25
   12  A    between atoms: C_22  and  C_33
   13  A    between atoms: C_24  and  N_30
   14  A    between atoms: C_26  and  C_27
                            x       y       z     vdW  Elec       q    Type
                         _______ _______ _______ _____ _____    ______ ____

>  <TORSDO>
F 14

$$$$
