=
 OpenBabel11072410433D

 50 53  0  0  1  0  0  0  0  0999 V2000
  163.5570  206.7190  148.5210 O   0  0  0  0  0  1  0  0  0  0  0  0
  160.5420  202.6020  150.2300 C   0  0  0  0  0  2  0  0  0  0  0  0
  161.2350  202.5720  151.5830 C   0  0  0  0  0  2  0  0  0  0  0  0
  160.9400  203.8240  152.4020 C   0  0  0  0  0  2  0  0  0  0  0  0
  161.7210  206.7110  150.0410 C   0  0  2  0  0  3  0  0  0  0  0  0
  161.7290  205.2250  147.9240 C   0  0  2  0  0  3  0  0  0  0  0  0
  161.7200  205.0230  151.8890 C   0  0  0  0  0  2  0  0  0  0  0  0
  162.5620  205.8950  149.0480 C   0  0  1  0  0  3  0  0  0  0  0  0
  160.8560  205.8310  150.9360 C   0  0  0  0  0  2  0  0  0  0  0  0
  161.4660  203.1900  149.1820 C   0  0  0  0  0  2  0  0  0  0  0  0
  160.7700  204.2510  148.4650 N   0  0  0  0  0  2  0  0  0  0  0  0
  160.8270  203.1160  145.7650 C   0  0  1  0  0  3  0  0  0  0  0  0
  162.2040  203.1810  146.4290 C   0  0  0  0  0  2  0  0  0  0  0  0
  162.5900  204.6260  146.7860 C   0  0  1  0  0  3  0  0  0  0  0  0
  160.8090  203.9760  144.5060 C   0  0  0  0  0  2  0  0  0  0  0  0
  162.5370  205.4950  145.5210 C   0  0  0  0  0  2  0  0  0  0  0  0
  161.1630  205.4220  144.8540 C   0  0  1  0  0  3  0  0  0  0  0  0
  160.2590  200.5840  145.1360 C   0  0  0  0  0  0  0  0  0  0  0  0
  159.9510  199.1970  144.7940 C   0  0  0  0  0  1  0  0  0  0  0  0
  160.5140  201.7290  145.4190 C   0  0  0  0  0  0  0  0  0  0  0  0
  161.1010  206.3100  143.6180 C   0  0  0  0  0  2  0  0  0  0  0  0
  162.1210  205.9370  142.6500 N   0  0  0  0  0  2  0  0  0  0  0  0
  161.5490  206.1560  141.3330 C   0  0  0  0  0  2  0  0  0  0  0  0
  162.6100  206.4680  139.1200 C   0  0  0  0  0  1  0  0  0  0  0  0
  162.4680  207.0420  140.5130 C   0  0  1  0  0  3  0  0  0  0  0  0
  161.9360  208.3270  140.4310 O   0  0  0  0  0  1  0  0  0  0  0  0
  160.8990  207.6880  149.3420 N   0  0  0  0  0  2  0  0  0  0  0  0
  160.9430  208.8690  150.0950 N   0  0  0  0  0  2  0  0  0  0  0  0
  162.5170  209.8760  148.6970 O   0  0  0  0  0  0  0  0  0  0  0  0
  161.7760  209.9640  149.7100 C   0  0  0  0  0  0  0  0  0  0  0  0
  161.9710  212.6060  148.5480 O   0  0  0  0  0  0  0  0  0  0  0  0
  160.4390  212.4010  152.3050 C   0  0  1  0  0  3  0  0  0  0  0  0
  161.7440  211.2340  150.4970 C   0  0  1  0  0  3  0  0  0  0  0  0
  160.2910  213.2970  150.0160 N   0  0  0  0  0  0  0  0  0  0  0  0
  159.5820  213.1370  151.2870 C   0  0  0  0  0  2  0  0  0  0  0  0
  159.6380  212.1810  153.5710 C   0  0  0  0  0  1  0  0  0  0  0  0
  161.3390  212.3940  149.6200 C   0  0  0  0  0  0  0  0  0  0  0  0
  160.8340  211.0580  151.7150 C   0  0  0  0  0  2  0  0  0  0  0  0
  159.9550  214.3360  149.2090 O   0  0  0  0  0  0  0  0  0  0  0  0
  158.5530  214.2930  149.1080 C   0  0  0  0  0  2  0  0  0  0  0  0
  158.6420  213.4570  145.6100 C   0  0  2  0  0  0  0  0  0  0  0  0
  158.4590  214.4530  144.4790 C   0  0  0  0  0  1  0  0  0  0  0  0
  157.2920  212.9360  146.0390 C   0  0  0  0  0  2  0  0  0  0  0  0
  155.8190  214.0890  147.4960 F   0  0  0  0  0  0  0  0  0  0  0  0
  157.0590  213.4770  147.4360 C   0  0  2  0  0  3  0  0  0  0  0  0
  159.2140  214.1510  146.8290 C   0  0  0  0  0  2  0  0  0  0  0  0
  158.1040  214.4530  147.7250 N   0  0  0  0  0  0  0  0  0  0  0  0
  159.5310  212.2990  145.1730 C   0  0  0  0  0  2  0  0  0  0  0  0
  160.8850  212.3580  143.4300 C   0  0  0  0  0  1  0  0  0  0  0  0
  160.7840  212.7630  144.7590 O   0  0  0  0  0  0  0  0  0  0  0  0
  2  3  1  0  0  0  0
  3  4  1  0  0  0  0
  5 27  1  6  0  0  0
  5  9  1  0  0  0  0
  6 11  1  1  0  0  0
  6  8  1  0  0  0  0
  7  4  1  0  0  0  0
  8  1  1  6  0  0  0
  8  5  1  0  0  0  0
  9  7  1  0  0  0  0
 10  2  1  0  0  0  0
 11 10  1  0  0  0  0
 12 20  1  6  0  0  0
 12 13  1  0  0  0  0
 13 14  1  0  0  0  0
 14 16  1  6  0  0  0
 14  6  1  0  0  0  0
 15 17  1  0  0  0  0
 15 12  1  0  0  0  0
 17 21  1  6  0  0  0
 17 16  1  0  0  0  0
 18 20  3  0  0  0  0
 19 18  1  0  0  0  0
 22 21  1  0  0  0  0
 23 22  1  0  0  0  0
 25 24  1  6  0  0  0
 25 23  1  0  0  0  0
 26 25  1  0  0  0  0
 27 28  1  0  0  0  0
 29 30  2  0  0  0  0
 30 28  1  0  0  0  0
 31 37  2  0  0  0  0
 32 36  1  1  0  0  0
 33 30  1  6  0  0  0
 33 38  1  0  0  0  0
 34 35  1  0  0  0  0
 35 32  1  0  0  0  0
 37 34  1  0  0  0  0
 37 33  1  0  0  0  0
 38 32  1  0  0  0  0
 39 34  1  0  0  0  0
 40 39  1  0  0  0  0
 41 42  1  6  0  0  0
 41 43  1  0  0  0  0
 41 46  1  0  0  0  0
 43 45  1  0  0  0  0
 45 44  1  6  0  0  0
 45 47  1  0  0  0  0
 46 47  1  0  0  0  0
 47 40  1  0  0  0  0
 48 41  1  0  0  0  0
 49 50  1  0  0  0  0
 50 48  1  0  0  0  0
M  END
>  <MODEL>
1

>  <REMARK>
 VINA RESULT:      -3.5      0.000      0.000
  Name = 
  14 active torsions:
  status: ('A' for Active; 'I' for Inactive)
    1  A    between atoms: C_2  and  N_14
    2  A    between atoms: C_2  and  C_42
    3  A    between atoms: C_3  and  C_12
    4  A    between atoms: C_5  and  N_14
    5  A    between atoms: C_5  and  C_41
    6  A    between atoms: N_11  and  N_43
    7  A    between atoms: C_12  and  O_36
    8  A    between atoms: C_19  and  C_24
    9  A    between atoms: C_22  and  C_50
   10  A    between atoms: C_23  and  N_43
   11  A    between atoms: N_25  and  C_31
   12  A    between atoms: C_28  and  C_32
   13  A    between atoms: C_31  and  O_37
   14  A    between atoms: N_33  and  O_37
                            x       y       z     vdW  Elec       q    Type
                         _______ _______ _______ _____ _____    ______ ____

>  <TORSDO>
F 14

$$$$
=
 OpenBabel11072410433D

 50 53  0  0  1  0  0  0  0  0999 V2000
  163.2680  210.1880  151.4830 O   0  0  0  0  0  1  0  0  0  0  0  0
  160.0660  213.8640  149.2010 C   0  0  0  0  0  2  0  0  0  0  0  0
  161.1890  214.3890  148.3220 C   0  0  0  0  0  2  0  0  0  0  0  0
  161.6360  213.3590  147.2900 C   0  0  0  0  0  2  0  0  0  0  0  0
  162.2680  210.1960  149.3190 C   0  0  2  0  0  3  0  0  0  0  0  0
  160.9910  211.0500  151.4000 C   0  0  2  0  0  3  0  0  0  0  0  0
  162.4770  212.2640  147.9240 C   0  0  0  0  0  2  0  0  0  0  0  0
  162.3590  210.8880  150.6870 C   0  0  1  0  0  3  0  0  0  0  0  0
  161.6000  211.0710  148.2660 C   0  0  0  0  0  2  0  0  0  0  0  0
  160.6360  213.2360  150.4570 C   0  0  0  0  0  2  0  0  0  0  0  0
  160.0740  211.9020  150.6290 N   0  0  0  0  0  2  0  0  0  0  0  0
  158.6620  211.2960  153.5070 C   0  0  1  0  0  3  0  0  0  0  0  0
  159.8590  212.2410  153.3850 C   0  0  0  0  0  2  0  0  0  0  0  0
  161.1080  211.5040  152.8750 C   0  0  1  0  0  3  0  0  0  0  0  0
  158.9960  210.1430  154.4470 C   0  0  0  0  0  2  0  0  0  0  0  0
  161.4210  210.3240  153.8060 C   0  0  0  0  0  2  0  0  0  0  0  0
  160.2190  209.3850  153.9340 C   0  0  1  0  0  3  0  0  0  0  0  0
  156.5550  212.6400  154.4460 C   0  0  0  0  0  0  0  0  0  0  0  0
  155.4030  213.3760  154.9650 C   0  0  0  0  0  1  0  0  0  0  0  0
  157.5060  212.0330  154.0210 C   0  0  0  0  0  0  0  0  0  0  0  0
  160.5410  208.1970  154.8310 C   0  0  0  0  0  2  0  0  0  0  0  0
  160.5570  208.5850  156.2330 N   0  0  0  0  0  2  0  0  0  0  0  0
  161.9490  208.7720  156.6010 C   0  0  0  0  0  2  0  0  0  0  0  0
  163.3900  210.7790  156.7290 C   0  0  0  0  0  1  0  0  0  0  0  0
  162.1320  210.1270  157.2590 C   0  0  1  0  0  3  0  0  0  0  0  0
  161.0360  210.9410  156.9770 O   0  0  0  0  0  1  0  0  0  0  0  0
  161.5780  208.9190  149.4310 N   0  0  0  0  0  2  0  0  0  0  0  0
  162.1750  208.0530  148.5050 N   0  0  0  0  0  2  0  0  0  0  0  0
  160.2630  206.7320  148.2880 O   0  0  0  0  0  0  0  0  0  0  0  0
  161.4500  206.9590  147.9390 C   0  0  0  0  0  0  0  0  0  0  0  0
  162.4920  204.3070  148.4400 O   0  0  0  0  0  0  0  0  0  0  0  0
  161.7570  205.2480  144.5570 C   0  0  1  0  0  3  0  0  0  0  0  0
  162.0960  206.0980  146.9010 C   0  0  1  0  0  3  0  0  0  0  0  0
  161.5600  203.6350  146.4070 N   0  0  0  0  0  0  0  0  0  0  0  0
  161.1040  203.9690  145.0570 C   0  0  0  0  0  2  0  0  0  0  0  0
  161.1940  205.6030  143.1970 C   0  0  0  0  0  1  0  0  0  0  0  0
  162.0460  204.6460  147.3090 C   0  0  0  0  0  0  0  0  0  0  0  0
  161.4440  206.3610  145.5420 C   0  0  0  0  0  2  0  0  0  0  0  0
  161.5350  202.3360  146.8000 O   0  0  0  0  0  0  0  0  0  0  0  0
  160.3120  202.1710  147.4740 C   0  0  0  0  0  2  0  0  0  0  0  0
  161.2890  202.4790  150.9230 C   0  0  2  0  0  0  0  0  0  0  0  0
  161.9660  201.3860  151.7300 C   0  0  0  0  0  1  0  0  0  0  0  0
  159.7920  202.3140  151.0180 C   0  0  0  0  0  2  0  0  0  0  0  0
  158.5330  200.7850  149.7160 F   0  0  0  0  0  0  0  0  0  0  0  0
  159.3250  201.9160  149.6320 C   0  0  2  0  0  3  0  0  0  0  0  0
  161.6200  202.3250  149.4540 C   0  0  0  0  0  2  0  0  0  0  0  0
  160.5050  201.6320  148.8210 N   0  0  0  0  0  0  0  0  0  0  0  0
  161.6930  203.8580  151.4320 C   0  0  0  0  0  2  0  0  0  0  0  0
  161.0940  205.9460  151.8280 C   0  0  0  0  0  1  0  0  0  0  0  0
  160.7220  204.8110  151.1100 O   0  0  0  0  0  0  0  0  0  0  0  0
  2 10  1  0  0  0  0
  3  2  1  0  0  0  0
  4  7  1  0  0  0  0
  4  3  1  0  0  0  0
  5 27  1  1  0  0  0
  5  8  1  0  0  0  0
  6 11  1  6  0  0  0
  6 14  1  0  0  0  0
  7  9  1  0  0  0  0
  8  6  1  0  0  0  0
  8  1  1  1  0  0  0
  9  5  1  0  0  0  0
 10 11  1  0  0  0  0
 12 20  1  1  0  0  0
 12 15  1  0  0  0  0
 13 12  1  0  0  0  0
 14 13  1  1  0  0  0
 14 16  1  0  0  0  0
 16 17  1  0  0  0  0
 17 15  1  0  0  0  0
 17 21  1  1  0  0  0
 18 19  1  0  0  0  0
 20 18  3  0  0  0  0
 21 22  1  0  0  0  0
 22 23  1  0  0  0  0
 23 25  1  0  0  0  0
 25 24  1  6  0  0  0
 26 25  1  0  0  0  0
 28 27  1  0  0  0  0
 30 29  2  0  0  0  0
 30 28  1  0  0  0  0
 32 36  1  6  0  0  0
 32 35  1  0  0  0  0
 32 38  1  0  0  0  0
 33 37  1  0  0  0  0
 33 30  1  1  0  0  0
 34 39  1  0  0  0  0
 34 37  1  0  0  0  0
 35 34  1  0  0  0  0
 37 31  2  0  0  0  0
 38 33  1  0  0  0  0
 39 40  1  0  0  0  0
 40 47  1  0  0  0  0
 41 43  1  0  0  0  0
 41 48  1  0  0  0  0
 41 42  1  1  0  0  0
 45 44  1  1  0  0  0
 45 43  1  0  0  0  0
 46 41  1  0  0  0  0
 47 46  1  0  0  0  0
 47 45  1  0  0  0  0
 50 48  1  0  0  0  0
 50 49  1  0  0  0  0
M  END
>  <MODEL>
2

>  <REMARK>
 VINA RESULT:      -2.8      3.487     11.209
  Name = 
  14 active torsions:
  status: ('A' for Active; 'I' for Inactive)
    1  A    between atoms: C_2  and  N_14
    2  A    between atoms: C_2  and  C_42
    3  A    between atoms: C_3  and  C_12
    4  A    between atoms: C_5  and  N_14
    5  A    between atoms: C_5  and  C_41
    6  A    between atoms: N_11  and  N_43
    7  A    between atoms: C_12  and  O_36
    8  A    between atoms: C_19  and  C_24
    9  A    between atoms: C_22  and  C_50
   10  A    between atoms: C_23  and  N_43
   11  A    between atoms: N_25  and  C_31
   12  A    between atoms: C_28  and  C_32
   13  A    between atoms: C_31  and  O_37
   14  A    between atoms: N_33  and  O_37
                            x       y       z     vdW  Elec       q    Type
                         _______ _______ _______ _____ _____    ______ ____

>  <TORSDO>
F 14

$$$$
=
 OpenBabel11072410433D

 50 53  0  0  1  0  0  0  0  0999 V2000
  162.2210  210.9010  153.6280 O   0  0  0  0  0  1  0  0  0  0  0  0
  159.5240  213.7990  149.9810 C   0  0  0  0  0  2  0  0  0  0  0  0
  160.7700  214.0190  149.1400 C   0  0  0  0  0  2  0  0  0  0  0  0
  161.2760  212.7210  148.5200 C   0  0  0  0  0  2  0  0  0  0  0  0
  161.4850  210.2880  151.4450 C   0  0  2  0  0  3  0  0  0  0  0  0
  160.0230  211.7440  153.0040 C   0  0  2  0  0  3  0  0  0  0  0  0
  161.9740  211.8460  149.5480 C   0  0  0  0  0  2  0  0  0  0  0  0
  161.4540  211.3520  152.5520 C   0  0  1  0  0  3  0  0  0  0  0  0
  160.9960  210.8260  150.1050 C   0  0  0  0  0  2  0  0  0  0  0  0
  159.9060  213.5610  151.4290 C   0  0  0  0  0  2  0  0  0  0  0  0
  159.2530  212.3480  151.9070 N   0  0  0  0  0  2  0  0  0  0  0  0
  157.5260  212.3650  154.8220 C   0  0  1  0  0  3  0  0  0  0  0  0
  158.6540  213.3440  154.4910 C   0  0  0  0  0  2  0  0  0  0  0  0
  159.9910  212.6120  154.2860 C   0  0  1  0  0  3  0  0  0  0  0  0
  157.8710  211.5680  156.0750 C   0  0  0  0  0  2  0  0  0  0  0  0
  160.3180  211.7840  155.5370 C   0  0  0  0  0  2  0  0  0  0  0  0
  159.1840  210.8130  155.8700 C   0  0  1  0  0  3  0  0  0  0  0  0
  155.2550  213.7160  155.2100 C   0  0  0  0  0  0  0  0  0  0  0  0
  154.0110  214.4530  155.4180 C   0  0  0  0  0  1  0  0  0  0  0  0
  156.2820  213.1070  155.0360 C   0  0  0  0  0  0  0  0  0  0  0  0
  159.5230  209.9690  157.0920 C   0  0  0  0  0  2  0  0  0  0  0  0
  160.8430  209.3710  156.9690 N   0  0  0  0  0  2  0  0  0  0  0  0
  160.8950  208.7360  155.6630 C   0  0  0  0  0  2  0  0  0  0  0  0
  159.7700  206.8880  156.8640 C   0  0  0  0  0  1  0  0  0  0  0  0
  160.8100  207.2290  155.8190 C   0  0  1  0  0  3  0  0  0  0  0  0
  160.4520  206.6480  154.6040 O   0  0  0  0  0  1  0  0  0  0  0  0
  160.7160  209.1160  151.8330 N   0  0  0  0  0  2  0  0  0  0  0  0
  161.0770  208.0840  150.9560 N   0  0  0  0  0  2  0  0  0  0  0  0
  162.6040  207.1480  152.4520 O   0  0  0  0  0  0  0  0  0  0  0  0
  162.0370  207.0940  151.3300 C   0  0  0  0  0  0  0  0  0  0  0  0
  161.2180  204.3520  151.7560 O   0  0  0  0  0  0  0  0  0  0  0  0
  162.2610  205.3490  147.9580 C   0  0  1  0  0  3  0  0  0  0  0  0
  162.3450  205.9680  150.3960 C   0  0  1  0  0  3  0  0  0  0  0  0
  160.6840  204.2340  149.4860 N   0  0  0  0  0  0  0  0  0  0  0  0
  160.8940  204.7010  148.1140 C   0  0  0  0  0  2  0  0  0  0  0  0
  162.4020  205.8940  146.5530 C   0  0  0  0  0  1  0  0  0  0  0  0
  161.3770  204.8280  150.5980 C   0  0  0  0  0  0  0  0  0  0  0  0
  162.3660  206.4890  148.9570 C   0  0  0  0  0  2  0  0  0  0  0  0
  159.8250  203.2050  149.6980 O   0  0  0  0  0  0  0  0  0  0  0  0
  160.6090  202.0400  149.6250 C   0  0  0  0  0  2  0  0  0  0  0  0
  160.5610  201.6950  146.0440 C   0  0  2  0  0  0  0  0  0  0  0  0
  159.5040  200.9350  145.2630 C   0  0  0  0  0  1  0  0  0  0  0  0
  161.6590  200.7430  146.4520 C   0  0  0  0  0  2  0  0  0  0  0  0
  161.5400  199.2920  148.3230 F   0  0  0  0  0  0  0  0  0  0  0  0
  161.5740  200.6270  147.9610 C   0  0  2  0  0  3  0  0  0  0  0  0
  159.9780  202.2190  147.3390 C   0  0  0  0  0  2  0  0  0  0  0  0
  160.3480  201.2870  148.3980 N   0  0  0  0  0  0  0  0  0  0  0  0
  161.1410  202.8300  145.2070 C   0  0  0  0  0  2  0  0  0  0  0  0
  160.8180  204.7370  144.1410 C   0  0  0  0  0  1  0  0  0  0  0  0
  160.1520  203.7660  144.8870 O   0  0  0  0  0  0  0  0  0  0  0  0
  2 10  1  0  0  0  0
  3  2  1  0  0  0  0
  4  3  1  0  0  0  0
  4  7  1  0  0  0  0
  5 27  1  1  0  0  0
  5  8  1  0  0  0  0
  6 11  1  6  0  0  0
  6 14  1  0  0  0  0
  7  9  1  0  0  0  0
  8  6  1  0  0  0  0
  8  1  1  1  0  0  0
  9  5  1  0  0  0  0
 10 11  1  0  0  0  0
 12 20  1  1  0  0  0
 12 15  1  0  0  0  0
 13 12  1  0  0  0  0
 14 13  1  1  0  0  0
 14 16  1  0  0  0  0
 16 17  1  0  0  0  0
 17 15  1  0  0  0  0
 17 21  1  1  0  0  0
 18 19  1  0  0  0  0
 20 18  3  0  0  0  0
 22 21  1  0  0  0  0
 23 25  1  0  0  0  0
 23 22  1  0  0  0  0
 25 24  1  1  0  0  0
 26 25  1  0  0  0  0
 28 30  1  0  0  0  0
 28 27  1  0  0  0  0
 30 29  2  0  0  0  0
 32 36  1  6  0  0  0
 32 35  1  0  0  0  0
 32 38  1  0  0  0  0
 33 37  1  0  0  0  0
 33 30  1  1  0  0  0
 34 39  1  0  0  0  0
 34 37  1  0  0  0  0
 35 34  1  0  0  0  0
 37 31  2  0  0  0  0
 38 33  1  0  0  0  0
 40 39  1  0  0  0  0
 41 42  1  6  0  0  0
 41 43  1  0  0  0  0
 41 46  1  0  0  0  0
 43 45  1  0  0  0  0
 45 44  1  6  0  0  0
 45 47  1  0  0  0  0
 46 47  1  0  0  0  0
 47 40  1  0  0  0  0
 48 41  1  0  0  0  0
 49 50  1  0  0  0  0
 50 48  1  0  0  0  0
M  END
>  <MODEL>
3

>  <REMARK>
 VINA RESULT:      -2.8      3.989     11.351
  Name = 
  14 active torsions:
  status: ('A' for Active; 'I' for Inactive)
    1  A    between atoms: C_2  and  N_14
    2  A    between atoms: C_2  and  C_42
    3  A    between atoms: C_3  and  C_12
    4  A    between atoms: C_5  and  N_14
    5  A    between atoms: C_5  and  C_41
    6  A    between atoms: N_11  and  N_43
    7  A    between atoms: C_12  and  O_36
    8  A    between atoms: C_19  and  C_24
    9  A    between atoms: C_22  and  C_50
   10  A    between atoms: C_23  and  N_43
   11  A    between atoms: N_25  and  C_31
   12  A    between atoms: C_28  and  C_32
   13  A    between atoms: C_31  and  O_37
   14  A    between atoms: N_33  and  O_37
                            x       y       z     vdW  Elec       q    Type
                         _______ _______ _______ _____ _____    ______ ____

>  <TORSDO>
F 14

$$$$
=
 OpenBabel11072410433D

 50 53  0  0  1  0  0  0  0  0999 V2000
  163.2390  210.0850  151.6870 O   0  0  0  0  0  1  0  0  0  0  0  0
  159.6650  213.6460  149.8120 C   0  0  0  0  0  2  0  0  0  0  0  0
  160.6920  214.2910  148.8960 C   0  0  0  0  0  2  0  0  0  0  0  0
  161.1370  213.3470  147.7840 C   0  0  0  0  0  2  0  0  0  0  0  0
  162.1020  210.1350  149.5920 C   0  0  2  0  0  3  0  0  0  0  0  0
  160.9110  210.7930  151.7920 C   0  0  2  0  0  3  0  0  0  0  0  0
  162.0860  212.2810  148.3030 C   0  0  0  0  0  2  0  0  0  0  0  0
  162.2380  210.7610  150.9880 C   0  0  1  0  0  3  0  0  0  0  0  0
  161.3120  211.0160  148.6320 C   0  0  0  0  0  2  0  0  0  0  0  0
  160.3550  212.9960  150.9950 C   0  0  0  0  0  2  0  0  0  0  0  0
  159.8930  211.6190  151.1270 N   0  0  0  0  0  2  0  0  0  0  0  0
  158.6520  211.1550  153.9570 C   0  0  1  0  0  3  0  0  0  0  0  0
  159.9220  211.9990  153.8440 C   0  0  0  0  0  2  0  0  0  0  0  0
  161.0940  211.1790  153.2800 C   0  0  1  0  0  3  0  0  0  0  0  0
  158.9030  209.9430  154.8470 C   0  0  0  0  0  2  0  0  0  0  0  0
  161.3220  209.9420  154.1600 C   0  0  0  0  0  2  0  0  0  0  0  0
  160.0470  209.1040  154.2790 C   0  0  1  0  0  3  0  0  0  0  0  0
  156.6840  212.6340  154.9910 C   0  0  0  0  0  0  0  0  0  0  0  0
  155.6070  213.4410  155.5610 C   0  0  0  0  0  1  0  0  0  0  0  0
  157.5730  211.9670  154.5230 C   0  0  0  0  0  0  0  0  0  0  0  0
  160.2830  207.8590  155.1250 C   0  0  0  0  0  2  0  0  0  0  0  0
  161.5770  207.2620  154.8330 N   0  0  0  0  0  2  0  0  0  0  0  0
  161.3550  206.2660  153.7990 C   0  0  0  0  0  2  0  0  0  0  0  0
  162.9030  206.1800  151.8710 C   0  0  0  0  0  1  0  0  0  0  0  0
  161.6740  206.8560  152.4380 C   0  0  1  0  0  3  0  0  0  0  0  0
  160.5980  206.6590  151.5740 O   0  0  0  0  0  1  0  0  0  0  0  0
  161.5050  208.8110  149.6760 N   0  0  0  0  0  2  0  0  0  0  0  0
  162.1300  208.0210  148.7010 N   0  0  0  0  0  2  0  0  0  0  0  0
  160.2390  206.7000  148.3490 O   0  0  0  0  0  0  0  0  0  0  0  0
  161.4300  206.9650  148.0420 C   0  0  0  0  0  0  0  0  0  0  0  0
  162.6400  204.3630  148.4090 O   0  0  0  0  0  0  0  0  0  0  0  0
  161.7730  205.4200  144.5840 C   0  0  1  0  0  3  0  0  0  0  0  0
  162.1050  206.1890  146.9570 C   0  0  1  0  0  3  0  0  0  0  0  0
  161.7100  203.7210  146.3650 N   0  0  0  0  0  0  0  0  0  0  0  0
  161.2080  204.0830  145.0390 C   0  0  0  0  0  2  0  0  0  0  0  0
  161.1620  205.7970  143.2500 C   0  0  0  0  0  1  0  0  0  0  0  0
  162.1520  204.7200  147.3020 C   0  0  0  0  0  0  0  0  0  0  0  0
  161.4120  206.4690  145.6210 C   0  0  0  0  0  2  0  0  0  0  0  0
  161.7710  202.4070  146.7010 O   0  0  0  0  0  0  0  0  0  0  0  0
  160.4350  201.9750  146.7720 C   0  0  0  0  0  2  0  0  0  0  0  0
  160.9540  201.2630  150.2610 C   0  0  2  0  0  0  0  0  0  0  0  0
  160.9540  199.8710  150.8670 C   0  0  0  0  0  1  0  0  0  0  0  0
  159.5430  201.7980  150.2400 C   0  0  0  0  0  2  0  0  0  0  0  0
  157.9310  201.2460  148.5920 F   0  0  0  0  0  0  0  0  0  0  0  0
  159.1470  201.8790  148.7790 C   0  0  2  0  0  3  0  0  0  0  0  0
  161.3840  201.2000  148.8100 C   0  0  0  0  0  2  0  0  0  0  0  0
  160.1770  201.2090  147.9920 N   0  0  0  0  0  0  0  0  0  0  0  0
  161.8540  202.2010  151.0570 C   0  0  0  0  0  2  0  0  0  0  0  0
  160.7710  203.3060  152.6320 C   0  0  0  0  0  1  0  0  0  0  0  0
  161.2060  203.4130  151.3120 O   0  0  0  0  0  0  0  0  0  0  0  0
  2 10  1  0  0  0  0
  3  2  1  0  0  0  0
  4  7  1  0  0  0  0
  4  3  1  0  0  0  0
  5 27  1  1  0  0  0
  5  8  1  0  0  0  0
  6 11  1  6  0  0  0
  6 14  1  0  0  0  0
  7  9  1  0  0  0  0
  8  1  1  1  0  0  0
  8  6  1  0  0  0  0
  9  5  1  0  0  0  0
 10 11  1  0  0  0  0
 12 20  1  1  0  0  0
 12 15  1  0  0  0  0
 13 12  1  0  0  0  0
 14 13  1  1  0  0  0
 14 16  1  0  0  0  0
 16 17  1  0  0  0  0
 17 15  1  0  0  0  0
 17 21  1  1  0  0  0
 18 19  1  0  0  0  0
 20 18  3  0  0  0  0
 22 21  1  0  0  0  0
 23 22  1  0  0  0  0
 25 24  1  6  0  0  0
 25 23  1  0  0  0  0
 26 25  1  0  0  0  0
 28 27  1  0  0  0  0
 30 29  2  0  0  0  0
 30 28  1  0  0  0  0
 32 36  1  6  0  0  0
 32 35  1  0  0  0  0
 32 38  1  0  0  0  0
 33 37  1  0  0  0  0
 33 30  1  1  0  0  0
 34 39  1  0  0  0  0
 34 37  1  0  0  0  0
 35 34  1  0  0  0  0
 37 31  2  0  0  0  0
 38 33  1  0  0  0  0
 39 40  1  0  0  0  0
 40 47  1  0  0  0  0
 41 42  1  1  0  0  0
 41 48  1  0  0  0  0
 43 41  1  0  0  0  0
 45 44  1  1  0  0  0
 45 43  1  0  0  0  0
 46 41  1  0  0  0  0
 47 45  1  0  0  0  0
 47 46  1  0  0  0  0
 48 50  1  0  0  0  0
 50 49  1  0  0  0  0
M  END
>  <MODEL>
4

>  <REMARK>
 VINA RESULT:      -2.2      3.460     10.840
  Name = 
  14 active torsions:
  status: ('A' for Active; 'I' for Inactive)
    1  A    between atoms: C_2  and  N_14
    2  A    between atoms: C_2  and  C_42
    3  A    between atoms: C_3  and  C_12
    4  A    between atoms: C_5  and  N_14
    5  A    between atoms: C_5  and  C_41
    6  A    between atoms: N_11  and  N_43
    7  A    between atoms: C_12  and  O_36
    8  A    between atoms: C_19  and  C_24
    9  A    between atoms: C_22  and  C_50
   10  A    between atoms: C_23  and  N_43
   11  A    between atoms: N_25  and  C_31
   12  A    between atoms: C_28  and  C_32
   13  A    between atoms: C_31  and  O_37
   14  A    between atoms: N_33  and  O_37
                            x       y       z     vdW  Elec       q    Type
                         _______ _______ _______ _____ _____    ______ ____

>  <TORSDO>
F 14

$$$$
=
 OpenBabel11072410433D

 50 53  0  0  1  0  0  0  0  0999 V2000
  163.1240  209.4550  151.4840 O   0  0  0  0  0  1  0  0  0  0  0  0
  160.6160  213.5590  149.0690 C   0  0  0  0  0  2  0  0  0  0  0  0
  161.8010  213.8280  148.1550 C   0  0  0  0  0  2  0  0  0  0  0  0
  162.0300  212.6890  147.1670 C   0  0  0  0  0  2  0  0  0  0  0  0
  162.1020  209.5540  149.3330 C   0  0  2  0  0  3  0  0  0  0  0  0
  161.0450  210.7200  151.3850 C   0  0  2  0  0  3  0  0  0  0  0  0
  162.6650  211.4850  147.8420 C   0  0  0  0  0  2  0  0  0  0  0  0
  162.3460  210.2760  150.6670 C   0  0  1  0  0  3  0  0  0  0  0  0
  161.5890  210.4920  148.2470 C   0  0  0  0  0  2  0  0  0  0  0  0
  161.0830  212.8920  150.3470 C   0  0  0  0  0  2  0  0  0  0  0  0
  160.2870  211.6930  150.5860 N   0  0  0  0  0  2  0  0  0  0  0  0
  158.9260  210.8170  153.7140 C   0  0  1  0  0  3  0  0  0  0  0  0
  160.0240  211.8520  153.4630 C   0  0  0  0  0  2  0  0  0  0  0  0
  161.2720  211.2080  152.8370 C   0  0  1  0  0  3  0  0  0  0  0  0
  159.4430  209.7110  154.6260 C   0  0  0  0  0  2  0  0  0  0  0  0
  161.7700  210.0730  153.7420 C   0  0  0  0  0  2  0  0  0  0  0  0
  160.6670  209.0440  153.9990 C   0  0  1  0  0  3  0  0  0  0  0  0
  156.8210  212.0060  154.8480 C   0  0  0  0  0  0  0  0  0  0  0  0
  155.6710  212.6570  155.4730 C   0  0  0  0  0  1  0  0  0  0  0  0
  157.7710  211.4690  154.3340 C   0  0  0  0  0  0  0  0  0  0  0  0
  161.1720  207.9010  154.8710 C   0  0  0  0  0  2  0  0  0  0  0  0
  160.7090  206.6150  154.3730 N   0  0  0  0  0  2  0  0  0  0  0  0
  160.8310  206.6580  152.9260 C   0  0  0  0  0  2  0  0  0  0  0  0
  161.2060  204.4930  151.7880 C   0  0  0  0  0  1  0  0  0  0  0  0
  161.8820  205.6640  152.4680 C   0  0  1  0  0  3  0  0  0  0  0  0
  162.7540  206.2780  151.5710 O   0  0  0  0  0  1  0  0  0  0  0  0
  161.1910  208.4340  149.5100 N   0  0  0  0  0  2  0  0  0  0  0  0
  161.5330  207.4760  148.5460 N   0  0  0  0  0  2  0  0  0  0  0  0
  159.5980  206.2190  148.8980 O   0  0  0  0  0  0  0  0  0  0  0  0
  160.6730  206.3710  148.2620 C   0  0  0  0  0  0  0  0  0  0  0  0
  159.3210  206.2020  145.7100 O   0  0  0  0  0  0  0  0  0  0  0  0
  163.0200  204.5330  145.9010 C   0  0  1  0  0  3  0  0  0  0  0  0
  161.0360  205.4070  147.1790 C   0  0  1  0  0  3  0  0  0  0  0  0
  161.4130  205.9600  144.6990 N   0  0  0  0  0  0  0  0  0  0  0  0
  162.8140  205.5430  144.7830 C   0  0  0  0  0  2  0  0  0  0  0  0
  164.4920  204.1960  146.0090 C   0  0  0  0  0  1  0  0  0  0  0  0
  160.5390  205.8970  145.8410 C   0  0  0  0  0  0  0  0  0  0  0  0
  162.5460  205.1570  147.2020 C   0  0  0  0  0  2  0  0  0  0  0  0
  160.9350  206.3980  143.5060 O   0  0  0  0  0  0  0  0  0  0  0  0
  161.9870  206.2200  142.5920 C   0  0  0  0  0  2  0  0  0  0  0  0
  161.6600  208.4800  139.8110 C   0  0  2  0  0  0  0  0  0  0  0  0
  160.4900  208.4960  138.8450 C   0  0  0  0  0  1  0  0  0  0  0  0
  162.6990  207.5020  139.3200 C   0  0  0  0  0  2  0  0  0  0  0  0
  162.5890  205.1580  139.6550 F   0  0  0  0  0  0  0  0  0  0  0  0
  162.7100  206.3640  140.3220 C   0  0  2  0  0  3  0  0  0  0  0  0
  161.2150  207.9540  141.1600 C   0  0  0  0  0  2  0  0  0  0  0  0
  161.5780  206.5440  141.2250 N   0  0  0  0  0  0  0  0  0  0  0  0
  162.2730  209.8700  139.9420 C   0  0  0  0  0  2  0  0  0  0  0  0
  162.3710  211.7270  141.1330 C   0  0  0  0  0  1  0  0  0  0  0  0
  161.5290  210.6610  140.8230 O   0  0  0  0  0  0  0  0  0  0  0  0
  2 10  1  0  0  0  0
  3  2  1  0  0  0  0
  4  7  1  0  0  0  0
  4  3  1  0  0  0  0
  5 27  1  1  0  0  0
  5  8  1  0  0  0  0
  6 11  1  6  0  0  0
  6 14  1  0  0  0  0
  7  9  1  0  0  0  0
  8  6  1  0  0  0  0
  8  1  1  1  0  0  0
  9  5  1  0  0  0  0
 10 11  1  0  0  0  0
 12 20  1  1  0  0  0
 12 15  1  0  0  0  0
 13 12  1  0  0  0  0
 14 13  1  1  0  0  0
 14 16  1  0  0  0  0
 16 17  1  0  0  0  0
 17 15  1  0  0  0  0
 17 21  1  1  0  0  0
 18 19  1  0  0  0  0
 20 18  3  0  0  0  0
 22 21  1  0  0  0  0
 23 22  1  0  0  0  0
 25 24  1  6  0  0  0
 25 23  1  0  0  0  0
 26 25  1  0  0  0  0
 28 27  1  0  0  0  0
 30 28  1  0  0  0  0
 30 29  2  0  0  0  0
 31 37  2  0  0  0  0
 32 36  1  1  0  0  0
 32 38  1  0  0  0  0
 33 38  1  0  0  0  0
 33 30  1  1  0  0  0
 34 35  1  0  0  0  0
 34 37  1  0  0  0  0
 35 32  1  0  0  0  0
 37 33  1  0  0  0  0
 39 34  1  0  0  0  0
 40 39  1  0  0  0  0
 41 42  1  6  0  0  0
 41 48  1  0  0  0  0
 41 46  1  0  0  0  0
 43 41  1  0  0  0  0
 43 45  1  0  0  0  0
 45 44  1  6  0  0  0
 45 47  1  0  0  0  0
 46 47  1  0  0  0  0
 47 40  1  0  0  0  0
 48 50  1  0  0  0  0
 50 49  1  0  0  0  0
M  END
>  <MODEL>
5

>  <REMARK>
 VINA RESULT:      -2.0      3.388      9.681
  Name = 
  14 active torsions:
  status: ('A' for Active; 'I' for Inactive)
    1  A    between atoms: C_2  and  N_14
    2  A    between atoms: C_2  and  C_42
    3  A    between atoms: C_3  and  C_12
    4  A    between atoms: C_5  and  N_14
    5  A    between atoms: C_5  and  C_41
    6  A    between atoms: N_11  and  N_43
    7  A    between atoms: C_12  and  O_36
    8  A    between atoms: C_19  and  C_24
    9  A    between atoms: C_22  and  C_50
   10  A    between atoms: C_23  and  N_43
   11  A    between atoms: N_25  and  C_31
   12  A    between atoms: C_28  and  C_32
   13  A    between atoms: C_31  and  O_37
   14  A    between atoms: N_33  and  O_37
                            x       y       z     vdW  Elec       q    Type
                         _______ _______ _______ _____ _____    ______ ____

>  <TORSDO>
F 14

$$$$
=
 OpenBabel11072410433D

 50 53  0  0  1  0  0  0  0  0999 V2000
  163.9060  206.5380  148.6350 O   0  0  0  0  0  1  0  0  0  0  0  0
  160.3570  202.7040  149.9280 C   0  0  0  0  0  2  0  0  0  0  0  0
  161.0170  202.4580  151.2750 C   0  0  0  0  0  2  0  0  0  0  0  0
  160.8710  203.6550  152.2090 C   0  0  0  0  0  2  0  0  0  0  0  0
  162.0580  206.6250  150.1380 C   0  0  2  0  0  3  0  0  0  0  0  0
  161.9100  205.3570  147.8890 C   0  0  2  0  0  3  0  0  0  0  0  0
  161.8080  204.7850  151.8170 C   0  0  0  0  0  2  0  0  0  0  0  0
  162.8040  205.8040  149.0760 C   0  0  1  0  0  3  0  0  0  0  0  0
  161.0720  205.7840  150.9410 C   0  0  0  0  0  2  0  0  0  0  0  0
  161.3660  203.2630  148.9460 C   0  0  0  0  0  2  0  0  0  0  0  0
  160.8250  204.4690  148.3300 N   0  0  0  0  0  2  0  0  0  0  0  0
  160.8510  203.3500  145.7040 C   0  0  1  0  0  3  0  0  0  0  0  0
  162.2520  203.3420  146.3180 C   0  0  0  0  0  2  0  0  0  0  0  0
  162.7060  204.7600  146.7030 C   0  0  1  0  0  3  0  0  0  0  0  0
  160.8210  204.2480  144.4730 C   0  0  0  0  0  2  0  0  0  0  0  0
  162.6420  205.6690  145.4670 C   0  0  0  0  0  2  0  0  0  0  0  0
  161.2420  205.6680  144.8490 C   0  0  1  0  0  3  0  0  0  0  0  0
  160.1630  200.8610  145.0230 C   0  0  0  0  0  0  0  0  0  0  0  0
  159.7880  199.4970  144.6550 C   0  0  0  0  0  1  0  0  0  0  0  0
  160.4730  201.9860  145.3300 C   0  0  0  0  0  0  0  0  0  0  0  0
  161.1710  206.5950  143.6430 C   0  0  0  0  0  2  0  0  0  0  0  0
  161.2000  205.8430  142.3980 N   0  0  0  0  0  2  0  0  0  0  0  0
  162.3350  206.3360  141.6370 C   0  0  0  0  0  2  0  0  0  0  0  0
  161.7990  208.1500  140.0410 C   0  0  0  0  0  1  0  0  0  0  0  0
  161.9050  206.6510  140.2160 C   0  0  1  0  0  3  0  0  0  0  0  0
  162.8410  206.1460  139.3160 O   0  0  0  0  0  1  0  0  0  0  0  0
  161.3810  207.7610  149.5320 N   0  0  0  0  0  2  0  0  0  0  0  0
  161.2560  208.7400  150.5280 N   0  0  0  0  0  2  0  0  0  0  0  0
  162.5030  210.3160  149.3420 O   0  0  0  0  0  0  0  0  0  0  0  0
  161.8360  210.0350  150.3720 C   0  0  0  0  0  0  0  0  0  0  0  0
  160.3090  212.4610  149.9780 O   0  0  0  0  0  0  0  0  0  0  0  0
  160.9390  211.3360  153.8300 C   0  0  1  0  0  3  0  0  0  0  0  0
  161.6240  211.0770  151.4230 C   0  0  1  0  0  3  0  0  0  0  0  0
  159.3840  212.1360  152.0980 N   0  0  0  0  0  0  0  0  0  0  0  0
  159.4880  211.5810  153.4480 C   0  0  0  0  0  2  0  0  0  0  0  0
  160.9960  210.6820  155.1950 C   0  0  0  0  0  1  0  0  0  0  0  0
  160.4040  211.9090  151.1090 C   0  0  0  0  0  0  0  0  0  0  0  0
  161.5550  210.4080  152.7980 C   0  0  0  0  0  2  0  0  0  0  0  0
  158.3020  212.8960  151.7880 O   0  0  0  0  0  0  0  0  0  0  0  0
  157.9470  213.5480  152.9820 C   0  0  0  0  0  2  0  0  0  0  0  0
  156.1020  212.5230  155.8950 C   0  0  2  0  0  0  0  0  0  0  0  0
  155.3150  211.2300  156.0080 C   0  0  0  0  0  1  0  0  0  0  0  0
  155.2180  213.5950  155.3060 C   0  0  0  0  0  2  0  0  0  0  0  0
  154.7800  213.8380  152.9890 F   0  0  0  0  0  0  0  0  0  0  0  0
  155.7880  213.9010  153.9350 C   0  0  2  0  0  3  0  0  0  0  0  0
  157.2430  212.3550  154.9140 C   0  0  0  0  0  2  0  0  0  0  0  0
  156.8080  212.9020  153.6350 N   0  0  0  0  0  0  0  0  0  0  0  0
  156.6160  212.9650  157.2610 C   0  0  0  0  0  2  0  0  0  0  0  0
  158.3100  214.3790  157.2010 C   0  0  0  0  0  1  0  0  0  0  0  0
  156.9190  214.3300  157.2590 O   0  0  0  0  0  0  0  0  0  0  0  0
  2  3  1  0  0  0  0
  3  4  1  0  0  0  0
  5 27  1  6  0  0  0
  5  9  1  0  0  0  0
  6 11  1  1  0  0  0
  6  8  1  0  0  0  0
  7  4  1  0  0  0  0
  8  1  1  6  0  0  0
  8  5  1  0  0  0  0
  9  7  1  0  0  0  0
 10  2  1  0  0  0  0
 11 10  1  0  0  0  0
 12 20  1  6  0  0  0
 12 13  1  0  0  0  0
 13 14  1  0  0  0  0
 14 16  1  6  0  0  0
 14  6  1  0  0  0  0
 15 17  1  0  0  0  0
 15 12  1  0  0  0  0
 17 21  1  6  0  0  0
 17 16  1  0  0  0  0
 18 20  3  0  0  0  0
 19 18  1  0  0  0  0
 22 21  1  0  0  0  0
 23 22  1  0  0  0  0
 25 24  1  1  0  0  0
 25 23  1  0  0  0  0
 26 25  1  0  0  0  0
 27 28  1  0  0  0  0
 29 30  2  0  0  0  0
 30 28  1  0  0  0  0
 31 37  2  0  0  0  0
 32 36  1  1  0  0  0
 33 30  1  6  0  0  0
 33 38  1  0  0  0  0
 34 35  1  0  0  0  0
 35 32  1  0  0  0  0
 37 33  1  0  0  0  0
 37 34  1  0  0  0  0
 38 32  1  0  0  0  0
 39 34  1  0  0  0  0
 39 40  1  0  0  0  0
 40 47  1  0  0  0  0
 41 42  1  1  0  0  0
 41 48  1  0  0  0  0
 43 41  1  0  0  0  0
 45 44  1  6  0  0  0
 45 43  1  0  0  0  0
 46 41  1  0  0  0  0
 47 45  1  0  0  0  0
 47 46  1  0  0  0  0
 49 50  1  0  0  0  0
 50 48  1  0  0  0  0
M  END
>  <MODEL>
6

>  <REMARK>
 VINA RESULT:      -1.8      2.762      4.800
  Name = 
  14 active torsions:
  status: ('A' for Active; 'I' for Inactive)
    1  A    between atoms: C_2  and  N_14
    2  A    between atoms: C_2  and  C_42
    3  A    between atoms: C_3  and  C_12
    4  A    between atoms: C_5  and  N_14
    5  A    between atoms: C_5  and  C_41
    6  A    between atoms: N_11  and  N_43
    7  A    between atoms: C_12  and  O_36
    8  A    between atoms: C_19  and  C_24
    9  A    between atoms: C_22  and  C_50
   10  A    between atoms: C_23  and  N_43
   11  A    between atoms: N_25  and  C_31
   12  A    between atoms: C_28  and  C_32
   13  A    between atoms: C_31  and  O_37
   14  A    between atoms: N_33  and  O_37
                            x       y       z     vdW  Elec       q    Type
                         _______ _______ _______ _____ _____    ______ ____

>  <TORSDO>
F 14

$$$$
=
 OpenBabel11072410433D

 50 53  0  0  1  0  0  0  0  0999 V2000
  159.3850  211.5630  151.3640 O   0  0  0  0  0  1  0  0  0  0  0  0
  156.5100  214.1500  155.1060 C   0  0  0  0  0  2  0  0  0  0  0  0
  155.3640  213.1570  155.0050 C   0  0  0  0  0  2  0  0  0  0  0  0
  155.7640  211.7720  155.5040 C   0  0  0  0  0  2  0  0  0  0  0  0
  158.9970  210.9890  153.6450 C   0  0  2  0  0  3  0  0  0  0  0  0
  159.3930  213.4390  152.9170 C   0  0  2  0  0  3  0  0  0  0  0  0
  156.6440  211.0500  154.4980 C   0  0  0  0  0  2  0  0  0  0  0  0
  158.8200  212.0470  152.5450 C   0  0  1  0  0  3  0  0  0  0  0  0
  158.1070  211.2510  154.8540 C   0  0  0  0  0  2  0  0  0  0  0  0
  157.2840  214.1900  153.8040 C   0  0  0  0  0  2  0  0  0  0  0  0
  158.7050  214.0170  154.0810 N   0  0  0  0  0  2  0  0  0  0  0  0
  160.3930  212.8350  149.9910 C   0  0  1  0  0  3  0  0  0  0  0  0
  160.6100  214.1410  150.7560 C   0  0  0  0  0  2  0  0  0  0  0  0
  159.4500  214.4260  151.7250 C   0  0  1  0  0  3  0  0  0  0  0  0
  159.0810  212.8900  149.2170 C   0  0  0  0  0  2  0  0  0  0  0  0
  158.1280  214.4480  150.9460 C   0  0  0  0  0  2  0  0  0  0  0  0
  157.9170  213.1440  150.1740 C   0  0  1  0  0  3  0  0  0  0  0  0
  162.4190  212.4410  148.2970 C   0  0  0  0  0  0  0  0  0  0  0  0
  163.5250  212.2260  147.3670 C   0  0  0  0  0  1  0  0  0  0  0  0
  161.5050  212.6190  149.0640 C   0  0  0  0  0  0  0  0  0  0  0  0
  156.5890  213.1530  149.4280 C   0  0  0  0  0  2  0  0  0  0  0  0
  156.4230  214.3800  148.6640 N   0  0  0  0  0  2  0  0  0  0  0  0
  157.3770  214.3250  147.5700 C   0  0  0  0  0  2  0  0  0  0  0  0
  155.2750  214.4530  146.2710 C   0  0  0  0  0  1  0  0  0  0  0  0
  156.6770  213.8850  146.2980 C   0  0  1  0  0  3  0  0  0  0  0  0
  157.3830  214.3450  145.1880 O   0  0  0  0  0  1  0  0  0  0  0  0
  160.3910  210.8940  154.0500 N   0  0  0  0  0  2  0  0  0  0  0  0
  161.0300  210.0680  153.1150 N   0  0  0  0  0  2  0  0  0  0  0  0
  161.0140  208.2090  154.5260 O   0  0  0  0  0  0  0  0  0  0  0  0
  161.3100  208.6980  153.4040 C   0  0  0  0  0  0  0  0  0  0  0  0
  161.3060  205.8060  153.4770 O   0  0  0  0  0  0  0  0  0  0  0  0
  162.0300  207.5150  149.8630 C   0  0  1  0  0  3  0  0  0  0  0  0
  161.9290  207.8280  152.3580 C   0  0  1  0  0  3  0  0  0  0  0  0
  160.8330  205.8210  151.1900 N   0  0  0  0  0  0  0  0  0  0  0  0
  160.9040  206.4930  149.8910 C   0  0  0  0  0  2  0  0  0  0  0  0
  162.0130  208.2450  148.5370 C   0  0  0  0  0  1  0  0  0  0  0  0
  161.3260  206.4450  152.3890 C   0  0  0  0  0  0  0  0  0  0  0  0
  161.8040  208.5060  150.9910 C   0  0  0  0  0  2  0  0  0  0  0  0
  160.3020  204.5720  151.2490 O   0  0  0  0  0  0  0  0  0  0  0  0
  161.2470  203.7340  150.6320 C   0  0  0  0  0  2  0  0  0  0  0  0
  160.9540  202.4090  147.2990 C   0  0  2  0  0  0  0  0  0  0  0  0
  159.6440  202.0350  146.6310 C   0  0  0  0  0  1  0  0  0  0  0  0
  161.4710  201.2250  148.0800 C   0  0  0  0  0  2  0  0  0  0  0  0
  160.7160  200.6220  150.2450 F   0  0  0  0  0  0  0  0  0  0  0  0
  161.3770  201.6140  149.5430 C   0  0  2  0  0  3  0  0  0  0  0  0
  160.7240  203.5000  148.3240 C   0  0  0  0  0  2  0  0  0  0  0  0
  160.6280  202.8630  149.6320 N   0  0  0  0  0  0  0  0  0  0  0  0
  161.9860  202.8400  146.2640 C   0  0  0  0  0  2  0  0  0  0  0  0
  162.9850  204.7190  145.6730 C   0  0  0  0  0  1  0  0  0  0  0  0
  161.7260  204.1380  145.8140 O   0  0  0  0  0  0  0  0  0  0  0  0
  3  2  1  0  0  0  0
  3  4  1  0  0  0  0
  5 27  1  1  0  0  0
  5  9  1  0  0  0  0
  6 11  1  1  0  0  0
  7  9  1  0  0  0  0
  7  4  1  0  0  0  0
  8  1  1  6  0  0  0
  8  6  1  0  0  0  0
  8  5  1  0  0  0  0
 10 11  1  0  0  0  0
 10  2  1  0  0  0  0
 12 20  1  6  0  0  0
 12 13  1  0  0  0  0
 14 13  1  6  0  0  0
 14  6  1  0  0  0  0
 15 12  1  0  0  0  0
 15 17  1  0  0  0  0
 16 14  1  0  0  0  0
 17 21  1  6  0  0  0
 17 16  1  0  0  0  0
 18 20  3  0  0  0  0
 19 18  1  0  0  0  0
 22 21  1  0  0  0  0
 23 22  1  0  0  0  0
 25 24  1  1  0  0  0
 25 23  1  0  0  0  0
 26 25  1  0  0  0  0
 28 30  1  0  0  0  0
 28 27  1  0  0  0  0
 30 29  2  0  0  0  0
 32 36  1  6  0  0  0
 32 35  1  0  0  0  0
 32 38  1  0  0  0  0
 33 37  1  0  0  0  0
 33 30  1  1  0  0  0
 34 39  1  0  0  0  0
 34 37  1  0  0  0  0
 35 34  1  0  0  0  0
 37 31  2  0  0  0  0
 38 33  1  0  0  0  0
 40 39  1  0  0  0  0
 41 42  1  6  0  0  0
 41 43  1  0  0  0  0
 41 46  1  0  0  0  0
 43 45  1  0  0  0  0
 45 47  1  0  0  0  0
 45 44  1  1  0  0  0
 46 47  1  0  0  0  0
 47 40  1  0  0  0  0
 48 41  1  0  0  0  0
 49 50  1  0  0  0  0
 50 48  1  0  0  0  0
M  END
>  <MODEL>
7

>  <REMARK>
 VINA RESULT:      -1.7      3.693      9.981
  Name = 
  14 active torsions:
  status: ('A' for Active; 'I' for Inactive)
    1  A    between atoms: C_2  and  N_14
    2  A    between atoms: C_2  and  C_42
    3  A    between atoms: C_3  and  C_12
    4  A    between atoms: C_5  and  N_14
    5  A    between atoms: C_5  and  C_41
    6  A    between atoms: N_11  and  N_43
    7  A    between atoms: C_12  and  O_36
    8  A    between atoms: C_19  and  C_24
    9  A    between atoms: C_22  and  C_50
   10  A    between atoms: C_23  and  N_43
   11  A    between atoms: N_25  and  C_31
   12  A    between atoms: C_28  and  C_32
   13  A    between atoms: C_31  and  O_37
   14  A    between atoms: N_33  and  O_37
                            x       y       z     vdW  Elec       q    Type
                         _______ _______ _______ _____ _____    ______ ____

>  <TORSDO>
F 14

$$$$
=
 OpenBabel11072410433D

 50 53  0  0  1  0  0  0  0  0999 V2000
  160.7840  207.8440  150.8230 O   0  0  0  0  0  1  0  0  0  0  0  0
  162.7810  204.6810  146.9530 C   0  0  0  0  0  2  0  0  0  0  0  0
  161.4000  204.3870  146.3920 C   0  0  0  0  0  2  0  0  0  0  0  0
  160.7550  205.6290  145.7850 C   0  0  0  0  0  2  0  0  0  0  0  0
  161.0680  208.2860  148.4980 C   0  0  2  0  0  3  0  0  0  0  0  0
  162.8370  206.9680  149.8480 C   0  0  2  0  0  3  0  0  0  0  0  0
  160.2520  206.5790  146.8590 C   0  0  0  0  0  2  0  0  0  0  0  0
  161.3370  207.3140  149.6560 C   0  0  1  0  0  3  0  0  0  0  0  0
  161.2970  207.6460  147.1340 C   0  0  0  0  0  2  0  0  0  0  0  0
  162.6840  205.0320  148.4250 C   0  0  0  0  0  2  0  0  0  0  0  0
  163.3910  206.2830  148.6710 N   0  0  0  0  0  2  0  0  0  0  0  0
  161.1790  207.0630  152.5250 C   0  0  1  0  0  3  0  0  0  0  0  0
  162.7020  206.9710  152.4220 C   0  0  0  0  0  2  0  0  0  0  0  0
  163.1360  206.2040  151.1610 C   0  0  1  0  0  3  0  0  0  0  0  0
  160.5670  205.6670  152.5400 C   0  0  0  0  0  2  0  0  0  0  0  0
  162.4900  204.8110  151.1640 C   0  0  0  0  0  2  0  0  0  0  0  0
  160.9670  204.9060  151.2770 C   0  0  1  0  0  3  0  0  0  0  0  0
  160.5120  208.3650  154.7590 C   0  0  0  0  0  0  0  0  0  0  0  0
  160.1480  209.0810  155.9800 C   0  0  0  0  0  1  0  0  0  0  0  0
  160.8130  207.7760  153.7500 C   0  0  0  0  0  0  0  0  0  0  0  0
  160.3260  203.5250  151.2460 C   0  0  0  0  0  2  0  0  0  0  0  0
  161.3340  202.4760  151.2390 N   0  0  0  0  0  2  0  0  0  0  0  0
  160.7440  201.3330  150.5640 C   0  0  0  0  0  2  0  0  0  0  0  0
  161.2090  201.0560  148.1500 C   0  0  0  0  0  1  0  0  0  0  0  0
  160.3110  201.7270  149.1650 C   0  0  1  0  0  3  0  0  0  0  0  0
  158.9930  201.3300  148.9490 O   0  0  0  0  0  1  0  0  0  0  0  0
  161.8720  209.4900  148.6370 N   0  0  0  0  0  2  0  0  0  0  0  0
  161.2120  210.5040  147.9290 N   0  0  0  0  0  2  0  0  0  0  0  0
  162.7160  212.1560  148.6020 O   0  0  0  0  0  0  0  0  0  0  0  0
  161.6970  211.8480  147.9320 C   0  0  0  0  0  0  0  0  0  0  0  0
  162.8530  213.1080  145.5990 O   0  0  0  0  0  0  0  0  0  0  0  0
  158.8160  213.3690  145.9710 C   0  0  1  0  0  3  0  0  0  0  0  0
  161.0080  212.8880  147.1090 C   0  0  1  0  0  3  0  0  0  0  0  0
  160.7740  212.9110  144.5520 N   0  0  0  0  0  0  0  0  0  0  0  0
  159.3170  212.8100  144.6490 C   0  0  0  0  0  2  0  0  0  0  0  0
  157.3180  213.1670  146.0670 C   0  0  0  0  0  1  0  0  0  0  0  0
  161.6060  212.9550  145.7250 C   0  0  0  0  0  0  0  0  0  0  0  0
  159.5020  212.6170  147.0990 C   0  0  0  0  0  2  0  0  0  0  0  0
  161.3410  212.9800  143.3200 O   0  0  0  0  0  0  0  0  0  0  0  0
  160.9070  211.8280  142.6410 C   0  0  0  0  0  2  0  0  0  0  0  0
  161.4410  210.5200  139.3320 C   0  0  2  0  0  0  0  0  0  0  0  0
  162.1710  211.2540  138.2210 C   0  0  0  0  0  1  0  0  0  0  0  0
  159.9800  210.9000  139.3050 C   0  0  0  0  0  2  0  0  0  0  0  0
  159.1000  212.8890  140.2490 F   0  0  0  0  0  0  0  0  0  0  0  0
  159.7310  211.6990  140.5690 C   0  0  2  0  0  3  0  0  0  0  0  0
  161.9520  210.9780  140.6820 C   0  0  0  0  0  2  0  0  0  0  0  0
  161.0220  211.9780  141.1900 N   0  0  0  0  0  0  0  0  0  0  0  0
  161.5900  209.0120  139.1740 C   0  0  0  0  0  2  0  0  0  0  0  0
  162.1260  207.0700  140.0790 C   0  0  0  0  0  1  0  0  0  0  0  0
  161.9560  208.4190  140.3860 O   0  0  0  0  0  0  0  0  0  0  0  0
  2 10  1  0  0  0  0
  3  2  1  0  0  0  0
  4  3  1  0  0  0  0
  4  7  1  0  0  0  0
  5 27  1  1  0  0  0
  5  8  1  0  0  0  0
  6 11  1  6  0  0  0
  6 14  1  0  0  0  0
  7  9  1  0  0  0  0
  8  6  1  0  0  0  0
  8  1  1  1  0  0  0
  9  5  1  0  0  0  0
 10 11  1  0  0  0  0
 12 15  1  0  0  0  0
 12 20  1  1  0  0  0
 13 12  1  0  0  0  0
 14 16  1  6  0  0  0
 14 13  1  0  0  0  0
 16 17  1  0  0  0  0
 17 21  1  1  0  0  0
 17 15  1  0  0  0  0
 18 19  1  0  0  0  0
 20 18  3  0  0  0  0
 22 21  1  0  0  0  0
 23 22  1  0  0  0  0
 25 24  1  6  0  0  0
 25 23  1  0  0  0  0
 26 25  1  0  0  0  0
 28 30  1  0  0  0  0
 28 27  1  0  0  0  0
 30 29  2  0  0  0  0
 31 37  2  0  0  0  0
 32 36  1  1  0  0  0
 32 38  1  0  0  0  0
 33 30  1  1  0  0  0
 34 35  1  0  0  0  0
 34 37  1  0  0  0  0
 35 32  1  0  0  0  0
 37 33  1  0  0  0  0
 38 33  1  0  0  0  0
 39 34  1  0  0  0  0
 40 39  1  0  0  0  0
 41 42  1  6  0  0  0
 41 46  1  0  0  0  0
 43 41  1  0  0  0  0
 43 45  1  0  0  0  0
 45 44  1  6  0  0  0
 45 47  1  0  0  0  0
 46 47  1  0  0  0  0
 47 40  1  0  0  0  0
 48 41  1  0  0  0  0
 48 50  1  0  0  0  0
 49 50  1  0  0  0  0
M  END
>  <MODEL>
8

>  <REMARK>
 VINA RESULT:      -1.6      2.905      7.025
  Name = 
  14 active torsions:
  status: ('A' for Active; 'I' for Inactive)
    1  A    between atoms: C_2  and  N_14
    2  A    between atoms: C_2  and  C_42
    3  A    between atoms: C_3  and  C_12
    4  A    between atoms: C_5  and  N_14
    5  A    between atoms: C_5  and  C_41
    6  A    between atoms: N_11  and  N_43
    7  A    between atoms: C_12  and  O_36
    8  A    between atoms: C_19  and  C_24
    9  A    between atoms: C_22  and  C_50
   10  A    between atoms: C_23  and  N_43
   11  A    between atoms: N_25  and  C_31
   12  A    between atoms: C_28  and  C_32
   13  A    between atoms: C_31  and  O_37
   14  A    between atoms: N_33  and  O_37
                            x       y       z     vdW  Elec       q    Type
                         _______ _______ _______ _____ _____    ______ ____

>  <TORSDO>
F 14

$$$$
=
 OpenBabel11072410433D

 50 53  0  0  1  0  0  0  0  0999 V2000
  159.8840  206.9910  149.1770 O   0  0  0  0  0  1  0  0  0  0  0  0
  161.3040  203.2080  145.6220 C   0  0  0  0  0  2  0  0  0  0  0  0
  160.5420  203.8880  144.4960 C   0  0  0  0  0  2  0  0  0  0  0  0
  161.1600  205.2310  144.1200 C   0  0  0  0  0  2  0  0  0  0  0  0
  161.5080  207.0790  147.4340 C   0  0  2  0  0  3  0  0  0  0  0  0
  161.1820  204.9530  148.8700 C   0  0  2  0  0  3  0  0  0  0  0  0
  160.8400  206.3010  145.1510 C   0  0  0  0  0  2  0  0  0  0  0  0
  160.5250  206.2000  148.2220 C   0  0  1  0  0  3  0  0  0  0  0  0
  161.9810  206.4160  146.1460 C   0  0  0  0  0  2  0  0  0  0  0  0
  160.6930  203.5700  146.9610 C   0  0  0  0  0  2  0  0  0  0  0  0
  161.7400  204.0450  147.8580 N   0  0  0  0  0  2  0  0  0  0  0  0
  162.0610  203.2720  151.3850 C   0  0  1  0  0  3  0  0  0  0  0  0
  160.8930  202.9410  150.4540 C   0  0  0  0  0  2  0  0  0  0  0  0
  160.2600  204.2140  149.8700 C   0  0  1  0  0  3  0  0  0  0  0  0
  161.5900  204.1750  152.5190 C   0  0  0  0  0  2  0  0  0  0  0  0
  159.8170  205.1360  151.0160 C   0  0  0  0  0  2  0  0  0  0  0  0
  160.9850  205.4580  151.9510 C   0  0  1  0  0  3  0  0  0  0  0  0
  163.0680  201.0130  152.3910 C   0  0  0  0  0  0  0  0  0  0  0  0
  163.6160  199.7740  152.9390 C   0  0  0  0  0  1  0  0  0  0  0  0
  162.6140  202.0340  151.9370 C   0  0  0  0  0  0  0  0  0  0  0  0
  160.5530  206.3990  153.0680 C   0  0  0  0  0  2  0  0  0  0  0  0
  161.6210  206.5930  154.0360 N   0  0  0  0  0  2  0  0  0  0  0  0
  161.4370  207.9160  154.6040 C   0  0  0  0  0  2  0  0  0  0  0  0
  160.3310  207.0120  156.6240 C   0  0  0  0  0  1  0  0  0  0  0  0
  160.1750  207.9460  155.4440 C   0  0  1  0  0  3  0  0  0  0  0  0
  159.9460  209.2400  155.9080 O   0  0  0  0  0  1  0  0  0  0  0  0
  162.6450  207.4530  148.2610 N   0  0  0  0  0  2  0  0  0  0  0  0
  162.3750  208.7310  148.7700 N   0  0  0  0  0  2  0  0  0  0  0  0
  162.6070  208.0550  150.9920 O   0  0  0  0  0  0  0  0  0  0  0  0
  162.3850  208.9860  150.1760 C   0  0  0  0  0  0  0  0  0  0  0  0
  162.8470  211.3790  148.6170 O   0  0  0  0  0  0  0  0  0  0  0  0
  160.4580  211.7890  151.8780 C   0  0  1  0  0  3  0  0  0  0  0  0
  162.1620  210.3760  150.6800 C   0  0  1  0  0  3  0  0  0  0  0  0
  160.8620  212.2460  149.4920 N   0  0  0  0  0  0  0  0  0  0  0  0
  159.8690  212.2860  150.5670 C   0  0  0  0  0  2  0  0  0  0  0  0
  159.3780  211.7650  152.9380 C   0  0  0  0  0  1  0  0  0  0  0  0
  161.9770  211.3360  149.5300 C   0  0  0  0  0  0  0  0  0  0  0  0
  160.9870  210.3810  151.6610 C   0  0  0  0  0  2  0  0  0  0  0  0
  160.7260  213.1030  148.4490 O   0  0  0  0  0  0  0  0  0  0  0  0
  159.5510  213.8300  148.7100 C   0  0  0  0  0  2  0  0  0  0  0  0
  158.8270  213.2220  145.2390 C   0  0  2  0  0  0  0  0  0  0  0  0
  158.2560  214.2530  144.2820 C   0  0  0  0  0  1  0  0  0  0  0  0
  157.6950  212.5120  145.9410 C   0  0  0  0  0  2  0  0  0  0  0  0
  156.5330  213.3830  147.8150 F   0  0  0  0  0  0  0  0  0  0  0  0
  157.7720  212.9350  147.3950 C   0  0  2  0  0  3  0  0  0  0  0  0
  159.6160  213.9070  146.3340 C   0  0  0  0  0  2  0  0  0  0  0  0
  158.7480  214.0150  147.5010 N   0  0  0  0  0  0  0  0  0  0  0  0
  159.6910  212.2110  144.4930 C   0  0  0  0  0  2  0  0  0  0  0  0
  161.3630  212.4090  143.0640 C   0  0  0  0  0  1  0  0  0  0  0  0
  161.0090  212.6670  144.3870 O   0  0  0  0  0  0  0  0  0  0  0  0
  2 10  1  0  0  0  0
  3  2  1  0  0  0  0
  4  3  1  0  0  0  0
  4  7  1  0  0  0  0
  5  8  1  0  0  0  0
  5 27  1  1  0  0  0
  6 11  1  6  0  0  0
  6 14  1  0  0  0  0
  7  9  1  0  0  0  0
  8  6  1  0  0  0  0
  8  1  1  1  0  0  0
  9  5  1  0  0  0  0
 10 11  1  0  0  0  0
 12 20  1  1  0  0  0
 12 15  1  0  0  0  0
 13 12  1  0  0  0  0
 14 13  1  1  0  0  0
 14 16  1  0  0  0  0
 16 17  1  0  0  0  0
 17 15  1  0  0  0  0
 17 21  1  1  0  0  0
 18 19  1  0  0  0  0
 20 18  3  0  0  0  0
 21 22  1  0  0  0  0
 22 23  1  0  0  0  0
 23 25  1  0  0  0  0
 25 26  1  0  0  0  0
 25 24  1  1  0  0  0
 27 28  1  0  0  0  0
 28 30  1  0  0  0  0
 30 29  2  0  0  0  0
 31 37  2  0  0  0  0
 32 36  1  1  0  0  0
 33 30  1  6  0  0  0
 33 38  1  0  0  0  0
 34 37  1  0  0  0  0
 34 35  1  0  0  0  0
 35 32  1  0  0  0  0
 37 33  1  0  0  0  0
 38 32  1  0  0  0  0
 39 40  1  0  0  0  0
 39 34  1  0  0  0  0
 41 42  1  6  0  0  0
 41 43  1  0  0  0  0
 41 46  1  0  0  0  0
 43 45  1  0  0  0  0
 45 47  1  0  0  0  0
 45 44  1  6  0  0  0
 46 47  1  0  0  0  0
 47 40  1  0  0  0  0
 48 41  1  0  0  0  0
 49 50  1  0  0  0  0
 50 48  1  0  0  0  0
M  END
>  <MODEL>
9

>  <REMARK>
 VINA RESULT:      -1.5      2.212      6.131
  Name = 
  14 active torsions:
  status: ('A' for Active; 'I' for Inactive)
    1  A    between atoms: C_2  and  N_14
    2  A    between atoms: C_2  and  C_42
    3  A    between atoms: C_3  and  C_12
    4  A    between atoms: C_5  and  N_14
    5  A    between atoms: C_5  and  C_41
    6  A    between atoms: N_11  and  N_43
    7  A    between atoms: C_12  and  O_36
    8  A    between atoms: C_19  and  C_24
    9  A    between atoms: C_22  and  C_50
   10  A    between atoms: C_23  and  N_43
   11  A    between atoms: N_25  and  C_31
   12  A    between atoms: C_28  and  C_32
   13  A    between atoms: C_31  and  O_37
   14  A    between atoms: N_33  and  O_37
                            x       y       z     vdW  Elec       q    Type
                         _______ _______ _______ _____ _____    ______ ____

>  <TORSDO>
F 14

$$$$
