=
 OpenBabel11072413173D

 27 29  0  0  1  0  0  0  0  0999 V2000
  160.7350  203.3350  152.2700 N   0  0  0  0  0  0  0  0  0  0  0  0
  161.3540  205.6380  152.5080 C   0  0  0  0  0  0  0  0  0  0  0  0
  161.1920  205.8110  151.1230 C   0  0  0  0  0  0  0  0  0  0  0  0
  161.1160  204.3720  153.0620 C   0  0  0  0  0  3  0  0  0  0  0  0
  160.5740  203.4870  150.9290 C   0  0  0  0  0  3  0  0  0  0  0  0
  160.7980  204.7280  150.3320 C   0  0  0  0  0  3  0  0  0  0  0  0
  161.7480  206.7410  153.3350 N   0  0  0  0  0  2  0  0  0  0  0  0
  159.4720  209.6010  155.4620 C   0  0  1  0  0  3  0  0  0  0  0  0
  160.8050  207.6590  153.9570 C   0  0  2  0  0  3  0  0  0  0  0  0
  161.1910  209.0960  153.6230 C   0  0  0  0  0  2  0  0  0  0  0  0
  160.7740  207.4300  155.4760 C   0  0  0  0  0  2  0  0  0  0  0  0
  160.1680  210.0930  154.1830 C   0  0  0  0  0  2  0  0  0  0  0  0
  160.3730  208.6750  156.2780 C   0  0  0  0  0  2  0  0  0  0  0  0
  159.0060  210.7560  156.2830 C   0  0  0  0  0  0  0  0  0  0  0  0
  159.6890  211.1640  157.2610 O   0  0  0  0  0  1  0  0  0  0  0  0
  157.8200  211.3980  155.9550 O   0  0  0  0  0  0  0  0  0  0  0  0
  161.4370  207.1350  150.4680 C   0  0  0  0  0  2  0  0  0  0  0  0
  160.8860  207.1700  149.0470 C   0  0  0  0  0  2  0  0  0  0  0  0
  161.9850  207.2590  148.0280 C   0  0  0  0  0  0  0  0  0  0  0  0
  162.8970  208.0550  148.1860 O   0  0  0  0  0  0  0  0  0  0  0  0
  161.4020  204.6020  144.5330 C   0  0  0  0  0  2  0  0  0  0  0  0
  161.9570  206.4130  146.7950 C   0  0  0  0  0  3  0  0  0  0  0  0
  161.6880  203.8580  146.9880 C   0  0  0  0  0  2  0  0  0  0  0  0
  161.3190  203.4600  145.5510 C   0  0  0  0  0  2  0  0  0  0  0  0
  160.4470  205.7620  144.8230 C   0  0  0  0  0  2  0  0  0  0  0  0
  162.6420  205.0560  147.0620 C   0  0  0  0  0  2  0  0  0  0  0  0
  160.5230  206.3090  146.2520 C   0  0  0  0  0  2  0  0  0  0  0  0
  1  4  1  0  0  0  0
  2  4  2  0  0  0  0
  2  7  1  0  0  0  0
  3  2  1  0  0  0  0
  5  1  2  0  0  0  0
  6  5  1  0  0  0  0
  6  3  2  0  0  0  0
  8 13  1  0  0  0  0
  8 14  1  1  0  0  0
  9  7  1  6  0  0  0
  9 11  1  0  0  0  0
 10  9  1  0  0  0  0
 10 12  1  0  0  0  0
 11 13  1  0  0  0  0
 12  8  1  0  0  0  0
 14 15  1  0  0  0  0
 16 14  2  0  0  0  0
 17  3  1  0  0  0  0
 18 17  1  0  0  0  0
 19 20  2  0  0  0  0
 19 18  1  0  0  0  0
 21 25  1  0  0  0  0
 21 24  1  0  0  0  0
 22 26  1  0  0  0  0
 22 19  1  0  0  0  0
 23 26  1  0  0  0  0
 24 23  1  0  0  0  0
 25 27  1  0  0  0  0
 27 22  1  0  0  0  0
M  END
>  <MODEL>
1

>  <REMARK>
 VINA RESULT:      -8.1      0.000      0.000
  Name = 
  7 active torsions:
  status: ('A' for Active; 'I' for Inactive)
    1  A    between atoms: C_1  and  C_7
    2  A    between atoms: N_2  and  C_5
    3  A    between atoms: N_2  and  C_10
    4  A    between atoms: C_4  and  C_8
    5  A    between atoms: C_4  and  C_27
    6  A    between atoms: C_9  and  C_19
    7  A    between atoms: C_19  and  C_27
                            x       y       z     vdW  Elec       q    Type
                         _______ _______ _______ _____ _____    ______ ____

>  <TORSDO>
F 7

$$$$
=
 OpenBabel11072413173D

 27 29  0  0  1  0  0  0  0  0999 V2000
  162.1350  210.1660  148.9520 N   0  0  0  0  0  0  0  0  0  0  0  0
  162.0240  209.6770  151.2950 C   0  0  0  0  0  0  0  0  0  0  0  0
  161.7610  208.3320  150.9890 C   0  0  0  0  0  0  0  0  0  0  0  0
  162.2100  210.5860  150.2420 C   0  0  0  0  0  3  0  0  0  0  0  0
  161.8820  208.8670  148.6390 C   0  0  0  0  0  3  0  0  0  0  0  0
  161.6920  207.9280  149.6530 C   0  0  0  0  0  3  0  0  0  0  0  0
  162.1090  210.1070  152.6610 N   0  0  0  0  0  2  0  0  0  0  0  0
  158.6050  211.6540  154.4530 C   0  0  1  0  0  3  0  0  0  0  0  0
  161.0260  210.7810  153.3620 C   0  0  2  0  0  3  0  0  0  0  0  0
  160.4190  209.8380  154.3960 C   0  0  0  0  0  2  0  0  0  0  0  0
  159.9670  211.2590  152.3560 C   0  0  0  0  0  2  0  0  0  0  0  0
  159.3330  210.5400  155.2220 C   0  0  0  0  0  2  0  0  0  0  0  0
  158.5570  211.3700  152.9520 C   0  0  0  0  0  2  0  0  0  0  0  0
  157.2330  211.8600  155.0030 C   0  0  0  0  0  0  0  0  0  0  0  0
  156.9110  211.3730  156.1200 O   0  0  0  0  0  1  0  0  0  0  0  0
  156.3120  212.6110  154.2870 O   0  0  0  0  0  0  0  0  0  0  0  0
  161.5470  207.3140  152.0650 C   0  0  0  0  0  2  0  0  0  0  0  0
  162.1530  205.9660  151.6930 C   0  0  0  0  0  2  0  0  0  0  0  0
  161.2690  204.8260  152.1110 C   0  0  0  0  0  0  0  0  0  0  0  0
  161.0260  204.6470  153.2930 O   0  0  0  0  0  0  0  0  0  0  0  0
  160.1370  201.8380  149.0440 C   0  0  0  0  0  2  0  0  0  0  0  0
  160.7140  203.8760  151.0970 C   0  0  0  0  0  3  0  0  0  0  0  0
  161.5160  203.9840  148.6520 C   0  0  0  0  0  2  0  0  0  0  0  0
  161.0220  202.6430  148.0870 C   0  0  0  0  0  2  0  0  0  0  0  0
  160.8390  201.4260  150.3410 C   0  0  0  0  0  2  0  0  0  0  0  0
  160.5910  204.5710  149.7240 C   0  0  0  0  0  2  0  0  0  0  0  0
  161.5290  202.5740  151.0840 C   0  0  0  0  0  2  0  0  0  0  0  0
  1  4  1  0  0  0  0
  2  7  1  0  0  0  0
  3  2  1  0  0  0  0
  3 17  1  0  0  0  0
  4  2  2  0  0  0  0
  5  1  2  0  0  0  0
  5  6  1  0  0  0  0
  6  3  2  0  0  0  0
  8 14  1  1  0  0  0
  8 12  1  0  0  0  0
  9  7  1  6  0  0  0
  9 10  1  0  0  0  0
 10 12  1  0  0  0  0
 11 13  1  0  0  0  0
 11  9  1  0  0  0  0
 13  8  1  0  0  0  0
 14 15  1  0  0  0  0
 16 14  2  0  0  0  0
 18 17  1  0  0  0  0
 18 19  1  0  0  0  0
 19 20  2  0  0  0  0
 21 25  1  0  0  0  0
 22 19  1  0  0  0  0
 23 26  1  0  0  0  0
 24 23  1  0  0  0  0
 24 21  1  0  0  0  0
 25 27  1  0  0  0  0
 26 22  1  0  0  0  0
 27 22  1  0  0  0  0
M  END
>  <MODEL>
2

>  <REMARK>
 VINA RESULT:      -8.0      2.810      4.397
  Name = 
  7 active torsions:
  status: ('A' for Active; 'I' for Inactive)
    1  A    between atoms: C_1  and  C_7
    2  A    between atoms: N_2  and  C_5
    3  A    between atoms: N_2  and  C_10
    4  A    between atoms: C_4  and  C_8
    5  A    between atoms: C_4  and  C_27
    6  A    between atoms: C_9  and  C_19
    7  A    between atoms: C_19  and  C_27
                            x       y       z     vdW  Elec       q    Type
                         _______ _______ _______ _____ _____    ______ ____

>  <TORSDO>
F 7

$$$$
=
 OpenBabel11072413173D

 27 29  0  0  1  0  0  0  0  0999 V2000
  161.2110  205.1230  153.5590 N   0  0  0  0  0  0  0  0  0  0  0  0
  161.2880  207.3950  152.8010 C   0  0  0  0  0  0  0  0  0  0  0  0
  161.2640  206.9390  151.4720 C   0  0  0  0  0  0  0  0  0  0  0  0
  161.2600  206.4520  153.8390 C   0  0  0  0  0  3  0  0  0  0  0  0
  161.1880  204.6660  152.2780 C   0  0  0  0  0  3  0  0  0  0  0  0
  161.2130  205.5670  151.2130 C   0  0  0  0  0  3  0  0  0  0  0  0
  161.3310  208.8000  153.0850 N   0  0  0  0  0  2  0  0  0  0  0  0
  158.2630  211.5650  153.9930 C   0  0  1  0  0  3  0  0  0  0  0  0
  160.1450  209.6100  153.3250 C   0  0  2  0  0  3  0  0  0  0  0  0
  160.1940  210.8610  152.4540 C   0  0  0  0  0  2  0  0  0  0  0  0
  160.0510  209.9730  154.8150 C   0  0  0  0  0  2  0  0  0  0  0  0
  158.9170  211.6980  152.6080 C   0  0  0  0  0  2  0  0  0  0  0  0
  159.2950  211.2810  155.0830 C   0  0  0  0  0  2  0  0  0  0  0  0
  157.4650  212.7840  154.3150 C   0  0  0  0  0  0  0  0  0  0  0  0
  157.4600  213.2570  155.4830 O   0  0  0  0  0  1  0  0  0  0  0  0
  156.7380  213.4120  153.3140 O   0  0  0  0  0  0  0  0  0  0  0  0
  161.2980  207.8930  150.3190 C   0  0  0  0  0  2  0  0  0  0  0  0
  160.9110  207.2100  149.0120 C   0  0  0  0  0  2  0  0  0  0  0  0
  162.0730  207.1260  148.0650 C   0  0  0  0  0  0  0  0  0  0  0  0
  163.0960  207.7470  148.3020 O   0  0  0  0  0  0  0  0  0  0  0  0
  161.2930  204.6080  144.5060 C   0  0  0  0  0  2  0  0  0  0  0  0
  161.9780  206.3220  146.8070 C   0  0  0  0  0  3  0  0  0  0  0  0
  161.6240  203.7740  146.9260 C   0  0  0  0  0  2  0  0  0  0  0  0
  161.1980  203.4360  145.4880 C   0  0  0  0  0  2  0  0  0  0  0  0
  160.3880  205.7910  144.8620 C   0  0  0  0  0  2  0  0  0  0  0  0
  162.6220  204.9350  147.0090 C   0  0  0  0  0  2  0  0  0  0  0  0
  160.5260  206.2870  146.3050 C   0  0  0  0  0  2  0  0  0  0  0  0
  1  4  1  0  0  0  0
  2  7  1  0  0  0  0
  2  4  2  0  0  0  0
  3  2  1  0  0  0  0
  5  1  2  0  0  0  0
  6  3  2  0  0  0  0
  6  5  1  0  0  0  0
  8 14  1  1  0  0  0
  8 13  1  0  0  0  0
  9  7  1  1  0  0  0
  9 11  1  0  0  0  0
 10 12  1  0  0  0  0
 10  9  1  0  0  0  0
 11 13  1  0  0  0  0
 12  8  1  0  0  0  0
 14 15  1  0  0  0  0
 16 14  2  0  0  0  0
 17  3  1  0  0  0  0
 18 17  1  0  0  0  0
 19 20  2  0  0  0  0
 19 18  1  0  0  0  0
 21 25  1  0  0  0  0
 21 24  1  0  0  0  0
 22 26  1  0  0  0  0
 22 19  1  0  0  0  0
 23 26  1  0  0  0  0
 24 23  1  0  0  0  0
 25 27  1  0  0  0  0
 27 22  1  0  0  0  0
M  END
>  <MODEL>
3

>  <REMARK>
 VINA RESULT:      -7.7      1.479      1.937
  Name = 
  7 active torsions:
  status: ('A' for Active; 'I' for Inactive)
    1  A    between atoms: C_1  and  C_7
    2  A    between atoms: N_2  and  C_5
    3  A    between atoms: N_2  and  C_10
    4  A    between atoms: C_4  and  C_8
    5  A    between atoms: C_4  and  C_27
    6  A    between atoms: C_9  and  C_19
    7  A    between atoms: C_19  and  C_27
                            x       y       z     vdW  Elec       q    Type
                         _______ _______ _______ _____ _____    ______ ____

>  <TORSDO>
F 7

$$$$
=
 OpenBabel11072413173D

 27 29  0  0  1  0  0  0  0  0999 V2000
  161.0790  207.9000  156.0440 N   0  0  0  0  0  0  0  0  0  0  0  0
  161.0910  209.6070  154.3620 C   0  0  0  0  0  0  0  0  0  0  0  0
  160.8960  208.6220  153.3800 C   0  0  0  0  0  0  0  0  0  0  0  0
  161.1800  209.2130  155.7050 C   0  0  0  0  0  3  0  0  0  0  0  0
  160.8900  206.9360  155.1050 C   0  0  0  0  0  3  0  0  0  0  0  0
  160.7940  207.2800  153.7570 C   0  0  0  0  0  3  0  0  0  0  0  0
  161.1880  210.9900  153.9930 N   0  0  0  0  0  2  0  0  0  0  0  0
  157.6630  213.2820  153.5400 C   0  0  1  0  0  3  0  0  0  0  0  0
  160.0530  211.9020  153.9820 C   0  0  2  0  0  3  0  0  0  0  0  0
  158.8010  211.1680  154.4520 C   0  0  0  0  0  2  0  0  0  0  0  0
  159.8610  212.4830  152.5720 C   0  0  0  0  0  2  0  0  0  0  0  0
  157.6000  212.1190  154.5430 C   0  0  0  0  0  2  0  0  0  0  0  0
  158.4140  212.8940  152.2680 C   0  0  0  0  0  2  0  0  0  0  0  0
  156.2910  213.7760  153.2230 C   0  0  0  0  0  0  0  0  0  0  0  0
  156.0060  214.1740  152.0620 O   0  0  0  0  0  0  0  0  0  0  0  0
  155.3170  213.7790  154.2110 O   0  0  0  0  0  1  0  0  0  0  0  0
  160.7980  208.9760  151.9280 C   0  0  0  0  0  2  0  0  0  0  0  0
  162.0640  208.5930  151.1700 C   0  0  0  0  0  2  0  0  0  0  0  0
  161.7680  207.6580  150.0330 C   0  0  0  0  0  0  0  0  0  0  0  0
  162.0130  207.9990  148.8870 O   0  0  0  0  0  0  0  0  0  0  0  0
  160.3920  203.5060  150.7230 C   0  0  0  0  0  2  0  0  0  0  0  0
  161.1340  206.3260  150.2810 C   0  0  0  0  0  3  0  0  0  0  0  0
  161.2990  204.4670  148.5060 C   0  0  0  0  0  2  0  0  0  0  0  0
  160.8900  203.2190  149.3030 C   0  0  0  0  0  2  0  0  0  0  0  0
  161.4390  204.1610  151.6280 C   0  0  0  0  0  2  0  0  0  0  0  0
  160.5820  205.7430  148.9640 C   0  0  0  0  0  2  0  0  0  0  0  0
  162.1080  205.4040  151.0310 C   0  0  0  0  0  2  0  0  0  0  0  0
  2  4  2  0  0  0  0
  3  6  2  0  0  0  0
  3  2  1  0  0  0  0
  4  1  1  0  0  0  0
  5  1  2  0  0  0  0
  6  5  1  0  0  0  0
  7  2  1  0  0  0  0
  8 14  1  6  0  0  0
  8 12  1  0  0  0  0
  9  7  1  6  0  0  0
  9 10  1  0  0  0  0
 10 12  1  0  0  0  0
 11  9  1  0  0  0  0
 13 11  1  0  0  0  0
 13  8  1  0  0  0  0
 14 16  1  0  0  0  0
 15 14  2  0  0  0  0
 17  3  1  0  0  0  0
 18 17  1  0  0  0  0
 19 22  1  0  0  0  0
 19 18  1  0  0  0  0
 20 19  2  0  0  0  0
 21 25  1  0  0  0  0
 22 27  1  0  0  0  0
 23 26  1  0  0  0  0
 23 24  1  0  0  0  0
 24 21  1  0  0  0  0
 26 22  1  0  0  0  0
 27 25  1  0  0  0  0
M  END
>  <MODEL>
4

>  <REMARK>
 VINA RESULT:      -7.5      2.609      4.564
  Name = 
  7 active torsions:
  status: ('A' for Active; 'I' for Inactive)
    1  A    between atoms: C_1  and  C_7
    2  A    between atoms: N_2  and  C_5
    3  A    between atoms: N_2  and  C_10
    4  A    between atoms: C_4  and  C_8
    5  A    between atoms: C_4  and  C_27
    6  A    between atoms: C_9  and  C_19
    7  A    between atoms: C_19  and  C_27
                            x       y       z     vdW  Elec       q    Type
                         _______ _______ _______ _____ _____    ______ ____

>  <TORSDO>
F 7

$$$$
=
 OpenBabel11072413173D

 27 29  0  0  1  0  0  0  0  0999 V2000
  162.1390  209.0590  149.6940 N   0  0  0  0  0  0  0  0  0  0  0  0
  161.3320  207.3170  151.1290 C   0  0  0  0  0  0  0  0  0  0  0  0
  161.3060  208.2280  152.1980 C   0  0  0  0  0  0  0  0  0  0  0  0
  161.7580  207.7660  149.8700 C   0  0  0  0  0  3  0  0  0  0  0  0
  162.1190  209.9520  150.7190 C   0  0  0  0  0  3  0  0  0  0  0  0
  161.7010  209.5510  151.9890 C   0  0  0  0  0  3  0  0  0  0  0  0
  160.9200  205.9570  151.3240 N   0  0  0  0  0  2  0  0  0  0  0  0
  161.3600  202.6950  148.6700 C   0  0  1  0  0  3  0  0  0  0  0  0
  161.2730  204.8710  150.4220 C   0  0  2  0  0  3  0  0  0  0  0  0
  160.7030  205.1500  149.0350 C   0  0  0  0  0  2  0  0  0  0  0  0
  160.7530  203.5360  150.9790 C   0  0  0  0  0  2  0  0  0  0  0  0
  161.1310  204.0730  148.0300 C   0  0  0  0  0  2  0  0  0  0  0  0
  160.4740  202.4840  149.8970 C   0  0  0  0  0  2  0  0  0  0  0  0
  161.1530  201.6100  147.6670 C   0  0  0  0  0  0  0  0  0  0  0  0
  160.7540  201.8810  146.5020 O   0  0  0  0  0  0  0  0  0  0  0  0
  161.4200  200.2930  148.0150 O   0  0  0  0  0  1  0  0  0  0  0  0
  160.8680  207.8110  153.5680 C   0  0  0  0  0  2  0  0  0  0  0  0
  161.2970  208.8190  154.6270 C   0  0  0  0  0  2  0  0  0  0  0  0
  160.1790  209.1370  155.5760 C   0  0  0  0  0  0  0  0  0  0  0  0
  159.6210  208.2360  156.1810 O   0  0  0  0  0  0  0  0  0  0  0  0
  158.4210  213.1990  155.7260 C   0  0  0  0  0  2  0  0  0  0  0  0
  159.7070  210.5450  155.7600 C   0  0  0  0  0  3  0  0  0  0  0  0
  159.8320  212.2140  153.8020 C   0  0  0  0  0  2  0  0  0  0  0  0
  158.9170  213.3510  154.2840 C   0  0  0  0  0  2  0  0  0  0  0  0
  157.5670  211.9500  155.9610 C   0  0  0  0  0  2  0  0  0  0  0  0
  160.5840  211.5140  154.9400 C   0  0  0  0  0  2  0  0  0  0  0  0
  158.2010  210.6440  155.4700 C   0  0  0  0  0  2  0  0  0  0  0  0
  1  4  2  0  0  0  0
  1  5  1  0  0  0  0
  2  7  1  0  0  0  0
  2  3  2  0  0  0  0
  3 17  1  0  0  0  0
  4  2  1  0  0  0  0
  5  6  2  0  0  0  0
  6  3  1  0  0  0  0
  8 14  1  6  0  0  0
  8 13  1  0  0  0  0
  9 11  1  0  0  0  0
  9  7  1  1  0  0  0
 10  9  1  0  0  0  0
 12  8  1  0  0  0  0
 12 10  1  0  0  0  0
 13 11  1  0  0  0  0
 14 16  1  0  0  0  0
 15 14  2  0  0  0  0
 17 18  1  0  0  0  0
 18 19  1  0  0  0  0
 19 22  1  0  0  0  0
 19 20  2  0  0  0  0
 21 25  1  0  0  0  0
 23 24  1  0  0  0  0
 23 26  1  0  0  0  0
 24 21  1  0  0  0  0
 26 22  1  0  0  0  0
 27 22  1  0  0  0  0
 27 25  1  0  0  0  0
M  END
>  <MODEL>
5

>  <REMARK>
 VINA RESULT:      -7.2      2.762      9.111
  Name = 
  7 active torsions:
  status: ('A' for Active; 'I' for Inactive)
    1  A    between atoms: C_1  and  C_7
    2  A    between atoms: N_2  and  C_5
    3  A    between atoms: N_2  and  C_10
    4  A    between atoms: C_4  and  C_8
    5  A    between atoms: C_4  and  C_27
    6  A    between atoms: C_9  and  C_19
    7  A    between atoms: C_19  and  C_27
                            x       y       z     vdW  Elec       q    Type
                         _______ _______ _______ _____ _____    ______ ____

>  <TORSDO>
F 7

$$$$
=
 OpenBabel11072413173D

 27 29  0  0  1  0  0  0  0  0999 V2000
  160.4480  208.4800  154.4690 N   0  0  0  0  0  0  0  0  0  0  0  0
  161.3780  206.7000  153.1630 C   0  0  0  0  0  0  0  0  0  0  0  0
  161.5710  207.5980  152.1000 C   0  0  0  0  0  0  0  0  0  0  0  0
  160.8070  207.1750  154.3530 C   0  0  0  0  0  3  0  0  0  0  0  0
  160.6280  209.3610  153.4500 C   0  0  0  0  0  3  0  0  0  0  0  0
  161.1940  208.9350  152.2480 C   0  0  0  0  0  3  0  0  0  0  0  0
  161.7690  205.3260  153.0310 N   0  0  0  0  0  2  0  0  0  0  0  0
  160.9430  202.7120  149.8110 C   0  0  1  0  0  3  0  0  0  0  0  0
  161.5990  204.5540  151.8100 C   0  0  2  0  0  3  0  0  0  0  0  0
  160.1290  204.5570  151.4000 C   0  0  0  0  0  2  0  0  0  0  0  0
  162.1140  203.1210  152.0180 C   0  0  0  0  0  2  0  0  0  0  0  0
  159.9200  203.8310  150.0650 C   0  0  0  0  0  2  0  0  0  0  0  0
  161.4320  202.0840  151.1150 C   0  0  0  0  0  2  0  0  0  0  0  0
  160.3730  201.6780  148.8990 C   0  0  0  0  0  0  0  0  0  0  0  0
  159.1450  201.3970  148.9360 O   0  0  0  0  0  1  0  0  0  0  0  0
  161.2000  201.0350  147.9890 O   0  0  0  0  0  0  0  0  0  0  0  0
  162.1700  207.1540  150.8020 C   0  0  0  0  0  2  0  0  0  0  0  0
  161.2340  207.4240  149.6290 C   0  0  0  0  0  2  0  0  0  0  0  0
  161.9010  207.1490  148.3130 C   0  0  0  0  0  0  0  0  0  0  0  0
  162.7150  207.9410  147.8660 O   0  0  0  0  0  0  0  0  0  0  0  0
  161.2120  203.7340  145.5780 C   0  0  0  0  0  2  0  0  0  0  0  0
  161.5490  205.9330  147.5150 C   0  0  0  0  0  3  0  0  0  0  0  0
  160.5090  206.1840  145.1720 C   0  0  0  0  0  2  0  0  0  0  0  0
  160.6820  204.7740  144.5860 C   0  0  0  0  0  2  0  0  0  0  0  0
  162.6070  204.0510  146.1240 C   0  0  0  0  0  2  0  0  0  0  0  0
  160.2720  206.1880  146.6870 C   0  0  0  0  0  2  0  0  0  0  0  0
  162.7610  205.4650  146.6940 C   0  0  0  0  0  2  0  0  0  0  0  0
  2  4  2  0  0  0  0
  3  6  2  0  0  0  0
  3  2  1  0  0  0  0
  4  1  1  0  0  0  0
  5  1  2  0  0  0  0
  6  5  1  0  0  0  0
  7  2  1  0  0  0  0
  8 14  1  6  0  0  0
  8 12  1  0  0  0  0
  8 13  1  0  0  0  0
  9 11  1  0  0  0  0
  9  7  1  1  0  0  0
 10  9  1  0  0  0  0
 12 10  1  0  0  0  0
 13 11  1  0  0  0  0
 14 15  1  0  0  0  0
 16 14  2  0  0  0  0
 17  3  1  0  0  0  0
 18 17  1  0  0  0  0
 19 18  1  0  0  0  0
 20 19  2  0  0  0  0
 21 25  1  0  0  0  0
 22 19  1  0  0  0  0
 23 26  1  0  0  0  0
 24 23  1  0  0  0  0
 24 21  1  0  0  0  0
 25 27  1  0  0  0  0
 26 22  1  0  0  0  0
 27 22  1  0  0  0  0
M  END
>  <MODEL>
6

>  <REMARK>
 VINA RESULT:      -7.2      3.094      5.837
  Name = 
  7 active torsions:
  status: ('A' for Active; 'I' for Inactive)
    1  A    between atoms: C_1  and  C_7
    2  A    between atoms: N_2  and  C_5
    3  A    between atoms: N_2  and  C_10
    4  A    between atoms: C_4  and  C_8
    5  A    between atoms: C_4  and  C_27
    6  A    between atoms: C_9  and  C_19
    7  A    between atoms: C_19  and  C_27
                            x       y       z     vdW  Elec       q    Type
                         _______ _______ _______ _____ _____    ______ ____

>  <TORSDO>
F 7

$$$$
=
 OpenBabel11072413173D

 27 29  0  0  1  0  0  0  0  0999 V2000
  162.0360  208.3110  149.9600 N   0  0  0  0  0  0  0  0  0  0  0  0
  161.2590  206.4310  151.2270 C   0  0  0  0  0  0  0  0  0  0  0  0
  161.2470  207.2310  152.3820 C   0  0  0  0  0  0  0  0  0  0  0  0
  161.6640  207.0050  150.0120 C   0  0  0  0  0  3  0  0  0  0  0  0
  162.0290  209.0980  151.0680 C   0  0  0  0  0  3  0  0  0  0  0  0
  161.6330  208.5710  152.2980 C   0  0  0  0  0  3  0  0  0  0  0  0
  160.8560  205.0560  151.2930 N   0  0  0  0  0  2  0  0  0  0  0  0
  161.3560  202.1050  148.3060 C   0  0  1  0  0  3  0  0  0  0  0  0
  161.2300  204.0590  150.3000 C   0  0  2  0  0  3  0  0  0  0  0  0
  160.8310  204.5440  148.9100 C   0  0  0  0  0  2  0  0  0  0  0  0
  160.5640  202.7140  150.6320 C   0  0  0  0  0  2  0  0  0  0  0  0
  161.2900  203.5630  147.8240 C   0  0  0  0  0  2  0  0  0  0  0  0
  160.3310  201.8230  149.4040 C   0  0  0  0  0  2  0  0  0  0  0  0
  161.1840  201.1660  147.1590 C   0  0  0  0  0  0  0  0  0  0  0  0
  161.5800  199.9720  147.2430 O   0  0  0  0  0  1  0  0  0  0  0  0
  160.5650  201.6070  145.9980 O   0  0  0  0  0  0  0  0  0  0  0  0
  160.8320  206.6780  153.7100 C   0  0  0  0  0  2  0  0  0  0  0  0
  161.2060  207.6160  154.8510 C   0  0  0  0  0  2  0  0  0  0  0  0
  160.0390  207.8780  155.7580 C   0  0  0  0  0  0  0  0  0  0  0  0
  159.3280  206.9530  156.1170 O   0  0  0  0  0  0  0  0  0  0  0  0
  159.3070  212.1640  156.6010 C   0  0  0  0  0  2  0  0  0  0  0  0
  159.7070  209.2700  156.1960 C   0  0  0  0  0  3  0  0  0  0  0  0
  161.5920  210.9650  156.6500 C   0  0  0  0  0  2  0  0  0  0  0  0
  160.8310  212.3000  156.6740 C   0  0  0  0  0  2  0  0  0  0  0  0
  158.8030  211.5050  155.3140 C   0  0  0  0  0  2  0  0  0  0  0  0
  160.7710  209.7870  157.1870 C   0  0  0  0  0  2  0  0  0  0  0  0
  159.4780  210.1730  154.9740 C   0  0  0  0  0  2  0  0  0  0  0  0
  1  4  2  0  0  0  0
  1  5  1  0  0  0  0
  2  7  1  0  0  0  0
  2  3  2  0  0  0  0
  3 17  1  0  0  0  0
  4  2  1  0  0  0  0
  5  6  2  0  0  0  0
  6  3  1  0  0  0  0
  8 14  1  6  0  0  0
  8 13  1  0  0  0  0
  9 11  1  0  0  0  0
  9  7  1  1  0  0  0
 10  9  1  0  0  0  0
 12  8  1  0  0  0  0
 12 10  1  0  0  0  0
 13 11  1  0  0  0  0
 14 15  1  0  0  0  0
 16 14  2  0  0  0  0
 17 18  1  0  0  0  0
 18 19  1  0  0  0  0
 19 20  2  0  0  0  0
 19 22  1  0  0  0  0
 21 24  1  0  0  0  0
 22 26  1  0  0  0  0
 23 24  1  0  0  0  0
 23 26  1  0  0  0  0
 25 21  1  0  0  0  0
 27 25  1  0  0  0  0
 27 22  1  0  0  0  0
M  END
>  <MODEL>
7

>  <REMARK>
 VINA RESULT:      -7.2      2.797      9.306
  Name = 
  7 active torsions:
  status: ('A' for Active; 'I' for Inactive)
    1  A    between atoms: C_1  and  C_7
    2  A    between atoms: N_2  and  C_5
    3  A    between atoms: N_2  and  C_10
    4  A    between atoms: C_4  and  C_8
    5  A    between atoms: C_4  and  C_27
    6  A    between atoms: C_9  and  C_19
    7  A    between atoms: C_19  and  C_27
                            x       y       z     vdW  Elec       q    Type
                         _______ _______ _______ _____ _____    ______ ____

>  <TORSDO>
F 7

$$$$
=
 OpenBabel11072413173D

 27 29  0  0  1  0  0  0  0  0999 V2000
  160.8320  206.9370  155.4890 N   0  0  0  0  0  0  0  0  0  0  0  0
  160.9800  207.4830  153.1600 C   0  0  0  0  0  0  0  0  0  0  0  0
  160.6410  208.8120  153.4630 C   0  0  0  0  0  0  0  0  0  0  0  0
  161.0700  206.5530  154.2070 C   0  0  0  0  0  3  0  0  0  0  0  0
  160.5030  208.2190  155.7980 C   0  0  0  0  0  3  0  0  0  0  0  0
  160.4030  209.1790  154.7910 C   0  0  0  0  0  3  0  0  0  0  0  0
  161.2370  207.0910  151.8050 N   0  0  0  0  0  2  0  0  0  0  0  0
  160.6370  203.3580  149.9120 C   0  0  1  0  0  3  0  0  0  0  0  0
  160.8500  205.8020  151.2520 C   0  0  2  0  0  3  0  0  0  0  0  0
  161.8160  204.7250  151.7370 C   0  0  0  0  0  2  0  0  0  0  0  0
  160.8250  205.8750  149.7170 C   0  0  0  0  0  2  0  0  0  0  0  0
  161.3900  203.3340  151.2510 C   0  0  0  0  0  2  0  0  0  0  0  0
  161.0810  204.5260  149.0320 C   0  0  0  0  0  2  0  0  0  0  0  0
  160.7960  202.0580  149.1970 C   0  0  0  0  0  0  0  0  0  0  0  0
  160.7390  200.9680  149.8280 O   0  0  0  0  0  1  0  0  0  0  0  0
  160.9910  202.0490  147.8230 O   0  0  0  0  0  0  0  0  0  0  0  0
  160.5220  209.8510  152.3920 C   0  0  0  0  0  2  0  0  0  0  0  0
  160.8300  211.2460  152.9240 C   0  0  0  0  0  2  0  0  0  0  0  0
  159.6870  212.1920  152.6950 C   0  0  0  0  0  0  0  0  0  0  0  0
  159.4380  212.5800  151.5650 O   0  0  0  0  0  0  0  0  0  0  0  0
  157.5600  213.3580  156.4000 C   0  0  0  0  0  2  0  0  0  0  0  0
  158.8730  212.7020  153.8410 C   0  0  0  0  0  3  0  0  0  0  0  0
  157.3800  211.0890  155.1840 C   0  0  0  0  0  2  0  0  0  0  0  0
  157.0660  211.9090  156.4450 C   0  0  0  0  0  2  0  0  0  0  0  0
  159.0810  213.4920  156.2750 C   0  0  0  0  0  2  0  0  0  0  0  0
  157.5300  211.9460  153.9220 C   0  0  0  0  0  2  0  0  0  0  0  0
  159.7000  212.6770  155.1360 C   0  0  0  0  0  2  0  0  0  0  0  0
  1  5  1  0  0  0  0
  2  3  2  0  0  0  0
  2  4  1  0  0  0  0
  3  6  1  0  0  0  0
  4  1  2  0  0  0  0
  6  5  2  0  0  0  0
  7  2  1  0  0  0  0
  8 14  1  6  0  0  0
  8 12  1  0  0  0  0
  9 10  1  0  0  0  0
  9  7  1  1  0  0  0
 11  9  1  0  0  0  0
 12 10  1  0  0  0  0
 13 11  1  0  0  0  0
 13  8  1  0  0  0  0
 14 15  1  0  0  0  0
 16 14  2  0  0  0  0
 17 18  1  0  0  0  0
 17  3  1  0  0  0  0
 19 18  1  0  0  0  0
 19 22  1  0  0  0  0
 20 19  2  0  0  0  0
 21 24  1  0  0  0  0
 22 26  1  0  0  0  0
 22 27  1  0  0  0  0
 23 24  1  0  0  0  0
 25 21  1  0  0  0  0
 26 23  1  0  0  0  0
 27 25  1  0  0  0  0
M  END
>  <MODEL>
8

>  <REMARK>
 VINA RESULT:      -6.9      2.899      8.832
  Name = 
  7 active torsions:
  status: ('A' for Active; 'I' for Inactive)
    1  A    between atoms: C_1  and  C_7
    2  A    between atoms: N_2  and  C_5
    3  A    between atoms: N_2  and  C_10
    4  A    between atoms: C_4  and  C_8
    5  A    between atoms: C_4  and  C_27
    6  A    between atoms: C_9  and  C_19
    7  A    between atoms: C_19  and  C_27
                            x       y       z     vdW  Elec       q    Type
                         _______ _______ _______ _____ _____    ______ ____

>  <TORSDO>
F 7

$$$$
=
 OpenBabel11072413173D

 27 29  0  0  1  0  0  0  0  0999 V2000
  161.5460  210.7710  150.0690 N   0  0  0  0  0  0  0  0  0  0  0  0
  162.1610  208.4560  150.0150 C   0  0  0  0  0  0  0  0  0  0  0  0
  161.7670  208.3330  151.3580 C   0  0  0  0  0  0  0  0  0  0  0  0
  162.0380  209.7030  149.3870 C   0  0  0  0  0  3  0  0  0  0  0  0
  161.1600  210.6680  151.3680 C   0  0  0  0  0  3  0  0  0  0  0  0
  161.2630  209.4470  152.0350 C   0  0  0  0  0  3  0  0  0  0  0  0
  162.6710  207.3200  149.3030 N   0  0  0  0  0  2  0  0  0  0  0  0
  161.6090  205.8820  145.4710 C   0  0  1  0  0  3  0  0  0  0  0  0
  162.3330  207.0180  147.9200 C   0  0  2  0  0  3  0  0  0  0  0  0
  160.8780  206.5680  147.8340 C   0  0  0  0  0  2  0  0  0  0  0  0
  163.2810  205.9410  147.3700 C   0  0  0  0  0  2  0  0  0  0  0  0
  160.4530  206.3290  146.3800 C   0  0  0  0  0  2  0  0  0  0  0  0
  162.6680  205.0980  146.2440 C   0  0  0  0  0  2  0  0  0  0  0  0
  161.0920  205.0900  144.3160 C   0  0  0  0  0  0  0  0  0  0  0  0
  160.4450  204.0250  144.5080 O   0  0  0  0  0  1  0  0  0  0  0  0
  161.3110  205.5410  143.0220 O   0  0  0  0  0  0  0  0  0  0  0  0
  161.8800  207.0310  152.0890 C   0  0  0  0  0  2  0  0  0  0  0  0
  160.8330  206.0290  151.6170 C   0  0  0  0  0  2  0  0  0  0  0  0
  161.4070  204.6480  151.4860 C   0  0  0  0  0  0  0  0  0  0  0  0
  162.4780  204.3830  152.0070 O   0  0  0  0  0  0  0  0  0  0  0  0
  159.7960  201.2690  149.1190 C   0  0  0  0  0  2  0  0  0  0  0  0
  160.7040  203.5990  150.6840 C   0  0  0  0  0  3  0  0  0  0  0  0
  161.5520  202.9890  148.3300 C   0  0  0  0  0  2  0  0  0  0  0  0
  160.8300  201.6600  148.0570 C   0  0  0  0  0  2  0  0  0  0  0  0
  160.3890  201.0570  150.5140 C   0  0  0  0  0  2  0  0  0  0  0  0
  160.7330  203.9630  149.1840 C   0  0  0  0  0  2  0  0  0  0  0  0
  161.2660  202.2080  151.0150 C   0  0  0  0  0  2  0  0  0  0  0  0
  1  5  1  0  0  0  0
  2  3  2  0  0  0  0
  3  6  1  0  0  0  0
  3 17  1  0  0  0  0
  4  2  1  0  0  0  0
  4  1  2  0  0  0  0
  5  6  2  0  0  0  0
  7  2  1  0  0  0  0
  8 14  1  6  0  0  0
  8 13  1  0  0  0  0
  8 12  1  0  0  0  0
  9  7  1  1  0  0  0
 10  9  1  0  0  0  0
 11  9  1  0  0  0  0
 12 10  1  0  0  0  0
 13 11  1  0  0  0  0
 14 15  1  0  0  0  0
 16 14  2  0  0  0  0
 18 17  1  0  0  0  0
 19 18  1  0  0  0  0
 19 20  2  0  0  0  0
 21 25  1  0  0  0  0
 22 27  1  0  0  0  0
 22 19  1  0  0  0  0
 23 26  1  0  0  0  0
 24 23  1  0  0  0  0
 24 21  1  0  0  0  0
 25 27  1  0  0  0  0
 26 22  1  0  0  0  0
M  END
>  <MODEL>
9

>  <REMARK>
 VINA RESULT:      -6.9      3.595      7.520
  Name = 
  7 active torsions:
  status: ('A' for Active; 'I' for Inactive)
    1  A    between atoms: C_1  and  C_7
    2  A    between atoms: N_2  and  C_5
    3  A    between atoms: N_2  and  C_10
    4  A    between atoms: C_4  and  C_8
    5  A    between atoms: C_4  and  C_27
    6  A    between atoms: C_9  and  C_19
    7  A    between atoms: C_19  and  C_27
                            x       y       z     vdW  Elec       q    Type
                         _______ _______ _______ _____ _____    ______ ____

>  <TORSDO>
F 7

$$$$
