=
 OpenBabel11072411493D

 53 59  0  0  1  0  0  0  0  0999 V2000
  162.3310  209.7170  151.8610 C   0  0  1  0  0  3  0  0  0  0  0  0
  160.6130  208.7850  153.4210 C   0  0  0  0  0  3  0  0  0  0  0  0
  161.3150  206.0410  152.3010 C   0  0  0  0  0  0  0  0  0  0  0  0
  161.8060  208.4650  152.5730 C   0  0  1  0  0  3  0  0  0  0  0  0
  161.6220  207.3020  150.1430 C   0  0  1  0  0  3  0  0  0  0  0  0
  161.2860  210.3830  150.9680 C   0  0  0  0  0  2  0  0  0  0  0  0
  160.1860  207.9820  154.3930 C   0  0  0  0  0  0  0  0  0  0  0  0
  161.5570  207.2420  151.6940 C   0  0  0  0  0  0  0  0  0  0  0  0
  161.8430  208.5600  149.5480 O   0  0  0  0  0  0  0  0  0  0  0  0
  161.3490  205.8620  153.7760 C   0  0  0  0  0  3  0  0  0  0  0  0
  160.7840  209.3930  149.9220 C   0  0  0  0  0  2  0  0  0  0  0  0
  162.9180  210.7160  152.8310 C   0  0  0  0  0  1  0  0  0  0  0  0
  160.8570  206.6990  154.6890 C   0  0  0  0  0  3  0  0  0  0  0  0
  160.1070  204.7940  150.5030 C   0  0  0  0  0  3  0  0  0  0  0  0
  161.5780  202.4780  151.0480 C   0  0  0  0  0  0  0  0  0  0  0  0
  161.8070  203.6420  151.7860 C   0  0  0  0  0  3  0  0  0  0  0  0
  160.6140  202.4710  150.0360 C   0  0  0  0  0  3  0  0  0  0  0  0
  162.2980  201.3590  151.3040 F   0  0  0  0  0  0  0  0  0  0  0  0
  159.8810  203.6300  149.7620 C   0  0  0  0  0  3  0  0  0  0  0  0
  161.0630  204.8030  151.5290 C   0  0  0  0  0  0  0  0  0  0  0  0
  162.4770  206.3450  149.5550 O   0  0  0  0  0  0  0  0  0  0  0  0
  162.3840  206.4380  148.1570 C   0  0  0  0  0  2  0  0  0  0  0  0
  161.9140  205.1280  147.5290 C   0  0  2  0  0  3  0  0  0  0  0  0
  162.6510  204.0670  148.0330 F   0  0  0  0  0  0  0  0  0  0  0  0
  161.9060  205.1010  145.9850 C   0  0  2  0  0  0  0  0  0  0  0  0
  160.6870  205.6470  145.3180 C   0  0  0  0  0  0  0  0  0  0  0  0
  161.6050  203.8310  145.3650 C   0  0  2  0  0  3  0  0  0  0  0  0
  160.4900  204.3710  144.6620 O   0  0  0  0  0  0  0  0  0  0  0  0
  163.1090  205.6910  145.4090 N   0  0  0  0  0  1  0  0  0  0  0  0
  161.1430  202.8730  146.2800 O   0  0  0  0  0  1  0  0  0  0  0  0
  160.1050  206.7640  145.2890 O   0  0  0  0  0  0  0  0  0  0  0  0
  159.0910  208.4200  155.2020 N   0  0  0  0  0  2  0  0  0  0  0  0
  159.1100  209.6680  155.9600 C   0  0  2  0  0  3  0  0  0  0  0  0
  157.9390  213.0560  153.5950 C   0  0  2  0  0  3  0  0  0  0  0  0
  158.4870  210.7690  155.2080 N   0  0  0  0  0  0  0  0  0  0  0  0
  159.2130  211.9890  155.5550 C   0  0  0  0  0  2  0  0  0  0  0  0
  156.2860  211.7270  154.6590 C   0  0  0  0  0  2  0  0  0  0  0  0
  156.7680  213.0960  154.4990 N   0  0  2  0  0  0  0  0  0  0  0  0
  155.6450  213.8980  153.9860 C   0  0  0  0  0  2  0  0  0  0  0  0
  157.1200  210.9800  155.6980 C   0  0  0  0  0  2  0  0  0  0  0  0
  159.2530  212.9920  154.3970 C   0  0  2  0  0  3  0  0  0  0  0  0
  156.7140  214.2380  151.7210 C   0  0  0  0  0  2  0  0  0  0  0  0
  159.5570  214.2520  154.9310 O   0  0  0  0  0  1  0  0  0  0  0  0
  157.9780  214.2120  152.5850 C   0  0  0  0  0  2  0  0  0  0  0  0
  155.4700  213.7590  152.4700 C   0  0  0  0  0  2  0  0  0  0  0  0
  161.3330  209.0320  156.9190 C   0  0  0  0  0  3  0  0  0  0  0  0
  162.6660  209.3170  157.2290 C   0  0  0  0  0  3  0  0  0  0  0  0
  160.5340  209.9950  156.2990 C   0  0  0  0  0  0  0  0  0  0  0  0
  162.4060  211.5390  156.3010 C   0  0  0  0  0  3  0  0  0  0  0  0
  161.0760  211.2520  155.9870 C   0  0  0  0  0  3  0  0  0  0  0  0
  163.2080  210.5720  156.9280 C   0  0  0  0  0  0  0  0  0  0  0  0
  165.1230  212.1200  157.1480 C   0  0  0  0  0  1  0  0  0  0  0  0
  164.5440  210.8280  157.2520 O   0  0  0  0  0  0  0  0  0  0  0  0
  1  4  1  0  0  0  0
  1 12  1  1  0  0  0
  2  7  2  0  0  0  0
  3 10  1  0  0  0  0
  4  2  1  6  0  0  0
  5 21  1  1  0  0  0
  5  8  1  0  0  0  0
  6  1  1  0  0  0  0
  7 13  1  0  0  0  0
  7 32  1  0  0  0  0
  8  3  2  0  0  0  0
  8  4  1  0  0  0  0
  9 11  1  0  0  0  0
  9  5  1  0  0  0  0
 10 13  2  0  0  0  0
 11  6  1  0  0  0  0
 14 20  1  0  0  0  0
 15 18  1  0  0  0  0
 15 16  1  0  0  0  0
 17 15  2  0  0  0  0
 19 17  1  0  0  0  0
 19 14  2  0  0  0  0
 20 16  2  0  0  0  0
 20  3  1  0  0  0  0
 22 21  1  0  0  0  0
 23 24  1  1  0  0  0
 23 22  1  0  0  0  0
 25 29  1  6  0  0  0
 25 23  1  0  0  0  0
 26 25  1  0  0  0  0
 27 25  1  0  0  0  0
 27 30  1  1  0  0  0
 28 26  1  0  0  0  0
 28 27  1  0  0  0  0
 31 26  2  0  0  0  0
 33 32  1  6  0  0  0
 33 48  1  0  0  0  0
 34 44  1  1  0  0  0
 34 41  1  0  0  0  0
 34 38  1  0  0  0  0
 35 36  1  0  0  0  0
 35 40  1  0  0  0  0
 35 33  1  0  0  0  0
 37 40  1  0  0  0  0
 38 39  1  6  0  0  0
 38 37  1  0  0  0  0
 41 43  1  1  0  0  0
 41 36  1  0  0  0  0
 42 45  1  0  0  0  0
 42 44  1  0  0  0  0
 45 39  1  0  0  0  0
 46 47  1  0  0  0  0
 48 46  2  0  0  0  0
 49 51  1  0  0  0  0
 50 48  1  0  0  0  0
 50 49  2  0  0  0  0
 51 47  2  0  0  0  0
 51 53  1  0  0  0  0
 52 53  1  0  0  0  0
M  END
>  <MODEL>
1

>  <REMARK>
 VINA RESULT:      -4.6      0.000      0.000
  Name = 
  10 active torsions:
  status: ('A' for Active; 'I' for Inactive)
    1  A    between atoms: C_3  and  C_16
    2  A    between atoms: C_6  and  C_52
    3  A    between atoms: O_8  and  C_17
    4  A    between atoms: O_8  and  C_44
    5  A    between atoms: N_12  and  C_25
    6  A    between atoms: C_14  and  C_25
    7  A    between atoms: C_16  and  C_44
    8  A    between atoms: C_22  and  N_35
    9  A    between atoms: C_25  and  N_35
   10  A    between atoms: C_38  and  O_49
                            x       y       z     vdW  Elec       q    Type
                         _______ _______ _______ _____ _____    ______ ____

>  <TORSDO>
F 10

$$$$
=
 OpenBabel11072411493D

 53 59  0  0  1  0  0  0  0  0999 V2000
  162.4030  209.6060  148.7980 C   0  0  1  0  0  3  0  0  0  0  0  0
  160.8320  209.6110  150.7430 C   0  0  0  0  0  3  0  0  0  0  0  0
  161.5830  206.6880  151.1540 C   0  0  0  0  0  0  0  0  0  0  0  0
  161.9810  208.9030  150.0930 C   0  0  1  0  0  3  0  0  0  0  0  0
  161.6930  206.6470  148.6390 C   0  0  1  0  0  3  0  0  0  0  0  0
  161.2740  209.7060  147.7740 C   0  0  0  0  0  2  0  0  0  0  0  0
  160.5050  209.4280  152.0200 C   0  0  0  0  0  0  0  0  0  0  0  0
  161.7310  207.4000  149.9960 C   0  0  0  0  0  0  0  0  0  0  0  0
  161.8190  207.4130  147.4630 O   0  0  0  0  0  0  0  0  0  0  0  0
  161.7190  207.3010  152.5000 C   0  0  0  0  0  3  0  0  0  0  0  0
  160.7500  208.3150  147.4330 C   0  0  0  0  0  2  0  0  0  0  0  0
  163.0060  210.9660  149.0620 C   0  0  0  0  0  1  0  0  0  0  0  0
  161.2500  208.4880  152.8840 C   0  0  0  0  0  3  0  0  0  0  0  0
  161.4920  204.4880  152.3380 C   0  0  0  0  0  3  0  0  0  0  0  0
  160.6620  203.2020  149.9970 C   0  0  0  0  0  0  0  0  0  0  0  0
  160.9060  204.5770  149.9900 C   0  0  0  0  0  3  0  0  0  0  0  0
  160.8310  202.4690  151.1740 C   0  0  0  0  0  3  0  0  0  0  0  0
  160.2490  202.5800  148.8650 F   0  0  0  0  0  0  0  0  0  0  0  0
  161.2430  203.1130  152.3450 C   0  0  0  0  0  3  0  0  0  0  0  0
  161.3370  205.2270  151.1560 C   0  0  0  0  0  0  0  0  0  0  0  0
  162.5500  205.5270  148.5660 O   0  0  0  0  0  0  0  0  0  0  0  0
  162.7850  205.2100  147.2180 C   0  0  0  0  0  2  0  0  0  0  0  0
  161.8210  204.1410  146.7080 C   0  0  2  0  0  3  0  0  0  0  0  0
  162.3340  202.8780  146.9590 F   0  0  0  0  0  0  0  0  0  0  0  0
  161.4060  204.2780  145.2270 C   0  0  2  0  0  0  0  0  0  0  0  0
  160.1430  205.0260  144.9580 C   0  0  0  0  0  0  0  0  0  0  0  0
  160.7800  203.1230  144.6250 C   0  0  2  0  0  3  0  0  0  0  0  0
  159.6070  203.8580  144.2920 O   0  0  0  0  0  0  0  0  0  0  0  0
  162.4870  204.7830  144.3890 N   0  0  0  0  0  1  0  0  0  0  0  0
  160.4460  202.1330  145.5610 O   0  0  0  0  0  1  0  0  0  0  0  0
  159.7330  206.1990  145.1680 O   0  0  0  0  0  0  0  0  0  0  0  0
  159.4460  210.2170  152.5680 N   0  0  0  0  0  2  0  0  0  0  0  0
  159.5740  211.6460  152.8370 C   0  0  2  0  0  3  0  0  0  0  0  0
  157.4390  213.4160  156.1150 C   0  0  2  0  0  3  0  0  0  0  0  0
  158.6890  212.0750  153.9300 N   0  0  0  0  0  0  0  0  0  0  0  0
  159.5390  212.3500  155.0870 C   0  0  0  0  0  2  0  0  0  0  0  0
  156.6010  211.4530  155.0780 C   0  0  0  0  0  2  0  0  0  0  0  0
  156.9730  212.0340  156.3660 N   0  0  2  0  0  0  0  0  0  0  0  0
  155.7920  211.9510  157.2400 C   0  0  0  0  0  2  0  0  0  0  0  0
  157.8370  210.9510  154.3360 C   0  0  0  0  0  2  0  0  0  0  0  0
  158.9720  213.4640  155.9740 C   0  0  2  0  0  3  0  0  0  0  0  0
  155.4320  214.4530  157.2590 C   0  0  0  0  0  2  0  0  0  0  0  0
  159.5790  213.3600  157.2330 O   0  0  0  0  0  1  0  0  0  0  0  0
  156.9610  214.4280  157.1670 C   0  0  0  0  0  2  0  0  0  0  0  0
  154.7960  213.0890  156.9900 C   0  0  0  0  0  2  0  0  0  0  0  0
  160.2030  212.4330  150.5440 C   0  0  0  0  0  3  0  0  0  0  0  0
  159.9210  213.1160  149.3580 C   0  0  0  0  0  3  0  0  0  0  0  0
  159.2610  212.3950  151.5750 C   0  0  0  0  0  0  0  0  0  0  0  0
  157.7460  213.7300  150.2290 C   0  0  0  0  0  3  0  0  0  0  0  0
  158.0270  213.0440  151.4130 C   0  0  0  0  0  3  0  0  0  0  0  0
  158.6950  213.7720  149.1950 C   0  0  0  0  0  0  0  0  0  0  0  0
  159.2230  214.2480  146.8270 C   0  0  0  0  0  1  0  0  0  0  0  0
  158.4430  214.4470  147.9970 O   0  0  0  0  0  0  0  0  0  0  0  0
  1 12  1  1  0  0  0
  1  4  1  0  0  0  0
  2  7  2  0  0  0  0
  3 20  1  0  0  0  0
  3 10  1  0  0  0  0
  4  2  1  6  0  0  0
  5 21  1  1  0  0  0
  5  8  1  0  0  0  0
  6  1  1  0  0  0  0
  7 32  1  0  0  0  0
  7 13  1  0  0  0  0
  8  4  1  0  0  0  0
  8  3  2  0  0  0  0
  9  5  1  0  0  0  0
 10 13  2  0  0  0  0
 11  9  1  0  0  0  0
 11  6  1  0  0  0  0
 14 19  1  0  0  0  0
 15 17  1  0  0  0  0
 16 15  2  0  0  0  0
 16 20  1  0  0  0  0
 17 19  2  0  0  0  0
 18 15  1  0  0  0  0
 20 14  2  0  0  0  0
 22 21  1  0  0  0  0
 23 24  1  6  0  0  0
 23 22  1  0  0  0  0
 25 29  1  6  0  0  0
 25 23  1  0  0  0  0
 26 31  2  0  0  0  0
 26 25  1  0  0  0  0
 27 25  1  0  0  0  0
 27 30  1  1  0  0  0
 28 27  1  0  0  0  0
 28 26  1  0  0  0  0
 33 32  1  6  0  0  0
 33 35  1  0  0  0  0
 34 38  1  0  0  0  0
 34 44  1  1  0  0  0
 35 40  1  0  0  0  0
 35 36  1  0  0  0  0
 36 41  1  0  0  0  0
 38 37  1  6  0  0  0
 38 39  1  0  0  0  0
 40 37  1  0  0  0  0
 41 34  1  0  0  0  0
 41 43  1  1  0  0  0
 44 42  1  0  0  0  0
 45 39  1  0  0  0  0
 45 42  1  0  0  0  0
 46 48  1  0  0  0  0
 47 46  2  0  0  0  0
 48 33  1  0  0  0  0
 49 50  1  0  0  0  0
 50 48  2  0  0  0  0
 51 47  1  0  0  0  0
 51 49  2  0  0  0  0
 52 53  1  0  0  0  0
 53 51  1  0  0  0  0
M  END
>  <MODEL>
2

>  <REMARK>
 VINA RESULT:      -4.0      2.268      4.161
  Name = 
  10 active torsions:
  status: ('A' for Active; 'I' for Inactive)
    1  A    between atoms: C_3  and  C_16
    2  A    between atoms: C_6  and  C_52
    3  A    between atoms: O_8  and  C_17
    4  A    between atoms: O_8  and  C_44
    5  A    between atoms: N_12  and  C_25
    6  A    between atoms: C_14  and  C_25
    7  A    between atoms: C_16  and  C_44
    8  A    between atoms: C_22  and  N_35
    9  A    between atoms: C_25  and  N_35
   10  A    between atoms: C_38  and  O_49
                            x       y       z     vdW  Elec       q    Type
                         _______ _______ _______ _____ _____    ______ ____

>  <TORSDO>
F 10

$$$$
=
 OpenBabel11072411493D

 53 59  0  0  1  0  0  0  0  0999 V2000
  160.5390  205.0490  152.1900 C   0  0  1  0  0  3  0  0  0  0  0  0
  161.8330  207.0770  151.5060 C   0  0  0  0  0  3  0  0  0  0  0  0
  161.0690  206.4010  148.6360 C   0  0  0  0  0  0  0  0  0  0  0  0
  160.7910  206.0850  151.0890 C   0  0  1  0  0  3  0  0  0  0  0  0
  161.2990  204.0210  149.4240 C   0  0  1  0  0  3  0  0  0  0  0  0
  161.7950  204.2730  152.5820 C   0  0  0  0  0  2  0  0  0  0  0  0
  161.9870  208.2540  150.9040 C   0  0  0  0  0  0  0  0  0  0  0  0
  161.0690  205.5340  149.6930 C   0  0  0  0  0  0  0  0  0  0  0  0
  161.3250  203.1570  150.5360 O   0  0  0  0  0  0  0  0  0  0  0  0
  160.7440  207.8440  148.7790 C   0  0  0  0  0  3  0  0  0  0  0  0
  162.3760  203.5660  151.3620 C   0  0  0  0  0  2  0  0  0  0  0  0
  159.8900  205.6640  153.4080 C   0  0  0  0  0  1  0  0  0  0  0  0
  161.1430  208.6550  149.7590 C   0  0  0  0  0  3  0  0  0  0  0  0
  160.3380  206.0930  146.2660 C   0  0  0  0  0  3  0  0  0  0  0  0
  162.8310  205.0260  145.5800 C   0  0  0  0  0  0  0  0  0  0  0  0
  162.5820  205.4340  146.8920 C   0  0  0  0  0  3  0  0  0  0  0  0
  161.8350  205.1530  144.6080 C   0  0  0  0  0  3  0  0  0  0  0  0
  164.0430  204.5200  145.2440 F   0  0  0  0  0  0  0  0  0  0  0  0
  160.5890  205.6890  144.9520 C   0  0  0  0  0  3  0  0  0  0  0  0
  161.3290  205.9560  147.2480 C   0  0  0  0  0  0  0  0  0  0  0  0
  160.4730  203.4720  148.4190 O   0  0  0  0  0  0  0  0  0  0  0  0
  160.0080  202.2150  148.8370 C   0  0  0  0  0  2  0  0  0  0  0  0
  160.7260  201.0740  148.1180 C   0  0  2  0  0  3  0  0  0  0  0  0
  161.9410  200.8150  148.7330 F   0  0  0  0  0  0  0  0  0  0  0  0
  160.9140  201.2660  146.5970 C   0  0  2  0  0  0  0  0  0  0  0  0
  159.6760  201.2180  145.7650 C   0  0  0  0  0  0  0  0  0  0  0  0
  161.3850  200.1180  145.8580 C   0  0  2  0  0  3  0  0  0  0  0  0
  160.2420  200.1220  145.0070 O   0  0  0  0  0  0  0  0  0  0  0  0
  161.6990  202.4520  146.2760 N   0  0  0  0  0  1  0  0  0  0  0  0
  161.3800  198.9390  146.6190 O   0  0  0  0  0  1  0  0  0  0  0  0
  158.6090  201.8860  145.7050 O   0  0  0  0  0  0  0  0  0  0  0  0
  162.9530  209.1650  151.4350 N   0  0  0  0  0  2  0  0  0  0  0  0
  162.6610  210.5720  151.6960 C   0  0  2  0  0  3  0  0  0  0  0  0
  160.5310  211.2010  155.3720 C   0  0  2  0  0  3  0  0  0  0  0  0
  161.7380  210.7330  152.8300 N   0  0  0  0  0  0  0  0  0  0  0  0
  162.3160  210.0070  153.9600 C   0  0  0  0  0  2  0  0  0  0  0  0
  159.3490  210.5840  153.4090 C   0  0  0  0  0  2  0  0  0  0  0  0
  159.5680  210.2280  154.8080 N   0  0  2  0  0  0  0  0  0  0  0  0
  158.2550  210.2370  155.4720 C   0  0  0  0  0  2  0  0  0  0  0  0
  160.4770  210.0440  152.5320 C   0  0  0  0  0  2  0  0  0  0  0  0
  161.9700  210.6530  155.3050 C   0  0  2  0  0  3  0  0  0  0  0  0
  158.7920  212.2750  156.8660 C   0  0  0  0  0  2  0  0  0  0  0  0
  162.1700  209.6930  156.3070 O   0  0  0  0  0  1  0  0  0  0  0  0
  160.1890  211.6500  156.7990 C   0  0  0  0  0  2  0  0  0  0  0  0
  157.8100  211.6460  155.8770 C   0  0  0  0  0  2  0  0  0  0  0  0
  160.9720  212.0180  150.5440 C   0  0  0  0  0  3  0  0  0  0  0  0
  160.4300  212.5980  149.3930 C   0  0  0  0  0  3  0  0  0  0  0  0
  162.0830  211.1760  150.4500 C   0  0  0  0  0  0  0  0  0  0  0  0
  162.1110  211.4910  148.0450 C   0  0  0  0  0  3  0  0  0  0  0  0
  162.6550  210.9150  149.1940 C   0  0  0  0  0  3  0  0  0  0  0  0
  160.9910  212.3340  148.1380 C   0  0  0  0  0  0  0  0  0  0  0  0
  161.1230  213.0450  145.7740 C   0  0  0  0  0  1  0  0  0  0  0  0
  160.4260  212.9280  147.0060 O   0  0  0  0  0  0  0  0  0  0  0  0
  1  6  1  0  0  0  0
  1 12  1  1  0  0  0
  3 10  1  0  0  0  0
  3  8  2  0  0  0  0
  4  2  1  1  0  0  0
  4  1  1  0  0  0  0
  5 21  1  6  0  0  0
  5  8  1  0  0  0  0
  5  9  1  0  0  0  0
  7 32  1  0  0  0  0
  7  2  2  0  0  0  0
  8  4  1  0  0  0  0
  9 11  1  0  0  0  0
 10 13  2  0  0  0  0
 11  6  1  0  0  0  0
 13  7  1  0  0  0  0
 14 20  1  0  0  0  0
 15 16  1  0  0  0  0
 16 20  2  0  0  0  0
 17 19  1  0  0  0  0
 17 15  2  0  0  0  0
 18 15  1  0  0  0  0
 19 14  2  0  0  0  0
 20  3  1  0  0  0  0
 21 22  1  0  0  0  0
 23 24  1  1  0  0  0
 23 22  1  0  0  0  0
 25 29  1  6  0  0  0
 25 23  1  0  0  0  0
 26 25  1  0  0  0  0
 27 25  1  0  0  0  0
 27 30  1  1  0  0  0
 28 26  1  0  0  0  0
 28 27  1  0  0  0  0
 31 26  2  0  0  0  0
 33 32  1  6  0  0  0
 33 35  1  0  0  0  0
 34 44  1  1  0  0  0
 35 36  1  0  0  0  0
 36 41  1  0  0  0  0
 38 37  1  6  0  0  0
 38 34  1  0  0  0  0
 38 39  1  0  0  0  0
 39 45  1  0  0  0  0
 40 35  1  0  0  0  0
 40 37  1  0  0  0  0
 41 34  1  0  0  0  0
 41 43  1  1  0  0  0
 44 42  1  0  0  0  0
 45 42  1  0  0  0  0
 47 46  2  0  0  0  0
 48 46  1  0  0  0  0
 48 33  1  0  0  0  0
 49 51  2  0  0  0  0
 49 50  1  0  0  0  0
 50 48  2  0  0  0  0
 51 47  1  0  0  0  0
 52 53  1  0  0  0  0
 53 51  1  0  0  0  0
M  END
>  <MODEL>
3

>  <REMARK>
 VINA RESULT:      -2.3      2.522      5.583
  Name = 
  10 active torsions:
  status: ('A' for Active; 'I' for Inactive)
    1  A    between atoms: C_3  and  C_16
    2  A    between atoms: C_6  and  C_52
    3  A    between atoms: O_8  and  C_17
    4  A    between atoms: O_8  and  C_44
    5  A    between atoms: N_12  and  C_25
    6  A    between atoms: C_14  and  C_25
    7  A    between atoms: C_16  and  C_44
    8  A    between atoms: C_22  and  N_35
    9  A    between atoms: C_25  and  N_35
   10  A    between atoms: C_38  and  O_49
                            x       y       z     vdW  Elec       q    Type
                         _______ _______ _______ _____ _____    ______ ____

>  <TORSDO>
F 10

$$$$
=
 OpenBabel11072411493D

 53 59  0  0  1  0  0  0  0  0999 V2000
  162.3740  207.7880  147.9380 C   0  0  1  0  0  3  0  0  0  0  0  0
  161.3180  208.1300  150.1790 C   0  0  0  0  0  3  0  0  0  0  0  0
  161.7030  205.1440  150.6390 C   0  0  0  0  0  0  0  0  0  0  0  0
  162.1670  207.2190  149.3460 C   0  0  1  0  0  3  0  0  0  0  0  0
  161.2180  204.9790  148.1740 C   0  0  1  0  0  3  0  0  0  0  0  0
  161.0650  208.0260  147.1880 C   0  0  0  0  0  2  0  0  0  0  0  0
  161.2740  208.0560  151.5070 C   0  0  0  0  0  0  0  0  0  0  0  0
  161.6820  205.7730  149.4260 C   0  0  0  0  0  0  0  0  0  0  0  0
  161.1780  205.6640  146.9440 O   0  0  0  0  0  0  0  0  0  0  0  0
  162.2390  205.7830  151.8690 C   0  0  0  0  0  3  0  0  0  0  0  0
  160.2770  206.7240  147.0830 C   0  0  0  0  0  2  0  0  0  0  0  0
  163.2160  209.0430  147.9530 C   0  0  0  0  0  1  0  0  0  0  0  0
  162.0530  207.0460  152.2540 C   0  0  0  0  0  3  0  0  0  0  0  0
  161.9430  202.8810  151.6750 C   0  0  0  0  0  3  0  0  0  0  0  0
  159.6740  201.9630  150.3210 C   0  0  0  0  0  0  0  0  0  0  0  0
  160.1070  203.2800  150.1480 C   0  0  0  0  0  3  0  0  0  0  0  0
  160.3740  201.1050  151.1720 C   0  0  0  0  0  3  0  0  0  0  0  0
  158.5680  201.5210  149.6740 F   0  0  0  0  0  0  0  0  0  0  0  0
  161.5070  201.5650  151.8500 C   0  0  0  0  0  3  0  0  0  0  0  0
  161.2520  203.7440  150.8110 C   0  0  0  0  0  0  0  0  0  0  0  0
  161.8600  203.7330  148.0000 O   0  0  0  0  0  0  0  0  0  0  0  0
  162.3540  203.6460  146.6890 C   0  0  0  0  0  2  0  0  0  0  0  0
  161.4310  202.8320  145.7850 C   0  0  2  0  0  3  0  0  0  0  0  0
  160.5620  203.6740  145.1100 F   0  0  0  0  0  0  0  0  0  0  0  0
  160.6550  201.6950  146.4850 C   0  0  2  0  0  0  0  0  0  0  0  0
  161.4770  200.6610  147.1800 C   0  0  0  0  0  0  0  0  0  0  0  0
  160.1530  200.6400  145.6360 C   0  0  2  0  0  3  0  0  0  0  0  0
  160.8720  199.6400  146.3510 O   0  0  0  0  0  0  0  0  0  0  0  0
  159.6100  202.1950  147.3710 N   0  0  0  0  0  1  0  0  0  0  0  0
  160.6530  200.7090  144.3260 O   0  0  0  0  0  1  0  0  0  0  0  0
  162.3060  200.6630  148.1290 O   0  0  0  0  0  0  0  0  0  0  0  0
  160.5000  209.0290  152.2140 N   0  0  0  0  0  2  0  0  0  0  0  0
  161.0260  210.3340  152.6060 C   0  0  2  0  0  3  0  0  0  0  0  0
  159.3750  212.3070  156.0440 C   0  0  2  0  0  3  0  0  0  0  0  0
  160.2530  210.9210  153.7110 N   0  0  0  0  0  0  0  0  0  0  0  0
  160.9800  210.6280  154.9460 C   0  0  0  0  0  2  0  0  0  0  0  0
  157.9600  211.0690  154.5960 C   0  0  0  0  0  2  0  0  0  0  0  0
  158.3600  211.2310  155.9910 N   0  0  2  0  0  0  0  0  0  0  0  0
  157.1420  211.5200  156.7650 C   0  0  0  0  0  2  0  0  0  0  0  0
  158.9740  210.2130  153.8400 C   0  0  0  0  0  2  0  0  0  0  0  0
  160.8000  211.7240  156.0010 C   0  0  2  0  0  3  0  0  0  0  0  0
  157.8260  213.9030  157.2550 C   0  0  0  0  0  2  0  0  0  0  0  0
  161.1390  211.1800  157.2470 O   0  0  0  0  0  1  0  0  0  0  0  0
  159.2110  213.2490  157.2450 C   0  0  0  0  0  2  0  0  0  0  0  0
  156.7340  212.9950  156.6880 C   0  0  0  0  0  2  0  0  0  0  0  0
  160.0900  212.2880  151.3520 C   0  0  0  0  0  3  0  0  0  0  0  0
  160.0650  213.1430  150.2460 C   0  0  0  0  0  3  0  0  0  0  0  0
  161.0040  211.2330  151.4050 C   0  0  0  0  0  0  0  0  0  0  0  0
  161.8730  211.8860  149.2370 C   0  0  0  0  0  3  0  0  0  0  0  0
  161.9000  211.0350  150.3430 C   0  0  0  0  0  3  0  0  0  0  0  0
  160.9510  212.9430  149.1800 C   0  0  0  0  0  0  0  0  0  0  0  0
  162.0690  214.3500  147.4830 C   0  0  0  0  0  1  0  0  0  0  0  0
  160.9020  213.8140  148.0880 O   0  0  0  0  0  0  0  0  0  0  0  0
  1 12  1  1  0  0  0
  1  4  1  0  0  0  0
  2  7  2  0  0  0  0
  3 20  1  0  0  0  0
  3 10  1  0  0  0  0
  4  8  1  0  0  0  0
  4  2  1  6  0  0  0
  5 21  1  6  0  0  0
  5  8  1  0  0  0  0
  6  1  1  0  0  0  0
  7 32  1  0  0  0  0
  7 13  1  0  0  0  0
  8  3  2  0  0  0  0
  9 11  1  0  0  0  0
  9  5  1  0  0  0  0
 10 13  2  0  0  0  0
 11  6  1  0  0  0  0
 14 19  1  0  0  0  0
 15 17  1  0  0  0  0
 16 15  2  0  0  0  0
 16 20  1  0  0  0  0
 17 19  2  0  0  0  0
 18 15  1  0  0  0  0
 20 14  2  0  0  0  0
 22 21  1  0  0  0  0
 23 24  1  1  0  0  0
 23 25  1  0  0  0  0
 23 22  1  0  0  0  0
 25 26  1  0  0  0  0
 25 29  1  1  0  0  0
 26 31  2  0  0  0  0
 27 30  1  6  0  0  0
 27 28  1  0  0  0  0
 27 25  1  0  0  0  0
 28 26  1  0  0  0  0
 33 32  1  6  0  0  0
 33 35  1  0  0  0  0
 34 44  1  1  0  0  0
 35 40  1  0  0  0  0
 35 36  1  0  0  0  0
 36 41  1  0  0  0  0
 38 37  1  6  0  0  0
 38 34  1  0  0  0  0
 38 39  1  0  0  0  0
 40 37  1  0  0  0  0
 41 34  1  0  0  0  0
 41 43  1  1  0  0  0
 44 42  1  0  0  0  0
 45 39  1  0  0  0  0
 45 42  1  0  0  0  0
 46 48  1  0  0  0  0
 47 46  2  0  0  0  0
 48 33  1  0  0  0  0
 49 50  1  0  0  0  0
 50 48  2  0  0  0  0
 51 49  2  0  0  0  0
 51 47  1  0  0  0  0
 52 53  1  0  0  0  0
 53 51  1  0  0  0  0
M  END
>  <MODEL>
4

>  <REMARK>
 VINA RESULT:      -2.0      2.454      4.574
  Name = 
  10 active torsions:
  status: ('A' for Active; 'I' for Inactive)
    1  A    between atoms: C_3  and  C_16
    2  A    between atoms: C_6  and  C_52
    3  A    between atoms: O_8  and  C_17
    4  A    between atoms: O_8  and  C_44
    5  A    between atoms: N_12  and  C_25
    6  A    between atoms: C_14  and  C_25
    7  A    between atoms: C_16  and  C_44
    8  A    between atoms: C_22  and  N_35
    9  A    between atoms: C_25  and  N_35
   10  A    between atoms: C_38  and  O_49
                            x       y       z     vdW  Elec       q    Type
                         _______ _______ _______ _____ _____    ______ ____

>  <TORSDO>
F 10

$$$$
=
 OpenBabel11072411493D

 53 59  0  0  1  0  0  0  0  0999 V2000
  160.4420  204.9360  152.0760 C   0  0  1  0  0  3  0  0  0  0  0  0
  161.6520  207.0210  151.4100 C   0  0  0  0  0  3  0  0  0  0  0  0
  161.0080  206.2830  148.5260 C   0  0  0  0  0  0  0  0  0  0  0  0
  160.6740  205.9740  150.9720 C   0  0  1  0  0  3  0  0  0  0  0  0
  161.3340  203.9250  149.3440 C   0  0  1  0  0  3  0  0  0  0  0  0
  161.7240  204.2280  152.5120 C   0  0  0  0  0  2  0  0  0  0  0  0
  161.7630  208.2000  150.8010 C   0  0  0  0  0  0  0  0  0  0  0  0
  161.0210  205.4260  149.5910 C   0  0  0  0  0  0  0  0  0  0  0  0
  161.3700  203.0730  150.4650 O   0  0  0  0  0  0  0  0  0  0  0  0
  160.6060  207.7090  148.6450 C   0  0  0  0  0  3  0  0  0  0  0  0
  162.3760  203.5410  151.3170 C   0  0  0  0  0  2  0  0  0  0  0  0
  159.7270  205.5280  153.2690 C   0  0  0  0  0  1  0  0  0  0  0  0
  160.9350  208.5480  149.6280 C   0  0  0  0  0  3  0  0  0  0  0  0
  160.3790  205.9610  146.1280 C   0  0  0  0  0  3  0  0  0  0  0  0
  162.9130  204.9300  145.5470 C   0  0  0  0  0  0  0  0  0  0  0  0
  162.6050  205.3360  146.8470 C   0  0  0  0  0  3  0  0  0  0  0  0
  161.9550  205.0410  144.5350 C   0  0  0  0  0  3  0  0  0  0  0  0
  164.1440  204.4410  145.2620 F   0  0  0  0  0  0  0  0  0  0  0  0
  160.6900  205.5590  144.8260 C   0  0  0  0  0  3  0  0  0  0  0  0
  161.3310  205.8400  147.1500 C   0  0  0  0  0  0  0  0  0  0  0  0
  160.5670  203.3260  148.3200 O   0  0  0  0  0  0  0  0  0  0  0  0
  160.1110  202.0720  148.7570 C   0  0  0  0  0  2  0  0  0  0  0  0
  160.7380  200.9290  147.9620 C   0  0  2  0  0  3  0  0  0  0  0  0
  161.9590  200.5780  148.5150 F   0  0  0  0  0  0  0  0  0  0  0  0
  160.8780  201.1790  146.4450 C   0  0  2  0  0  0  0  0  0  0  0  0
  159.6080  201.2410  145.6620 C   0  0  0  0  0  0  0  0  0  0  0  0
  161.2520  200.0410  145.6360 C   0  0  2  0  0  3  0  0  0  0  0  0
  160.0800  200.1500  144.8340 O   0  0  0  0  0  0  0  0  0  0  0  0
  161.7180  202.3330  146.1440 N   0  0  0  0  0  1  0  0  0  0  0  0
  161.2070  198.8310  146.3450 O   0  0  0  0  0  1  0  0  0  0  0  0
  158.5810  201.9710  145.6740 O   0  0  0  0  0  0  0  0  0  0  0  0
  162.6660  209.1630  151.3500 N   0  0  0  0  0  2  0  0  0  0  0  0
  162.3140  210.5680  151.5390 C   0  0  2  0  0  3  0  0  0  0  0  0
  158.6430  211.4140  153.6000 C   0  0  2  0  0  3  0  0  0  0  0  0
  161.1440  210.7210  152.4170 N   0  0  0  0  0  0  0  0  0  0  0  0
  160.8310  212.1480  152.4700 C   0  0  0  0  0  2  0  0  0  0  0  0
  160.2730  210.0150  154.6090 C   0  0  0  0  0  2  0  0  0  0  0  0
  159.4520  211.2050  154.8210 N   0  0  2  0  0  0  0  0  0  0  0  0
  158.6520  210.9740  156.0350 C   0  0  0  0  0  2  0  0  0  0  0  0
  161.5150  210.3560  153.7890 C   0  0  0  0  0  2  0  0  0  0  0  0
  159.3310  212.4080  152.6460 C   0  0  2  0  0  3  0  0  0  0  0  0
  156.4730  210.8270  154.7640 C   0  0  0  0  0  2  0  0  0  0  0  0
  159.1760  213.7190  153.1170 O   0  0  0  0  0  1  0  0  0  0  0  0
  157.1990  211.8490  153.8850 C   0  0  0  0  0  2  0  0  0  0  0  0
  157.4010  210.1330  155.7620 C   0  0  0  0  0  2  0  0  0  0  0  0
  160.8660  211.8830  149.9760 C   0  0  0  0  0  3  0  0  0  0  0  0
  160.6120  212.4650  148.7310 C   0  0  0  0  0  3  0  0  0  0  0  0
  162.0510  211.1750  150.1920 C   0  0  0  0  0  0  0  0  0  0  0  0
  162.7310  211.6300  147.9090 C   0  0  0  0  0  3  0  0  0  0  0  0
  162.9870  211.0520  149.1540 C   0  0  0  0  0  3  0  0  0  0  0  0
  161.5390  212.3380  147.6890 C   0  0  0  0  0  0  0  0  0  0  0  0
  162.2720  213.3470  145.5550 C   0  0  0  0  0  1  0  0  0  0  0  0
  161.2560  212.9300  146.4550 O   0  0  0  0  0  0  0  0  0  0  0  0
  1  6  1  0  0  0  0
  1 12  1  1  0  0  0
  3 10  1  0  0  0  0
  3  8  2  0  0  0  0
  4  2  1  1  0  0  0
  4  1  1  0  0  0  0
  5 21  1  6  0  0  0
  5  8  1  0  0  0  0
  5  9  1  0  0  0  0
  7 32  1  0  0  0  0
  7  2  2  0  0  0  0
  8  4  1  0  0  0  0
  9 11  1  0  0  0  0
 10 13  2  0  0  0  0
 11  6  1  0  0  0  0
 13  7  1  0  0  0  0
 14 20  1  0  0  0  0
 15 16  1  0  0  0  0
 16 20  2  0  0  0  0
 17 19  1  0  0  0  0
 17 15  2  0  0  0  0
 18 15  1  0  0  0  0
 19 14  2  0  0  0  0
 20  3  1  0  0  0  0
 21 22  1  0  0  0  0
 23 24  1  1  0  0  0
 23 22  1  0  0  0  0
 25 29  1  6  0  0  0
 25 23  1  0  0  0  0
 26 31  2  0  0  0  0
 26 25  1  0  0  0  0
 27 30  1  1  0  0  0
 27 25  1  0  0  0  0
 28 27  1  0  0  0  0
 28 26  1  0  0  0  0
 33 32  1  6  0  0  0
 33 35  1  0  0  0  0
 34 44  1  1  0  0  0
 34 38  1  0  0  0  0
 35 36  1  0  0  0  0
 35 40  1  0  0  0  0
 36 41  1  0  0  0  0
 38 37  1  6  0  0  0
 38 39  1  0  0  0  0
 40 37  1  0  0  0  0
 41 43  1  1  0  0  0
 41 34  1  0  0  0  0
 42 45  1  0  0  0  0
 44 42  1  0  0  0  0
 45 39  1  0  0  0  0
 46 48  1  0  0  0  0
 47 46  2  0  0  0  0
 48 33  1  0  0  0  0
 49 50  1  0  0  0  0
 50 48  2  0  0  0  0
 51 49  2  0  0  0  0
 51 47  1  0  0  0  0
 52 53  1  0  0  0  0
 53 51  1  0  0  0  0
M  END
>  <MODEL>
5

>  <REMARK>
 VINA RESULT:      -1.8      2.567      5.531
  Name = 
  10 active torsions:
  status: ('A' for Active; 'I' for Inactive)
    1  A    between atoms: C_3  and  C_16
    2  A    between atoms: C_6  and  C_52
    3  A    between atoms: O_8  and  C_17
    4  A    between atoms: O_8  and  C_44
    5  A    between atoms: N_12  and  C_25
    6  A    between atoms: C_14  and  C_25
    7  A    between atoms: C_16  and  C_44
    8  A    between atoms: C_22  and  N_35
    9  A    between atoms: C_25  and  N_35
   10  A    between atoms: C_38  and  O_49
                            x       y       z     vdW  Elec       q    Type
                         _______ _______ _______ _____ _____    ______ ____

>  <TORSDO>
F 10

$$$$
