=
 OpenBabel11072411463D

 53 57  0  0  1  0  0  0  0  0999 V2000
  161.6510  205.3790  143.4890 C   0  0  1  0  0  3  0  0  0  0  0  0
  162.2710  205.9100  144.7780 C   0  0  0  0  0  2  0  0  0  0  0  0
  160.3930  204.6840  143.7520 N   0  0  0  0  0  2  0  0  0  0  0  0
  161.3720  205.6110  145.9850 C   0  0  1  0  0  3  0  0  0  0  0  0
  160.9600  204.2590  146.0570 O   0  0  0  0  0  0  0  0  0  0  0  0
  160.6500  203.6880  144.7940 C   0  0  0  0  0  2  0  0  0  0  0  0
  162.0360  206.0120  147.3040 C   0  0  2  0  0  3  0  0  0  0  0  0
  163.3670  205.5740  147.3560 O   0  0  0  0  0  1  0  0  0  0  0  0
  161.2790  205.5340  148.4590 N   0  0  0  0  0  0  0  0  0  0  0  0
  160.2990  206.3720  149.0860 C   0  0  0  0  0  3  0  0  0  0  0  0
  160.5860  207.3620  149.9340 C   0  0  0  0  0  3  0  0  0  0  0  0
  161.9730  207.8090  150.2960 C   0  0  1  0  0  3  0  0  0  0  0  0
  161.8220  209.2420  148.3810 O   0  0  0  0  0  1  0  0  0  0  0  0
  162.3220  209.1700  149.6850 C   0  0  0  0  0  3  0  0  0  0  0  0
  161.7870  210.2110  150.4480 O   0  0  0  0  0  1  0  0  0  0  0  0
  162.3140  207.6670  151.7920 C   0  0  0  0  0  2  0  0  0  0  0  0
  160.0000  209.1100  155.1570 C   0  0  0  0  0  2  0  0  0  0  0  0
  161.8140  206.3030  154.4340 C   0  0  0  0  0  1  0  0  0  0  0  0
  162.0450  209.2720  153.6730 C   0  0  0  0  0  2  0  0  0  0  0  0
  160.7320  207.1000  153.7280 C   0  0  1  0  0  3  0  0  0  0  0  0
  159.7540  207.6520  154.7740 C   0  0  0  0  0  2  0  0  0  0  0  0
  161.3140  208.2130  152.8290 C   0  0  2  0  0  0  0  0  0  0  0  0
  161.4880  209.4480  155.0900 C   0  0  0  0  0  2  0  0  0  0  0  0
  160.2750  208.8650  152.1580 O   0  0  0  0  0  1  0  0  0  0  0  0
  161.5130  204.1770  148.9390 C   0  0  0  0  0  2  0  0  0  0  0  0
  160.7530  201.6190  150.3540 C   0  0  0  0  0  1  0  0  0  0  0  0
  161.3270  204.0990  150.3820 N   0  0  0  0  0  2  0  0  0  0  0  0
  160.8020  202.9360  152.3590 N   0  0  0  0  0  2  0  0  0  0  0  0
  160.9630  202.8990  151.0780 C   0  0  0  0  0  0  0  0  0  0  0  0
  161.4180  206.5380  142.5360 C   0  0  0  0  0  2  0  0  0  0  0  0
  162.0230  206.2720  141.2410 N   0  0  0  0  0  2  0  0  0  0  0  0
  162.4100  207.5450  140.6440 C   0  0  0  0  0  2  0  0  0  0  0  0
  161.3000  208.1510  140.0460 O   0  0  0  0  0  0  0  0  0  0  0  0
  163.3030  212.1790  137.4330 C   0  0  0  0  0  3  0  0  0  0  0  0
  161.9670  210.1140  137.8170 C   0  0  1  0  0  3  0  0  0  0  0  0
  159.8910  210.6620  138.6110 C   0  0  1  0  0  3  0  0  0  0  0  0
  161.4770  209.5180  140.2490 C   0  0  1  0  0  3  0  0  0  0  0  0
  160.5870  209.8290  137.7160 O   0  0  0  0  0  0  0  0  0  0  0  0
  158.4090  210.6150  138.2870 C   0  0  0  0  0  1  0  0  0  0  0  0
  164.0500  211.9440  138.7130 C   0  0  0  0  0  2  0  0  0  0  0  0
  162.3510  211.3340  137.0160 C   0  0  0  0  0  3  0  0  0  0  0  0
  162.5280  210.0450  139.2690 C   0  0  2  0  0  3  0  0  0  0  0  0
  163.0970  211.3790  139.7610 C   0  0  0  0  0  2  0  0  0  0  0  0
  160.1280  210.2310  140.0690 C   0  0  1  0  0  3  0  0  0  0  0  0
  160.0630  211.4360  140.9940 C   0  0  0  0  0  2  0  0  0  0  0  0
  160.4680  211.0770  142.2810 O   0  0  0  0  0  0  0  0  0  0  0  0
  158.7840  213.7900  143.6930 O   0  0  0  0  0  1  0  0  0  0  0  0
  161.2190  212.1640  142.7350 C   0  0  2  0  0  3  0  0  0  0  0  0
  160.8040  212.5620  144.1420 C   0  0  0  0  0  0  0  0  0  0  0  0
  160.1780  213.8450  143.6140 C   0  0  1  0  0  3  0  0  0  0  0  0
  160.6160  213.4590  142.2100 C   0  0  0  0  0  2  0  0  0  0  0  0
  159.9050  211.6880  144.7340 F   0  0  0  0  0  0  0  0  0  0  0  0
  161.8960  212.8190  144.9470 F   0  0  0  0  0  0  0  0  0  0  0  0
  1 30  1  6  0  0  0
  1  3  1  0  0  0  0
  1  2  1  0  0  0  0
  2  4  1  0  0  0  0
  3  6  1  0  0  0  0
  4  5  1  0  0  0  0
  4  7  1  1  0  0  0
  6  5  1  0  0  0  0
  7  8  1  6  0  0  0
  7  9  1  0  0  0  0
  9 25  1  0  0  0  0
  9 10  1  0  0  0  0
 10 11  2  0  0  0  0
 12 11  1  1  0  0  0
 12 16  1  0  0  0  0
 13 14  1  0  0  0  0
 14 12  1  0  0  0  0
 14 15  1  0  0  0  0
 16 22  1  0  0  0  0
 19 23  1  0  0  0  0
 20 18  1  1  0  0  0
 20 21  1  0  0  0  0
 21 17  1  0  0  0  0
 22 24  1  6  0  0  0
 22 19  1  0  0  0  0
 22 20  1  0  0  0  0
 23 17  1  0  0  0  0
 25 27  1  0  0  0  0
 26 29  1  0  0  0  0
 27 29  1  0  0  0  0
 29 28  2  0  0  0  0
 31 30  1  0  0  0  0
 32 31  1  0  0  0  0
 33 32  1  0  0  0  0
 34 40  1  0  0  0  0
 35 41  1  1  0  0  0
 35 42  1  0  0  0  0
 36 39  1  6  0  0  0
 36 44  1  0  0  0  0
 37 33  1  6  0  0  0
 38 35  1  0  0  0  0
 38 36  1  0  0  0  0
 40 43  1  0  0  0  0
 41 34  2  0  0  0  0
 42 43  1  1  0  0  0
 42 37  1  0  0  0  0
 44 37  1  0  0  0  0
 44 45  1  1  0  0  0
 45 46  1  0  0  0  0
 48 46  1  6  0  0  0
 48 49  1  0  0  0  0
 49 52  1  0  0  0  0
 49 53  1  0  0  0  0
 50 47  1  6  0  0  0
 50 49  1  0  0  0  0
 51 48  1  0  0  0  0
 51 50  1  0  0  0  0
M  END
>  <MODEL>
1

>  <REMARK>
 VINA RESULT:      -4.5      0.000      0.000
  Name = 
  17 active torsions:
  status: ('A' for Active; 'I' for Inactive)
    1  A    between atoms: O_1  and  C_13
    2  A    between atoms: O_1  and  C_22
    3  A    between atoms: C_3  and  C_28
    4  A    between atoms: N_4  and  C_7
    5  A    between atoms: N_4  and  C_8
    6  A    between atoms: N_4  and  C_21
    7  A    between atoms: C_7  and  C_37
    8  A    between atoms: C_10  and  C_47
    9  A    between atoms: C_10  and  O_53
   10  A    between atoms: C_15  and  O_53
   11  A    between atoms: C_18  and  C_28
   12  A    between atoms: C_19  and  C_38
   13  A    between atoms: C_21  and  N_24
   14  A    between atoms: C_22  and  N_29
   15  A    between atoms: C_28  and  C_31
   16  A    between atoms: N_29  and  C_38
   17  A    between atoms: C_31  and  C_39
                            x       y       z     vdW  Elec       q    Type
                         _______ _______ _______ _____ _____    ______ ____

>  <TORSDO>
F 17

$$$$
=
 OpenBabel11072411463D

 53 57  0  0  1  0  0  0  0  0999 V2000
  160.8080  212.8010  146.3550 C   0  0  1  0  0  3  0  0  0  0  0  0
  160.6910  212.0490  147.6770 C   0  0  0  0  0  2  0  0  0  0  0  0
  162.2050  212.9720  145.9630 N   0  0  0  0  0  2  0  0  0  0  0  0
  162.0730  211.6360  148.1990 C   0  0  1  0  0  3  0  0  0  0  0  0
  163.0060  212.6990  148.2210 O   0  0  0  0  0  0  0  0  0  0  0  0
  162.9110  213.5660  147.0990 C   0  0  0  0  0  2  0  0  0  0  0  0
  161.9910  211.0010  149.5890 C   0  0  2  0  0  3  0  0  0  0  0  0
  163.1060  211.3390  150.3690 O   0  0  0  0  0  1  0  0  0  0  0  0
  161.8230  209.5510  149.5130 N   0  0  0  0  0  0  0  0  0  0  0  0
  161.3180  208.9370  148.3190 C   0  0  0  0  0  3  0  0  0  0  0  0
  161.3830  207.6300  148.0590 C   0  0  0  0  0  3  0  0  0  0  0  0
  161.9100  206.5900  149.0050 C   0  0  1  0  0  3  0  0  0  0  0  0
  159.6270  206.2470  149.6500 O   0  0  0  0  0  1  0  0  0  0  0  0
  160.9330  206.2960  150.1480 C   0  0  0  0  0  3  0  0  0  0  0  0
  161.2420  205.0810  150.7670 O   0  0  0  0  0  1  0  0  0  0  0  0
  162.4890  205.3400  148.3140 C   0  0  0  0  0  2  0  0  0  0  0  0
  160.7110  203.0590  145.0890 C   0  0  0  0  0  2  0  0  0  0  0  0
  163.8180  204.2870  145.8220 C   0  0  0  0  0  1  0  0  0  0  0  0
  161.4730  203.2210  147.4980 C   0  0  0  0  0  2  0  0  0  0  0  0
  162.4110  204.8560  145.7980 C   0  0  1  0  0  3  0  0  0  0  0  0
  161.6260  204.2020  144.6520 C   0  0  0  0  0  2  0  0  0  0  0  0
  161.6930  204.7050  147.1570 C   0  0  2  0  0  0  0  0  0  0  0  0
  161.3070  202.3090  146.2780 C   0  0  0  0  0  2  0  0  0  0  0  0
  160.4320  205.3060  147.0900 O   0  0  0  0  0  1  0  0  0  0  0  0
  162.2110  208.7380  150.6590 C   0  0  0  0  0  2  0  0  0  0  0  0
  161.0370  207.3620  153.0780 C   0  0  0  0  0  1  0  0  0  0  0  0
  161.9340  209.4360  151.9080 N   0  0  0  0  0  2  0  0  0  0  0  0
  161.1450  209.5180  154.1220 N   0  0  0  0  0  2  0  0  0  0  0  0
  161.3730  208.8080  153.0680 C   0  0  0  0  0  0  0  0  0  0  0  0
  160.0540  212.0370  145.2800 C   0  0  0  0  0  2  0  0  0  0  0  0
  159.9030  212.8440  144.0810 N   0  0  0  0  0  2  0  0  0  0  0  0
  160.2640  212.0290  142.9280 C   0  0  0  0  0  2  0  0  0  0  0  0
  160.7950  212.8370  141.9170 O   0  0  0  0  0  0  0  0  0  0  0  0
  159.0860  213.8460  137.1070 C   0  0  0  0  0  3  0  0  0  0  0  0
  160.3840  214.1630  139.2080 C   0  0  1  0  0  3  0  0  0  0  0  0
  162.3440  212.9850  139.1010 C   0  0  1  0  0  3  0  0  0  0  0  0
  160.5830  212.1300  140.7360 C   0  0  1  0  0  3  0  0  0  0  0  0
  161.7690  214.2110  139.4840 O   0  0  0  0  0  0  0  0  0  0  0  0
  163.8550  213.1300  139.0760 C   0  0  0  0  0  1  0  0  0  0  0  0
  158.1930  212.8580  137.7990 C   0  0  0  0  0  2  0  0  0  0  0  0
  160.0890  214.4520  137.7560 C   0  0  0  0  0  3  0  0  0  0  0  0
  159.6530  212.9330  139.8230 C   0  0  2  0  0  3  0  0  0  0  0  0
  159.0170  212.0200  138.7690 C   0  0  0  0  0  2  0  0  0  0  0  0
  161.9370  211.8560  140.0640 C   0  0  1  0  0  3  0  0  0  0  0  0
  161.8800  210.5280  139.3260 C   0  0  0  0  0  2  0  0  0  0  0  0
  162.4840  209.5260  140.0890 O   0  0  0  0  0  0  0  0  0  0  0  0
  162.9560  206.8610  137.8840 O   0  0  0  0  0  1  0  0  0  0  0  0
  161.5590  208.4800  140.1020 C   0  0  2  0  0  3  0  0  0  0  0  0
  162.2630  207.1340  140.1720 C   0  0  0  0  0  0  0  0  0  0  0  0
  161.8520  206.8250  138.7390 C   0  0  1  0  0  3  0  0  0  0  0  0
  161.1270  208.1600  138.6780 C   0  0  0  0  0  2  0  0  0  0  0  0
  163.6330  207.2230  140.3680 F   0  0  0  0  0  0  0  0  0  0  0  0
  161.6550  206.2830  141.0730 F   0  0  0  0  0  0  0  0  0  0  0  0
  1 30  1  6  0  0  0
  1  2  1  0  0  0  0
  2  4  1  0  0  0  0
  3  1  1  0  0  0  0
  3  6  1  0  0  0  0
  4  5  1  0  0  0  0
  4  7  1  1  0  0  0
  6  5  1  0  0  0  0
  7  8  1  1  0  0  0
  9  7  1  0  0  0  0
  9 25  1  0  0  0  0
 10  9  1  0  0  0  0
 11 10  2  0  0  0  0
 12 11  1  6  0  0  0
 12 14  1  0  0  0  0
 13 14  1  0  0  0  0
 14 15  1  0  0  0  0
 16 12  1  0  0  0  0
 17 23  1  0  0  0  0
 20 18  1  1  0  0  0
 20 22  1  0  0  0  0
 21 17  1  0  0  0  0
 21 20  1  0  0  0  0
 22 24  1  6  0  0  0
 22 19  1  0  0  0  0
 22 16  1  0  0  0  0
 23 19  1  0  0  0  0
 25 27  1  0  0  0  0
 27 29  1  0  0  0  0
 29 26  1  0  0  0  0
 29 28  2  0  0  0  0
 31 30  1  0  0  0  0
 32 31  1  0  0  0  0
 33 32  1  0  0  0  0
 34 41  2  0  0  0  0
 34 40  1  0  0  0  0
 35 41  1  6  0  0  0
 35 38  1  0  0  0  0
 35 42  1  0  0  0  0
 36 39  1  1  0  0  0
 36 38  1  0  0  0  0
 36 44  1  0  0  0  0
 37 33  1  1  0  0  0
 40 43  1  0  0  0  0
 42 43  1  6  0  0  0
 42 37  1  0  0  0  0
 44 45  1  6  0  0  0
 44 37  1  0  0  0  0
 45 46  1  0  0  0  0
 48 46  1  6  0  0  0
 48 49  1  0  0  0  0
 49 52  1  0  0  0  0
 49 53  1  0  0  0  0
 50 47  1  6  0  0  0
 50 49  1  0  0  0  0
 51 50  1  0  0  0  0
 51 48  1  0  0  0  0
M  END
>  <MODEL>
2

>  <REMARK>
 VINA RESULT:      -4.2      3.179      6.515
  Name = 
  17 active torsions:
  status: ('A' for Active; 'I' for Inactive)
    1  A    between atoms: O_1  and  C_13
    2  A    between atoms: O_1  and  C_22
    3  A    between atoms: C_3  and  C_28
    4  A    between atoms: N_4  and  C_7
    5  A    between atoms: N_4  and  C_8
    6  A    between atoms: N_4  and  C_21
    7  A    between atoms: C_7  and  C_37
    8  A    between atoms: C_10  and  C_47
    9  A    between atoms: C_10  and  O_53
   10  A    between atoms: C_15  and  O_53
   11  A    between atoms: C_18  and  C_28
   12  A    between atoms: C_19  and  C_38
   13  A    between atoms: C_21  and  N_24
   14  A    between atoms: C_22  and  N_29
   15  A    between atoms: C_28  and  C_31
   16  A    between atoms: N_29  and  C_38
   17  A    between atoms: C_31  and  C_39
                            x       y       z     vdW  Elec       q    Type
                         _______ _______ _______ _____ _____    ______ ____

>  <TORSDO>
F 17

$$$$
=
 OpenBabel11072411463D

 53 57  0  0  1  0  0  0  0  0999 V2000
  161.1930  205.0010  152.0480 C   0  0  1  0  0  3  0  0  0  0  0  0
  161.3500  206.3240  151.3030 C   0  0  0  0  0  2  0  0  0  0  0  0
  160.7360  205.2150  153.4190 N   0  0  0  0  0  2  0  0  0  0  0  0
  160.9310  207.5060  152.1880 C   0  0  1  0  0  3  0  0  0  0  0  0
  161.5330  207.4900  153.4680 O   0  0  0  0  0  0  0  0  0  0  0  0
  161.6340  206.1920  154.0360 C   0  0  0  0  0  2  0  0  0  0  0  0
  161.2080  208.8500  151.5110 C   0  0  2  0  0  3  0  0  0  0  0  0
  162.4320  208.8320  150.8280 O   0  0  0  0  0  1  0  0  0  0  0  0
  161.1520  209.9570  152.4630 N   0  0  0  0  0  0  0  0  0  0  0  0
  162.1850  210.1290  153.4420 C   0  0  0  0  0  3  0  0  0  0  0  0
  161.9640  210.3210  154.7450 C   0  0  0  0  0  3  0  0  0  0  0  0
  160.6140  210.2990  155.4000 C   0  0  1  0  0  3  0  0  0  0  0  0
  159.6340  208.1940  155.9950 O   0  0  0  0  0  1  0  0  0  0  0  0
  160.4970  209.1940  156.4550 C   0  0  0  0  0  3  0  0  0  0  0  0
  161.7490  208.6360  156.7330 O   0  0  0  0  0  1  0  0  0  0  0  0
  160.1080  211.6810  155.8560 C   0  0  0  0  0  2  0  0  0  0  0  0
  155.8410  212.4130  156.0010 C   0  0  0  0  0  2  0  0  0  0  0  0
  158.6280  214.2230  155.1960 C   0  0  0  0  0  1  0  0  0  0  0  0
  157.8330  211.2660  154.9390 C   0  0  0  0  0  2  0  0  0  0  0  0
  158.2160  213.3360  156.3570 C   0  0  1  0  0  3  0  0  0  0  0  0
  156.7120  213.5100  156.6100 C   0  0  0  0  0  2  0  0  0  0  0  0
  158.6020  211.8580  156.1330 C   0  0  2  0  0  0  0  0  0  0  0  0
  156.4530  211.8890  154.7030 C   0  0  0  0  0  2  0  0  0  0  0  0
  158.2570  211.1070  157.2610 O   0  0  0  0  0  1  0  0  0  0  0  0
  160.0460  210.9040  152.3760 C   0  0  0  0  0  2  0  0  0  0  0  0
  158.1440  213.1810  151.8130 C   0  0  0  0  0  1  0  0  0  0  0  0
  160.3800  212.0100  151.4880 N   0  0  0  0  0  2  0  0  0  0  0  0
  159.8750  214.0240  150.3820 N   0  0  0  0  0  2  0  0  0  0  0  0
  159.4950  213.1000  151.2010 C   0  0  0  0  0  0  0  0  0  0  0  0
  160.2070  204.1230  151.2990 C   0  0  0  0  0  2  0  0  0  0  0  0
  160.8880  203.3120  150.3030 N   0  0  0  0  0  2  0  0  0  0  0  0
  159.9950  202.2330  149.8990 C   0  0  0  0  0  2  0  0  0  0  0  0
  159.6990  202.3400  148.5360 O   0  0  0  0  0  0  0  0  0  0  0  0
  161.3440  198.7060  145.1960 C   0  0  0  0  0  3  0  0  0  0  0  0
  159.8410  200.4400  146.1630 C   0  0  1  0  0  3  0  0  0  0  0  0
  160.4570  202.5130  145.4140 C   0  0  1  0  0  3  0  0  0  0  0  0
  160.8830  202.0130  147.8790 C   0  0  1  0  0  3  0  0  0  0  0  0
  159.3580  201.6740  145.6730 O   0  0  0  0  0  0  0  0  0  0  0  0
  159.9950  203.6990  144.5880 C   0  0  0  0  0  1  0  0  0  0  0  0
  162.1000  198.6290  146.4890 C   0  0  0  0  0  2  0  0  0  0  0  0
  160.3000  199.5320  145.0470 C   0  0  0  0  0  3  0  0  0  0  0  0
  160.8050  200.5680  147.3790 C   0  0  2  0  0  3  0  0  0  0  0  0
  162.2090  200.0220  147.0990 C   0  0  0  0  0  2  0  0  0  0  0  0
  161.1050  203.0000  146.7220 C   0  0  1  0  0  3  0  0  0  0  0  0
  162.5960  203.2230  146.5230 C   0  0  0  0  0  2  0  0  0  0  0  0
  162.9470  204.5150  146.9200 O   0  0  0  0  0  0  0  0  0  0  0  0
  162.9830  207.8940  147.7980 O   0  0  0  0  0  1  0  0  0  0  0  0
  161.7340  205.1370  147.2250 C   0  0  2  0  0  3  0  0  0  0  0  0
  161.5910  206.4490  146.4700 C   0  0  0  0  0  0  0  0  0  0  0  0
  161.7540  207.2320  147.7650 C   0  0  1  0  0  3  0  0  0  0  0  0
  161.8710  205.9190  148.5230 C   0  0  0  0  0  2  0  0  0  0  0  0
  162.5910  206.6740  145.5360 F   0  0  0  0  0  0  0  0  0  0  0  0
  160.3270  206.5990  145.9360 F   0  0  0  0  0  0  0  0  0  0  0  0
  1 30  1  6  0  0  0
  1  3  1  0  0  0  0
  2  1  1  0  0  0  0
  2  4  1  0  0  0  0
  3  6  1  0  0  0  0
  4  7  1  6  0  0  0
  4  5  1  0  0  0  0
  5  6  1  0  0  0  0
  7  8  1  1  0  0  0
  7  9  1  0  0  0  0
  9 10  1  0  0  0  0
 10 11  2  0  0  0  0
 12 11  1  1  0  0  0
 12 16  1  0  0  0  0
 12 14  1  0  0  0  0
 13 14  1  0  0  0  0
 14 15  1  0  0  0  0
 16 22  1  0  0  0  0
 17 21  1  0  0  0  0
 19 22  1  0  0  0  0
 20 18  1  6  0  0  0
 20 21  1  0  0  0  0
 22 20  1  0  0  0  0
 22 24  1  1  0  0  0
 23 19  1  0  0  0  0
 23 17  1  0  0  0  0
 25  9  1  0  0  0  0
 27 25  1  0  0  0  0
 28 29  2  0  0  0  0
 29 27  1  0  0  0  0
 29 26  1  0  0  0  0
 31 30  1  0  0  0  0
 32 31  1  0  0  0  0
 33 32  1  0  0  0  0
 34 40  1  0  0  0  0
 35 41  1  6  0  0  0
 35 42  1  0  0  0  0
 36 39  1  1  0  0  0
 36 38  1  0  0  0  0
 36 44  1  0  0  0  0
 37 33  1  6  0  0  0
 38 35  1  0  0  0  0
 40 43  1  0  0  0  0
 41 34  2  0  0  0  0
 42 43  1  6  0  0  0
 42 37  1  0  0  0  0
 44 45  1  6  0  0  0
 44 37  1  0  0  0  0
 45 46  1  0  0  0  0
 48 46  1  6  0  0  0
 48 51  1  0  0  0  0
 49 48  1  0  0  0  0
 49 50  1  0  0  0  0
 50 47  1  6  0  0  0
 50 51  1  0  0  0  0
 52 49  1  0  0  0  0
 53 49  1  0  0  0  0
M  END
>  <MODEL>
3

>  <REMARK>
 VINA RESULT:      -3.6      5.709      9.079
  Name = 
  17 active torsions:
  status: ('A' for Active; 'I' for Inactive)
    1  A    between atoms: O_1  and  C_13
    2  A    between atoms: O_1  and  C_22
    3  A    between atoms: C_3  and  C_28
    4  A    between atoms: N_4  and  C_7
    5  A    between atoms: N_4  and  C_8
    6  A    between atoms: N_4  and  C_21
    7  A    between atoms: C_7  and  C_37
    8  A    between atoms: C_10  and  C_47
    9  A    between atoms: C_10  and  O_53
   10  A    between atoms: C_15  and  O_53
   11  A    between atoms: C_18  and  C_28
   12  A    between atoms: C_19  and  C_38
   13  A    between atoms: C_21  and  N_24
   14  A    between atoms: C_22  and  N_29
   15  A    between atoms: C_28  and  C_31
   16  A    between atoms: N_29  and  C_38
   17  A    between atoms: C_31  and  C_39
                            x       y       z     vdW  Elec       q    Type
                         _______ _______ _______ _____ _____    ______ ____

>  <TORSDO>
F 17

$$$$
=
 OpenBabel11072411463D

 53 57  0  0  1  0  0  0  0  0999 V2000
  161.4070  211.9240  147.5710 C   0  0  1  0  0  3  0  0  0  0  0  0
  161.5640  210.5130  148.1330 C   0  0  0  0  0  2  0  0  0  0  0  0
  161.7980  212.9320  148.5530 N   0  0  0  0  0  2  0  0  0  0  0  0
  162.1400  210.5490  149.5550 C   0  0  1  0  0  3  0  0  0  0  0  0
  161.4570  211.4400  150.4150 O   0  0  0  0  0  0  0  0  0  0  0  0
  161.0650  212.6530  149.7880 C   0  0  0  0  0  2  0  0  0  0  0  0
  162.1790  209.1570  150.1880 C   0  0  2  0  0  3  0  0  0  0  0  0
  161.3730  208.2540  149.4810 O   0  0  0  0  0  1  0  0  0  0  0  0
  161.8090  209.1950  151.6020 N   0  0  0  0  0  0  0  0  0  0  0  0
  162.1970  210.3020  152.4270 C   0  0  0  0  0  3  0  0  0  0  0  0
  161.7340  210.5210  153.6600 C   0  0  0  0  0  3  0  0  0  0  0  0
  160.8100  209.6040  154.4070 C   0  0  1  0  0  3  0  0  0  0  0  0
  162.4150  209.9050  156.1610 O   0  0  0  0  0  1  0  0  0  0  0  0
  161.4660  209.0090  155.6570 C   0  0  0  0  0  3  0  0  0  0  0  0
  160.5110  208.7390  156.6410 O   0  0  0  0  0  1  0  0  0  0  0  0
  159.3950  210.1730  154.6300 C   0  0  0  0  0  2  0  0  0  0  0  0
  158.3520  214.2260  155.7490 C   0  0  0  0  0  2  0  0  0  0  0  0
  157.9370  212.2430  152.9940 C   0  0  0  0  0  1  0  0  0  0  0  0
  158.0410  211.7280  156.0210 C   0  0  0  0  0  2  0  0  0  0  0  0
  159.1040  212.6110  153.8920 C   0  0  1  0  0  3  0  0  0  0  0  0
  158.9430  214.0670  154.3490 C   0  0  0  0  0  2  0  0  0  0  0  0
  159.2570  211.6400  155.0830 C   0  0  2  0  0  0  0  0  0  0  0  0
  157.3630  213.1020  156.0530 C   0  0  0  0  0  2  0  0  0  0  0  0
  160.3840  211.9920  155.8330 O   0  0  0  0  0  1  0  0  0  0  0  0
  161.0090  208.1050  152.1490 C   0  0  0  0  0  2  0  0  0  0  0  0
  161.3220  205.2020  152.9190 C   0  0  0  0  0  1  0  0  0  0  0  0
  160.8910  207.0170  151.1870 N   0  0  0  0  0  2  0  0  0  0  0  0
  160.9370  204.7400  150.5970 N   0  0  0  0  0  2  0  0  0  0  0  0
  161.0390  205.6310  151.5260 C   0  0  0  0  0  0  0  0  0  0  0  0
  162.2550  212.0570  146.3190 C   0  0  0  0  0  2  0  0  0  0  0  0
  161.7810  213.1510  145.4870 N   0  0  0  0  0  2  0  0  0  0  0  0
  162.5030  213.1130  144.2210 C   0  0  0  0  0  2  0  0  0  0  0  0
  161.7930  213.8170  143.2430 O   0  0  0  0  0  0  0  0  0  0  0  0
  158.5510  213.6300  139.1780 C   0  0  0  0  0  3  0  0  0  0  0  0
  160.4600  214.4110  140.5710 C   0  0  1  0  0  3  0  0  0  0  0  0
  162.3140  213.1390  140.1420 C   0  0  1  0  0  3  0  0  0  0  0  0
  161.2260  212.8390  142.4290 C   0  0  1  0  0  3  0  0  0  0  0  0
  161.8560  214.4520  140.3540 O   0  0  0  0  0  0  0  0  0  0  0  0
  163.7250  213.1870  139.5840 C   0  0  0  0  0  1  0  0  0  0  0  0
  157.9730  212.9080  140.3600 C   0  0  0  0  0  2  0  0  0  0  0  0
  159.6910  214.3280  139.2760 C   0  0  0  0  0  3  0  0  0  0  0  0
  160.0180  213.4270  141.6940 C   0  0  2  0  0  3  0  0  0  0  0  0
  159.1020  212.3070  141.1900 C   0  0  0  0  0  2  0  0  0  0  0  0
  162.2890  212.3250  141.4470 C   0  0  1  0  0  3  0  0  0  0  0  0
  162.0380  210.8550  141.1480 C   0  0  0  0  0  2  0  0  0  0  0  0
  161.1070  210.7250  140.1150 O   0  0  0  0  0  0  0  0  0  0  0  0
  159.1980  209.6930  137.3800 O   0  0  0  0  0  1  0  0  0  0  0  0
  161.5230  209.5990  139.4000 C   0  0  2  0  0  3  0  0  0  0  0  0
  161.5390  209.8810  137.9060 C   0  0  0  0  0  0  0  0  0  0  0  0
  160.3430  208.9610  137.7020 C   0  0  1  0  0  3  0  0  0  0  0  0
  160.3430  208.6600  139.1930 C   0  0  0  0  0  2  0  0  0  0  0  0
  161.3020  211.2070  137.5790 F   0  0  0  0  0  0  0  0  0  0  0  0
  162.6760  209.3830  137.3020 F   0  0  0  0  0  0  0  0  0  0  0  0
  1 30  1  6  0  0  0
  1  2  1  0  0  0  0
  1  3  1  0  0  0  0
  2  4  1  0  0  0  0
  3  6  1  0  0  0  0
  4  7  1  1  0  0  0
  4  5  1  0  0  0  0
  6  5  1  0  0  0  0
  7  8  1  6  0  0  0
  7  9  1  0  0  0  0
  9 25  1  0  0  0  0
  9 10  1  0  0  0  0
 10 11  2  0  0  0  0
 12 11  1  1  0  0  0
 12 16  1  0  0  0  0
 12 14  1  0  0  0  0
 14 13  1  0  0  0  0
 14 15  1  0  0  0  0
 16 22  1  0  0  0  0
 17 23  1  0  0  0  0
 19 23  1  0  0  0  0
 20 18  1  1  0  0  0
 20 21  1  0  0  0  0
 20 22  1  0  0  0  0
 21 17  1  0  0  0  0
 22 24  1  1  0  0  0
 22 19  1  0  0  0  0
 27 29  1  0  0  0  0
 27 25  1  0  0  0  0
 28 29  2  0  0  0  0
 29 26  1  0  0  0  0
 31 30  1  0  0  0  0
 32 31  1  0  0  0  0
 33 32  1  0  0  0  0
 34 41  2  0  0  0  0
 34 40  1  0  0  0  0
 35 41  1  6  0  0  0
 35 42  1  0  0  0  0
 36 39  1  1  0  0  0
 36 38  1  0  0  0  0
 36 44  1  0  0  0  0
 37 33  1  1  0  0  0
 38 35  1  0  0  0  0
 40 43  1  0  0  0  0
 42 43  1  6  0  0  0
 42 37  1  0  0  0  0
 44 45  1  6  0  0  0
 44 37  1  0  0  0  0
 46 45  1  0  0  0  0
 48 46  1  1  0  0  0
 49 48  1  0  0  0  0
 50 47  1  1  0  0  0
 50 49  1  0  0  0  0
 50 51  1  0  0  0  0
 51 48  1  0  0  0  0
 52 49  1  0  0  0  0
 53 49  1  0  0  0  0
M  END
>  <MODEL>
4

>  <REMARK>
 VINA RESULT:      -3.1      3.432      5.887
  Name = 
  17 active torsions:
  status: ('A' for Active; 'I' for Inactive)
    1  A    between atoms: O_1  and  C_13
    2  A    between atoms: O_1  and  C_22
    3  A    between atoms: C_3  and  C_28
    4  A    between atoms: N_4  and  C_7
    5  A    between atoms: N_4  and  C_8
    6  A    between atoms: N_4  and  C_21
    7  A    between atoms: C_7  and  C_37
    8  A    between atoms: C_10  and  C_47
    9  A    between atoms: C_10  and  O_53
   10  A    between atoms: C_15  and  O_53
   11  A    between atoms: C_18  and  C_28
   12  A    between atoms: C_19  and  C_38
   13  A    between atoms: C_21  and  N_24
   14  A    between atoms: C_22  and  N_29
   15  A    between atoms: C_28  and  C_31
   16  A    between atoms: N_29  and  C_38
   17  A    between atoms: C_31  and  C_39
                            x       y       z     vdW  Elec       q    Type
                         _______ _______ _______ _____ _____    ______ ____

>  <TORSDO>
F 17

$$$$
=
 OpenBabel11072411463D

 53 57  0  0  1  0  0  0  0  0999 V2000
  161.8010  206.3660  140.8050 C   0  0  1  0  0  3  0  0  0  0  0  0
  161.0460  207.6290  140.4000 C   0  0  0  0  0  2  0  0  0  0  0  0
  163.0120  206.1930  140.0070 N   0  0  0  0  0  2  0  0  0  0  0  0
  161.8000  208.3920  139.3030 C   0  0  1  0  0  3  0  0  0  0  0  0
  162.1850  207.5750  138.2140 O   0  0  0  0  0  0  0  0  0  0  0  0
  162.6280  206.2820  138.5980 C   0  0  0  0  0  2  0  0  0  0  0  0
  160.9970  209.5870  138.7850 C   0  0  2  0  0  3  0  0  0  0  0  0
  161.0060  209.6370  137.3850 O   0  0  0  0  0  1  0  0  0  0  0  0
  161.4690  210.8460  139.3600 N   0  0  0  0  0  0  0  0  0  0  0  0
  161.4330  212.0560  138.5920 C   0  0  0  0  0  3  0  0  0  0  0  0
  160.3380  212.7950  138.4030 C   0  0  0  0  0  3  0  0  0  0  0  0
  159.0000  212.5280  139.0300 C   0  0  1  0  0  3  0  0  0  0  0  0
  157.4960  214.3600  139.3830 O   0  0  0  0  0  1  0  0  0  0  0  0
  158.5590  213.6610  139.9620 C   0  0  0  0  0  3  0  0  0  0  0  0
  158.1640  213.1580  141.2050 O   0  0  0  0  0  1  0  0  0  0  0  0
  157.9210  212.0490  138.0410 C   0  0  0  0  0  2  0  0  0  0  0  0
  155.2120  208.7030  138.5250 C   0  0  0  0  0  2  0  0  0  0  0  0
  154.9090  212.0920  138.1750 C   0  0  0  0  0  1  0  0  0  0  0  0
  156.8820  209.9860  137.1190 C   0  0  0  0  0  2  0  0  0  0  0  0
  155.7360  211.1670  139.0500 C   0  0  1  0  0  3  0  0  0  0  0  0
  154.9030  209.9240  139.3910 C   0  0  0  0  0  2  0  0  0  0  0  0
  157.0900  210.8030  138.4050 C   0  0  2  0  0  0  0  0  0  0  0  0
  155.6140  209.1250  137.1130 C   0  0  0  0  0  2  0  0  0  0  0  0
  157.8300  210.0070  139.2850 O   0  0  0  0  0  1  0  0  0  0  0  0
  161.9430  210.8550  140.7390 C   0  0  0  0  0  2  0  0  0  0  0  0
  161.3210  212.6070  143.1180 C   0  0  0  0  0  1  0  0  0  0  0  0
  162.6740  212.0820  141.0280 N   0  0  0  0  0  2  0  0  0  0  0  0
  163.0870  214.0120  142.3070 N   0  0  0  0  0  2  0  0  0  0  0  0
  162.3960  212.9330  142.1470 C   0  0  0  0  0  0  0  0  0  0  0  0
  162.1540  206.4500  142.2800 C   0  0  0  0  0  2  0  0  0  0  0  0
  161.1670  205.7520  143.0880 N   0  0  0  0  0  2  0  0  0  0  0  0
  161.4190  206.0630  144.4900 C   0  0  0  0  0  2  0  0  0  0  0  0
  160.3730  205.5780  145.2830 O   0  0  0  0  0  0  0  0  0  0  0  0
  160.9070  202.9490  149.7420 C   0  0  0  0  0  3  0  0  0  0  0  0
  161.1170  203.4300  147.3080 C   0  0  1  0  0  3  0  0  0  0  0  0
  162.9950  204.6780  146.9170 C   0  0  1  0  0  3  0  0  0  0  0  0
  160.7530  205.8520  146.5950 C   0  0  1  0  0  3  0  0  0  0  0  0
  162.2300  203.5930  146.4530 O   0  0  0  0  0  0  0  0  0  0  0  0
  164.3470  204.6650  146.2290 C   0  0  0  0  0  1  0  0  0  0  0  0
  159.8670  204.0230  149.8720 C   0  0  0  0  0  2  0  0  0  0  0  0
  161.4760  202.6700  148.5620 C   0  0  0  0  0  3  0  0  0  0  0  0
  160.2720  204.7230  147.5100 C   0  0  2  0  0  3  0  0  0  0  0  0
  160.2300  205.1950  148.9670 C   0  0  0  0  0  2  0  0  0  0  0  0
  162.2790  206.0150  146.6530 C   0  0  1  0  0  3  0  0  0  0  0  0
  162.6430  207.0300  147.7250 C   0  0  0  0  0  2  0  0  0  0  0  0
  161.9980  206.7180  148.9230 O   0  0  0  0  0  0  0  0  0  0  0  0
  160.4860  208.2720  151.6590 O   0  0  0  0  0  1  0  0  0  0  0  0
  162.8160  207.2550  149.9190 C   0  0  2  0  0  3  0  0  0  0  0  0
  162.3590  206.8060  151.2980 C   0  0  0  0  0  0  0  0  0  0  0  0
  161.8810  208.2150  151.6180 C   0  0  1  0  0  3  0  0  0  0  0  0
  162.3610  208.6690  150.2490 C   0  0  0  0  0  2  0  0  0  0  0  0
  161.3530  205.8520  151.2760 F   0  0  0  0  0  0  0  0  0  0  0  0
  163.4230  206.4330  152.0960 F   0  0  0  0  0  0  0  0  0  0  0  0
  1 30  1  1  0  0  0
  2  1  1  0  0  0  0
  3  1  1  0  0  0  0
  4  7  1  6  0  0  0
  4  2  1  0  0  0  0
  5  6  1  0  0  0  0
  5  4  1  0  0  0  0
  6  3  1  0  0  0  0
  7  8  1  6  0  0  0
  7  9  1  0  0  0  0
  9 25  1  0  0  0  0
 10  9  1  0  0  0  0
 11 10  2  0  0  0  0
 11 12  1  0  0  0  0
 12 16  1  6  0  0  0
 12 14  1  0  0  0  0
 13 14  1  0  0  0  0
 14 15  1  0  0  0  0
 16 22  1  0  0  0  0
 17 21  1  0  0  0  0
 19 22  1  0  0  0  0
 20 18  1  6  0  0  0
 20 21  1  0  0  0  0
 22 20  1  0  0  0  0
 22 24  1  1  0  0  0
 23 19  1  0  0  0  0
 23 17  1  0  0  0  0
 25 27  1  0  0  0  0
 27 29  1  0  0  0  0
 29 28  2  0  0  0  0
 29 26  1  0  0  0  0
 30 31  1  0  0  0  0
 31 32  1  0  0  0  0
 32 33  1  0  0  0  0
 34 40  1  0  0  0  0
 35 42  1  0  0  0  0
 35 41  1  1  0  0  0
 36 39  1  6  0  0  0
 37 33  1  6  0  0  0
 37 44  1  0  0  0  0
 37 42  1  0  0  0  0
 38 36  1  0  0  0  0
 38 35  1  0  0  0  0
 41 34  2  0  0  0  0
 42 43  1  1  0  0  0
 43 40  1  0  0  0  0
 44 36  1  0  0  0  0
 44 45  1  1  0  0  0
 45 46  1  0  0  0  0
 48 46  1  6  0  0  0
 48 51  1  0  0  0  0
 48 49  1  0  0  0  0
 49 50  1  0  0  0  0
 49 53  1  0  0  0  0
 50 47  1  6  0  0  0
 51 50  1  0  0  0  0
 52 49  1  0  0  0  0
M  END
>  <MODEL>
5

>  <REMARK>
 VINA RESULT:      -2.6      3.181     11.505
  Name = 
  17 active torsions:
  status: ('A' for Active; 'I' for Inactive)
    1  A    between atoms: O_1  and  C_13
    2  A    between atoms: O_1  and  C_22
    3  A    between atoms: C_3  and  C_28
    4  A    between atoms: N_4  and  C_7
    5  A    between atoms: N_4  and  C_8
    6  A    between atoms: N_4  and  C_21
    7  A    between atoms: C_7  and  C_37
    8  A    between atoms: C_10  and  C_47
    9  A    between atoms: C_10  and  O_53
   10  A    between atoms: C_15  and  O_53
   11  A    between atoms: C_18  and  C_28
   12  A    between atoms: C_19  and  C_38
   13  A    between atoms: C_21  and  N_24
   14  A    between atoms: C_22  and  N_29
   15  A    between atoms: C_28  and  C_31
   16  A    between atoms: N_29  and  C_38
   17  A    between atoms: C_31  and  C_39
                            x       y       z     vdW  Elec       q    Type
                         _______ _______ _______ _____ _____    ______ ____

>  <TORSDO>
F 17

$$$$
=
 OpenBabel11072411463D

 53 57  0  0  1  0  0  0  0  0999 V2000
  160.8550  206.9840  153.4450 C   0  0  1  0  0  3  0  0  0  0  0  0
  160.5730  207.5180  152.0440 C   0  0  0  0  0  2  0  0  0  0  0  0
  161.9420  206.0080  153.4330 N   0  0  0  0  0  2  0  0  0  0  0  0
  161.5470  206.9180  151.0210 C   0  0  1  0  0  3  0  0  0  0  0  0
  161.6400  205.5080  151.0940 O   0  0  0  0  0  0  0  0  0  0  0  0
  161.6190  205.0020  152.4210 C   0  0  0  0  0  2  0  0  0  0  0  0
  161.1980  207.3330  149.5900 C   0  0  2  0  0  3  0  0  0  0  0  0
  160.2780  206.4450  149.0140 O   0  0  0  0  0  1  0  0  0  0  0  0
  162.3920  207.4660  148.7580 N   0  0  0  0  0  0  0  0  0  0  0  0
  163.1380  206.3070  148.3620 C   0  0  0  0  0  3  0  0  0  0  0  0
  162.6820  205.3660  147.5320 C   0  0  0  0  0  3  0  0  0  0  0  0
  161.3620  205.4150  146.8180 C   0  0  1  0  0  3  0  0  0  0  0  0
  162.8650  205.8910  145.0130 O   0  0  0  0  0  1  0  0  0  0  0  0
  161.5090  205.8380  145.3530 C   0  0  0  0  0  3  0  0  0  0  0  0
  160.8510  204.9420  144.5070 O   0  0  0  0  0  1  0  0  0  0  0  0
  160.4730  204.1770  147.0460 C   0  0  0  0  0  2  0  0  0  0  0  0
  161.6730  200.0180  146.8610 C   0  0  0  0  0  2  0  0  0  0  0  0
  159.6220  201.9090  148.8400 C   0  0  0  0  0  1  0  0  0  0  0  0
  160.4190  201.9840  145.8730 C   0  0  0  0  0  2  0  0  0  0  0  0
  161.0470  202.0350  148.3310 C   0  0  1  0  0  3  0  0  0  0  0  0
  161.6770  200.6370  148.2580 C   0  0  0  0  0  2  0  0  0  0  0  0
  161.1250  202.7820  146.9830 C   0  0  2  0  0  0  0  0  0  0  0  0
  160.4440  200.4640  146.0710 C   0  0  0  0  0  2  0  0  0  0  0  0
  162.4630  202.9230  146.6020 O   0  0  0  0  0  1  0  0  0  0  0  0
  162.7910  208.7950  148.3090 C   0  0  0  0  0  2  0  0  0  0  0  0
  163.0610  211.7980  148.1370 C   0  0  0  0  0  1  0  0  0  0  0  0
  161.6410  209.6880  148.2510 N   0  0  0  0  0  2  0  0  0  0  0  0
  160.6620  211.8250  148.1470 N   0  0  0  0  0  2  0  0  0  0  0  0
  161.7410  211.1160  148.1730 C   0  0  0  0  0  0  0  0  0  0  0  0
  161.2060  208.1460  154.3580 C   0  0  0  0  0  2  0  0  0  0  0  0
  160.1340  208.4020  155.3050 N   0  0  0  0  0  2  0  0  0  0  0  0
  160.3600  209.7070  155.9150 C   0  0  0  0  0  2  0  0  0  0  0  0
  159.1450  210.2560  156.3370 O   0  0  0  0  0  0  0  0  0  0  0  0
  155.4110  213.7850  155.5110 C   0  0  0  0  0  3  0  0  0  0  0  0
  157.2150  212.5770  156.7310 C   0  0  1  0  0  3  0  0  0  0  0  0
  159.2540  213.4690  156.1950 C   0  0  1  0  0  3  0  0  0  0  0  0
  158.7630  211.1250  155.3160 C   0  0  1  0  0  3  0  0  0  0  0  0
  158.4620  212.9860  157.2530 O   0  0  0  0  0  0  0  0  0  0  0  0
  160.4490  214.2110  156.7650 C   0  0  0  0  0  1  0  0  0  0  0  0
  155.3180  212.6620  154.5200 C   0  0  0  0  0  2  0  0  0  0  0  0
  156.2780  213.7440  156.5320 C   0  0  0  0  0  3  0  0  0  0  0  0
  157.3170  211.5730  155.5440 C   0  0  2  0  0  3  0  0  0  0  0  0
  156.7120  212.1100  154.2430 C   0  0  0  0  0  2  0  0  0  0  0  0
  159.7280  212.3200  155.2870 C   0  0  1  0  0  3  0  0  0  0  0  0
  159.8890  212.8090  153.8570 C   0  0  0  0  0  2  0  0  0  0  0  0
  159.2910  211.9120  152.9700 O   0  0  0  0  0  0  0  0  0  0  0  0
  157.0430  213.4550  150.7900 O   0  0  0  0  0  1  0  0  0  0  0  0
  159.7470  212.2990  151.7080 C   0  0  2  0  0  3  0  0  0  0  0  0
  159.3520  213.7360  151.4050 C   0  0  0  0  0  0  0  0  0  0  0  0
  158.3570  213.2590  150.3570 C   0  0  1  0  0  3  0  0  0  0  0  0
  158.7710  211.8240  150.6420 C   0  0  0  0  0  2  0  0  0  0  0  0
  158.7780  214.4010  152.4780 F   0  0  0  0  0  0  0  0  0  0  0  0
  160.3920  214.4460  150.8390 F   0  0  0  0  0  0  0  0  0  0  0  0
  1 30  1  1  0  0  0
  2  1  1  0  0  0  0
  3  1  1  0  0  0  0
  4  7  1  6  0  0  0
  4  5  1  0  0  0  0
  4  2  1  0  0  0  0
  5  6  1  0  0  0  0
  6  3  1  0  0  0  0
  7  8  1  6  0  0  0
  9  7  1  0  0  0  0
 10  9  1  0  0  0  0
 11 10  2  0  0  0  0
 12 16  1  6  0  0  0
 12 11  1  0  0  0  0
 13 14  1  0  0  0  0
 14 12  1  0  0  0  0
 15 14  1  0  0  0  0
 17 21  1  0  0  0  0
 19 23  1  0  0  0  0
 19 22  1  0  0  0  0
 20 18  1  6  0  0  0
 21 20  1  0  0  0  0
 22 24  1  6  0  0  0
 22 16  1  0  0  0  0
 22 20  1  0  0  0  0
 23 17  1  0  0  0  0
 25  9  1  0  0  0  0
 26 29  1  0  0  0  0
 27 25  1  0  0  0  0
 28 29  2  0  0  0  0
 29 27  1  0  0  0  0
 30 31  1  0  0  0  0
 31 32  1  0  0  0  0
 32 33  1  0  0  0  0
 34 41  2  0  0  0  0
 35 41  1  6  0  0  0
 35 38  1  0  0  0  0
 36 39  1  1  0  0  0
 36 38  1  0  0  0  0
 37 42  1  0  0  0  0
 37 33  1  1  0  0  0
 40 34  1  0  0  0  0
 42 43  1  6  0  0  0
 42 35  1  0  0  0  0
 43 40  1  0  0  0  0
 44 45  1  6  0  0  0
 44 37  1  0  0  0  0
 44 36  1  0  0  0  0
 46 45  1  0  0  0  0
 48 46  1  1  0  0  0
 49 48  1  0  0  0  0
 49 52  1  0  0  0  0
 50 51  1  0  0  0  0
 50 47  1  1  0  0  0
 50 49  1  0  0  0  0
 51 48  1  0  0  0  0
 53 49  1  0  0  0  0
M  END
>  <MODEL>
6

>  <REMARK>
 VINA RESULT:      -2.3      5.207     11.420
  Name = 
  17 active torsions:
  status: ('A' for Active; 'I' for Inactive)
    1  A    between atoms: O_1  and  C_13
    2  A    between atoms: O_1  and  C_22
    3  A    between atoms: C_3  and  C_28
    4  A    between atoms: N_4  and  C_7
    5  A    between atoms: N_4  and  C_8
    6  A    between atoms: N_4  and  C_21
    7  A    between atoms: C_7  and  C_37
    8  A    between atoms: C_10  and  C_47
    9  A    between atoms: C_10  and  O_53
   10  A    between atoms: C_15  and  O_53
   11  A    between atoms: C_18  and  C_28
   12  A    between atoms: C_19  and  C_38
   13  A    between atoms: C_21  and  N_24
   14  A    between atoms: C_22  and  N_29
   15  A    between atoms: C_28  and  C_31
   16  A    between atoms: N_29  and  C_38
   17  A    between atoms: C_31  and  C_39
                            x       y       z     vdW  Elec       q    Type
                         _______ _______ _______ _____ _____    ______ ____

>  <TORSDO>
F 17

$$$$
=
 OpenBabel11072411463D

 53 57  0  0  1  0  0  0  0  0999 V2000
  161.6350  205.3140  143.8050 C   0  0  1  0  0  3  0  0  0  0  0  0
  162.1450  205.9420  145.0980 C   0  0  0  0  0  2  0  0  0  0  0  0
  160.4900  204.4420  144.0540 N   0  0  0  0  0  2  0  0  0  0  0  0
  161.2780  205.5220  146.2920 C   0  0  1  0  0  3  0  0  0  0  0  0
  161.0710  204.1250  146.3720 O   0  0  0  0  0  0  0  0  0  0  0  0
  160.8720  203.5040  145.1110 C   0  0  0  0  0  2  0  0  0  0  0  0
  161.8510  206.0290  147.6180 C   0  0  2  0  0  3  0  0  0  0  0  0
  163.2290  205.7890  147.7010 O   0  0  0  0  0  1  0  0  0  0  0  0
  161.1470  205.4580  148.7650 N   0  0  0  0  0  0  0  0  0  0  0  0
  160.0660  206.1670  149.3850 C   0  0  0  0  0  3  0  0  0  0  0  0
  160.1590  206.8130  150.5490 C   0  0  0  0  0  3  0  0  0  0  0  0
  161.4210  206.9730  151.3460 C   0  0  1  0  0  3  0  0  0  0  0  0
  163.3980  205.6990  151.8080 O   0  0  0  0  0  1  0  0  0  0  0  0
  162.0020  205.6270  151.7920 C   0  0  0  0  0  3  0  0  0  0  0  0
  161.5390  205.2810  153.0650 O   0  0  0  0  0  1  0  0  0  0  0  0
  162.4450  207.9430  150.7240 C   0  0  0  0  0  2  0  0  0  0  0  0
  161.2060  212.0880  150.9440 C   0  0  0  0  0  2  0  0  0  0  0  0
  161.3510  209.6820  148.5180 C   0  0  0  0  0  1  0  0  0  0  0  0
  160.8400  209.6560  151.5480 C   0  0  0  0  0  2  0  0  0  0  0  0
  162.3130  210.2230  149.5600 C   0  0  1  0  0  3  0  0  0  0  0  0
  162.0670  211.7270  149.7350 C   0  0  0  0  0  2  0  0  0  0  0  0
  162.2210  209.4580  150.8980 C   0  0  2  0  0  0  0  0  0  0  0  0
  160.1730  210.9970  151.2220 C   0  0  0  0  0  2  0  0  0  0  0  0
  163.1740  209.9580  151.7910 O   0  0  0  0  0  1  0  0  0  0  0  0
  161.5410  204.1380  149.2440 C   0  0  0  0  0  2  0  0  0  0  0  0
  161.7600  201.1830  149.8260 C   0  0  0  0  0  1  0  0  0  0  0  0
  160.3760  203.2780  149.4100 N   0  0  0  0  0  2  0  0  0  0  0  0
  159.3610  201.1910  149.7930 N   0  0  0  0  0  2  0  0  0  0  0  0
  160.4520  201.8730  149.6830 C   0  0  0  0  0  0  0  0  0  0  0  0
  161.2510  206.4170  142.8350 C   0  0  0  0  0  2  0  0  0  0  0  0
  161.8730  206.2070  141.5380 N   0  0  0  0  0  2  0  0  0  0  0  0
  162.3750  207.4870  141.0550 C   0  0  0  0  0  2  0  0  0  0  0  0
  161.4270  208.0890  140.2200 O   0  0  0  0  0  0  0  0  0  0  0  0
  163.3060  212.0910  137.4770 C   0  0  0  0  0  3  0  0  0  0  0  0
  161.9980  210.0240  137.9400 C   0  0  1  0  0  3  0  0  0  0  0  0
  159.9500  210.5720  138.8050 C   0  0  1  0  0  3  0  0  0  0  0  0
  161.6040  209.4600  140.3970 C   0  0  1  0  0  3  0  0  0  0  0  0
  160.6160  209.7300  137.8950 O   0  0  0  0  0  0  0  0  0  0  0  0
  158.4570  210.5120  138.5380 C   0  0  0  0  0  1  0  0  0  0  0  0
  164.1010  211.8790  138.7310 C   0  0  0  0  0  2  0  0  0  0  0  0
  162.3430  211.2350  137.1080 C   0  0  0  0  0  3  0  0  0  0  0  0
  162.6140  209.9790  139.3700 C   0  0  2  0  0  3  0  0  0  0  0  0
  163.1920  211.3230  139.8220 C   0  0  0  0  0  2  0  0  0  0  0  0
  160.2450  210.1630  140.2580 C   0  0  1  0  0  3  0  0  0  0  0  0
  160.2070  211.3800  141.1690 C   0  0  0  0  0  2  0  0  0  0  0  0
  160.7710  211.0730  142.4080 O   0  0  0  0  0  0  0  0  0  0  0  0
  158.5050  213.6220  143.1530 O   0  0  0  0  0  1  0  0  0  0  0  0
  161.2690  212.2880  142.8850 C   0  0  2  0  0  3  0  0  0  0  0  0
  160.5160  212.7330  144.1290 C   0  0  0  0  0  0  0  0  0  0  0  0
  159.8660  213.8680  143.3510 C   0  0  1  0  0  3  0  0  0  0  0  0
  160.6380  213.4380  142.1140 C   0  0  0  0  0  2  0  0  0  0  0  0
  159.6250  211.7890  144.6170 F   0  0  0  0  0  0  0  0  0  0  0  0
  161.3720  213.2050  145.1050 F   0  0  0  0  0  0  0  0  0  0  0  0
  1 30  1  6  0  0  0
  1  3  1  0  0  0  0
  1  2  1  0  0  0  0
  2  4  1  0  0  0  0
  3  6  1  0  0  0  0
  4  5  1  0  0  0  0
  4  7  1  1  0  0  0
  6  5  1  0  0  0  0
  7  8  1  1  0  0  0
  7  9  1  0  0  0  0
  9 25  1  0  0  0  0
  9 10  1  0  0  0  0
 10 11  2  0  0  0  0
 12 11  1  6  0  0  0
 12 14  1  0  0  0  0
 14 13  1  0  0  0  0
 14 15  1  0  0  0  0
 16 22  1  0  0  0  0
 16 12  1  0  0  0  0
 17 23  1  0  0  0  0
 20 18  1  6  0  0  0
 20 21  1  0  0  0  0
 20 22  1  0  0  0  0
 21 17  1  0  0  0  0
 22 19  1  0  0  0  0
 22 24  1  1  0  0  0
 23 19  1  0  0  0  0
 25 27  1  0  0  0  0
 27 29  1  0  0  0  0
 29 28  2  0  0  0  0
 29 26  1  0  0  0  0
 31 30  1  0  0  0  0
 32 31  1  0  0  0  0
 33 32  1  0  0  0  0
 34 40  1  0  0  0  0
 35 41  1  1  0  0  0
 35 42  1  0  0  0  0
 36 39  1  6  0  0  0
 36 44  1  0  0  0  0
 37 33  1  6  0  0  0
 38 35  1  0  0  0  0
 38 36  1  0  0  0  0
 40 43  1  0  0  0  0
 41 34  2  0  0  0  0
 42 43  1  1  0  0  0
 42 37  1  0  0  0  0
 44 37  1  0  0  0  0
 44 45  1  1  0  0  0
 45 46  1  0  0  0  0
 48 46  1  6  0  0  0
 48 49  1  0  0  0  0
 49 52  1  0  0  0  0
 49 53  1  0  0  0  0
 50 47  1  6  0  0  0
 50 49  1  0  0  0  0
 51 48  1  0  0  0  0
 51 50  1  0  0  0  0
M  END
>  <MODEL>
7

>  <REMARK>
 VINA RESULT:      -2.2      1.478      2.358
  Name = 
  17 active torsions:
  status: ('A' for Active; 'I' for Inactive)
    1  A    between atoms: O_1  and  C_13
    2  A    between atoms: O_1  and  C_22
    3  A    between atoms: C_3  and  C_28
    4  A    between atoms: N_4  and  C_7
    5  A    between atoms: N_4  and  C_8
    6  A    between atoms: N_4  and  C_21
    7  A    between atoms: C_7  and  C_37
    8  A    between atoms: C_10  and  C_47
    9  A    between atoms: C_10  and  O_53
   10  A    between atoms: C_15  and  O_53
   11  A    between atoms: C_18  and  C_28
   12  A    between atoms: C_19  and  C_38
   13  A    between atoms: C_21  and  N_24
   14  A    between atoms: C_22  and  N_29
   15  A    between atoms: C_28  and  C_31
   16  A    between atoms: N_29  and  C_38
   17  A    between atoms: C_31  and  C_39
                            x       y       z     vdW  Elec       q    Type
                         _______ _______ _______ _____ _____    ______ ____

>  <TORSDO>
F 17

$$$$
=
 OpenBabel11072411463D

 53 57  0  0  1  0  0  0  0  0999 V2000
  162.0090  205.7780  144.4210 C   0  0  1  0  0  3  0  0  0  0  0  0
  161.7890  206.4210  145.7870 C   0  0  0  0  0  2  0  0  0  0  0  0
  161.4420  204.4320  144.3700 N   0  0  0  0  0  2  0  0  0  0  0  0
  160.9860  205.4930  146.7090 C   0  0  1  0  0  3  0  0  0  0  0  0
  161.5010  204.1770  146.7670 O   0  0  0  0  0  0  0  0  0  0  0  0
  161.9670  203.6890  145.5170 C   0  0  0  0  0  2  0  0  0  0  0  0
  160.8700  206.0590  148.1260 C   0  0  2  0  0  3  0  0  0  0  0  0
  159.5930  206.5860  148.3590 O   0  0  0  0  0  1  0  0  0  0  0  0
  161.9080  207.0520  148.3980 N   0  0  0  0  0  0  0  0  0  0  0  0
  163.0920  206.6900  149.1220 C   0  0  0  0  0  3  0  0  0  0  0  0
  163.1080  206.3320  150.4070 C   0  0  0  0  0  3  0  0  0  0  0  0
  161.8910  206.1670  151.2710 C   0  0  1  0  0  3  0  0  0  0  0  0
  161.6280  204.2460  152.6790 O   0  0  0  0  0  1  0  0  0  0  0  0
  161.4430  204.7060  151.3710 C   0  0  0  0  0  3  0  0  0  0  0  0
  160.0980  204.5720  151.0160 O   0  0  0  0  0  1  0  0  0  0  0  0
  161.9640  206.9140  152.6170 C   0  0  0  0  0  2  0  0  0  0  0  0
  160.5040  210.9200  153.3830 C   0  0  0  0  0  2  0  0  0  0  0  0
  161.3880  208.2120  155.2760 C   0  0  0  0  0  1  0  0  0  0  0  0
  162.3470  209.3720  152.5970 C   0  0  0  0  0  2  0  0  0  0  0  0
  160.4990  208.4390  154.0660 C   0  0  1  0  0  3  0  0  0  0  0  0
  159.8270  209.8130  154.1900 C   0  0  0  0  0  2  0  0  0  0  0  0
  161.2680  208.2840  152.7360 C   0  0  2  0  0  0  0  0  0  0  0  0
  162.0110  210.6910  153.3020 C   0  0  0  0  0  2  0  0  0  0  0  0
  160.3840  208.4380  151.6630 O   0  0  0  0  0  1  0  0  0  0  0  0
  161.7330  208.4080  147.8910 C   0  0  0  0  0  2  0  0  0  0  0  0
  161.3610  211.3750  147.4680 C   0  0  0  0  0  1  0  0  0  0  0  0
  161.9540  209.3880  148.9450 N   0  0  0  0  0  2  0  0  0  0  0  0
  162.0300  211.5930  149.7620 N   0  0  0  0  0  2  0  0  0  0  0  0
  161.7890  210.8020  148.7700 C   0  0  0  0  0  0  0  0  0  0  0  0
  161.3770  206.6520  143.3530 C   0  0  0  0  0  2  0  0  0  0  0  0
  161.6080  206.0990  142.0280 N   0  0  0  0  0  2  0  0  0  0  0  0
  162.2230  207.1290  141.2000 C   0  0  0  0  0  2  0  0  0  0  0  0
  161.3020  207.6000  140.2590 O   0  0  0  0  0  0  0  0  0  0  0  0
  163.1740  211.5260  137.4020 C   0  0  0  0  0  3  0  0  0  0  0  0
  161.9650  209.4070  137.9000 C   0  0  1  0  0  3  0  0  0  0  0  0
  159.8110  209.8640  138.5250 C   0  0  1  0  0  3  0  0  0  0  0  0
  161.3690  208.9890  140.3450 C   0  0  1  0  0  3  0  0  0  0  0  0
  160.6170  209.0110  137.7490 O   0  0  0  0  0  0  0  0  0  0  0  0
  158.3590  209.6770  138.1260 C   0  0  0  0  0  1  0  0  0  0  0  0
  163.8550  211.4600  138.7380 C   0  0  0  0  0  2  0  0  0  0  0  0
  162.3100  210.5780  137.0130 C   0  0  0  0  0  3  0  0  0  0  0  0
  162.4390  209.5070  139.3800 C   0  0  2  0  0  3  0  0  0  0  0  0
  162.8810  210.9190  139.7790 C   0  0  0  0  0  2  0  0  0  0  0  0
  159.9880  209.5800  140.0270 C   0  0  1  0  0  3  0  0  0  0  0  0
  159.7810  210.8520  140.8340 C   0  0  0  0  0  2  0  0  0  0  0  0
  160.9040  211.1120  141.6210 O   0  0  0  0  0  0  0  0  0  0  0  0
  163.1190  213.7900  141.9610 O   0  0  0  0  0  1  0  0  0  0  0  0
  160.5310  212.1860  142.4330 C   0  0  2  0  0  3  0  0  0  0  0  0
  160.7420  213.5090  141.7140 C   0  0  0  0  0  0  0  0  0  0  0  0
  161.9000  213.8490  142.6420 C   0  0  1  0  0  3  0  0  0  0  0  0
  161.6720  212.5370  143.3760 C   0  0  0  0  0  2  0  0  0  0  0  0
  161.0970  213.3770  140.3800 F   0  0  0  0  0  0  0  0  0  0  0  0
  159.6740  214.3660  141.8930 F   0  0  0  0  0  0  0  0  0  0  0  0
  1 30  1  6  0  0  0
  1  2  1  0  0  0  0
  2  4  1  0  0  0  0
  3  1  1  0  0  0  0
  3  6  1  0  0  0  0
  4  5  1  0  0  0  0
  4  7  1  1  0  0  0
  6  5  1  0  0  0  0
  7  8  1  6  0  0  0
  7  9  1  0  0  0  0
  9 10  1  0  0  0  0
 10 11  2  0  0  0  0
 12 11  1  1  0  0  0
 12 14  1  0  0  0  0
 12 16  1  0  0  0  0
 14 13  1  0  0  0  0
 15 14  1  0  0  0  0
 16 22  1  0  0  0  0
 17 21  1  0  0  0  0
 19 22  1  0  0  0  0
 19 23  1  0  0  0  0
 20 21  1  0  0  0  0
 20 18  1  1  0  0  0
 22 24  1  6  0  0  0
 22 20  1  0  0  0  0
 23 17  1  0  0  0  0
 25  9  1  0  0  0  0
 25 27  1  0  0  0  0
 26 29  1  0  0  0  0
 29 27  1  0  0  0  0
 29 28  2  0  0  0  0
 31 30  1  0  0  0  0
 32 31  1  0  0  0  0
 33 32  1  0  0  0  0
 34 40  1  0  0  0  0
 35 41  1  1  0  0  0
 35 42  1  0  0  0  0
 36 39  1  6  0  0  0
 36 44  1  0  0  0  0
 37 33  1  6  0  0  0
 38 35  1  0  0  0  0
 38 36  1  0  0  0  0
 40 43  1  0  0  0  0
 41 34  2  0  0  0  0
 42 43  1  1  0  0  0
 42 37  1  0  0  0  0
 44 37  1  0  0  0  0
 44 45  1  1  0  0  0
 45 46  1  0  0  0  0
 48 46  1  6  0  0  0
 48 51  1  0  0  0  0
 49 53  1  0  0  0  0
 49 48  1  0  0  0  0
 49 50  1  0  0  0  0
 50 47  1  6  0  0  0
 50 51  1  0  0  0  0
 52 49  1  0  0  0  0
M  END
>  <MODEL>
8

>  <REMARK>
 VINA RESULT:      -1.9      2.090      3.269
  Name = 
  17 active torsions:
  status: ('A' for Active; 'I' for Inactive)
    1  A    between atoms: O_1  and  C_13
    2  A    between atoms: O_1  and  C_22
    3  A    between atoms: C_3  and  C_28
    4  A    between atoms: N_4  and  C_7
    5  A    between atoms: N_4  and  C_8
    6  A    between atoms: N_4  and  C_21
    7  A    between atoms: C_7  and  C_37
    8  A    between atoms: C_10  and  C_47
    9  A    between atoms: C_10  and  O_53
   10  A    between atoms: C_15  and  O_53
   11  A    between atoms: C_18  and  C_28
   12  A    between atoms: C_19  and  C_38
   13  A    between atoms: C_21  and  N_24
   14  A    between atoms: C_22  and  N_29
   15  A    between atoms: C_28  and  C_31
   16  A    between atoms: N_29  and  C_38
   17  A    between atoms: C_31  and  C_39
                            x       y       z     vdW  Elec       q    Type
                         _______ _______ _______ _____ _____    ______ ____

>  <TORSDO>
F 17

$$$$
=
 OpenBabel11072411463D

 53 57  0  0  1  0  0  0  0  0999 V2000
  161.5170  207.3960  152.0040 C   0  0  1  0  0  3  0  0  0  0  0  0
  160.4140  208.2470  152.6240 C   0  0  0  0  0  2  0  0  0  0  0  0
  162.5840  208.2280  151.4540 N   0  0  0  0  0  2  0  0  0  0  0  0
  160.7600  209.7400  152.5430 C   0  0  1  0  0  3  0  0  0  0  0  0
  161.1520  210.1560  151.2490 O   0  0  0  0  0  0  0  0  0  0  0  0
  161.9630  209.2120  150.5660 C   0  0  0  0  0  2  0  0  0  0  0  0
  159.6090  210.6190  153.0360 C   0  0  2  0  0  3  0  0  0  0  0  0
  158.6250  210.7670  152.0480 O   0  0  0  0  0  1  0  0  0  0  0  0
  160.0830  211.9200  153.5040 N   0  0  0  0  0  0  0  0  0  0  0  0
  160.9680  212.0120  154.6280 C   0  0  0  0  0  3  0  0  0  0  0  0
  160.6980  211.5250  155.8410 C   0  0  0  0  0  3  0  0  0  0  0  0
  159.4720  210.7340  156.1970 C   0  0  1  0  0  3  0  0  0  0  0  0
  159.0250  208.4140  155.7940 O   0  0  0  0  0  1  0  0  0  0  0  0
  159.8030  209.2840  156.5640 C   0  0  0  0  0  3  0  0  0  0  0  0
  161.1570  209.0110  156.3490 O   0  0  0  0  0  1  0  0  0  0  0  0
  158.5200  211.4460  157.1770 C   0  0  0  0  0  2  0  0  0  0  0  0
  155.3350  213.5050  155.0840 C   0  0  0  0  0  2  0  0  0  0  0  0
  158.4770  214.2910  156.1800 C   0  0  0  0  0  1  0  0  0  0  0  0
  157.1420  211.7320  155.1260 C   0  0  0  0  0  2  0  0  0  0  0  0
  157.2510  213.6410  156.7950 C   0  0  1  0  0  3  0  0  0  0  0  0
  155.9920  214.2970  156.2130 C   0  0  0  0  0  2  0  0  0  0  0  0
  157.2470  212.1070  156.6140 C   0  0  2  0  0  0  0  0  0  0  0  0
  156.3820  212.7490  154.2680 C   0  0  0  0  0  2  0  0  0  0  0  0
  156.1310  211.5620  157.2570 O   0  0  0  0  0  1  0  0  0  0  0  0
  159.6690  213.1200  152.7850 C   0  0  0  0  0  2  0  0  0  0  0  0
  158.3210  213.8960  150.1970 C   0  0  0  0  0  1  0  0  0  0  0  0
  160.3910  213.2450  151.5260 N   0  0  0  0  0  2  0  0  0  0  0  0
  160.4980  213.6720  149.2150 N   0  0  0  0  0  2  0  0  0  0  0  0
  159.7760  213.6070  150.2830 C   0  0  0  0  0  0  0  0  0  0  0  0
  162.0760  206.4600  153.0610 C   0  0  0  0  0  2  0  0  0  0  0  0
  161.2610  205.2620  153.1750 N   0  0  0  0  0  2  0  0  0  0  0  0
  161.6060  204.3650  152.0790 C   0  0  0  0  0  2  0  0  0  0  0  0
  162.6440  204.9130  151.3190 O   0  0  0  0  0  0  0  0  0  0  0  0
  159.5850  201.3910  149.0150 C   0  0  0  0  0  3  0  0  0  0  0  0
  160.1840  203.3950  150.3650 C   0  0  1  0  0  3  0  0  0  0  0  0
  160.4390  205.2120  148.9960 C   0  0  1  0  0  3  0  0  0  0  0  0
  162.5560  204.2880  150.0770 C   0  0  1  0  0  3  0  0  0  0  0  0
  159.9010  204.7720  150.2200 O   0  0  0  0  0  0  0  0  0  0  0  0
  159.8700  206.5800  148.6650 C   0  0  0  0  0  1  0  0  0  0  0  0
  160.9990  200.8970  149.1060 C   0  0  0  0  0  2  0  0  0  0  0  0
  159.2070  202.5360  149.6000 C   0  0  0  0  0  3  0  0  0  0  0  0
  161.6900  203.0320  150.2000 C   0  0  2  0  0  3  0  0  0  0  0  0
  161.9570  202.0810  149.0290 C   0  0  0  0  0  2  0  0  0  0  0  0
  161.9750  205.2780  149.0570 C   0  0  1  0  0  3  0  0  0  0  0  0
  162.5710  205.0040  147.6850 C   0  0  0  0  0  2  0  0  0  0  0  0
  162.3330  206.0840  146.8320 O   0  0  0  0  0  0  0  0  0  0  0  0
  160.4690  203.3290  145.7730 O   0  0  0  0  0  1  0  0  0  0  0  0
  162.5590  205.5810  145.5490 C   0  0  2  0  0  3  0  0  0  0  0  0
  161.2480  205.3880  144.8020 C   0  0  0  0  0  0  0  0  0  0  0  0
  161.4010  203.8760  144.8880 C   0  0  1  0  0  3  0  0  0  0  0  0
  162.7240  204.0700  145.6120 C   0  0  0  0  0  2  0  0  0  0  0  0
  160.1400  205.8890  145.4690 F   0  0  0  0  0  0  0  0  0  0  0  0
  161.3280  205.8370  143.4990 F   0  0  0  0  0  0  0  0  0  0  0  0
  1  2  1  0  0  0  0
  1 30  1  1  0  0  0
  3  1  1  0  0  0  0
  4  2  1  0  0  0  0
  4  7  1  6  0  0  0
  5  4  1  0  0  0  0
  6  5  1  0  0  0  0
  6  3  1  0  0  0  0
  7  8  1  6  0  0  0
  7  9  1  0  0  0  0
  9 10  1  0  0  0  0
 10 11  2  0  0  0  0
 12 11  1  1  0  0  0
 12 14  1  0  0  0  0
 12 16  1  0  0  0  0
 13 14  1  0  0  0  0
 15 14  1  0  0  0  0
 17 21  1  0  0  0  0
 19 22  1  0  0  0  0
 20 18  1  6  0  0  0
 21 20  1  0  0  0  0
 22 20  1  0  0  0  0
 22 16  1  0  0  0  0
 22 24  1  1  0  0  0
 23 17  1  0  0  0  0
 23 19  1  0  0  0  0
 25  9  1  0  0  0  0
 26 29  1  0  0  0  0
 27 25  1  0  0  0  0
 28 29  2  0  0  0  0
 29 27  1  0  0  0  0
 30 31  1  0  0  0  0
 32 31  1  0  0  0  0
 33 32  1  0  0  0  0
 34 40  1  0  0  0  0
 34 41  2  0  0  0  0
 35 41  1  6  0  0  0
 36 39  1  1  0  0  0
 36 44  1  0  0  0  0
 36 38  1  0  0  0  0
 37 42  1  0  0  0  0
 37 33  1  1  0  0  0
 38 35  1  0  0  0  0
 42 43  1  6  0  0  0
 42 35  1  0  0  0  0
 43 40  1  0  0  0  0
 44 45  1  6  0  0  0
 44 37  1  0  0  0  0
 46 45  1  0  0  0  0
 48 51  1  0  0  0  0
 48 46  1  1  0  0  0
 49 50  1  0  0  0  0
 49 52  1  0  0  0  0
 49 48  1  0  0  0  0
 50 51  1  0  0  0  0
 50 47  1  1  0  0  0
 53 49  1  0  0  0  0
M  END
>  <MODEL>
9

>  <REMARK>
 VINA RESULT:      -1.7      5.546      9.857
  Name = 
  17 active torsions:
  status: ('A' for Active; 'I' for Inactive)
    1  A    between atoms: O_1  and  C_13
    2  A    between atoms: O_1  and  C_22
    3  A    between atoms: C_3  and  C_28
    4  A    between atoms: N_4  and  C_7
    5  A    between atoms: N_4  and  C_8
    6  A    between atoms: N_4  and  C_21
    7  A    between atoms: C_7  and  C_37
    8  A    between atoms: C_10  and  C_47
    9  A    between atoms: C_10  and  O_53
   10  A    between atoms: C_15  and  O_53
   11  A    between atoms: C_18  and  C_28
   12  A    between atoms: C_19  and  C_38
   13  A    between atoms: C_21  and  N_24
   14  A    between atoms: C_22  and  N_29
   15  A    between atoms: C_28  and  C_31
   16  A    between atoms: N_29  and  C_38
   17  A    between atoms: C_31  and  C_39
                            x       y       z     vdW  Elec       q    Type
                         _______ _______ _______ _____ _____    ______ ____

>  <TORSDO>
F 17

$$$$
