=
 OpenBabel11072409543D

 48 54  0  0  1  0  0  0  0  0999 V2000
  158.0960  212.0260  154.5460 O   0  0  0  0  0  0  0  0  0  0  0  0
  163.3350  211.2730  147.1970 C   0  0  0  0  0  2  0  0  0  0  0  0
  163.7610  213.6180  147.7300 C   0  0  0  0  0  2  0  0  0  0  0  0
  162.1290  211.8080  147.9740 C   0  0  2  0  0  0  0  0  0  0  0  0
  158.8720  212.8760  146.6280 N   0  0  0  0  0  0  0  0  0  0  0  0
  160.8720  208.3100  151.4820 C   0  0  0  0  0  2  0  0  0  0  0  0
  160.6000  212.2800  155.5010 C   0  0  0  0  0  2  0  0  0  0  0  0
  160.7620  209.0160  157.2580 C   0  0  0  0  0  2  0  0  0  0  0  0
  162.9110  209.8980  152.7670 O   0  0  0  0  0  1  0  0  0  0  0  0
  162.2680  210.8890  150.2210 C   0  0  0  0  0  3  0  0  0  0  0  0
  158.4480  214.0320  152.2940 C   0  0  0  0  0  1  0  0  0  0  0  0
  159.2530  213.1400  148.9410 C   0  0  0  0  0  2  0  0  0  0  0  0
  161.2960  212.8180  147.2020 C   0  0  2  0  0  3  0  0  0  0  0  0
  157.3230  211.8750  151.7080 C   0  0  0  0  0  2  0  0  0  0  0  0
  160.8220  209.7060  148.6050 C   0  0  0  0  0  1  0  0  0  0  0  0
  157.4450  211.8540  150.1780 C   0  0  0  0  0  2  0  0  0  0  0  0
  161.5650  208.0220  155.4210 C   0  0  0  0  0  0  0  0  0  0  0  0
  161.5150  207.8790  156.7110 N   0  0  0  0  0  0  0  0  0  0  0  0
  160.4450  209.4900  151.9510 O   0  0  0  0  0  0  0  0  0  0  0  0
  162.3550  213.3060  148.2600 C   0  0  2  0  0  0  0  0  0  0  0  0
  162.1300  209.6260  151.5040 P   0  0  2  0  0  0  0  0  0  0  0  0
  162.2680  207.1520  153.1810 N   0  0  0  0  0  2  0  0  0  0  0  0
  160.9100  209.2380  154.9580 C   0  0  0  0  0  3  0  0  0  0  0  0
  161.6260  210.8840  149.0420 C   0  0  0  0  0  0  0  0  0  0  0  0
  159.7850  212.8240  147.5610 C   0  0  0  0  0  0  0  0  0  0  0  0
  159.0730  211.9280  153.5360 C   0  0  2  0  0  3  0  0  0  0  0  0
  158.9350  211.9370  149.8230 C   0  0  2  0  0  3  0  0  0  0  0  0
  160.4300  209.8240  156.0450 C   0  0  0  0  0  0  0  0  0  0  0  0
  159.6500  212.1600  151.1350 C   0  0  0  0  0  2  0  0  0  0  0  0
  159.7130  211.1420  156.0560 C   0  0  2  0  0  3  0  0  0  0  0  0
  162.1530  207.0180  154.5770 N   0  0  0  0  0  2  0  0  0  0  0  0
  160.3230  212.6370  154.0400 C   0  0  0  0  0  2  0  0  0  0  0  0
  160.9270  207.2900  152.6300 C   0  0  2  0  0  3  0  0  0  0  0  0
  164.2010  212.4680  146.8290 C   0  0  0  0  0  2  0  0  0  0  0  0
  158.6170  212.5020  152.1940 C   0  0  2  0  0  0  0  0  0  0  0  0
  158.3670  211.0320  155.4360 N   0  0  0  0  0  2  0  0  0  0  0  0
  161.4610  204.9190  152.1180 C   0  0  0  0  0  3  0  0  0  0  0  0
  160.3890  205.9730  152.0780 C   0  0  2  0  0  3  0  0  0  0  0  0
  161.6170  204.3930  150.9510 N   0  0  0  0  0  0  0  0  0  0  0  0
  160.0630  206.0270  150.6580 N   0  0  0  0  0  0  0  0  0  0  0  0
  160.7250  205.0770  150.0760 C   0  0  0  0  0  3  0  0  0  0  0  0
  157.9640  212.6400  144.5150 O   0  0  0  0  0  0  0  0  0  0  0  0
  158.9870  212.9230  145.1920 C   0  0  0  0  0  0  0  0  0  0  0  0
  160.9780  212.3590  143.9940 O   0  0  0  0  0  1  0  0  0  0  0  0
  160.2210  213.4350  144.4840 C   0  0  0  0  0  2  0  0  0  0  0  0
  161.7220  214.4500  149.1120 C   0  0  0  0  0  2  0  0  0  0  0  0
  160.8300  214.3660  151.3880 O   0  0  0  0  0  1  0  0  0  0  0  0
  161.9950  214.2150  150.6210 C   0  0  0  0  0  2  0  0  0  0  0  0
  1 36  1  0  0  0  0
  3 20  1  0  0  0  0
  4  2  1  6  0  0  0
  4 20  1  0  0  0  0
  4 24  1  0  0  0  0
  5 25  2  0  0  0  0
  6 19  1  0  0  0  0
 10 21  1  0  0  0  0
 13 25  1  1  0  0  0
 13  4  1  0  0  0  0
 13 20  1  0  0  0  0
 14 35  1  0  0  0  0
 15 24  1  0  0  0  0
 16 14  1  0  0  0  0
 17 18  2  0  0  0  0
 18  8  1  0  0  0  0
 20 46  1  1  0  0  0
 21 19  1  0  0  0  0
 21  9  1  1  0  0  0
 22 31  1  0  0  0  0
 23 17  1  0  0  0  0
 23 28  2  0  0  0  0
 24 10  2  0  0  0  0
 25 12  1  0  0  0  0
 26 32  1  1  0  0  0
 26  1  1  0  0  0  0
 27 12  1  6  0  0  0
 27 16  1  0  0  0  0
 27 29  1  0  0  0  0
 28 30  1  0  0  0  0
 28  8  1  0  0  0  0
 29 35  1  0  0  0  0
 30  7  1  6  0  0  0
 31 17  1  0  0  0  0
 32  7  1  0  0  0  0
 33  6  1  6  0  0  0
 33 22  1  0  0  0  0
 34  2  1  0  0  0  0
 34  3  1  0  0  0  0
 35 11  1  1  0  0  0
 35 26  1  0  0  0  0
 36 30  1  0  0  0  0
 38 37  1  6  0  0  0
 38 33  1  0  0  0  0
 39 37  2  0  0  0  0
 40 38  1  0  0  0  0
 41 40  2  0  0  0  0
 41 39  1  0  0  0  0
 42 43  2  0  0  0  0
 43  5  1  0  0  0  0
 44 45  1  0  0  0  0
 45 43  1  0  0  0  0
 46 48  1  0  0  0  0
 48 47  1  0  0  0  0
M  END
>  <MODEL>
1

>  <REMARK>
 VINA RESULT:      12.6      0.000      0.000
  Name = 
  5 active torsions:
  status: ('A' for Active; 'I' for Inactive)
    1  A    between atoms: C_7  and  C_45
    2  A    between atoms: N_8  and  C_28
    3  A    between atoms: C_21  and  C_26
    4  A    between atoms: C_21  and  C_43
    5  A    between atoms: C_28  and  C_34
                            x       y       z     vdW  Elec       q    Type
                         _______ _______ _______ _____ _____    ______ ____

>  <TORSDO>
F 5

$$$$
