=
 OpenBabel11072414233D

 26 30  0  0  1  0  0  0  0  0999 V2000
  162.3680  209.5060  150.7170 N   0  0  0  0  0  1  0  0  0  0  0  0
  162.5750  208.3560  148.6280 N   0  0  0  0  0  0  0  0  0  0  0  0
  161.2860  207.3060  150.3640 C   0  0  0  0  0  0  0  0  0  0  0  0
  160.4420  205.0240  150.0090 N   0  0  0  0  0  2  0  0  0  0  0  0
  161.5620  206.2440  148.1940 C   0  0  0  0  0  0  0  0  0  0  0  0
  161.0570  206.2170  149.5030 C   0  0  0  0  0  0  0  0  0  0  0  0
  160.5720  202.5890  150.2310 C   0  0  0  0  0  0  0  0  0  0  0  0
  161.9080  200.0430  147.9690 F   0  0  0  0  0  0  0  0  0  0  0  0
  161.5810  202.3780  147.6300 C   0  0  0  0  0  3  0  0  0  0  0  0
  161.5050  201.2450  148.4440 C   0  0  0  0  0  0  0  0  0  0  0  0
  160.6810  203.7340  149.4310 C   0  0  0  0  0  0  0  0  0  0  0  0
  161.0660  205.0110  146.9910 S   0  0  0  0  0  0  0  0  0  0  0  0
  160.1150  202.6820  151.5040 F   0  0  0  0  0  0  0  0  0  0  0  0
  162.0710  208.3850  149.8900 C   0  0  0  0  0  0  0  0  0  0  0  0
  161.1670  203.6210  148.1160 C   0  0  0  0  0  0  0  0  0  0  0  0
  162.3310  207.3280  147.7780 C   0  0  0  0  0  3  0  0  0  0  0  0
  160.9880  201.3480  149.7370 C   0  0  0  0  0  3  0  0  0  0  0  0
  160.4860  208.5860  152.4030 C   0  0  0  0  0  2  0  0  0  0  0  0
  161.9560  206.6790  152.9910 S   0  0  0  0  0  0  0  0  0  0  0  0
  161.4360  208.3320  153.5580 C   0  0  2  0  0  3  0  0  0  0  0  0
  160.7290  207.2320  151.7700 C   0  0  2  0  0  3  0  0  0  0  0  0
  161.2150  209.0390  155.9400 C   0  0  0  0  0  0  0  0  0  0  0  0
  160.6500  208.2050  154.8550 C   0  0  1  0  0  3  0  0  0  0  0  0
  160.1010  209.4630  155.1980 O   0  0  0  0  0  0  0  0  0  0  0  0
  162.3240  209.8610  155.7220 O   0  0  0  0  0  1  0  0  0  0  0  0
  160.8730  208.7530  157.2610 O   0  0  0  0  0  1  0  0  0  0  0  0
  2 14  1  0  0  0  0
  5  6  2  0  0  0  0
  6  4  1  0  0  0  0
  6  3  1  0  0  0  0
  7 13  1  0  0  0  0
  8 10  1  0  0  0  0
  9 15  2  0  0  0  0
  9 10  1  0  0  0  0
 10 17  2  0  0  0  0
 11  4  1  0  0  0  0
 11  7  2  0  0  0  0
 12 15  1  0  0  0  0
 12  5  1  0  0  0  0
 14  3  2  0  0  0  0
 14  1  1  0  0  0  0
 15 11  1  0  0  0  0
 16  5  1  0  0  0  0
 16  2  2  0  0  0  0
 17  7  1  0  0  0  0
 19 20  1  0  0  0  0
 20 18  1  6  0  0  0
 20 23  1  0  0  0  0
 21  3  1  6  0  0  0
 21 18  1  0  0  0  0
 21 19  1  0  0  0  0
 22 26  1  0  0  0  0
 23 24  1  6  0  0  0
 23 22  1  0  0  0  0
 24 22  1  0  0  0  0
 25 22  1  0  0  0  0
M  END
>  <MODEL>
1

>  <REMARK>
 VINA RESULT:      -8.3      0.000      0.000
  Name = 
  2 active torsions:
  status: ('A' for Active; 'I' for Inactive)
    1  A    between atoms: C_4  and  C_26
    2  A    between atoms: C_16  and  C_21
                            x       y       z     vdW  Elec       q    Type
                         _______ _______ _______ _____ _____    ______ ____

>  <TORSDO>
F 2

$$$$
=
 OpenBabel11072414233D

 26 30  0  0  1  0  0  0  0  0999 V2000
  162.7080  210.6460  150.7900 N   0  0  0  0  0  1  0  0  0  0  0  0
  162.3110  209.2930  148.8570 N   0  0  0  0  0  0  0  0  0  0  0  0
  161.5740  208.4530  150.9840 C   0  0  0  0  0  0  0  0  0  0  0  0
  160.6660  206.1710  151.1180 N   0  0  0  0  0  2  0  0  0  0  0  0
  161.2190  207.1770  148.9450 C   0  0  0  0  0  0  0  0  0  0  0  0
  161.1090  207.2910  150.3390 C   0  0  0  0  0  0  0  0  0  0  0  0
  160.8570  203.7670  151.5390 C   0  0  0  0  0  0  0  0  0  0  0  0
  161.4940  200.9760  149.2610 F   0  0  0  0  0  0  0  0  0  0  0  0
  161.0810  203.2750  148.7930 C   0  0  0  0  0  3  0  0  0  0  0  0
  161.2420  202.2300  149.7060 C   0  0  0  0  0  0  0  0  0  0  0  0
  160.7310  204.8260  150.6290 C   0  0  0  0  0  0  0  0  0  0  0  0
  160.4010  205.8470  148.0640 S   0  0  0  0  0  0  0  0  0  0  0  0
  160.7840  203.9960  152.8730 F   0  0  0  0  0  0  0  0  0  0  0  0
  162.1890  209.4590  150.2000 C   0  0  0  0  0  0  0  0  0  0  0  0
  160.8210  204.5710  149.2490 C   0  0  0  0  0  0  0  0  0  0  0  0
  161.8350  208.1930  148.2200 C   0  0  0  0  0  3  0  0  0  0  0  0
  161.1170  202.4730  151.0760 C   0  0  0  0  0  3  0  0  0  0  0  0
  160.0640  208.9450  152.9630 C   0  0  0  0  0  2  0  0  0  0  0  0
  162.3130  209.9590  153.2050 S   0  0  0  0  0  0  0  0  0  0  0  0
  160.5680  210.1830  153.6810 C   0  0  2  0  0  3  0  0  0  0  0  0
  161.4420  208.5320  152.4900 C   0  0  2  0  0  3  0  0  0  0  0  0
  160.2050  211.2900  155.8870 C   0  0  0  0  0  0  0  0  0  0  0  0
  160.4200  210.0040  155.1850 C   0  0  1  0  0  3  0  0  0  0  0  0
  159.1330  210.4340  155.5850 O   0  0  0  0  0  0  0  0  0  0  0  0
  160.1160  212.4950  155.1840 O   0  0  0  0  0  1  0  0  0  0  0  0
  160.4370  211.3580  157.2590 O   0  0  0  0  0  1  0  0  0  0  0  0
  2 14  1  0  0  0  0
  5  6  2  0  0  0  0
  6  3  1  0  0  0  0
  6  4  1  0  0  0  0
  7 13  1  0  0  0  0
  8 10  1  0  0  0  0
  9 15  2  0  0  0  0
  9 10  1  0  0  0  0
 10 17  2  0  0  0  0
 11  4  1  0  0  0  0
 11  7  2  0  0  0  0
 12  5  1  0  0  0  0
 12 15  1  0  0  0  0
 14  1  1  0  0  0  0
 14  3  2  0  0  0  0
 15 11  1  0  0  0  0
 16  2  2  0  0  0  0
 16  5  1  0  0  0  0
 17  7  1  0  0  0  0
 19 20  1  0  0  0  0
 20 18  1  6  0  0  0
 20 23  1  0  0  0  0
 21  3  1  6  0  0  0
 21 18  1  0  0  0  0
 21 19  1  0  0  0  0
 22 26  1  0  0  0  0
 23 24  1  6  0  0  0
 23 22  1  0  0  0  0
 24 22  1  0  0  0  0
 25 22  1  0  0  0  0
M  END
>  <MODEL>
2

>  <REMARK>
 VINA RESULT:      -7.1      1.657      1.829
  Name = 
  2 active torsions:
  status: ('A' for Active; 'I' for Inactive)
    1  A    between atoms: C_4  and  C_26
    2  A    between atoms: C_16  and  C_21
                            x       y       z     vdW  Elec       q    Type
                         _______ _______ _______ _____ _____    ______ ____

>  <TORSDO>
F 2

$$$$
=
 OpenBabel11072414233D

 26 30  0  0  1  0  0  0  0  0999 V2000
  161.0680  211.0330  153.0480 N   0  0  0  0  0  1  0  0  0  0  0  0
  160.5380  208.8540  153.8840 N   0  0  0  0  0  0  0  0  0  0  0  0
  161.7930  208.9960  151.8400 C   0  0  0  0  0  0  0  0  0  0  0  0
  162.2730  206.9340  150.5880 N   0  0  0  0  0  2  0  0  0  0  0  0
  161.2010  206.8410  152.7980 C   0  0  0  0  0  0  0  0  0  0  0  0
  161.7970  207.5900  151.7720 C   0  0  0  0  0  0  0  0  0  0  0  0
  161.8140  205.2880  148.8350 C   0  0  0  0  0  0  0  0  0  0  0  0
  159.9560  202.1380  148.9300 F   0  0  0  0  0  0  0  0  0  0  0  0
  160.5860  203.6020  150.7000 C   0  0  0  0  0  3  0  0  0  0  0  0
  160.5630  203.2760  149.3420 C   0  0  0  0  0  0  0  0  0  0  0  0
  161.8080  205.6380  150.1920 C   0  0  0  0  0  0  0  0  0  0  0  0
  161.4220  205.0630  152.8850 S   0  0  0  0  0  0  0  0  0  0  0  0
  162.3760  206.1120  147.9160 F   0  0  0  0  0  0  0  0  0  0  0  0
  161.1360  209.6150  152.9310 C   0  0  0  0  0  0  0  0  0  0  0  0
  161.2100  204.7770  151.1290 C   0  0  0  0  0  0  0  0  0  0  0  0
  160.5660  207.4980  153.8470 C   0  0  0  0  0  3  0  0  0  0  0  0
  161.1870  204.1110  148.4120 C   0  0  0  0  0  3  0  0  0  0  0  0
  161.9940  211.2090  150.6160 C   0  0  0  0  0  2  0  0  0  0  0  0
  161.8200  209.2780  149.0720 S   0  0  0  0  0  0  0  0  0  0  0  0
  161.4410  211.0560  149.2120 C   0  0  2  0  0  3  0  0  0  0  0  0
  162.4410  209.7660  150.7090 C   0  0  2  0  0  3  0  0  0  0  0  0
  161.4910  212.5240  147.1950 C   0  0  0  0  0  0  0  0  0  0  0  0
  162.2990  211.8410  148.2300 C   0  0  1  0  0  3  0  0  0  0  0  0
  161.9750  213.2160  148.3170 O   0  0  0  0  0  0  0  0  0  0  0  0
  160.0950  212.4500  147.1980 O   0  0  0  0  0  1  0  0  0  0  0  0
  162.1120  212.9490  146.0220 O   0  0  0  0  0  1  0  0  0  0  0  0
  3 14  1  0  0  0  0
  4  6  1  0  0  0  0
  5 12  1  0  0  0  0
  5 16  2  0  0  0  0
  6  3  2  0  0  0  0
  6  5  1  0  0  0  0
  7 11  1  0  0  0  0
  8 10  1  0  0  0  0
  9 15  1  0  0  0  0
 10  9  2  0  0  0  0
 11  4  1  0  0  0  0
 11 15  2  0  0  0  0
 13  7  1  0  0  0  0
 14  1  1  0  0  0  0
 14  2  2  0  0  0  0
 15 12  1  0  0  0  0
 16  2  1  0  0  0  0
 17  7  2  0  0  0  0
 17 10  1  0  0  0  0
 18 21  1  0  0  0  0
 19 20  1  0  0  0  0
 19 21  1  0  0  0  0
 20 18  1  1  0  0  0
 21  3  1  1  0  0  0
 22 25  1  0  0  0  0
 22 23  1  0  0  0  0
 22 24  1  0  0  0  0
 23 24  1  1  0  0  0
 23 20  1  0  0  0  0
 26 22  1  0  0  0  0
M  END
>  <MODEL>
3

>  <REMARK>
 VINA RESULT:      -6.6      3.946      5.467
  Name = 
  2 active torsions:
  status: ('A' for Active; 'I' for Inactive)
    1  A    between atoms: C_4  and  C_26
    2  A    between atoms: C_16  and  C_21
                            x       y       z     vdW  Elec       q    Type
                         _______ _______ _______ _____ _____    ______ ____

>  <TORSDO>
F 2

$$$$
=
 OpenBabel11072414233D

 26 30  0  0  1  0  0  0  0  0999 V2000
  159.9570  214.3300  148.8360 N   0  0  0  0  0  1  0  0  0  0  0  0
  159.6060  213.3720  151.0020 N   0  0  0  0  0  0  0  0  0  0  0  0
  161.1620  212.2800  149.5310 C   0  0  0  0  0  0  0  0  0  0  0  0
  162.1380  210.1270  150.2100 N   0  0  0  0  0  2  0  0  0  0  0  0
  160.7260  211.4110  151.7600 C   0  0  0  0  0  0  0  0  0  0  0  0
  161.3770  211.3030  150.5210 C   0  0  0  0  0  0  0  0  0  0  0  0
  162.2260  207.6810  150.2340 C   0  0  0  0  0  0  0  0  0  0  0  0
  160.8470  205.2540  152.5980 F   0  0  0  0  0  0  0  0  0  0  0  0
  160.9480  207.6300  152.7220 C   0  0  0  0  0  3  0  0  0  0  0  0
  161.2050  206.4360  152.0450 C   0  0  0  0  0  0  0  0  0  0  0  0
  161.9370  208.8830  150.8930 C   0  0  0  0  0  0  0  0  0  0  0  0
  161.1780  210.3480  153.1310 S   0  0  0  0  0  0  0  0  0  0  0  0
  162.8150  207.6920  149.0120 F   0  0  0  0  0  0  0  0  0  0  0  0
  160.2450  213.3250  149.8030 C   0  0  0  0  0  0  0  0  0  0  0  0
  161.3160  208.8540  152.1540 C   0  0  0  0  0  0  0  0  0  0  0  0
  159.8320  212.4560  151.9760 C   0  0  0  0  0  3  0  0  0  0  0  0
  161.8560  206.4610  150.8090 C   0  0  0  0  0  3  0  0  0  0  0  0
  162.6830  213.3380  147.7980 C   0  0  0  0  0  2  0  0  0  0  0  0
  160.7520  212.1620  146.7810 S   0  0  0  0  0  0  0  0  0  0  0  0
  161.9060  213.5480  146.5120 C   0  0  2  0  0  3  0  0  0  0  0  0
  161.8790  212.1220  148.2070 C   0  0  2  0  0  3  0  0  0  0  0  0
  162.1570  213.6110  144.0300 C   0  0  0  0  0  0  0  0  0  0  0  0
  162.7970  213.2470  145.3150 C   0  0  1  0  0  3  0  0  0  0  0  0
  163.1010  214.4530  144.6400 O   0  0  0  0  0  0  0  0  0  0  0  0
  160.8900  214.1990  143.9910 O   0  0  0  0  0  1  0  0  0  0  0  0
  162.6500  213.0590  142.8490 O   0  0  0  0  0  1  0  0  0  0  0  0
  1 14  1  0  0  0  0
  2 16  1  0  0  0  0
  3 14  1  0  0  0  0
  3  6  2  0  0  0  0
  4  6  1  0  0  0  0
  4 11  1  0  0  0  0
  5 16  2  0  0  0  0
  5 12  1  0  0  0  0
  6  5  1  0  0  0  0
  7 17  2  0  0  0  0
  7 11  1  0  0  0  0
 10  8  1  0  0  0  0
 10  9  2  0  0  0  0
 11 15  2  0  0  0  0
 13  7  1  0  0  0  0
 14  2  2  0  0  0  0
 15  9  1  0  0  0  0
 15 12  1  0  0  0  0
 17 10  1  0  0  0  0
 18 21  1  0  0  0  0
 19 21  1  0  0  0  0
 20 19  1  0  0  0  0
 20 18  1  1  0  0  0
 21  3  1  1  0  0  0
 22 24  1  0  0  0  0
 22 23  1  0  0  0  0
 23 24  1  1  0  0  0
 23 20  1  0  0  0  0
 25 22  1  0  0  0  0
 26 22  1  0  0  0  0
M  END
>  <MODEL>
4

>  <REMARK>
 VINA RESULT:      -6.6      5.870      8.092
  Name = 
  2 active torsions:
  status: ('A' for Active; 'I' for Inactive)
    1  A    between atoms: C_4  and  C_26
    2  A    between atoms: C_16  and  C_21
                            x       y       z     vdW  Elec       q    Type
                         _______ _______ _______ _____ _____    ______ ____

>  <TORSDO>
F 2

$$$$
=
 OpenBabel11072414233D

 26 30  0  0  1  0  0  0  0  0999 V2000
  160.9750  204.9960  153.0430 N   0  0  0  0  0  1  0  0  0  0  0  0
  160.6690  202.8030  152.1330 N   0  0  0  0  0  0  0  0  0  0  0  0
  161.5440  204.5070  150.6820 C   0  0  0  0  0  0  0  0  0  0  0  0
  161.8640  203.9970  148.2980 N   0  0  0  0  0  2  0  0  0  0  0  0
  161.1970  202.2380  149.8800 C   0  0  0  0  0  0  0  0  0  0  0  0
  161.5810  203.5660  149.6370 C   0  0  0  0  0  0  0  0  0  0  0  0
  161.1600  203.9900  145.9530 C   0  0  0  0  0  0  0  0  0  0  0  0
  159.4490  201.4360  143.9700 F   0  0  0  0  0  0  0  0  0  0  0  0
  160.3300  201.3270  146.1800 C   0  0  0  0  0  3  0  0  0  0  0  0
  160.0810  202.0390  145.0040 C   0  0  0  0  0  0  0  0  0  0  0  0
  161.3790  203.2920  147.1480 C   0  0  0  0  0  0  0  0  0  0  0  0
  161.4860  200.9590  148.6570 S   0  0  0  0  0  0  0  0  0  0  0  0
  161.5270  205.2910  145.8410 F   0  0  0  0  0  0  0  0  0  0  0  0
  161.0680  204.0890  151.9490 C   0  0  0  0  0  0  0  0  0  0  0  0
  160.9820  201.9470  147.2510 C   0  0  0  0  0  0  0  0  0  0  0  0
  160.7330  201.8790  151.1420 C   0  0  0  0  0  3  0  0  0  0  0  0
  160.5070  203.3640  144.8860 C   0  0  0  0  0  3  0  0  0  0  0  0
  162.3500  206.7320  151.5990 C   0  0  0  0  0  2  0  0  0  0  0  0
  160.5630  206.9910  149.9000 S   0  0  0  0  0  0  0  0  0  0  0  0
  161.2760  207.7810  151.3800 C   0  0  2  0  0  3  0  0  0  0  0  0
  161.9600  205.9300  150.3740 C   0  0  2  0  0  3  0  0  0  0  0  0
  161.1980  210.2680  151.5620 C   0  0  0  0  0  0  0  0  0  0  0  0
  161.9180  209.1060  150.9950 C   0  0  1  0  0  3  0  0  0  0  0  0
  162.3650  209.7690  152.1620 O   0  0  0  0  0  0  0  0  0  0  0  0
  160.0810  210.0990  152.3850 O   0  0  0  0  0  1  0  0  0  0  0  0
  161.4050  211.5290  151.0060 O   0  0  0  0  0  1  0  0  0  0  0  0
  3 14  2  0  0  0  0
  4  6  1  0  0  0  0
  5 16  1  0  0  0  0
  6  5  2  0  0  0  0
  6  3  1  0  0  0  0
  7 11  1  0  0  0  0
  8 10  1  0  0  0  0
  9 15  1  0  0  0  0
 10  9  2  0  0  0  0
 11 15  2  0  0  0  0
 11  4  1  0  0  0  0
 12  5  1  0  0  0  0
 13  7  1  0  0  0  0
 14  2  1  0  0  0  0
 14  1  1  0  0  0  0
 15 12  1  0  0  0  0
 16  2  2  0  0  0  0
 17 10  1  0  0  0  0
 17  7  2  0  0  0  0
 19 21  1  0  0  0  0
 19 20  1  0  0  0  0
 20 18  1  6  0  0  0
 21  3  1  1  0  0  0
 21 18  1  0  0  0  0
 22 24  1  0  0  0  0
 22 25  1  0  0  0  0
 23 20  1  0  0  0  0
 23 22  1  0  0  0  0
 23 24  1  1  0  0  0
 26 22  1  0  0  0  0
M  END
>  <MODEL>
5

>  <REMARK>
 VINA RESULT:      -6.5      3.138      4.335
  Name = 
  2 active torsions:
  status: ('A' for Active; 'I' for Inactive)
    1  A    between atoms: C_4  and  C_26
    2  A    between atoms: C_16  and  C_21
                            x       y       z     vdW  Elec       q    Type
                         _______ _______ _______ _____ _____    ______ ____

>  <TORSDO>
F 2

$$$$
=
 OpenBabel11072414233D

 26 30  0  0  1  0  0  0  0  0999 V2000
  160.9760  207.8680  152.3110 N   0  0  0  0  0  1  0  0  0  0  0  0
  160.4210  205.5480  152.1090 N   0  0  0  0  0  0  0  0  0  0  0  0
  161.7670  206.5340  150.3800 C   0  0  0  0  0  0  0  0  0  0  0  0
  162.3160  205.2000  148.3880 N   0  0  0  0  0  2  0  0  0  0  0  0
  161.1460  204.1850  150.2960 C   0  0  0  0  0  0  0  0  0  0  0  0
  161.7830  205.2930  149.7160 C   0  0  0  0  0  0  0  0  0  0  0  0
  161.9470  204.4690  146.0800 C   0  0  0  0  0  0  0  0  0  0  0  0
  160.1060  201.6070  144.7370 F   0  0  0  0  0  0  0  0  0  0  0  0
  160.6460  202.1640  146.9890 C   0  0  0  0  0  3  0  0  0  0  0  0
  160.6870  202.4510  145.6220 C   0  0  0  0  0  0  0  0  0  0  0  0
  161.8770  204.2040  147.4550 C   0  0  0  0  0  0  0  0  0  0  0  0
  161.3730  202.5380  149.6230 S   0  0  0  0  0  0  0  0  0  0  0  0
  162.5450  205.5990  145.6280 F   0  0  0  0  0  0  0  0  0  0  0  0
  161.0580  206.6360  151.6010 C   0  0  0  0  0  0  0  0  0  0  0  0
  161.2430  203.0330  147.9060 C   0  0  0  0  0  0  0  0  0  0  0  0
  160.4590  204.3390  151.4970 C   0  0  0  0  0  3  0  0  0  0  0  0
  161.3480  203.5950  145.1680 C   0  0  0  0  0  3  0  0  0  0  0  0
  162.2350  209.0270  150.4180 C   0  0  0  0  0  2  0  0  0  0  0  0
  161.6830  208.1950  148.1490 S   0  0  0  0  0  0  0  0  0  0  0  0
  161.5890  209.6760  149.2080 C   0  0  2  0  0  3  0  0  0  0  0  0
  162.4610  207.7040  149.7160 C   0  0  2  0  0  3  0  0  0  0  0  0
  161.7610  211.7650  147.8550 C   0  0  0  0  0  0  0  0  0  0  0  0
  162.5000  210.7610  148.6540 C   0  0  1  0  0  3  0  0  0  0  0  0
  162.1200  212.0140  149.1900 O   0  0  0  0  0  0  0  0  0  0  0  0
  160.3750  211.6900  147.6990 O   0  0  0  0  0  1  0  0  0  0  0  0
  162.4680  212.5810  146.9740 O   0  0  0  0  0  1  0  0  0  0  0  0
  3 14  2  0  0  0  0
  4  6  1  0  0  0  0
  5 16  1  0  0  0  0
  6  5  2  0  0  0  0
  6  3  1  0  0  0  0
  7 11  1  0  0  0  0
  8 10  1  0  0  0  0
  9 15  1  0  0  0  0
 10  9  2  0  0  0  0
 11 15  2  0  0  0  0
 11  4  1  0  0  0  0
 12  5  1  0  0  0  0
 13  7  1  0  0  0  0
 14  2  1  0  0  0  0
 14  1  1  0  0  0  0
 15 12  1  0  0  0  0
 16  2  2  0  0  0  0
 17 10  1  0  0  0  0
 17  7  2  0  0  0  0
 19 20  1  0  0  0  0
 19 21  1  0  0  0  0
 20 18  1  1  0  0  0
 21  3  1  1  0  0  0
 21 18  1  0  0  0  0
 22 23  1  0  0  0  0
 22 24  1  0  0  0  0
 23 24  1  1  0  0  0
 23 20  1  0  0  0  0
 25 22  1  0  0  0  0
 26 22  1  0  0  0  0
M  END
>  <MODEL>
6

>  <REMARK>
 VINA RESULT:      -6.2      3.767      5.002
  Name = 
  2 active torsions:
  status: ('A' for Active; 'I' for Inactive)
    1  A    between atoms: C_4  and  C_26
    2  A    between atoms: C_16  and  C_21
                            x       y       z     vdW  Elec       q    Type
                         _______ _______ _______ _____ _____    ______ ____

>  <TORSDO>
F 2

$$$$
=
 OpenBabel11072414233D

 26 30  0  0  1  0  0  0  0  0999 V2000
  161.7210  209.8420  147.8750 N   0  0  0  0  0  1  0  0  0  0  0  0
  161.5390  211.0920  149.9080 N   0  0  0  0  0  0  0  0  0  0  0  0
  161.9730  208.7340  150.0760 C   0  0  0  0  0  0  0  0  0  0  0  0
  161.9810  207.6760  152.2960 N   0  0  0  0  0  2  0  0  0  0  0  0
  161.7770  210.1150  152.0680 C   0  0  0  0  0  0  0  0  0  0  0  0
  161.9600  208.8550  151.4780 C   0  0  0  0  0  0  0  0  0  0  0  0
  160.9300  206.4360  154.1270 C   0  0  0  0  0  0  0  0  0  0  0  0
  159.2480  207.6030  157.1590 F   0  0  0  0  0  0  0  0  0  0  0  0
  160.4660  208.8210  155.5140 C   0  0  0  0  0  3  0  0  0  0  0  0
  159.9560  207.6170  156.0050 C   0  0  0  0  0  0  0  0  0  0  0  0
  161.4120  207.6470  153.6110 C   0  0  0  0  0  0  0  0  0  0  0  0
  162.0240  210.3510  153.8280 S   0  0  0  0  0  0  0  0  0  0  0  0
  161.1200  205.2770  153.4480 F   0  0  0  0  0  0  0  0  0  0  0  0
  161.7500  209.8960  149.2980 C   0  0  0  0  0  0  0  0  0  0  0  0
  161.1960  208.8410  154.3220 C   0  0  0  0  0  0  0  0  0  0  0  0
  161.5590  211.2260  151.2580 C   0  0  0  0  0  3  0  0  0  0  0  0
  160.2000  206.4240  155.3200 C   0  0  0  0  0  3  0  0  0  0  0  0
  162.7390  207.3680  148.0790 C   0  0  0  0  0  2  0  0  0  0  0  0
  160.6000  206.5520  149.0300 S   0  0  0  0  0  0  0  0  0  0  0  0
  161.5450  206.6550  147.4740 C   0  0  2  0  0  3  0  0  0  0  0  0
  162.1660  207.3550  149.4810 C   0  0  2  0  0  3  0  0  0  0  0  0
  161.3200  204.8720  145.7430 C   0  0  0  0  0  0  0  0  0  0  0  0
  161.9490  205.2580  147.0270 C   0  0  1  0  0  3  0  0  0  0  0  0
  162.6430  205.3400  145.7960 O   0  0  0  0  0  0  0  0  0  0  0  0
  160.4880  205.7550  145.0490 O   0  0  0  0  0  1  0  0  0  0  0  0
  161.2660  203.5240  145.3950 O   0  0  0  0  0  1  0  0  0  0  0  0
  1 14  1  0  0  0  0
  2 16  1  0  0  0  0
  3  6  2  0  0  0  0
  4 11  1  0  0  0  0
  5 12  1  0  0  0  0
  6  5  1  0  0  0  0
  6  4  1  0  0  0  0
  7 17  1  0  0  0  0
  9 10  1  0  0  0  0
 10  8  1  0  0  0  0
 11  7  2  0  0  0  0
 11 15  1  0  0  0  0
 12 15  1  0  0  0  0
 13  7  1  0  0  0  0
 14  2  2  0  0  0  0
 14  3  1  0  0  0  0
 15  9  2  0  0  0  0
 16  5  2  0  0  0  0
 17 10  2  0  0  0  0
 18 21  1  0  0  0  0
 19 21  1  0  0  0  0
 20 18  1  1  0  0  0
 20 19  1  0  0  0  0
 21  3  1  6  0  0  0
 22 24  1  0  0  0  0
 22 23  1  0  0  0  0
 23 24  1  6  0  0  0
 23 20  1  0  0  0  0
 25 22  1  0  0  0  0
 26 22  1  0  0  0  0
M  END
>  <MODEL>
7

>  <REMARK>
 VINA RESULT:      -6.0      4.756      7.426
  Name = 
  2 active torsions:
  status: ('A' for Active; 'I' for Inactive)
    1  A    between atoms: C_4  and  C_26
    2  A    between atoms: C_16  and  C_21
                            x       y       z     vdW  Elec       q    Type
                         _______ _______ _______ _____ _____    ______ ____

>  <TORSDO>
F 2

$$$$
=
 OpenBabel11072414233D

 26 30  0  0  1  0  0  0  0  0999 V2000
  161.2520  207.3050  148.4040 N   0  0  0  0  0  1  0  0  0  0  0  0
  162.0330  209.2620  149.5400 N   0  0  0  0  0  0  0  0  0  0  0  0
  161.2790  207.4130  150.8780 C   0  0  0  0  0  0  0  0  0  0  0  0
  161.1240  207.6890  153.3170 N   0  0  0  0  0  2  0  0  0  0  0  0
  162.1050  209.4520  151.9130 C   0  0  0  0  0  0  0  0  0  0  0  0
  161.5510  208.1680  152.0340 C   0  0  0  0  0  0  0  0  0  0  0  0
  159.9100  208.1810  155.3860 C   0  0  0  0  0  0  0  0  0  0  0  0
  159.5230  211.3000  157.2560 F   0  0  0  0  0  0  0  0  0  0  0  0
  160.8990  210.7970  155.3780 C   0  0  0  0  0  3  0  0  0  0  0  0
  159.9530  210.4110  156.3300 C   0  0  0  0  0  0  0  0  0  0  0  0
  160.8320  208.5730  154.4060 C   0  0  0  0  0  0  0  0  0  0  0  0
  162.7130  210.3300  153.3540 S   0  0  0  0  0  0  0  0  0  0  0  0
  159.3970  206.9250  155.3810 F   0  0  0  0  0  0  0  0  0  0  0  0
  161.5310  208.0010  149.6140 C   0  0  0  0  0  0  0  0  0  0  0  0
  161.3450  209.8830  154.4190 C   0  0  0  0  0  0  0  0  0  0  0  0
  162.3310  209.9860  150.6480 C   0  0  0  0  0  3  0  0  0  0  0  0
  159.4690  209.1010  156.3420 C   0  0  0  0  0  3  0  0  0  0  0  0
  161.6300  205.0210  151.6480 C   0  0  0  0  0  2  0  0  0  0  0  0
  160.4390  205.1600  149.4780 S   0  0  0  0  0  0  0  0  0  0  0  0
  161.5540  204.0940  150.4490 C   0  0  2  0  0  3  0  0  0  0  0  0
  160.6760  206.0360  151.0530 C   0  0  2  0  0  3  0  0  0  0  0  0
  160.6850  201.8820  149.6890 C   0  0  0  0  0  0  0  0  0  0  0  0
  160.8310  202.8110  150.8330 C   0  0  1  0  0  3  0  0  0  0  0  0
  161.6980  201.7080  150.6460 O   0  0  0  0  0  0  0  0  0  0  0  0
  161.2100  202.1910  148.4320 O   0  0  0  0  0  1  0  0  0  0  0  0
  159.7330  200.8670  149.7600 O   0  0  0  0  0  1  0  0  0  0  0  0
  1 14  1  0  0  0  0
  2 14  2  0  0  0  0
  2 16  1  0  0  0  0
  3  6  2  0  0  0  0
  4 11  1  0  0  0  0
  5  6  1  0  0  0  0
  5 12  1  0  0  0  0
  6  4  1  0  0  0  0
  7 17  1  0  0  0  0
  9 10  1  0  0  0  0
 10 17  2  0  0  0  0
 10  8  1  0  0  0  0
 11 15  1  0  0  0  0
 11  7  2  0  0  0  0
 12 15  1  0  0  0  0
 13  7  1  0  0  0  0
 14  3  1  0  0  0  0
 15  9  2  0  0  0  0
 16  5  2  0  0  0  0
 19 20  1  0  0  0  0
 19 21  1  0  0  0  0
 20 23  1  0  0  0  0
 20 18  1  1  0  0  0
 21  3  1  6  0  0  0
 21 18  1  0  0  0  0
 22 26  1  0  0  0  0
 22 24  1  0  0  0  0
 22 23  1  0  0  0  0
 23 24  1  1  0  0  0
 25 22  1  0  0  0  0
M  END
>  <MODEL>
8

>  <REMARK>
 VINA RESULT:      -5.9      4.381      7.574
  Name = 
  2 active torsions:
  status: ('A' for Active; 'I' for Inactive)
    1  A    between atoms: C_4  and  C_26
    2  A    between atoms: C_16  and  C_21
                            x       y       z     vdW  Elec       q    Type
                         _______ _______ _______ _____ _____    ______ ____

>  <TORSDO>
F 2

$$$$
=
 OpenBabel11072414233D

 26 30  0  0  1  0  0  0  0  0999 V2000
  161.7840  207.0140  146.7880 N   0  0  0  0  0  1  0  0  0  0  0  0
  161.5810  208.9890  148.1250 N   0  0  0  0  0  0  0  0  0  0  0  0
  162.0970  206.9260  149.2440 C   0  0  0  0  0  0  0  0  0  0  0  0
  162.1640  206.8850  151.7020 N   0  0  0  0  0  2  0  0  0  0  0  0
  161.8760  209.0030  150.4890 C   0  0  0  0  0  0  0  0  0  0  0  0
  162.0950  207.6170  150.4700 C   0  0  0  0  0  0  0  0  0  0  0  0
  161.1750  206.4890  153.9070 C   0  0  0  0  0  0  0  0  0  0  0  0
  159.4870  208.7630  156.2220 F   0  0  0  0  0  0  0  0  0  0  0  0
  160.6450  209.2210  154.1910 C   0  0  0  0  0  3  0  0  0  0  0  0
  160.1820  208.3160  155.1490 C   0  0  0  0  0  0  0  0  0  0  0  0
  161.6100  207.3880  152.9240 C   0  0  0  0  0  0  0  0  0  0  0  0
  162.1330  209.9540  151.9870 S   0  0  0  0  0  0  0  0  0  0  0  0
  161.3960  205.1580  153.7650 F   0  0  0  0  0  0  0  0  0  0  0  0
  161.8260  207.6540  148.0600 C   0  0  0  0  0  0  0  0  0  0  0  0
  161.3620  208.7630  153.0820 C   0  0  0  0  0  0  0  0  0  0  0  0
  161.6110  209.6720  149.2970 C   0  0  0  0  0  3  0  0  0  0  0  0
  160.4590  206.9530  155.0140 C   0  0  0  0  0  3  0  0  0  0  0  0
  162.0630  204.7460  147.9450 C   0  0  0  0  0  2  0  0  0  0  0  0
  161.0550  204.5290  150.1990 S   0  0  0  0  0  0  0  0  0  0  0  0
  160.9830  203.8440  148.5120 C   0  0  2  0  0  3  0  0  0  0  0  0
  162.3300  205.4300  149.2700 C   0  0  2  0  0  3  0  0  0  0  0  0
  160.4380  201.4630  149.0220 C   0  0  0  0  0  0  0  0  0  0  0  0
  161.4690  202.4020  148.5230 C   0  0  1  0  0  3  0  0  0  0  0  0
  160.6710  201.6290  147.6470 O   0  0  0  0  0  0  0  0  0  0  0  0
  159.1650  201.9110  149.3870 O   0  0  0  0  0  1  0  0  0  0  0  0
  160.8290  200.1990  149.4600 O   0  0  0  0  0  1  0  0  0  0  0  0
  1 14  1  0  0  0  0
  2 16  1  0  0  0  0
  3  6  2  0  0  0  0
  4 11  1  0  0  0  0
  5 12  1  0  0  0  0
  6  5  1  0  0  0  0
  6  4  1  0  0  0  0
  7 17  1  0  0  0  0
  9 10  1  0  0  0  0
 10  8  1  0  0  0  0
 11 15  1  0  0  0  0
 11  7  2  0  0  0  0
 12 15  1  0  0  0  0
 13  7  1  0  0  0  0
 14  2  2  0  0  0  0
 14  3  1  0  0  0  0
 15  9  2  0  0  0  0
 16  5  2  0  0  0  0
 17 10  2  0  0  0  0
 18 21  1  0  0  0  0
 20 18  1  6  0  0  0
 20 23  1  0  0  0  0
 20 19  1  0  0  0  0
 21  3  1  6  0  0  0
 21 19  1  0  0  0  0
 22 25  1  0  0  0  0
 22 26  1  0  0  0  0
 23 24  1  6  0  0  0
 23 22  1  0  0  0  0
 24 22  1  0  0  0  0
M  END
>  <MODEL>
9

>  <REMARK>
 VINA RESULT:      -5.7      4.209      7.032
  Name = 
  2 active torsions:
  status: ('A' for Active; 'I' for Inactive)
    1  A    between atoms: C_4  and  C_26
    2  A    between atoms: C_16  and  C_21
                            x       y       z     vdW  Elec       q    Type
                         _______ _______ _______ _____ _____    ______ ____

>  <TORSDO>
F 2

$$$$
