=
 OpenBabel11072413513D

 67 72  0  0  1  0  0  0  0  0999 V2000
  161.6040  209.4650  149.4240 C   0  0  1  0  0  3  0  0  0  0  0  0
  163.1880  207.6820  149.9450 F   0  0  0  0  0  0  0  0  0  0  0  0
  162.4800  208.3010  148.9240 C   0  0  1  0  0  3  0  0  0  0  0  0
  161.7060  207.2850  148.0860 C   0  0  0  0  0  0  0  0  0  0  0  0
  162.5780  206.3390  147.5750 F   0  0  0  0  0  0  0  0  0  0  0  0
  161.0470  207.9090  147.0430 F   0  0  0  0  0  0  0  0  0  0  0  0
  160.7740  206.6510  148.8840 F   0  0  0  0  0  0  0  0  0  0  0  0
  162.1360  210.0970  150.7070 C   0  0  0  0  0  2  0  0  0  0  0  0
  161.0640  210.6840  151.4870 N   0  0  0  0  0  2  0  0  0  0  0  0
  161.5810  210.8310  152.8380 C   0  0  0  0  0  2  0  0  0  0  0  0
  161.7330  209.5230  153.4590 N   0  0  0  0  0  2  0  0  0  0  0  0
  161.6900  209.6780  154.9130 C   0  0  1  0  0  3  0  0  0  0  0  0
  160.8310  210.8400  155.3190 C   0  0  0  0  0  0  0  0  0  0  0  0
  159.1870  213.0070  156.0290 C   0  0  0  0  0  0  0  0  0  0  0  0
  159.5650  210.9790  154.7450 C   0  0  0  0  0  3  0  0  0  0  0  0
  158.2360  214.3740  156.5990 Cl  0  0  0  0  0  0  0  0  0  0  0  0
  161.2770  211.7870  156.2460 C   0  0  0  0  0  3  0  0  0  0  0  0
  160.4560  212.8580  156.5990 C   0  0  0  0  0  3  0  0  0  0  0  0
  158.7300  212.0530  155.0780 C   0  0  0  0  0  0  0  0  0  0  0  0
  156.3240  211.8670  154.9670 C   0  0  0  0  0  0  0  0  0  0  0  0
  155.2230  211.6470  155.4910 O   0  0  0  0  0  0  0  0  0  0  0  0
  157.4500  212.1000  154.4230 N   0  0  0  0  0  0  0  0  0  0  0  0
  160.6130  208.6560  156.8230 O   0  0  0  0  0  1  0  0  0  0  0  0
  161.2160  208.3870  155.5880 C   0  0  1  0  0  3  0  0  0  0  0  0
  160.2830  207.5970  154.6750 C   0  0  2  0  0  3  0  0  0  0  0  0
  159.1920  207.0960  155.3910 O   0  0  0  0  0  1  0  0  0  0  0  0
  162.6300  206.6110  153.7000 O   0  0  0  0  0  0  0  0  0  0  0  0
  161.1760  206.2290  153.8650 P   0  0  1  0  0  0  0  0  0  0  0  0
  161.0810  204.8490  154.8390 O   0  0  0  0  0  1  0  0  0  0  0  0
  160.4960  205.8710  152.2830 N   0  0  0  0  0  0  0  0  0  0  0  0
  160.5620  207.0850  151.4850 C   0  0  0  0  0  1  0  0  0  0  0  0
  161.3610  204.8920  151.6380 C   0  0  0  0  0  2  0  0  0  0  0  0
  160.7470  202.9000  150.5640 C   0  0  0  0  0  1  0  0  0  0  0  0
  160.7060  204.3520  150.4570 N   0  0  0  0  0  2  0  0  0  0  0  0
  161.5560  210.4540  148.4380 O   0  0  0  0  0  0  0  0  0  0  0  0
  163.1910  213.7530  149.0460 C   0  0  0  0  0  1  0  0  0  0  0  0
  163.1780  211.8410  147.3720 C   0  0  0  0  0  2  0  0  0  0  0  0
  162.6450  211.2970  148.6940 C   0  0  1  0  0  3  0  0  0  0  0  0
  162.3630  212.7390  148.2780 C   0  0  1  0  0  0  0  0  0  0  0  0
  160.0730  213.3130  148.8370 F   0  0  0  0  0  0  0  0  0  0  0  0
  161.0660  214.3570  147.0900 O   0  0  0  0  0  1  0  0  0  0  0  0
  160.9550  213.1450  147.7790 C   0  0  1  0  0  0  0  0  0  0  0  0
  158.7620  211.0620  144.3380 C   0  0  0  0  0  1  0  0  0  0  0  0
  160.4610  212.9270  144.1770 C   0  0  2  0  0  0  0  0  0  0  0  0
  159.1550  212.4530  144.8150 C   0  0  2  0  0  3  0  0  0  0  0  0
  161.4570  211.4320  145.9090 C   0  0  0  0  0  2  0  0  0  0  0  0
  159.1750  212.5120  146.2330 O   0  0  0  0  0  0  0  0  0  0  0  0
  161.7660  212.3100  144.7010 C   0  0  2  0  0  3  0  0  0  0  0  0
  162.7080  213.2830  145.0470 O   0  0  0  0  0  1  0  0  0  0  0  0
  160.3890  212.0610  146.8420 C   0  0  2  0  0  3  0  0  0  0  0  0
  160.4720  214.4090  143.8550 C   0  0  0  0  0  2  0  0  0  0  0  0
  160.3680  213.3920  142.7230 C   0  0  1  0  0  3  0  0  0  0  0  0
  161.7050  213.3420  141.9920 C   0  0  0  0  0  2  0  0  0  0  0  0
  161.3130  209.3750  140.2770 O   0  0  0  0  0  1  0  0  0  0  0  0
  158.8870  208.8670  138.0700 O   0  0  0  0  0  1  0  0  0  0  0  0
  160.6880  210.4700  139.6570 C   0  0  1  0  0  0  0  0  0  0  0  0
  159.3120  211.1670  137.0980 O   0  0  0  0  0  1  0  0  0  0  0  0
  162.7990  212.2880  140.1210 O   0  0  0  0  0  0  0  0  0  0  0  0
  162.8320  211.1950  139.2090 C   0  0  0  0  0  2  0  0  0  0  0  0
  160.4090  211.6260  140.6120 C   0  0  1  0  0  3  0  0  0  0  0  0
  161.8140  212.0870  141.1420 C   0  0  2  0  0  3  0  0  0  0  0  0
  159.7210  212.6760  139.9870 O   0  0  0  0  0  1  0  0  0  0  0  0
  161.4550  211.1450  138.5760 C   0  0  1  0  0  3  0  0  0  0  0  0
  160.1510  209.9890  137.9770 P   0  0  0  0  0  0  0  0  0  0  0  0
  161.2220  209.0230  137.0790 O   0  0  0  0  0  0  0  0  0  0  0  0
  162.0700  207.0330  137.7940 O   0  0  0  0  0  1  0  0  0  0  0  0
  160.9120  207.7010  137.4040 C   0  0  0  0  0  2  0  0  0  0  0  0
  1  8  1  1  0  0  0
  3  1  1  0  0  0  0
  3  2  1  1  0  0  0
  4  7  1  0  0  0  0
  4  3  1  0  0  0  0
  5  4  1  0  0  0  0
  6  4  1  0  0  0  0
  8  9  1  0  0  0  0
  9 10  1  0  0  0  0
 10 11  1  0  0  0  0
 12 11  1  6  0  0  0
 12 13  1  0  0  0  0
 12 24  1  0  0  0  0
 13 17  1  0  0  0  0
 14 16  1  0  0  0  0
 14 18  1  0  0  0  0
 15 19  1  0  0  0  0
 15 13  2  0  0  0  0
 17 18  2  0  0  0  0
 19 14  2  0  0  0  0
 20 21  2  0  0  0  0
 22 20  2  0  0  0  0
 22 19  1  0  0  0  0
 24 23  1  1  0  0  0
 25 26  1  1  0  0  0
 25 24  1  0  0  0  0
 28 27  2  6  0  0  0
 28 25  1  0  0  0  0
 28 29  1  0  0  0  0
 30 28  1  0  0  0  0
 31 30  1  0  0  0  0
 32 30  1  0  0  0  0
 34 33  1  0  0  0  0
 34 32  1  0  0  0  0
 35  1  1  0  0  0  0
 37 39  1  0  0  0  0
 37 38  1  0  0  0  0
 38 35  1  6  0  0  0
 39 38  1  0  0  0  0
 39 36  1  1  0  0  0
 42 41  1  6  0  0  0
 42 39  1  0  0  0  0
 42 40  1  0  0  0  0
 44 51  1  1  0  0  0
 44 48  1  0  0  0  0
 44 45  1  0  0  0  0
 45 43  1  1  0  0  0
 45 47  1  0  0  0  0
 46 50  1  0  0  0  0
 47 50  1  0  0  0  0
 48 49  1  1  0  0  0
 48 46  1  0  0  0  0
 50 42  1  6  0  0  0
 52 53  1  6  0  0  0
 52 51  1  0  0  0  0
 52 44  1  0  0  0  0
 56 54  1  1  0  0  0
 56 60  1  0  0  0  0
 57 64  1  0  0  0  0
 58 61  1  0  0  0  0
 59 58  1  0  0  0  0
 60 62  1  6  0  0  0
 60 61  1  0  0  0  0
 61 53  1  6  0  0  0
 63 59  1  1  0  0  0
 63 56  1  0  0  0  0
 64 55  1  0  0  0  0
 64 63  1  0  0  0  0
 64 56  1  0  0  0  0
 65 67  1  0  0  0  0
 65 64  1  0  0  0  0
 67 66  1  0  0  0  0
M  END
>  <MODEL>
1

>  <REMARK>
 VINA RESULT:       2.4      0.000      0.000
  Name = 
  23 active torsions:
  status: ('A' for Active; 'I' for Inactive)
    1  A    between atoms: C_4  and  P_37
    2  A    between atoms: C_4  and  C_57
    3  A    between atoms: C_8  and  C_21
    4  A    between atoms: O_10  and  C_49
    5  A    between atoms: O_10  and  P_58
    6  A    between atoms: N_11  and  C_19
    7  A    between atoms: C_19  and  N_43
    8  A    between atoms: C_20  and  C_28
    9  A    between atoms: C_20  and  C_55
   10  A    between atoms: C_21  and  C_57
   11  A    between atoms: C_21  and  N_59
   12  A    between atoms: C_29  and  C_45
   13  A    between atoms: O_34  and  C_40
   14  A    between atoms: O_34  and  C_55
   15  A    between atoms: P_37  and  N_43
   16  A    between atoms: C_41  and  C_61
   17  A    between atoms: C_45  and  C_60
   18  A    between atoms: N_46  and  C_67
   19  A    between atoms: N_47  and  C_50
   20  A    between atoms: N_47  and  C_54
   21  A    between atoms: C_50  and  C_55
   22  A    between atoms: C_54  and  N_59
   23  A    between atoms: C_61  and  C_66
                            x       y       z     vdW  Elec       q    Type
                         _______ _______ _______ _____ _____    ______ ____

>  <TORSDO>
F 23

$$$$
=
 OpenBabel11072413513D

 67 72  0  0  1  0  0  0  0  0999 V2000
  162.3650  208.3190  148.4610 C   0  0  1  0  0  3  0  0  0  0  0  0
  162.2310  205.9960  149.1990 F   0  0  0  0  0  0  0  0  0  0  0  0
  162.4250  206.8220  148.1010 C   0  0  1  0  0  3  0  0  0  0  0  0
  161.4980  206.4450  146.9480 C   0  0  0  0  0  0  0  0  0  0  0  0
  161.3000  205.0750  146.9350 F   0  0  0  0  0  0  0  0  0  0  0  0
  162.0340  206.8390  145.7360 F   0  0  0  0  0  0  0  0  0  0  0  0
  160.2790  207.0730  147.1180 F   0  0  0  0  0  0  0  0  0  0  0  0
  161.4710  209.1180  147.5170 C   0  0  0  0  0  2  0  0  0  0  0  0
  161.1320  210.4090  148.0840 N   0  0  0  0  0  2  0  0  0  0  0  0
  161.5020  211.3980  147.0840 C   0  0  0  0  0  2  0  0  0  0  0  0
  160.8250  212.6580  147.3550 N   0  0  0  0  0  2  0  0  0  0  0  0
  159.4310  212.5530  146.9200 C   0  0  1  0  0  3  0  0  0  0  0  0
  158.4830  213.0070  147.9900 C   0  0  0  0  0  0  0  0  0  0  0  0
  156.7410  213.8260  150.0390 C   0  0  0  0  0  0  0  0  0  0  0  0
  158.8870  212.9370  149.3260 C   0  0  0  0  0  3  0  0  0  0  0  0
  155.5790  214.4200  151.2190 Cl  0  0  0  0  0  0  0  0  0  0  0  0
  157.2060  213.4830  147.6790 C   0  0  0  0  0  3  0  0  0  0  0  0
  156.3460  213.8930  148.6980 C   0  0  0  0  0  3  0  0  0  0  0  0
  158.0350  213.3330  150.3650 C   0  0  0  0  0  0  0  0  0  0  0  0
  158.1300  213.8450  152.7240 C   0  0  0  0  0  0  0  0  0  0  0  0
  157.7220  214.4510  153.7250 O   0  0  0  0  0  0  0  0  0  0  0  0
  158.5510  213.2140  151.7020 N   0  0  0  0  0  0  0  0  0  0  0  0
  160.0440  214.4520  145.5520 O   0  0  0  0  0  1  0  0  0  0  0  0
  159.2030  213.3350  145.6220 C   0  0  1  0  0  3  0  0  0  0  0  0
  159.3700  212.4370  144.3990 C   0  0  2  0  0  3  0  0  0  0  0  0
  160.3620  211.4770  144.6170 O   0  0  0  0  0  1  0  0  0  0  0  0
  158.6830  214.4450  142.6870 O   0  0  0  0  0  0  0  0  0  0  0  0
  159.7760  213.4270  142.9210 P   0  0  1  0  0  0  0  0  0  0  0  0
  161.2340  214.2420  143.1830 O   0  0  0  0  0  1  0  0  0  0  0  0
  159.9260  212.4110  141.4940 N   0  0  0  0  0  0  0  0  0  0  0  0
  158.6690  212.4780  140.7660 C   0  0  0  0  0  1  0  0  0  0  0  0
  160.9460  212.9970  140.6360 C   0  0  0  0  0  2  0  0  0  0  0  0
  160.3150  213.4870  138.4310 C   0  0  0  0  0  1  0  0  0  0  0  0
  160.8470  212.4410  139.2950 N   0  0  0  0  0  2  0  0  0  0  0  0
  161.8620  208.4550  149.7570 O   0  0  0  0  0  0  0  0  0  0  0  0
  163.0580  210.5010  152.6400 C   0  0  0  0  0  1  0  0  0  0  0  0
  161.8860  210.7520  150.3990 C   0  0  0  0  0  2  0  0  0  0  0  0
  162.6540  209.4340  150.3700 C   0  0  1  0  0  3  0  0  0  0  0  0
  162.0330  209.9420  151.6690 C   0  0  1  0  0  0  0  0  0  0  0  0
  159.7720  210.2270  152.5010 F   0  0  0  0  0  0  0  0  0  0  0  0
  160.2610  208.3890  151.2720 O   0  0  0  0  0  1  0  0  0  0  0  0
  160.7500  209.2820  152.2310 C   0  0  1  0  0  0  0  0  0  0  0  0
  160.6510  206.2150  155.6340 C   0  0  0  0  0  1  0  0  0  0  0  0
  160.8280  205.7580  153.1530 C   0  0  2  0  0  0  0  0  0  0  0  0
  160.0490  206.4720  154.2590 C   0  0  2  0  0  3  0  0  0  0  0  0
  162.3750  207.6920  153.4620 C   0  0  0  0  0  2  0  0  0  0  0  0
  159.9000  207.8640  154.0260 O   0  0  0  0  0  0  0  0  0  0  0  0
  162.1780  206.3620  152.7420 C   0  0  2  0  0  3  0  0  0  0  0  0
  162.2750  206.5470  151.3600 O   0  0  0  0  0  1  0  0  0  0  0  0
  161.0690  208.5260  153.5350 C   0  0  2  0  0  3  0  0  0  0  0  0
  159.9440  205.2140  152.0480 C   0  0  0  0  0  2  0  0  0  0  0  0
  160.5970  204.2510  153.0340 C   0  0  1  0  0  3  0  0  0  0  0  0
  161.7340  203.5270  152.3220 C   0  0  0  0  0  2  0  0  0  0  0  0
  159.3250  201.1280  149.6250 O   0  0  0  0  0  1  0  0  0  0  0  0
  159.4200  201.8580  146.3890 O   0  0  0  0  0  1  0  0  0  0  0  0
  160.3660  201.9220  149.1150 C   0  0  1  0  0  0  0  0  0  0  0  0
  161.9020  202.3250  146.5830 O   0  0  0  0  0  1  0  0  0  0  0  0
  162.1600  201.4170  151.2370 O   0  0  0  0  0  0  0  0  0  0  0  0
  161.7650  200.4760  150.2450 C   0  0  0  0  0  2  0  0  0  0  0  0
  160.7240  203.1000  150.0140 C   0  0  1  0  0  3  0  0  0  0  0  0
  161.1970  202.4690  151.3730 C   0  0  2  0  0  3  0  0  0  0  0  0
  161.7140  203.9180  149.4500 O   0  0  0  0  0  1  0  0  0  0  0  0
  161.6850  201.2540  148.9460 C   0  0  1  0  0  3  0  0  0  0  0  0
  160.7150  201.4270  147.3890 P   0  0  0  0  0  0  0  0  0  0  0  0
  160.6940  199.7620  147.0530 O   0  0  0  0  0  0  0  0  0  0  0  0
  161.4240  198.4630  145.3300 O   0  0  0  0  0  1  0  0  0  0  0  0
  160.7770  199.6500  145.6630 C   0  0  0  0  0  2  0  0  0  0  0  0
  1  8  1  6  0  0  0
  1 35  1  0  0  0  0
  3  1  1  0  0  0  0
  3  2  1  1  0  0  0
  4  7  1  0  0  0  0
  4  3  1  0  0  0  0
  5  4  1  0  0  0  0
  6  4  1  0  0  0  0
  8  9  1  0  0  0  0
 10 11  1  0  0  0  0
 10  9  1  0  0  0  0
 12 11  1  1  0  0  0
 12 13  1  0  0  0  0
 13 15  1  0  0  0  0
 14 19  1  0  0  0  0
 14 16  1  0  0  0  0
 15 19  2  0  0  0  0
 17 13  2  0  0  0  0
 17 18  1  0  0  0  0
 18 14  2  0  0  0  0
 19 22  1  0  0  0  0
 20 21  2  0  0  0  0
 22 20  2  0  0  0  0
 24 23  1  6  0  0  0
 24 12  1  0  0  0  0
 25 26  1  1  0  0  0
 25 24  1  0  0  0  0
 28 27  2  6  0  0  0
 28 29  1  0  0  0  0
 28 25  1  0  0  0  0
 30 28  1  0  0  0  0
 31 30  1  0  0  0  0
 32 30  1  0  0  0  0
 33 34  1  0  0  0  0
 34 32  1  0  0  0  0
 37 39  1  0  0  0  0
 38 35  1  6  0  0  0
 38 37  1  0  0  0  0
 38 39  1  0  0  0  0
 39 42  1  0  0  0  0
 39 36  1  1  0  0  0
 42 41  1  6  0  0  0
 42 40  1  0  0  0  0
 44 51  1  6  0  0  0
 44 45  1  0  0  0  0
 45 43  1  1  0  0  0
 46 50  1  0  0  0  0
 47 45  1  0  0  0  0
 48 49  1  6  0  0  0
 48 44  1  0  0  0  0
 48 46  1  0  0  0  0
 50 42  1  6  0  0  0
 50 47  1  0  0  0  0
 51 52  1  0  0  0  0
 52 53  1  6  0  0  0
 52 44  1  0  0  0  0
 55 64  1  0  0  0  0
 56 54  1  1  0  0  0
 56 60  1  0  0  0  0
 57 64  1  0  0  0  0
 58 61  1  0  0  0  0
 59 58  1  0  0  0  0
 60 62  1  6  0  0  0
 60 61  1  0  0  0  0
 61 53  1  1  0  0  0
 63 56  1  0  0  0  0
 63 59  1  1  0  0  0
 64 63  1  0  0  0  0
 64 56  1  0  0  0  0
 65 64  1  0  0  0  0
 66 67  1  0  0  0  0
 67 65  1  0  0  0  0
M  END
>  <MODEL>
2

>  <REMARK>
 VINA RESULT:       3.0      4.260      9.991
  Name = 
  23 active torsions:
  status: ('A' for Active; 'I' for Inactive)
    1  A    between atoms: C_4  and  P_37
    2  A    between atoms: C_4  and  C_57
    3  A    between atoms: C_8  and  C_21
    4  A    between atoms: O_10  and  C_49
    5  A    between atoms: O_10  and  P_58
    6  A    between atoms: N_11  and  C_19
    7  A    between atoms: C_19  and  N_43
    8  A    between atoms: C_20  and  C_28
    9  A    between atoms: C_20  and  C_55
   10  A    between atoms: C_21  and  C_57
   11  A    between atoms: C_21  and  N_59
   12  A    between atoms: C_29  and  C_45
   13  A    between atoms: O_34  and  C_40
   14  A    between atoms: O_34  and  C_55
   15  A    between atoms: P_37  and  N_43
   16  A    between atoms: C_41  and  C_61
   17  A    between atoms: C_45  and  C_60
   18  A    between atoms: N_46  and  C_67
   19  A    between atoms: N_47  and  C_50
   20  A    between atoms: N_47  and  C_54
   21  A    between atoms: C_50  and  C_55
   22  A    between atoms: C_54  and  N_59
   23  A    between atoms: C_61  and  C_66
                            x       y       z     vdW  Elec       q    Type
                         _______ _______ _______ _____ _____    ______ ____

>  <TORSDO>
F 23

$$$$
=
 OpenBabel11072413513D

 67 72  0  0  1  0  0  0  0  0999 V2000
  161.8060  209.3280  148.6760 C   0  0  1  0  0  3  0  0  0  0  0  0
  163.8210  207.9690  148.4540 F   0  0  0  0  0  0  0  0  0  0  0  0
  162.5520  208.1990  147.9410 C   0  0  1  0  0  3  0  0  0  0  0  0
  161.7430  206.9060  147.8520 C   0  0  0  0  0  0  0  0  0  0  0  0
  160.8650  206.8290  148.9190 F   0  0  0  0  0  0  0  0  0  0  0  0
  162.5760  205.8020  147.8670 F   0  0  0  0  0  0  0  0  0  0  0  0
  161.0200  206.9000  146.6750 F   0  0  0  0  0  0  0  0  0  0  0  0
  162.4290  209.6680  150.0260 C   0  0  0  0  0  2  0  0  0  0  0  0
  161.5610  210.5330  150.8030 N   0  0  0  0  0  2  0  0  0  0  0  0
  161.7470  210.1490  152.1930 C   0  0  0  0  0  2  0  0  0  0  0  0
  162.1580  208.7550  152.2740 N   0  0  0  0  0  2  0  0  0  0  0  0
  161.9040  208.2620  153.6290 C   0  0  1  0  0  3  0  0  0  0  0  0
  160.7350  208.9600  154.2590 C   0  0  0  0  0  0  0  0  0  0  0  0
  158.5470  210.3110  155.3960 C   0  0  0  0  0  0  0  0  0  0  0  0
  159.9860  209.8550  153.4920 C   0  0  0  0  0  3  0  0  0  0  0  0
  157.1710  211.0480  156.2080 Cl  0  0  0  0  0  0  0  0  0  0  0  0
  160.3920  208.7430  155.5980 C   0  0  0  0  0  3  0  0  0  0  0  0
  159.3030  209.4110  156.1560 C   0  0  0  0  0  3  0  0  0  0  0  0
  158.8960  210.5450  154.0370 C   0  0  0  0  0  0  0  0  0  0  0  0
  158.7300  212.1650  152.2520 C   0  0  0  0  0  0  0  0  0  0  0  0
  159.2390  212.8660  151.3650 O   0  0  0  0  0  0  0  0  0  0  0  0
  158.1990  211.4460  153.1580 N   0  0  0  0  0  0  0  0  0  0  0  0
  161.0030  206.3290  154.7720 O   0  0  0  0  0  1  0  0  0  0  0  0
  161.6960  206.7430  153.6280 C   0  0  1  0  0  3  0  0  0  0  0  0
  160.9930  206.2820  152.3550 C   0  0  2  0  0  3  0  0  0  0  0  0
  159.6620  205.9430  152.6150 O   0  0  0  0  0  1  0  0  0  0  0  0
  161.9730  205.0650  150.1210 O   0  0  0  0  0  0  0  0  0  0  0  0
  161.8630  204.8600  151.6150 P   0  0  1  0  0  0  0  0  0  0  0  0
  163.4200  204.7600  152.2680 O   0  0  0  0  0  1  0  0  0  0  0  0
  161.0060  203.3560  151.9230 N   0  0  0  0  0  0  0  0  0  0  0  0
  159.6390  203.5190  151.4550 C   0  0  0  0  0  1  0  0  0  0  0  0
  161.6160  202.3200  151.1010 C   0  0  0  0  0  2  0  0  0  0  0  0
  161.3140  200.8300  149.3150 C   0  0  0  0  0  1  0  0  0  0  0  0
  160.6150  201.7240  150.2280 N   0  0  0  0  0  2  0  0  0  0  0  0
  161.8290  210.4790  147.8830 O   0  0  0  0  0  0  0  0  0  0  0  0
  162.9970  213.7990  149.1230 C   0  0  0  0  0  1  0  0  0  0  0  0
  163.6150  211.9960  147.4420 C   0  0  0  0  0  2  0  0  0  0  0  0
  162.7330  211.3500  148.5050 C   0  0  1  0  0  3  0  0  0  0  0  0
  162.5080  212.8010  148.0880 C   0  0  1  0  0  0  0  0  0  0  0  0
  160.1630  213.4080  147.9530 F   0  0  0  0  0  0  0  0  0  0  0  0
  161.6210  214.3480  146.4980 O   0  0  0  0  0  1  0  0  0  0  0  0
  161.3010  213.1780  147.1940 C   0  0  1  0  0  0  0  0  0  0  0  0
  159.3360  210.6580  143.9120 C   0  0  0  0  0  1  0  0  0  0  0  0
  160.0460  213.0810  143.7760 C   0  0  2  0  0  0  0  0  0  0  0  0
  159.2460  212.0350  144.5550 C   0  0  2  0  0  3  0  0  0  0  0  0
  161.9580  212.0200  144.9790 C   0  0  0  0  0  2  0  0  0  0  0  0
  159.5980  211.9740  145.9280 O   0  0  0  0  0  0  0  0  0  0  0  0
  161.5740  213.0460  143.9180 C   0  0  2  0  0  3  0  0  0  0  0  0
  162.1020  214.2970  144.2510 O   0  0  0  0  0  1  0  0  0  0  0  0
  161.0010  212.0410  146.1990 C   0  0  2  0  0  3  0  0  0  0  0  0
  159.3810  214.4430  143.7380 C   0  0  0  0  0  2  0  0  0  0  0  0
  159.4110  213.5840  142.4790 C   0  0  1  0  0  3  0  0  0  0  0  0
  160.4250  214.1800  141.5100 C   0  0  0  0  0  2  0  0  0  0  0  0
  162.1460  210.6540  139.6550 O   0  0  0  0  0  1  0  0  0  0  0  0
  160.1520  208.0620  139.0930 O   0  0  0  0  0  1  0  0  0  0  0  0
  160.7520  210.8240  139.6740 C   0  0  1  0  0  0  0  0  0  0  0  0
  158.2900  209.6530  138.4490 O   0  0  0  0  0  1  0  0  0  0  0  0
  160.8100  213.6080  139.2000 O   0  0  0  0  0  0  0  0  0  0  0  0
  161.1430  212.5990  138.2520 C   0  0  0  0  0  2  0  0  0  0  0  0
  160.2690  211.7300  140.8020 C   0  0  1  0  0  3  0  0  0  0  0  0
  160.9390  213.1260  140.5430 C   0  0  2  0  0  3  0  0  0  0  0  0
  158.8700  211.8260  140.8440 O   0  0  0  0  0  1  0  0  0  0  0  0
  160.1490  211.4760  138.4800 C   0  0  1  0  0  3  0  0  0  0  0  0
  159.9820  209.6410  138.5120 P   0  0  0  0  0  0  0  0  0  0  0  0
  160.7730  209.4040  137.0270 O   0  0  0  0  0  0  0  0  0  0  0  0
  162.9370  208.7610  137.3320 O   0  0  0  0  0  1  0  0  0  0  0  0
  161.6240  208.3130  137.2150 C   0  0  0  0  0  2  0  0  0  0  0  0
  1  8  1  1  0  0  0
  3  2  1  1  0  0  0
  3  1  1  0  0  0  0
  4  6  1  0  0  0  0
  4  3  1  0  0  0  0
  4  5  1  0  0  0  0
  7  4  1  0  0  0  0
  8  9  1  0  0  0  0
  9 10  1  0  0  0  0
 10 11  1  0  0  0  0
 12 11  1  6  0  0  0
 12 13  1  0  0  0  0
 13 17  1  0  0  0  0
 14 18  1  0  0  0  0
 14 16  1  0  0  0  0
 15 19  1  0  0  0  0
 15 13  2  0  0  0  0
 17 18  2  0  0  0  0
 19 14  2  0  0  0  0
 20 22  2  0  0  0  0
 21 20  2  0  0  0  0
 22 19  1  0  0  0  0
 24 12  1  0  0  0  0
 24 23  1  1  0  0  0
 25 26  1  1  0  0  0
 25 24  1  0  0  0  0
 28 27  2  6  0  0  0
 28 30  1  0  0  0  0
 28 29  1  0  0  0  0
 28 25  1  0  0  0  0
 31 30  1  0  0  0  0
 32 30  1  0  0  0  0
 33 34  1  0  0  0  0
 34 32  1  0  0  0  0
 35  1  1  0  0  0  0
 37 39  1  0  0  0  0
 37 38  1  0  0  0  0
 38 35  1  6  0  0  0
 39 38  1  0  0  0  0
 39 36  1  1  0  0  0
 42 41  1  6  0  0  0
 42 40  1  0  0  0  0
 42 39  1  0  0  0  0
 44 51  1  1  0  0  0
 44 48  1  0  0  0  0
 44 45  1  0  0  0  0
 45 43  1  6  0  0  0
 45 47  1  0  0  0  0
 46 50  1  0  0  0  0
 47 50  1  0  0  0  0
 48 49  1  1  0  0  0
 48 46  1  0  0  0  0
 50 42  1  6  0  0  0
 52 53  1  6  0  0  0
 52 51  1  0  0  0  0
 52 44  1  0  0  0  0
 56 54  1  6  0  0  0
 56 60  1  0  0  0  0
 57 64  1  0  0  0  0
 58 61  1  0  0  0  0
 59 58  1  0  0  0  0
 60 62  1  6  0  0  0
 61 60  1  0  0  0  0
 61 53  1  1  0  0  0
 63 59  1  6  0  0  0
 63 64  1  0  0  0  0
 63 56  1  0  0  0  0
 64 55  1  0  0  0  0
 64 56  1  0  0  0  0
 65 67  1  0  0  0  0
 65 64  1  0  0  0  0
 67 66  1  0  0  0  0
M  END
>  <MODEL>
3

>  <REMARK>
 VINA RESULT:       4.5      1.709      2.099
  Name = 
  23 active torsions:
  status: ('A' for Active; 'I' for Inactive)
    1  A    between atoms: C_4  and  P_37
    2  A    between atoms: C_4  and  C_57
    3  A    between atoms: C_8  and  C_21
    4  A    between atoms: O_10  and  C_49
    5  A    between atoms: O_10  and  P_58
    6  A    between atoms: N_11  and  C_19
    7  A    between atoms: C_19  and  N_43
    8  A    between atoms: C_20  and  C_28
    9  A    between atoms: C_20  and  C_55
   10  A    between atoms: C_21  and  C_57
   11  A    between atoms: C_21  and  N_59
   12  A    between atoms: C_29  and  C_45
   13  A    between atoms: O_34  and  C_40
   14  A    between atoms: O_34  and  C_55
   15  A    between atoms: P_37  and  N_43
   16  A    between atoms: C_41  and  C_61
   17  A    between atoms: C_45  and  C_60
   18  A    between atoms: N_46  and  C_67
   19  A    between atoms: N_47  and  C_50
   20  A    between atoms: N_47  and  C_54
   21  A    between atoms: C_50  and  C_55
   22  A    between atoms: C_54  and  N_59
   23  A    between atoms: C_61  and  C_66
                            x       y       z     vdW  Elec       q    Type
                         _______ _______ _______ _____ _____    ______ ____

>  <TORSDO>
F 23

$$$$
=
 OpenBabel11072413513D

 67 72  0  0  1  0  0  0  0  0999 V2000
  161.9680  208.8860  149.0480 C   0  0  1  0  0  3  0  0  0  0  0  0
  160.1710  207.9070  147.7170 F   0  0  0  0  0  0  0  0  0  0  0  0
  161.3380  207.6310  148.4140 C   0  0  1  0  0  3  0  0  0  0  0  0
  162.3220  206.8340  147.5600 C   0  0  0  0  0  0  0  0  0  0  0  0
  163.6170  207.2350  147.8410 F   0  0  0  0  0  0  0  0  0  0  0  0
  162.0700  207.0220  146.2130 F   0  0  0  0  0  0  0  0  0  0  0  0
  162.1960  205.4900  147.8520 F   0  0  0  0  0  0  0  0  0  0  0  0
  161.6420  210.1630  148.2810 C   0  0  0  0  0  2  0  0  0  0  0  0
  161.1840  209.8660  146.9370 N   0  0  0  0  0  2  0  0  0  0  0  0
  160.1930  210.8800  146.6140 C   0  0  0  0  0  2  0  0  0  0  0  0
  160.4890  211.4700  145.3160 N   0  0  0  0  0  2  0  0  0  0  0  0
  161.2220  212.7200  145.5170 C   0  0  1  0  0  3  0  0  0  0  0  0
  161.9610  213.1320  144.2780 C   0  0  0  0  0  0  0  0  0  0  0  0
  163.3260  213.8500  141.9280 C   0  0  0  0  0  0  0  0  0  0  0  0
  161.6330  212.5270  143.0620 C   0  0  0  0  0  3  0  0  0  0  0  0
  164.2160  214.4280  140.5240 Cl  0  0  0  0  0  0  0  0  0  0  0  0
  162.9740  214.0950  144.3190 C   0  0  0  0  0  3  0  0  0  0  0  0
  163.6460  214.4520  143.1510 C   0  0  0  0  0  3  0  0  0  0  0  0
  162.3030  212.8630  141.8790 C   0  0  0  0  0  0  0  0  0  0  0  0
  160.9540  211.3140  140.6070 C   0  0  0  0  0  0  0  0  0  0  0  0
  160.0420  210.4790  140.5210 O   0  0  0  0  0  0  0  0  0  0  0  0
  161.8880  212.1750  140.6860 N   0  0  0  0  0  0  0  0  0  0  0  0
  158.9660  213.3720  146.1010 O   0  0  0  0  0  1  0  0  0  0  0  0
  160.2820  213.8360  145.9880 C   0  0  1  0  0  3  0  0  0  0  0  0
  160.7680  214.4520  147.2970 C   0  0  2  0  0  3  0  0  0  0  0  0
  162.1410  214.2500  147.4640 O   0  0  0  0  0  1  0  0  0  0  0  0
  159.9240  212.2440  148.6560 O   0  0  0  0  0  0  0  0  0  0  0  0
  159.8590  213.7540  148.7160 P   0  0  1  0  0  0  0  0  0  0  0  0
  160.5870  214.2750  150.1520 O   0  0  0  0  0  1  0  0  0  0  0  0
  158.1740  214.2540  148.7030 N   0  0  0  0  0  0  0  0  0  0  0  0
  157.3860  213.1510  148.1780 C   0  0  0  0  0  1  0  0  0  0  0  0
  157.7580  214.4520  150.0850 C   0  0  0  0  0  2  0  0  0  0  0  0
  157.9480  213.4880  152.2150 C   0  0  0  0  0  1  0  0  0  0  0  0
  157.7850  213.1840  150.7990 N   0  0  0  0  0  2  0  0  0  0  0  0
  161.4850  209.0260  150.3520 O   0  0  0  0  0  0  0  0  0  0  0  0
  163.1190  210.5120  153.3610 C   0  0  0  0  0  1  0  0  0  0  0  0
  161.7720  211.1890  151.3150 C   0  0  0  0  0  2  0  0  0  0  0  0
  162.4140  209.8390  151.0150 C   0  0  1  0  0  3  0  0  0  0  0  0
  161.9630  210.1860  152.4320 C   0  0  1  0  0  0  0  0  0  0  0  0
  159.8050  210.5070  153.4930 F   0  0  0  0  0  0  0  0  0  0  0  0
  160.0520  208.8130  152.0100 O   0  0  0  0  0  1  0  0  0  0  0  0
  160.6840  209.5430  153.0230 C   0  0  1  0  0  0  0  0  0  0  0  0
  160.7060  206.0190  155.9510 C   0  0  0  0  0  1  0  0  0  0  0  0
  160.7850  205.9240  153.4250 C   0  0  2  0  0  0  0  0  0  0  0  0
  160.0510  206.4690  154.6520 C   0  0  2  0  0  3  0  0  0  0  0  0
  162.3500  207.7960  153.9480 C   0  0  0  0  0  2  0  0  0  0  0  0
  159.8990  207.8800  154.6270 O   0  0  0  0  0  0  0  0  0  0  0  0
  162.1210  206.5830  153.0530 C   0  0  2  0  0  3  0  0  0  0  0  0
  162.1650  206.9650  151.7090 O   0  0  0  0  0  1  0  0  0  0  0  0
  161.0510  208.6080  154.1910 C   0  0  2  0  0  3  0  0  0  0  0  0
  159.8570  205.5420  152.2890 C   0  0  0  0  0  2  0  0  0  0  0  0
  160.5440  204.4490  153.1000 C   0  0  1  0  0  3  0  0  0  0  0  0
  161.6510  203.8370  152.2480 C   0  0  0  0  0  2  0  0  0  0  0  0
  159.2430  201.4390  149.5490 O   0  0  0  0  0  1  0  0  0  0  0  0
  159.5710  201.9650  146.2880 O   0  0  0  0  0  1  0  0  0  0  0  0
  160.3630  202.1320  149.0580 C   0  0  1  0  0  0  0  0  0  0  0  0
  162.0640  202.2830  146.6060 O   0  0  0  0  0  1  0  0  0  0  0  0
  161.9940  201.6430  151.3120 O   0  0  0  0  0  0  0  0  0  0  0  0
  161.5930  200.6700  150.3520 C   0  0  0  0  0  2  0  0  0  0  0  0
  160.7470  203.3370  149.9110 C   0  0  1  0  0  3  0  0  0  0  0  0
  161.0980  202.7610  151.3290 C   0  0  2  0  0  3  0  0  0  0  0  0
  161.8210  204.0540  149.3630 O   0  0  0  0  0  1  0  0  0  0  0  0
  161.6410  201.3720  149.0090 C   0  0  1  0  0  3  0  0  0  0  0  0
  160.7750  201.5130  147.3880 P   0  0  0  0  0  0  0  0  0  0  0  0
  160.6610  199.8350  147.1460 O   0  0  0  0  0  0  0  0  0  0  0  0
  161.2510  198.4830  145.4100 O   0  0  0  0  0  1  0  0  0  0  0  0
  161.6810  199.5070  146.2500 C   0  0  0  0  0  2  0  0  0  0  0  0
  1  8  1  6  0  0  0
  1 35  1  0  0  0  0
  3  2  1  6  0  0  0
  3  1  1  0  0  0  0
  4  5  1  0  0  0  0
  4  7  1  0  0  0  0
  4  3  1  0  0  0  0
  6  4  1  0  0  0  0
  9  8  1  0  0  0  0
 10  9  1  0  0  0  0
 11 10  1  0  0  0  0
 12 11  1  6  0  0  0
 12 24  1  0  0  0  0
 13 17  1  0  0  0  0
 13 12  1  0  0  0  0
 14 18  1  0  0  0  0
 15 13  2  0  0  0  0
 16 14  1  0  0  0  0
 18 17  2  0  0  0  0
 19 14  2  0  0  0  0
 19 15  1  0  0  0  0
 20 22  2  0  0  0  0
 21 20  2  0  0  0  0
 22 19  1  0  0  0  0
 24 23  1  1  0  0  0
 24 25  1  0  0  0  0
 25 26  1  1  0  0  0
 25 28  1  0  0  0  0
 28 27  2  6  0  0  0
 28 29  1  0  0  0  0
 30 28  1  0  0  0  0
 30 32  1  0  0  0  0
 31 30  1  0  0  0  0
 32 34  1  0  0  0  0
 34 33  1  0  0  0  0
 37 39  1  0  0  0  0
 38 35  1  6  0  0  0
 38 37  1  0  0  0  0
 38 39  1  0  0  0  0
 39 42  1  0  0  0  0
 39 36  1  1  0  0  0
 42 41  1  6  0  0  0
 42 40  1  0  0  0  0
 44 51  1  6  0  0  0
 44 45  1  0  0  0  0
 45 43  1  1  0  0  0
 46 50  1  0  0  0  0
 47 45  1  0  0  0  0
 48 49  1  6  0  0  0
 48 44  1  0  0  0  0
 48 46  1  0  0  0  0
 50 42  1  6  0  0  0
 50 47  1  0  0  0  0
 51 52  1  0  0  0  0
 52 53  1  6  0  0  0
 52 44  1  0  0  0  0
 55 64  1  0  0  0  0
 56 54  1  1  0  0  0
 56 60  1  0  0  0  0
 57 64  1  0  0  0  0
 58 61  1  0  0  0  0
 59 58  1  0  0  0  0
 60 62  1  6  0  0  0
 60 61  1  0  0  0  0
 61 53  1  1  0  0  0
 63 56  1  0  0  0  0
 63 59  1  1  0  0  0
 64 63  1  0  0  0  0
 64 56  1  0  0  0  0
 65 64  1  0  0  0  0
 66 67  1  0  0  0  0
 67 65  1  0  0  0  0
M  END
>  <MODEL>
4

>  <REMARK>
 VINA RESULT:       4.5      4.505     10.577
  Name = 
  23 active torsions:
  status: ('A' for Active; 'I' for Inactive)
    1  A    between atoms: C_4  and  P_37
    2  A    between atoms: C_4  and  C_57
    3  A    between atoms: C_8  and  C_21
    4  A    between atoms: O_10  and  C_49
    5  A    between atoms: O_10  and  P_58
    6  A    between atoms: N_11  and  C_19
    7  A    between atoms: C_19  and  N_43
    8  A    between atoms: C_20  and  C_28
    9  A    between atoms: C_20  and  C_55
   10  A    between atoms: C_21  and  C_57
   11  A    between atoms: C_21  and  N_59
   12  A    between atoms: C_29  and  C_45
   13  A    between atoms: O_34  and  C_40
   14  A    between atoms: O_34  and  C_55
   15  A    between atoms: P_37  and  N_43
   16  A    between atoms: C_41  and  C_61
   17  A    between atoms: C_45  and  C_60
   18  A    between atoms: N_46  and  C_67
   19  A    between atoms: N_47  and  C_50
   20  A    between atoms: N_47  and  C_54
   21  A    between atoms: C_50  and  C_55
   22  A    between atoms: C_54  and  N_59
   23  A    between atoms: C_61  and  C_66
                            x       y       z     vdW  Elec       q    Type
                         _______ _______ _______ _____ _____    ______ ____

>  <TORSDO>
F 23

$$$$
