=
 OpenBabel11072415263D

 25 28  0  0  1  0  0  0  0  0999 V2000
  160.9530  205.8850  153.7290 N   0  0  0  0  0  0  0  0  0  0  0  0
  161.4100  205.8620  150.0360 C   0  0  0  0  0  3  0  0  0  0  0  0
  161.6220  208.4420  151.2040 C   0  0  0  0  0  3  0  0  0  0  0  0
  161.6710  206.9900  149.2380 C   0  0  0  0  0  3  0  0  0  0  0  0
  161.7780  208.2790  149.8160 C   0  0  0  0  0  0  0  0  0  0  0  0
  161.3560  207.3100  151.9740 C   0  0  0  0  0  0  0  0  0  0  0  0
  161.0030  205.1600  152.5000 C   0  0  0  0  0  0  0  0  0  0  0  0
  160.8490  203.9140  152.4080 O   0  0  0  0  0  0  0  0  0  0  0  0
  161.1780  208.1630  154.4110 N   0  0  0  0  0  2  0  0  0  0  0  0
  161.2590  206.0680  151.4040 C   0  0  0  0  0  0  0  0  0  0  0  0
  161.1530  207.1320  153.4190 C   0  0  0  0  0  0  0  0  0  0  0  0
  159.9070  210.1820  153.8350 C   0  0  0  0  0  2  0  0  0  0  0  0
  158.8910  212.2640  155.9760 C   0  0  1  0  0  0  0  0  0  0  0  0
  159.1290  210.4010  155.1400 C   0  0  2  0  0  3  0  0  0  0  0  0
  159.4230  213.4220  155.3970 O   0  0  0  0  0  1  0  0  0  0  0  0
  158.1330  212.6060  157.2610 C   0  0  0  0  0  1  0  0  0  0  0  0
  156.8740  210.9600  155.4350 C   0  0  0  0  0  1  0  0  0  0  0  0
  162.0600  210.2880  155.2290 C   0  0  0  0  0  2  0  0  0  0  0  0
  161.3450  211.5360  155.7420 C   0  0  0  0  0  2  0  0  0  0  0  0
  161.2940  209.5800  154.1000 C   0  0  1  0  0  3  0  0  0  0  0  0
  158.1570  211.4770  154.9620 N   0  0  0  0  0  0  0  0  0  0  0  0
  159.9270  211.1690  156.2030 C   0  0  1  0  0  3  0  0  0  0  0  0
  162.3080  211.7290  148.7720 O   0  0  0  0  0  0  0  0  0  0  0  0
  162.0660  210.7560  149.5320 C   0  0  0  0  0  3  0  0  0  0  0  0
  162.0460  209.4300  149.0100 N   0  0  0  0  0  2  0  0  0  0  0  0
  2 10  1  0  0  0  0
  3  6  1  0  0  0  0
  4  5  1  0  0  0  0
  4  2  2  0  0  0  0
  5  3  2  0  0  0  0
  6 11  1  0  0  0  0
  7  1  1  0  0  0  0
  8  7  2  0  0  0  0
 10  6  2  0  0  0  0
 10  7  1  0  0  0  0
 11  1  2  0  0  0  0
 11  9  1  0  0  0  0
 12 20  1  0  0  0  0
 13 22  1  0  0  0  0
 13 16  1  1  0  0  0
 14 12  1  6  0  0  0
 14 22  1  0  0  0  0
 15 13  1  0  0  0  0
 18 19  1  0  0  0  0
 20  9  1  1  0  0  0
 20 18  1  0  0  0  0
 21 14  1  0  0  0  0
 21 17  1  0  0  0  0
 21 13  1  0  0  0  0
 22 19  1  6  0  0  0
 23 24  2  0  0  0  0
 25 24  1  0  0  0  0
 25  5  1  0  0  0  0
M  END
>  <MODEL>
1

>  <REMARK>
 VINA RESULT:      -7.2      0.000      0.000
  Name = 
  2 active torsions:
  status: ('A' for Active; 'I' for Inactive)
    1  A    between atoms: C_8  and  N_23
    2  A    between atoms: N_17  and  C_19
                            x       y       z     vdW  Elec       q    Type
                         _______ _______ _______ _____ _____    ______ ____

>  <TORSDO>
F 2

$$$$
=
 OpenBabel11072415263D

 25 28  0  0  1  0  0  0  0  0999 V2000
  161.5440  206.2310  145.6060 N   0  0  0  0  0  0  0  0  0  0  0  0
  160.8830  202.5870  145.2430 C   0  0  0  0  0  3  0  0  0  0  0  0
  161.3730  203.4060  147.9180 C   0  0  0  0  0  3  0  0  0  0  0  0
  160.8590  201.6530  146.2930 C   0  0  0  0  0  3  0  0  0  0  0  0
  161.1020  202.0560  147.6300 C   0  0  0  0  0  0  0  0  0  0  0  0
  161.3990  204.3120  146.8590 C   0  0  0  0  0  0  0  0  0  0  0  0
  161.2470  205.1110  144.7710 C   0  0  0  0  0  0  0  0  0  0  0  0
  161.0880  205.1830  143.5240 O   0  0  0  0  0  0  0  0  0  0  0  0
  161.9200  206.6090  147.9330 N   0  0  0  0  0  2  0  0  0  0  0  0
  161.1580  203.9110  145.5720 C   0  0  0  0  0  0  0  0  0  0  0  0
  161.6350  205.7630  146.8150 C   0  0  0  0  0  0  0  0  0  0  0  0
  162.8730  207.1660  150.1260 C   0  0  0  0  0  2  0  0  0  0  0  0
  161.2030  208.4620  152.4670 C   0  0  1  0  0  0  0  0  0  0  0  0
  161.9370  208.3050  150.5530 C   0  0  2  0  0  3  0  0  0  0  0  0
  161.5210  207.5420  153.4720 O   0  0  0  0  0  1  0  0  0  0  0  0
  160.2750  209.5510  153.0100 C   0  0  0  0  0  1  0  0  0  0  0  0
  162.4710  210.3590  151.5430 C   0  0  0  0  0  1  0  0  0  0  0  0
  160.7870  205.6870  149.8920 C   0  0  0  0  0  2  0  0  0  0  0  0
  160.5420  206.2820  151.2760 C   0  0  0  0  0  2  0  0  0  0  0  0
  162.1340  206.1140  149.2860 C   0  0  1  0  0  3  0  0  0  0  0  0
  162.4320  208.9170  151.7840 N   0  0  0  0  0  0  0  0  0  0  0  0
  160.6390  207.8130  151.2080 C   0  0  1  0  0  3  0  0  0  0  0  0
  160.8060  200.6000  150.9560 O   0  0  0  0  0  0  0  0  0  0  0  0
  160.8150  201.4780  150.0550 C   0  0  0  0  0  3  0  0  0  0  0  0
  161.0770  201.1110  148.7030 N   0  0  0  0  0  2  0  0  0  0  0  0
  1 11  2  0  0  0  0
  2 10  2  0  0  0  0
  2  4  1  0  0  0  0
  4  5  2  0  0  0  0
  5  3  1  0  0  0  0
  5 25  1  0  0  0  0
  6  3  2  0  0  0  0
  7 10  1  0  0  0  0
  7  1  1  0  0  0  0
  8  7  2  0  0  0  0
 10  6  1  0  0  0  0
 11  6  1  0  0  0  0
 11  9  1  0  0  0  0
 13 16  1  1  0  0  0
 13 15  1  0  0  0  0
 14 12  1  1  0  0  0
 14 22  1  0  0  0  0
 14 21  1  0  0  0  0
 17 21  1  0  0  0  0
 18 19  1  0  0  0  0
 20  9  1  6  0  0  0
 20 18  1  0  0  0  0
 20 12  1  0  0  0  0
 21 13  1  0  0  0  0
 22 19  1  1  0  0  0
 22 13  1  0  0  0  0
 24 23  2  0  0  0  0
 25 24  1  0  0  0  0
M  END
>  <MODEL>
2

>  <REMARK>
 VINA RESULT:      -6.8      3.917      7.037
  Name = 
  2 active torsions:
  status: ('A' for Active; 'I' for Inactive)
    1  A    between atoms: C_8  and  N_23
    2  A    between atoms: N_17  and  C_19
                            x       y       z     vdW  Elec       q    Type
                         _______ _______ _______ _____ _____    ______ ____

>  <TORSDO>
F 2

$$$$
=
 OpenBabel11072415263D

 25 28  0  0  1  0  0  0  0  0999 V2000
  160.4410  206.9290  155.2260 N   0  0  0  0  0  0  0  0  0  0  0  0
  160.5800  210.5430  154.3490 C   0  0  0  0  0  3  0  0  0  0  0  0
  161.3940  208.8180  152.2450 C   0  0  0  0  0  3  0  0  0  0  0  0
  160.9830  211.0680  153.1090 C   0  0  0  0  0  3  0  0  0  0  0  0
  161.3900  210.2120  152.0550 C   0  0  0  0  0  0  0  0  0  0  0  0
  160.9970  208.3220  153.4860 C   0  0  0  0  0  0  0  0  0  0  0  0
  160.2500  208.2940  155.5990 C   0  0  0  0  0  0  0  0  0  0  0  0
  159.8320  208.6660  156.7270 O   0  0  0  0  0  0  0  0  0  0  0  0
  161.1780  205.7470  153.2860 N   0  0  0  0  0  2  0  0  0  0  0  0
  160.6030  209.1590  154.4950 C   0  0  0  0  0  0  0  0  0  0  0  0
  160.8790  206.9490  154.0010 C   0  0  0  0  0  0  0  0  0  0  0  0
  162.2960  204.3220  151.6290 C   0  0  0  0  0  2  0  0  0  0  0  0
  160.7600  202.7800  149.3460 C   0  0  1  0  0  0  0  0  0  0  0  0
  161.1540  203.3570  151.2800 C   0  0  2  0  0  3  0  0  0  0  0  0
  161.5110  203.2350  148.2570 O   0  0  0  0  0  1  0  0  0  0  0  0
  159.6610  201.8220  148.8780 C   0  0  0  0  0  1  0  0  0  0  0  0
  161.2190  201.0310  151.0170 C   0  0  0  0  0  1  0  0  0  0  0  0
  160.7390  206.2410  150.9340 C   0  0  0  0  0  2  0  0  0  0  0  0
  160.5780  205.3140  149.7320 C   0  0  0  0  0  2  0  0  0  0  0  0
  161.7670  205.7260  151.9550 C   0  0  1  0  0  3  0  0  0  0  0  0
  161.6550  202.2900  150.4160 N   0  0  0  0  0  0  0  0  0  0  0  0
  160.2000  203.9050  150.2090 C   0  0  1  0  0  3  0  0  0  0  0  0
  162.3250  210.4540  148.5430 O   0  0  0  0  0  0  0  0  0  0  0  0
  161.9630  209.9310  149.6290 C   0  0  0  0  0  3  0  0  0  0  0  0
  161.7980  210.7400  150.7910 N   0  0  0  0  0  2  0  0  0  0  0  0
  1  7  1  0  0  0  0
  2 10  1  0  0  0  0
  3  6  1  0  0  0  0
  4  2  2  0  0  0  0
  5  3  2  0  0  0  0
  5  4  1  0  0  0  0
  6 11  1  0  0  0  0
  6 10  2  0  0  0  0
  7  8  2  0  0  0  0
  9 11  1  0  0  0  0
 10  7  1  0  0  0  0
 11  1  2  0  0  0  0
 12 20  1  0  0  0  0
 13 16  1  6  0  0  0
 13 22  1  0  0  0  0
 13 21  1  0  0  0  0
 14 12  1  6  0  0  0
 15 13  1  0  0  0  0
 18 20  1  0  0  0  0
 19 18  1  0  0  0  0
 20  9  1  1  0  0  0
 21 17  1  0  0  0  0
 21 14  1  0  0  0  0
 22 19  1  6  0  0  0
 22 14  1  0  0  0  0
 23 24  2  0  0  0  0
 24 25  1  0  0  0  0
 25  5  1  0  0  0  0
M  END
>  <MODEL>
3

>  <REMARK>
 VINA RESULT:      -6.3      2.526      7.102
  Name = 
  2 active torsions:
  status: ('A' for Active; 'I' for Inactive)
    1  A    between atoms: C_8  and  N_23
    2  A    between atoms: N_17  and  C_19
                            x       y       z     vdW  Elec       q    Type
                         _______ _______ _______ _____ _____    ______ ____

>  <TORSDO>
F 2

$$$$
=
 OpenBabel11072415263D

 25 28  0  0  1  0  0  0  0  0999 V2000
  161.4440  204.3990  152.7070 N   0  0  0  0  0  0  0  0  0  0  0  0
  161.1050  203.3150  149.1630 C   0  0  0  0  0  3  0  0  0  0  0  0
  161.0030  206.1310  149.5190 C   0  0  0  0  0  3  0  0  0  0  0  0
  160.9450  204.1710  148.0590 C   0  0  0  0  0  3  0  0  0  0  0  0
  160.8940  205.5770  148.2310 C   0  0  0  0  0  0  0  0  0  0  0  0
  161.1540  205.2620  150.5990 C   0  0  0  0  0  0  0  0  0  0  0  0
  161.3870  203.3490  151.7410 C   0  0  0  0  0  0  0  0  0  0  0  0
  161.4860  202.1250  152.0220 O   0  0  0  0  0  0  0  0  0  0  0  0
  161.3160  206.7840  152.6870 N   0  0  0  0  0  2  0  0  0  0  0  0
  161.2060  203.9060  150.4190 C   0  0  0  0  0  0  0  0  0  0  0  0
  161.3030  205.5070  152.0410 C   0  0  0  0  0  0  0  0  0  0  0  0
  159.8490  208.7510  152.6190 C   0  0  0  0  0  2  0  0  0  0  0  0
  160.4790  211.4400  154.1420 C   0  0  1  0  0  0  0  0  0  0  0  0
  160.2100  209.4100  153.9570 C   0  0  2  0  0  3  0  0  0  0  0  0
  160.3450  212.3180  153.0600 O   0  0  0  0  0  1  0  0  0  0  0  0
  160.8290  212.2100  155.4170 C   0  0  0  0  0  1  0  0  0  0  0  0
  158.7910  210.3520  155.5660 C   0  0  0  0  0  1  0  0  0  0  0  0
  162.3370  208.8950  152.0030 C   0  0  0  0  0  2  0  0  0  0  0  0
  162.0940  210.3240  152.4840 C   0  0  0  0  0  2  0  0  0  0  0  0
  161.0590  208.0400  151.9970 C   0  0  1  0  0  3  0  0  0  0  0  0
  159.3120  210.5350  154.2120 N   0  0  0  0  0  0  0  0  0  0  0  0
  161.4570  210.3010  153.8800 C   0  0  1  0  0  3  0  0  0  0  0  0
  160.4420  206.8020  144.8300 O   0  0  0  0  0  0  0  0  0  0  0  0
  160.5800  205.9820  145.7740 C   0  0  0  0  0  3  0  0  0  0  0  0
  160.7340  206.4520  147.1110 N   0  0  0  0  0  2  0  0  0  0  0  0
  2 10  1  0  0  0  0
  3  6  1  0  0  0  0
  4  5  1  0  0  0  0
  4  2  2  0  0  0  0
  5  3  2  0  0  0  0
  6 11  1  0  0  0  0
  7  8  2  0  0  0  0
  7  1  1  0  0  0  0
 10  6  2  0  0  0  0
 10  7  1  0  0  0  0
 11  9  1  0  0  0  0
 11  1  2  0  0  0  0
 13 21  1  0  0  0  0
 13 16  1  1  0  0  0
 14 12  1  6  0  0  0
 14 21  1  0  0  0  0
 15 13  1  0  0  0  0
 18 19  1  0  0  0  0
 20 18  1  0  0  0  0
 20 12  1  0  0  0  0
 20  9  1  1  0  0  0
 21 17  1  0  0  0  0
 22 19  1  6  0  0  0
 22 14  1  0  0  0  0
 22 13  1  0  0  0  0
 23 24  2  0  0  0  0
 24 25  1  0  0  0  0
 25  5  1  0  0  0  0
M  END
>  <MODEL>
4

>  <REMARK>
 VINA RESULT:      -6.2      2.303      3.129
  Name = 
  2 active torsions:
  status: ('A' for Active; 'I' for Inactive)
    1  A    between atoms: C_8  and  N_23
    2  A    between atoms: N_17  and  C_19
                            x       y       z     vdW  Elec       q    Type
                         _______ _______ _______ _____ _____    ______ ____

>  <TORSDO>
F 2

$$$$
=
 OpenBabel11072415263D

 25 28  0  0  1  0  0  0  0  0999 V2000
  161.2000  203.0450  151.3520 N   0  0  0  0  0  0  0  0  0  0  0  0
  161.1700  202.2220  147.7230 C   0  0  0  0  0  3  0  0  0  0  0  0
  161.2400  205.0080  148.2690 C   0  0  0  0  0  3  0  0  0  0  0  0
  161.1960  203.1560  146.6730 C   0  0  0  0  0  3  0  0  0  0  0  0
  161.2320  204.5480  146.9400 C   0  0  0  0  0  0  0  0  0  0  0  0
  161.2070  204.0620  149.2930 C   0  0  0  0  0  0  0  0  0  0  0  0
  161.1710  202.0660  150.3120 C   0  0  0  0  0  0  0  0  0  0  0  0
  161.1470  200.8240  150.5130 O   0  0  0  0  0  0  0  0  0  0  0  0
  161.2530  205.4280  151.4920 N   0  0  0  0  0  2  0  0  0  0  0  0
  161.1770  202.7200  149.0220 C   0  0  0  0  0  0  0  0  0  0  0  0
  161.2160  204.2010  150.7570 C   0  0  0  0  0  0  0  0  0  0  0  0
  160.2190  207.6470  151.6710 C   0  0  0  0  0  2  0  0  0  0  0  0
  161.5750  210.0810  153.1490 C   0  0  1  0  0  0  0  0  0  0  0  0
  160.8790  208.1560  152.9600 C   0  0  2  0  0  3  0  0  0  0  0  0
  161.4810  211.0200  152.1160 O   0  0  0  0  0  1  0  0  0  0  0  0
  162.2390  210.7020  154.3800 C   0  0  0  0  0  1  0  0  0  0  0  0
  159.9050  209.2790  154.7700 C   0  0  0  0  0  1  0  0  0  0  0  0
  162.5810  207.3270  150.7190 C   0  0  0  0  0  2  0  0  0  0  0  0
  162.6990  208.7500  151.2590 C   0  0  0  0  0  2  0  0  0  0  0  0
  161.1670  206.7420  150.8720 C   0  0  1  0  0  3  0  0  0  0  0  0
  160.2690  209.4220  153.3610 N   0  0  0  0  0  0  0  0  0  0  0  0
  162.2600  208.7850  152.7300 C   0  0  1  0  0  3  0  0  0  0  0  0
  161.2080  206.0240  143.6100 O   0  0  0  0  0  0  0  0  0  0  0  0
  161.1780  205.1370  144.5010 C   0  0  0  0  0  3  0  0  0  0  0  0
  161.2600  205.5030  145.8760 N   0  0  0  0  0  2  0  0  0  0  0  0
  2 10  1  0  0  0  0
  3  6  1  0  0  0  0
  4  5  1  0  0  0  0
  4  2  2  0  0  0  0
  5  3  2  0  0  0  0
  6 11  1  0  0  0  0
  7  8  2  0  0  0  0
  7  1  1  0  0  0  0
 10  6  2  0  0  0  0
 10  7  1  0  0  0  0
 11  1  2  0  0  0  0
 11  9  1  0  0  0  0
 13 21  1  0  0  0  0
 13 16  1  1  0  0  0
 14 12  1  6  0  0  0
 14 21  1  0  0  0  0
 15 13  1  0  0  0  0
 18 20  1  0  0  0  0
 18 19  1  0  0  0  0
 20  9  1  1  0  0  0
 20 12  1  0  0  0  0
 21 17  1  0  0  0  0
 22 19  1  6  0  0  0
 22 14  1  0  0  0  0
 22 13  1  0  0  0  0
 23 24  2  0  0  0  0
 24 25  1  0  0  0  0
 25  5  1  0  0  0  0
M  END
>  <MODEL>
5

>  <REMARK>
 VINA RESULT:      -6.2      3.222      4.703
  Name = 
  2 active torsions:
  status: ('A' for Active; 'I' for Inactive)
    1  A    between atoms: C_8  and  N_23
    2  A    between atoms: N_17  and  C_19
                            x       y       z     vdW  Elec       q    Type
                         _______ _______ _______ _____ _____    ______ ____

>  <TORSDO>
F 2

$$$$
=
 OpenBabel11072415263D

 25 28  0  0  1  0  0  0  0  0999 V2000
  160.9420  205.7070  152.0150 N   0  0  0  0  0  0  0  0  0  0  0  0
  161.4140  209.3140  152.8040 C   0  0  0  0  0  3  0  0  0  0  0  0
  161.9220  208.6550  150.0880 C   0  0  0  0  0  3  0  0  0  0  0  0
  161.8010  210.3060  151.8870 C   0  0  0  0  0  3  0  0  0  0  0  0
  162.0550  209.9840  150.5300 C   0  0  0  0  0  0  0  0  0  0  0  0
  161.5450  207.6870  151.0180 C   0  0  0  0  0  0  0  0  0  0  0  0
  160.9180  206.7730  152.9660 C   0  0  0  0  0  0  0  0  0  0  0  0
  160.6060  206.6310  154.1770 O   0  0  0  0  0  0  0  0  0  0  0  0
  161.4410  205.4660  149.6920 N   0  0  0  0  0  2  0  0  0  0  0  0
  161.2980  208.0120  152.3250 C   0  0  0  0  0  0  0  0  0  0  0  0
  161.3100  206.2410  150.8870 C   0  0  0  0  0  0  0  0  0  0  0  0
  162.4190  204.8560  147.5250 C   0  0  0  0  0  2  0  0  0  0  0  0
  160.7090  204.4000  144.9140 C   0  0  1  0  0  0  0  0  0  0  0  0
  161.2330  204.1240  146.8830 C   0  0  2  0  0  3  0  0  0  0  0  0
  161.4070  205.2660  144.0640 O   0  0  0  0  0  1  0  0  0  0  0  0
  159.5590  203.7230  144.1640 C   0  0  0  0  0  1  0  0  0  0  0  0
  161.2190  202.1160  145.6760 C   0  0  0  0  0  1  0  0  0  0  0  0
  160.8770  206.8910  147.7900 C   0  0  0  0  0  2  0  0  0  0  0  0
  160.6190  206.5470  146.3250 C   0  0  0  0  0  2  0  0  0  0  0  0
  161.9490  205.9980  148.4360 C   0  0  1  0  0  3  0  0  0  0  0  0
  161.6530  203.5110  145.6240 N   0  0  0  0  0  0  0  0  0  0  0  0
  160.2330  205.0660  146.1990 C   0  0  1  0  0  3  0  0  0  0  0  0
  162.1690  212.0970  147.5650 O   0  0  0  0  0  0  0  0  0  0  0  0
  161.7780  211.1940  148.3500 C   0  0  0  0  0  3  0  0  0  0  0  0
  162.4460  210.9900  149.5920 N   0  0  0  0  0  2  0  0  0  0  0  0
  1  7  1  0  0  0  0
  3  5  2  0  0  0  0
  3  6  1  0  0  0  0
  4  2  2  0  0  0  0
  5  4  1  0  0  0  0
  6 10  2  0  0  0  0
  7  8  2  0  0  0  0
  9 11  1  0  0  0  0
 10  2  1  0  0  0  0
 10  7  1  0  0  0  0
 11  6  1  0  0  0  0
 11  1  2  0  0  0  0
 12 20  1  0  0  0  0
 13 16  1  6  0  0  0
 13 21  1  0  0  0  0
 13 22  1  0  0  0  0
 14 12  1  6  0  0  0
 15 13  1  0  0  0  0
 18 20  1  0  0  0  0
 19 18  1  0  0  0  0
 20  9  1  1  0  0  0
 21 17  1  0  0  0  0
 21 14  1  0  0  0  0
 22 19  1  6  0  0  0
 22 14  1  0  0  0  0
 23 24  2  0  0  0  0
 24 25  1  0  0  0  0
 25  5  1  0  0  0  0
M  END
>  <MODEL>
6

>  <REMARK>
 VINA RESULT:      -6.0      3.508      8.132
  Name = 
  2 active torsions:
  status: ('A' for Active; 'I' for Inactive)
    1  A    between atoms: C_8  and  N_23
    2  A    between atoms: N_17  and  C_19
                            x       y       z     vdW  Elec       q    Type
                         _______ _______ _______ _____ _____    ______ ____

>  <TORSDO>
F 2

$$$$
=
 OpenBabel11072415263D

 25 28  0  0  1  0  0  0  0  0999 V2000
  162.0060  208.7140  149.5060 N   0  0  0  0  0  0  0  0  0  0  0  0
  161.3670  210.4440  152.7380 C   0  0  0  0  0  3  0  0  0  0  0  0
  160.7860  207.6650  152.7880 C   0  0  0  0  0  3  0  0  0  0  0  0
  160.8890  209.8340  153.9110 C   0  0  0  0  0  3  0  0  0  0  0  0
  160.5980  208.4470  153.9410 C   0  0  0  0  0  0  0  0  0  0  0  0
  161.2540  208.2940  151.6350 C   0  0  0  0  0  0  0  0  0  0  0  0
  162.0100  209.9130  150.2820 C   0  0  0  0  0  0  0  0  0  0  0  0
  162.3800  211.0350  149.8460 O   0  0  0  0  0  0  0  0  0  0  0  0
  161.4270  206.4230  149.8540 N   0  0  0  0  0  2  0  0  0  0  0  0
  161.5360  209.6340  151.6190 C   0  0  0  0  0  0  0  0  0  0  0  0
  161.5630  207.7780  150.2930 C   0  0  0  0  0  0  0  0  0  0  0  0
  159.9740  204.4460  149.7930 C   0  0  0  0  0  2  0  0  0  0  0  0
  161.0550  201.5070  149.4210 C   0  0  1  0  0  0  0  0  0  0  0  0
  160.8350  203.4960  148.9500 C   0  0  2  0  0  3  0  0  0  0  0  0
  160.4310  200.9220  150.5290 O   0  0  0  0  0  1  0  0  0  0  0  0
  161.8750  200.4650  148.6560 C   0  0  0  0  0  1  0  0  0  0  0  0
  160.1890  202.0900  147.1920 C   0  0  0  0  0  1  0  0  0  0  0  0
  161.9530  204.6230  151.4180 C   0  0  0  0  0  2  0  0  0  0  0  0
  161.8670  203.1060  151.2620 C   0  0  0  0  0  2  0  0  0  0  0  0
  160.8390  205.3670  150.6650 C   0  0  1  0  0  3  0  0  0  0  0  0
  160.0760  202.2880  148.6360 N   0  0  0  0  0  0  0  0  0  0  0  0
  161.8850  202.7360  149.7720 C   0  0  1  0  0  3  0  0  0  0  0  0
  160.4670  206.9530  157.2610 O   0  0  0  0  0  0  0  0  0  0  0  0
  160.9530  207.5050  156.2400 C   0  0  0  0  0  3  0  0  0  0  0  0
  160.1130  207.8210  155.1320 N   0  0  0  0  0  2  0  0  0  0  0  0
  1  7  1  0  0  0  0
  1 11  2  0  0  0  0
  2  4  1  0  0  0  0
  3  5  1  0  0  0  0
  4  5  2  0  0  0  0
  5 25  1  0  0  0  0
  6  3  2  0  0  0  0
  7 10  1  0  0  0  0
  8  7  2  0  0  0  0
  9 11  1  0  0  0  0
 10  6  1  0  0  0  0
 10  2  2  0  0  0  0
 11  6  1  0  0  0  0
 12 20  1  0  0  0  0
 13 16  1  6  0  0  0
 13 22  1  0  0  0  0
 13 15  1  0  0  0  0
 14 22  1  0  0  0  0
 14 12  1  1  0  0  0
 17 21  1  0  0  0  0
 19 18  1  0  0  0  0
 20  9  1  6  0  0  0
 20 18  1  0  0  0  0
 21 14  1  0  0  0  0
 21 13  1  0  0  0  0
 22 19  1  1  0  0  0
 24 23  2  0  0  0  0
 25 24  1  0  0  0  0
M  END
>  <MODEL>
7

>  <REMARK>
 VINA RESULT:      -5.7      2.984      8.321
  Name = 
  2 active torsions:
  status: ('A' for Active; 'I' for Inactive)
    1  A    between atoms: C_8  and  N_23
    2  A    between atoms: N_17  and  C_19
                            x       y       z     vdW  Elec       q    Type
                         _______ _______ _______ _____ _____    ______ ____

>  <TORSDO>
F 2

$$$$
=
 OpenBabel11072415263D

 25 28  0  0  1  0  0  0  0  0999 V2000
  162.5790  210.4900  148.6010 N   0  0  0  0  0  0  0  0  0  0  0  0
  160.8260  213.4370  150.0480 C   0  0  0  0  0  3  0  0  0  0  0  0
  160.3790  211.0200  151.4710 C   0  0  0  0  0  3  0  0  0  0  0  0
  160.0100  213.4210  151.1930 C   0  0  0  0  0  3  0  0  0  0  0  0
  159.7840  212.2180  151.9070 C   0  0  0  0  0  0  0  0  0  0  0  0
  161.1780  211.0590  150.3290 C   0  0  0  0  0  0  0  0  0  0  0  0
  162.2730  211.8840  148.5570 C   0  0  0  0  0  0  0  0  0  0  0  0
  162.7190  212.6780  147.6870 O   0  0  0  0  0  0  0  0  0  0  0  0
  162.0140  208.6330  149.9920 N   0  0  0  0  0  2  0  0  0  0  0  0
  161.3920  212.2290  149.6500 C   0  0  0  0  0  0  0  0  0  0  0  0
  161.9380  210.0140  149.6280 C   0  0  0  0  0  0  0  0  0  0  0  0
  160.4170  206.8500  150.5380 C   0  0  0  0  0  2  0  0  0  0  0  0
  161.2810  204.0120  151.6090 C   0  0  1  0  0  0  0  0  0  0  0  0
  161.2980  205.6130  150.3190 C   0  0  2  0  0  3  0  0  0  0  0  0
  160.4660  203.9710  152.7460 O   0  0  0  0  0  1  0  0  0  0  0  0
  162.1040  202.7270  151.4910 C   0  0  0  0  0  1  0  0  0  0  0  0
  160.7750  203.6040  149.2350 C   0  0  0  0  0  1  0  0  0  0  0  0
  162.1690  207.6640  152.2290 C   0  0  0  0  0  2  0  0  0  0  0  0
  161.9740  206.2290  152.7110 C   0  0  0  0  0  2  0  0  0  0  0  0
  161.2330  208.0380  151.0670 C   0  0  1  0  0  3  0  0  0  0  0  0
  160.4870  204.4030  150.4250 N   0  0  0  0  0  0  0  0  0  0  0  0
  162.1600  205.2560  151.5380 C   0  0  1  0  0  3  0  0  0  0  0  0
  158.2540  211.1870  155.0480 O   0  0  0  0  0  0  0  0  0  0  0  0
  159.0070  211.1500  154.0410 C   0  0  0  0  0  3  0  0  0  0  0  0
  158.9560  212.1960  153.0730 N   0  0  0  0  0  2  0  0  0  0  0  0
  1 11  2  0  0  0  0
  2  4  1  0  0  0  0
  3  5  1  0  0  0  0
  4  5  2  0  0  0  0
  5 25  1  0  0  0  0
  6  3  2  0  0  0  0
  7  1  1  0  0  0  0
  7 10  1  0  0  0  0
  8  7  2  0  0  0  0
 10  2  2  0  0  0  0
 10  6  1  0  0  0  0
 11  9  1  0  0  0  0
 11  6  1  0  0  0  0
 12 20  1  0  0  0  0
 13 16  1  6  0  0  0
 13 15  1  0  0  0  0
 14 21  1  0  0  0  0
 14 12  1  1  0  0  0
 14 22  1  0  0  0  0
 17 21  1  0  0  0  0
 18 19  1  0  0  0  0
 20  9  1  6  0  0  0
 20 18  1  0  0  0  0
 21 13  1  0  0  0  0
 22 13  1  0  0  0  0
 22 19  1  1  0  0  0
 24 23  2  0  0  0  0
 25 24  1  0  0  0  0
M  END
>  <MODEL>
8

>  <REMARK>
 VINA RESULT:      -4.7      2.219      7.197
  Name = 
  2 active torsions:
  status: ('A' for Active; 'I' for Inactive)
    1  A    between atoms: C_8  and  N_23
    2  A    between atoms: N_17  and  C_19
                            x       y       z     vdW  Elec       q    Type
                         _______ _______ _______ _____ _____    ______ ____

>  <TORSDO>
F 2

$$$$
=
 OpenBabel11072415263D

 25 28  0  0  1  0  0  0  0  0999 V2000
  162.7030  210.3220  155.8010 N   0  0  0  0  0  0  0  0  0  0  0  0
  159.7080  212.3350  156.7100 C   0  0  0  0  0  3  0  0  0  0  0  0
  159.1530  210.1820  154.9440 C   0  0  0  0  0  3  0  0  0  0  0  0
  158.3970  212.0990  156.2600 C   0  0  0  0  0  3  0  0  0  0  0  0
  158.1140  211.0250  155.3790 C   0  0  0  0  0  0  0  0  0  0  0  0
  160.4450  210.4400  155.3980 C   0  0  0  0  0  0  0  0  0  0  0  0
  162.1260  211.4160  156.5140 C   0  0  0  0  0  0  0  0  0  0  0  0
  162.7770  212.1960  157.2580 O   0  0  0  0  0  0  0  0  0  0  0  0
  161.9300  208.6140  154.3220 N   0  0  0  0  0  2  0  0  0  0  0  0
  160.7050  211.4780  156.2530 C   0  0  0  0  0  0  0  0  0  0  0  0
  161.7260  209.7610  155.1510 C   0  0  0  0  0  0  0  0  0  0  0  0
  160.7090  208.8250  152.2030 C   0  0  0  0  0  2  0  0  0  0  0  0
  161.5720  207.3580  149.5470 C   0  0  1  0  0  0  0  0  0  0  0  0
  161.8400  208.5460  151.2040 C   0  0  2  0  0  3  0  0  0  0  0  0
  160.3480  206.7470  149.2500 O   0  0  0  0  0  1  0  0  0  0  0  0
  162.6150  207.0160  148.4810 C   0  0  0  0  0  1  0  0  0  0  0  0
  162.3560  209.6670  149.2120 C   0  0  0  0  0  1  0  0  0  0  0  0
  161.2190  206.5370  153.2500 C   0  0  0  0  0  2  0  0  0  0  0  0
  161.1450  206.1490  151.7750 C   0  0  0  0  0  2  0  0  0  0  0  0
  160.8890  208.0190  153.4970 C   0  0  1  0  0  3  0  0  0  0  0  0
  161.3680  208.7920  149.8420 N   0  0  0  0  0  0  0  0  0  0  0  0
  162.0760  207.0510  150.9530 C   0  0  1  0  0  3  0  0  0  0  0  0
  154.5830  210.1330  155.3130 O   0  0  0  0  0  0  0  0  0  0  0  0
  155.7360  210.3320  155.7770 C   0  0  0  0  0  3  0  0  0  0  0  0
  156.7830  210.7780  154.9190 N   0  0  0  0  0  2  0  0  0  0  0  0
  1  7  1  0  0  0  0
  3  5  1  0  0  0  0
  3  6  2  0  0  0  0
  4  2  1  0  0  0  0
  5  4  2  0  0  0  0
  6 10  1  0  0  0  0
  7  8  2  0  0  0  0
  9 11  1  0  0  0  0
 10  7  1  0  0  0  0
 10  2  2  0  0  0  0
 11  6  1  0  0  0  0
 11  1  2  0  0  0  0
 12 20  1  0  0  0  0
 13 16  1  6  0  0  0
 13 21  1  0  0  0  0
 13 22  1  0  0  0  0
 14 12  1  1  0  0  0
 15 13  1  0  0  0  0
 17 21  1  0  0  0  0
 18 20  1  0  0  0  0
 19 18  1  0  0  0  0
 20  9  1  6  0  0  0
 21 14  1  0  0  0  0
 22 14  1  0  0  0  0
 22 19  1  1  0  0  0
 23 24  2  0  0  0  0
 25  5  1  0  0  0  0
 25 24  1  0  0  0  0
M  END
>  <MODEL>
9

>  <REMARK>
 VINA RESULT:      -4.6      1.992      7.240
  Name = 
  2 active torsions:
  status: ('A' for Active; 'I' for Inactive)
    1  A    between atoms: C_8  and  N_23
    2  A    between atoms: N_17  and  C_19
                            x       y       z     vdW  Elec       q    Type
                         _______ _______ _______ _____ _____    ______ ____

>  <TORSDO>
F 2

$$$$
