=
 OpenBabel11072410583D

 42 46  0  0  1  0  0  0  0  0999 V2000
  162.6140  204.9890  148.2000 F   0  0  0  0  0  0  0  0  0  0  0  0
  163.4690  206.5770  149.4970 F   0  0  0  0  0  0  0  0  0  0  0  0
  161.7460  207.1850  147.9820 C   0  0  1  0  0  3  0  0  0  0  0  0
  162.2820  206.1140  148.9460 C   0  0  0  0  0  0  0  0  0  0  0  0
  161.8330  208.5820  148.5530 C   0  0  0  0  0  0  0  0  0  0  0  0
  161.3790  210.3800  149.9280 N   0  0  0  0  0  2  0  0  0  0  0  0
  161.2860  208.9840  149.7030 C   0  0  0  0  0  0  0  0  0  0  0  0
  160.0810  206.7730  150.1660 C   0  0  0  0  0  2  0  0  0  0  0  0
  160.5550  208.1200  150.7090 C   0  0  1  0  0  3  0  0  0  0  0  0
  162.3930  206.8940  152.0120 C   0  0  0  0  0  2  0  0  0  0  0  0
  161.2240  205.7370  150.0530 C   0  0  2  0  0  0  0  0  0  0  0  0
  162.6150  209.9050  147.6290 S   0  0  0  0  0  0  0  0  0  0  0  0
  162.0800  211.1180  148.8910 C   0  0  1  0  0  3  0  0  0  0  0  0
  161.8940  205.5690  151.4340 C   0  0  0  0  0  2  0  0  0  0  0  0
  161.2630  207.9180  152.0630 C   0  0  1  0  0  3  0  0  0  0  0  0
  162.4090  207.1180  146.7670 F   0  0  0  0  0  0  0  0  0  0  0  0
  161.1630  212.1790  148.2750 C   0  0  1  0  0  3  0  0  0  0  0  0
  160.5980  213.6120  150.2730 C   0  0  0  0  0  0  0  0  0  0  0  0
  160.0750  212.6020  149.2780 C   0  0  1  0  0  3  0  0  0  0  0  0
  161.5290  214.4530  149.9250 N   0  0  0  0  0  0  0  0  0  0  0  0
  160.0380  213.6910  151.5830 N   0  0  0  0  0  0  0  0  0  0  0  0
  162.1530  214.4140  148.6340 C   0  0  0  0  0  3  0  0  0  0  0  0
  161.9680  213.3710  147.8210 C   0  0  0  0  0  3  0  0  0  0  0  0
  158.8710  213.1670  148.5430 C   0  0  0  0  0  1  0  0  0  0  0  0
  157.3920  211.4370  155.0580 C   0  0  0  0  0  0  0  0  0  0  0  0
  157.7120  211.6470  153.7750 C   0  0  0  0  0  3  0  0  0  0  0  0
  159.7740  213.8240  156.5230 O   0  0  0  0  0  0  0  0  0  0  0  0
  159.1240  213.1430  155.6890 C   0  0  0  0  0  0  0  0  0  0  0  0
  158.7510  212.6140  153.3880 C   0  0  0  0  0  0  0  0  0  0  0  0
  159.3920  213.2950  154.2910 N   0  0  0  0  0  0  0  0  0  0  0  0
  159.0510  212.7910  152.0060 N   0  0  0  0  0  0  0  0  0  0  0  0
  158.0750  212.1840  156.1750 C   0  0  0  0  0  2  0  0  0  0  0  0
  156.4040  210.5110  155.3950 O   0  0  0  0  0  0  0  0  0  0  0  0
  155.2700  210.4070  154.6870 O   0  0  0  0  0  1  0  0  0  0  0  0
  160.7850  209.4090  154.0730 C   0  0  0  0  0  1  0  0  0  0  0  0
  161.6200  209.2020  152.8180 C   0  0  0  0  0  2  0  0  0  0  0  0
  160.5620  204.4000  149.6960 C   0  0  0  0  0  2  0  0  0  0  0  0
  161.2440  203.3170  150.2610 O   0  0  0  0  0  0  0  0  0  0  0  0
  161.5360  200.7550  149.8320 O   0  0  0  0  0  1  0  0  0  0  0  0
  159.1430  201.7180  149.4180 O   0  0  0  0  0  1  0  0  0  0  0  0
  161.2470  202.2450  147.7040 O   0  0  0  0  0  0  0  0  0  0  0  0
  160.8120  201.9780  149.3180 P   0  0  0  0  0  0  0  0  0  0  0  0
  1  4  1  0  0  0  0
  3 16  1  6  0  0  0
  3  5  1  0  0  0  0
  3  4  1  0  0  0  0
  4  2  1  0  0  0  0
  4 11  1  0  0  0  0
  5  7  2  0  0  0  0
  7  6  1  0  0  0  0
  7  9  1  0  0  0  0
  9  8  1  6  0  0  0
  9 15  1  0  0  0  0
 10 15  1  0  0  0  0
 11 37  1  6  0  0  0
 11  8  1  0  0  0  0
 11 14  1  0  0  0  0
 12  5  1  0  0  0  0
 13 12  1  6  0  0  0
 13  6  1  0  0  0  0
 14 10  1  0  0  0  0
 15 36  1  6  0  0  0
 17 23  1  1  0  0  0
 17 13  1  0  0  0  0
 17 19  1  0  0  0  0
 18 21  1  0  0  0  0
 19 24  1  6  0  0  0
 19 18  1  0  0  0  0
 20 18  2  0  0  0  0
 21 31  2  0  0  0  0
 22 20  1  0  0  0  0
 23 22  2  0  0  0  0
 25 33  1  0  0  0  0
 25 32  1  0  0  0  0
 26 25  2  0  0  0  0
 28 32  1  0  0  0  0
 28 27  2  0  0  0  0
 29 26  1  0  0  0  0
 29 30  2  0  0  0  0
 30 28  1  0  0  0  0
 31 29  1  0  0  0  0
 34 33  1  0  0  0  0
 36 35  1  0  0  0  0
 37 38  1  0  0  0  0
 41 42  2  0  0  0  0
 42 40  1  0  0  0  0
 42 39  1  0  0  0  0
 42 38  1  0  0  0  0
M  END
>  <MODEL>
1

>  <REMARK>
 VINA RESULT:      -1.8      0.000      0.000
  Name = 
  7 active torsions:
  status: ('A' for Active; 'I' for Inactive)
    1  A    between atoms: O_2  and  C_10
    2  A    between atoms: C_4  and  C_37
    3  A    between atoms: C_9  and  C_30
    4  A    between atoms: C_9  and  O_34
    5  A    between atoms: N_26  and  N_32
    6  A    between atoms: O_34  and  P_42
    7  A    between atoms: C_35  and  C_40
                            x       y       z     vdW  Elec       q    Type
                         _______ _______ _______ _____ _____    ______ ____

>  <TORSDO>
F 7

$$$$
=
 OpenBabel11072410583D

 42 46  0  0  1  0  0  0  0  0999 V2000
  160.2540  202.6740  150.8190 F   0  0  0  0  0  0  0  0  0  0  0  0
  159.3300  204.6930  150.7590 F   0  0  0  0  0  0  0  0  0  0  0  0
  161.2000  204.3670  152.1830 C   0  0  1  0  0  3  0  0  0  0  0  0
  160.5480  204.0320  150.8320 C   0  0  0  0  0  0  0  0  0  0  0  0
  161.1010  205.8340  152.5330 C   0  0  2  0  0  3  0  0  0  0  0  0
  161.4790  208.1080  152.4130 N   0  0  0  0  0  0  0  0  0  0  0  0
  161.5520  206.8410  151.7820 C   0  0  0  0  0  0  0  0  0  0  0  0
  162.6460  205.3390  150.0210 C   0  0  0  0  0  2  0  0  0  0  0  0
  162.1640  206.7380  150.4000 C   0  0  1  0  0  3  0  0  0  0  0  0
  160.1800  206.4350  148.8030 C   0  0  0  0  0  2  0  0  0  0  0  0
  161.4890  204.3950  149.6190 C   0  0  2  0  0  0  0  0  0  0  0  0
  160.4450  206.3580  154.1180 S   0  0  0  0  0  0  0  0  0  0  0  0
  160.8970  208.0910  153.7440 C   0  0  1  0  0  3  0  0  0  0  0  0
  160.6920  205.0340  148.4630 C   0  0  0  0  0  2  0  0  0  0  0  0
  161.3290  207.3340  149.2500 C   0  0  1  0  0  3  0  0  0  0  0  0
  160.6500  203.5920  153.1910 F   0  0  0  0  0  0  0  0  0  0  0  0
  161.8970  208.6290  154.7730 C   0  0  1  0  0  3  0  0  0  0  0  0
  160.3750  209.4040  156.6310 C   0  0  0  0  0  0  0  0  0  0  0  0
  161.3050  209.8380  155.5220 C   0  0  1  0  0  3  0  0  0  0  0  0
  160.5830  208.2830  157.2600 N   0  0  0  0  0  0  0  0  0  0  0  0
  159.2950  210.2440  157.0360 N   0  0  0  0  0  2  0  0  0  0  0  0
  161.6330  207.3790  156.8880 C   0  0  0  0  0  3  0  0  0  0  0  0
  162.2940  207.5400  155.7400 C   0  0  0  0  0  3  0  0  0  0  0  0
  162.4180  210.7070  156.0820 C   0  0  0  0  0  1  0  0  0  0  0  0
  156.4550  213.1540  154.2760 C   0  0  0  0  0  0  0  0  0  0  0  0
  157.5780  212.9190  154.9670 C   0  0  0  0  0  3  0  0  0  0  0  0
  154.8540  209.9000  154.8790 O   0  0  0  0  0  0  0  0  0  0  0  0
  155.6820  210.8460  154.8960 C   0  0  0  0  0  0  0  0  0  0  0  0
  157.8050  211.6400  155.6560 C   0  0  0  0  0  0  0  0  0  0  0  0
  156.9150  210.6940  155.6090 N   0  0  0  0  0  0  0  0  0  0  0  0
  159.0230  211.4470  156.3720 N   0  0  0  0  0  2  0  0  0  0  0  0
  155.3630  212.1220  154.1700 C   0  0  0  0  0  2  0  0  0  0  0  0
  156.2680  214.3770  153.6300 O   0  0  0  0  0  0  0  0  0  0  0  0
  155.6650  214.4530  152.4350 O   0  0  0  0  0  1  0  0  0  0  0  0
  161.9990  209.7630  148.8810 C   0  0  0  0  0  1  0  0  0  0  0  0
  160.9400  208.8060  149.4100 C   0  0  0  0  0  2  0  0  0  0  0  0
  162.1430  203.1170  149.0770 C   0  0  0  0  0  2  0  0  0  0  0  0
  161.9290  202.9690  147.7020 O   0  0  0  0  0  0  0  0  0  0  0  0
  159.7480  201.6980  148.3810 O   0  0  0  0  0  1  0  0  0  0  0  0
  160.5650  201.3370  145.9250 O   0  0  0  0  0  0  0  0  0  0  0  0
  161.8850  200.2240  148.0840 O   0  0  0  0  0  1  0  0  0  0  0  0
  161.0000  201.5620  147.5450 P   0  0  0  0  0  0  0  0  0  0  0  0
  1  4  1  0  0  0  0
  2  4  1  0  0  0  0
  3  5  1  0  0  0  0
  3 16  1  1  0  0  0
  4  3  1  0  0  0  0
  5  7  1  1  0  0  0
  5 12  1  0  0  0  0
  7  6  2  0  0  0  0
  9  8  1  6  0  0  0
  9  7  1  0  0  0  0
 10 15  1  0  0  0  0
 11 37  1  6  0  0  0
 11  8  1  0  0  0  0
 11  4  1  0  0  0  0
 13  6  1  6  0  0  0
 13 12  1  0  0  0  0
 13 17  1  0  0  0  0
 14 10  1  0  0  0  0
 14 11  1  0  0  0  0
 15 36  1  1  0  0  0
 15  9  1  0  0  0  0
 17 19  1  0  0  0  0
 17 23  1  1  0  0  0
 18 21  1  0  0  0  0
 18 20  2  0  0  0  0
 19 24  1  1  0  0  0
 19 18  1  0  0  0  0
 22 20  1  0  0  0  0
 23 22  2  0  0  0  0
 25 26  2  0  0  0  0
 26 29  1  0  0  0  0
 27 28  2  0  0  0  0
 28 30  1  0  0  0  0
 29 31  1  0  0  0  0
 30 29  2  0  0  0  0
 31 21  1  0  0  0  0
 32 25  1  0  0  0  0
 32 28  1  0  0  0  0
 33 25  1  0  0  0  0
 34 33  1  0  0  0  0
 35 36  1  0  0  0  0
 38 37  1  0  0  0  0
 40 42  2  0  0  0  0
 42 38  1  0  0  0  0
 42 41  1  0  0  0  0
 42 39  1  0  0  0  0
M  END
>  <MODEL>
2

>  <REMARK>
 VINA RESULT:      -1.8      3.146      5.232
  Name = 
  7 active torsions:
  status: ('A' for Active; 'I' for Inactive)
    1  A    between atoms: O_2  and  C_10
    2  A    between atoms: C_4  and  C_37
    3  A    between atoms: C_9  and  C_30
    4  A    between atoms: C_9  and  O_34
    5  A    between atoms: N_26  and  N_32
    6  A    between atoms: O_34  and  P_42
    7  A    between atoms: C_35  and  C_40
                            x       y       z     vdW  Elec       q    Type
                         _______ _______ _______ _____ _____    ______ ____

>  <TORSDO>
F 7

$$$$
=
 OpenBabel11072410583D

 42 46  0  0  1  0  0  0  0  0999 V2000
  162.8130  207.0210  148.2070 F   0  0  0  0  0  0  0  0  0  0  0  0
  163.4740  207.2040  150.3190 F   0  0  0  0  0  0  0  0  0  0  0  0
  161.7720  208.6710  149.5550 C   0  0  1  0  0  3  0  0  0  0  0  0
  162.3560  207.2500  149.4980 C   0  0  0  0  0  0  0  0  0  0  0  0
  161.7160  209.2250  150.9600 C   0  0  0  0  0  0  0  0  0  0  0  0
  161.0520  209.4610  153.1580 N   0  0  0  0  0  2  0  0  0  0  0  0
  161.0870  208.6570  151.9910 C   0  0  0  0  0  0  0  0  0  0  0  0
  160.0560  206.7620  150.6130 C   0  0  0  0  0  2  0  0  0  0  0  0
  160.3900  207.3120  151.9980 C   0  0  1  0  0  3  0  0  0  0  0  0
  162.2680  205.5750  152.1850 C   0  0  0  0  0  2  0  0  0  0  0  0
  161.2870  206.1590  149.8960 C   0  0  2  0  0  0  0  0  0  0  0  0
  162.4210  210.8290  151.3430 S   0  0  0  0  0  0  0  0  0  0  0  0
  161.7320  210.7390  153.0360 C   0  0  1  0  0  3  0  0  0  0  0  0
  161.9090  205.0640  150.7880 C   0  0  0  0  0  2  0  0  0  0  0  0
  161.0540  206.2150  152.8520 C   0  0  1  0  0  3  0  0  0  0  0  0
  162.4900  209.5210  148.7280 F   0  0  0  0  0  0  0  0  0  0  0  0
  160.7540  211.8920  153.2890 C   0  0  1  0  0  3  0  0  0  0  0  0
  159.4880  211.9960  151.1100 C   0  0  0  0  0  0  0  0  0  0  0  0
  160.5040  212.6830  151.9920 C   0  0  1  0  0  3  0  0  0  0  0  0
  158.5310  211.2880  151.6380 N   0  0  0  0  0  0  0  0  0  0  0  0
  159.5330  212.1620  149.6930 N   0  0  0  0  0  0  0  0  0  0  0  0
  158.4400  211.0590  153.0520 C   0  0  0  0  0  3  0  0  0  0  0  0
  159.4590  211.3680  153.8580 C   0  0  0  0  0  3  0  0  0  0  0  0
  160.0460  214.0950  152.3160 C   0  0  0  0  0  1  0  0  0  0  0  0
  162.0370  213.7070  145.7560 C   0  0  0  0  0  0  0  0  0  0  0  0
  161.8280  213.6750  147.0780 C   0  0  0  0  0  3  0  0  0  0  0  0
  159.2630  211.4930  144.7970 O   0  0  0  0  0  0  0  0  0  0  0  0
  160.0640  212.1760  145.4840 C   0  0  0  0  0  0  0  0  0  0  0  0
  160.7270  212.8950  147.6650 C   0  0  0  0  0  0  0  0  0  0  0  0
  159.9250  212.2080  146.9090 N   0  0  0  0  0  0  0  0  0  0  0  0
  160.5570  212.8960  149.0810 N   0  0  0  0  0  0  0  0  0  0  0  0
  161.1550  212.9490  144.7980 C   0  0  0  0  0  2  0  0  0  0  0  0
  163.0910  214.4530  145.2280 O   0  0  0  0  0  0  0  0  0  0  0  0
  163.6530  214.1380  144.0520 O   0  0  0  0  0  1  0  0  0  0  0  0
  159.9730  206.8860  155.0590 C   0  0  0  0  0  1  0  0  0  0  0  0
  161.2680  206.5660  154.3270 C   0  0  0  0  0  2  0  0  0  0  0  0
  160.7560  205.4760  148.6290 C   0  0  0  0  0  2  0  0  0  0  0  0
  161.5860  204.4250  148.2230 O   0  0  0  0  0  0  0  0  0  0  0  0
  161.1330  203.3530  145.8810 O   0  0  0  0  0  0  0  0  0  0  0  0
  160.8550  205.9480  146.0240 O   0  0  0  0  0  1  0  0  0  0  0  0
  163.3390  204.7370  146.0980 O   0  0  0  0  0  1  0  0  0  0  0  0
  161.7130  204.5830  146.5410 P   0  0  0  0  0  0  0  0  0  0  0  0
  1  4  1  0  0  0  0
  3 16  1  6  0  0  0
  3  5  1  0  0  0  0
  4  3  1  0  0  0  0
  4 11  1  0  0  0  0
  4  2  1  0  0  0  0
  5 12  1  0  0  0  0
  5  7  2  0  0  0  0
  7  9  1  0  0  0  0
  7  6  1  0  0  0  0
  9  8  1  6  0  0  0
  9 15  1  0  0  0  0
 10 15  1  0  0  0  0
 11 37  1  6  0  0  0
 11  8  1  0  0  0  0
 11 14  1  0  0  0  0
 13 12  1  6  0  0  0
 13  6  1  0  0  0  0
 13 17  1  0  0  0  0
 14 10  1  0  0  0  0
 15 36  1  1  0  0  0
 17 23  1  6  0  0  0
 18 20  2  0  0  0  0
 18 19  1  0  0  0  0
 19 24  1  1  0  0  0
 19 17  1  0  0  0  0
 20 22  1  0  0  0  0
 21 18  1  0  0  0  0
 22 23  2  0  0  0  0
 25 26  2  0  0  0  0
 26 29  1  0  0  0  0
 27 28  2  0  0  0  0
 28 30  1  0  0  0  0
 29 31  1  0  0  0  0
 30 29  2  0  0  0  0
 31 21  2  0  0  0  0
 32 28  1  0  0  0  0
 32 25  1  0  0  0  0
 33 25  1  0  0  0  0
 34 33  1  0  0  0  0
 36 35  1  0  0  0  0
 38 37  1  0  0  0  0
 39 42  2  0  0  0  0
 40 42  1  0  0  0  0
 41 42  1  0  0  0  0
 42 38  1  0  0  0  0
M  END
>  <MODEL>
3

>  <REMARK>
 VINA RESULT:      -1.6      3.762      5.772
  Name = 
  7 active torsions:
  status: ('A' for Active; 'I' for Inactive)
    1  A    between atoms: O_2  and  C_10
    2  A    between atoms: C_4  and  C_37
    3  A    between atoms: C_9  and  C_30
    4  A    between atoms: C_9  and  O_34
    5  A    between atoms: N_26  and  N_32
    6  A    between atoms: O_34  and  P_42
    7  A    between atoms: C_35  and  C_40
                            x       y       z     vdW  Elec       q    Type
                         _______ _______ _______ _____ _____    ______ ____

>  <TORSDO>
F 7

$$$$
=
 OpenBabel11072410583D

 42 46  0  0  1  0  0  0  0  0999 V2000
  158.0220  212.8610  143.7920 F   0  0  0  0  0  0  0  0  0  0  0  0
  158.8120  214.4440  145.1350 F   0  0  0  0  0  0  0  0  0  0  0  0
  157.8310  212.5260  146.1320 C   0  0  1  0  0  3  0  0  0  0  0  0
  158.7010  213.0690  144.9860 C   0  0  0  0  0  0  0  0  0  0  0  0
  158.1880  213.1270  147.4720 C   0  0  0  0  0  0  0  0  0  0  0  0
  159.4240  213.5860  149.3670 N   0  0  0  0  0  2  0  0  0  0  0  0
  159.3970  213.0920  148.0390 C   0  0  0  0  0  0  0  0  0  0  0  0
  160.4490  211.6050  146.2400 C   0  0  0  0  0  2  0  0  0  0  0  0
  160.6680  212.5380  147.4290 C   0  0  1  0  0  3  0  0  0  0  0  0
  161.4820  214.3450  145.8010 C   0  0  0  0  0  2  0  0  0  0  0  0
  160.1130  212.3660  144.9360 C   0  0  2  0  0  0  0  0  0  0  0  0
  156.9280  213.8640  148.5130 S   0  0  0  0  0  0  0  0  0  0  0  0
  158.1480  214.0730  149.8610 C   0  0  1  0  0  3  0  0  0  0  0  0
  161.2350  213.3820  144.6380 C   0  0  0  0  0  2  0  0  0  0  0  0
  161.7570  213.5730  147.0890 C   0  0  1  0  0  3  0  0  0  0  0  0
  156.4890  212.7260  145.8550 F   0  0  0  0  0  0  0  0  0  0  0  0
  157.7230  213.2900  151.1080 C   0  0  1  0  0  3  0  0  0  0  0  0
  159.9470  212.5980  152.0780 C   0  0  0  0  0  0  0  0  0  0  0  0
  158.6960  212.1270  151.3740 C   0  0  1  0  0  3  0  0  0  0  0  0
  159.8970  213.6080  152.8980 N   0  0  0  0  0  0  0  0  0  0  0  0
  161.1820  211.9070  151.8960 N   0  0  0  0  0  2  0  0  0  0  0  0
  158.6960  214.3650  153.1090 C   0  0  0  0  0  3  0  0  0  0  0  0
  157.6430  214.2080  152.3030 C   0  0  0  0  0  3  0  0  0  0  0  0
  158.0120  211.0440  152.1910 C   0  0  0  0  0  1  0  0  0  0  0  0
  161.4090  207.1050  150.8720 C   0  0  0  0  0  0  0  0  0  0  0  0
  161.4040  208.3890  150.4930 C   0  0  0  0  0  3  0  0  0  0  0  0
  161.0690  207.6910  154.4850 O   0  0  0  0  0  0  0  0  0  0  0  0
  161.1710  207.8860  153.2470 C   0  0  0  0  0  0  0  0  0  0  0  0
  161.2800  209.4810  151.4710 C   0  0  0  0  0  0  0  0  0  0  0  0
  161.1750  209.2250  152.7400 N   0  0  0  0  0  0  0  0  0  0  0  0
  161.2850  210.8290  151.0070 N   0  0  0  0  0  2  0  0  0  0  0  0
  161.2840  206.7090  152.3200 C   0  0  0  0  0  2  0  0  0  0  0  0
  161.5300  206.0910  149.9210 O   0  0  0  0  0  0  0  0  0  0  0  0
  160.6460  205.0850  149.8530 O   0  0  0  0  0  1  0  0  0  0  0  0
  163.7200  214.3870  148.4930 C   0  0  0  0  0  1  0  0  0  0  0  0
  162.2190  214.4530  148.2540 C   0  0  0  0  0  2  0  0  0  0  0  0
  160.1260  211.3210  143.8120 C   0  0  0  0  0  2  0  0  0  0  0  0
  161.3200  211.3600  143.0840 O   0  0  0  0  0  0  0  0  0  0  0  0
  159.3510  211.7450  141.4090 O   0  0  0  0  0  1  0  0  0  0  0  0
  161.4910  213.1890  141.0080 O   0  0  0  0  0  1  0  0  0  0  0  0
  161.4300  210.4810  140.4570 O   0  0  0  0  0  0  0  0  0  0  0  0
  160.8590  211.6950  141.4890 P   0  0  0  0  0  0  0  0  0  0  0  0
  1  4  1  0  0  0  0
  3 16  1  6  0  0  0
  3  5  1  0  0  0  0
  4  2  1  0  0  0  0
  4  3  1  0  0  0  0
  5  7  2  0  0  0  0
  5 12  1  0  0  0  0
  6 13  1  0  0  0  0
  7  6  1  0  0  0  0
  9  8  1  6  0  0  0
  9  7  1  0  0  0  0
 10 15  1  0  0  0  0
 11 37  1  6  0  0  0
 11  4  1  0  0  0  0
 11  8  1  0  0  0  0
 13 12  1  6  0  0  0
 13 17  1  0  0  0  0
 14 11  1  0  0  0  0
 14 10  1  0  0  0  0
 15  9  1  0  0  0  0
 15 36  1  1  0  0  0
 17 19  1  0  0  0  0
 17 23  1  1  0  0  0
 18 20  2  0  0  0  0
 19 18  1  0  0  0  0
 19 24  1  1  0  0  0
 20 22  1  0  0  0  0
 21 18  1  0  0  0  0
 23 22  2  0  0  0  0
 25 32  1  0  0  0  0
 26 25  2  0  0  0  0
 26 29  1  0  0  0  0
 28 27  2  0  0  0  0
 29 30  2  0  0  0  0
 30 28  1  0  0  0  0
 31 29  1  0  0  0  0
 31 21  1  0  0  0  0
 32 28  1  0  0  0  0
 33 25  1  0  0  0  0
 34 33  1  0  0  0  0
 36 35  1  0  0  0  0
 38 37  1  0  0  0  0
 39 42  1  0  0  0  0
 40 42  1  0  0  0  0
 41 42  2  0  0  0  0
 42 38  1  0  0  0  0
M  END
>  <MODEL>
4

>  <REMARK>
 VINA RESULT:      -1.3      5.133      7.726
  Name = 
  7 active torsions:
  status: ('A' for Active; 'I' for Inactive)
    1  A    between atoms: O_2  and  C_10
    2  A    between atoms: C_4  and  C_37
    3  A    between atoms: C_9  and  C_30
    4  A    between atoms: C_9  and  O_34
    5  A    between atoms: N_26  and  N_32
    6  A    between atoms: O_34  and  P_42
    7  A    between atoms: C_35  and  C_40
                            x       y       z     vdW  Elec       q    Type
                         _______ _______ _______ _____ _____    ______ ____

>  <TORSDO>
F 7

$$$$
=
 OpenBabel11072410583D

 42 46  0  0  1  0  0  0  0  0999 V2000
  161.5080  211.5670  148.5520 F   0  0  0  0  0  0  0  0  0  0  0  0
  159.3670  211.4620  149.1320 F   0  0  0  0  0  0  0  0  0  0  0  0
  160.9840  211.5690  150.8650 C   0  0  1  0  0  3  0  0  0  0  0  0
  160.5780  212.0520  149.4630 C   0  0  0  0  0  0  0  0  0  0  0  0
  159.8330  211.5790  151.8440 C   0  0  0  0  0  0  0  0  0  0  0  0
  158.1800  212.4220  153.2170 N   0  0  0  0  0  2  0  0  0  0  0  0
  159.0890  212.6440  152.1530 C   0  0  0  0  0  0  0  0  0  0  0  0
  160.4740  214.2970  150.7730 C   0  0  0  0  0  2  0  0  0  0  0  0
  159.1760  214.0220  151.5300 C   0  0  1  0  0  3  0  0  0  0  0  0
  157.9610  213.8260  149.2790 C   0  0  0  0  0  2  0  0  0  0  0  0
  160.5090  213.6260  149.3800 C   0  0  2  0  0  0  0  0  0  0  0  0
  159.4320  210.1200  152.8050 S   0  0  0  0  0  0  0  0  0  0  0  0
  158.1930  211.0730  153.7560 C   0  0  1  0  0  3  0  0  0  0  0  0
  159.2870  214.0910  148.5620 C   0  0  0  0  0  2  0  0  0  0  0  0
  157.9690  214.4490  150.6720 C   0  0  1  0  0  3  0  0  0  0  0  0
  161.5490  210.3060  150.7960 F   0  0  0  0  0  0  0  0  0  0  0  0
  158.5480  211.0950  155.2460 C   0  0  1  0  0  3  0  0  0  0  0  0
  160.9360  210.2820  155.2300 C   0  0  0  0  0  0  0  0  0  0  0  0
  159.5090  209.9420  155.5910 C   0  0  1  0  0  3  0  0  0  0  0  0
  161.3510  211.5140  155.2820 N   0  0  0  0  0  0  0  0  0  0  0  0
  161.8580  209.2480  154.8840 N   0  0  0  0  0  2  0  0  0  0  0  0
  160.4730  212.6050  155.5970 C   0  0  0  0  0  3  0  0  0  0  0  0
  159.1500  212.4270  155.6230 C   0  0  0  0  0  3  0  0  0  0  0  0
  159.4100  209.5970  157.0670 C   0  0  0  0  0  1  0  0  0  0  0  0
  161.1830  205.0510  152.4170 C   0  0  0  0  0  0  0  0  0  0  0  0
  161.1040  205.7830  153.5360 C   0  0  0  0  0  3  0  0  0  0  0  0
  162.6610  207.6440  150.2720 O   0  0  0  0  0  0  0  0  0  0  0  0
  162.1790  207.0510  151.2700 C   0  0  0  0  0  0  0  0  0  0  0  0
  161.5610  207.1810  153.5750 C   0  0  0  0  0  0  0  0  0  0  0  0
  162.0540  207.7470  152.5150 N   0  0  0  0  0  0  0  0  0  0  0  0
  161.4490  207.9110  154.7940 N   0  0  0  0  0  2  0  0  0  0  0  0
  161.7460  205.6180  151.1400 C   0  0  0  0  0  2  0  0  0  0  0  0
  160.7390  203.7280  152.4090 O   0  0  0  0  0  0  0  0  0  0  0  0
  161.3780  202.7780  151.7110 O   0  0  0  0  0  1  0  0  0  0  0  0
  155.4390  214.3180  150.4110 C   0  0  0  0  0  1  0  0  0  0  0  0
  156.6110  214.4100  151.3780 C   0  0  0  0  0  2  0  0  0  0  0  0
  161.7650  214.1580  148.6770 C   0  0  0  0  0  2  0  0  0  0  0  0
  161.5180  214.4530  147.3320 O   0  0  0  0  0  0  0  0  0  0  0  0
  161.6470  212.2550  145.9230 O   0  0  0  0  0  1  0  0  0  0  0  0
  163.2170  214.1970  145.1560 O   0  0  0  0  0  0  0  0  0  0  0  0
  163.7010  212.7490  147.4600 O   0  0  0  0  0  1  0  0  0  0  0  0
  162.4970  213.3850  146.4550 P   0  0  0  0  0  0  0  0  0  0  0  0
  1  4  1  0  0  0  0
  2  4  1  0  0  0  0
  3 16  1  6  0  0  0
  3  5  1  0  0  0  0
  4  3  1  0  0  0  0
  5  7  2  0  0  0  0
  5 12  1  0  0  0  0
  6 13  1  0  0  0  0
  7  6  1  0  0  0  0
  9  8  1  6  0  0  0
  9  7  1  0  0  0  0
 10 15  1  0  0  0  0
 11 37  1  6  0  0  0
 11  4  1  0  0  0  0
 11  8  1  0  0  0  0
 13 12  1  6  0  0  0
 13 17  1  0  0  0  0
 14 10  1  0  0  0  0
 14 11  1  0  0  0  0
 15 36  1  1  0  0  0
 15  9  1  0  0  0  0
 17 19  1  0  0  0  0
 17 23  1  6  0  0  0
 18 20  2  0  0  0  0
 18 19  1  0  0  0  0
 19 24  1  1  0  0  0
 20 22  1  0  0  0  0
 21 18  1  0  0  0  0
 22 23  2  0  0  0  0
 25 26  2  0  0  0  0
 26 29  1  0  0  0  0
 27 28  2  0  0  0  0
 28 30  1  0  0  0  0
 29 31  1  0  0  0  0
 30 29  2  0  0  0  0
 31 21  1  0  0  0  0
 32 28  1  0  0  0  0
 32 25  1  0  0  0  0
 33 25  1  0  0  0  0
 34 33  1  0  0  0  0
 35 36  1  0  0  0  0
 38 37  1  0  0  0  0
 39 42  1  0  0  0  0
 40 42  2  0  0  0  0
 42 38  1  0  0  0  0
 42 41  1  0  0  0  0
M  END
>  <MODEL>
5

>  <REMARK>
 VINA RESULT:      -1.2      4.558      8.028
  Name = 
  7 active torsions:
  status: ('A' for Active; 'I' for Inactive)
    1  A    between atoms: O_2  and  C_10
    2  A    between atoms: C_4  and  C_37
    3  A    between atoms: C_9  and  C_30
    4  A    between atoms: C_9  and  O_34
    5  A    between atoms: N_26  and  N_32
    6  A    between atoms: O_34  and  P_42
    7  A    between atoms: C_35  and  C_40
                            x       y       z     vdW  Elec       q    Type
                         _______ _______ _______ _____ _____    ______ ____

>  <TORSDO>
F 7

$$$$
=
 OpenBabel11072410583D

 42 46  0  0  1  0  0  0  0  0999 V2000
  162.3460  207.6000  154.2280 F   0  0  0  0  0  0  0  0  0  0  0  0
  163.2250  206.8610  152.3270 F   0  0  0  0  0  0  0  0  0  0  0  0
  161.1720  205.9130  153.0460 C   0  0  1  0  0  3  0  0  0  0  0  0
  162.0240  207.1880  152.9410 C   0  0  0  0  0  0  0  0  0  0  0  0
  161.1860  205.0930  151.7760 C   0  0  0  0  0  0  0  0  0  0  0  0
  160.7820  204.5190  149.5780 N   0  0  0  0  0  2  0  0  0  0  0  0
  160.8300  205.5320  150.5670 C   0  0  0  0  0  0  0  0  0  0  0  0
  160.0430  207.8280  151.3820 C   0  0  0  0  0  2  0  0  0  0  0  0
  160.4340  206.9470  150.1970 C   0  0  1  0  0  3  0  0  0  0  0  0
  162.6390  208.2450  150.0200 C   0  0  0  0  0  2  0  0  0  0  0  0
  161.2670  208.3410  152.1760 C   0  0  2  0  0  0  0  0  0  0  0  0
  161.5880  203.3460  151.8160 S   0  0  0  0  0  0  0  0  0  0  0  0
  161.1600  203.1960  150.0430 C   0  0  1  0  0  3  0  0  0  0  0  0
  162.2130  209.0950  151.2180 C   0  0  0  0  0  2  0  0  0  0  0  0
  161.4170  207.7030  149.2830 C   0  0  1  0  0  3  0  0  0  0  0  0
  161.5830  205.1440  154.1220 F   0  0  0  0  0  0  0  0  0  0  0  0
  160.0070  202.2070  149.8420 C   0  0  1  0  0  3  0  0  0  0  0  0
  160.8020  200.8690  147.8560 C   0  0  0  0  0  0  0  0  0  0  0  0
  159.8130  201.9000  148.3450 C   0  0  1  0  0  3  0  0  0  0  0  0
  161.2360  199.9420  148.6620 N   0  0  0  0  0  0  0  0  0  0  0  0
  161.2270  200.8650  146.4940 N   0  0  0  0  0  2  0  0  0  0  0  0
  160.8720  199.9020  150.0490 C   0  0  0  0  0  3  0  0  0  0  0  0
  160.2590  200.9400  150.6220 C   0  0  0  0  0  3  0  0  0  0  0  0
  158.3920  201.4280  148.0840 C   0  0  0  0  0  1  0  0  0  0  0  0
  161.6390  205.2650  144.3420 C   0  0  0  0  0  0  0  0  0  0  0  0
  161.0140  204.0930  144.5120 C   0  0  0  0  0  3  0  0  0  0  0  0
  164.3490  204.6950  146.7600 O   0  0  0  0  0  0  0  0  0  0  0  0
  163.3220  204.5270  146.0550 C   0  0  0  0  0  0  0  0  0  0  0  0
  161.5130  203.0830  145.4580 C   0  0  0  0  0  0  0  0  0  0  0  0
  162.5820  203.3060  146.1630 N   0  0  0  0  0  0  0  0  0  0  0  0
  160.8020  201.8550  145.5990 N   0  0  0  0  0  2  0  0  0  0  0  0
  162.8890  205.6110  145.1080 C   0  0  0  0  0  2  0  0  0  0  0  0
  161.1410  206.2040  143.4390 O   0  0  0  0  0  0  0  0  0  0  0  0
  161.5810  206.2630  142.1740 O   0  0  0  0  0  1  0  0  0  0  0  0
  160.5070  206.6200  147.1650 C   0  0  0  0  0  1  0  0  0  0  0  0
  161.7460  207.0160  147.9550 C   0  0  0  0  0  2  0  0  0  0  0  0
  160.7280  209.3600  153.1880 C   0  0  0  0  0  2  0  0  0  0  0  0
  161.6920  210.3170  153.5230 O   0  0  0  0  0  0  0  0  0  0  0  0
  160.5660  209.5760  155.7620 O   0  0  0  0  0  1  0  0  0  0  0  0
  162.9090  210.7140  155.9820 O   0  0  0  0  0  1  0  0  0  0  0  0
  160.6420  212.1500  155.3180 O   0  0  0  0  0  0  0  0  0  0  0  0
  161.4300  210.6600  155.1600 P   0  0  0  0  0  0  0  0  0  0  0  0
  2  4  1  0  0  0  0
  3 16  1  1  0  0  0
  4  3  1  0  0  0  0
  4  1  1  0  0  0  0
  5 12  1  0  0  0  0
  5  3  1  0  0  0  0
  6  7  1  0  0  0  0
  7  5  2  0  0  0  0
  8 11  1  0  0  0  0
  9  7  1  0  0  0  0
  9  8  1  1  0  0  0
 10 14  1  0  0  0  0
 11  4  1  0  0  0  0
 11 37  1  1  0  0  0
 13  6  1  1  0  0  0
 13 12  1  0  0  0  0
 14 11  1  0  0  0  0
 15 36  1  6  0  0  0
 15 10  1  0  0  0  0
 15  9  1  0  0  0  0
 17 13  1  0  0  0  0
 17 23  1  1  0  0  0
 18 19  1  0  0  0  0
 18 20  2  0  0  0  0
 19 24  1  1  0  0  0
 19 17  1  0  0  0  0
 20 22  1  0  0  0  0
 21 18  1  0  0  0  0
 22 23  2  0  0  0  0
 25 26  2  0  0  0  0
 25 32  1  0  0  0  0
 26 29  1  0  0  0  0
 28 30  1  0  0  0  0
 28 27  2  0  0  0  0
 29 31  1  0  0  0  0
 29 30  2  0  0  0  0
 31 21  1  0  0  0  0
 32 28  1  0  0  0  0
 33 25  1  0  0  0  0
 34 33  1  0  0  0  0
 35 36  1  0  0  0  0
 37 38  1  0  0  0  0
 38 42  1  0  0  0  0
 42 41  2  0  0  0  0
 42 39  1  0  0  0  0
 42 40  1  0  0  0  0
M  END
>  <MODEL>
6

>  <REMARK>
 VINA RESULT:      -0.9      5.080      9.998
  Name = 
  7 active torsions:
  status: ('A' for Active; 'I' for Inactive)
    1  A    between atoms: O_2  and  C_10
    2  A    between atoms: C_4  and  C_37
    3  A    between atoms: C_9  and  C_30
    4  A    between atoms: C_9  and  O_34
    5  A    between atoms: N_26  and  N_32
    6  A    between atoms: O_34  and  P_42
    7  A    between atoms: C_35  and  C_40
                            x       y       z     vdW  Elec       q    Type
                         _______ _______ _______ _____ _____    ______ ____

>  <TORSDO>
F 7

$$$$
=
 OpenBabel11072410583D

 42 46  0  0  1  0  0  0  0  0999 V2000
  161.0100  209.4040  157.0120 F   0  0  0  0  0  0  0  0  0  0  0  0
  162.4080  208.9290  155.3540 F   0  0  0  0  0  0  0  0  0  0  0  0
  160.3070  207.8270  155.3880 C   0  0  1  0  0  3  0  0  0  0  0  0
  161.0690  209.1360  155.6510 C   0  0  0  0  0  0  0  0  0  0  0  0
  160.7120  207.1640  154.0910 C   0  0  2  0  0  3  0  0  0  0  0  0
  160.9430  206.8400  151.8180 N   0  0  0  0  0  0  0  0  0  0  0  0
  160.6590  207.7300  152.8830 C   0  0  0  0  0  0  0  0  0  0  0  0
  159.5310  209.8820  153.6900 C   0  0  0  0  0  2  0  0  0  0  0  0
  160.2790  209.1620  152.5690 C   0  0  1  0  0  3  0  0  0  0  0  0
  162.3600  210.5540  153.1310 C   0  0  0  0  0  2  0  0  0  0  0  0
  160.4640  210.3420  154.8340 C   0  0  2  0  0  0  0  0  0  0  0  0
  161.2060  205.4410  154.0560 S   0  0  0  0  0  0  0  0  0  0  0  0
  161.2730  205.4860  152.2280 C   0  0  1  0  0  3  0  0  0  0  0  0
  161.5760  211.2390  154.2520 C   0  0  0  0  0  2  0  0  0  0  0  0
  161.4160  210.0580  152.0390 C   0  0  1  0  0  3  0  0  0  0  0  0
  160.4700  206.9510  156.4490 F   0  0  0  0  0  0  0  0  0  0  0  0
  160.2840  204.4860  151.6200 C   0  0  1  0  0  3  0  0  0  0  0  0
  161.7300  203.2620  149.9540 C   0  0  0  0  0  0  0  0  0  0  0  0
  160.6000  204.2490  150.1320 C   0  0  1  0  0  3  0  0  0  0  0  0
  161.9090  202.3060  150.8190 N   0  0  0  0  0  0  0  0  0  0  0  0
  162.5760  203.3330  148.8060 N   0  0  0  0  0  2  0  0  0  0  0  0
  161.1130  202.1900  152.0080 C   0  0  0  0  0  3  0  0  0  0  0  0
  160.3110  203.1870  152.3890 C   0  0  0  0  0  3  0  0  0  0  0  0
  159.3600  203.7620  149.4010 C   0  0  0  0  0  1  0  0  0  0  0  0
  160.9620  205.1180  144.5200 C   0  0  0  0  0  0  0  0  0  0  0  0
  161.6130  205.2580  145.6820 C   0  0  0  0  0  3  0  0  0  0  0  0
  159.9740  201.6060  144.9680 O   0  0  0  0  0  0  0  0  0  0  0  0
  160.4710  202.7420  145.1710 C   0  0  0  0  0  0  0  0  0  0  0  0
  161.7220  204.1500  146.6430 C   0  0  0  0  0  0  0  0  0  0  0  0
  161.1870  202.9940  146.3850 N   0  0  0  0  0  0  0  0  0  0  0  0
  162.4320  204.3580  147.8620 N   0  0  0  0  0  2  0  0  0  0  0  0
  160.3030  203.8190  144.1360 C   0  0  0  0  0  2  0  0  0  0  0  0
  160.8780  206.1870  143.6270 O   0  0  0  0  0  0  0  0  0  0  0  0
  161.5820  206.2040  142.4860 O   0  0  0  0  0  1  0  0  0  0  0  0
  161.9600  210.4650  149.5840 C   0  0  0  0  0  1  0  0  0  0  0  0
  162.1300  209.5460  150.7850 C   0  0  0  0  0  2  0  0  0  0  0  0
  159.6080  211.2130  155.7630 C   0  0  0  0  0  2  0  0  0  0  0  0
  158.2610  210.8370  155.7290 O   0  0  0  0  0  0  0  0  0  0  0  0
  158.3090  213.4040  155.2350 O   0  0  0  0  0  1  0  0  0  0  0  0
  156.0940  212.1620  154.6160 O   0  0  0  0  0  0  0  0  0  0  0  0
  156.8110  212.6540  157.2410 O   0  0  0  0  0  1  0  0  0  0  0  0
  157.3940  212.2920  155.6930 P   0  0  0  0  0  0  0  0  0  0  0  0
  2  4  1  0  0  0  0
  3  4  1  0  0  0  0
  3 16  1  1  0  0  0
  4  1  1  0  0  0  0
  5  7  1  6  0  0  0
  5  3  1  0  0  0  0
  6  7  2  0  0  0  0
  8 11  1  0  0  0  0
  9  7  1  0  0  0  0
  9  8  1  1  0  0  0
 10 14  1  0  0  0  0
 11  4  1  0  0  0  0
 11 37  1  1  0  0  0
 12  5  1  0  0  0  0
 13  6  1  6  0  0  0
 13 12  1  0  0  0  0
 14 11  1  0  0  0  0
 15 36  1  6  0  0  0
 15  9  1  0  0  0  0
 15 10  1  0  0  0  0
 17 13  1  0  0  0  0
 17 23  1  1  0  0  0
 18 19  1  0  0  0  0
 18 20  2  0  0  0  0
 19 24  1  6  0  0  0
 19 17  1  0  0  0  0
 20 22  1  0  0  0  0
 21 18  1  0  0  0  0
 22 23  2  0  0  0  0
 25 26  2  0  0  0  0
 26 29  1  0  0  0  0
 27 28  2  0  0  0  0
 28 30  1  0  0  0  0
 29 31  1  0  0  0  0
 30 29  2  0  0  0  0
 31 21  1  0  0  0  0
 32 25  1  0  0  0  0
 32 28  1  0  0  0  0
 33 25  1  0  0  0  0
 34 33  1  0  0  0  0
 35 36  1  0  0  0  0
 38 37  1  0  0  0  0
 39 42  1  0  0  0  0
 40 42  2  0  0  0  0
 42 38  1  0  0  0  0
 42 41  1  0  0  0  0
M  END
>  <MODEL>
7

>  <REMARK>
 VINA RESULT:      -0.7      4.597     10.082
  Name = 
  7 active torsions:
  status: ('A' for Active; 'I' for Inactive)
    1  A    between atoms: O_2  and  C_10
    2  A    between atoms: C_4  and  C_37
    3  A    between atoms: C_9  and  C_30
    4  A    between atoms: C_9  and  O_34
    5  A    between atoms: N_26  and  N_32
    6  A    between atoms: O_34  and  P_42
    7  A    between atoms: C_35  and  C_40
                            x       y       z     vdW  Elec       q    Type
                         _______ _______ _______ _____ _____    ______ ____

>  <TORSDO>
F 7

$$$$
=
 OpenBabel11072410583D

 42 46  0  0  1  0  0  0  0  0999 V2000
  160.3040  202.4820  150.8030 F   0  0  0  0  0  0  0  0  0  0  0  0
  159.2920  204.4500  150.6160 F   0  0  0  0  0  0  0  0  0  0  0  0
  161.0630  204.2530  152.1840 C   0  0  1  0  0  3  0  0  0  0  0  0
  160.5320  203.8520  150.7990 C   0  0  0  0  0  0  0  0  0  0  0  0
  160.8680  205.7220  152.4840 C   0  0  0  0  0  0  0  0  0  0  0  0
  161.1450  208.0080  152.3270 N   0  0  0  0  0  2  0  0  0  0  0  0
  161.3260  206.7310  151.7400 C   0  0  0  0  0  0  0  0  0  0  0  0
  162.6210  205.2410  150.1090 C   0  0  0  0  0  2  0  0  0  0  0  0
  162.0450  206.6230  150.4100 C   0  0  1  0  0  3  0  0  0  0  0  0
  160.2040  206.1820  148.6790 C   0  0  0  0  0  2  0  0  0  0  0  0
  161.5430  204.2310  149.6490 C   0  0  2  0  0  0  0  0  0  0  0  0
  160.0690  206.2530  153.9990 S   0  0  0  0  0  0  0  0  0  0  0  0
  160.4650  207.9960  153.6100 C   0  0  1  0  0  3  0  0  0  0  0  0
  160.8070  204.8000  148.4180 C   0  0  0  0  0  2  0  0  0  0  0  0
  161.2730  207.1480  149.1840 C   0  0  1  0  0  3  0  0  0  0  0  0
  160.4750  203.4770  153.1700 F   0  0  0  0  0  0  0  0  0  0  0  0
  161.3580  208.6090  154.6950 C   0  0  1  0  0  3  0  0  0  0  0  0
  160.2690  210.8540  155.0670 C   0  0  0  0  0  0  0  0  0  0  0  0
  161.4710  210.1330  154.5050 C   0  0  1  0  0  3  0  0  0  0  0  0
  159.6340  210.3690  156.0960 N   0  0  0  0  0  0  0  0  0  0  0  0
  159.8510  212.1010  154.5120 N   0  0  0  0  0  2  0  0  0  0  0  0
  159.9840  209.1090  156.6870 C   0  0  0  0  0  3  0  0  0  0  0  0
  160.8220  208.2760  156.0660 C   0  0  0  0  0  3  0  0  0  0  0  0
  162.7430  210.6510  155.1550 C   0  0  0  0  0  1  0  0  0  0  0  0
  159.8510  213.9290  149.9500 C   0  0  0  0  0  0  0  0  0  0  0  0
  160.4860  213.5710  151.0730 C   0  0  0  0  0  3  0  0  0  0  0  0
  156.4570  213.0180  151.0300 O   0  0  0  0  0  0  0  0  0  0  0  0
  157.7010  213.1990  151.0240 C   0  0  0  0  0  0  0  0  0  0  0  0
  159.7600  213.0130  152.2250 C   0  0  0  0  0  0  0  0  0  0  0  0
  158.4710  212.8490  152.1790 N   0  0  0  0  0  0  0  0  0  0  0  0
  160.4910  212.6470  153.3920 N   0  0  0  0  0  2  0  0  0  0  0  0
  158.3580  213.7830  149.8060 C   0  0  0  0  0  2  0  0  0  0  0  0
  160.5660  214.4530  148.8730 O   0  0  0  0  0  0  0  0  0  0  0  0
  161.5720  213.7740  148.3030 O   0  0  0  0  0  1  0  0  0  0  0  0
  161.9510  209.6020  149.2480 C   0  0  0  0  0  1  0  0  0  0  0  0
  160.8040  208.6030  149.2730 C   0  0  0  0  0  2  0  0  0  0  0  0
  162.2970  202.9740  149.1950 C   0  0  0  0  0  2  0  0  0  0  0  0
  161.9740  202.6240  147.8790 O   0  0  0  0  0  0  0  0  0  0  0  0
  161.3160  200.3530  146.7650 O   0  0  0  0  0  0  0  0  0  0  0  0
  161.5990  200.3120  149.3620 O   0  0  0  0  0  1  0  0  0  0  0  0
  159.4380  201.5350  148.1460 O   0  0  0  0  0  1  0  0  0  0  0  0
  161.0880  201.1860  148.0050 P   0  0  0  0  0  0  0  0  0  0  0  0
  2  4  1  0  0  0  0
  3  5  1  0  0  0  0
  3 16  1  1  0  0  0
  4  1  1  0  0  0  0
  4  3  1  0  0  0  0
  5 12  1  0  0  0  0
  7  6  1  0  0  0  0
  7  5  2  0  0  0  0
  9  8  1  6  0  0  0
  9  7  1  0  0  0  0
 10 15  1  0  0  0  0
 11 37  1  6  0  0  0
 11  8  1  0  0  0  0
 11  4  1  0  0  0  0
 13  6  1  6  0  0  0
 13 12  1  0  0  0  0
 13 17  1  0  0  0  0
 14 10  1  0  0  0  0
 14 11  1  0  0  0  0
 15 36  1  1  0  0  0
 15  9  1  0  0  0  0
 17 23  1  1  0  0  0
 18 20  2  0  0  0  0
 19 17  1  0  0  0  0
 19 18  1  0  0  0  0
 19 24  1  1  0  0  0
 20 22  1  0  0  0  0
 21 18  1  0  0  0  0
 23 22  2  0  0  0  0
 25 26  2  0  0  0  0
 26 29  1  0  0  0  0
 28 27  2  0  0  0  0
 28 30  1  0  0  0  0
 29 31  1  0  0  0  0
 30 29  2  0  0  0  0
 31 21  1  0  0  0  0
 32 25  1  0  0  0  0
 32 28  1  0  0  0  0
 33 25  1  0  0  0  0
 34 33  1  0  0  0  0
 35 36  1  0  0  0  0
 38 42  1  0  0  0  0
 38 37  1  0  0  0  0
 39 42  2  0  0  0  0
 42 41  1  0  0  0  0
 42 40  1  0  0  0  0
M  END
>  <MODEL>
8

>  <REMARK>
 VINA RESULT:      -0.2      3.022      5.339
  Name = 
  7 active torsions:
  status: ('A' for Active; 'I' for Inactive)
    1  A    between atoms: O_2  and  C_10
    2  A    between atoms: C_4  and  C_37
    3  A    between atoms: C_9  and  C_30
    4  A    between atoms: C_9  and  O_34
    5  A    between atoms: N_26  and  N_32
    6  A    between atoms: O_34  and  P_42
    7  A    between atoms: C_35  and  C_40
                            x       y       z     vdW  Elec       q    Type
                         _______ _______ _______ _____ _____    ______ ____

>  <TORSDO>
F 7

$$$$
=
 OpenBabel11072410583D

 42 46  0  0  1  0  0  0  0  0999 V2000
  157.9490  213.5170  145.0480 F   0  0  0  0  0  0  0  0  0  0  0  0
  159.3810  214.4530  146.4640 F   0  0  0  0  0  0  0  0  0  0  0  0
  158.2390  212.4960  147.1680 C   0  0  1  0  0  3  0  0  0  0  0  0
  158.9190  213.2300  146.0000 C   0  0  0  0  0  0  0  0  0  0  0  0
  159.0310  212.5800  148.4520 C   0  0  0  0  0  0  0  0  0  0  0  0
  160.7490  212.2220  149.9520 N   0  0  0  0  0  2  0  0  0  0  0  0
  160.2960  212.1820  148.6100 C   0  0  0  0  0  0  0  0  0  0  0  0
  160.5160  211.1930  146.2590 C   0  0  0  0  0  2  0  0  0  0  0  0
  161.2220  211.6580  147.5320 C   0  0  1  0  0  3  0  0  0  0  0  0
  162.0330  213.7360  146.2660 C   0  0  0  0  0  2  0  0  0  0  0  0
  160.0730  212.3680  145.3570 C   0  0  2  0  0  0  0  0  0  0  0  0
  158.2600  213.1380  149.9720 S   0  0  0  0  0  0  0  0  0  0  0  0
  159.7760  212.7200  150.9080 C   0  0  1  0  0  3  0  0  0  0  0  0
  161.3010  213.2400  145.0180 C   0  0  0  0  0  2  0  0  0  0  0  0
  162.4130  212.5660  147.1690 C   0  0  1  0  0  3  0  0  0  0  0  0
  156.9550  212.9780  147.3600 F   0  0  0  0  0  0  0  0  0  0  0  0
  159.4830  211.6600  151.9760 C   0  0  1  0  0  3  0  0  0  0  0  0
  161.6680  210.4030  152.0830 C   0  0  0  0  0  0  0  0  0  0  0  0
  160.2210  210.3480  151.6520 C   0  0  1  0  0  3  0  0  0  0  0  0
  162.0180  211.1100  153.1180 N   0  0  0  0  0  0  0  0  0  0  0  0
  162.6550  209.6360  151.3940 N   0  0  0  0  0  2  0  0  0  0  0  0
  161.0820  211.9250  153.8400 C   0  0  0  0  0  3  0  0  0  0  0  0
  159.8680  212.1700  153.3430 C   0  0  0  0  0  3  0  0  0  0  0  0
  159.5220  209.1720  152.3140 C   0  0  0  0  0  1  0  0  0  0  0  0
  161.2510  205.4740  149.1900 C   0  0  0  0  0  0  0  0  0  0  0  0
  161.6170  206.7610  149.1470 C   0  0  0  0  0  3  0  0  0  0  0  0
  161.4610  205.0550  152.8360 O   0  0  0  0  0  0  0  0  0  0  0  0
  161.5010  205.5650  151.6880 C   0  0  0  0  0  0  0  0  0  0  0  0
  161.9390  207.5110  150.3710 C   0  0  0  0  0  0  0  0  0  0  0  0
  161.8800  206.9370  151.5350 N   0  0  0  0  0  0  0  0  0  0  0  0
  162.3270  208.8790  150.2620 N   0  0  0  0  0  2  0  0  0  0  0  0
  161.1460  204.7250  150.4930 C   0  0  0  0  0  2  0  0  0  0  0  0
  160.9540  204.7870  148.0120 O   0  0  0  0  0  0  0  0  0  0  0  0
  160.7250  205.4360  146.8610 O   0  0  0  0  0  1  0  0  0  0  0  0
  163.4010  214.4530  148.5650 C   0  0  0  0  0  1  0  0  0  0  0  0
  163.3280  212.9510  148.3340 C   0  0  0  0  0  2  0  0  0  0  0  0
  159.5760  211.7430  144.0470 C   0  0  0  0  0  2  0  0  0  0  0  0
  160.6360  211.4420  143.1830 O   0  0  0  0  0  0  0  0  0  0  0  0
  159.0080  213.0130  141.8740 O   0  0  0  0  0  1  0  0  0  0  0  0
  161.4720  212.9450  141.0090 O   0  0  0  0  0  1  0  0  0  0  0  0
  159.7320  210.8300  140.6340 O   0  0  0  0  0  0  0  0  0  0  0  0
  160.1810  212.0810  141.6820 P   0  0  0  0  0  0  0  0  0  0  0  0
  1  4  1  0  0  0  0
  3 16  1  1  0  0  0
  3  5  1  0  0  0  0
  4  2  1  0  0  0  0
  4  3  1  0  0  0  0
  5  7  2  0  0  0  0
  5 12  1  0  0  0  0
  7  6  1  0  0  0  0
  9  8  1  6  0  0  0
  9  7  1  0  0  0  0
 10 15  1  0  0  0  0
 11 37  1  6  0  0  0
 11  4  1  0  0  0  0
 11  8  1  0  0  0  0
 12 13  1  0  0  0  0
 13  6  1  6  0  0  0
 13 17  1  0  0  0  0
 14 11  1  0  0  0  0
 14 10  1  0  0  0  0
 15  9  1  0  0  0  0
 15 36  1  1  0  0  0
 17 23  1  1  0  0  0
 18 20  2  0  0  0  0
 19 17  1  0  0  0  0
 19 18  1  0  0  0  0
 19 24  1  1  0  0  0
 20 22  1  0  0  0  0
 21 18  1  0  0  0  0
 23 22  2  0  0  0  0
 25 32  1  0  0  0  0
 26 25  2  0  0  0  0
 26 29  1  0  0  0  0
 28 27  2  0  0  0  0
 29 30  2  0  0  0  0
 30 28  1  0  0  0  0
 31 29  1  0  0  0  0
 31 21  1  0  0  0  0
 32 28  1  0  0  0  0
 33 25  1  0  0  0  0
 34 33  1  0  0  0  0
 36 35  1  0  0  0  0
 38 37  1  0  0  0  0
 40 42  1  0  0  0  0
 41 42  2  0  0  0  0
 42 39  1  0  0  0  0
 42 38  1  0  0  0  0
M  END
>  <MODEL>
9

>  <REMARK>
 VINA RESULT:       0.1      5.094      8.130
  Name = 
  7 active torsions:
  status: ('A' for Active; 'I' for Inactive)
    1  A    between atoms: O_2  and  C_10
    2  A    between atoms: C_4  and  C_37
    3  A    between atoms: C_9  and  C_30
    4  A    between atoms: C_9  and  O_34
    5  A    between atoms: N_26  and  N_32
    6  A    between atoms: O_34  and  P_42
    7  A    between atoms: C_35  and  C_40
                            x       y       z     vdW  Elec       q    Type
                         _______ _______ _______ _____ _____    ______ ____

>  <TORSDO>
F 7

$$$$
