=
 OpenBabel11072415133D

 40 45  0  0  1  0  0  0  0  0999 V2000
  160.9000  207.4050  149.5640 C   0  0  0  0  0  3  0  0  0  0  0  0
  162.2990  208.7120  148.1340 N   0  0  0  0  0  0  0  0  0  0  0  0
  161.1260  208.3060  150.6060 C   0  0  0  0  0  0  0  0  0  0  0  0
  161.9490  209.4190  150.3880 C   0  0  0  0  0  3  0  0  0  0  0  0
  162.5320  209.6040  149.1330 C   0  0  0  0  0  3  0  0  0  0  0  0
  161.4950  207.6280  148.3160 C   0  0  0  0  0  0  0  0  0  0  0  0
  161.3010  206.6650  147.1900 C   0  0  2  0  0  3  0  0  0  0  0  0
  159.9500  206.3500  147.0360 O   0  0  0  0  0  1  0  0  0  0  0  0
  159.7110  201.4320  148.3960 C   0  0  0  0  0  2  0  0  0  0  0  0
  162.2650  205.1500  147.4830 P   0  0  2  0  0  4  0  0  0  0  0  0
  161.6900  202.9280  146.6500 C   0  0  1  0  0  3  0  0  0  0  0  0
  160.5090  202.1790  146.1160 C   0  0  0  0  0  0  0  0  0  0  0  0
  162.2450  204.1500  145.9170 C   0  0  1  0  0  0  0  0  0  0  0  0
  161.4330  204.7850  144.9760 O   0  0  0  0  0  1  0  0  0  0  0  0
  161.6850  202.9090  149.1170 C   0  0  0  0  0  2  0  0  0  0  0  0
  159.7620  201.3370  146.9610 O   0  0  0  0  0  0  0  0  0  0  0  0
  161.0240  200.9140  150.4540 C   0  0  0  0  0  1  0  0  0  0  0  0
  161.1010  201.4830  149.0540 C   0  0  1  0  0  3  0  0  0  0  0  0
  161.2820  203.6940  147.8820 C   0  0  1  0  0  3  0  0  0  0  0  0
  160.2640  202.1840  144.8800 O   0  0  0  0  0  0  0  0  0  0  0  0
  163.5290  204.7620  146.2100 C   0  0  0  0  0  2  0  0  0  0  0  0
  160.4960  208.0850  151.8700 N   0  0  0  0  0  2  0  0  0  0  0  0
  160.9940  210.3710  156.1140 O   0  0  0  0  0  1  0  0  0  0  0  0
  160.8590  209.3660  153.9390 C   0  0  2  0  0  3  0  0  0  0  0  0
  161.5480  207.9290  157.2520 O   0  0  0  0  0  0  0  0  0  0  0  0
  161.0190  206.8190  155.2400 C   0  0  0  0  0  3  0  0  0  0  0  0
  160.9210  206.8580  153.9110 C   0  0  0  0  0  3  0  0  0  0  0  0
  161.3600  208.0250  156.0100 C   0  0  0  0  0  0  0  0  0  0  0  0
  161.5320  209.3540  155.3230 C   0  0  2  0  0  3  0  0  0  0  0  0
  161.2210  208.1080  153.1340 C   0  0  1  0  0  3  0  0  0  0  0  0
  161.1880  210.6560  153.1710 C   0  0  0  0  0  2  0  0  0  0  0  0
  158.8840  213.2980  151.7510 C   0  0  0  0  0  0  0  0  0  0  0  0
  159.9900  211.5260  152.9510 C   0  0  0  0  0  0  0  0  0  0  0  0
  158.9100  211.4200  153.7720 N   0  0  0  0  0  0  0  0  0  0  0  0
  157.7850  213.1720  152.6020 C   0  0  0  0  0  3  0  0  0  0  0  0
  157.8120  212.2150  153.6200 C   0  0  0  0  0  0  0  0  0  0  0  0
  159.9930  212.4700  151.9220 C   0  0  0  0  0  3  0  0  0  0  0  0
  158.8740  214.3130  150.6660 C   0  0  0  0  0  1  0  0  0  0  0  0
  156.7120  212.0870  154.4680 O   0  0  0  0  0  0  0  0  0  0  0  0
  156.6120  211.0350  155.4160 C   0  0  0  0  0  1  0  0  0  0  0  0
  1  3  1  0  0  0  0
  2  6  1  0  0  0  0
  2  5  2  0  0  0  0
  3 22  1  0  0  0  0
  4  3  2  0  0  0  0
  5  4  1  0  0  0  0
  6  1  2  0  0  0  0
  7  8  1  1  0  0  0
  7  6  1  0  0  0  0
  9 18  1  0  0  0  0
 10  7  1  1  0  0  0
 10 19  1  0  0  0  0
 11 12  1  6  0  0  0
 11 19  1  0  0  0  0
 12 16  1  0  0  0  0
 13 14  1  6  0  0  0
 13 21  1  0  0  0  0
 13 11  1  0  0  0  0
 13 10  1  0  0  0  0
 16  9  1  0  0  0  0
 18 15  1  0  0  0  0
 18 17  1  1  0  0  0
 19 15  1  1  0  0  0
 20 12  2  0  0  0  0
 21 10  1  0  0  0  0
 24 31  1  6  0  0  0
 24 29  1  0  0  0  0
 26 28  1  0  0  0  0
 27 26  2  0  0  0  0
 28 25  2  0  0  0  0
 29 28  1  0  0  0  0
 29 23  1  1  0  0  0
 30 22  1  6  0  0  0
 30 27  1  0  0  0  0
 30 24  1  0  0  0  0
 32 37  1  0  0  0  0
 32 35  2  0  0  0  0
 33 31  1  0  0  0  0
 33 34  1  0  0  0  0
 35 36  1  0  0  0  0
 36 34  2  0  0  0  0
 36 39  1  0  0  0  0
 37 33  2  0  0  0  0
 38 32  1  0  0  0  0
 39 40  1  0  0  0  0
M  END
>  <MODEL>
1

>  <REMARK>
 VINA RESULT:      -7.2      0.000      0.000
  Name = 
  7 active torsions:
  status: ('A' for Active; 'I' for Inactive)
    1  A    between atoms: C_4  and  C_23
    2  A    between atoms: P_6  and  C_27
    3  A    between atoms: O_7  and  C_16
    4  A    between atoms: C_8  and  C_23
    5  A    between atoms: N_10  and  C_21
    6  A    between atoms: N_10  and  C_39
    7  A    between atoms: C_27  and  C_31
                            x       y       z     vdW  Elec       q    Type
                         _______ _______ _______ _____ _____    ______ ____

>  <TORSDO>
F 7

$$$$
=
 OpenBabel11072415133D

 40 45  0  0  1  0  0  0  0  0999 V2000
  160.8980  207.4500  149.5870 C   0  0  0  0  0  3  0  0  0  0  0  0
  162.3180  208.7280  148.1530 N   0  0  0  0  0  0  0  0  0  0  0  0
  161.1310  208.3550  150.6230 C   0  0  0  0  0  0  0  0  0  0  0  0
  161.9690  209.4560  150.4000 C   0  0  0  0  0  3  0  0  0  0  0  0
  162.5590  209.6240  149.1460 C   0  0  0  0  0  3  0  0  0  0  0  0
  161.5000  207.6550  148.3390 C   0  0  0  0  0  0  0  0  0  0  0  0
  161.2980  206.6870  147.2190 C   0  0  2  0  0  3  0  0  0  0  0  0
  159.9460  206.3700  147.0780 O   0  0  0  0  0  1  0  0  0  0  0  0
  159.7170  201.4440  148.3960 C   0  0  0  0  0  2  0  0  0  0  0  0
  162.2650  205.1740  147.5130 P   0  0  2  0  0  4  0  0  0  0  0  0
  161.7020  202.9530  146.6680 C   0  0  1  0  0  3  0  0  0  0  0  0
  160.5270  202.2030  146.1230 C   0  0  0  0  0  0  0  0  0  0  0  0
  162.2580  204.1800  145.9430 C   0  0  1  0  0  0  0  0  0  0  0  0
  161.4500  204.8150  144.9990 O   0  0  0  0  0  1  0  0  0  0  0  0
  161.6820  202.9250  149.1350 C   0  0  0  0  0  2  0  0  0  0  0  0
  159.7770  201.3550  146.9610 O   0  0  0  0  0  0  0  0  0  0  0  0
  161.0180  200.9230  150.4600 C   0  0  0  0  0  1  0  0  0  0  0  0
  161.1030  201.4970  149.0630 C   0  0  1  0  0  3  0  0  0  0  0  0
  161.2840  203.7130  147.9010 C   0  0  1  0  0  3  0  0  0  0  0  0
  160.2890  202.2120  144.8870 O   0  0  0  0  0  0  0  0  0  0  0  0
  163.5380  204.7950  146.2470 C   0  0  0  0  0  2  0  0  0  0  0  0
  160.4940  208.1520  151.8860 N   0  0  0  0  0  2  0  0  0  0  0  0
  161.0480  210.3240  156.1830 O   0  0  0  0  0  1  0  0  0  0  0  0
  160.8880  209.3750  153.9850 C   0  0  2  0  0  3  0  0  0  0  0  0
  161.5500  207.8440  157.2610 O   0  0  0  0  0  0  0  0  0  0  0  0
  160.9930  206.7940  155.2240 C   0  0  0  0  0  3  0  0  0  0  0  0
  160.8940  206.8670  153.8960 C   0  0  0  0  0  3  0  0  0  0  0  0
  161.3630  207.9740  156.0220 C   0  0  0  0  0  0  0  0  0  0  0  0
  161.5620  209.3150  155.3660 C   0  0  2  0  0  3  0  0  0  0  0  0
  161.2200  208.1280  153.1490 C   0  0  1  0  0  3  0  0  0  0  0  0
  161.2430  210.6750  153.2460 C   0  0  0  0  0  2  0  0  0  0  0  0
  157.8440  212.2960  153.5880 C   0  0  0  0  0  0  0  0  0  0  0  0
  160.0530  211.5460  152.9910 C   0  0  0  0  0  0  0  0  0  0  0  0
  160.0230  212.3550  151.8970 N   0  0  0  0  0  0  0  0  0  0  0  0
  157.8330  213.1220  152.4620 C   0  0  0  0  0  3  0  0  0  0  0  0
  158.9450  213.1420  151.6160 C   0  0  0  0  0  0  0  0  0  0  0  0
  158.9590  211.5040  153.8570 C   0  0  0  0  0  3  0  0  0  0  0  0
  156.6680  212.2580  154.4950 C   0  0  0  0  0  1  0  0  0  0  0  0
  158.9360  213.9710  150.4940 O   0  0  0  0  0  0  0  0  0  0  0  0
  159.7600  213.7180  149.3650 C   0  0  0  0  0  1  0  0  0  0  0  0
  1  3  1  0  0  0  0
  2  6  1  0  0  0  0
  2  5  2  0  0  0  0
  3 22  1  0  0  0  0
  4  3  2  0  0  0  0
  5  4  1  0  0  0  0
  6  1  2  0  0  0  0
  7  8  1  1  0  0  0
  7  6  1  0  0  0  0
  9 18  1  0  0  0  0
 10  7  1  1  0  0  0
 10 19  1  0  0  0  0
 11 12  1  6  0  0  0
 11 19  1  0  0  0  0
 12 16  1  0  0  0  0
 13 14  1  6  0  0  0
 13 21  1  0  0  0  0
 13 11  1  0  0  0  0
 13 10  1  0  0  0  0
 16  9  1  0  0  0  0
 18 15  1  0  0  0  0
 18 17  1  1  0  0  0
 19 15  1  1  0  0  0
 20 12  2  0  0  0  0
 21 10  1  0  0  0  0
 24 31  1  6  0  0  0
 24 29  1  0  0  0  0
 26 28  1  0  0  0  0
 27 26  2  0  0  0  0
 28 25  2  0  0  0  0
 29 28  1  0  0  0  0
 29 23  1  1  0  0  0
 30 22  1  6  0  0  0
 30 27  1  0  0  0  0
 30 24  1  0  0  0  0
 32 37  1  0  0  0  0
 32 38  1  0  0  0  0
 33 31  1  0  0  0  0
 33 37  2  0  0  0  0
 34 33  1  0  0  0  0
 35 32  2  0  0  0  0
 36 34  2  0  0  0  0
 36 35  1  0  0  0  0
 39 36  1  0  0  0  0
 40 39  1  0  0  0  0
M  END
>  <MODEL>
2

>  <REMARK>
 VINA RESULT:      -7.2      0.960      1.767
  Name = 
  7 active torsions:
  status: ('A' for Active; 'I' for Inactive)
    1  A    between atoms: C_4  and  C_23
    2  A    between atoms: P_6  and  C_27
    3  A    between atoms: O_7  and  C_16
    4  A    between atoms: C_8  and  C_23
    5  A    between atoms: N_10  and  C_21
    6  A    between atoms: N_10  and  C_39
    7  A    between atoms: C_27  and  C_31
                            x       y       z     vdW  Elec       q    Type
                         _______ _______ _______ _____ _____    ______ ____

>  <TORSDO>
F 7

$$$$
=
 OpenBabel11072415133D

 40 45  0  0  1  0  0  0  0  0999 V2000
  159.6760  209.8960  154.6090 C   0  0  0  0  0  3  0  0  0  0  0  0
  159.9870  209.9440  156.9770 N   0  0  0  0  0  0  0  0  0  0  0  0
  160.7910  209.0660  154.4810 C   0  0  0  0  0  0  0  0  0  0  0  0
  161.4970  208.6780  155.6280 C   0  0  0  0  0  3  0  0  0  0  0  0
  161.0740  209.1340  156.8780 C   0  0  0  0  0  3  0  0  0  0  0  0
  159.2770  210.3270  155.8810 C   0  0  0  0  0  0  0  0  0  0  0  0
  158.1090  211.2430  156.0490 C   0  0  2  0  0  3  0  0  0  0  0  0
  156.9810  210.7300  155.4060 O   0  0  0  0  0  1  0  0  0  0  0  0
  156.7870  213.7230  151.2040 C   0  0  0  0  0  2  0  0  0  0  0  0
  158.5030  212.8940  155.3940 P   0  0  2  0  0  4  0  0  0  0  0  0
  156.9550  214.3340  154.1710 C   0  0  1  0  0  3  0  0  0  0  0  0
  155.6690  214.2420  153.4120 C   0  0  0  0  0  0  0  0  0  0  0  0
  157.0190  213.9810  155.6580 C   0  0  1  0  0  0  0  0  0  0  0  0
  155.9840  213.2220  156.2050 O   0  0  0  0  0  1  0  0  0  0  0  0
  158.8630  213.7530  152.7170 C   0  0  0  0  0  2  0  0  0  0  0  0
  155.6780  214.1680  152.0060 O   0  0  0  0  0  0  0  0  0  0  0  0
  159.0090  214.4530  150.3310 C   0  0  0  0  0  1  0  0  0  0  0  0
  158.1120  214.4260  151.5500 C   0  0  1  0  0  3  0  0  0  0  0  0
  157.8730  213.2200  153.7370 C   0  0  1  0  0  3  0  0  0  0  0  0
  154.5700  214.3760  154.0120 O   0  0  0  0  0  0  0  0  0  0  0  0
  158.1440  214.2960  156.5220 C   0  0  0  0  0  2  0  0  0  0  0  0
  161.1780  208.6110  153.1820 N   0  0  0  0  0  2  0  0  0  0  0  0
  162.2040  209.1290  148.4740 O   0  0  0  0  0  1  0  0  0  0  0  0
  161.8500  208.7720  150.8200 C   0  0  2  0  0  3  0  0  0  0  0  0
  161.7710  211.8270  148.7770 O   0  0  0  0  0  0  0  0  0  0  0  0
  161.0020  211.5030  150.9830 C   0  0  0  0  0  3  0  0  0  0  0  0
  161.0070  210.7640  152.0930 C   0  0  0  0  0  3  0  0  0  0  0  0
  161.7070  211.0560  149.7720 C   0  0  0  0  0  0  0  0  0  0  0  0
  162.3880  209.7140  149.7280 C   0  0  2  0  0  3  0  0  0  0  0  0
  161.7830  209.4820  152.1820 C   0  0  1  0  0  3  0  0  0  0  0  0
  162.6670  207.4720  150.8880 C   0  0  0  0  0  2  0  0  0  0  0  0
  160.8820  204.1790  150.3720 C   0  0  0  0  0  0  0  0  0  0  0  0
  161.9820  206.3160  150.2290 C   0  0  0  0  0  0  0  0  0  0  0  0
  161.8680  206.2740  148.8730 N   0  0  0  0  0  0  0  0  0  0  0  0
  160.7730  204.1550  148.9810 C   0  0  0  0  0  3  0  0  0  0  0  0
  161.2760  205.2240  148.2350 C   0  0  0  0  0  0  0  0  0  0  0  0
  161.4880  205.2650  151.0030 C   0  0  0  0  0  3  0  0  0  0  0  0
  160.3570  203.0480  151.1800 C   0  0  0  0  0  1  0  0  0  0  0  0
  161.1620  205.2020  146.8450 O   0  0  0  0  0  0  0  0  0  0  0  0
  160.5330  206.2520  146.1250 C   0  0  0  0  0  1  0  0  0  0  0  0
  1  6  1  0  0  0  0
  3  1  2  0  0  0  0
  3  4  1  0  0  0  0
  4  5  2  0  0  0  0
  5  2  1  0  0  0  0
  6  7  1  0  0  0  0
  6  2  2  0  0  0  0
  7  8  1  6  0  0  0
  9 18  1  0  0  0  0
  9 16  1  0  0  0  0
 10 13  1  0  0  0  0
 10  7  1  1  0  0  0
 10 21  1  0  0  0  0
 11 12  1  6  0  0  0
 11 13  1  0  0  0  0
 12 20  2  0  0  0  0
 13 14  1  1  0  0  0
 13 21  1  0  0  0  0
 16 12  1  0  0  0  0
 18 17  1  6  0  0  0
 18 15  1  0  0  0  0
 19 15  1  6  0  0  0
 19 11  1  0  0  0  0
 19 10  1  0  0  0  0
 22  3  1  0  0  0  0
 24 31  1  1  0  0  0
 24 30  1  0  0  0  0
 25 28  2  0  0  0  0
 26 27  2  0  0  0  0
 27 30  1  0  0  0  0
 28 26  1  0  0  0  0
 29 23  1  6  0  0  0
 29 28  1  0  0  0  0
 29 24  1  0  0  0  0
 30 22  1  1  0  0  0
 32 37  1  0  0  0  0
 32 38  1  0  0  0  0
 33 31  1  0  0  0  0
 33 37  2  0  0  0  0
 34 33  1  0  0  0  0
 35 32  2  0  0  0  0
 36 34  2  0  0  0  0
 36 35  1  0  0  0  0
 39 36  1  0  0  0  0
 40 39  1  0  0  0  0
M  END
>  <MODEL>
3

>  <REMARK>
 VINA RESULT:      -6.8      2.954     10.200
  Name = 
  7 active torsions:
  status: ('A' for Active; 'I' for Inactive)
    1  A    between atoms: C_4  and  C_23
    2  A    between atoms: P_6  and  C_27
    3  A    between atoms: O_7  and  C_16
    4  A    between atoms: C_8  and  C_23
    5  A    between atoms: N_10  and  C_21
    6  A    between atoms: N_10  and  C_39
    7  A    between atoms: C_27  and  C_31
                            x       y       z     vdW  Elec       q    Type
                         _______ _______ _______ _____ _____    ______ ____

>  <TORSDO>
F 7

$$$$
=
 OpenBabel11072415133D

 40 45  0  0  1  0  0  0  0  0999 V2000
  161.6090  209.2220  151.2410 C   0  0  0  0  0  3  0  0  0  0  0  0
  161.6700  207.2490  152.5880 N   0  0  0  0  0  0  0  0  0  0  0  0
  161.0970  209.9420  152.3220 C   0  0  0  0  0  0  0  0  0  0  0  0
  160.8790  209.2890  153.5430 C   0  0  0  0  0  3  0  0  0  0  0  0
  161.1740  207.9300  153.6550 C   0  0  0  0  0  3  0  0  0  0  0  0
  161.9010  207.8600  151.3940 C   0  0  0  0  0  0  0  0  0  0  0  0
  162.4190  207.0530  150.2470 C   0  0  2  0  0  3  0  0  0  0  0  0
  163.4030  207.7570  149.5520 O   0  0  0  0  0  1  0  0  0  0  0  0
  162.3610  204.1570  145.4540 C   0  0  0  0  0  2  0  0  0  0  0  0
  161.0580  206.6090  149.1240 P   0  0  2  0  0  4  0  0  0  0  0  0
  160.7820  204.4450  148.0280 C   0  0  1  0  0  3  0  0  0  0  0  0
  161.5860  203.2320  147.6760 C   0  0  0  0  0  0  0  0  0  0  0  0
  160.5690  204.8530  149.4860 C   0  0  1  0  0  0  0  0  0  0  0  0
  161.4270  204.3270  150.4540 O   0  0  0  0  0  1  0  0  0  0  0  0
  161.0710  206.2020  146.3190 C   0  0  0  0  0  2  0  0  0  0  0  0
  162.1150  203.0830  146.3800 O   0  0  0  0  0  0  0  0  0  0  0  0
  161.2030  205.7110  143.8810 C   0  0  0  0  0  1  0  0  0  0  0  0
  161.1500  205.0860  145.2580 C   0  0  1  0  0  3  0  0  0  0  0  0
  161.5580  205.6840  147.6600 C   0  0  1  0  0  3  0  0  0  0  0  0
  161.6720  202.2740  148.4890 O   0  0  0  0  0  0  0  0  0  0  0  0
  159.5960  205.8390  149.9230 C   0  0  0  0  0  2  0  0  0  0  0  0
  160.8240  211.3360  152.1660 N   0  0  0  0  0  2  0  0  0  0  0  0
  156.8650  214.1310  152.1010 O   0  0  0  0  0  1  0  0  0  0  0  0
  158.9250  212.9000  152.1060 C   0  0  2  0  0  3  0  0  0  0  0  0
  156.0720  212.8910  154.4240 O   0  0  0  0  0  0  0  0  0  0  0  0
  157.8560  211.3560  154.2690 C   0  0  0  0  0  3  0  0  0  0  0  0
  159.0810  211.0770  153.8240 C   0  0  0  0  0  3  0  0  0  0  0  0
  157.1830  212.6120  153.9010 C   0  0  0  0  0  0  0  0  0  0  0  0
  157.8310  213.5800  152.9470 C   0  0  2  0  0  3  0  0  0  0  0  0
  159.8570  212.0540  152.9870 C   0  0  1  0  0  3  0  0  0  0  0  0
  159.7010  213.9260  151.2650 C   0  0  0  0  0  2  0  0  0  0  0  0
  158.4480  213.3500  147.7440 C   0  0  0  0  0  0  0  0  0  0  0  0
  159.6730  213.6220  149.8000 C   0  0  0  0  0  0  0  0  0  0  0  0
  160.8180  213.2680  149.1540 N   0  0  0  0  0  0  0  0  0  0  0  0
  159.6340  212.9920  147.0990 C   0  0  0  0  0  3  0  0  0  0  0  0
  160.8260  212.9570  147.8270 C   0  0  0  0  0  0  0  0  0  0  0  0
  158.4650  213.6690  149.1010 C   0  0  0  0  0  3  0  0  0  0  0  0
  157.1710  213.3880  146.9860 C   0  0  0  0  0  1  0  0  0  0  0  0
  162.0120  212.6040  147.1810 O   0  0  0  0  0  0  0  0  0  0  0  0
  163.2310  212.4340  147.8880 C   0  0  0  0  0  1  0  0  0  0  0  0
  1  6  2  0  0  0  0
  1  3  1  0  0  0  0
  2  5  2  0  0  0  0
  3  4  2  0  0  0  0
  4  5  1  0  0  0  0
  6  2  1  0  0  0  0
  7  8  1  6  0  0  0
  7  6  1  0  0  0  0
  9 16  1  0  0  0  0
 10 13  1  0  0  0  0
 10 21  1  0  0  0  0
 10  7  1  1  0  0  0
 11 12  1  1  0  0  0
 11 13  1  0  0  0  0
 12 20  2  0  0  0  0
 13 21  1  0  0  0  0
 13 14  1  1  0  0  0
 16 12  1  0  0  0  0
 18 17  1  6  0  0  0
 18  9  1  0  0  0  0
 18 15  1  0  0  0  0
 19 15  1  6  0  0  0
 19 11  1  0  0  0  0
 19 10  1  0  0  0  0
 22  3  1  0  0  0  0
 24 31  1  1  0  0  0
 24 29  1  0  0  0  0
 24 30  1  0  0  0  0
 27 26  2  0  0  0  0
 28 26  1  0  0  0  0
 28 25  2  0  0  0  0
 29 23  1  6  0  0  0
 29 28  1  0  0  0  0
 30 22  1  6  0  0  0
 30 27  1  0  0  0  0
 32 37  1  0  0  0  0
 33 31  1  0  0  0  0
 34 33  1  0  0  0  0
 35 32  2  0  0  0  0
 35 36  1  0  0  0  0
 36 34  2  0  0  0  0
 37 33  2  0  0  0  0
 38 32  1  0  0  0  0
 39 36  1  0  0  0  0
 39 40  1  0  0  0  0
M  END
>  <MODEL>
4

>  <REMARK>
 VINA RESULT:      -6.3      2.498      5.060
  Name = 
  7 active torsions:
  status: ('A' for Active; 'I' for Inactive)
    1  A    between atoms: C_4  and  C_23
    2  A    between atoms: P_6  and  C_27
    3  A    between atoms: O_7  and  C_16
    4  A    between atoms: C_8  and  C_23
    5  A    between atoms: N_10  and  C_21
    6  A    between atoms: N_10  and  C_39
    7  A    between atoms: C_27  and  C_31
                            x       y       z     vdW  Elec       q    Type
                         _______ _______ _______ _____ _____    ______ ____

>  <TORSDO>
F 7

$$$$
=
 OpenBabel11072415133D

 40 45  0  0  1  0  0  0  0  0999 V2000
  160.8730  206.5480  151.1630 C   0  0  0  0  0  3  0  0  0  0  0  0
  161.6070  204.3480  150.5910 N   0  0  0  0  0  0  0  0  0  0  0  0
  160.8340  206.1840  152.5090 C   0  0  0  0  0  0  0  0  0  0  0  0
  161.1940  204.8820  152.8810 C   0  0  0  0  0  3  0  0  0  0  0  0
  161.5790  203.9700  151.8970 C   0  0  0  0  0  3  0  0  0  0  0  0
  161.2730  205.6090  150.2030 C   0  0  0  0  0  0  0  0  0  0  0  0
  161.2930  205.9570  148.7500 C   0  0  2  0  0  3  0  0  0  0  0  0
  160.0000  206.2050  148.2840 O   0  0  0  0  0  1  0  0  0  0  0  0
  159.3380  202.8510  144.5180 C   0  0  0  0  0  2  0  0  0  0  0  0
  162.0550  204.6110  147.7910 P   0  0  2  0  0  4  0  0  0  0  0  0
  161.8550  204.3120  145.3750 C   0  0  1  0  0  3  0  0  0  0  0  0
  160.9850  204.7500  144.2390 C   0  0  0  0  0  0  0  0  0  0  0  0
  162.6610  205.3270  146.1870 C   0  0  1  0  0  0  0  0  0  0  0  0
  162.2950  206.6730  146.1160 O   0  0  0  0  0  1  0  0  0  0  0  0
  160.8610  202.3710  146.5310 C   0  0  0  0  0  2  0  0  0  0  0  0
  159.9590  203.9090  143.7660 O   0  0  0  0  0  0  0  0  0  0  0  0
  159.7140  200.5190  145.3230 C   0  0  0  0  0  1  0  0  0  0  0  0
  160.3480  201.8830  145.1600 C   0  0  1  0  0  3  0  0  0  0  0  0
  160.9890  203.8830  146.5330 C   0  0  1  0  0  3  0  0  0  0  0  0
  161.2550  205.8040  143.6060 O   0  0  0  0  0  0  0  0  0  0  0  0
  163.7210  204.9730  147.1140 C   0  0  0  0  0  2  0  0  0  0  0  0
  160.4480  207.1550  153.4850 N   0  0  0  0  0  2  0  0  0  0  0  0
  161.3110  211.6230  155.1520 O   0  0  0  0  0  1  0  0  0  0  0  0
  160.9430  209.4680  154.1620 C   0  0  2  0  0  3  0  0  0  0  0  0
  162.6540  210.4720  157.2580 O   0  0  0  0  0  0  0  0  0  0  0  0
  161.9740  208.3190  156.5750 C   0  0  0  0  0  3  0  0  0  0  0  0
  161.5820  207.5070  155.5920 C   0  0  0  0  0  3  0  0  0  0  0  0
  162.1830  209.7550  156.3340 C   0  0  0  0  0  0  0  0  0  0  0  0
  161.8850  210.3610  154.9880 C   0  0  2  0  0  3  0  0  0  0  0  0
  161.4050  208.0020  154.1850 C   0  0  1  0  0  3  0  0  0  0  0  0
  160.7860  210.0000  152.7290 C   0  0  0  0  0  2  0  0  0  0  0  0
  159.1970  213.2730  151.6960 C   0  0  0  0  0  0  0  0  0  0  0  0
  159.8260  211.1450  152.6320 C   0  0  0  0  0  0  0  0  0  0  0  0
  158.7210  211.1770  153.4250 N   0  0  0  0  0  0  0  0  0  0  0  0
  158.0680  213.2860  152.5170 C   0  0  0  0  0  3  0  0  0  0  0  0
  157.8390  212.2160  153.3850 C   0  0  0  0  0  0  0  0  0  0  0  0
  160.0820  212.1960  151.7510 C   0  0  0  0  0  3  0  0  0  0  0  0
  159.4580  214.4040  150.7690 C   0  0  0  0  0  1  0  0  0  0  0  0
  156.7070  212.2270  154.2010 O   0  0  0  0  0  0  0  0  0  0  0  0
  156.2880  211.0780  154.9230 C   0  0  0  0  0  1  0  0  0  0  0  0
  1  3  1  0  0  0  0
  2  5  2  0  0  0  0
  3  4  2  0  0  0  0
  3 22  1  0  0  0  0
  5  4  1  0  0  0  0
  6  2  1  0  0  0  0
  6  1  2  0  0  0  0
  7  8  1  6  0  0  0
  7  6  1  0  0  0  0
  9 18  1  0  0  0  0
 10  7  1  1  0  0  0
 11 12  1  6  0  0  0
 11 13  1  0  0  0  0
 11 19  1  0  0  0  0
 13 14  1  6  0  0  0
 13 21  1  0  0  0  0
 13 10  1  0  0  0  0
 16 12  1  0  0  0  0
 16  9  1  0  0  0  0
 18 17  1  1  0  0  0
 18 15  1  0  0  0  0
 19 15  1  1  0  0  0
 19 10  1  0  0  0  0
 20 12  2  0  0  0  0
 21 10  1  0  0  0  0
 24 31  1  6  0  0  0
 24 30  1  0  0  0  0
 24 29  1  0  0  0  0
 27 26  2  0  0  0  0
 28 26  1  0  0  0  0
 28 25  2  0  0  0  0
 29 23  1  1  0  0  0
 29 28  1  0  0  0  0
 30 22  1  1  0  0  0
 30 27  1  0  0  0  0
 32 37  1  0  0  0  0
 32 35  2  0  0  0  0
 33 31  1  0  0  0  0
 33 34  1  0  0  0  0
 35 36  1  0  0  0  0
 36 34  2  0  0  0  0
 36 39  1  0  0  0  0
 37 33  2  0  0  0  0
 38 32  1  0  0  0  0
 39 40  1  0  0  0  0
M  END
>  <MODEL>
5

>  <REMARK>
 VINA RESULT:      -6.1      1.903      2.617
  Name = 
  7 active torsions:
  status: ('A' for Active; 'I' for Inactive)
    1  A    between atoms: C_4  and  C_23
    2  A    between atoms: P_6  and  C_27
    3  A    between atoms: O_7  and  C_16
    4  A    between atoms: C_8  and  C_23
    5  A    between atoms: N_10  and  C_21
    6  A    between atoms: N_10  and  C_39
    7  A    between atoms: C_27  and  C_31
                            x       y       z     vdW  Elec       q    Type
                         _______ _______ _______ _____ _____    ______ ____

>  <TORSDO>
F 7

$$$$
=
 OpenBabel11072415133D

 40 45  0  0  1  0  0  0  0  0999 V2000
  161.2340  207.7740  149.5580 C   0  0  0  0  0  3  0  0  0  0  0  0
  161.6510  206.1570  151.2680 N   0  0  0  0  0  0  0  0  0  0  0  0
  161.8530  208.7530  150.3360 C   0  0  0  0  0  0  0  0  0  0  0  0
  162.3740  208.4100  151.5900 C   0  0  0  0  0  3  0  0  0  0  0  0
  162.2600  207.0940  152.0420 C   0  0  0  0  0  3  0  0  0  0  0  0
  161.1460  206.4610  150.0410 C   0  0  0  0  0  0  0  0  0  0  0  0
  160.4590  205.3960  149.2490 C   0  0  2  0  0  3  0  0  0  0  0  0
  159.7060  204.5680  150.0830 O   0  0  0  0  0  1  0  0  0  0  0  0
  159.8360  201.3290  145.4490 C   0  0  0  0  0  2  0  0  0  0  0  0
  161.6800  204.4100  148.3280 P   0  0  2  0  0  4  0  0  0  0  0  0
  161.5140  203.8030  145.9690 C   0  0  1  0  0  3  0  0  0  0  0  0
  160.4870  203.7070  144.8840 C   0  0  0  0  0  0  0  0  0  0  0  0
  161.8400  205.1430  146.6280 C   0  0  1  0  0  0  0  0  0  0  0  0
  160.9270  206.1900  146.4910 O   0  0  0  0  0  1  0  0  0  0  0  0
  161.5120  201.7560  147.3480 C   0  0  0  0  0  2  0  0  0  0  0  0
  159.9030  202.4650  144.5680 O   0  0  0  0  0  0  0  0  0  0  0  0
  161.2210  199.4770  146.3870 C   0  0  0  0  0  1  0  0  0  0  0  0
  161.1950  200.9560  146.0680 C   0  0  1  0  0  3  0  0  0  0  0  0
  160.9750  203.1700  147.2270 C   0  0  1  0  0  3  0  0  0  0  0  0
  160.2440  204.7040  144.1530 O   0  0  0  0  0  0  0  0  0  0  0  0
  162.9930  205.3730  147.4810 C   0  0  0  0  0  2  0  0  0  0  0  0
  161.9610  210.0850  149.8260 N   0  0  0  0  0  2  0  0  0  0  0  0
  159.7750  214.4050  149.6130 O   0  0  0  0  0  1  0  0  0  0  0  0
  161.0100  212.3490  149.6580 C   0  0  2  0  0  3  0  0  0  0  0  0
  158.8620  213.9590  152.1690 O   0  0  0  0  0  0  0  0  0  0  0  0
  159.6930  211.7530  152.1300 C   0  0  0  0  0  3  0  0  0  0  0  0
  160.5690  210.8740  151.6400 C   0  0  0  0  0  3  0  0  0  0  0  0
  159.6270  213.1280  151.6110 C   0  0  0  0  0  0  0  0  0  0  0  0
  160.4940  213.5570  150.4580 C   0  0  2  0  0  3  0  0  0  0  0  0
  161.5700  211.2630  150.5910 C   0  0  1  0  0  3  0  0  0  0  0  0
  162.0340  212.7790  148.5950 C   0  0  0  0  0  2  0  0  0  0  0  0
  161.7950  212.9540  144.8250 C   0  0  0  0  0  0  0  0  0  0  0  0
  161.4840  212.7400  147.2040 C   0  0  0  0  0  0  0  0  0  0  0  0
  160.1560  212.5220  147.0020 N   0  0  0  0  0  0  0  0  0  0  0  0
  160.4300  212.7270  144.6390 C   0  0  0  0  0  3  0  0  0  0  0  0
  159.6130  212.5070  145.7510 C   0  0  0  0  0  0  0  0  0  0  0  0
  162.3280  212.9590  146.1140 C   0  0  0  0  0  3  0  0  0  0  0  0
  162.6780  213.1940  143.6540 C   0  0  0  0  0  1  0  0  0  0  0  0
  158.2500  212.2750  145.5630 O   0  0  0  0  0  0  0  0  0  0  0  0
  157.2960  212.5320  146.5830 C   0  0  0  0  0  1  0  0  0  0  0  0
  1  6  2  0  0  0  0
  1  3  1  0  0  0  0
  2  5  2  0  0  0  0
  3  4  2  0  0  0  0
  4  5  1  0  0  0  0
  6  2  1  0  0  0  0
  7  6  1  0  0  0  0
  7  8  1  1  0  0  0
  9 18  1  0  0  0  0
 10  7  1  1  0  0  0
 11 12  1  6  0  0  0
 11 13  1  0  0  0  0
 11 19  1  0  0  0  0
 13 14  1  6  0  0  0
 13 21  1  0  0  0  0
 13 10  1  0  0  0  0
 16 12  1  0  0  0  0
 16  9  1  0  0  0  0
 18 17  1  1  0  0  0
 18 15  1  0  0  0  0
 19 15  1  1  0  0  0
 19 10  1  0  0  0  0
 20 12  2  0  0  0  0
 21 10  1  0  0  0  0
 22  3  1  0  0  0  0
 24 31  1  6  0  0  0
 24 29  1  0  0  0  0
 24 30  1  0  0  0  0
 27 26  2  0  0  0  0
 28 26  1  0  0  0  0
 28 25  2  0  0  0  0
 29 23  1  6  0  0  0
 29 28  1  0  0  0  0
 30 22  1  6  0  0  0
 30 27  1  0  0  0  0
 32 37  1  0  0  0  0
 33 31  1  0  0  0  0
 34 33  1  0  0  0  0
 35 32  2  0  0  0  0
 35 36  1  0  0  0  0
 36 34  2  0  0  0  0
 37 33  2  0  0  0  0
 38 32  1  0  0  0  0
 39 36  1  0  0  0  0
 39 40  1  0  0  0  0
M  END
>  <MODEL>
6

>  <REMARK>
 VINA RESULT:      -6.1      3.144      5.079
  Name = 
  7 active torsions:
  status: ('A' for Active; 'I' for Inactive)
    1  A    between atoms: C_4  and  C_23
    2  A    between atoms: P_6  and  C_27
    3  A    between atoms: O_7  and  C_16
    4  A    between atoms: C_8  and  C_23
    5  A    between atoms: N_10  and  C_21
    6  A    between atoms: N_10  and  C_39
    7  A    between atoms: C_27  and  C_31
                            x       y       z     vdW  Elec       q    Type
                         _______ _______ _______ _____ _____    ______ ____

>  <TORSDO>
F 7

$$$$
=
 OpenBabel11072415133D

 40 45  0  0  1  0  0  0  0  0999 V2000
  161.0870  210.5150  150.8810 C   0  0  0  0  0  3  0  0  0  0  0  0
  161.1170  212.4470  149.4760 N   0  0  0  0  0  0  0  0  0  0  0  0
  161.9080  209.8450  149.9740 C   0  0  0  0  0  0  0  0  0  0  0  0
  162.3310  210.5030  148.8110 C   0  0  0  0  0  3  0  0  0  0  0  0
  161.9190  211.8160  148.5790 C   0  0  0  0  0  3  0  0  0  0  0  0
  160.6990  211.8360  150.6190 C   0  0  0  0  0  0  0  0  0  0  0  0
  159.7930  212.5700  151.5520 C   0  0  2  0  0  3  0  0  0  0  0  0
  160.4530  213.6560  152.1300 O   0  0  0  0  0  1  0  0  0  0  0  0
  161.9780  211.0660  156.4850 C   0  0  0  0  0  2  0  0  0  0  0  0
  159.1820  211.4500  152.8490 P   0  0  2  0  0  4  0  0  0  0  0  0
  159.3230  211.8630  155.2520 C   0  0  1  0  0  3  0  0  0  0  0  0
  160.0800  212.7160  156.2210 C   0  0  0  0  0  0  0  0  0  0  0  0
  158.4210  212.4890  154.1880 C   0  0  1  0  0  0  0  0  0  0  0  0
  158.5980  213.8390  153.8800 O   0  0  0  0  0  1  0  0  0  0  0  0
  160.6150  209.8370  154.6870 C   0  0  0  0  0  2  0  0  0  0  0  0
  161.1900  212.1920  156.9110 O   0  0  0  0  0  0  0  0  0  0  0  0
  161.9520  208.5730  156.3660 C   0  0  0  0  0  1  0  0  0  0  0  0
  161.1340  209.8260  156.1390 C   0  0  1  0  0  3  0  0  0  0  0  0
  160.2850  211.2560  154.2620 C   0  0  1  0  0  3  0  0  0  0  0  0
  159.6440  213.8560  156.5340 O   0  0  0  0  0  0  0  0  0  0  0  0
  157.4560  211.7460  153.3970 C   0  0  0  0  0  2  0  0  0  0  0  0
  162.3190  208.5060  150.2600 N   0  0  0  0  0  2  0  0  0  0  0  0
  160.4510  204.0360  150.4190 O   0  0  0  0  0  1  0  0  0  0  0  0
  161.2310  206.2980  150.2370 C   0  0  2  0  0  3  0  0  0  0  0  0
  160.8300  204.0810  153.1420 O   0  0  0  0  0  0  0  0  0  0  0  0
  161.9910  206.1280  152.9940 C   0  0  0  0  0  3  0  0  0  0  0  0
  162.2130  207.2660  152.3350 C   0  0  0  0  0  3  0  0  0  0  0  0
  161.0990  205.0950  152.4450 C   0  0  0  0  0  0  0  0  0  0  0  0
  160.4730  205.2620  151.0860 C   0  0  2  0  0  3  0  0  0  0  0  0
  161.5130  207.5770  151.0430 C   0  0  1  0  0  3  0  0  0  0  0  0
  160.4880  206.5960  148.9250 C   0  0  0  0  0  2  0  0  0  0  0  0
  161.2440  205.2880  145.4590 C   0  0  0  0  0  0  0  0  0  0  0  0
  160.8890  205.6850  147.8070 C   0  0  0  0  0  0  0  0  0  0  0  0
  161.2100  204.3880  148.0660 N   0  0  0  0  0  0  0  0  0  0  0  0
  161.5720  203.9610  145.7450 C   0  0  0  0  0  3  0  0  0  0  0  0
  161.5520  203.5210  147.0710 C   0  0  0  0  0  0  0  0  0  0  0  0
  160.9020  206.1570  146.4940 C   0  0  0  0  0  3  0  0  0  0  0  0
  161.2560  205.7720  144.0540 C   0  0  0  0  0  1  0  0  0  0  0  0
  161.8850  202.1970  147.3570 O   0  0  0  0  0  0  0  0  0  0  0  0
  161.1060  201.3980  148.2350 C   0  0  0  0  0  1  0  0  0  0  0  0
  2  6  2  0  0  0  0
  3 22  1  0  0  0  0
  3  1  2  0  0  0  0
  4  3  1  0  0  0  0
  5  4  2  0  0  0  0
  5  2  1  0  0  0  0
  6  1  1  0  0  0  0
  6  7  1  0  0  0  0
  7  8  1  1  0  0  0
  9 16  1  0  0  0  0
 10  7  1  6  0  0  0
 10 21  1  0  0  0  0
 10 13  1  0  0  0  0
 10 19  1  0  0  0  0
 11 12  1  1  0  0  0
 12 20  2  0  0  0  0
 12 16  1  0  0  0  0
 13 14  1  6  0  0  0
 13 11  1  0  0  0  0
 15 18  1  0  0  0  0
 18 17  1  6  0  0  0
 18  9  1  0  0  0  0
 19 15  1  1  0  0  0
 19 11  1  0  0  0  0
 21 13  1  0  0  0  0
 24 31  1  6  0  0  0
 24 30  1  0  0  0  0
 24 29  1  0  0  0  0
 27 26  2  0  0  0  0
 28 26  1  0  0  0  0
 28 25  2  0  0  0  0
 29 23  1  6  0  0  0
 29 28  1  0  0  0  0
 30 22  1  6  0  0  0
 30 27  1  0  0  0  0
 32 35  2  0  0  0  0
 32 37  1  0  0  0  0
 33 34  1  0  0  0  0
 33 31  1  0  0  0  0
 35 36  1  0  0  0  0
 36 39  1  0  0  0  0
 36 34  2  0  0  0  0
 37 33  2  0  0  0  0
 38 32  1  0  0  0  0
 39 40  1  0  0  0  0
M  END
>  <MODEL>
7

>  <REMARK>
 VINA RESULT:      -6.0      2.717      9.314
  Name = 
  7 active torsions:
  status: ('A' for Active; 'I' for Inactive)
    1  A    between atoms: C_4  and  C_23
    2  A    between atoms: P_6  and  C_27
    3  A    between atoms: O_7  and  C_16
    4  A    between atoms: C_8  and  C_23
    5  A    between atoms: N_10  and  C_21
    6  A    between atoms: N_10  and  C_39
    7  A    between atoms: C_27  and  C_31
                            x       y       z     vdW  Elec       q    Type
                         _______ _______ _______ _____ _____    ______ ____

>  <TORSDO>
F 7

$$$$
=
 OpenBabel11072415133D

 40 45  0  0  1  0  0  0  0  0999 V2000
  161.1950  207.6240  150.7360 C   0  0  0  0  0  3  0  0  0  0  0  0
  162.1900  209.7920  150.8780 N   0  0  0  0  0  0  0  0  0  0  0  0
  161.3280  207.6560  149.3470 C   0  0  0  0  0  0  0  0  0  0  0  0
  161.9050  208.7770  148.7350 C   0  0  0  0  0  3  0  0  0  0  0  0
  162.3320  209.8450  149.5270 C   0  0  0  0  0  3  0  0  0  0  0  0
  161.6430  208.7100  151.4990 C   0  0  0  0  0  0  0  0  0  0  0  0
  161.4850  208.7230  152.9840 C   0  0  2  0  0  3  0  0  0  0  0  0
  160.2750  208.1340  153.3580 O   0  0  0  0  0  1  0  0  0  0  0  0
  157.4750  212.2740  154.6220 C   0  0  0  0  0  2  0  0  0  0  0  0
  161.5690  210.4280  153.6130 P   0  0  2  0  0  4  0  0  0  0  0  0
  160.2340  211.3220  155.4520 C   0  0  1  0  0  3  0  0  0  0  0  0
  158.9820  211.0090  156.2110 C   0  0  0  0  0  0  0  0  0  0  0  0
  161.4240  210.3610  155.4640 C   0  0  1  0  0  0  0  0  0  0  0  0
  161.2060  209.0410  155.8610 O   0  0  0  0  0  1  0  0  0  0  0  0
  159.7050  212.5500  153.3770 C   0  0  0  0  0  2  0  0  0  0  0  0
  157.7760  211.6590  155.8880 O   0  0  0  0  0  0  0  0  0  0  0  0
  157.9460  214.3090  153.2570 C   0  0  0  0  0  1  0  0  0  0  0  0
  158.5640  213.2500  154.1440 C   0  0  1  0  0  3  0  0  0  0  0  0
  159.9720  211.1800  153.9740 C   0  0  1  0  0  3  0  0  0  0  0  0
  159.0310  210.2750  157.2330 O   0  0  0  0  0  0  0  0  0  0  0  0
  162.7520  210.7030  154.9880 C   0  0  0  0  0  2  0  0  0  0  0  0
  160.8910  206.5330  148.5780 N   0  0  0  0  0  2  0  0  0  0  0  0
  161.5780  203.0570  145.2710 O   0  0  0  0  0  1  0  0  0  0  0  0
  161.3960  204.7250  146.9860 C   0  0  2  0  0  3  0  0  0  0  0  0
  161.0630  204.9360  143.3310 O   0  0  0  0  0  0  0  0  0  0  0  0
  160.4560  206.5240  144.9660 C   0  0  0  0  0  3  0  0  0  0  0  0
  160.5630  206.9650  146.2200 C   0  0  0  0  0  3  0  0  0  0  0  0
  161.0950  205.2670  144.5470 C   0  0  0  0  0  0  0  0  0  0  0  0
  161.8220  204.4040  145.5430 C   0  0  2  0  0  3  0  0  0  0  0  0
  161.3930  206.2410  147.2410 C   0  0  1  0  0  3  0  0  0  0  0  0
  162.2660  203.9720  148.0050 C   0  0  0  0  0  2  0  0  0  0  0  0
  159.8030  201.6990  149.7580 C   0  0  0  0  0  0  0  0  0  0  0  0
  161.4630  203.3070  149.0800 C   0  0  0  0  0  0  0  0  0  0  0  0
  161.5810  203.7170  150.3720 N   0  0  0  0  0  0  0  0  0  0  0  0
  159.9400  202.1330  151.0780 C   0  0  0  0  0  3  0  0  0  0  0  0
  160.8460  203.1540  151.3730 C   0  0  0  0  0  0  0  0  0  0  0  0
  160.5690  202.2860  148.7520 C   0  0  0  0  0  3  0  0  0  0  0  0
  158.8410  200.6170  149.4260 C   0  0  0  0  0  1  0  0  0  0  0  0
  160.9860  203.5840  152.6940 O   0  0  0  0  0  0  0  0  0  0  0  0
  161.2060  204.9490  153.0210 C   0  0  0  0  0  1  0  0  0  0  0  0
  1  6  1  0  0  0  0
  2  6  2  0  0  0  0
  3  1  2  0  0  0  0
  4  3  1  0  0  0  0
  4  5  2  0  0  0  0
  5  2  1  0  0  0  0
  6  7  1  0  0  0  0
  7  8  1  6  0  0  0
  9 16  1  0  0  0  0
 10  7  1  6  0  0  0
 10 19  1  0  0  0  0
 10 21  1  0  0  0  0
 10 13  1  0  0  0  0
 11 13  1  0  0  0  0
 11 12  1  1  0  0  0
 12 20  2  0  0  0  0
 13 14  1  1  0  0  0
 15 18  1  0  0  0  0
 16 12  1  0  0  0  0
 18 17  1  6  0  0  0
 18  9  1  0  0  0  0
 19 15  1  6  0  0  0
 19 11  1  0  0  0  0
 21 13  1  0  0  0  0
 22  3  1  0  0  0  0
 24 30  1  0  0  0  0
 24 31  1  1  0  0  0
 25 28  2  0  0  0  0
 26 27  2  0  0  0  0
 27 30  1  0  0  0  0
 28 26  1  0  0  0  0
 28 29  1  0  0  0  0
 29 23  1  6  0  0  0
 29 24  1  0  0  0  0
 30 22  1  1  0  0  0
 31 33  1  0  0  0  0
 32 35  2  0  0  0  0
 33 34  1  0  0  0  0
 34 36  2  0  0  0  0
 35 36  1  0  0  0  0
 36 39  1  0  0  0  0
 37 33  2  0  0  0  0
 37 32  1  0  0  0  0
 38 32  1  0  0  0  0
 39 40  1  0  0  0  0
M  END
>  <MODEL>
8

>  <REMARK>
 VINA RESULT:      -6.0      2.410     10.020
  Name = 
  7 active torsions:
  status: ('A' for Active; 'I' for Inactive)
    1  A    between atoms: C_4  and  C_23
    2  A    between atoms: P_6  and  C_27
    3  A    between atoms: O_7  and  C_16
    4  A    between atoms: C_8  and  C_23
    5  A    between atoms: N_10  and  C_21
    6  A    between atoms: N_10  and  C_39
    7  A    between atoms: C_27  and  C_31
                            x       y       z     vdW  Elec       q    Type
                         _______ _______ _______ _____ _____    ______ ____

>  <TORSDO>
F 7

$$$$
=
 OpenBabel11072415133D

 40 45  0  0  1  0  0  0  0  0999 V2000
  161.7340  208.8430  148.5030 C   0  0  0  0  0  3  0  0  0  0  0  0
  161.9350  206.7970  149.7210 N   0  0  0  0  0  0  0  0  0  0  0  0
  161.9640  209.5620  149.6770 C   0  0  0  0  0  0  0  0  0  0  0  0
  162.1840  208.8720  150.8760 C   0  0  0  0  0  3  0  0  0  0  0  0
  162.1640  207.4760  150.8770 C   0  0  0  0  0  3  0  0  0  0  0  0
  161.7290  207.4430  148.5400 C   0  0  0  0  0  0  0  0  0  0  0  0
  161.4520  206.6430  147.3090 C   0  0  2  0  0  3  0  0  0  0  0  0
  160.0800  206.4320  147.1550 O   0  0  0  0  0  1  0  0  0  0  0  0
  159.5590  201.4090  147.9410 C   0  0  0  0  0  2  0  0  0  0  0  0
  162.3230  205.0470  147.3840 P   0  0  2  0  0  4  0  0  0  0  0  0
  161.5800  202.9820  146.3140 C   0  0  1  0  0  3  0  0  0  0  0  0
  160.3380  202.3770  145.7390 C   0  0  0  0  0  0  0  0  0  0  0  0
  162.1920  204.2470  145.7120 C   0  0  1  0  0  0  0  0  0  0  0  0
  161.3960  205.0400  144.8840 O   0  0  0  0  0  1  0  0  0  0  0  0
  161.6450  202.6650  148.7610 C   0  0  0  0  0  2  0  0  0  0  0  0
  159.5620  201.4860  146.5040 O   0  0  0  0  0  0  0  0  0  0  0  0
  160.8940  200.5670  149.8740 C   0  0  0  0  0  1  0  0  0  0  0  0
  160.9680  201.2950  148.5500 C   0  0  1  0  0  3  0  0  0  0  0  0
  161.2590  203.6160  147.6430 C   0  0  1  0  0  3  0  0  0  0  0  0
  160.0580  202.5470  144.5220 O   0  0  0  0  0  0  0  0  0  0  0  0
  163.5210  204.7400  146.0290 C   0  0  0  0  0  2  0  0  0  0  0  0
  161.9910  210.9910  149.6270 N   0  0  0  0  0  2  0  0  0  0  0  0
  158.5310  214.2430  150.5980 O   0  0  0  0  0  1  0  0  0  0  0  0
  160.3470  212.7720  150.0530 C   0  0  2  0  0  3  0  0  0  0  0  0
  158.3450  213.1470  153.1130 O   0  0  0  0  0  0  0  0  0  0  0  0
  159.8180  211.4060  152.5150 C   0  0  0  0  0  3  0  0  0  0  0  0
  160.8140  210.9730  151.7400 C   0  0  0  0  0  3  0  0  0  0  0  0
  159.2090  212.7270  152.2980 C   0  0  0  0  0  0  0  0  0  0  0  0
  159.6400  213.5940  151.1450 C   0  0  2  0  0  3  0  0  0  0  0  0
  161.4030  211.8340  150.6600 C   0  0  1  0  0  3  0  0  0  0  0  0
  160.9420  213.6820  148.9670 C   0  0  0  0  0  2  0  0  0  0  0  0
  158.5250  212.8480  146.1790 C   0  0  0  0  0  0  0  0  0  0  0  0
  160.3850  213.4060  147.6050 C   0  0  0  0  0  0  0  0  0  0  0  0
  161.2090  213.3860  146.5220 N   0  0  0  0  0  0  0  0  0  0  0  0
  159.3870  212.8350  145.0810 C   0  0  0  0  0  3  0  0  0  0  0  0
  160.7430  213.1120  145.2700 C   0  0  0  0  0  0  0  0  0  0  0  0
  159.0240  213.1370  147.4490 C   0  0  0  0  0  3  0  0  0  0  0  0
  157.0800  212.5520  145.9970 C   0  0  0  0  0  1  0  0  0  0  0  0
  161.6030  213.1040  144.1710 O   0  0  0  0  0  0  0  0  0  0  0  0
  162.9980  213.3290  144.3070 C   0  0  0  0  0  1  0  0  0  0  0  0
  1  6  2  0  0  0  0
  1  3  1  0  0  0  0
  2  5  2  0  0  0  0
  3  4  2  0  0  0  0
  4  5  1  0  0  0  0
  6  2  1  0  0  0  0
  7  8  1  1  0  0  0
  7  6  1  0  0  0  0
  9 18  1  0  0  0  0
 10  7  1  1  0  0  0
 10 19  1  0  0  0  0
 11 12  1  6  0  0  0
 11 19  1  0  0  0  0
 12 16  1  0  0  0  0
 13 14  1  6  0  0  0
 13 21  1  0  0  0  0
 13 11  1  0  0  0  0
 13 10  1  0  0  0  0
 16  9  1  0  0  0  0
 18 15  1  0  0  0  0
 18 17  1  1  0  0  0
 19 15  1  1  0  0  0
 20 12  2  0  0  0  0
 21 10  1  0  0  0  0
 22  3  1  0  0  0  0
 24 31  1  6  0  0  0
 24 30  1  0  0  0  0
 24 29  1  0  0  0  0
 27 26  2  0  0  0  0
 28 26  1  0  0  0  0
 28 25  2  0  0  0  0
 29 23  1  6  0  0  0
 29 28  1  0  0  0  0
 30 22  1  6  0  0  0
 30 27  1  0  0  0  0
 32 37  1  0  0  0  0
 33 31  1  0  0  0  0
 34 33  1  0  0  0  0
 35 36  1  0  0  0  0
 35 32  2  0  0  0  0
 36 34  2  0  0  0  0
 37 33  2  0  0  0  0
 38 32  1  0  0  0  0
 39 40  1  0  0  0  0
 39 36  1  0  0  0  0
M  END
>  <MODEL>
9

>  <REMARK>
 VINA RESULT:      -6.0      2.861      4.911
  Name = 
  7 active torsions:
  status: ('A' for Active; 'I' for Inactive)
    1  A    between atoms: C_4  and  C_23
    2  A    between atoms: P_6  and  C_27
    3  A    between atoms: O_7  and  C_16
    4  A    between atoms: C_8  and  C_23
    5  A    between atoms: N_10  and  C_21
    6  A    between atoms: N_10  and  C_39
    7  A    between atoms: C_27  and  C_31
                            x       y       z     vdW  Elec       q    Type
                         _______ _______ _______ _____ _____    ______ ____

>  <TORSDO>
F 7

$$$$
