=
 OpenBabel11072413503D

 67 73  0  0  1  0  0  0  0  0999 V2000
  160.1090  212.2710  153.6760 C   0  0  0  0  0  0  0  0  0  0  0  0
  161.2110  208.9200  153.1290 C   0  0  2  0  0  3  0  0  0  0  0  0
  163.8740  208.9950  148.7320 C   0  0  0  0  0  0  0  0  0  0  0  0
  163.6840  210.1410  149.7260 C   0  0  2  0  0  3  0  0  0  0  0  0
  163.2340  207.7850  152.3670 O   0  0  0  0  0  1  0  0  0  0  0  0
  161.6620  208.6350  149.8770 C   0  0  2  0  0  3  0  0  0  0  0  0
  161.8370  207.7410  152.3530 C   0  0  2  0  0  3  0  0  0  0  0  0
  162.6400  208.1450  148.8390 C   0  0  0  0  0  0  0  0  0  0  0  0
  164.0180  209.4820  147.4230 O   0  0  0  0  0  1  0  0  0  0  0  0
  161.7090  210.8160  151.3480 C   0  0  1  0  0  3  0  0  0  0  0  0
  159.8350  214.4150  154.5520 O   0  0  0  0  0  1  0  0  0  0  0  0
  160.2730  205.0230  149.7110 C   0  0  1  0  0  3  0  0  0  0  0  0
  161.1970  206.3500  147.7380 C   0  0  1  0  0  3  0  0  0  0  0  0
  160.0290  204.3860  148.4850 O   0  0  0  0  0  0  0  0  0  0  0  0
  161.2550  205.0720  148.5840 C   0  0  2  0  0  3  0  0  0  0  0  0
  159.8000  207.1470  150.9630 C   0  0  1  0  0  3  0  0  0  0  0  0
  158.8590  208.3370  151.0220 C   0  0  0  0  0  1  0  0  0  0  0  0
  161.4070  210.6040  154.7270 O   0  0  0  0  0  0  0  0  0  0  0  0
  160.7790  210.2400  152.4470 C   0  0  2  0  0  3  0  0  0  0  0  0
  160.7640  211.1430  153.6250 C   0  0  0  0  0  0  0  0  0  0  0  0
  159.3780  206.2520  149.8160 C   0  0  0  0  0  2  0  0  0  0  0  0
  162.4570  209.7530  150.5470 C   0  0  2  0  0  3  0  0  0  0  0  0
  163.4870  211.3620  149.0680 O   0  0  0  0  0  1  0  0  0  0  0  0
  161.8690  209.2920  154.4620 C   0  0  1  0  0  3  0  0  0  0  0  0
  159.4360  213.3870  153.7070 C   0  0  0  0  0  0  0  0  0  0  0  0
  161.2910  207.5450  150.9220 C   0  0  1  0  0  3  0  0  0  0  0  0
  162.4320  207.1850  147.9210 C   0  0  0  0  0  3  0  0  0  0  0  0
  165.0080  208.2500  149.0750 O   0  0  0  0  0  1  0  0  0  0  0  0
  160.6130  213.4220  147.8320 C   0  0  0  0  0  2  0  0  0  0  0  0
  160.5150  211.2250  149.0930 C   0  0  0  0  0  2  0  0  0  0  0  0
  158.1300  213.5110  148.2580 C   0  0  0  0  0  0  0  0  0  0  0  0
  159.4880  213.6670  150.2900 O   0  0  0  0  0  0  0  0  0  0  0  0
  156.8380  213.4450  147.6790 C   0  0  0  0  0  0  0  0  0  0  0  0
  161.0980  211.9750  147.9030 C   0  0  0  0  0  2  0  0  0  0  0  0
  161.0200  211.8180  150.4080 C   0  0  1  0  0  3  0  0  0  0  0  0
  155.8340  213.5310  149.8940 C   0  0  0  0  0  3  0  0  0  0  0  0
  155.7070  213.4550  148.5090 C   0  0  0  0  0  3  0  0  0  0  0  0
  159.9460  212.6180  151.1310 C   0  0  0  0  0  2  0  0  0  0  0  0
  159.2530  213.4860  147.4100 O   0  0  0  0  0  0  0  0  0  0  0  0
  158.2450  213.5920  149.6700 C   0  0  0  0  0  0  0  0  0  0  0  0
  157.0970  213.6000  150.4700 C   0  0  0  0  0  3  0  0  0  0  0  0
  155.5710  213.8490  145.7050 O   0  0  0  0  0  1  0  0  0  0  0  0
  156.6250  213.3780  146.2120 C   0  0  0  0  0  0  0  0  0  0  0  0
  157.5890  212.8430  145.3710 O   0  0  0  0  0  0  0  0  0  0  0  0
  162.6130  207.5830  155.9820 F   0  0  0  0  0  0  0  0  0  0  0  0
  161.4970  208.3200  155.5970 C   0  0  0  0  0  0  0  0  0  0  0  0
  160.5700  207.4260  155.0940 F   0  0  0  0  0  0  0  0  0  0  0  0
  160.9050  208.9860  156.6990 O   0  0  0  0  0  0  0  0  0  0  0  0
  159.5060  208.9400  156.5820 C   0  0  0  0  0  2  0  0  0  0  0  0
  159.0040  210.2180  156.4240 F   0  0  0  0  0  0  0  0  0  0  0  0
  160.9690  206.0020  146.2610 C   0  0  1  0  0  3  0  0  0  0  0  0
  160.0160  206.9960  145.6120 C   0  0  0  0  0  1  0  0  0  0  0  0
  162.9090  204.7660  145.2700 C   0  0  0  0  0  3  0  0  0  0  0  0
  162.2500  205.9120  145.4780 C   0  0  0  0  0  3  0  0  0  0  0  0
  162.4510  203.4560  145.8200 C   0  0  0  0  0  2  0  0  0  0  0  0
  161.1440  203.0690  145.1570 C   0  0  0  0  0  2  0  0  0  0  0  0
  159.6090  201.2550  144.8740 O   0  0  0  0  0  1  0  0  0  0  0  0
  160.7020  201.6920  145.6250 C   0  0  2  0  0  3  0  0  0  0  0  0
  160.3570  201.6900  147.1120 C   0  0  0  0  0  2  0  0  0  0  0  0
  161.4030  200.9780  147.9640 C   0  0  2  0  0  3  0  0  0  0  0  0
  161.6070  199.6840  147.4910 O   0  0  0  0  0  1  0  0  0  0  0  0
  159.8930  201.4020  149.7360 O   0  0  0  0  0  0  0  0  0  0  0  0
  160.9630  200.9280  149.3900 C   0  0  0  0  0  3  0  0  0  0  0  0
  158.2630  213.5640  152.8060 C   0  0  0  0  0  2  0  0  0  0  0  0
  157.1500  214.3180  153.5120 C   0  0  0  0  0  2  0  0  0  0  0  0
  156.2620  212.7580  155.2560 C   0  0  0  0  0  1  0  0  0  0  0  0
  156.0290  213.3630  153.8770 C   0  0  0  0  0  2  0  0  0  0  0  0
  1 25  2  0  0  0  0
  2 24  1  0  0  0  0
  3  8  1  0  0  0  0
  3 28  1  0  0  0  0
  3  4  1  0  0  0  0
  4 22  1  0  0  0  0
  6 22  1  0  0  0  0
  6 26  1  0  0  0  0
  7  5  1  0  0  0  0
  7  2  1  0  0  0  0
  8  6  1  0  0  0  0
  9  3  1  0  0  0  0
 10 19  1  0  0  0  0
 12 21  1  0  0  0  0
 13 27  1  0  0  0  0
 13 15  1  0  0  0  0
 14 15  1  0  0  0  0
 14 12  1  0  0  0  0
 15 12  1  0  0  0  0
 16 17  1  0  0  0  0
 19  2  1  0  0  0  0
 19 20  1  0  0  0  0
 20  1  2  0  0  0  0
 20 18  1  0  0  0  0
 21 16  1  0  0  0  0
 22 10  1  0  0  0  0
 23  4  1  0  0  0  0
 24 18  1  0  0  0  0
 24 46  1  0  0  0  0
 25 11  1  0  0  0  0
 26 16  1  0  0  0  0
 26  7  1  0  0  0  0
 27  8  2  0  0  0  0
 29 34  1  0  0  0  0
 30 35  1  0  0  0  0
 31 40  1  0  0  0  0
 32 38  1  0  0  0  0
 33 31  2  0  0  0  0
 33 37  1  0  0  0  0
 34 30  1  0  0  0  0
 35 38  1  0  0  0  0
 35 10  1  0  0  0  0
 36 41  1  0  0  0  0
 37 36  2  0  0  0  0
 39 29  1  0  0  0  0
 39 31  1  0  0  0  0
 40 32  1  0  0  0  0
 40 41  2  0  0  0  0
 42 43  1  0  0  0  0
 43 33  1  0  0  0  0
 44 43  2  0  0  0  0
 46 45  1  0  0  0  0
 46 48  1  0  0  0  0
 47 46  1  0  0  0  0
 49 48  1  0  0  0  0
 50 49  1  0  0  0  0
 51 13  1  0  0  0  0
 52 51  1  0  0  0  0
 53 54  2  0  0  0  0
 53 55  1  0  0  0  0
 54 51  1  0  0  0  0
 56 58  1  0  0  0  0
 56 55  1  0  0  0  0
 57 58  1  0  0  0  0
 58 59  1  0  0  0  0
 59 60  1  0  0  0  0
 60 63  1  0  0  0  0
 61 60  1  0  0  0  0
 63 62  2  0  0  0  0
 64 65  1  0  0  0  0
 64 25  1  0  0  0  0
 65 67  1  0  0  0  0
 67 66  1  0  0  0  0
M  END
>  <MODEL>
1

>  <REMARK>
 VINA RESULT:      19.2      0.000      0.000
  Name = 
  16 active torsions:
  status: ('A' for Active; 'I' for Inactive)
    1  A    between atoms: C_7  and  C_23
    2  A    between atoms: C_7  and  C_64
    3  A    between atoms: C_8  and  C_35
    4  A    between atoms: C_8  and  C_59
    5  A    between atoms: O_14  and  C_27
    6  A    between atoms: O_14  and  C_38
    7  A    between atoms: C_21  and  C_40
    8  A    between atoms: C_22  and  C_36
    9  A    between atoms: C_26  and  C_28
   10  A    between atoms: C_29  and  C_40
   11  A    between atoms: C_29  and  C_53
   12  A    between atoms: C_31  and  C_42
   13  A    between atoms: C_31  and  C_56
   14  A    between atoms: C_38  and  C_54
   15  A    between atoms: C_53  and  C_64
   16  A    between atoms: C_55  and  C_56
                            x       y       z     vdW  Elec       q    Type
                         _______ _______ _______ _____ _____    ______ ____

>  <TORSDO>
F 16

$$$$
=
 OpenBabel11072413503D

 67 73  0  0  1  0  0  0  0  0999 V2000
  162.4130  207.7680  147.5130 C   0  0  0  0  0  0  0  0  0  0  0  0
  162.3950  210.9260  149.1760 C   0  0  2  0  0  3  0  0  0  0  0  0
  162.5510  209.8900  154.2090 C   0  0  0  0  0  0  0  0  0  0  0  0
  163.1070  209.0400  153.0640 C   0  0  2  0  0  3  0  0  0  0  0  0
  163.5130  211.9740  151.0760 O   0  0  0  0  0  1  0  0  0  0  0  0
  161.1480  210.3640  152.1740 C   0  0  2  0  0  3  0  0  0  0  0  0
  162.3090  211.9000  150.3710 C   0  0  2  0  0  3  0  0  0  0  0  0
  161.3770  210.6340  153.6390 C   0  0  0  0  0  0  0  0  0  0  0  0
  162.1410  209.0820  155.2810 O   0  0  0  0  0  1  0  0  0  0  0  0
  162.3490  208.6680  150.5590 C   0  0  1  0  0  3  0  0  0  0  0  0
  163.0460  205.9220  146.2350 O   0  0  0  0  0  1  0  0  0  0  0  0
  159.1400  213.6750  152.2750 C   0  0  1  0  0  3  0  0  0  0  0  0
  159.2470  211.9460  154.1480 C   0  0  1  0  0  3  0  0  0  0  0  0
  158.2090  213.9380  153.2900 O   0  0  0  0  0  0  0  0  0  0  0  0
  159.4410  213.4050  153.7140 C   0  0  2  0  0  3  0  0  0  0  0  0
  159.7810  211.9330  150.5840 C   0  0  1  0  0  3  0  0  0  0  0  0
  159.2550  210.7310  149.8200 C   0  0  0  0  0  1  0  0  0  0  0  0
  163.6810  209.7540  147.6270 O   0  0  0  0  0  0  0  0  0  0  0  0
  161.9690  209.4410  149.2700 C   0  0  2  0  0  3  0  0  0  0  0  0
  162.7130  208.8890  148.1090 C   0  0  0  0  0  0  0  0  0  0  0  0
  158.6840  212.4520  151.4900 C   0  0  0  0  0  2  0  0  0  0  0  0
  162.3790  209.5340  151.8170 C   0  0  2  0  0  3  0  0  0  0  0  0
  162.8730  207.6760  153.2790 O   0  0  0  0  0  1  0  0  0  0  0  0
  163.6760  210.9800  148.3360 C   0  0  1  0  0  3  0  0  0  0  0  0
  162.0860  206.6510  146.9270 C   0  0  0  0  0  0  0  0  0  0  0  0
  161.1120  211.6610  151.3170 C   0  0  1  0  0  3  0  0  0  0  0  0
  160.5590  211.2940  154.4780 C   0  0  0  0  0  3  0  0  0  0  0  0
  163.5270  210.7880  154.6530 O   0  0  0  0  0  1  0  0  0  0  0  0
  159.1050  205.5330  150.5050 C   0  0  0  0  0  2  0  0  0  0  0  0
  161.1930  206.5970  149.5350 C   0  0  0  0  0  2  0  0  0  0  0  0
  160.5860  203.5300  150.8900 C   0  0  0  0  0  0  0  0  0  0  0  0
  161.2070  205.4890  152.2220 O   0  0  0  0  0  0  0  0  0  0  0  0
  160.8730  202.1940  150.5140 C   0  0  0  0  0  0  0  0  0  0  0  0
  159.6890  206.4000  149.3910 C   0  0  0  0  0  2  0  0  0  0  0  0
  161.5150  207.3990  150.7950 C   0  0  1  0  0  3  0  0  0  0  0  0
  162.8340  202.2020  151.9550 C   0  0  0  0  0  3  0  0  0  0  0  0
  161.9970  201.5500  151.0530 C   0  0  0  0  0  3  0  0  0  0  0  0
  162.1130  206.5320  151.8940 C   0  0  0  0  0  2  0  0  0  0  0  0
  159.4630  204.1650  150.3280 O   0  0  0  0  0  0  0  0  0  0  0  0
  161.4460  204.1820  151.8130 C   0  0  0  0  0  0  0  0  0  0  0  0
  162.5580  203.5110  152.3320 C   0  0  0  0  0  3  0  0  0  0  0  0
  159.0550  202.0000  148.9900 O   0  0  0  0  0  0  0  0  0  0  0  0
  160.0190  201.4310  149.5710 C   0  0  0  0  0  0  0  0  0  0  0  0
  160.2860  200.1030  149.2750 O   0  0  0  0  0  1  0  0  0  0  0  0
  164.5950  211.9490  146.3360 F   0  0  0  0  0  0  0  0  0  0  0  0
  163.7070  212.1870  147.3810 C   0  0  0  0  0  0  0  0  0  0  0  0
  164.1920  213.2690  148.0910 F   0  0  0  0  0  0  0  0  0  0  0  0
  162.4160  212.5240  146.9030 O   0  0  0  0  0  0  0  0  0  0  0  0
  162.5250  213.4960  145.8940 C   0  0  0  0  0  2  0  0  0  0  0  0
  161.3110  214.1310  145.7180 F   0  0  0  0  0  0  0  0  0  0  0  0
  158.2670  211.8660  155.3260 C   0  0  1  0  0  3  0  0  0  0  0  0
  158.2790  210.4760  155.9460 C   0  0  0  0  0  1  0  0  0  0  0  0
  157.6070  213.3250  157.2510 C   0  0  0  0  0  3  0  0  0  0  0  0
  158.5290  212.9130  156.3740 C   0  0  0  0  0  3  0  0  0  0  0  0
  156.2080  212.8060  157.2610 C   0  0  0  0  0  2  0  0  0  0  0  0
  155.2430  213.9750  157.2490 C   0  0  0  0  0  2  0  0  0  0  0  0
  153.0530  214.3710  156.3720 O   0  0  0  0  0  1  0  0  0  0  0  0
  154.3210  213.8880  156.0450 C   0  0  2  0  0  3  0  0  0  0  0  0
  154.2230  212.4590  155.5170 C   0  0  0  0  0  2  0  0  0  0  0  0
  154.8390  212.2920  154.1320 C   0  0  2  0  0  3  0  0  0  0  0  0
  155.8680  211.3530  154.1760 O   0  0  0  0  0  1  0  0  0  0  0  0
  154.6310  214.4440  153.1700 O   0  0  0  0  0  0  0  0  0  0  0  0
  155.3720  213.5970  153.6410 C   0  0  0  0  0  3  0  0  0  0  0  0
  160.6890  206.1440  147.0340 C   0  0  0  0  0  2  0  0  0  0  0  0
  160.1260  205.8170  145.6620 C   0  0  0  0  0  2  0  0  0  0  0  0
  159.4760  203.5470  144.8330 C   0  0  0  0  0  1  0  0  0  0  0  0
  160.6350  204.4630  145.2050 C   0  0  0  0  0  2  0  0  0  0  0  0
  1 20  2  0  0  0  0
  2 19  1  0  0  0  0
  2  7  1  0  0  0  0
  3 28  1  0  0  0  0
  3  9  1  0  0  0  0
  4 23  1  0  0  0  0
  4  3  1  0  0  0  0
  6  8  1  0  0  0  0
  7  5  1  0  0  0  0
  7 26  1  0  0  0  0
  8  3  1  0  0  0  0
  8 27  2  0  0  0  0
 10 35  1  0  0  0  0
 10 22  1  0  0  0  0
 11 25  1  0  0  0  0
 12 14  1  0  0  0  0
 12 15  1  0  0  0  0
 13 27  1  0  0  0  0
 13 51  1  0  0  0  0
 14 15  1  0  0  0  0
 15 13  1  0  0  0  0
 16 26  1  0  0  0  0
 16 21  1  0  0  0  0
 17 16  1  0  0  0  0
 18 20  1  0  0  0  0
 18 24  1  0  0  0  0
 19 10  1  0  0  0  0
 20 19  1  0  0  0  0
 21 12  1  0  0  0  0
 22  6  1  0  0  0  0
 22  4  1  0  0  0  0
 24  2  1  0  0  0  0
 25 64  1  0  0  0  0
 25  1  2  0  0  0  0
 26  6  1  0  0  0  0
 30 35  1  0  0  0  0
 31 40  1  0  0  0  0
 33 31  2  0  0  0  0
 33 37  1  0  0  0  0
 34 30  1  0  0  0  0
 34 29  1  0  0  0  0
 35 38  1  0  0  0  0
 36 41  1  0  0  0  0
 37 36  2  0  0  0  0
 38 32  1  0  0  0  0
 39 29  1  0  0  0  0
 39 31  1  0  0  0  0
 40 32  1  0  0  0  0
 40 41  2  0  0  0  0
 42 43  2  0  0  0  0
 43 33  1  0  0  0  0
 44 43  1  0  0  0  0
 45 46  1  0  0  0  0
 46 47  1  0  0  0  0
 46 24  1  0  0  0  0
 48 46  1  0  0  0  0
 49 48  1  0  0  0  0
 50 49  1  0  0  0  0
 51 52  1  0  0  0  0
 51 54  1  0  0  0  0
 53 55  1  0  0  0  0
 54 53  2  0  0  0  0
 56 55  1  0  0  0  0
 58 57  1  0  0  0  0
 58 56  1  0  0  0  0
 59 58  1  0  0  0  0
 60 61  1  0  0  0  0
 60 59  1  0  0  0  0
 62 63  2  0  0  0  0
 63 60  1  0  0  0  0
 65 64  1  0  0  0  0
 66 67  1  0  0  0  0
 67 65  1  0  0  0  0
M  END
>  <MODEL>
2

>  <REMARK>
 VINA RESULT:      19.6      3.111     10.421
  Name = 
  16 active torsions:
  status: ('A' for Active; 'I' for Inactive)
    1  A    between atoms: C_7  and  C_23
    2  A    between atoms: C_7  and  C_64
    3  A    between atoms: C_8  and  C_35
    4  A    between atoms: C_8  and  C_59
    5  A    between atoms: O_14  and  C_27
    6  A    between atoms: O_14  and  C_38
    7  A    between atoms: C_21  and  C_40
    8  A    between atoms: C_22  and  C_36
    9  A    between atoms: C_26  and  C_28
   10  A    between atoms: C_29  and  C_40
   11  A    between atoms: C_29  and  C_53
   12  A    between atoms: C_31  and  C_42
   13  A    between atoms: C_31  and  C_56
   14  A    between atoms: C_38  and  C_54
   15  A    between atoms: C_53  and  C_64
   16  A    between atoms: C_55  and  C_56
                            x       y       z     vdW  Elec       q    Type
                         _______ _______ _______ _____ _____    ______ ____

>  <TORSDO>
F 16

$$$$
=
 OpenBabel11072413503D

 67 73  0  0  1  0  0  0  0  0999 V2000
  162.1170  208.4100  147.5450 C   0  0  0  0  0  0  0  0  0  0  0  0
  161.8050  211.6040  149.1090 C   0  0  2  0  0  3  0  0  0  0  0  0
  161.9440  210.7320  154.1740 C   0  0  0  0  0  0  0  0  0  0  0  0
  162.5900  209.8980  153.0660 C   0  0  2  0  0  3  0  0  0  0  0  0
  162.7940  212.7960  150.9960 O   0  0  0  0  0  1  0  0  0  0  0  0
  160.5470  211.0280  152.1000 C   0  0  2  0  0  3  0  0  0  0  0  0
  161.6140  212.6020  150.2720 C   0  0  2  0  0  3  0  0  0  0  0  0
  160.7240  211.3590  153.5610 C   0  0  0  0  0  0  0  0  0  0  0  0
  161.5800  209.9250  155.2640 O   0  0  0  0  0  1  0  0  0  0  0  0
  161.9170  209.3920  150.5610 C   0  0  1  0  0  3  0  0  0  0  0  0
  162.9250  206.5870  146.3360 O   0  0  0  0  0  1  0  0  0  0  0  0
  158.2720  214.1630  152.0640 C   0  0  1  0  0  3  0  0  0  0  0  0
  158.4830  212.5040  153.9910 C   0  0  1  0  0  3  0  0  0  0  0  0
  157.3020  214.3770  153.0540 O   0  0  0  0  0  0  0  0  0  0  0  0
  158.5650  213.9610  153.5160 C   0  0  2  0  0  3  0  0  0  0  0  0
  159.0890  212.4320  150.4390 C   0  0  1  0  0  3  0  0  0  0  0  0
  158.6790  211.1680  149.7030 C   0  0  0  0  0  1  0  0  0  0  0  0
  163.2140  210.4980  147.6200 O   0  0  0  0  0  0  0  0  0  0  0  0
  161.5010  210.0920  149.2420 C   0  0  2  0  0  3  0  0  0  0  0  0
  162.3110  209.5700  148.1120 C   0  0  0  0  0  0  0  0  0  0  0  0
  157.9340  212.8830  151.3090 C   0  0  0  0  0  2  0  0  0  0  0  0
  161.8490  210.2930  151.7910 C   0  0  2  0  0  3  0  0  0  0  0  0
  162.4650  208.5260  153.3190 O   0  0  0  0  0  1  0  0  0  0  0  0
  163.0930  211.7390  148.2910 C   0  0  1  0  0  3  0  0  0  0  0  0
  161.8950  207.2540  146.9880 C   0  0  0  0  0  0  0  0  0  0  0  0
  160.4230  212.2920  151.2040 C   0  0  1  0  0  3  0  0  0  0  0  0
  159.8370  211.9730  154.3640 C   0  0  0  0  0  3  0  0  0  0  0  0
  162.8330  211.7210  154.6070 O   0  0  0  0  0  1  0  0  0  0  0  0
  158.9520  205.9910  150.5330 C   0  0  0  0  0  2  0  0  0  0  0  0
  160.9720  207.1940  149.5830 C   0  0  0  0  0  2  0  0  0  0  0  0
  160.5830  204.1360  151.0360 C   0  0  0  0  0  0  0  0  0  0  0  0
  160.9940  206.1880  152.3100 O   0  0  0  0  0  0  0  0  0  0  0  0
  160.9930  202.8170  150.7190 C   0  0  0  0  0  0  0  0  0  0  0  0
  159.4950  206.8650  149.4040 C   0  0  0  0  0  2  0  0  0  0  0  0
  161.1860  208.0650  150.8210 C   0  0  1  0  0  3  0  0  0  0  0  0
  162.9010  203.0440  152.2140 C   0  0  0  0  0  3  0  0  0  0  0  0
  162.1500  202.2910  151.3140 C   0  0  0  0  0  3  0  0  0  0  0  0
  161.8200  207.2920  151.9680 C   0  0  0  0  0  2  0  0  0  0  0  0
  159.4290  204.6530  150.4190 O   0  0  0  0  0  0  0  0  0  0  0  0
  161.3550  204.8920  151.9570 C   0  0  0  0  0  0  0  0  0  0  0  0
  162.5030  204.3370  152.5340 C   0  0  0  0  0  3  0  0  0  0  0  0
  160.4620  202.0130  148.5430 O   0  0  0  0  0  0  0  0  0  0  0  0
  160.2360  201.9510  149.7820 C   0  0  0  0  0  0  0  0  0  0  0  0
  159.3080  201.0310  150.2460 O   0  0  0  0  0  1  0  0  0  0  0  0
  163.5610  214.0640  147.8940 F   0  0  0  0  0  0  0  0  0  0  0  0
  163.0440  212.9160  147.3000 C   0  0  0  0  0  0  0  0  0  0  0  0
  161.7150  213.1670  147.0140 F   0  0  0  0  0  0  0  0  0  0  0  0
  163.7020  212.6180  146.0810 O   0  0  0  0  0  0  0  0  0  0  0  0
  162.9700  213.1510  145.0070 C   0  0  0  0  0  2  0  0  0  0  0  0
  163.3650  214.4530  144.7690 F   0  0  0  0  0  0  0  0  0  0  0  0
  157.4900  212.3780  155.1530 C   0  0  1  0  0  3  0  0  0  0  0  0
  157.2940  213.7190  155.8460 C   0  0  0  0  0  1  0  0  0  0  0  0
  155.9480  210.4980  154.5500 C   0  0  0  0  0  3  0  0  0  0  0  0
  156.1640  211.8060  154.7280 C   0  0  0  0  0  3  0  0  0  0  0  0
  157.0130  209.4690  154.7290 C   0  0  0  0  0  2  0  0  0  0  0  0
  157.7460  209.7330  156.0290 C   0  0  0  0  0  2  0  0  0  0  0  0
  159.2610  208.2940  154.8640 O   0  0  0  0  0  1  0  0  0  0  0  0
  159.1290  209.1030  155.9940 C   0  0  2  0  0  3  0  0  0  0  0  0
  159.4090  208.2960  157.2580 C   0  0  0  0  0  2  0  0  0  0  0  0
  160.5500  207.2980  157.0870 C   0  0  2  0  0  3  0  0  0  0  0  0
  161.7770  207.9480  157.2010 O   0  0  0  0  0  1  0  0  0  0  0  0
  161.4570  206.2220  155.1840 O   0  0  0  0  0  0  0  0  0  0  0  0
  160.4580  206.6310  155.7550 C   0  0  0  0  0  3  0  0  0  0  0  0
  160.5420  206.6360  147.0870 C   0  0  0  0  0  2  0  0  0  0  0  0
  160.0470  206.2020  145.7190 C   0  0  0  0  0  2  0  0  0  0  0  0
  160.7500  203.9950  144.7700 C   0  0  0  0  0  1  0  0  0  0  0  0
  161.1430  205.4510  144.9870 C   0  0  0  0  0  2  0  0  0  0  0  0
  1 20  2  0  0  0  0
  2 19  1  0  0  0  0
  2  7  1  0  0  0  0
  3 28  1  0  0  0  0
  3  9  1  0  0  0  0
  4 23  1  0  0  0  0
  4  3  1  0  0  0  0
  6  8  1  0  0  0  0
  7  5  1  0  0  0  0
  7 26  1  0  0  0  0
  8  3  1  0  0  0  0
  8 27  2  0  0  0  0
 10 35  1  0  0  0  0
 10 22  1  0  0  0  0
 11 25  1  0  0  0  0
 12 14  1  0  0  0  0
 12 15  1  0  0  0  0
 13 27  1  0  0  0  0
 13 51  1  0  0  0  0
 14 15  1  0  0  0  0
 15 13  1  0  0  0  0
 16 26  1  0  0  0  0
 16 21  1  0  0  0  0
 17 16  1  0  0  0  0
 18 20  1  0  0  0  0
 18 24  1  0  0  0  0
 19 10  1  0  0  0  0
 20 19  1  0  0  0  0
 21 12  1  0  0  0  0
 22  6  1  0  0  0  0
 22  4  1  0  0  0  0
 24  2  1  0  0  0  0
 25 64  1  0  0  0  0
 25  1  2  0  0  0  0
 26  6  1  0  0  0  0
 30 35  1  0  0  0  0
 31 40  1  0  0  0  0
 33 31  2  0  0  0  0
 33 37  1  0  0  0  0
 34 30  1  0  0  0  0
 34 29  1  0  0  0  0
 35 38  1  0  0  0  0
 36 41  1  0  0  0  0
 37 36  2  0  0  0  0
 38 32  1  0  0  0  0
 39 29  1  0  0  0  0
 39 31  1  0  0  0  0
 40 32  1  0  0  0  0
 40 41  2  0  0  0  0
 42 43  2  0  0  0  0
 43 44  1  0  0  0  0
 43 33  1  0  0  0  0
 46 45  1  0  0  0  0
 46 24  1  0  0  0  0
 47 46  1  0  0  0  0
 48 46  1  0  0  0  0
 49 48  1  0  0  0  0
 50 49  1  0  0  0  0
 51 52  1  0  0  0  0
 53 54  2  0  0  0  0
 53 55  1  0  0  0  0
 54 51  1  0  0  0  0
 55 56  1  0  0  0  0
 57 58  1  0  0  0  0
 58 56  1  0  0  0  0
 58 59  1  0  0  0  0
 60 61  1  0  0  0  0
 60 59  1  0  0  0  0
 62 63  2  0  0  0  0
 63 60  1  0  0  0  0
 65 64  1  0  0  0  0
 66 67  1  0  0  0  0
 67 65  1  0  0  0  0
M  END
>  <MODEL>
3

>  <REMARK>
 VINA RESULT:      19.8      3.134      9.557
  Name = 
  16 active torsions:
  status: ('A' for Active; 'I' for Inactive)
    1  A    between atoms: C_7  and  C_23
    2  A    between atoms: C_7  and  C_64
    3  A    between atoms: C_8  and  C_35
    4  A    between atoms: C_8  and  C_59
    5  A    between atoms: O_14  and  C_27
    6  A    between atoms: O_14  and  C_38
    7  A    between atoms: C_21  and  C_40
    8  A    between atoms: C_22  and  C_36
    9  A    between atoms: C_26  and  C_28
   10  A    between atoms: C_29  and  C_40
   11  A    between atoms: C_29  and  C_53
   12  A    between atoms: C_31  and  C_42
   13  A    between atoms: C_31  and  C_56
   14  A    between atoms: C_38  and  C_54
   15  A    between atoms: C_53  and  C_64
   16  A    between atoms: C_55  and  C_56
                            x       y       z     vdW  Elec       q    Type
                         _______ _______ _______ _____ _____    ______ ____

>  <TORSDO>
F 16

$$$$
=
 OpenBabel11072413503D

 67 73  0  0  1  0  0  0  0  0999 V2000
  162.4630  208.4160  147.7620 C   0  0  0  0  0  0  0  0  0  0  0  0
  161.4960  211.6710  148.8640 C   0  0  2  0  0  3  0  0  0  0  0  0
  160.5290  211.2440  153.8950 C   0  0  0  0  0  0  0  0  0  0  0  0
  161.4920  210.4020  153.0560 C   0  0  2  0  0  3  0  0  0  0  0  0
  161.9010  213.1220  150.7850 O   0  0  0  0  0  1  0  0  0  0  0  0
  159.6350  211.2040  151.5430 C   0  0  2  0  0  3  0  0  0  0  0  0
  160.9470  212.7330  149.8410 C   0  0  2  0  0  3  0  0  0  0  0  0
  159.4330  211.6730  152.9620 C   0  0  0  0  0  0  0  0  0  0  0  0
  159.9990  210.4940  154.9570 O   0  0  0  0  0  1  0  0  0  0  0  0
  161.4730  209.6150  150.5330 C   0  0  1  0  0  3  0  0  0  0  0  0
  163.6990  206.6050  146.9670 O   0  0  0  0  0  1  0  0  0  0  0  0
  157.1480  214.0390  150.6630 C   0  0  1  0  0  3  0  0  0  0  0  0
  157.0570  212.5820  152.7550 C   0  0  1  0  0  3  0  0  0  0  0  0
  155.9570  214.2210  151.3820 O   0  0  0  0  0  0  0  0  0  0  0  0
  157.1110  213.9940  152.1570 C   0  0  2  0  0  3  0  0  0  0  0  0
  158.4800  212.2850  149.4570 C   0  0  1  0  0  3  0  0  0  0  0  0
  158.3730  210.9270  148.7880 C   0  0  0  0  0  1  0  0  0  0  0  0
  163.3120  210.6160  147.8560 O   0  0  0  0  0  0  0  0  0  0  0  0
  161.3130  210.1500  149.0870 C   0  0  2  0  0  3  0  0  0  0  0  0
  162.4100  209.6340  148.2290 C   0  0  0  0  0  0  0  0  0  0  0  0
  157.1160  212.6710  149.9930 C   0  0  0  0  0  2  0  0  0  0  0  0
  161.0360  210.6010  151.6130 C   0  0  2  0  0  3  0  0  0  0  0  0
  161.4410  209.0510  153.4200 O   0  0  0  0  0  1  0  0  0  0  0  0
  162.9220  211.8860  148.3450 C   0  0  1  0  0  3  0  0  0  0  0  0
  162.4870  207.1990  147.2970 C   0  0  0  0  0  0  0  0  0  0  0  0
  159.6050  212.3650  150.5110 C   0  0  1  0  0  3  0  0  0  0  0  0
  158.3300  212.2440  153.4760 C   0  0  0  0  0  3  0  0  0  0  0  0
  161.1960  212.3620  154.4080 O   0  0  0  0  0  1  0  0  0  0  0  0
  158.7510  206.0190  150.4040 C   0  0  0  0  0  2  0  0  0  0  0  0
  160.7060  207.3670  149.5150 C   0  0  0  0  0  2  0  0  0  0  0  0
  160.4940  204.2750  150.9340 C   0  0  0  0  0  0  0  0  0  0  0  0
  160.7310  206.3380  152.2330 O   0  0  0  0  0  0  0  0  0  0  0  0
  161.0020  202.9910  150.6170 C   0  0  0  0  0  0  0  0  0  0  0  0
  159.2610  206.9380  149.2960 C   0  0  0  0  0  2  0  0  0  0  0  0
  160.8290  208.2380  150.7640 C   0  0  1  0  0  3  0  0  0  0  0  0
  162.8520  203.3340  152.1600 C   0  0  0  0  0  3  0  0  0  0  0  0
  162.1770  202.5400  151.2360 C   0  0  0  0  0  3  0  0  0  0  0  0
  161.4870  207.5000  151.9210 C   0  0  0  0  0  2  0  0  0  0  0  0
  159.3220  204.7180  150.2920 O   0  0  0  0  0  0  0  0  0  0  0  0
  161.1890  205.0730  151.8800 C   0  0  0  0  0  0  0  0  0  0  0  0
  162.3580  204.5930  152.4800 C   0  0  0  0  0  3  0  0  0  0  0  0
  160.6510  202.1070  148.4350 O   0  0  0  0  0  0  0  0  0  0  0  0
  160.3300  202.0840  149.6540 C   0  0  0  0  0  0  0  0  0  0  0  0
  159.3780  201.1680  150.0760 O   0  0  0  0  0  1  0  0  0  0  0  0
  164.2860  213.0360  146.7330 F   0  0  0  0  0  0  0  0  0  0  0  0
  162.9950  212.9630  147.2480 C   0  0  0  0  0  0  0  0  0  0  0  0
  162.7220  214.1820  147.8390 F   0  0  0  0  0  0  0  0  0  0  0  0
  162.0370  212.7520  146.2260 O   0  0  0  0  0  0  0  0  0  0  0  0
  162.4470  213.4060  145.0510 C   0  0  0  0  0  2  0  0  0  0  0  0
  162.1060  212.6470  143.9480 F   0  0  0  0  0  0  0  0  0  0  0  0
  155.8360  212.4380  153.6720 C   0  0  1  0  0  3  0  0  0  0  0  0
  154.6050  213.0720  153.0390 C   0  0  0  0  0  1  0  0  0  0  0  0
  154.9720  210.6520  155.2010 C   0  0  0  0  0  3  0  0  0  0  0  0
  155.5560  211.0090  154.0520 C   0  0  0  0  0  3  0  0  0  0  0  0
  154.5620  211.6390  156.2430 C   0  0  0  0  0  2  0  0  0  0  0  0
  155.7470  211.9370  157.1400 C   0  0  0  0  0  2  0  0  0  0  0  0
  157.7080  211.7640  155.7800 O   0  0  0  0  0  1  0  0  0  0  0  0
  156.8240  212.6740  156.3630 C   0  0  2  0  0  3  0  0  0  0  0  0
  157.5850  213.6540  157.2530 C   0  0  0  0  0  2  0  0  0  0  0  0
  158.6490  214.4420  156.4970 C   0  0  2  0  0  3  0  0  0  0  0  0
  158.5490  214.1940  155.1290 O   0  0  0  0  0  1  0  0  0  0  0  0
  160.2830  212.9090  157.2600 O   0  0  0  0  0  0  0  0  0  0  0  0
  160.0120  214.0650  156.9750 C   0  0  0  0  0  3  0  0  0  0  0  0
  161.2120  206.4400  147.1560 C   0  0  0  0  0  2  0  0  0  0  0  0
  160.9860  206.0280  145.7120 C   0  0  0  0  0  2  0  0  0  0  0  0
  161.4510  203.5800  145.4770 C   0  0  0  0  0  1  0  0  0  0  0  0
  160.3730  204.6410  145.6600 C   0  0  0  0  0  2  0  0  0  0  0  0
  1 20  2  0  0  0  0
  2 19  1  0  0  0  0
  2  7  1  0  0  0  0
  3 28  1  0  0  0  0
  3  9  1  0  0  0  0
  4 23  1  0  0  0  0
  4  3  1  0  0  0  0
  6 22  1  0  0  0  0
  6  8  1  0  0  0  0
  7 26  1  0  0  0  0
  7  5  1  0  0  0  0
  8 27  2  0  0  0  0
  8  3  1  0  0  0  0
 10 35  1  0  0  0  0
 10 22  1  0  0  0  0
 11 25  1  0  0  0  0
 12 14  1  0  0  0  0
 12 15  1  0  0  0  0
 13 27  1  0  0  0  0
 13 51  1  0  0  0  0
 14 15  1  0  0  0  0
 15 13  1  0  0  0  0
 16 21  1  0  0  0  0
 16 26  1  0  0  0  0
 17 16  1  0  0  0  0
 18 20  1  0  0  0  0
 18 24  1  0  0  0  0
 19 10  1  0  0  0  0
 20 19  1  0  0  0  0
 21 12  1  0  0  0  0
 22  4  1  0  0  0  0
 24  2  1  0  0  0  0
 25  1  2  0  0  0  0
 26  6  1  0  0  0  0
 30 35  1  0  0  0  0
 31 40  1  0  0  0  0
 33 31  2  0  0  0  0
 33 37  1  0  0  0  0
 34 30  1  0  0  0  0
 34 29  1  0  0  0  0
 35 38  1  0  0  0  0
 36 41  1  0  0  0  0
 37 36  2  0  0  0  0
 38 32  1  0  0  0  0
 39 29  1  0  0  0  0
 39 31  1  0  0  0  0
 40 32  1  0  0  0  0
 40 41  2  0  0  0  0
 42 43  2  0  0  0  0
 43 44  1  0  0  0  0
 43 33  1  0  0  0  0
 45 46  1  0  0  0  0
 46 47  1  0  0  0  0
 46 24  1  0  0  0  0
 48 46  1  0  0  0  0
 49 48  1  0  0  0  0
 50 49  1  0  0  0  0
 51 54  1  0  0  0  0
 52 51  1  0  0  0  0
 53 55  1  0  0  0  0
 54 53  2  0  0  0  0
 55 56  1  0  0  0  0
 57 58  1  0  0  0  0
 58 56  1  0  0  0  0
 58 59  1  0  0  0  0
 60 63  1  0  0  0  0
 60 59  1  0  0  0  0
 61 60  1  0  0  0  0
 63 62  2  0  0  0  0
 64 25  1  0  0  0  0
 65 64  1  0  0  0  0
 66 67  1  0  0  0  0
 67 65  1  0  0  0  0
M  END
>  <MODEL>
4

>  <REMARK>
 VINA RESULT:      19.8      3.047     10.275
  Name = 
  16 active torsions:
  status: ('A' for Active; 'I' for Inactive)
    1  A    between atoms: C_7  and  C_23
    2  A    between atoms: C_7  and  C_64
    3  A    between atoms: C_8  and  C_35
    4  A    between atoms: C_8  and  C_59
    5  A    between atoms: O_14  and  C_27
    6  A    between atoms: O_14  and  C_38
    7  A    between atoms: C_21  and  C_40
    8  A    between atoms: C_22  and  C_36
    9  A    between atoms: C_26  and  C_28
   10  A    between atoms: C_29  and  C_40
   11  A    between atoms: C_29  and  C_53
   12  A    between atoms: C_31  and  C_42
   13  A    between atoms: C_31  and  C_56
   14  A    between atoms: C_38  and  C_54
   15  A    between atoms: C_53  and  C_64
   16  A    between atoms: C_55  and  C_56
                            x       y       z     vdW  Elec       q    Type
                         _______ _______ _______ _____ _____    ______ ____

>  <TORSDO>
F 16

$$$$
=
 OpenBabel11072413503D

 67 73  0  0  1  0  0  0  0  0999 V2000
  159.9960  212.3540  153.7510 C   0  0  0  0  0  0  0  0  0  0  0  0
  161.1770  209.0590  153.0490 C   0  0  2  0  0  3  0  0  0  0  0  0
  163.7480  209.3810  148.6090 C   0  0  0  0  0  0  0  0  0  0  0  0
  163.5470  210.4810  149.6510 C   0  0  2  0  0  3  0  0  0  0  0  0
  163.2140  208.0120  152.2040 O   0  0  0  0  0  1  0  0  0  0  0  0
  161.5690  208.9140  149.7800 C   0  0  2  0  0  3  0  0  0  0  0  0
  161.8190  207.9290  152.2150 C   0  0  2  0  0  3  0  0  0  0  0  0
  162.5390  208.4940  148.7050 C   0  0  0  0  0  0  0  0  0  0  0  0
  163.8510  209.9230  147.3180 O   0  0  0  0  0  1  0  0  0  0  0  0
  161.5870  211.0370  151.3360 C   0  0  1  0  0  3  0  0  0  0  0  0
  159.6820  214.4530  154.7160 O   0  0  0  0  0  1  0  0  0  0  0  0
  160.2760  205.2750  149.4970 C   0  0  1  0  0  3  0  0  0  0  0  0
  161.1240  206.7040  147.5610 C   0  0  1  0  0  3  0  0  0  0  0  0
  160.0250  204.6800  148.2510 O   0  0  0  0  0  0  0  0  0  0  0  0
  161.2330  205.3950  148.3540 C   0  0  2  0  0  3  0  0  0  0  0  0
  159.7710  207.3340  150.8410 C   0  0  1  0  0  3  0  0  0  0  0  0
  158.7990  208.4940  150.9660 C   0  0  0  0  0  1  0  0  0  0  0  0
  161.3590  210.6840  154.7090 O   0  0  0  0  0  0  0  0  0  0  0  0
  160.6950  210.3920  152.4280 C   0  0  2  0  0  3  0  0  0  0  0  0
  160.6800  211.2480  153.6420 C   0  0  0  0  0  0  0  0  0  0  0  0
  159.3500  206.4730  149.6680 C   0  0  0  0  0  2  0  0  0  0  0  0
  162.3470  210.0280  150.4790 C   0  0  2  0  0  3  0  0  0  0  0  0
  163.3030  211.7210  149.0470 O   0  0  0  0  0  1  0  0  0  0  0  0
  161.8520  209.3960  154.3830 C   0  0  1  0  0  3  0  0  0  0  0  0
  159.2940  213.4480  153.8390 C   0  0  0  0  0  0  0  0  0  0  0  0
  161.2500  207.7750  150.7880 C   0  0  1  0  0  3  0  0  0  0  0  0
  162.3390  207.5640  147.7540 C   0  0  0  0  0  3  0  0  0  0  0  0
  164.9070  208.6550  148.8990 O   0  0  0  0  0  1  0  0  0  0  0  0
  160.2970  213.6800  147.9150 C   0  0  0  0  0  2  0  0  0  0  0  0
  160.2470  211.4780  149.1710 C   0  0  0  0  0  2  0  0  0  0  0  0
  157.8500  213.8100  148.5120 C   0  0  0  0  0  0  0  0  0  0  0  0
  159.3490  213.9310  150.4460 O   0  0  0  0  0  0  0  0  0  0  0  0
  156.5210  213.7690  148.0240 C   0  0  0  0  0  0  0  0  0  0  0  0
  160.7590  212.2240  147.9460 C   0  0  0  0  0  2  0  0  0  0  0  0
  160.8530  212.0550  150.4500 C   0  0  1  0  0  3  0  0  0  0  0  0
  155.6740  213.8610  150.3040 C   0  0  0  0  0  3  0  0  0  0  0  0
  155.4500  213.7940  148.9310 C   0  0  0  0  0  3  0  0  0  0  0  0
  159.8460  212.8700  151.2490 C   0  0  0  0  0  2  0  0  0  0  0  0
  158.9120  213.7690  147.5890 O   0  0  0  0  0  0  0  0  0  0  0  0
  158.0650  213.8810  149.9140 C   0  0  0  0  0  0  0  0  0  0  0  0
  156.9760  213.9050  150.7910 C   0  0  0  0  0  3  0  0  0  0  0  0
  155.1940  214.3180  146.1260 O   0  0  0  0  0  1  0  0  0  0  0  0
  156.2050  213.7130  146.5760 C   0  0  0  0  0  0  0  0  0  0  0  0
  157.0300  213.0400  145.6870 O   0  0  0  0  0  0  0  0  0  0  0  0
  162.5220  208.3870  156.4600 F   0  0  0  0  0  0  0  0  0  0  0  0
  161.5290  208.3710  155.4850 C   0  0  0  0  0  0  0  0  0  0  0  0
  161.5450  207.1160  154.9060 F   0  0  0  0  0  0  0  0  0  0  0  0
  160.2430  208.5740  156.0450 O   0  0  0  0  0  0  0  0  0  0  0  0
  159.7730  207.3700  156.5980 C   0  0  0  0  0  2  0  0  0  0  0  0
  158.8370  206.8000  155.7570 F   0  0  0  0  0  0  0  0  0  0  0  0
  160.8750  206.4080  146.0760 C   0  0  1  0  0  3  0  0  0  0  0  0
  160.3640  207.6470  145.3550 C   0  0  0  0  0  1  0  0  0  0  0  0
  162.2750  204.5530  145.1410 C   0  0  0  0  0  3  0  0  0  0  0  0
  162.0890  205.8560  145.3800 C   0  0  0  0  0  3  0  0  0  0  0  0
  161.3030  203.5040  145.5680 C   0  0  0  0  0  2  0  0  0  0  0  0
  162.0430  202.4210  146.3270 C   0  0  0  0  0  2  0  0  0  0  0  0
  161.9130  201.3450  148.4600 O   0  0  0  0  0  1  0  0  0  0  0  0
  161.1450  201.8160  147.3940 C   0  0  2  0  0  3  0  0  0  0  0  0
  160.2810  200.6930  146.8270 C   0  0  0  0  0  2  0  0  0  0  0  0
  160.7910  200.1660  145.4890 C   0  0  2  0  0  3  0  0  0  0  0  0
  159.9810  200.6260  144.4540 O   0  0  0  0  0  1  0  0  0  0  0  0
  161.6910  198.0500  146.0490 O   0  0  0  0  0  0  0  0  0  0  0  0
  160.8030  198.6730  145.4910 C   0  0  0  0  0  3  0  0  0  0  0  0
  158.0980  213.6280  152.9680 C   0  0  0  0  0  2  0  0  0  0  0  0
  156.8620  213.9150  153.8020 C   0  0  0  0  0  2  0  0  0  0  0  0
  156.5610  213.7040  156.2780 C   0  0  0  0  0  1  0  0  0  0  0  0
  156.7940  212.9530  154.9740 C   0  0  0  0  0  2  0  0  0  0  0  0
  1 25  2  0  0  0  0
  2 24  1  0  0  0  0
  3  8  1  0  0  0  0
  3 28  1  0  0  0  0
  3  4  1  0  0  0  0
  4 22  1  0  0  0  0
  5  7  1  0  0  0  0
  6 22  1  0  0  0  0
  6 26  1  0  0  0  0
  7  2  1  0  0  0  0
  8  6  1  0  0  0  0
  9  3  1  0  0  0  0
 10 19  1  0  0  0  0
 12 21  1  0  0  0  0
 13 27  1  0  0  0  0
 13 15  1  0  0  0  0
 14 15  1  0  0  0  0
 14 12  1  0  0  0  0
 15 12  1  0  0  0  0
 16 17  1  0  0  0  0
 19  2  1  0  0  0  0
 19 20  1  0  0  0  0
 20  1  2  0  0  0  0
 20 18  1  0  0  0  0
 21 16  1  0  0  0  0
 22 10  1  0  0  0  0
 23  4  1  0  0  0  0
 24 18  1  0  0  0  0
 24 46  1  0  0  0  0
 25 11  1  0  0  0  0
 26 16  1  0  0  0  0
 26  7  1  0  0  0  0
 27  8  2  0  0  0  0
 29 34  1  0  0  0  0
 30 35  1  0  0  0  0
 31 40  1  0  0  0  0
 32 38  1  0  0  0  0
 33 31  2  0  0  0  0
 33 37  1  0  0  0  0
 34 30  1  0  0  0  0
 35 38  1  0  0  0  0
 35 10  1  0  0  0  0
 36 41  1  0  0  0  0
 37 36  2  0  0  0  0
 39 29  1  0  0  0  0
 39 31  1  0  0  0  0
 40 32  1  0  0  0  0
 40 41  2  0  0  0  0
 42 43  1  0  0  0  0
 43 33  1  0  0  0  0
 44 43  2  0  0  0  0
 46 48  1  0  0  0  0
 46 45  1  0  0  0  0
 47 46  1  0  0  0  0
 48 49  1  0  0  0  0
 50 49  1  0  0  0  0
 51 13  1  0  0  0  0
 52 51  1  0  0  0  0
 53 54  2  0  0  0  0
 53 55  1  0  0  0  0
 54 51  1  0  0  0  0
 55 56  1  0  0  0  0
 56 58  1  0  0  0  0
 58 57  1  0  0  0  0
 59 58  1  0  0  0  0
 60 63  1  0  0  0  0
 60 59  1  0  0  0  0
 61 60  1  0  0  0  0
 63 62  2  0  0  0  0
 64 65  1  0  0  0  0
 64 25  1  0  0  0  0
 65 67  1  0  0  0  0
 67 66  1  0  0  0  0
M  END
>  <MODEL>
5

>  <REMARK>
 VINA RESULT:      21.5      0.850      1.366
  Name = 
  16 active torsions:
  status: ('A' for Active; 'I' for Inactive)
    1  A    between atoms: C_7  and  C_23
    2  A    between atoms: C_7  and  C_64
    3  A    between atoms: C_8  and  C_35
    4  A    between atoms: C_8  and  C_59
    5  A    between atoms: O_14  and  C_27
    6  A    between atoms: O_14  and  C_38
    7  A    between atoms: C_21  and  C_40
    8  A    between atoms: C_22  and  C_36
    9  A    between atoms: C_26  and  C_28
   10  A    between atoms: C_29  and  C_40
   11  A    between atoms: C_29  and  C_53
   12  A    between atoms: C_31  and  C_42
   13  A    between atoms: C_31  and  C_56
   14  A    between atoms: C_38  and  C_54
   15  A    between atoms: C_53  and  C_64
   16  A    between atoms: C_55  and  C_56
                            x       y       z     vdW  Elec       q    Type
                         _______ _______ _______ _____ _____    ______ ____

>  <TORSDO>
F 16

$$$$
=
 OpenBabel11072413503D

 67 73  0  0  1  0  0  0  0  0999 V2000
  160.0560  211.6070  153.6150 C   0  0  0  0  0  0  0  0  0  0  0  0
  161.0940  208.2440  153.0170 C   0  0  2  0  0  3  0  0  0  0  0  0
  164.0060  208.3820  148.7820 C   0  0  0  0  0  0  0  0  0  0  0  0
  163.7910  209.5010  149.8020 C   0  0  2  0  0  3  0  0  0  0  0  0
  163.1240  207.0750  152.3320 O   0  0  0  0  0  1  0  0  0  0  0  0
  161.7220  208.0510  149.7880 C   0  0  2  0  0  3  0  0  0  0  0  0
  161.7300  207.0730  152.2370 C   0  0  2  0  0  3  0  0  0  0  0  0
  162.7440  207.5660  148.7900 C   0  0  0  0  0  0  0  0  0  0  0  0
  164.2370  208.9070  147.5010 O   0  0  0  0  0  1  0  0  0  0  0  0
  161.7450  210.1810  151.3320 C   0  0  1  0  0  3  0  0  0  0  0  0
  159.7910  213.7280  154.5460 O   0  0  0  0  0  1  0  0  0  0  0  0
  160.2450  204.4890  149.4210 C   0  0  1  0  0  3  0  0  0  0  0  0
  161.3170  205.8520  147.5490 C   0  0  1  0  0  3  0  0  0  0  0  0
  160.0540  203.9000  148.1620 O   0  0  0  0  0  0  0  0  0  0  0  0
  161.2910  204.5450  148.3530 C   0  0  2  0  0  3  0  0  0  0  0  0
  159.7600  206.5850  150.7150 C   0  0  1  0  0  3  0  0  0  0  0  0
  158.8510  207.7990  150.7620 C   0  0  0  0  0  1  0  0  0  0  0  0
  161.2440  209.8690  154.6790 O   0  0  0  0  0  0  0  0  0  0  0  0
  160.7380  209.5970  152.3560 C   0  0  2  0  0  3  0  0  0  0  0  0
  160.6810  210.4620  153.5630 C   0  0  0  0  0  0  0  0  0  0  0  0
  159.3800  205.7400  149.5170 C   0  0  0  0  0  2  0  0  0  0  0  0
  162.5080  209.1230  150.5390 C   0  0  2  0  0  3  0  0  0  0  0  0
  163.6650  210.7470  149.1760 O   0  0  0  0  0  1  0  0  0  0  0  0
  161.6850  208.5530  154.3970 C   0  0  1  0  0  3  0  0  0  0  0  0
  159.4130  212.7400  153.6460 C   0  0  0  0  0  0  0  0  0  0  0  0
  161.2620  206.9390  150.7720 C   0  0  1  0  0  3  0  0  0  0  0  0
  162.5620  206.6430  147.8300 C   0  0  0  0  0  3  0  0  0  0  0  0
  165.0960  207.5930  149.1620 O   0  0  0  0  0  1  0  0  0  0  0  0
  160.8420  212.8350  147.7980 C   0  0  0  0  0  2  0  0  0  0  0  0
  160.5540  210.6740  149.0930 C   0  0  0  0  0  2  0  0  0  0  0  0
  158.3870  213.1710  148.2650 C   0  0  0  0  0  0  0  0  0  0  0  0
  159.7920  213.2200  150.2710 O   0  0  0  0  0  0  0  0  0  0  0  0
  157.0850  213.2240  147.7090 C   0  0  0  0  0  0  0  0  0  0  0  0
  161.1850  211.3490  147.8810 C   0  0  0  0  0  2  0  0  0  0  0  0
  161.1390  211.2330  150.3900 C   0  0  1  0  0  3  0  0  0  0  0  0
  156.1350  213.4350  149.9400 C   0  0  0  0  0  3  0  0  0  0  0  0
  155.9760  213.3540  148.5590 C   0  0  0  0  0  3  0  0  0  0  0  0
  160.1620  212.1430  151.1190 C   0  0  0  0  0  2  0  0  0  0  0  0
  159.4870  213.0250  147.3990 O   0  0  0  0  0  0  0  0  0  0  0  0
  158.5360  213.2590  149.6740 C   0  0  0  0  0  0  0  0  0  0  0  0
  157.4100  213.3890  150.4930 C   0  0  0  0  0  3  0  0  0  0  0  0
  156.2540  214.1100  145.6620 O   0  0  0  0  0  1  0  0  0  0  0  0
  156.8380  213.1580  146.2480 C   0  0  0  0  0  0  0  0  0  0  0  0
  157.2810  212.0820  145.4930 O   0  0  0  0  0  0  0  0  0  0  0  0
  162.1570  207.4940  156.5030 F   0  0  0  0  0  0  0  0  0  0  0  0
  161.2210  207.5560  155.4750 C   0  0  0  0  0  0  0  0  0  0  0  0
  161.1700  206.3040  154.8920 F   0  0  0  0  0  0  0  0  0  0  0  0
  159.9270  207.8610  155.9640 O   0  0  0  0  0  0  0  0  0  0  0  0
  160.0330  208.6590  157.1150 C   0  0  0  0  0  2  0  0  0  0  0  0
  159.3340  209.8380  156.9360 F   0  0  0  0  0  0  0  0  0  0  0  0
  161.1640  205.5580  146.0510 C   0  0  1  0  0  3  0  0  0  0  0  0
  160.2590  206.5870  145.3870 C   0  0  0  0  0  1  0  0  0  0  0  0
  162.6080  205.5490  144.0040 C   0  0  0  0  0  3  0  0  0  0  0  0
  162.4850  205.4780  145.3340 C   0  0  0  0  0  3  0  0  0  0  0  0
  161.4380  205.6880  143.0880 C   0  0  0  0  0  2  0  0  0  0  0  0
  161.6060  206.9420  142.2540 C   0  0  0  0  0  2  0  0  0  0  0  0
  162.9060  205.5590  140.7970 O   0  0  0  0  0  1  0  0  0  0  0  0
  161.9540  206.5800  140.8200 C   0  0  2  0  0  3  0  0  0  0  0  0
  162.4600  207.7920  140.0430 C   0  0  0  0  0  2  0  0  0  0  0  0
  161.3890  208.4210  139.1570 C   0  0  2  0  0  3  0  0  0  0  0  0
  161.7900  208.3870  137.8230 O   0  0  0  0  0  1  0  0  0  0  0  0
  161.9170  210.4240  140.3010 O   0  0  0  0  0  0  0  0  0  0  0  0
  161.1390  209.8340  139.5690 C   0  0  0  0  0  3  0  0  0  0  0  0
  158.2990  212.9810  152.6870 C   0  0  0  0  0  2  0  0  0  0  0  0
  156.9600  212.6450  153.3200 C   0  0  0  0  0  2  0  0  0  0  0  0
  156.5380  213.2320  155.7160 C   0  0  0  0  0  1  0  0  0  0  0  0
  157.1630  212.2210  154.7630 C   0  0  0  0  0  2  0  0  0  0  0  0
  1 25  2  0  0  0  0
  2 24  1  0  0  0  0
  3  8  1  0  0  0  0
  3 28  1  0  0  0  0
  3  4  1  0  0  0  0
  4 22  1  0  0  0  0
  6 22  1  0  0  0  0
  6 26  1  0  0  0  0
  7  5  1  0  0  0  0
  7  2  1  0  0  0  0
  8  6  1  0  0  0  0
  9  3  1  0  0  0  0
 10 19  1  0  0  0  0
 12 21  1  0  0  0  0
 13 27  1  0  0  0  0
 13 15  1  0  0  0  0
 14 15  1  0  0  0  0
 14 12  1  0  0  0  0
 15 12  1  0  0  0  0
 16 17  1  0  0  0  0
 16 26  1  0  0  0  0
 19  2  1  0  0  0  0
 19 20  1  0  0  0  0
 20  1  2  0  0  0  0
 20 18  1  0  0  0  0
 21 16  1  0  0  0  0
 22 10  1  0  0  0  0
 23  4  1  0  0  0  0
 24 18  1  0  0  0  0
 24 46  1  0  0  0  0
 25 11  1  0  0  0  0
 26  7  1  0  0  0  0
 27  8  2  0  0  0  0
 29 34  1  0  0  0  0
 30 35  1  0  0  0  0
 31 40  1  0  0  0  0
 32 38  1  0  0  0  0
 33 31  2  0  0  0  0
 33 37  1  0  0  0  0
 34 30  1  0  0  0  0
 35 38  1  0  0  0  0
 35 10  1  0  0  0  0
 36 41  1  0  0  0  0
 37 36  2  0  0  0  0
 39 29  1  0  0  0  0
 39 31  1  0  0  0  0
 40 32  1  0  0  0  0
 40 41  2  0  0  0  0
 42 43  1  0  0  0  0
 43 33  1  0  0  0  0
 44 43  2  0  0  0  0
 46 48  1  0  0  0  0
 46 45  1  0  0  0  0
 47 46  1  0  0  0  0
 48 49  1  0  0  0  0
 50 49  1  0  0  0  0
 51 13  1  0  0  0  0
 52 51  1  0  0  0  0
 53 54  2  0  0  0  0
 54 51  1  0  0  0  0
 55 53  1  0  0  0  0
 56 55  1  0  0  0  0
 57 58  1  0  0  0  0
 58 56  1  0  0  0  0
 59 58  1  0  0  0  0
 60 63  1  0  0  0  0
 60 59  1  0  0  0  0
 61 60  1  0  0  0  0
 63 62  2  0  0  0  0
 64 65  1  0  0  0  0
 64 25  1  0  0  0  0
 65 67  1  0  0  0  0
 67 66  1  0  0  0  0
M  END
>  <MODEL>
6

>  <REMARK>
 VINA RESULT:      21.9      2.399      3.683
  Name = 
  16 active torsions:
  status: ('A' for Active; 'I' for Inactive)
    1  A    between atoms: C_7  and  C_23
    2  A    between atoms: C_7  and  C_64
    3  A    between atoms: C_8  and  C_35
    4  A    between atoms: C_8  and  C_59
    5  A    between atoms: O_14  and  C_27
    6  A    between atoms: O_14  and  C_38
    7  A    between atoms: C_21  and  C_40
    8  A    between atoms: C_22  and  C_36
    9  A    between atoms: C_26  and  C_28
   10  A    between atoms: C_29  and  C_40
   11  A    between atoms: C_29  and  C_53
   12  A    between atoms: C_31  and  C_42
   13  A    between atoms: C_31  and  C_56
   14  A    between atoms: C_38  and  C_54
   15  A    between atoms: C_53  and  C_64
   16  A    between atoms: C_55  and  C_56
                            x       y       z     vdW  Elec       q    Type
                         _______ _______ _______ _____ _____    ______ ____

>  <TORSDO>
F 16

$$$$
