=
 OpenBabel11072410073D

 69 75  0  0  1  0  0  0  0  0999 V2000
  161.3970  203.8130  147.8050 C   0  0  1  0  0  3  0  0  0  0  0  0
  163.0170  205.7300  147.3380 C   0  0  0  0  0  0  0  0  0  0  0  0
  161.8580  204.9090  146.8280 C   0  0  2  0  0  3  0  0  0  0  0  0
  164.1470  205.1960  147.4800 O   0  0  0  0  0  0  0  0  0  0  0  0
  161.7200  207.8400  147.2650 C   0  0  1  0  0  3  0  0  0  0  0  0
  160.6980  205.7760  146.3310 C   0  0  0  0  0  2  0  0  0  0  0  0
  162.8460  207.0730  147.6910 O   0  0  0  0  0  0  0  0  0  0  0  0
  160.4600  206.9850  147.2300 C   0  0  0  0  0  2  0  0  0  0  0  0
  161.5180  209.0220  148.2070 C   0  0  0  0  0  2  0  0  0  0  0  0
  161.2720  210.2090  147.4700 O   0  0  0  0  0  0  0  0  0  0  0  0
  161.1790  212.5610  147.6270 C   0  0  0  0  0  0  0  0  0  0  0  0
  161.7250  211.4220  147.9400 N   0  0  0  0  0  0  0  0  0  0  0  0
  161.1650  213.9730  149.6760 C   0  0  0  0  0  1  0  0  0  0  0  0
  163.2140  213.8250  148.2710 C   0  0  0  0  0  1  0  0  0  0  0  0
  161.6940  213.8200  148.2570 C   0  0  0  0  0  3  0  0  0  0  0  0
  160.0420  212.6980  146.6440 C   0  0  1  0  0  3  0  0  0  0  0  0
  155.2190  214.3510  149.2430 N   0  0  0  0  0  1  0  0  0  0  0  0
  156.4070  213.9360  148.5820 C   0  0  0  0  0  0  0  0  0  0  0  0
  157.4830  213.4500  149.3290 C   0  0  0  0  0  3  0  0  0  0  0  0
  157.6880  213.6340  146.5460 C   0  0  0  0  0  3  0  0  0  0  0  0
  158.6610  213.0580  148.6850 C   0  0  0  0  0  3  0  0  0  0  0  0
  158.7720  213.1490  147.2950 C   0  0  0  0  0  0  0  0  0  0  0  0
  156.5070  214.0260  147.1920 C   0  0  0  0  0  3  0  0  0  0  0  0
  160.3470  213.4770  145.3710 C   0  0  0  0  0  2  0  0  0  0  0  0
  161.3700  212.8040  144.5840 N   0  0  0  0  0  2  0  0  0  0  0  0
  161.3690  212.8280  143.1530 C   0  0  0  0  0  0  0  0  0  0  0  0
  161.2470  214.0370  141.0490 C   0  0  0  0  0  3  0  0  0  0  0  0
  161.4380  211.6230  142.4430 C   0  0  0  0  0  3  0  0  0  0  0  0
  161.2660  214.0340  142.4490 C   0  0  0  0  0  3  0  0  0  0  0  0
  161.3110  212.8310  140.3480 C   0  0  0  0  0  3  0  0  0  0  0  0
  161.4010  211.6220  141.0450 C   0  0  0  0  0  0  0  0  0  0  0  0
  161.4530  210.3840  140.3240 C   0  0  0  0  0  0  0  0  0  0  0  0
  161.5000  209.3890  139.7410 N   0  0  0  0  0  0  0  0  0  0  0  0
  160.8820  201.4640  147.0610 C   0  0  0  0  0  0  0  0  0  0  0  0
  161.9580  202.4460  147.3530 C   0  0  2  0  0  3  0  0  0  0  0  0
  161.6260  201.4020  148.2490 O   0  0  0  0  0  0  0  0  0  0  0  0
  161.1660  200.3780  146.2390 O   0  0  0  0  0  1  0  0  0  0  0  0
  159.5380  201.7230  147.3410 O   0  0  0  0  0  1  0  0  0  0  0  0
  160.8370  203.7800  150.2050 C   0  0  0  0  0  3  0  0  0  0  0  0
  161.6870  204.1560  149.2430 C   0  0  0  0  0  3  0  0  0  0  0  0
  161.1370  204.0930  151.6330 C   0  0  0  0  0  2  0  0  0  0  0  0
  161.6460  206.0090  153.0960 C   0  0  0  0  0  3  0  0  0  0  0  0
  160.9780  207.8900  151.1580 C   0  0  0  0  0  3  0  0  0  0  0  0
  161.7570  207.3680  153.3960 C   0  0  0  0  0  0  0  0  0  0  0  0
  161.4630  208.3230  152.4050 C   0  0  0  0  0  0  0  0  0  0  0  0
  160.8280  206.5290  150.8650 C   0  0  0  0  0  0  0  0  0  0  0  0
  161.1940  205.5700  151.8500 C   0  0  0  0  0  0  0  0  0  0  0  0
  160.3280  206.2040  149.5950 O   0  0  0  0  0  0  0  0  0  0  0  0
  158.9560  205.9820  149.2770 C   0  0  0  0  0  1  0  0  0  0  0  0
  161.7230  209.6770  152.6600 O   0  0  0  0  0  0  0  0  0  0  0  0
  161.6160  211.2440  154.5570 C   0  0  0  0  0  2  0  0  0  0  0  0
  160.8950  210.5790  153.3950 C   0  0  1  0  0  3  0  0  0  0  0  0
  160.2590  211.6330  152.5020 C   0  0  0  0  0  2  0  0  0  0  0  0
  159.5830  212.7680  154.5960 C   0  0  0  0  0  3  0  0  0  0  0  0
  160.6040  212.0060  155.4110 C   0  0  0  0  0  2  0  0  0  0  0  0
  159.3650  212.5490  153.2930 C   0  0  0  0  0  0  0  0  0  0  0  0
  158.3220  213.1930  152.6140 O   0  0  0  0  0  0  0  0  0  0  0  0
  157.3600  214.0120  153.2650 C   0  0  0  0  0  2  0  0  0  0  0  0
  156.4510  213.1560  154.1340 C   0  0  0  0  0  2  0  0  0  0  0  0
  155.9250  213.9560  155.3180 C   0  0  0  0  0  2  0  0  0  0  0  0
  155.4050  213.0110  156.3870 C   0  0  0  0  0  1  0  0  0  0  0  0
  162.1590  207.7210  154.6900 O   0  0  0  0  0  0  0  0  0  0  0  0
  161.5790  207.1500  155.8630 C   0  0  2  0  0  3  0  0  0  0  0  0
  160.1750  206.5790  155.5640 C   0  0  0  0  0  2  0  0  0  0  0  0
  161.5570  208.1880  156.9890 C   0  0  0  0  0  2  0  0  0  0  0  0
  160.6080  209.3530  156.6780 C   0  0  0  0  0  2  0  0  0  0  0  0
  159.0340  207.4430  156.1080 C   0  0  0  0  0  2  0  0  0  0  0  0
  159.3480  208.9280  155.9080 C   0  0  1  0  0  3  0  0  0  0  0  0
  158.2630  209.6970  156.3280 O   0  0  0  0  0  1  0  0  0  0  0  0
  1 40  1  1  0  0  0
  2  4  2  0  0  0  0
  2  7  1  0  0  0  0
  3  2  1  0  0  0  0
  3  1  1  1  0  0  0
  5  7  1  0  0  0  0
  5  9  1  1  0  0  0
  6  3  1  0  0  0  0
  6  8  1  0  0  0  0
  8  5  1  0  0  0  0
 10 12  1  0  0  0  0
 10  9  1  0  0  0  0
 11 12  2  0  0  0  0
 11 15  1  0  0  0  0
 15 14  1  0  0  0  0
 15 13  1  0  0  0  0
 16 24  1  6  0  0  0
 16 22  1  0  0  0  0
 16 11  1  0  0  0  0
 18 17  1  0  0  0  0
 18 19  1  0  0  0  0
 20 23  1  0  0  0  0
 20 22  2  0  0  0  0
 21 19  2  0  0  0  0
 22 21  1  0  0  0  0
 23 18  2  0  0  0  0
 25 24  1  0  0  0  0
 26 25  1  0  0  0  0
 27 29  2  0  0  0  0
 28 26  2  0  0  0  0
 29 26  1  0  0  0  0
 30 31  2  0  0  0  0
 30 27  1  0  0  0  0
 31 28  1  0  0  0  0
 32 31  1  0  0  0  0
 33 32  3  0  0  0  0
 34 38  1  0  0  0  0
 34 35  1  0  0  0  0
 34 36  1  0  0  0  0
 35  1  1  1  0  0  0
 35 36  1  0  0  0  0
 37 34  1  0  0  0  0
 39 41  1  0  0  0  0
 40 39  2  0  0  0  0
 41 47  1  0  0  0  0
 42 44  1  0  0  0  0
 43 45  1  0  0  0  0
 44 62  1  0  0  0  0
 45 50  1  0  0  0  0
 45 44  2  0  0  0  0
 46 43  2  0  0  0  0
 46 47  1  0  0  0  0
 47 42  2  0  0  0  0
 48 46  1  0  0  0  0
 49 48  1  0  0  0  0
 51 55  1  0  0  0  0
 52 50  1  6  0  0  0
 52 51  1  0  0  0  0
 53 56  1  0  0  0  0
 53 52  1  0  0  0  0
 54 55  1  0  0  0  0
 56 54  2  0  0  0  0
 57 58  1  0  0  0  0
 57 56  1  0  0  0  0
 58 59  1  0  0  0  0
 59 60  1  0  0  0  0
 60 61  1  0  0  0  0
 63 62  1  6  0  0  0
 63 65  1  0  0  0  0
 64 63  1  0  0  0  0
 64 67  1  0  0  0  0
 66 65  1  0  0  0  0
 68 67  1  0  0  0  0
 68 69  1  1  0  0  0
 68 66  1  0  0  0  0
M  END
>  <MODEL>
1

>  <REMARK>
 VINA RESULT:      -1.8      0.000      0.000
  Name = 
  24 active torsions:
  status: ('A' for Active; 'I' for Inactive)
    1  A    between atoms: C_1  and  C_12
    2  A    between atoms: C_1  and  C_52
    3  A    between atoms: C_5  and  C_54
    4  A    between atoms: C_6  and  O_33
    5  A    between atoms: N_9  and  C_11
    6  A    between atoms: N_9  and  C_15
    7  A    between atoms: C_10  and  C_24
    8  A    between atoms: C_12  and  C_15
    9  A    between atoms: C_12  and  C_49
   10  A    between atoms: C_17  and  C_24
   11  A    between atoms: C_19  and  O_30
   12  A    between atoms: C_21  and  C_65
   13  A    between atoms: C_22  and  C_50
   14  A    between atoms: C_24  and  C_28
   15  A    between atoms: O_27  and  N_42
   16  A    between atoms: O_27  and  C_50
   17  A    between atoms: C_29  and  C_68
   18  A    between atoms: O_30  and  C_40
   19  A    between atoms: C_32  and  O_33
   20  A    between atoms: O_35  and  C_45
   21  A    between atoms: O_35  and  C_46
   22  A    between atoms: O_41  and  C_62
   23  A    between atoms: C_45  and  C_68
   24  A    between atoms: C_54  and  C_64
                            x       y       z     vdW  Elec       q    Type
                         _______ _______ _______ _____ _____    ______ ____

>  <TORSDO>
F 24

$$$$
=
 OpenBabel11072410073D

 69 75  0  0  1  0  0  0  0  0999 V2000
  161.3460  207.6580  146.7340 C   0  0  1  0  0  3  0  0  0  0  0  0
  161.5370  206.0470  148.7050 C   0  0  0  0  0  0  0  0  0  0  0  0
  162.2010  207.1400  147.9030 C   0  0  2  0  0  3  0  0  0  0  0  0
  161.3360  204.9220  148.1800 O   0  0  0  0  0  0  0  0  0  0  0  0
  161.5760  207.3790  150.7940 C   0  0  1  0  0  3  0  0  0  0  0  0
  162.7350  208.2730  148.7850 C   0  0  0  0  0  2  0  0  0  0  0  0
  161.1080  206.2770  150.0170 O   0  0  0  0  0  0  0  0  0  0  0  0
  161.7790  208.6130  149.9240 C   0  0  0  0  0  2  0  0  0  0  0  0
  160.5760  207.6860  151.9030 C   0  0  0  0  0  2  0  0  0  0  0  0
  160.7000  209.0340  152.3260 O   0  0  0  0  0  0  0  0  0  0  0  0
  160.2740  210.2790  154.2840 C   0  0  0  0  0  0  0  0  0  0  0  0
  160.9000  209.3270  153.6570 N   0  0  0  0  0  0  0  0  0  0  0  0
  160.0410  209.2400  156.5330 C   0  0  0  0  0  1  0  0  0  0  0  0
  161.9700  210.7300  156.0370 C   0  0  0  0  0  1  0  0  0  0  0  0
  160.5010  210.4640  155.7540 C   0  0  0  0  0  3  0  0  0  0  0  0
  159.3200  211.2350  153.6090 C   0  0  1  0  0  3  0  0  0  0  0  0
  154.9880  212.8820  156.9650 N   0  0  0  0  0  1  0  0  0  0  0  0
  156.0710  212.4640  156.1460 C   0  0  0  0  0  0  0  0  0  0  0  0
  156.4920  213.2700  155.0850 C   0  0  0  0  0  3  0  0  0  0  0  0
  157.7610  210.8250  155.5660 C   0  0  0  0  0  3  0  0  0  0  0  0
  157.5450  212.8540  154.2640 C   0  0  0  0  0  3  0  0  0  0  0  0
  158.1840  211.6320  154.4960 C   0  0  0  0  0  0  0  0  0  0  0  0
  156.7060  211.2440  156.3880 C   0  0  0  0  0  3  0  0  0  0  0  0
  159.9520  212.4310  152.9090 C   0  0  0  0  0  2  0  0  0  0  0  0
  160.6800  212.0100  151.7190 N   0  0  0  0  0  2  0  0  0  0  0  0
  160.6670  212.7740  150.5090 C   0  0  0  0  0  0  0  0  0  0  0  0
  159.6640  214.4520  149.0670 C   0  0  0  0  0  3  0  0  0  0  0  0
  161.6490  212.5420  149.5380 C   0  0  0  0  0  3  0  0  0  0  0  0
  159.6710  213.7270  150.2650 C   0  0  0  0  0  3  0  0  0  0  0  0
  160.6430  214.2120  148.1000 C   0  0  0  0  0  3  0  0  0  0  0  0
  161.6340  213.2530  148.3330 C   0  0  0  0  0  0  0  0  0  0  0  0
  162.6300  212.9980  147.3350 C   0  0  0  0  0  0  0  0  0  0  0  0
  163.4330  212.7990  146.5290 N   0  0  0  0  0  0  0  0  0  0  0  0
  161.1930  205.6010  145.2910 C   0  0  0  0  0  0  0  0  0  0  0  0
  160.4540  206.5180  146.1970 C   0  0  2  0  0  3  0  0  0  0  0  0
  160.3030  206.5630  144.7910 O   0  0  0  0  0  0  0  0  0  0  0  0
  160.7030  204.3150  145.0860 O   0  0  0  0  0  1  0  0  0  0  0  0
  162.4940  205.8690  144.8570 O   0  0  0  0  0  1  0  0  0  0  0  0
  160.5220  209.9170  146.1850 C   0  0  0  0  0  3  0  0  0  0  0  0
  160.5980  208.9210  147.0750 C   0  0  0  0  0  3  0  0  0  0  0  0
  159.7570  211.1550  146.5100 C   0  0  0  0  0  2  0  0  0  0  0  0
  160.3500  211.6780  144.1760 C   0  0  0  0  0  3  0  0  0  0  0  0
  158.5050  213.7520  143.9890 C   0  0  0  0  0  3  0  0  0  0  0  0
  160.2380  212.3860  142.9790 C   0  0  0  0  0  0  0  0  0  0  0  0
  159.2750  213.4070  142.8640 C   0  0  0  0  0  0  0  0  0  0  0  0
  158.6410  213.0710  145.2050 C   0  0  0  0  0  0  0  0  0  0  0  0
  159.5680  211.9960  145.2890 C   0  0  0  0  0  0  0  0  0  0  0  0
  157.8330  213.5000  146.2670 O   0  0  0  0  0  0  0  0  0  0  0  0
  157.5490  212.7530  147.4480 C   0  0  0  0  0  1  0  0  0  0  0  0
  159.0610  214.0090  141.6160 O   0  0  0  0  0  0  0  0  0  0  0  0
  158.2700  214.3380  139.3060 C   0  0  0  0  0  2  0  0  0  0  0  0
  158.0980  213.6190  140.6360 C   0  0  1  0  0  3  0  0  0  0  0  0
  158.0760  212.1140  140.4180 C   0  0  0  0  0  2  0  0  0  0  0  0
  156.6440  212.5810  138.4540 C   0  0  0  0  0  3  0  0  0  0  0  0
  157.0730  214.0300  138.4070 C   0  0  0  0  0  2  0  0  0  0  0  0
  157.0310  211.7250  139.4080 C   0  0  0  0  0  0  0  0  0  0  0  0
  156.5050  210.4290  139.4770 O   0  0  0  0  0  0  0  0  0  0  0  0
  156.0750  209.7030  138.3320 C   0  0  0  0  0  2  0  0  0  0  0  0
  154.6940  209.1130  138.5800 C   0  0  0  0  0  2  0  0  0  0  0  0
  154.1180  209.6210  139.8940 C   0  0  0  0  0  2  0  0  0  0  0  0
  152.8330  208.8770  140.2140 C   0  0  0  0  0  1  0  0  0  0  0  0
  161.1040  212.0430  141.9320 O   0  0  0  0  0  0  0  0  0  0  0  0
  162.3790  212.6580  141.7510 C   0  0  2  0  0  3  0  0  0  0  0  0
  162.2280  214.0900  141.1930 C   0  0  0  0  0  2  0  0  0  0  0  0
  163.2580  211.7760  140.8590 C   0  0  0  0  0  2  0  0  0  0  0  0
  162.7190  211.6910  139.4250 C   0  0  0  0  0  2  0  0  0  0  0  0
  162.5910  214.2120  139.7100 C   0  0  0  0  0  2  0  0  0  0  0  0
  162.0750  212.9970  138.9350 C   0  0  1  0  0  3  0  0  0  0  0  0
  162.3360  213.1640  137.5740 O   0  0  0  0  0  1  0  0  0  0  0  0
  1 40  1  1  0  0  0
  2  7  1  0  0  0  0
  3  1  1  6  0  0  0
  3  2  1  0  0  0  0
  3  6  1  0  0  0  0
  4  2  2  0  0  0  0
  5  9  1  1  0  0  0
  6  8  1  0  0  0  0
  7  5  1  0  0  0  0
  8  5  1  0  0  0  0
  9 10  1  0  0  0  0
 10 12  1  0  0  0  0
 11 15  1  0  0  0  0
 12 11  2  0  0  0  0
 15 14  1  0  0  0  0
 15 13  1  0  0  0  0
 16 24  1  1  0  0  0
 16 11  1  0  0  0  0
 16 22  1  0  0  0  0
 18 23  1  0  0  0  0
 18 17  1  0  0  0  0
 19 18  2  0  0  0  0
 20 23  2  0  0  0  0
 21 22  2  0  0  0  0
 21 19  1  0  0  0  0
 22 20  1  0  0  0  0
 25 24  1  0  0  0  0
 26 25  1  0  0  0  0
 27 29  2  0  0  0  0
 28 26  2  0  0  0  0
 29 26  1  0  0  0  0
 30 31  2  0  0  0  0
 30 27  1  0  0  0  0
 31 28  1  0  0  0  0
 32 31  1  0  0  0  0
 33 32  3  0  0  0  0
 34 35  1  0  0  0  0
 35  1  1  6  0  0  0
 36 34  1  0  0  0  0
 36 35  1  0  0  0  0
 37 34  1  0  0  0  0
 38 34  1  0  0  0  0
 39 41  1  0  0  0  0
 39 40  2  0  0  0  0
 42 47  1  0  0  0  0
 43 46  1  0  0  0  0
 44 42  2  0  0  0  0
 45 44  1  0  0  0  0
 45 43  2  0  0  0  0
 46 47  2  0  0  0  0
 46 48  1  0  0  0  0
 47 41  1  0  0  0  0
 48 49  1  0  0  0  0
 50 45  1  0  0  0  0
 51 52  1  0  0  0  0
 52 50  1  1  0  0  0
 53 52  1  0  0  0  0
 54 56  2  0  0  0  0
 55 54  1  0  0  0  0
 55 51  1  0  0  0  0
 56 57  1  0  0  0  0
 56 53  1  0  0  0  0
 58 59  1  0  0  0  0
 58 57  1  0  0  0  0
 59 60  1  0  0  0  0
 60 61  1  0  0  0  0
 62 44  1  0  0  0  0
 63 62  1  6  0  0  0
 64 63  1  0  0  0  0
 65 63  1  0  0  0  0
 66 65  1  0  0  0  0
 67 64  1  0  0  0  0
 68 69  1  6  0  0  0
 68 66  1  0  0  0  0
 68 67  1  0  0  0  0
M  END
>  <MODEL>
2

>  <REMARK>
 VINA RESULT:      -1.7      3.599     10.459
  Name = 
  24 active torsions:
  status: ('A' for Active; 'I' for Inactive)
    1  A    between atoms: C_1  and  C_12
    2  A    between atoms: C_1  and  C_52
    3  A    between atoms: C_5  and  C_54
    4  A    between atoms: C_6  and  O_33
    5  A    between atoms: N_9  and  C_11
    6  A    between atoms: N_9  and  C_15
    7  A    between atoms: C_10  and  C_24
    8  A    between atoms: C_12  and  C_15
    9  A    between atoms: C_12  and  C_49
   10  A    between atoms: C_17  and  C_24
   11  A    between atoms: C_19  and  O_30
   12  A    between atoms: C_21  and  C_65
   13  A    between atoms: C_22  and  C_50
   14  A    between atoms: C_24  and  C_28
   15  A    between atoms: O_27  and  N_42
   16  A    between atoms: O_27  and  C_50
   17  A    between atoms: C_29  and  C_68
   18  A    between atoms: O_30  and  C_40
   19  A    between atoms: C_32  and  O_33
   20  A    between atoms: O_35  and  C_45
   21  A    between atoms: O_35  and  C_46
   22  A    between atoms: O_41  and  C_62
   23  A    between atoms: C_45  and  C_68
   24  A    between atoms: C_54  and  C_64
                            x       y       z     vdW  Elec       q    Type
                         _______ _______ _______ _____ _____    ______ ____

>  <TORSDO>
F 24

$$$$
=
 OpenBabel11072410073D

 69 75  0  0  1  0  0  0  0  0999 V2000
  161.4850  203.7380  147.7850 C   0  0  1  0  0  3  0  0  0  0  0  0
  162.9940  205.7450  147.3250 C   0  0  0  0  0  0  0  0  0  0  0  0
  161.9960  204.7650  146.7590 C   0  0  2  0  0  3  0  0  0  0  0  0
  164.1300  205.3430  147.6860 O   0  0  0  0  0  0  0  0  0  0  0  0
  161.5530  207.6980  146.8220 C   0  0  1  0  0  3  0  0  0  0  0  0
  160.8560  205.4560  146.0060 C   0  0  0  0  0  2  0  0  0  0  0  0
  162.6610  207.0950  147.4890 O   0  0  0  0  0  0  0  0  0  0  0  0
  160.3870  206.7240  146.7120 C   0  0  0  0  0  2  0  0  0  0  0  0
  161.1160  208.9470  147.5790 C   0  0  0  0  0  2  0  0  0  0  0  0
  161.0470  210.0610  146.7040 O   0  0  0  0  0  0  0  0  0  0  0  0
  161.3390  212.3850  146.4270 C   0  0  0  0  0  0  0  0  0  0  0  0
  161.5070  211.2930  147.1130 N   0  0  0  0  0  0  0  0  0  0  0  0
  162.5650  213.4740  148.2990 C   0  0  0  0  0  1  0  0  0  0  0  0
  162.6890  214.4220  146.0020 C   0  0  0  0  0  1  0  0  0  0  0  0
  161.8040  213.6910  146.9980 C   0  0  0  0  0  3  0  0  0  0  0  0
  160.7000  212.4210  145.0600 C   0  0  1  0  0  3  0  0  0  0  0  0
  155.3540  214.4510  145.2740 N   0  0  0  0  0  1  0  0  0  0  0  0
  156.6800  213.9460  145.2020 C   0  0  0  0  0  0  0  0  0  0  0  0
  157.1970  213.1970  146.2630 C   0  0  0  0  0  3  0  0  0  0  0  0
  158.7880  213.7240  144.0240 C   0  0  0  0  0  3  0  0  0  0  0  0
  158.5080  212.7140  146.2060 C   0  0  0  0  0  3  0  0  0  0  0  0
  159.3100  212.9750  145.0910 C   0  0  0  0  0  0  0  0  0  0  0  0
  157.4730  214.2070  144.0830 C   0  0  0  0  0  3  0  0  0  0  0  0
  161.5390  213.0280  143.9430 C   0  0  0  0  0  2  0  0  0  0  0  0
  161.6990  212.0850  142.8440 N   0  0  0  0  0  2  0  0  0  0  0  0
  161.0830  212.2910  141.5690 C   0  0  0  0  0  0  0  0  0  0  0  0
  159.1280  212.2680  140.1260 C   0  0  0  0  0  3  0  0  0  0  0  0
  161.8700  212.6780  140.4780 C   0  0  0  0  0  3  0  0  0  0  0  0
  159.7110  212.0800  141.3850 C   0  0  0  0  0  3  0  0  0  0  0  0
  159.9210  212.6490  139.0410 C   0  0  0  0  0  3  0  0  0  0  0  0
  161.2940  212.8500  139.2150 C   0  0  0  0  0  0  0  0  0  0  0  0
  162.1070  213.2290  138.0980 C   0  0  0  0  0  0  0  0  0  0  0  0
  162.7590  213.5370  137.1960 N   0  0  0  0  0  0  0  0  0  0  0  0
  161.0360  201.2810  147.4670 C   0  0  0  0  0  0  0  0  0  0  0  0
  162.0720  202.3460  147.4630 C   0  0  2  0  0  3  0  0  0  0  0  0
  161.9290  201.4360  148.5370 O   0  0  0  0  0  0  0  0  0  0  0  0
  161.2820  200.0980  146.7790 O   0  0  0  0  0  1  0  0  0  0  0  0
  159.7240  201.5170  147.8890 O   0  0  0  0  0  1  0  0  0  0  0  0
  160.8330  203.8140  150.1620 C   0  0  0  0  0  3  0  0  0  0  0  0
  161.6960  204.1830  149.2090 C   0  0  0  0  0  3  0  0  0  0  0  0
  161.0570  204.2290  151.5770 C   0  0  0  0  0  2  0  0  0  0  0  0
  161.5140  206.2530  152.9060 C   0  0  0  0  0  3  0  0  0  0  0  0
  160.7800  207.9790  150.8520 C   0  0  0  0  0  3  0  0  0  0  0  0
  161.5850  207.6310  153.1150 C   0  0  0  0  0  0  0  0  0  0  0  0
  161.2580  208.5090  152.0640 C   0  0  0  0  0  0  0  0  0  0  0  0
  160.6700  206.5980  150.6510 C   0  0  0  0  0  0  0  0  0  0  0  0
  161.0690  205.7190  151.6950 C   0  0  0  0  0  0  0  0  0  0  0  0
  160.1740  206.1740  149.4090 O   0  0  0  0  0  0  0  0  0  0  0  0
  158.9300  206.5700  148.8350 C   0  0  0  0  0  1  0  0  0  0  0  0
  161.4780  209.8840  152.2270 O   0  0  0  0  0  0  0  0  0  0  0  0
  160.5890  211.1620  154.1360 C   0  0  0  0  0  2  0  0  0  0  0  0
  160.5200  210.8560  152.6480 C   0  0  1  0  0  3  0  0  0  0  0  0
  160.6170  212.1430  151.8440 C   0  0  0  0  0  2  0  0  0  0  0  0
  159.0880  213.1200  153.5290 C   0  0  0  0  0  3  0  0  0  0  0  0
  159.3940  212.0290  154.5300 C   0  0  0  0  0  2  0  0  0  0  0  0
  159.5750  213.1370  152.2820 C   0  0  0  0  0  0  0  0  0  0  0  0
  159.1610  214.1020  151.3550 O   0  0  0  0  0  0  0  0  0  0  0  0
  158.6500  213.7760  150.0690 C   0  0  0  0  0  2  0  0  0  0  0  0
  157.2470  213.2000  150.1980 C   0  0  0  0  0  2  0  0  0  0  0  0
  156.2530  214.0090  149.3760 C   0  0  0  0  0  2  0  0  0  0  0  0
  155.0840  214.4290  150.2500 C   0  0  0  0  0  1  0  0  0  0  0  0
  161.9840  208.0810  154.3800 O   0  0  0  0  0  0  0  0  0  0  0  0
  161.6470  207.3950  155.5850 C   0  0  2  0  0  3  0  0  0  0  0  0
  160.2100  206.8320  155.5190 C   0  0  0  0  0  2  0  0  0  0  0  0
  161.8520  208.3240  156.7850 C   0  0  0  0  0  2  0  0  0  0  0  0
  160.8630  209.4980  156.7790 C   0  0  0  0  0  2  0  0  0  0  0  0
  159.2020  207.6240  156.3560 C   0  0  0  0  0  2  0  0  0  0  0  0
  159.4740  209.1250  156.2370 C   0  0  1  0  0  3  0  0  0  0  0  0
  158.4960  209.8350  156.9340 O   0  0  0  0  0  1  0  0  0  0  0  0
  1 40  1  1  0  0  0
  2  7  1  0  0  0  0
  2  4  2  0  0  0  0
  3  2  1  0  0  0  0
  3  1  1  1  0  0  0
  5  7  1  0  0  0  0
  5  9  1  1  0  0  0
  6  8  1  0  0  0  0
  6  3  1  0  0  0  0
  8  5  1  0  0  0  0
 10 12  1  0  0  0  0
 10  9  1  0  0  0  0
 11 15  1  0  0  0  0
 11 12  2  0  0  0  0
 14 15  1  0  0  0  0
 15 13  1  0  0  0  0
 16 24  1  6  0  0  0
 16 22  1  0  0  0  0
 16 11  1  0  0  0  0
 18 17  1  0  0  0  0
 18 19  1  0  0  0  0
 20 23  1  0  0  0  0
 20 22  2  0  0  0  0
 21 19  2  0  0  0  0
 22 21  1  0  0  0  0
 23 18  2  0  0  0  0
 25 24  1  0  0  0  0
 26 25  1  0  0  0  0
 27 29  2  0  0  0  0
 28 26  2  0  0  0  0
 29 26  1  0  0  0  0
 30 31  2  0  0  0  0
 30 27  1  0  0  0  0
 31 28  1  0  0  0  0
 32 31  1  0  0  0  0
 33 32  3  0  0  0  0
 34 38  1  0  0  0  0
 34 36  1  0  0  0  0
 35 34  1  0  0  0  0
 35  1  1  1  0  0  0
 35 36  1  0  0  0  0
 37 34  1  0  0  0  0
 39 41  1  0  0  0  0
 40 39  2  0  0  0  0
 41 47  1  0  0  0  0
 42 44  1  0  0  0  0
 43 45  1  0  0  0  0
 44 62  1  0  0  0  0
 45 50  1  0  0  0  0
 45 44  2  0  0  0  0
 46 43  2  0  0  0  0
 46 47  1  0  0  0  0
 47 42  2  0  0  0  0
 48 46  1  0  0  0  0
 49 48  1  0  0  0  0
 51 55  1  0  0  0  0
 52 50  1  6  0  0  0
 52 51  1  0  0  0  0
 53 56  1  0  0  0  0
 53 52  1  0  0  0  0
 54 55  1  0  0  0  0
 56 54  2  0  0  0  0
 57 56  1  0  0  0  0
 58 59  1  0  0  0  0
 58 57  1  0  0  0  0
 60 59  1  0  0  0  0
 60 61  1  0  0  0  0
 63 62  1  6  0  0  0
 63 65  1  0  0  0  0
 64 63  1  0  0  0  0
 64 67  1  0  0  0  0
 66 65  1  0  0  0  0
 68 67  1  0  0  0  0
 68 66  1  0  0  0  0
 68 69  1  1  0  0  0
M  END
>  <MODEL>
3

>  <REMARK>
 VINA RESULT:      -0.2      1.376      2.024
  Name = 
  24 active torsions:
  status: ('A' for Active; 'I' for Inactive)
    1  A    between atoms: C_1  and  C_12
    2  A    between atoms: C_1  and  C_52
    3  A    between atoms: C_5  and  C_54
    4  A    between atoms: C_6  and  O_33
    5  A    between atoms: N_9  and  C_11
    6  A    between atoms: N_9  and  C_15
    7  A    between atoms: C_10  and  C_24
    8  A    between atoms: C_12  and  C_15
    9  A    between atoms: C_12  and  C_49
   10  A    between atoms: C_17  and  C_24
   11  A    between atoms: C_19  and  O_30
   12  A    between atoms: C_21  and  C_65
   13  A    between atoms: C_22  and  C_50
   14  A    between atoms: C_24  and  C_28
   15  A    between atoms: O_27  and  N_42
   16  A    between atoms: O_27  and  C_50
   17  A    between atoms: C_29  and  C_68
   18  A    between atoms: O_30  and  C_40
   19  A    between atoms: C_32  and  O_33
   20  A    between atoms: O_35  and  C_45
   21  A    between atoms: O_35  and  C_46
   22  A    between atoms: O_41  and  C_62
   23  A    between atoms: C_45  and  C_68
   24  A    between atoms: C_54  and  C_64
                            x       y       z     vdW  Elec       q    Type
                         _______ _______ _______ _____ _____    ______ ____

>  <TORSDO>
F 24

$$$$
=
 OpenBabel11072410073D

 69 75  0  0  1  0  0  0  0  0999 V2000
  161.8910  206.6160  148.0810 C   0  0  1  0  0  3  0  0  0  0  0  0
  162.6520  205.3290  146.0120 C   0  0  0  0  0  0  0  0  0  0  0  0
  161.5870  205.4980  147.0680 C   0  0  2  0  0  3  0  0  0  0  0  0
  163.7920  204.9070  146.3360 O   0  0  0  0  0  0  0  0  0  0  0  0
  161.0790  205.8330  144.1640 C   0  0  1  0  0  3  0  0  0  0  0  0
  160.1810  205.6160  146.4720 C   0  0  0  0  0  2  0  0  0  0  0  0
  162.4010  205.6690  144.6780 O   0  0  0  0  0  0  0  0  0  0  0  0
  160.1650  206.4650  145.2050 C   0  0  0  0  0  2  0  0  0  0  0  0
  161.1190  206.7030  142.9130 C   0  0  0  0  0  2  0  0  0  0  0  0
  162.4110  206.6720  142.3270 O   0  0  0  0  0  0  0  0  0  0  0  0
  162.0390  207.4650  140.1370 C   0  0  0  0  0  0  0  0  0  0  0  0
  162.5490  206.5960  140.9580 N   0  0  0  0  0  0  0  0  0  0  0  0
  162.7110  205.9140  138.3110 C   0  0  0  0  0  1  0  0  0  0  0  0
  161.0960  207.7530  137.8610 C   0  0  0  0  0  1  0  0  0  0  0  0
  162.3160  207.3400  138.6690 C   0  0  0  0  0  3  0  0  0  0  0  0
  161.1600  208.6120  140.5760 C   0  0  1  0  0  3  0  0  0  0  0  0
  163.7800  213.6990  140.4900 N   0  0  0  0  0  1  0  0  0  0  0  0
  163.1380  212.4310  140.4950 C   0  0  0  0  0  0  0  0  0  0  0  0
  161.8860  212.2890  141.0990 C   0  0  0  0  0  3  0  0  0  0  0  0
  163.1330  210.0710  139.9380 C   0  0  0  0  0  3  0  0  0  0  0  0
  161.2580  211.0400  141.1240 C   0  0  0  0  0  3  0  0  0  0  0  0
  161.8760  209.9260  140.5470 C   0  0  0  0  0  0  0  0  0  0  0  0
  163.7600  211.3250  139.9130 C   0  0  0  0  0  3  0  0  0  0  0  0
  159.7840  208.6890  139.9270 C   0  0  0  0  0  2  0  0  0  0  0  0
  159.4560  210.0620  139.5700 N   0  0  0  0  0  2  0  0  0  0  0  0
  158.3550  210.3840  138.7150 C   0  0  0  0  0  0  0  0  0  0  0  0
  156.7370  209.7660  137.0110 C   0  0  0  0  0  3  0  0  0  0  0  0
  157.8420  211.6870  138.7130 C   0  0  0  0  0  3  0  0  0  0  0  0
  157.8020  209.4280  137.8550 C   0  0  0  0  0  3  0  0  0  0  0  0
  156.2340  211.0690  137.0110 C   0  0  0  0  0  3  0  0  0  0  0  0
  156.7900  212.0320  137.8580 C   0  0  0  0  0  0  0  0  0  0  0  0
  156.2810  213.3720  137.8470 C   0  0  0  0  0  0  0  0  0  0  0  0
  155.8760  214.4530  137.8400 N   0  0  0  0  0  0  0  0  0  0  0  0
  162.4810  209.0590  148.2260 C   0  0  0  0  0  0  0  0  0  0  0  0
  161.9760  207.9730  147.3480 C   0  0  2  0  0  3  0  0  0  0  0  0
  161.1190  208.9480  147.9110 O   0  0  0  0  0  0  0  0  0  0  0  0
  163.0360  210.1940  147.6440 O   0  0  0  0  0  1  0  0  0  0  0  0
  162.6800  208.8790  149.5980 O   0  0  0  0  0  1  0  0  0  0  0  0
  161.3510  207.0880  150.4400 C   0  0  0  0  0  3  0  0  0  0  0  0
  160.9500  206.6080  149.2580 C   0  0  0  0  0  3  0  0  0  0  0  0
  160.4100  207.1070  151.5980 C   0  0  0  0  0  2  0  0  0  0  0  0
  160.5310  209.5580  151.8260 C   0  0  0  0  0  3  0  0  0  0  0  0
  161.0950  209.4520  154.5470 C   0  0  0  0  0  3  0  0  0  0  0  0
  160.7090  210.7480  152.5320 C   0  0  0  0  0  0  0  0  0  0  0  0
  160.9490  210.7020  153.9190 C   0  0  0  0  0  0  0  0  0  0  0  0
  160.9550  208.2550  153.8350 C   0  0  0  0  0  0  0  0  0  0  0  0
  160.6440  208.3130  152.4490 C   0  0  0  0  0  0  0  0  0  0  0  0
  161.1290  207.0640  154.5550 O   0  0  0  0  0  0  0  0  0  0  0  0
  161.2840  206.9640  155.9680 C   0  0  0  0  0  1  0  0  0  0  0  0
  160.9730  211.8980  154.6500 O   0  0  0  0  0  0  0  0  0  0  0  0
  160.2980  213.7180  156.1670 C   0  0  0  0  0  2  0  0  0  0  0  0
  159.9620  212.3740  155.5380 C   0  0  1  0  0  3  0  0  0  0  0  0
  158.5960  212.4360  154.8720 C   0  0  0  0  0  2  0  0  0  0  0  0
  157.8570  213.6960  156.8710 C   0  0  0  0  0  3  0  0  0  0  0  0
  159.2790  214.0340  157.2600 C   0  0  0  0  0  2  0  0  0  0  0  0
  157.5410  212.9070  155.8370 C   0  0  0  0  0  0  0  0  0  0  0  0
  156.2150  212.5230  155.5950 O   0  0  0  0  0  0  0  0  0  0  0  0
  155.8640  211.3700  154.8400 C   0  0  0  0  0  2  0  0  0  0  0  0
  155.7670  210.1590  155.7560 C   0  0  0  0  0  2  0  0  0  0  0  0
  154.5830  210.2920  156.7040 C   0  0  0  0  0  2  0  0  0  0  0  0
  153.4760  209.3430  156.2800 C   0  0  0  0  0  1  0  0  0  0  0  0
  160.6390  211.9500  151.8170 O   0  0  0  0  0  0  0  0  0  0  0  0
  159.5930  212.9030  152.0060 C   0  0  2  0  0  3  0  0  0  0  0  0
  158.3370  212.5140  151.1950 C   0  0  0  0  0  2  0  0  0  0  0  0
  160.1000  214.3050  151.6560 C   0  0  0  0  0  2  0  0  0  0  0  0
  160.4160  214.4460  150.1610 C   0  0  0  0  0  2  0  0  0  0  0  0
  158.1230  213.3740  149.9460 C   0  0  0  0  0  2  0  0  0  0  0  0
  159.4610  213.6520  149.2560 C   0  0  1  0  0  3  0  0  0  0  0  0
  159.2400  214.3600  148.0750 O   0  0  0  0  0  1  0  0  0  0  0  0
  1 40  1  1  0  0  0
  2  4  2  0  0  0  0
  2  3  1  0  0  0  0
  3  1  1  6  0  0  0
  5  9  1  6  0  0  0
  5  7  1  0  0  0  0
  5  8  1  0  0  0  0
  6  3  1  0  0  0  0
  7  2  1  0  0  0  0
  8  6  1  0  0  0  0
 10  9  1  0  0  0  0
 11 16  1  0  0  0  0
 11 12  2  0  0  0  0
 12 10  1  0  0  0  0
 13 15  1  0  0  0  0
 14 15  1  0  0  0  0
 15 11  1  0  0  0  0
 16 24  1  6  0  0  0
 17 18  1  0  0  0  0
 18 19  1  0  0  0  0
 19 21  2  0  0  0  0
 20 22  2  0  0  0  0
 22 16  1  0  0  0  0
 22 21  1  0  0  0  0
 23 20  1  0  0  0  0
 23 18  2  0  0  0  0
 25 24  1  0  0  0  0
 26 25  1  0  0  0  0
 27 29  1  0  0  0  0
 28 26  1  0  0  0  0
 29 26  2  0  0  0  0
 30 27  2  0  0  0  0
 30 31  1  0  0  0  0
 31 28  2  0  0  0  0
 32 31  1  0  0  0  0
 33 32  3  0  0  0  0
 34 38  1  0  0  0  0
 35 36  1  0  0  0  0
 35  1  1  1  0  0  0
 35 34  1  0  0  0  0
 36 34  1  0  0  0  0
 37 34  1  0  0  0  0
 39 41  1  0  0  0  0
 40 39  2  0  0  0  0
 41 47  1  0  0  0  0
 42 47  2  0  0  0  0
 42 44  1  0  0  0  0
 44 45  2  0  0  0  0
 45 43  1  0  0  0  0
 45 50  1  0  0  0  0
 46 43  2  0  0  0  0
 46 48  1  0  0  0  0
 47 46  1  0  0  0  0
 48 49  1  0  0  0  0
 51 55  1  0  0  0  0
 52 50  1  6  0  0  0
 52 51  1  0  0  0  0
 53 52  1  0  0  0  0
 53 56  1  0  0  0  0
 54 55  1  0  0  0  0
 56 54  2  0  0  0  0
 57 56  1  0  0  0  0
 58 57  1  0  0  0  0
 58 59  1  0  0  0  0
 59 60  1  0  0  0  0
 61 60  1  0  0  0  0
 62 44  1  0  0  0  0
 63 62  1  6  0  0  0
 64 63  1  0  0  0  0
 65 63  1  0  0  0  0
 66 65  1  0  0  0  0
 67 64  1  0  0  0  0
 68 69  1  6  0  0  0
 68 67  1  0  0  0  0
 68 66  1  0  0  0  0
M  END
>  <MODEL>
4

>  <REMARK>
 VINA RESULT:       0.4      2.912      6.662
  Name = 
  24 active torsions:
  status: ('A' for Active; 'I' for Inactive)
    1  A    between atoms: C_1  and  C_12
    2  A    between atoms: C_1  and  C_52
    3  A    between atoms: C_5  and  C_54
    4  A    between atoms: C_6  and  O_33
    5  A    between atoms: N_9  and  C_11
    6  A    between atoms: N_9  and  C_15
    7  A    between atoms: C_10  and  C_24
    8  A    between atoms: C_12  and  C_15
    9  A    between atoms: C_12  and  C_49
   10  A    between atoms: C_17  and  C_24
   11  A    between atoms: C_19  and  O_30
   12  A    between atoms: C_21  and  C_65
   13  A    between atoms: C_22  and  C_50
   14  A    between atoms: C_24  and  C_28
   15  A    between atoms: O_27  and  N_42
   16  A    between atoms: O_27  and  C_50
   17  A    between atoms: C_29  and  C_68
   18  A    between atoms: O_30  and  C_40
   19  A    between atoms: C_32  and  O_33
   20  A    between atoms: O_35  and  C_45
   21  A    between atoms: O_35  and  C_46
   22  A    between atoms: O_41  and  C_62
   23  A    between atoms: C_45  and  C_68
   24  A    between atoms: C_54  and  C_64
                            x       y       z     vdW  Elec       q    Type
                         _______ _______ _______ _____ _____    ______ ____

>  <TORSDO>
F 24

$$$$
=
 OpenBabel11072410073D

 69 75  0  0  1  0  0  0  0  0999 V2000
  161.2700  203.8750  148.1130 C   0  0  1  0  0  3  0  0  0  0  0  0
  162.9970  205.7480  147.9450 C   0  0  0  0  0  0  0  0  0  0  0  0
  162.0040  204.8810  147.2090 C   0  0  2  0  0  3  0  0  0  0  0  0
  164.0330  205.2320  148.4370 O   0  0  0  0  0  0  0  0  0  0  0  0
  161.8150  207.8390  147.3360 C   0  0  1  0  0  3  0  0  0  0  0  0
  161.0430  205.6970  146.3400 C   0  0  0  0  0  2  0  0  0  0  0  0
  162.7640  207.1170  148.1200 O   0  0  0  0  0  0  0  0  0  0  0  0
  160.5950  206.9810  147.0300 C   0  0  0  0  0  2  0  0  0  0  0  0
  161.3890  209.1000  148.0800 C   0  0  0  0  0  2  0  0  0  0  0  0
  161.0910  210.1410  147.1640 O   0  0  0  0  0  0  0  0  0  0  0  0
  160.9190  212.4650  146.7960 C   0  0  0  0  0  0  0  0  0  0  0  0
  161.3220  211.4550  147.5090 N   0  0  0  0  0  0  0  0  0  0  0  0
  159.9420  214.3570  148.0840 C   0  0  0  0  0  1  0  0  0  0  0  0
  162.3880  213.9100  148.1770 C   0  0  0  0  0  1  0  0  0  0  0  0
  161.1480  213.8580  147.3000 C   0  0  0  0  0  3  0  0  0  0  0  0
  160.2290  212.3210  145.4620 C   0  0  1  0  0  3  0  0  0  0  0  0
  154.9180  214.4530  145.4730 N   0  0  0  0  0  1  0  0  0  0  0  0
  156.2350  213.9200  145.4880 C   0  0  0  0  0  0  0  0  0  0  0  0
  157.2000  214.4270  144.6150 C   0  0  0  0  0  3  0  0  0  0  0  0
  157.8580  212.3430  146.3610 C   0  0  0  0  0  3  0  0  0  0  0  0
  158.4930  213.8920  144.6130 C   0  0  0  0  0  3  0  0  0  0  0  0
  158.8290  212.8490  145.4810 C   0  0  0  0  0  0  0  0  0  0  0  0
  156.5630  212.8810  146.3620 C   0  0  0  0  0  3  0  0  0  0  0  0
  161.0110  212.8010  144.2460 C   0  0  0  0  0  2  0  0  0  0  0  0
  160.1100  213.1720  143.1640 N   0  0  0  0  0  2  0  0  0  0  0  0
  160.1070  212.4870  141.9070 C   0  0  0  0  0  0  0  0  0  0  0  0
  161.1560  211.0030  140.2950 C   0  0  0  0  0  3  0  0  0  0  0  0
  159.0430  212.6820  141.0190 C   0  0  0  0  0  3  0  0  0  0  0  0
  161.1660  211.6500  141.5360 C   0  0  0  0  0  3  0  0  0  0  0  0
  160.0930  211.2070  139.4110 C   0  0  0  0  0  3  0  0  0  0  0  0
  159.0380  212.0510  139.7710 C   0  0  0  0  0  0  0  0  0  0  0  0
  157.9550  212.2690  138.8580 C   0  0  0  0  0  0  0  0  0  0  0  0
  157.0790  212.4440  138.1270 N   0  0  0  0  0  0  0  0  0  0  0  0
  160.8550  201.6850  146.9430 C   0  0  0  0  0  0  0  0  0  0  0  0
  161.7800  202.4470  147.8220 C   0  0  2  0  0  3  0  0  0  0  0  0
  160.9120  201.4490  148.3240 O   0  0  0  0  0  0  0  0  0  0  0  0
  161.3460  200.5960  146.2300 O   0  0  0  0  0  1  0  0  0  0  0  0
  159.5960  202.1730  146.5830 O   0  0  0  0  0  1  0  0  0  0  0  0
  160.8220  203.4330  150.4970 C   0  0  0  0  0  3  0  0  0  0  0  0
  161.3120  204.2620  149.5690 C   0  0  0  0  0  3  0  0  0  0  0  0
  160.8900  203.8010  151.9410 C   0  0  0  0  0  2  0  0  0  0  0  0
  161.5490  205.7290  153.3270 C   0  0  0  0  0  3  0  0  0  0  0  0
  160.9870  207.5800  151.3280 C   0  0  0  0  0  3  0  0  0  0  0  0
  161.7580  207.0870  153.5750 C   0  0  0  0  0  0  0  0  0  0  0  0
  161.5180  208.0230  152.5530 C   0  0  0  0  0  0  0  0  0  0  0  0
  160.7400  206.2240  151.0870 C   0  0  0  0  0  0  0  0  0  0  0  0
  161.0510  205.2780  152.1030 C   0  0  0  0  0  0  0  0  0  0  0  0
  160.2010  205.8890  149.8360 O   0  0  0  0  0  0  0  0  0  0  0  0
  159.1680  206.6020  149.1600 C   0  0  0  0  0  1  0  0  0  0  0  0
  161.8750  209.3640  152.7550 O   0  0  0  0  0  0  0  0  0  0  0  0
  161.1350  211.0230  151.0900 C   0  0  0  0  0  2  0  0  0  0  0  0
  161.0540  210.5090  152.5190 C   0  0  1  0  0  3  0  0  0  0  0  0
  159.6030  210.2650  152.9060 C   0  0  0  0  0  2  0  0  0  0  0  0
  159.1060  212.4000  151.7550 C   0  0  0  0  0  3  0  0  0  0  0  0
  160.4120  212.3650  150.9930 C   0  0  0  0  0  2  0  0  0  0  0  0
  158.7660  211.4960  152.6820 C   0  0  0  0  0  0  0  0  0  0  0  0
  157.6030  211.6440  153.4480 O   0  0  0  0  0  0  0  0  0  0  0  0
  157.6190  211.9620  154.8340 C   0  0  0  0  0  2  0  0  0  0  0  0
  156.2330  211.7620  155.4300 C   0  0  0  0  0  2  0  0  0  0  0  0
  155.7070  213.0630  156.0210 C   0  0  0  0  0  2  0  0  0  0  0  0
  155.2640  213.9930  154.9050 C   0  0  0  0  0  1  0  0  0  0  0  0
  162.2020  207.4570  154.8510 O   0  0  0  0  0  0  0  0  0  0  0  0
  161.3520  207.4490  155.9980 C   0  0  2  0  0  3  0  0  0  0  0  0
  159.9790  208.0780  155.6730 C   0  0  0  0  0  2  0  0  0  0  0  0
  162.0510  208.1500  157.1660 C   0  0  0  0  0  2  0  0  0  0  0  0
  162.2460  209.6500  156.9030 C   0  0  0  0  0  2  0  0  0  0  0  0
  159.7970  209.4850  156.2510 C   0  0  0  0  0  2  0  0  0  0  0  0
  161.0920  210.2880  156.1130 C   0  0  1  0  0  3  0  0  0  0  0  0
  160.8840  211.5920  156.5640 O   0  0  0  0  0  1  0  0  0  0  0  0
  1 40  1  1  0  0  0
  2  7  1  0  0  0  0
  2  4  2  0  0  0  0
  3  2  1  0  0  0  0
  3  1  1  1  0  0  0
  5  9  1  1  0  0  0
  5  7  1  0  0  0  0
  6  8  1  0  0  0  0
  6  3  1  0  0  0  0
  8  5  1  0  0  0  0
 10 12  1  0  0  0  0
 10  9  1  0  0  0  0
 11 15  1  0  0  0  0
 11 12  2  0  0  0  0
 15 13  1  0  0  0  0
 15 14  1  0  0  0  0
 16 24  1  6  0  0  0
 16 22  1  0  0  0  0
 16 11  1  0  0  0  0
 17 18  1  0  0  0  0
 18 23  1  0  0  0  0
 19 18  2  0  0  0  0
 20 23  2  0  0  0  0
 21 19  1  0  0  0  0
 21 22  2  0  0  0  0
 22 20  1  0  0  0  0
 25 24  1  0  0  0  0
 26 25  1  0  0  0  0
 27 29  2  0  0  0  0
 28 26  2  0  0  0  0
 29 26  1  0  0  0  0
 30 31  2  0  0  0  0
 30 27  1  0  0  0  0
 31 28  1  0  0  0  0
 32 31  1  0  0  0  0
 33 32  3  0  0  0  0
 34 35  1  0  0  0  0
 34 36  1  0  0  0  0
 35  1  1  1  0  0  0
 35 36  1  0  0  0  0
 37 34  1  0  0  0  0
 38 34  1  0  0  0  0
 39 41  1  0  0  0  0
 40 39  2  0  0  0  0
 41 47  1  0  0  0  0
 42 44  1  0  0  0  0
 43 45  1  0  0  0  0
 44 62  1  0  0  0  0
 45 50  1  0  0  0  0
 45 44  2  0  0  0  0
 46 43  2  0  0  0  0
 46 47  1  0  0  0  0
 47 42  2  0  0  0  0
 48 46  1  0  0  0  0
 49 48  1  0  0  0  0
 51 52  1  0  0  0  0
 52 50  1  6  0  0  0
 52 53  1  0  0  0  0
 54 56  2  0  0  0  0
 55 51  1  0  0  0  0
 55 54  1  0  0  0  0
 56 53  1  0  0  0  0
 56 57  1  0  0  0  0
 57 58  1  0  0  0  0
 58 59  1  0  0  0  0
 59 60  1  0  0  0  0
 61 60  1  0  0  0  0
 63 62  1  6  0  0  0
 63 65  1  0  0  0  0
 64 63  1  0  0  0  0
 64 67  1  0  0  0  0
 66 65  1  0  0  0  0
 68 67  1  0  0  0  0
 68 69  1  1  0  0  0
 68 66  1  0  0  0  0
M  END
>  <MODEL>
5

>  <REMARK>
 VINA RESULT:       0.6      1.503      1.988
  Name = 
  24 active torsions:
  status: ('A' for Active; 'I' for Inactive)
    1  A    between atoms: C_1  and  C_12
    2  A    between atoms: C_1  and  C_52
    3  A    between atoms: C_5  and  C_54
    4  A    between atoms: C_6  and  O_33
    5  A    between atoms: N_9  and  C_11
    6  A    between atoms: N_9  and  C_15
    7  A    between atoms: C_10  and  C_24
    8  A    between atoms: C_12  and  C_15
    9  A    between atoms: C_12  and  C_49
   10  A    between atoms: C_17  and  C_24
   11  A    between atoms: C_19  and  O_30
   12  A    between atoms: C_21  and  C_65
   13  A    between atoms: C_22  and  C_50
   14  A    between atoms: C_24  and  C_28
   15  A    between atoms: O_27  and  N_42
   16  A    between atoms: O_27  and  C_50
   17  A    between atoms: C_29  and  C_68
   18  A    between atoms: O_30  and  C_40
   19  A    between atoms: C_32  and  O_33
   20  A    between atoms: O_35  and  C_45
   21  A    between atoms: O_35  and  C_46
   22  A    between atoms: O_41  and  C_62
   23  A    between atoms: C_45  and  C_68
   24  A    between atoms: C_54  and  C_64
                            x       y       z     vdW  Elec       q    Type
                         _______ _______ _______ _____ _____    ______ ____

>  <TORSDO>
F 24

$$$$
