=
 OpenBabel11072411363D

 25 26  0  0  1  0  0  0  0  0999 V2000
  161.5020  202.2800  150.1970 O   0  0  0  0  0  0  0  0  0  0  0  0
  161.0950  206.0380  152.2940 C   0  0  0  0  0  2  0  0  0  0  0  0
  160.9060  208.2200  151.4840 C   0  0  1  0  0  3  0  0  0  0  0  0
  161.8950  206.6730  149.6810 C   0  0  0  0  0  3  0  0  0  0  0  0
  161.8820  203.7850  151.9840 C   0  0  0  0  0  2  0  0  0  0  0  0
  161.8230  207.8750  150.3080 C   0  0  0  0  0  3  0  0  0  0  0  0
  161.1130  202.5720  151.5050 C   0  0  0  0  0  2  0  0  0  0  0  0
  160.6090  202.9630  149.3640 C   0  0  1  0  0  3  0  0  0  0  0  0
  161.2120  204.3310  148.9580 C   0  0  2  0  0  3  0  0  0  0  0  0
  161.2230  205.0310  151.4960 C   0  0  2  0  0  3  0  0  0  0  0  0
  161.0320  207.2770  152.6550 C   0  0  0  0  0  2  0  0  0  0  0  0
  161.0730  205.4310  150.0360 C   0  0  1  0  0  3  0  0  0  0  0  0
  161.8860  210.3650  151.3190 O   0  0  0  0  0  0  0  0  0  0  0  0
  161.1050  209.6430  151.9200 C   0  0  0  0  0  0  0  0  0  0  0  0
  160.3490  210.1980  153.0920 C   0  0  1  0  0  3  0  0  0  0  0  0
  161.3080  210.7850  154.1090 C   0  0  0  0  0  1  0  0  0  0  0  0
  159.3470  211.2600  152.6580 C   0  0  0  0  0  2  0  0  0  0  0  0
  158.3460  211.5310  153.7650 C   0  0  0  0  0  1  0  0  0  0  0  0
  161.2020  200.9460  148.0880 N   0  0  0  0  0  1  0  0  0  0  0  0
  160.2690  202.0580  148.1760 C   0  0  0  0  0  2  0  0  0  0  0  0
  160.7080  204.8440  147.5930 C   0  0  0  0  0  2  0  0  0  0  0  0
  163.3230  204.7340  146.8400 O   0  0  0  0  0  1  0  0  0  0  0  0
  161.7670  205.9840  145.1620 O   0  0  0  0  0  0  0  0  0  0  0  0
  161.9360  204.6960  146.2440 P   0  0  0  0  0  0  0  0  0  0  0  0
  161.7310  203.2390  145.4110 O   0  0  0  0  0  1  0  0  0  0  0  0
  1  7  1  0  0  0  0
  2 11  1  0  0  0  0
  3 14  1  1  0  0  0
  3 11  1  0  0  0  0
  4  6  2  0  0  0  0
  6  3  1  0  0  0  0
  7  5  1  0  0  0  0
  8 20  1  6  0  0  0
  8  1  1  0  0  0  0
  9 21  1  6  0  0  0
  9  8  1  0  0  0  0
  9 12  1  0  0  0  0
 10  5  1  6  0  0  0
 10  2  1  0  0  0  0
 12  4  1  6  0  0  0
 12 10  1  0  0  0  0
 13 14  2  0  0  0  0
 14 15  1  0  0  0  0
 15 16  1  1  0  0  0
 17 15  1  0  0  0  0
 17 18  1  0  0  0  0
 19 20  1  0  0  0  0
 23 24  2  0  0  0  0
 24 22  1  0  0  0  0
 24 21  1  0  0  0  0
 25 24  1  0  0  0  0
M  END
>  <MODEL>
1

>  <REMARK>
 VINA RESULT:      -7.6      0.000      0.000
  Name = 
  6 active torsions:
  status: ('A' for Active; 'I' for Inactive)
    1  A    between atoms: C_4  and  C_7
    2  A    between atoms: C_4  and  C_16
    3  A    between atoms: C_7  and  C_8
    4  A    between atoms: C_9  and  C_17
    5  A    between atoms: C_9  and  P_23
    6  A    between atoms: C_15  and  C_22
                            x       y       z     vdW  Elec       q    Type
                         _______ _______ _______ _____ _____    ______ ____

>  <TORSDO>
F 6

$$$$
=
 OpenBabel11072411363D

 25 26  0  0  1  0  0  0  0  0999 V2000
  161.6100  210.6320  152.5010 O   0  0  0  0  0  0  0  0  0  0  0  0
  161.4610  206.8360  150.4400 C   0  0  0  0  0  2  0  0  0  0  0  0
  160.8340  204.7170  151.1960 C   0  0  1  0  0  3  0  0  0  0  0  0
  161.4060  206.2490  153.1840 C   0  0  0  0  0  3  0  0  0  0  0  0
  162.3410  209.0210  150.9280 C   0  0  0  0  0  2  0  0  0  0  0  0
  161.4010  205.0310  152.5830 C   0  0  0  0  0  3  0  0  0  0  0  0
  161.5880  210.3180  151.1420 C   0  0  0  0  0  2  0  0  0  0  0  0
  160.4510  210.0690  153.0490 C   0  0  1  0  0  3  0  0  0  0  0  0
  160.7750  208.6720  153.6360 C   0  0  2  0  0  3  0  0  0  0  0  0
  161.4510  207.8620  151.2230 C   0  0  2  0  0  3  0  0  0  0  0  0
  161.3840  205.5930  150.0980 C   0  0  0  0  0  2  0  0  0  0  0  0
  160.8470  207.5420  152.5830 C   0  0  1  0  0  3  0  0  0  0  0  0
  161.5880  202.5210  151.6400 O   0  0  0  0  0  0  0  0  0  0  0  0
  161.0100  203.2640  150.8610 C   0  0  0  0  0  0  0  0  0  0  0  0
  160.4780  202.7040  149.5740 C   0  0  1  0  0  3  0  0  0  0  0  0
  161.2660  203.2470  148.3970 C   0  0  0  0  0  1  0  0  0  0  0  0
  160.5240  201.1830  149.5650 C   0  0  0  0  0  2  0  0  0  0  0  0
  161.2850  200.6800  148.3530 C   0  0  0  0  0  1  0  0  0  0  0  0
  158.7470  211.7810  153.5080 N   0  0  0  0  0  1  0  0  0  0  0  0
  159.8730  211.0530  154.0700 C   0  0  0  0  0  2  0  0  0  0  0  0
  159.8510  208.2670  154.8030 C   0  0  0  0  0  2  0  0  0  0  0  0
  160.3910  207.2250  157.2610 O   0  0  0  0  0  1  0  0  0  0  0  0
  159.8690  209.7810  157.2610 O   0  0  0  0  0  1  0  0  0  0  0  0
  160.6030  208.4860  156.4570 P   0  0  0  0  0  0  0  0  0  0  0  0
  162.2620  208.7840  156.3210 O   0  0  0  0  0  0  0  0  0  0  0  0
  1  8  1  0  0  0  0
  3 14  1  6  0  0  0
  3  6  1  0  0  0  0
  5  7  1  0  0  0  0
  5 10  1  0  0  0  0
  6  4  2  0  0  0  0
  7  1  1  0  0  0  0
  8  9  1  0  0  0  0
  8 20  1  1  0  0  0
  9 21  1  1  0  0  0
 10  2  1  1  0  0  0
 10 12  1  0  0  0  0
 11  2  1  0  0  0  0
 11  3  1  0  0  0  0
 12  4  1  1  0  0  0
 12  9  1  0  0  0  0
 14 13  2  0  0  0  0
 15 16  1  6  0  0  0
 15 14  1  0  0  0  0
 17 15  1  0  0  0  0
 18 17  1  0  0  0  0
 19 20  1  0  0  0  0
 21 24  1  0  0  0  0
 24 22  1  0  0  0  0
 24 23  1  0  0  0  0
 25 24  2  0  0  0  0
M  END
>  <MODEL>
2

>  <REMARK>
 VINA RESULT:      -7.4      4.118      8.394
  Name = 
  6 active torsions:
  status: ('A' for Active; 'I' for Inactive)
    1  A    between atoms: C_4  and  C_7
    2  A    between atoms: C_4  and  C_16
    3  A    between atoms: C_7  and  C_8
    4  A    between atoms: C_9  and  C_17
    5  A    between atoms: C_9  and  P_23
    6  A    between atoms: C_15  and  C_22
                            x       y       z     vdW  Elec       q    Type
                         _______ _______ _______ _____ _____    ______ ____

>  <TORSDO>
F 6

$$$$
=
 OpenBabel11072411363D

 25 26  0  0  1  0  0  0  0  0999 V2000
  160.2850  208.4610  156.4850 O   0  0  0  0  0  0  0  0  0  0  0  0
  161.5700  206.4150  152.9010 C   0  0  0  0  0  2  0  0  0  0  0  0
  161.9840  207.2260  150.7500 C   0  0  1  0  0  3  0  0  0  0  0  0
  160.5190  208.8800  152.0700 C   0  0  0  0  0  3  0  0  0  0  0  0
  160.4030  206.6260  154.9940 C   0  0  0  0  0  2  0  0  0  0  0  0
  160.8670  208.2600  150.9130 C   0  0  0  0  0  3  0  0  0  0  0  0
  160.8960  207.2210  156.2970 C   0  0  0  0  0  2  0  0  0  0  0  0
  161.1480  209.4090  155.9230 C   0  0  1  0  0  3  0  0  0  0  0  0
  160.7170  209.7120  154.4660 C   0  0  2  0  0  3  0  0  0  0  0  0
  161.1740  207.1940  153.8510 C   0  0  2  0  0  3  0  0  0  0  0  0
  161.8780  206.0570  151.6980 C   0  0  0  0  0  2  0  0  0  0  0  0
  161.1770  208.6570  153.4340 C   0  0  1  0  0  3  0  0  0  0  0  0
  163.0030  207.1170  148.6200 O   0  0  0  0  0  0  0  0  0  0  0  0
  162.0750  206.7540  149.3280 C   0  0  0  0  0  0  0  0  0  0  0  0
  161.0380  205.8310  148.7580 C   0  0  1  0  0  3  0  0  0  0  0  0
  160.4840  206.3940  147.4640 C   0  0  0  0  0  1  0  0  0  0  0  0
  161.6030  204.4390  148.5130 C   0  0  0  0  0  2  0  0  0  0  0  0
  160.8480  203.4060  149.3280 C   0  0  0  0  0  1  0  0  0  0  0  0
  162.5290  210.9560  157.2460 N   0  0  0  0  0  1  0  0  0  0  0  0
  161.1710  210.6400  156.8330 C   0  0  0  0  0  2  0  0  0  0  0  0
  161.0970  211.1320  153.9960 C   0  0  0  0  0  2  0  0  0  0  0  0
  158.4210  211.3320  153.5290 O   0  0  0  0  0  1  0  0  0  0  0  0
  159.8920  212.9470  152.1020 O   0  0  0  0  0  0  0  0  0  0  0  0
  159.6610  212.1930  153.5980 P   0  0  0  0  0  0  0  0  0  0  0  0
  159.4480  213.3750  154.7900 O   0  0  0  0  0  1  0  0  0  0  0  0
  3 14  1  6  0  0  0
  3  6  1  0  0  0  0
  3 11  1  0  0  0  0
  5  7  1  0  0  0  0
  6  4  2  0  0  0  0
  7  1  1  0  0  0  0
  8  1  1  0  0  0  0
  8 20  1  1  0  0  0
  9 21  1  6  0  0  0
  9  8  1  0  0  0  0
 10  2  1  6  0  0  0
 10  5  1  0  0  0  0
 11  2  1  0  0  0  0
 12  4  1  6  0  0  0
 12 10  1  0  0  0  0
 12  9  1  0  0  0  0
 13 14  2  0  0  0  0
 15 16  1  6  0  0  0
 15 14  1  0  0  0  0
 17 15  1  0  0  0  0
 17 18  1  0  0  0  0
 20 19  1  0  0  0  0
 22 24  1  0  0  0  0
 23 24  2  0  0  0  0
 24 21  1  0  0  0  0
 24 25  1  0  0  0  0
M  END
>  <MODEL>
3

>  <REMARK>
 VINA RESULT:      -6.7      4.223      7.945
  Name = 
  6 active torsions:
  status: ('A' for Active; 'I' for Inactive)
    1  A    between atoms: C_4  and  C_7
    2  A    between atoms: C_4  and  C_16
    3  A    between atoms: C_7  and  C_8
    4  A    between atoms: C_9  and  C_17
    5  A    between atoms: C_9  and  P_23
    6  A    between atoms: C_15  and  C_22
                            x       y       z     vdW  Elec       q    Type
                         _______ _______ _______ _____ _____    ______ ____

>  <TORSDO>
F 6

$$$$
=
 OpenBabel11072411363D

 25 26  0  0  1  0  0  0  0  0999 V2000
  161.4990  203.4230  151.1240 O   0  0  0  0  0  0  0  0  0  0  0  0
  160.9620  206.8970  153.6380 C   0  0  0  0  0  2  0  0  0  0  0  0
  160.6070  209.1380  153.0830 C   0  0  1  0  0  3  0  0  0  0  0  0
  161.6060  207.8620  151.0840 C   0  0  0  0  0  3  0  0  0  0  0  0
  161.8670  204.7470  153.0510 C   0  0  0  0  0  2  0  0  0  0  0  0
  161.4910  208.9820  151.8430 C   0  0  0  0  0  3  0  0  0  0  0  0
  161.1510  203.5450  152.4690 C   0  0  0  0  0  2  0  0  0  0  0  0
  160.5310  204.1330  150.4050 C   0  0  1  0  0  3  0  0  0  0  0  0
  161.0330  205.5740  150.1320 C   0  0  2  0  0  3  0  0  0  0  0  0
  161.1140  205.9930  152.7300 C   0  0  2  0  0  3  0  0  0  0  0  0
  160.8400  208.0830  154.1360 C   0  0  0  0  0  2  0  0  0  0  0  0
  160.8770  206.5390  151.3300 C   0  0  1  0  0  3  0  0  0  0  0  0
  161.8280  210.9140  154.0550 O   0  0  0  0  0  0  0  0  0  0  0  0
  160.7400  210.5150  153.6670 C   0  0  0  0  0  0  0  0  0  0  0  0
  159.5470  211.4190  153.7770 C   0  0  1  0  0  3  0  0  0  0  0  0
  158.7990  211.4680  152.4580 C   0  0  0  0  0  1  0  0  0  0  0  0
  158.6050  210.9700  154.8850 C   0  0  0  0  0  2  0  0  0  0  0  0
  157.2250  211.5670  154.6860 C   0  0  0  0  0  1  0  0  0  0  0  0
  160.2990  201.9120  149.3760 N   0  0  0  0  0  1  0  0  0  0  0  0
  160.1930  203.3420  149.1380 C   0  0  0  0  0  2  0  0  0  0  0  0
  160.4400  206.1980  148.8520 C   0  0  0  0  0  2  0  0  0  0  0  0
  160.8970  206.6890  146.2120 O   0  0  0  0  0  0  0  0  0  0  0  0
  162.5240  204.9570  147.2870 O   0  0  0  0  0  1  0  0  0  0  0  0
  161.6460  206.3880  147.4890 P   0  0  0  0  0  0  0  0  0  0  0  0
  162.7160  207.6560  147.8150 O   0  0  0  0  0  1  0  0  0  0  0  0
  1  7  1  0  0  0  0
  2 11  1  0  0  0  0
  3 14  1  1  0  0  0
  3 11  1  0  0  0  0
  4  6  2  0  0  0  0
  6  3  1  0  0  0  0
  7  5  1  0  0  0  0
  8 20  1  6  0  0  0
  8  1  1  0  0  0  0
  9 21  1  6  0  0  0
  9  8  1  0  0  0  0
  9 12  1  0  0  0  0
 10  5  1  6  0  0  0
 10  2  1  0  0  0  0
 12  4  1  6  0  0  0
 12 10  1  0  0  0  0
 14 15  1  0  0  0  0
 14 13  2  0  0  0  0
 15 16  1  6  0  0  0
 15 17  1  0  0  0  0
 18 17  1  0  0  0  0
 20 19  1  0  0  0  0
 22 24  2  0  0  0  0
 23 24  1  0  0  0  0
 24 25  1  0  0  0  0
 24 21  1  0  0  0  0
M  END
>  <MODEL>
4

>  <REMARK>
 VINA RESULT:      -6.4      1.451      2.200
  Name = 
  6 active torsions:
  status: ('A' for Active; 'I' for Inactive)
    1  A    between atoms: C_4  and  C_7
    2  A    between atoms: C_4  and  C_16
    3  A    between atoms: C_7  and  C_8
    4  A    between atoms: C_9  and  C_17
    5  A    between atoms: C_9  and  P_23
    6  A    between atoms: C_15  and  C_22
                            x       y       z     vdW  Elec       q    Type
                         _______ _______ _______ _____ _____    ______ ____

>  <TORSDO>
F 6

$$$$
=
 OpenBabel11072411363D

 25 26  0  0  1  0  0  0  0  0999 V2000
  161.7060  210.5410  152.7400 O   0  0  0  0  0  0  0  0  0  0  0  0
  161.3210  207.0870  150.1700 C   0  0  0  0  0  2  0  0  0  0  0  0
  160.6750  204.8950  150.6520 C   0  0  1  0  0  3  0  0  0  0  0  0
  161.4090  206.1110  152.7990 C   0  0  0  0  0  3  0  0  0  0  0  0
  162.2950  209.1590  150.9100 C   0  0  0  0  0  2  0  0  0  0  0  0
  161.3320  204.9930  152.0320 C   0  0  0  0  0  3  0  0  0  0  0  0
  161.5950  210.4280  151.3540 C   0  0  0  0  0  2  0  0  0  0  0  0
  160.5650  209.9300  153.2730 C   0  0  1  0  0  3  0  0  0  0  0  0
  160.8800  208.4560  153.6320 C   0  0  2  0  0  3  0  0  0  0  0  0
  161.3880  207.9890  151.0910 C   0  0  2  0  0  3  0  0  0  0  0  0
  161.1860  205.9090  149.6590 C   0  0  0  0  0  2  0  0  0  0  0  0
  160.8560  207.4890  152.4260 C   0  0  1  0  0  3  0  0  0  0  0  0
  160.3260  202.5590  150.7260 O   0  0  0  0  0  0  0  0  0  0  0  0
  160.7870  203.5030  150.1020 C   0  0  0  0  0  0  0  0  0  0  0  0
  161.4570  203.2520  148.7830 C   0  0  1  0  0  3  0  0  0  0  0  0
  161.1480  201.8500  148.2930 C   0  0  0  0  0  1  0  0  0  0  0  0
  161.0270  204.2680  147.7350 C   0  0  0  0  0  2  0  0  0  0  0  0
  161.6200  203.9220  146.3820 C   0  0  0  0  0  1  0  0  0  0  0  0
  158.7330  211.2670  154.2220 N   0  0  0  0  0  1  0  0  0  0  0  0
  160.0780  210.7680  154.4580 C   0  0  0  0  0  2  0  0  0  0  0  0
  160.0140  207.9060  154.7840 C   0  0  0  0  0  2  0  0  0  0  0  0
  159.9260  209.0910  157.2350 O   0  0  0  0  0  1  0  0  0  0  0  0
  162.3320  208.7240  156.2970 O   0  0  0  0  0  0  0  0  0  0  0  0
  160.7620  208.1140  156.4410 P   0  0  0  0  0  0  0  0  0  0  0  0
  160.8120  206.6360  157.2610 O   0  0  0  0  0  1  0  0  0  0  0  0
  1  8  1  0  0  0  0
  3 14  1  6  0  0  0
  3  6  1  0  0  0  0
  5 10  1  0  0  0  0
  5  7  1  0  0  0  0
  6  4  2  0  0  0  0
  7  1  1  0  0  0  0
  8  9  1  0  0  0  0
  8 20  1  1  0  0  0
  9 21  1  1  0  0  0
 10  2  1  1  0  0  0
 10 12  1  0  0  0  0
 11  2  1  0  0  0  0
 11  3  1  0  0  0  0
 12  4  1  1  0  0  0
 12  9  1  0  0  0  0
 14 13  2  0  0  0  0
 15 16  1  6  0  0  0
 15 14  1  0  0  0  0
 17 15  1  0  0  0  0
 18 17  1  0  0  0  0
 19 20  1  0  0  0  0
 21 24  1  0  0  0  0
 23 24  2  0  0  0  0
 24 22  1  0  0  0  0
 24 25  1  0  0  0  0
M  END
>  <MODEL>
5

>  <REMARK>
 VINA RESULT:      -6.4      4.063      8.226
  Name = 
  6 active torsions:
  status: ('A' for Active; 'I' for Inactive)
    1  A    between atoms: C_4  and  C_7
    2  A    between atoms: C_4  and  C_16
    3  A    between atoms: C_7  and  C_8
    4  A    between atoms: C_9  and  C_17
    5  A    between atoms: C_9  and  P_23
    6  A    between atoms: C_15  and  C_22
                            x       y       z     vdW  Elec       q    Type
                         _______ _______ _______ _____ _____    ______ ____

>  <TORSDO>
F 6

$$$$
=
 OpenBabel11072411363D

 25 26  0  0  1  0  0  0  0  0999 V2000
  160.5830  204.3110  145.5670 O   0  0  0  0  0  0  0  0  0  0  0  0
  161.4290  207.7240  148.0810 C   0  0  0  0  0  2  0  0  0  0  0  0
  161.9300  207.8500  150.3580 C   0  0  1  0  0  3  0  0  0  0  0  0
  160.7940  205.6070  149.8090 C   0  0  0  0  0  3  0  0  0  0  0  0
  160.3580  206.5610  146.2670 C   0  0  0  0  0  2  0  0  0  0  0  0
  161.0080  206.6610  150.6390 C   0  0  0  0  0  3  0  0  0  0  0  0
  160.9710  205.6140  145.2560 C   0  0  0  0  0  2  0  0  0  0  0  0
  161.5820  203.7950  146.4010 C   0  0  1  0  0  3  0  0  0  0  0  0
  161.1790  203.9890  147.8840 C   0  0  2  0  0  3  0  0  0  0  0  0
  161.1900  206.5940  147.5040 C   0  0  2  0  0  3  0  0  0  0  0  0
  161.6470  208.5480  149.0510 C   0  0  0  0  0  2  0  0  0  0  0  0
  161.4330  205.4120  148.4310 C   0  0  1  0  0  3  0  0  0  0  0  0
  162.8200  209.6300  151.6330 O   0  0  0  0  0  0  0  0  0  0  0  0
  161.9110  208.8250  151.5000 C   0  0  0  0  0  0  0  0  0  0  0  0
  160.7790  208.8290  152.4850 C   0  0  1  0  0  3  0  0  0  0  0  0
  161.2070  208.1730  153.7830 C   0  0  0  0  0  1  0  0  0  0  0  0
  160.2840  210.2420  152.7620 C   0  0  0  0  0  2  0  0  0  0  0  0
  160.0800  210.4530  154.2500 C   0  0  0  0  0  1  0  0  0  0  0  0
  160.5880  201.6800  145.6350 N   0  0  0  0  0  1  0  0  0  0  0  0
  161.8310  202.3350  146.0100 C   0  0  0  0  0  2  0  0  0  0  0  0
  161.7840  202.9300  148.8290 C   0  0  0  0  0  2  0  0  0  0  0  0
  161.1370  200.6050  150.0920 O   0  0  0  0  0  1  0  0  0  0  0  0
  159.1710  201.7030  148.7750 O   0  0  0  0  0  0  0  0  0  0  0  0
  160.5380  201.9470  149.7400 P   0  0  0  0  0  0  0  0  0  0  0  0
  160.0810  202.7390  151.1630 O   0  0  0  0  0  1  0  0  0  0  0  0
  1  8  1  0  0  0  0
  2 11  1  0  0  0  0
  3  6  1  0  0  0  0
  3 14  1  1  0  0  0
  4  6  2  0  0  0  0
  7  1  1  0  0  0  0
  7  5  1  0  0  0  0
  8 20  1  6  0  0  0
  8  9  1  0  0  0  0
  9 12  1  0  0  0  0
  9 21  1  1  0  0  0
 10  5  1  1  0  0  0
 10  2  1  0  0  0  0
 10 12  1  0  0  0  0
 11  3  1  0  0  0  0
 12  4  1  1  0  0  0
 14 13  2  0  0  0  0
 14 15  1  0  0  0  0
 15 17  1  0  0  0  0
 15 16  1  1  0  0  0
 17 18  1  0  0  0  0
 19 20  1  0  0  0  0
 21 24  1  0  0  0  0
 23 24  2  0  0  0  0
 24 22  1  0  0  0  0
 24 25  1  0  0  0  0
M  END
>  <MODEL>
6

>  <REMARK>
 VINA RESULT:      -6.2      1.947      3.797
  Name = 
  6 active torsions:
  status: ('A' for Active; 'I' for Inactive)
    1  A    between atoms: C_4  and  C_7
    2  A    between atoms: C_4  and  C_16
    3  A    between atoms: C_7  and  C_8
    4  A    between atoms: C_9  and  C_17
    5  A    between atoms: C_9  and  P_23
    6  A    between atoms: C_15  and  C_22
                            x       y       z     vdW  Elec       q    Type
                         _______ _______ _______ _____ _____    ______ ____

>  <TORSDO>
F 6

$$$$
=
 OpenBabel11072411363D

 25 26  0  0  1  0  0  0  0  0999 V2000
  161.5340  210.8310  152.9250 O   0  0  0  0  0  0  0  0  0  0  0  0
  161.3490  207.6290  150.0280 C   0  0  0  0  0  2  0  0  0  0  0  0
  160.8620  205.3600  150.2950 C   0  0  1  0  0  3  0  0  0  0  0  0
  161.5420  206.4070  152.5460 C   0  0  0  0  0  3  0  0  0  0  0  0
  162.1890  209.6810  150.9630 C   0  0  0  0  0  2  0  0  0  0  0  0
  161.5310  205.3670  151.6720 C   0  0  0  0  0  3  0  0  0  0  0  0
  161.4110  210.8470  151.5360 C   0  0  0  0  0  2  0  0  0  0  0  0
  160.4450  210.0920  153.4030 C   0  0  1  0  0  3  0  0  0  0  0  0
  160.8660  208.6150  153.6120 C   0  0  2  0  0  3  0  0  0  0  0  0
  161.3680  208.4380  151.0340 C   0  0  2  0  0  3  0  0  0  0  0  0
  161.2880  206.5000  149.4030 C   0  0  0  0  0  2  0  0  0  0  0  0
  160.8900  207.7730  152.3160 C   0  0  1  0  0  3  0  0  0  0  0  0
  161.2030  203.9960  148.3960 O   0  0  0  0  0  0  0  0  0  0  0  0
  161.0620  204.0400  149.6090 C   0  0  0  0  0  0  0  0  0  0  0  0
  161.0970  202.7640  150.3970 C   0  0  1  0  0  3  0  0  0  0  0  0
  160.5580  202.9930  151.7960 C   0  0  0  0  0  1  0  0  0  0  0  0
  160.2990  201.6620  149.7140 C   0  0  0  0  0  2  0  0  0  0  0  0
  161.2180  200.7530  148.9200 C   0  0  0  0  0  1  0  0  0  0  0  0
  158.5550  211.2410  154.4790 N   0  0  0  0  0  1  0  0  0  0  0  0
  159.9190  210.7730  154.6700 C   0  0  0  0  0  2  0  0  0  0  0  0
  160.0560  207.8960  154.7110 C   0  0  0  0  0  2  0  0  0  0  0  0
  162.2410  208.3960  156.2570 O   0  0  0  0  0  0  0  0  0  0  0  0
  160.6300  206.5830  157.2170 O   0  0  0  0  0  1  0  0  0  0  0  0
  160.7770  208.0490  156.3860 P   0  0  0  0  0  0  0  0  0  0  0  0
  159.9940  209.2660  157.2610 O   0  0  0  0  0  1  0  0  0  0  0  0
  1  8  1  0  0  0  0
  3 14  1  6  0  0  0
  3  6  1  0  0  0  0
  5 10  1  0  0  0  0
  5  7  1  0  0  0  0
  6  4  2  0  0  0  0
  7  1  1  0  0  0  0
  8  9  1  0  0  0  0
  8 20  1  1  0  0  0
  9 21  1  1  0  0  0
 10  2  1  1  0  0  0
 10 12  1  0  0  0  0
 11  2  1  0  0  0  0
 11  3  1  0  0  0  0
 12  4  1  1  0  0  0
 12  9  1  0  0  0  0
 13 14  2  0  0  0  0
 14 15  1  0  0  0  0
 15 16  1  1  0  0  0
 17 15  1  0  0  0  0
 18 17  1  0  0  0  0
 19 20  1  0  0  0  0
 21 24  1  0  0  0  0
 22 24  2  0  0  0  0
 24 23  1  0  0  0  0
 24 25  1  0  0  0  0
M  END
>  <MODEL>
7

>  <REMARK>
 VINA RESULT:      -6.2      4.108      8.255
  Name = 
  6 active torsions:
  status: ('A' for Active; 'I' for Inactive)
    1  A    between atoms: C_4  and  C_7
    2  A    between atoms: C_4  and  C_16
    3  A    between atoms: C_7  and  C_8
    4  A    between atoms: C_9  and  C_17
    5  A    between atoms: C_9  and  P_23
    6  A    between atoms: C_15  and  C_22
                            x       y       z     vdW  Elec       q    Type
                         _______ _______ _______ _____ _____    ______ ____

>  <TORSDO>
F 6

$$$$
=
 OpenBabel11072411363D

 25 26  0  0  1  0  0  0  0  0999 V2000
  160.4820  205.1810  152.9680 O   0  0  0  0  0  0  0  0  0  0  0  0
  161.3060  203.9440  148.9100 C   0  0  0  0  0  2  0  0  0  0  0  0
  162.1720  205.1390  147.0990 C   0  0  1  0  0  3  0  0  0  0  0  0
  161.2540  206.7490  148.8860 C   0  0  0  0  0  3  0  0  0  0  0  0
  160.0950  203.9420  150.9890 C   0  0  0  0  0  2  0  0  0  0  0  0
  161.4720  206.4090  147.5890 C   0  0  0  0  0  3  0  0  0  0  0  0
  160.6410  203.9170  152.4020 C   0  0  0  0  0  2  0  0  0  0  0  0
  161.6670  205.8780  152.7060 C   0  0  1  0  0  3  0  0  0  0  0  0
  161.5040  206.7230  151.4170 C   0  0  2  0  0  3  0  0  0  0  0  0
  161.1180  204.5010  150.0580 C   0  0  2  0  0  3  0  0  0  0  0  0
  161.5820  203.8640  147.6500 C   0  0  0  0  0  2  0  0  0  0  0  0
  161.6650  205.9200  150.1060 C   0  0  1  0  0  3  0  0  0  0  0  0
  163.1430  204.5240  145.0350 O   0  0  0  0  0  0  0  0  0  0  0  0
  162.2260  205.0990  145.6000 C   0  0  0  0  0  0  0  0  0  0  0  0
  161.1570  205.7570  144.7770 C   0  0  1  0  0  3  0  0  0  0  0  0
  161.5800  205.8280  143.3230 C   0  0  0  0  0  1  0  0  0  0  0  0
  159.8300  205.0190  144.8910 C   0  0  0  0  0  2  0  0  0  0  0  0
  159.9980  203.5600  144.5100 C   0  0  0  0  0  1  0  0  0  0  0  0
  160.8410  207.0200  154.7210 N   0  0  0  0  0  1  0  0  0  0  0  0
  162.0290  206.6990  153.9460 C   0  0  0  0  0  2  0  0  0  0  0  0
  162.3940  207.9830  151.3930 C   0  0  0  0  0  2  0  0  0  0  0  0
  160.0840  209.1830  152.1970 O   0  0  0  0  0  1  0  0  0  0  0  0
  161.5700  210.6420  150.6270 O   0  0  0  0  0  0  0  0  0  0  0  0
  161.5250  209.5160  151.8880 P   0  0  0  0  0  0  0  0  0  0  0  0
  162.2440  210.1900  153.2620 O   0  0  0  0  0  1  0  0  0  0  0  0
  3 14  1  6  0  0  0
  3  6  1  0  0  0  0
  3 11  1  0  0  0  0
  5  7  1  0  0  0  0
  6  4  2  0  0  0  0
  7  1  1  0  0  0  0
  8  1  1  0  0  0  0
  8 20  1  1  0  0  0
  9 21  1  1  0  0  0
  9  8  1  0  0  0  0
 10  2  1  6  0  0  0
 10 12  1  0  0  0  0
 10  5  1  0  0  0  0
 11  2  1  0  0  0  0
 12  4  1  6  0  0  0
 12  9  1  0  0  0  0
 13 14  2  0  0  0  0
 15 16  1  6  0  0  0
 15 17  1  0  0  0  0
 15 14  1  0  0  0  0
 18 17  1  0  0  0  0
 20 19  1  0  0  0  0
 21 24  1  0  0  0  0
 23 24  2  0  0  0  0
 24 22  1  0  0  0  0
 24 25  1  0  0  0  0
M  END
>  <MODEL>
8

>  <REMARK>
 VINA RESULT:      -6.1      3.334      6.971
  Name = 
  6 active torsions:
  status: ('A' for Active; 'I' for Inactive)
    1  A    between atoms: C_4  and  C_7
    2  A    between atoms: C_4  and  C_16
    3  A    between atoms: C_7  and  C_8
    4  A    between atoms: C_9  and  C_17
    5  A    between atoms: C_9  and  P_23
    6  A    between atoms: C_15  and  C_22
                            x       y       z     vdW  Elec       q    Type
                         _______ _______ _______ _____ _____    ______ ____

>  <TORSDO>
F 6

$$$$
=
 OpenBabel11072411363D

 25 26  0  0  1  0  0  0  0  0999 V2000
  160.5830  205.2570  146.1340 O   0  0  0  0  0  0  0  0  0  0  0  0
  161.1400  207.2600  149.9230 C   0  0  0  0  0  2  0  0  0  0  0  0
  161.6570  206.4070  152.0350 C   0  0  1  0  0  3  0  0  0  0  0  0
  160.7280  204.5480  150.5150 C   0  0  0  0  0  3  0  0  0  0  0  0
  160.1570  206.9320  147.7520 C   0  0  0  0  0  2  0  0  0  0  0  0
  160.8540  205.1390  151.7320 C   0  0  0  0  0  3  0  0  0  0  0  0
  160.8430  206.5910  146.4450 C   0  0  0  0  0  2  0  0  0  0  0  0
  161.6370  204.5170  146.6820 C   0  0  1  0  0  3  0  0  0  0  0  0
  161.2370  203.9940  148.0850 C   0  0  2  0  0  3  0  0  0  0  0  0
  160.9990  206.4870  148.8990 C   0  0  2  0  0  3  0  0  0  0  0  0
  161.2920  207.5840  151.1640 C   0  0  0  0  0  2  0  0  0  0  0  0
  161.3640  205.0440  149.2140 C   0  0  1  0  0  3  0  0  0  0  0  0
  162.2820  206.2150  154.3060 O   0  0  0  0  0  0  0  0  0  0  0  0
  161.5610  206.7680  153.4890 C   0  0  0  0  0  0  0  0  0  0  0  0
  160.5900  207.8110  153.9580 C   0  0  1  0  0  3  0  0  0  0  0  0
  160.0020  207.4190  155.3000 C   0  0  0  0  0  1  0  0  0  0  0  0
  161.2470  209.1790  154.0660 C   0  0  0  0  0  2  0  0  0  0  0  0
  160.2960  210.2650  153.5990 C   0  0  0  0  0  1  0  0  0  0  0  0
  160.8320  202.7170  145.2120 N   0  0  0  0  0  1  0  0  0  0  0  0
  162.0160  203.4110  145.6930 C   0  0  0  0  0  2  0  0  0  0  0  0
  161.9510  202.6850  148.4800 C   0  0  0  0  0  2  0  0  0  0  0  0
  159.4130  201.7020  148.4000 O   0  0  0  0  0  1  0  0  0  0  0  0
  160.8740  200.7650  150.3470 O   0  0  0  0  0  1  0  0  0  0  0  0
  160.8210  201.2690  148.7340 P   0  0  0  0  0  0  0  0  0  0  0  0
  161.2540  199.9760  147.7330 O   0  0  0  0  0  0  0  0  0  0  0  0
  1  7  1  0  0  0  0
  1  8  1  0  0  0  0
  2 11  1  0  0  0  0
  3 14  1  1  0  0  0
  4  6  2  0  0  0  0
  6  3  1  0  0  0  0
  7  5  1  0  0  0  0
  8 20  1  6  0  0  0
  8  9  1  0  0  0  0
  9 21  1  1  0  0  0
  9 12  1  0  0  0  0
 10  5  1  1  0  0  0
 10 12  1  0  0  0  0
 10  2  1  0  0  0  0
 11  3  1  0  0  0  0
 12  4  1  1  0  0  0
 14 15  1  0  0  0  0
 14 13  2  0  0  0  0
 15 17  1  0  0  0  0
 15 16  1  1  0  0  0
 18 17  1  0  0  0  0
 19 20  1  0  0  0  0
 21 24  1  0  0  0  0
 22 24  1  0  0  0  0
 24 23  1  0  0  0  0
 25 24  2  0  0  0  0
M  END
>  <MODEL>
9

>  <REMARK>
 VINA RESULT:      -6.0      2.224      3.854
  Name = 
  6 active torsions:
  status: ('A' for Active; 'I' for Inactive)
    1  A    between atoms: C_4  and  C_7
    2  A    between atoms: C_4  and  C_16
    3  A    between atoms: C_7  and  C_8
    4  A    between atoms: C_9  and  C_17
    5  A    between atoms: C_9  and  P_23
    6  A    between atoms: C_15  and  C_22
                            x       y       z     vdW  Elec       q    Type
                         _______ _______ _______ _____ _____    ______ ____

>  <TORSDO>
F 6

$$$$
