=
 OpenBabel11072411113D

 30 32  0  0  1  0  0  0  0  0999 V2000
  161.3680  209.5880  149.1350 N   0  0  0  0  0  0  0  0  0  0  0  0
  161.5390  209.0660  150.4940 C   0  0  1  0  0  3  0  0  0  0  0  0
  162.5290  207.9190  150.4510 C   0  0  2  0  0  3  0  0  0  0  0  0
  162.3680  210.4610  148.8540 O   0  0  0  0  0  1  0  0  0  0  0  0
  162.5370  207.4770  148.9880 C   0  0  2  0  0  3  0  0  0  0  0  0
  161.5840  208.4290  148.2770 C   0  0  0  0  0  2  0  0  0  0  0  0
  161.6870  204.4010  145.0070 N   0  0  0  0  0  0  0  0  0  0  0  0
  161.3940  203.6380  146.0910 C   0  0  0  0  0  3  0  0  0  0  0  0
  162.2510  206.2110  146.3940 N   0  0  0  0  0  0  0  0  0  0  0  0
  162.1140  205.6790  145.1540 C   0  0  0  0  0  3  0  0  0  0  0  0
  161.9690  205.4880  147.5120 C   0  0  0  0  0  0  0  0  0  0  0  0
  161.5250  204.1530  147.3860 C   0  0  0  0  0  0  0  0  0  0  0  0
  162.1030  206.0960  148.8010 N   0  0  0  0  0  2  0  0  0  0  0  0
  160.7480  203.1310  152.1970 C   0  0  0  0  0  1  0  0  0  0  0  0
  160.9740  201.1130  147.3290 N   0  0  0  0  0  1  0  0  0  0  0  0
  161.2250  203.2940  148.5630 C   0  0  0  0  0  0  0  0  0  0  0  0
  160.8820  202.8470  150.7450 C   0  0  0  0  0  0  0  0  0  0  0  0
  161.0070  201.9130  148.5070 C   0  0  0  0  0  0  0  0  0  0  0  0
  160.7110  201.3260  150.0510 S   0  0  0  0  0  0  0  0  0  0  0  0
  161.1550  203.7980  149.8250 N   0  0  0  0  0  0  0  0  0  0  0  0
  161.8360  210.1060  151.5460 C   0  0  0  0  0  0  0  0  0  0  0  0
  163.0290  210.1860  152.1400 C   0  0  0  0  0  2  0  0  0  0  0  0
  160.7210  210.9840  152.0120 C   0  0  0  0  0  2  0  0  0  0  0  0
  159.7610  210.2210  152.6790 O   0  0  0  0  0  0  0  0  0  0  0  0
  159.7380  210.7370  153.9750 C   0  0  0  0  0  2  0  0  0  0  0  0
  160.2960  209.7100  154.9370 C   0  0  0  0  0  1  0  0  0  0  0  0
  162.1830  206.8580  151.4610 C   0  0  0  0  0  0  0  0  0  0  0  0
  163.0070  206.0160  151.7910 O   0  0  0  0  0  0  0  0  0  0  0  0
  160.8750  206.5510  153.4030 O   0  0  0  0  0  1  0  0  0  0  0  0
  160.8090  206.8160  152.0350 C   0  0  0  0  0  2  0  0  0  0  0  0
  1  2  1  0  0  0  0
  2 21  1  1  0  0  0
  3  2  1  0  0  0  0
  3 27  1  1  0  0  0
  4  1  1  0  0  0  0
  5 13  1  1  0  0  0
  5  3  1  0  0  0  0
  6  5  1  0  0  0  0
  6  1  1  0  0  0  0
  7 10  2  0  0  0  0
  7  8  1  0  0  0  0
  8 12  2  0  0  0  0
  9 11  2  0  0  0  0
 10  9  1  0  0  0  0
 11 13  1  0  0  0  0
 12 11  1  0  0  0  0
 12 16  1  0  0  0  0
 15 18  1  0  0  0  0
 16 20  1  0  0  0  0
 17 14  1  0  0  0  0
 18 16  2  0  0  0  0
 18 19  1  0  0  0  0
 19 17  1  0  0  0  0
 20 17  2  0  0  0  0
 21 23  1  0  0  0  0
 21 22  2  0  0  0  0
 23 24  1  0  0  0  0
 24 25  1  0  0  0  0
 25 26  1  0  0  0  0
 27 28  2  0  0  0  0
 27 30  1  0  0  0  0
 30 29  1  0  0  0  0
M  END
>  <MODEL>
1

>  <REMARK>
 VINA RESULT:      -6.6      0.000      0.000
  Name = 
  8 active torsions:
  status: ('A' for Active; 'I' for Inactive)
    1  A    between atoms: C_5  and  C_6
    2  A    between atoms: C_6  and  C_16
    3  A    between atoms: C_7  and  C_12
    4  A    between atoms: C_12  and  C_26
    5  A    between atoms: C_13  and  O_17
    6  A    between atoms: C_16  and  O_17
    7  A    between atoms: C_18  and  C_19
    8  A    between atoms: C_20  and  N_24
                            x       y       z     vdW  Elec       q    Type
                         _______ _______ _______ _____ _____    ______ ____

>  <TORSDO>
F 8

$$$$
=
 OpenBabel11072411113D

 30 32  0  0  1  0  0  0  0  0999 V2000
  160.6410  203.6940  151.6530 N   0  0  0  0  0  0  0  0  0  0  0  0
  160.6710  204.3010  150.3200 C   0  0  1  0  0  3  0  0  0  0  0  0
  161.6740  205.4380  150.3280 C   0  0  2  0  0  3  0  0  0  0  0  0
  161.6560  202.7990  151.7680 O   0  0  0  0  0  1  0  0  0  0  0  0
  161.8450  205.7850  151.8080 C   0  0  2  0  0  3  0  0  0  0  0  0
  160.9620  204.7930  152.5550 C   0  0  0  0  0  2  0  0  0  0  0  0
  160.3310  208.2870  155.9880 N   0  0  0  0  0  0  0  0  0  0  0  0
  160.3110  209.2250  155.0080 C   0  0  0  0  0  3  0  0  0  0  0  0
  161.0840  206.6650  154.4640 N   0  0  0  0  0  0  0  0  0  0  0  0
  160.7160  207.0140  155.7210 C   0  0  0  0  0  3  0  0  0  0  0  0
  161.0790  207.5690  153.4460 C   0  0  0  0  0  0  0  0  0  0  0  0
  160.6850  208.9020  153.6980 C   0  0  0  0  0  0  0  0  0  0  0  0
  161.4500  207.1520  152.1280 N   0  0  0  0  0  2  0  0  0  0  0  0
  162.2530  211.2200  149.5800 C   0  0  0  0  0  1  0  0  0  0  0  0
  158.7240  211.2820  153.5000 N   0  0  0  0  0  1  0  0  0  0  0  0
  160.6820  209.9500  152.6430 C   0  0  0  0  0  0  0  0  0  0  0  0
  161.4080  210.9910  150.7810 C   0  0  0  0  0  0  0  0  0  0  0  0
  159.7970  211.0330  152.5970 C   0  0  0  0  0  0  0  0  0  0  0  0
  160.1360  211.9820  151.2540 S   0  0  0  0  0  0  0  0  0  0  0  0
  161.5800  209.9460  151.6210 N   0  0  0  0  0  0  0  0  0  0  0  0
  160.8400  203.3300  149.1780 C   0  0  0  0  0  0  0  0  0  0  0  0
  160.3240  202.0990  149.2190 C   0  0  0  0  0  2  0  0  0  0  0  0
  161.7120  203.7260  148.0320 C   0  0  0  0  0  2  0  0  0  0  0  0
  161.3000  203.0700  146.8700 O   0  0  0  0  0  0  0  0  0  0  0  0
  161.7590  203.8760  145.8280 C   0  0  0  0  0  2  0  0  0  0  0  0
  162.8150  204.8260  146.3520 C   0  0  0  0  0  1  0  0  0  0  0  0
  161.2340  206.5640  149.4310 C   0  0  0  0  0  0  0  0  0  0  0  0
  160.0630  206.6770  149.0990 O   0  0  0  0  0  0  0  0  0  0  0  0
  161.6380  208.4410  148.0570 O   0  0  0  0  0  1  0  0  0  0  0  0
  162.2480  207.5280  148.9160 C   0  0  0  0  0  2  0  0  0  0  0  0
  1  4  1  0  0  0  0
  1  6  1  0  0  0  0
  2 21  1  6  0  0  0
  2  3  1  0  0  0  0
  2  1  1  0  0  0  0
  3 27  1  6  0  0  0
  3  5  1  0  0  0  0
  5 13  1  6  0  0  0
  5  6  1  0  0  0  0
  8  7  1  0  0  0  0
  9 10  1  0  0  0  0
 10  7  2  0  0  0  0
 11 12  1  0  0  0  0
 11  9  2  0  0  0  0
 12  8  2  0  0  0  0
 13 11  1  0  0  0  0
 14 17  1  0  0  0  0
 16 12  1  0  0  0  0
 17 19  1  0  0  0  0
 17 20  2  0  0  0  0
 18 16  2  0  0  0  0
 18 15  1  0  0  0  0
 19 18  1  0  0  0  0
 20 16  1  0  0  0  0
 21 22  2  0  0  0  0
 23 21  1  0  0  0  0
 24 23  1  0  0  0  0
 25 26  1  0  0  0  0
 25 24  1  0  0  0  0
 28 27  2  0  0  0  0
 29 30  1  0  0  0  0
 30 27  1  0  0  0  0
M  END
>  <MODEL>
2

>  <REMARK>
 VINA RESULT:      -6.5      3.448      7.991
  Name = 
  8 active torsions:
  status: ('A' for Active; 'I' for Inactive)
    1  A    between atoms: C_5  and  C_6
    2  A    between atoms: C_6  and  C_16
    3  A    between atoms: C_7  and  C_12
    4  A    between atoms: C_12  and  C_26
    5  A    between atoms: C_13  and  O_17
    6  A    between atoms: C_16  and  O_17
    7  A    between atoms: C_18  and  C_19
    8  A    between atoms: C_20  and  N_24
                            x       y       z     vdW  Elec       q    Type
                         _______ _______ _______ _____ _____    ______ ____

>  <TORSDO>
F 8

$$$$
=
 OpenBabel11072411113D

 30 32  0  0  1  0  0  0  0  0999 V2000
  160.6670  203.9340  151.7310 N   0  0  0  0  0  0  0  0  0  0  0  0
  160.7180  204.6260  150.4410 C   0  0  1  0  0  3  0  0  0  0  0  0
  161.6630  205.8060  150.5620 C   0  0  2  0  0  3  0  0  0  0  0  0
  161.7180  203.0820  151.8320 O   0  0  0  0  0  1  0  0  0  0  0  0
  161.7590  206.0640  152.0660 C   0  0  2  0  0  3  0  0  0  0  0  0
  160.8980  204.9870  152.7130 C   0  0  0  0  0  2  0  0  0  0  0  0
  160.2150  208.2920  156.3880 N   0  0  0  0  0  0  0  0  0  0  0  0
  160.1020  209.2650  155.4490 C   0  0  0  0  0  3  0  0  0  0  0  0
  161.0250  206.7860  154.7770 N   0  0  0  0  0  0  0  0  0  0  0  0
  160.6750  207.0590  156.0580 C   0  0  0  0  0  3  0  0  0  0  0  0
  160.9280  207.7270  153.7980 C   0  0  0  0  0  0  0  0  0  0  0  0
  160.4560  209.0190  154.1170 C   0  0  0  0  0  0  0  0  0  0  0  0
  161.2850  207.3890  152.4540 N   0  0  0  0  0  2  0  0  0  0  0  0
  158.2180  212.6690  151.5740 C   0  0  0  0  0  1  0  0  0  0  0  0
  162.6970  209.9570  152.2070 N   0  0  0  0  0  1  0  0  0  0  0  0
  160.3500  210.1060  153.1070 C   0  0  0  0  0  0  0  0  0  0  0  0
  159.3200  211.7510  151.9610 C   0  0  0  0  0  0  0  0  0  0  0  0
  161.3760  210.4880  152.2370 C   0  0  0  0  0  0  0  0  0  0  0  0
  160.8450  211.7430  151.2550 S   0  0  0  0  0  0  0  0  0  0  0  0
  159.2040  210.8210  152.9340 N   0  0  0  0  0  0  0  0  0  0  0  0
  160.9790  203.7390  149.2480 C   0  0  0  0  0  0  0  0  0  0  0  0
  160.5280  202.4840  149.1930 C   0  0  0  0  0  2  0  0  0  0  0  0
  161.8680  204.2510  148.1630 C   0  0  0  0  0  2  0  0  0  0  0  0
  161.0990  204.7150  147.0950 O   0  0  0  0  0  0  0  0  0  0  0  0
  161.7870  204.2960  145.9560 C   0  0  0  0  0  2  0  0  0  0  0  0
  163.2210  204.7740  146.0280 C   0  0  0  0  0  1  0  0  0  0  0  0
  161.2030  206.9660  149.7190 C   0  0  0  0  0  0  0  0  0  0  0  0
  160.0510  207.0250  149.3140 O   0  0  0  0  0  0  0  0  0  0  0  0
  162.6760  207.7890  148.0680 O   0  0  0  0  0  1  0  0  0  0  0  0
  162.1770  208.0310  149.3470 C   0  0  0  0  0  2  0  0  0  0  0  0
  1  4  1  0  0  0  0
  1  6  1  0  0  0  0
  2 21  1  6  0  0  0
  2  3  1  0  0  0  0
  2  1  1  0  0  0  0
  3 27  1  6  0  0  0
  3  5  1  0  0  0  0
  5 13  1  6  0  0  0
  5  6  1  0  0  0  0
  8  7  1  0  0  0  0
  9 10  1  0  0  0  0
 10  7  2  0  0  0  0
 11 12  1  0  0  0  0
 11  9  2  0  0  0  0
 12  8  2  0  0  0  0
 13 11  1  0  0  0  0
 14 17  1  0  0  0  0
 15 18  1  0  0  0  0
 16 12  1  0  0  0  0
 17 20  2  0  0  0  0
 18 16  2  0  0  0  0
 19 17  1  0  0  0  0
 19 18  1  0  0  0  0
 20 16  1  0  0  0  0
 22 21  2  0  0  0  0
 23 21  1  0  0  0  0
 24 23  1  0  0  0  0
 25 26  1  0  0  0  0
 25 24  1  0  0  0  0
 28 27  2  0  0  0  0
 29 30  1  0  0  0  0
 30 27  1  0  0  0  0
M  END
>  <MODEL>
3

>  <REMARK>
 VINA RESULT:      -6.1      3.462      7.984
  Name = 
  8 active torsions:
  status: ('A' for Active; 'I' for Inactive)
    1  A    between atoms: C_5  and  C_6
    2  A    between atoms: C_6  and  C_16
    3  A    between atoms: C_7  and  C_12
    4  A    between atoms: C_12  and  C_26
    5  A    between atoms: C_13  and  O_17
    6  A    between atoms: C_16  and  O_17
    7  A    between atoms: C_18  and  C_19
    8  A    between atoms: C_20  and  N_24
                            x       y       z     vdW  Elec       q    Type
                         _______ _______ _______ _____ _____    ______ ____

>  <TORSDO>
F 8

$$$$
=
 OpenBabel11072411113D

 30 32  0  0  1  0  0  0  0  0999 V2000
  162.3300  206.4540  152.3470 N   0  0  0  0  0  0  0  0  0  0  0  0
  161.9390  207.4190  151.3150 C   0  0  1  0  0  3  0  0  0  0  0  0
  160.7570  206.8560  150.5500 C   0  0  2  0  0  3  0  0  0  0  0  0
  161.5440  206.6160  153.4420 O   0  0  0  0  0  1  0  0  0  0  0  0
  160.8000  205.3550  150.8330 C   0  0  2  0  0  3  0  0  0  0  0  0
  161.9780  205.1590  151.7790 C   0  0  0  0  0  2  0  0  0  0  0  0
  161.0440  200.3730  149.7580 N   0  0  0  0  0  0  0  0  0  0  0  0
  161.2090  200.9850  148.5580 C   0  0  0  0  0  3  0  0  0  0  0  0
  160.8270  202.4540  150.8260 N   0  0  0  0  0  0  0  0  0  0  0  0
  160.8520  201.1000  150.8870 C   0  0  0  0  0  3  0  0  0  0  0  0
  160.9880  203.1150  149.6470 C   0  0  0  0  0  0  0  0  0  0  0  0
  161.1860  202.3810  148.4570 C   0  0  0  0  0  0  0  0  0  0  0  0
  160.9790  204.5470  149.6310 N   0  0  0  0  0  2  0  0  0  0  0  0
  162.7060  205.8760  145.2520 C   0  0  0  0  0  1  0  0  0  0  0  0
  160.0950  201.3220  145.7660 N   0  0  0  0  0  1  0  0  0  0  0  0
  161.3420  203.0330  147.1290 C   0  0  0  0  0  0  0  0  0  0  0  0
  162.0320  204.6280  145.6930 C   0  0  0  0  0  0  0  0  0  0  0  0
  160.8110  202.5420  145.9320 C   0  0  0  0  0  0  0  0  0  0  0  0
  161.2070  203.5780  144.6720 S   0  0  0  0  0  0  0  0  0  0  0  0
  162.0180  204.2050  146.9760 N   0  0  0  0  0  0  0  0  0  0  0  0
  161.7500  208.8350  151.8010 C   0  0  0  0  0  0  0  0  0  0  0  0
  162.7400  209.7300  151.7600 C   0  0  0  0  0  2  0  0  0  0  0  0
  160.4560  209.1950  152.4530 C   0  0  0  0  0  2  0  0  0  0  0  0
  160.6540  210.2330  153.3660 O   0  0  0  0  0  0  0  0  0  0  0  0
  160.3400  209.6760  154.6060 C   0  0  0  0  0  2  0  0  0  0  0  0
  161.5750  209.6620  155.4800 C   0  0  0  0  0  1  0  0  0  0  0  0
  160.8020  207.2580  149.1000 C   0  0  0  0  0  0  0  0  0  0  0  0
  160.0780  206.7140  148.2780 O   0  0  0  0  0  0  0  0  0  0  0  0
  162.9310  207.7070  148.1830 O   0  0  0  0  0  1  0  0  0  0  0  0
  161.7660  208.3060  148.6610 C   0  0  0  0  0  2  0  0  0  0  0  0
  1  4  1  0  0  0  0
  2 21  1  1  0  0  0
  2  1  1  0  0  0  0
  3 27  1  6  0  0  0
  3  5  1  0  0  0  0
  3  2  1  0  0  0  0
  5 13  1  6  0  0  0
  5  6  1  0  0  0  0
  6  1  1  0  0  0  0
  7 10  2  0  0  0  0
  8  7  1  0  0  0  0
  9 10  1  0  0  0  0
 11  9  2  0  0  0  0
 12  8  2  0  0  0  0
 12 11  1  0  0  0  0
 13 11  1  0  0  0  0
 14 17  1  0  0  0  0
 15 18  1  0  0  0  0
 16 12  1  0  0  0  0
 17 20  2  0  0  0  0
 18 16  2  0  0  0  0
 19 17  1  0  0  0  0
 19 18  1  0  0  0  0
 20 16  1  0  0  0  0
 21 23  1  0  0  0  0
 22 21  2  0  0  0  0
 23 24  1  0  0  0  0
 24 25  1  0  0  0  0
 25 26  1  0  0  0  0
 28 27  2  0  0  0  0
 29 30  1  0  0  0  0
 30 27  1  0  0  0  0
M  END
>  <MODEL>
4

>  <REMARK>
 VINA RESULT:      -6.0      2.032      4.063
  Name = 
  8 active torsions:
  status: ('A' for Active; 'I' for Inactive)
    1  A    between atoms: C_5  and  C_6
    2  A    between atoms: C_6  and  C_16
    3  A    between atoms: C_7  and  C_12
    4  A    between atoms: C_12  and  C_26
    5  A    between atoms: C_13  and  O_17
    6  A    between atoms: C_16  and  O_17
    7  A    between atoms: C_18  and  C_19
    8  A    between atoms: C_20  and  N_24
                            x       y       z     vdW  Elec       q    Type
                         _______ _______ _______ _____ _____    ______ ____

>  <TORSDO>
F 8

$$$$
=
 OpenBabel11072411113D

 30 32  0  0  1  0  0  0  0  0999 V2000
  160.5740  205.9480  153.2860 N   0  0  0  0  0  0  0  0  0  0  0  0
  160.8060  206.8740  152.1740 C   0  0  1  0  0  3  0  0  0  0  0  0
  161.5740  208.0730  152.6950 C   0  0  2  0  0  3  0  0  0  0  0  0
  161.6710  205.1690  153.4650 O   0  0  0  0  0  1  0  0  0  0  0  0
  161.3400  208.0490  154.2050 C   0  0  2  0  0  3  0  0  0  0  0  0
  160.4890  206.8100  154.4580 C   0  0  0  0  0  2  0  0  0  0  0  0
  162.5250  211.9590  157.2610 N   0  0  0  0  0  0  0  0  0  0  0  0
  161.2390  212.1930  156.8970 C   0  0  0  0  0  3  0  0  0  0  0  0
  162.5700  210.0040  155.9590 N   0  0  0  0  0  0  0  0  0  0  0  0
  163.1900  210.8720  156.7960 C   0  0  0  0  0  3  0  0  0  0  0  0
  161.2810  210.1940  155.5660 C   0  0  0  0  0  0  0  0  0  0  0  0
  160.5680  211.3190  156.0340 C   0  0  0  0  0  0  0  0  0  0  0  0
  160.6570  209.2390  154.7020 N   0  0  0  0  0  2  0  0  0  0  0  0
  155.6130  211.4250  156.5230 C   0  0  0  0  0  1  0  0  0  0  0  0
  159.6760  212.6410  153.3870 N   0  0  0  0  0  1  0  0  0  0  0  0
  159.1670  211.6080  155.6260 C   0  0  0  0  0  0  0  0  0  0  0  0
  156.9260  211.6420  155.8600 C   0  0  0  0  0  0  0  0  0  0  0  0
  158.7940  212.1820  154.4060 C   0  0  0  0  0  0  0  0  0  0  0  0
  157.1220  212.3280  154.3390 S   0  0  0  0  0  0  0  0  0  0  0  0
  158.1060  211.3070  156.4250 N   0  0  0  0  0  0  0  0  0  0  0  0
  161.3950  206.2490  150.9330 C   0  0  0  0  0  0  0  0  0  0  0  0
  162.4940  206.7370  150.3530 C   0  0  0  0  0  2  0  0  0  0  0  0
  160.6490  205.1330  150.2780 C   0  0  0  0  0  2  0  0  0  0  0  0
  161.5280  204.0990  149.9510 O   0  0  0  0  0  0  0  0  0  0  0  0
  161.0070  203.5490  148.7800 C   0  0  0  0  0  2  0  0  0  0  0  0
  161.5770  204.2790  147.5820 C   0  0  0  0  0  1  0  0  0  0  0  0
  161.1680  209.3360  151.9820 C   0  0  0  0  0  0  0  0  0  0  0  0
  160.0250  209.7610  152.0670 O   0  0  0  0  0  0  0  0  0  0  0  0
  161.5920  211.2050  150.6030 O   0  0  0  0  0  1  0  0  0  0  0  0
  162.1650  210.0500  151.1360 C   0  0  0  0  0  2  0  0  0  0  0  0
  1  4  1  0  0  0  0
  1  6  1  0  0  0  0
  2 21  1  6  0  0  0
  2  3  1  0  0  0  0
  2  1  1  0  0  0  0
  3 27  1  6  0  0  0
  3  5  1  0  0  0  0
  5  6  1  0  0  0  0
  5 13  1  6  0  0  0
  8  7  1  0  0  0  0
  9 10  1  0  0  0  0
 10  7  2  0  0  0  0
 11  9  2  0  0  0  0
 11 12  1  0  0  0  0
 12  8  2  0  0  0  0
 13 11  1  0  0  0  0
 15 18  1  0  0  0  0
 16 12  1  0  0  0  0
 16 20  1  0  0  0  0
 17 20  2  0  0  0  0
 17 14  1  0  0  0  0
 18 16  2  0  0  0  0
 19 18  1  0  0  0  0
 19 17  1  0  0  0  0
 22 21  2  0  0  0  0
 23 21  1  0  0  0  0
 24 23  1  0  0  0  0
 25 24  1  0  0  0  0
 26 25  1  0  0  0  0
 27 28  2  0  0  0  0
 29 30  1  0  0  0  0
 30 27  1  0  0  0  0
M  END
>  <MODEL>
5

>  <REMARK>
 VINA RESULT:      -5.8      4.208      8.915
  Name = 
  8 active torsions:
  status: ('A' for Active; 'I' for Inactive)
    1  A    between atoms: C_5  and  C_6
    2  A    between atoms: C_6  and  C_16
    3  A    between atoms: C_7  and  C_12
    4  A    between atoms: C_12  and  C_26
    5  A    between atoms: C_13  and  O_17
    6  A    between atoms: C_16  and  O_17
    7  A    between atoms: C_18  and  C_19
    8  A    between atoms: C_20  and  N_24
                            x       y       z     vdW  Elec       q    Type
                         _______ _______ _______ _____ _____    ______ ____

>  <TORSDO>
F 8

$$$$
=
 OpenBabel11072411113D

 30 32  0  0  1  0  0  0  0  0999 V2000
  158.1800  212.7640  153.3230 N   0  0  0  0  0  0  0  0  0  0  0  0
  158.8090  212.3060  154.5650 C   0  0  1  0  0  3  0  0  0  0  0  0
  160.2500  211.9390  154.2720 C   0  0  2  0  0  3  0  0  0  0  0  0
  158.4730  214.0740  153.1220 O   0  0  0  0  0  1  0  0  0  0  0  0
  160.2880  211.7240  152.7590 C   0  0  2  0  0  3  0  0  0  0  0  0
  158.8750  212.0250  152.2760 C   0  0  0  0  0  2  0  0  0  0  0  0
  162.3310  209.4990  148.6470 N   0  0  0  0  0  0  0  0  0  0  0  0
  162.1360  208.4780  149.5200 C   0  0  0  0  0  3  0  0  0  0  0  0
  161.4740  211.0360  150.2030 N   0  0  0  0  0  0  0  0  0  0  0  0
  162.0040  210.7710  148.9830 C   0  0  0  0  0  3  0  0  0  0  0  0
  161.2570  210.0480  151.1130 C   0  0  0  0  0  0  0  0  0  0  0  0
  161.5920  208.7150  150.7880 C   0  0  0  0  0  0  0  0  0  0  0  0
  160.6720  210.3680  152.3790 N   0  0  0  0  0  2  0  0  0  0  0  0
  160.8640  206.5800  155.2280 C   0  0  0  0  0  1  0  0  0  0  0  0
  161.5740  205.7080  150.0740 N   0  0  0  0  0  1  0  0  0  0  0  0
  161.4100  207.5870  151.7420 C   0  0  0  0  0  0  0  0  0  0  0  0
  161.0870  206.6370  153.7600 C   0  0  0  0  0  0  0  0  0  0  0  0
  161.4350  206.2340  151.3910 C   0  0  0  0  0  0  0  0  0  0  0  0
  161.2000  205.2910  152.7600 S   0  0  0  0  0  0  0  0  0  0  0  0
  161.2190  207.7940  153.0740 N   0  0  0  0  0  0  0  0  0  0  0  0
  158.6280  213.2230  155.7500 C   0  0  0  0  0  0  0  0  0  0  0  0
  159.6150  214.0070  156.1900 C   0  0  0  0  0  2  0  0  0  0  0  0
  157.3480  213.1510  156.5150 C   0  0  0  0  0  2  0  0  0  0  0  0
  157.0540  211.8230  156.8310 O   0  0  0  0  0  0  0  0  0  0  0  0
  155.7090  211.6690  156.4950 C   0  0  0  0  0  2  0  0  0  0  0  0
  155.5850  210.7090  155.3310 C   0  0  0  0  0  1  0  0  0  0  0  0
  160.7040  210.7790  155.1170 C   0  0  0  0  0  0  0  0  0  0  0  0
  159.9050  209.9410  155.5080 O   0  0  0  0  0  0  0  0  0  0  0  0
  162.3000  209.6630  156.4520 O   0  0  0  0  0  1  0  0  0  0  0  0
  162.1380  210.6770  155.5090 C   0  0  0  0  0  2  0  0  0  0  0  0
  1  2  1  0  0  0  0
  2 21  1  1  0  0  0
  3  2  1  0  0  0  0
  3 27  1  1  0  0  0
  4  1  1  0  0  0  0
  5 13  1  1  0  0  0
  5  3  1  0  0  0  0
  6  5  1  0  0  0  0
  6  1  1  0  0  0  0
  7 10  2  0  0  0  0
  7  8  1  0  0  0  0
  8 12  2  0  0  0  0
  9 11  2  0  0  0  0
 10  9  1  0  0  0  0
 11 13  1  0  0  0  0
 12 11  1  0  0  0  0
 12 16  1  0  0  0  0
 15 18  1  0  0  0  0
 16 20  1  0  0  0  0
 17 14  1  0  0  0  0
 18 16  2  0  0  0  0
 18 19  1  0  0  0  0
 19 17  1  0  0  0  0
 20 17  2  0  0  0  0
 21 22  2  0  0  0  0
 21 23  1  0  0  0  0
 23 24  1  0  0  0  0
 25 24  1  0  0  0  0
 26 25  1  0  0  0  0
 27 28  2  0  0  0  0
 27 30  1  0  0  0  0
 30 29  1  0  0  0  0
M  END
>  <MODEL>
6

>  <REMARK>
 VINA RESULT:      -5.5      3.587      5.691
  Name = 
  8 active torsions:
  status: ('A' for Active; 'I' for Inactive)
    1  A    between atoms: C_5  and  C_6
    2  A    between atoms: C_6  and  C_16
    3  A    between atoms: C_7  and  C_12
    4  A    between atoms: C_12  and  C_26
    5  A    between atoms: C_13  and  O_17
    6  A    between atoms: C_16  and  O_17
    7  A    between atoms: C_18  and  C_19
    8  A    between atoms: C_20  and  N_24
                            x       y       z     vdW  Elec       q    Type
                         _______ _______ _______ _____ _____    ______ ____

>  <TORSDO>
F 8

$$$$
=
 OpenBabel11072411113D

 30 32  0  0  1  0  0  0  0  0999 V2000
  161.7640  208.0670  156.1050 N   0  0  0  0  0  0  0  0  0  0  0  0
  161.5880  209.3610  155.4400 C   0  0  1  0  0  3  0  0  0  0  0  0
  160.5350  209.2100  154.3600 C   0  0  2  0  0  3  0  0  0  0  0  0
  160.8090  207.9110  157.0570 O   0  0  0  0  0  1  0  0  0  0  0  0
  160.4770  207.7060  154.0910 C   0  0  2  0  0  3  0  0  0  0  0  0
  161.4700  207.0870  155.0670 C   0  0  0  0  0  2  0  0  0  0  0  0
  161.2120  203.3810  151.4870 N   0  0  0  0  0  0  0  0  0  0  0  0
  161.4390  204.3640  150.5780 C   0  0  0  0  0  3  0  0  0  0  0  0
  160.7330  204.9780  153.1420 N   0  0  0  0  0  0  0  0  0  0  0  0
  160.8600  203.6830  152.7610 C   0  0  0  0  0  3  0  0  0  0  0  0
  160.9520  205.9990  152.2690 C   0  0  0  0  0  0  0  0  0  0  0  0
  161.3170  205.7120  150.9360 C   0  0  0  0  0  0  0  0  0  0  0  0
  160.8310  207.3520  152.7200 N   0  0  0  0  0  2  0  0  0  0  0  0
  162.2410  210.3230  149.3000 C   0  0  0  0  0  1  0  0  0  0  0  0
  161.3180  205.3310  147.8690 N   0  0  0  0  0  1  0  0  0  0  0  0
  161.5430  206.7750  149.9190 C   0  0  0  0  0  0  0  0  0  0  0  0
  161.9560  208.8690  149.1960 C   0  0  0  0  0  0  0  0  0  0  0  0
  161.5100  206.5750  148.5360 C   0  0  0  0  0  0  0  0  0  0  0  0
  161.8070  208.0280  147.7490 S   0  0  0  0  0  0  0  0  0  0  0  0
  161.7900  208.0670  150.2710 N   0  0  0  0  0  0  0  0  0  0  0  0
  161.3670  210.5320  156.3660 C   0  0  0  0  0  0  0  0  0  0  0  0
  162.3160  210.9530  157.2060 C   0  0  0  0  0  2  0  0  0  0  0  0
  160.0080  211.1480  156.4200 C   0  0  0  0  0  2  0  0  0  0  0  0
  160.0260  212.3970  155.7970 O   0  0  0  0  0  0  0  0  0  0  0  0
  158.7090  212.6070  155.3880 C   0  0  0  0  0  2  0  0  0  0  0  0
  157.8320  211.4950  155.9230 C   0  0  0  0  0  1  0  0  0  0  0  0
  160.8390  210.0840  153.1720 C   0  0  0  0  0  0  0  0  0  0  0  0
  161.9940  210.2950  152.8310 O   0  0  0  0  0  0  0  0  0  0  0  0
  160.0810  212.0160  152.0450 O   0  0  0  0  0  1  0  0  0  0  0  0
  159.7170  210.7260  152.4310 C   0  0  0  0  0  2  0  0  0  0  0  0
  1  4  1  0  0  0  0
  2  1  1  0  0  0  0
  2 21  1  1  0  0  0
  3 27  1  6  0  0  0
  3  2  1  0  0  0  0
  5 13  1  6  0  0  0
  5  3  1  0  0  0  0
  5  6  1  0  0  0  0
  6  1  1  0  0  0  0
  7 10  2  0  0  0  0
  8 12  2  0  0  0  0
  8  7  1  0  0  0  0
 10  9  1  0  0  0  0
 11 13  1  0  0  0  0
 11  9  2  0  0  0  0
 12 11  1  0  0  0  0
 15 18  1  0  0  0  0
 16 20  1  0  0  0  0
 16 12  1  0  0  0  0
 17 14  1  0  0  0  0
 17 20  2  0  0  0  0
 18 16  2  0  0  0  0
 19 18  1  0  0  0  0
 19 17  1  0  0  0  0
 21 23  1  0  0  0  0
 21 22  2  0  0  0  0
 24 23  1  0  0  0  0
 25 24  1  0  0  0  0
 25 26  1  0  0  0  0
 28 27  2  0  0  0  0
 29 30  1  0  0  0  0
 30 27  1  0  0  0  0
M  END
>  <MODEL>
7

>  <REMARK>
 VINA RESULT:      -5.3      2.879      5.471
  Name = 
  8 active torsions:
  status: ('A' for Active; 'I' for Inactive)
    1  A    between atoms: C_5  and  C_6
    2  A    between atoms: C_6  and  C_16
    3  A    between atoms: C_7  and  C_12
    4  A    between atoms: C_12  and  C_26
    5  A    between atoms: C_13  and  O_17
    6  A    between atoms: C_16  and  O_17
    7  A    between atoms: C_18  and  C_19
    8  A    between atoms: C_20  and  N_24
                            x       y       z     vdW  Elec       q    Type
                         _______ _______ _______ _____ _____    ______ ____

>  <TORSDO>
F 8

$$$$
=
 OpenBabel11072411113D

 30 32  0  0  1  0  0  0  0  0999 V2000
  162.3860  205.6760  146.8520 N   0  0  0  0  0  0  0  0  0  0  0  0
  161.9100  204.6820  147.8170 C   0  0  1  0  0  3  0  0  0  0  0  0
  160.7520  205.2780  148.5940 C   0  0  2  0  0  3  0  0  0  0  0  0
  161.6140  205.6340  145.7370 O   0  0  0  0  0  1  0  0  0  0  0  0
  160.9020  206.7870  148.4030 C   0  0  2  0  0  3  0  0  0  0  0  0
  162.1100  206.9570  147.4910 C   0  0  0  0  0  2  0  0  0  0  0  0
  162.5340  211.4330  149.7370 N   0  0  0  0  0  0  0  0  0  0  0  0
  162.2730  210.8160  150.9170 C   0  0  0  0  0  3  0  0  0  0  0  0
  161.8580  209.5220  148.5510 N   0  0  0  0  0  0  0  0  0  0  0  0
  162.3280  210.7930  148.5600 C   0  0  0  0  0  3  0  0  0  0  0  0
  161.5810  208.8590  149.7080 C   0  0  0  0  0  0  0  0  0  0  0  0
  161.7850  209.5050  150.9470 C   0  0  0  0  0  0  0  0  0  0  0  0
  161.1100  207.5090  149.6540 N   0  0  0  0  0  2  0  0  0  0  0  0
  161.2060  205.7060  154.1140 C   0  0  0  0  0  1  0  0  0  0  0  0
  160.9740  210.9460  153.5580 N   0  0  0  0  0  1  0  0  0  0  0  0
  161.4780  208.8550  152.2500 C   0  0  0  0  0  0  0  0  0  0  0  0
  161.2150  207.1230  153.6680 C   0  0  0  0  0  0  0  0  0  0  0  0
  161.0870  209.5340  153.4080 C   0  0  0  0  0  0  0  0  0  0  0  0
  160.8310  208.4330  154.6490 S   0  0  0  0  0  0  0  0  0  0  0  0
  161.5400  207.5040  152.4130 N   0  0  0  0  0  0  0  0  0  0  0  0
  161.6360  203.3130  147.2440 C   0  0  0  0  0  0  0  0  0  0  0  0
  161.5020  203.1150  145.9310 C   0  0  0  0  0  2  0  0  0  0  0  0
  161.3920  202.1830  148.1890 C   0  0  0  0  0  2  0  0  0  0  0  0
  160.0830  201.7180  148.0480 O   0  0  0  0  0  0  0  0  0  0  0  0
  159.7060  201.3280  149.3340 C   0  0  0  0  0  2  0  0  0  0  0  0
  160.9390  200.9530  150.1290 C   0  0  0  0  0  1  0  0  0  0  0  0
  160.7390  204.7890  150.0180 C   0  0  0  0  0  0  0  0  0  0  0  0
  159.6840  204.5400  150.5840 O   0  0  0  0  0  0  0  0  0  0  0  0
  161.9470  203.5730  151.6420 O   0  0  0  0  0  1  0  0  0  0  0  0
  162.0270  204.6440  150.7530 C   0  0  0  0  0  2  0  0  0  0  0  0
  1  6  1  0  0  0  0
  1  2  1  0  0  0  0
  2 21  1  6  0  0  0
  2  3  1  0  0  0  0
  3 27  1  1  0  0  0
  4  1  1  0  0  0  0
  5  3  1  0  0  0  0
  5 13  1  1  0  0  0
  6  5  1  0  0  0  0
  7  8  1  0  0  0  0
  8 12  2  0  0  0  0
  9 10  1  0  0  0  0
  9 11  2  0  0  0  0
 10  7  2  0  0  0  0
 11 12  1  0  0  0  0
 12 16  1  0  0  0  0
 13 11  1  0  0  0  0
 16 20  1  0  0  0  0
 16 18  2  0  0  0  0
 17 14  1  0  0  0  0
 17 19  1  0  0  0  0
 18 15  1  0  0  0  0
 18 19  1  0  0  0  0
 20 17  2  0  0  0  0
 21 23  1  0  0  0  0
 22 21  2  0  0  0  0
 24 23  1  0  0  0  0
 24 25  1  0  0  0  0
 25 26  1  0  0  0  0
 27 28  2  0  0  0  0
 27 30  1  0  0  0  0
 30 29  1  0  0  0  0
M  END
>  <MODEL>
8

>  <REMARK>
 VINA RESULT:      -5.2      2.949      6.716
  Name = 
  8 active torsions:
  status: ('A' for Active; 'I' for Inactive)
    1  A    between atoms: C_5  and  C_6
    2  A    between atoms: C_6  and  C_16
    3  A    between atoms: C_7  and  C_12
    4  A    between atoms: C_12  and  C_26
    5  A    between atoms: C_13  and  O_17
    6  A    between atoms: C_16  and  O_17
    7  A    between atoms: C_18  and  C_19
    8  A    between atoms: C_20  and  N_24
                            x       y       z     vdW  Elec       q    Type
                         _______ _______ _______ _____ _____    ______ ____

>  <TORSDO>
F 8

$$$$
=
 OpenBabel11072411113D

 30 32  0  0  1  0  0  0  0  0999 V2000
  160.7360  204.6490  151.9410 N   0  0  0  0  0  0  0  0  0  0  0  0
  160.8990  205.3940  150.6890 C   0  0  1  0  0  3  0  0  0  0  0  0
  161.7870  206.5940  150.9520 C   0  0  2  0  0  3  0  0  0  0  0  0
  161.7990  203.8250  152.1220 O   0  0  0  0  0  1  0  0  0  0  0  0
  161.7170  206.7960  152.4660 C   0  0  2  0  0  3  0  0  0  0  0  0
  160.8280  205.6690  152.9790 C   0  0  0  0  0  2  0  0  0  0  0  0
  160.9280  209.3030  156.8390 N   0  0  0  0  0  0  0  0  0  0  0  0
  160.4580  210.1410  155.8810 C   0  0  0  0  0  3  0  0  0  0  0  0
  161.5440  207.7300  155.2070 N   0  0  0  0  0  0  0  0  0  0  0  0
  161.4690  208.1050  156.5070 C   0  0  0  0  0  3  0  0  0  0  0  0
  161.0860  208.5340  154.2090 C   0  0  0  0  0  0  0  0  0  0  0  0
  160.5200  209.7880  154.5270 C   0  0  0  0  0  0  0  0  0  0  0  0
  161.1610  208.0890  152.8500 N   0  0  0  0  0  2  0  0  0  0  0  0
  160.7700  212.5400  150.3850 C   0  0  0  0  0  1  0  0  0  0  0  0
  157.7250  211.1040  154.4450 N   0  0  0  0  0  1  0  0  0  0  0  0
  160.0240  210.7320  153.4890 C   0  0  0  0  0  0  0  0  0  0  0  0
  160.1570  211.9760  151.6160 C   0  0  0  0  0  0  0  0  0  0  0  0
  158.7620  211.3330  153.4960 C   0  0  0  0  0  0  0  0  0  0  0  0
  158.6050  212.3320  152.1550 S   0  0  0  0  0  0  0  0  0  0  0  0
  160.7940  211.1080  152.4310 N   0  0  0  0  0  0  0  0  0  0  0  0
  161.3130  204.5620  149.5000 C   0  0  0  0  0  0  0  0  0  0  0  0
  161.7460  205.1210  148.3670 C   0  0  0  0  0  2  0  0  0  0  0  0
  161.1110  203.0840  149.5620 C   0  0  0  0  0  2  0  0  0  0  0  0
  160.3650  202.6580  148.4610 O   0  0  0  0  0  0  0  0  0  0  0  0
  160.1910  201.2880  148.6630 C   0  0  0  0  0  2  0  0  0  0  0  0
  161.4640  200.5570  148.2930 C   0  0  0  0  0  1  0  0  0  0  0  0
  161.3800  207.7730  150.1080 C   0  0  0  0  0  0  0  0  0  0  0  0
  160.3840  207.7200  149.4010 O   0  0  0  0  0  0  0  0  0  0  0  0
  162.1590  209.6220  148.8650 O   0  0  0  0  0  1  0  0  0  0  0  0
  162.2240  209.0010  150.1110 C   0  0  0  0  0  2  0  0  0  0  0  0
  1  4  1  0  0  0  0
  1  6  1  0  0  0  0
  2 21  1  6  0  0  0
  2  3  1  0  0  0  0
  2  1  1  0  0  0  0
  3 27  1  6  0  0  0
  3  5  1  0  0  0  0
  5 13  1  6  0  0  0
  5  6  1  0  0  0  0
  8  7  1  0  0  0  0
  9 10  1  0  0  0  0
 10  7  2  0  0  0  0
 11 12  1  0  0  0  0
 11  9  2  0  0  0  0
 12  8  2  0  0  0  0
 13 11  1  0  0  0  0
 14 17  1  0  0  0  0
 16 18  2  0  0  0  0
 16 12  1  0  0  0  0
 17 19  1  0  0  0  0
 17 20  2  0  0  0  0
 18 15  1  0  0  0  0
 19 18  1  0  0  0  0
 20 16  1  0  0  0  0
 21 23  1  0  0  0  0
 22 21  2  0  0  0  0
 24 25  1  0  0  0  0
 24 23  1  0  0  0  0
 26 25  1  0  0  0  0
 27 30  1  0  0  0  0
 28 27  2  0  0  0  0
 29 30  1  0  0  0  0
M  END
>  <MODEL>
9

>  <REMARK>
 VINA RESULT:      -5.2      3.619      8.333
  Name = 
  8 active torsions:
  status: ('A' for Active; 'I' for Inactive)
    1  A    between atoms: C_5  and  C_6
    2  A    between atoms: C_6  and  C_16
    3  A    between atoms: C_7  and  C_12
    4  A    between atoms: C_12  and  C_26
    5  A    between atoms: C_13  and  O_17
    6  A    between atoms: C_16  and  O_17
    7  A    between atoms: C_18  and  C_19
    8  A    between atoms: C_20  and  N_24
                            x       y       z     vdW  Elec       q    Type
                         _______ _______ _______ _____ _____    ______ ____

>  <TORSDO>
F 8

$$$$
