=
 OpenBabel11072411083D

 46 49  0  0  1  0  0  0  0  0999 V2000
  162.1790  209.5450  149.0110 C   0  0  0  0  0  2  0  0  0  0  0  0
  161.7160  208.7720  150.2270 C   0  0  0  0  0  2  0  0  0  0  0  0
  161.4320  209.7410  151.3630 C   0  0  0  0  0  2  0  0  0  0  0  0
  160.6490  209.0060  154.7880 C   0  0  2  0  0  3  0  0  0  0  0  0
  160.3210  209.2880  153.4540 O   0  0  0  0  0  0  0  0  0  0  0  0
  160.6900  207.1980  155.0970 S   0  0  0  0  0  0  0  0  0  0  0  0
  161.4990  209.0550  152.7230 C   0  0  1  0  0  3  0  0  0  0  0  0
  160.8090  206.6930  153.3390 C   0  0  1  0  0  3  0  0  0  0  0  0
  161.8090  207.5560  152.5770 C   0  0  0  0  0  2  0  0  0  0  0  0
  159.6780  209.6270  155.6750 N   0  0  0  0  0  2  0  0  0  0  0  0
  159.4670  210.9880  155.2100 C   0  0  0  0  0  3  0  0  0  0  0  0
  160.5170  211.9030  155.8110 C   0  0  0  0  0  1  0  0  0  0  0  0
  158.0920  211.4580  155.6370 C   0  0  0  0  0  1  0  0  0  0  0  0
  161.2150  205.2350  153.2360 C   0  0  0  0  0  2  0  0  0  0  0  0
  161.7620  204.9820  151.9770 O   0  0  0  0  0  0  0  0  0  0  0  0
  160.9870  203.9450  151.4580 C   0  0  0  0  0  2  0  0  0  0  0  0
  160.9550  201.1710  150.0450 Cl  0  0  0  0  0  0  0  0  0  0  0  0
  161.2260  202.7580  147.8520 C   0  0  0  0  0  3  0  0  0  0  0  0
  161.3480  203.9780  147.1810 C   0  0  0  0  0  0  0  0  0  0  0  0
  161.3510  205.1750  147.9020 C   0  0  0  0  0  3  0  0  0  0  0  0
  161.1010  202.7280  149.2440 C   0  0  0  0  0  0  0  0  0  0  0  0
  161.2260  205.1520  149.2940 C   0  0  0  0  0  3  0  0  0  0  0  0
  161.0930  203.9340  149.9700 C   0  0  0  0  0  0  0  0  0  0  0  0
  161.5030  204.0070  145.4380 Cl  0  0  0  0  0  0  0  0  0  0  0  0
  162.1270  210.9140  149.2810 O   0  0  0  0  0  0  0  0  0  0  0  0
  161.9870  211.5030  148.0680 N   0  0  0  0  0  2  0  0  0  0  0  0
  160.3840  213.0170  148.8290 O   0  0  0  0  0  0  0  0  0  0  0  0
  161.0640  212.5770  147.8670 C   0  0  0  0  0  0  0  0  0  0  0  0
  160.2680  212.1700  145.5510 C   0  0  0  0  0  2  0  0  0  0  0  0
  160.2480  212.9120  141.8730 C   0  0  0  0  0  0  0  0  0  0  0  0
  160.9040  213.1880  146.5110 C   0  0  2  0  0  3  0  0  0  0  0  0
  162.6570  213.5840  144.5670 C   0  0  0  0  0  2  0  0  0  0  0  0
  160.4230  212.6010  144.1290 C   0  0  0  0  0  0  0  0  0  0  0  0
  161.4110  213.4280  142.2550 C   0  0  0  0  0  3  0  0  0  0  0  0
  159.4790  212.3230  143.0160 C   0  0  0  0  0  2  0  0  0  0  0  0
  162.2120  213.7750  145.9970 C   0  0  0  0  0  0  0  0  0  0  0  0
  161.5000  213.2240  143.6890 C   0  0  0  0  0  0  0  0  0  0  0  0
  162.9060  214.4480  146.7410 O   0  0  0  0  0  0  0  0  0  0  0  0
  159.7750  212.9200  140.4590 C   0  0  0  0  0  2  0  0  0  0  0  0
  158.4630  211.1860  139.4760 O   0  0  0  0  0  1  0  0  0  0  0  0
  159.7560  211.5100  139.8880 C   0  0  1  0  0  3  0  0  0  0  0  0
  160.7040  211.4380  138.7030 C   0  0  0  0  0  2  0  0  0  0  0  0
  161.8200  210.4810  138.9720 C   0  0  0  0  0  0  0  0  0  0  0  0
  161.8000  209.3620  138.4830 O   0  0  0  0  0  0  0  0  0  0  0  0
  162.9400  210.8860  139.8700 C   0  0  0  0  0  2  0  0  0  0  0  0
  163.5040  212.0780  139.4140 O   0  0  0  0  0  1  0  0  0  0  0  0
  1 25  1  0  0  0  0
  1  2  1  0  0  0  0
  2  3  1  0  0  0  0
  4  6  1  0  0  0  0
  4 10  1  1  0  0  0
  5  4  1  0  0  0  0
  7  3  1  6  0  0  0
  7  5  1  0  0  0  0
  8 14  1  1  0  0  0
  8  6  1  0  0  0  0
  9  7  1  0  0  0  0
  9  8  1  0  0  0  0
 11 13  1  0  0  0  0
 11 10  1  0  0  0  0
 11 12  1  0  0  0  0
 15 14  1  0  0  0  0
 16 15  1  0  0  0  0
 18 21  1  0  0  0  0
 19 18  2  0  0  0  0
 19 20  1  0  0  0  0
 20 22  2  0  0  0  0
 21 23  2  0  0  0  0
 21 17  1  0  0  0  0
 22 23  1  0  0  0  0
 23 16  1  0  0  0  0
 24 19  1  0  0  0  0
 26 25  1  0  0  0  0
 28 26  1  0  0  0  0
 28 27  2  0  0  0  0
 29 31  1  0  0  0  0
 30 34  2  0  0  0  0
 30 35  1  0  0  0  0
 31 28  1  1  0  0  0
 32 36  1  0  0  0  0
 33 29  1  0  0  0  0
 34 37  1  0  0  0  0
 35 33  1  0  0  0  0
 36 31  1  0  0  0  0
 36 38  2  0  0  0  0
 37 33  2  0  0  0  0
 37 32  1  0  0  0  0
 39 30  1  0  0  0  0
 41 40  1  6  0  0  0
 41 39  1  0  0  0  0
 42 43  1  0  0  0  0
 42 41  1  0  0  0  0
 43 45  1  0  0  0  0
 44 43  2  0  0  0  0
 46 45  1  0  0  0  0
M  END
>  <MODEL>
1

>  <REMARK>
 VINA RESULT:      -7.5      0.000      0.000
  Name = 
  17 active torsions:
  status: ('A' for Active; 'I' for Inactive)
    1  A    between atoms: C_4  and  N_42
    2  A    between atoms: C_6  and  O_12
    3  A    between atoms: C_6  and  C_40
    4  A    between atoms: C_8  and  C_17
    5  A    between atoms: C_9  and  C_17
    6  A    between atoms: C_9  and  C_45
    7  A    between atoms: C_10  and  C_19
    8  A    between atoms: C_10  and  O_31
    9  A    between atoms: O_12  and  C_43
   10  A    between atoms: C_14  and  C_44
   11  A    between atoms: N_16  and  O_31
   12  A    between atoms: C_18  and  N_42
   13  A    between atoms: C_19  and  C_26
   14  A    between atoms: C_22  and  C_26
   15  A    between atoms: C_25  and  C_41
   16  A    between atoms: C_28  and  C_43
   17  A    between atoms: C_44  and  C_45
                            x       y       z     vdW  Elec       q    Type
                         _______ _______ _______ _____ _____    ______ ____

>  <TORSDO>
F 17

$$$$
=
 OpenBabel11072411083D

 46 49  0  0  1  0  0  0  0  0999 V2000
  160.3310  209.0090  154.9840 C   0  0  0  0  0  2  0  0  0  0  0  0
  160.5550  209.6840  153.6480 C   0  0  0  0  0  2  0  0  0  0  0  0
  160.6730  211.1850  153.8530 C   0  0  0  0  0  2  0  0  0  0  0  0
  157.8050  213.3200  153.5290 C   0  0  2  0  0  3  0  0  0  0  0  0
  159.0810  212.9890  154.0090 O   0  0  0  0  0  0  0  0  0  0  0  0
  157.9090  214.3310  152.0010 S   0  0  0  0  0  0  0  0  0  0  0  0
  159.5290  211.9400  153.1870 C   0  0  1  0  0  3  0  0  0  0  0  0
  159.6500  213.9170  151.6010 C   0  0  1  0  0  3  0  0  0  0  0  0
  159.9250  212.4290  151.7830 C   0  0  0  0  0  2  0  0  0  0  0  0
  157.0730  214.0550  154.5470 N   0  0  0  0  0  2  0  0  0  0  0  0
  155.8290  213.3420  154.7940 C   0  0  0  0  0  3  0  0  0  0  0  0
  154.9980  214.0990  155.8120 C   0  0  0  0  0  1  0  0  0  0  0  0
  156.1410  211.9610  155.3310 C   0  0  0  0  0  1  0  0  0  0  0  0
  159.9730  214.3220  150.1750 C   0  0  0  0  0  2  0  0  0  0  0  0
  159.6260  213.2930  149.2990 O   0  0  0  0  0  0  0  0  0  0  0  0
  158.9420  213.9280  148.2620 C   0  0  0  0  0  2  0  0  0  0  0  0
  157.0430  212.4700  146.2710 Cl  0  0  0  0  0  0  0  0  0  0  0  0
  159.3210  212.4370  144.7830 C   0  0  0  0  0  3  0  0  0  0  0  0
  160.6680  212.7060  144.5270 C   0  0  0  0  0  0  0  0  0  0  0  0
  161.4420  213.3690  145.4820 C   0  0  0  0  0  3  0  0  0  0  0  0
  158.7400  212.8330  145.9920 C   0  0  0  0  0  0  0  0  0  0  0  0
  160.8680  213.7670  146.6920 C   0  0  0  0  0  3  0  0  0  0  0  0
  159.5170  213.5100  146.9500 C   0  0  0  0  0  0  0  0  0  0  0  0
  161.3870  212.2080  143.0110 Cl  0  0  0  0  0  0  0  0  0  0  0  0
  161.3630  208.1000  155.2250 O   0  0  0  0  0  0  0  0  0  0  0  0
  161.6960  207.6180  154.0030 N   0  0  0  0  0  2  0  0  0  0  0  0
  160.5590  205.6070  154.3280 O   0  0  0  0  0  0  0  0  0  0  0  0
  161.2770  206.3180  153.5780 C   0  0  0  0  0  0  0  0  0  0  0  0
  161.4670  206.8770  151.1660 C   0  0  0  0  0  2  0  0  0  0  0  0
  161.6790  205.9130  147.5470 C   0  0  0  0  0  0  0  0  0  0  0  0
  161.6850  205.7950  152.2380 C   0  0  2  0  0  3  0  0  0  0  0  0
  160.4330  204.1890  150.5460 C   0  0  0  0  0  2  0  0  0  0  0  0
  161.5140  206.2910  149.7930 C   0  0  0  0  0  0  0  0  0  0  0  0
  161.1300  204.8330  148.0910 C   0  0  0  0  0  3  0  0  0  0  0  0
  161.9880  206.9720  148.5610 C   0  0  0  0  0  2  0  0  0  0  0  0
  161.0020  204.4730  151.9150 C   0  0  0  0  0  0  0  0  0  0  0  0
  161.0390  205.0910  149.5170 C   0  0  0  0  0  0  0  0  0  0  0  0
  160.9420  203.6000  152.7660 O   0  0  0  0  0  0  0  0  0  0  0  0
  161.9460  206.0470  146.0860 C   0  0  0  0  0  2  0  0  0  0  0  0
  161.0530  205.3950  143.9710 O   0  0  0  0  0  1  0  0  0  0  0  0
  161.1880  204.9880  145.2990 C   0  0  1  0  0  3  0  0  0  0  0  0
  161.9560  203.6780  145.3580 C   0  0  0  0  0  2  0  0  0  0  0  0
  161.0450  202.5440  145.7020 C   0  0  0  0  0  0  0  0  0  0  0  0
  161.1880  201.9410  146.7550 O   0  0  0  0  0  0  0  0  0  0  0  0
  159.9840  202.1290  144.7400 C   0  0  0  0  0  2  0  0  0  0  0  0
  159.9070  200.7370  144.6940 O   0  0  0  0  0  1  0  0  0  0  0  0
  1 25  1  0  0  0  0
  2  3  1  0  0  0  0
  2  1  1  0  0  0  0
  4  5  1  0  0  0  0
  4 10  1  1  0  0  0
  6  4  1  0  0  0  0
  7  3  1  1  0  0  0
  7  5  1  0  0  0  0
  8 14  1  6  0  0  0
  8  9  1  0  0  0  0
  8  6  1  0  0  0  0
  9  7  1  0  0  0  0
 10 11  1  0  0  0  0
 11 13  1  0  0  0  0
 11 12  1  0  0  0  0
 15 14  1  0  0  0  0
 16 15  1  0  0  0  0
 18 21  1  0  0  0  0
 19 18  2  0  0  0  0
 19 20  1  0  0  0  0
 20 22  2  0  0  0  0
 21 17  1  0  0  0  0
 21 23  2  0  0  0  0
 22 23  1  0  0  0  0
 23 16  1  0  0  0  0
 24 19  1  0  0  0  0
 26 25  1  0  0  0  0
 28 26  1  0  0  0  0
 28 27  2  0  0  0  0
 29 31  1  0  0  0  0
 30 34  2  0  0  0  0
 30 35  1  0  0  0  0
 31 28  1  1  0  0  0
 32 36  1  0  0  0  0
 33 29  1  0  0  0  0
 34 37  1  0  0  0  0
 35 33  1  0  0  0  0
 36 31  1  0  0  0  0
 36 38  2  0  0  0  0
 37 33  2  0  0  0  0
 37 32  1  0  0  0  0
 39 30  1  0  0  0  0
 41 40  1  6  0  0  0
 41 42  1  0  0  0  0
 41 39  1  0  0  0  0
 42 43  1  0  0  0  0
 43 44  2  0  0  0  0
 45 43  1  0  0  0  0
 46 45  1  0  0  0  0
M  END
>  <MODEL>
2

>  <REMARK>
 VINA RESULT:      -6.7      4.162      8.745
  Name = 
  17 active torsions:
  status: ('A' for Active; 'I' for Inactive)
    1  A    between atoms: C_4  and  N_42
    2  A    between atoms: C_6  and  O_12
    3  A    between atoms: C_6  and  C_40
    4  A    between atoms: C_8  and  C_17
    5  A    between atoms: C_9  and  C_17
    6  A    between atoms: C_9  and  C_45
    7  A    between atoms: C_10  and  C_19
    8  A    between atoms: C_10  and  O_31
    9  A    between atoms: O_12  and  C_43
   10  A    between atoms: C_14  and  C_44
   11  A    between atoms: N_16  and  O_31
   12  A    between atoms: C_18  and  N_42
   13  A    between atoms: C_19  and  C_26
   14  A    between atoms: C_22  and  C_26
   15  A    between atoms: C_25  and  C_41
   16  A    between atoms: C_28  and  C_43
   17  A    between atoms: C_44  and  C_45
                            x       y       z     vdW  Elec       q    Type
                         _______ _______ _______ _____ _____    ______ ____

>  <TORSDO>
F 17

$$$$
=
 OpenBabel11072411083D

 46 49  0  0  1  0  0  0  0  0999 V2000
  161.7540  210.4560  148.5880 C   0  0  0  0  0  2  0  0  0  0  0  0
  162.2910  209.8920  149.8860 C   0  0  0  0  0  2  0  0  0  0  0  0
  161.5720  210.5450  151.0550 C   0  0  0  0  0  2  0  0  0  0  0  0
  160.9010  209.4260  154.3990 C   0  0  2  0  0  3  0  0  0  0  0  0
  160.5300  209.8600  153.1190 O   0  0  0  0  0  0  0  0  0  0  0  0
  160.9380  207.5940  154.4980 S   0  0  0  0  0  0  0  0  0  0  0  0
  161.6800  209.7070  152.3250 C   0  0  1  0  0  3  0  0  0  0  0  0
  160.9920  207.2930  152.6910 C   0  0  1  0  0  3  0  0  0  0  0  0
  161.9720  208.2330  151.9980 C   0  0  0  0  0  2  0  0  0  0  0  0
  159.9660  209.9450  155.3850 N   0  0  0  0  0  2  0  0  0  0  0  0
  159.5410  211.2610  154.9350 C   0  0  0  0  0  3  0  0  0  0  0  0
  159.8120  212.2850  156.0210 C   0  0  0  0  0  1  0  0  0  0  0  0
  158.0570  211.2340  154.6330 C   0  0  0  0  0  1  0  0  0  0  0  0
  161.3820  205.8540  152.4080 C   0  0  0  0  0  2  0  0  0  0  0  0
  160.5540  205.3230  151.4180 O   0  0  0  0  0  0  0  0  0  0  0  0
  161.1940  205.6350  150.2190 C   0  0  0  0  0  2  0  0  0  0  0  0
  161.9810  206.0900  147.2410 Cl  0  0  0  0  0  0  0  0  0  0  0  0
  161.4640  203.4210  147.1370 C   0  0  0  0  0  3  0  0  0  0  0  0
  161.0900  202.1840  147.6690 C   0  0  0  0  0  0  0  0  0  0  0  0
  160.7550  202.0770  149.0210 C   0  0  0  0  0  3  0  0  0  0  0  0
  161.5090  204.5550  147.9540 C   0  0  0  0  0  0  0  0  0  0  0  0
  160.7980  203.2060  149.8430 C   0  0  0  0  0  3  0  0  0  0  0  0
  161.1820  204.4450  149.3180 C   0  0  0  0  0  0  0  0  0  0  0  0
  161.0370  200.7690  146.6400 Cl  0  0  0  0  0  0  0  0  0  0  0  0
  162.0660  211.8150  148.5050 O   0  0  0  0  0  0  0  0  0  0  0  0
  161.7260  212.1750  147.2440 N   0  0  0  0  0  2  0  0  0  0  0  0
  162.8570  214.2120  147.3660 O   0  0  0  0  0  0  0  0  0  0  0  0
  162.1380  213.4290  146.6930 C   0  0  0  0  0  0  0  0  0  0  0  0
  160.2230  213.5330  145.1170 C   0  0  0  0  0  2  0  0  0  0  0  0
  158.7810  213.6770  141.6560 C   0  0  0  0  0  0  0  0  0  0  0  0
  161.7220  213.8170  145.3100 C   0  0  2  0  0  3  0  0  0  0  0  0
  162.0230  212.5730  142.9920 C   0  0  0  0  0  2  0  0  0  0  0  0
  159.8520  213.5620  143.6700 C   0  0  0  0  0  0  0  0  0  0  0  0
  159.9920  213.1810  141.4320 C   0  0  0  0  0  3  0  0  0  0  0  0
  158.5430  213.9790  143.1040 C   0  0  0  0  0  2  0  0  0  0  0  0
  162.6050  213.1710  144.2510 C   0  0  0  0  0  0  0  0  0  0  0  0
  160.6560  213.1200  142.7220 C   0  0  0  0  0  0  0  0  0  0  0  0
  163.8160  213.1640  144.3960 O   0  0  0  0  0  0  0  0  0  0  0  0
  157.7760  213.8990  140.5770 C   0  0  0  0  0  2  0  0  0  0  0  0
  155.9920  212.5100  139.8150 O   0  0  0  0  0  1  0  0  0  0  0  0
  157.3810  212.5820  139.9270 C   0  0  1  0  0  3  0  0  0  0  0  0
  158.0120  212.4960  138.5480 C   0  0  0  0  0  2  0  0  0  0  0  0
  158.3450  211.0810  138.2040 C   0  0  0  0  0  0  0  0  0  0  0  0
  157.8580  210.5590  137.2130 O   0  0  0  0  0  0  0  0  0  0  0  0
  159.2480  210.2960  139.0950 C   0  0  0  0  0  2  0  0  0  0  0  0
  160.5770  210.6230  138.8270 O   0  0  0  0  0  1  0  0  0  0  0  0
  1  2  1  0  0  0  0
  2  3  1  0  0  0  0
  4  6  1  0  0  0  0
  4 10  1  1  0  0  0
  5  4  1  0  0  0  0
  7  3  1  6  0  0  0
  7  5  1  0  0  0  0
  8 14  1  1  0  0  0
  8  6  1  0  0  0  0
  9  7  1  0  0  0  0
  9  8  1  0  0  0  0
 11 10  1  0  0  0  0
 11 12  1  0  0  0  0
 13 11  1  0  0  0  0
 15 14  1  0  0  0  0
 16 15  1  0  0  0  0
 17 21  1  0  0  0  0
 18 19  2  0  0  0  0
 18 21  1  0  0  0  0
 19 20  1  0  0  0  0
 20 22  2  0  0  0  0
 21 23  2  0  0  0  0
 23 22  1  0  0  0  0
 23 16  1  0  0  0  0
 24 19  1  0  0  0  0
 25  1  1  0  0  0  0
 26 25  1  0  0  0  0
 28 26  1  0  0  0  0
 28 27  2  0  0  0  0
 29 31  1  0  0  0  0
 30 35  1  0  0  0  0
 31 28  1  1  0  0  0
 32 36  1  0  0  0  0
 33 29  1  0  0  0  0
 34 30  2  0  0  0  0
 34 37  1  0  0  0  0
 35 33  1  0  0  0  0
 36 38  2  0  0  0  0
 36 31  1  0  0  0  0
 37 32  1  0  0  0  0
 37 33  2  0  0  0  0
 39 30  1  0  0  0  0
 41 40  1  6  0  0  0
 41 39  1  0  0  0  0
 42 41  1  0  0  0  0
 43 42  1  0  0  0  0
 43 45  1  0  0  0  0
 44 43  2  0  0  0  0
 46 45  1  0  0  0  0
M  END
>  <MODEL>
3

>  <REMARK>
 VINA RESULT:      -6.5      1.515      2.193
  Name = 
  17 active torsions:
  status: ('A' for Active; 'I' for Inactive)
    1  A    between atoms: C_4  and  N_42
    2  A    between atoms: C_6  and  O_12
    3  A    between atoms: C_6  and  C_40
    4  A    between atoms: C_8  and  C_17
    5  A    between atoms: C_9  and  C_17
    6  A    between atoms: C_9  and  C_45
    7  A    between atoms: C_10  and  C_19
    8  A    between atoms: C_10  and  O_31
    9  A    between atoms: O_12  and  C_43
   10  A    between atoms: C_14  and  C_44
   11  A    between atoms: N_16  and  O_31
   12  A    between atoms: C_18  and  N_42
   13  A    between atoms: C_19  and  C_26
   14  A    between atoms: C_22  and  C_26
   15  A    between atoms: C_25  and  C_41
   16  A    between atoms: C_28  and  C_43
   17  A    between atoms: C_44  and  C_45
                            x       y       z     vdW  Elec       q    Type
                         _______ _______ _______ _____ _____    ______ ____

>  <TORSDO>
F 17

$$$$
=
 OpenBabel11072411083D

 46 49  0  0  1  0  0  0  0  0999 V2000
  161.7640  209.9430  149.6640 C   0  0  0  0  0  2  0  0  0  0  0  0
  161.7260  209.1740  148.3610 C   0  0  0  0  0  2  0  0  0  0  0  0
  162.5610  207.9100  148.4960 C   0  0  0  0  0  2  0  0  0  0  0  0
  161.2960  204.6070  147.8840 C   0  0  2  0  0  3  0  0  0  0  0  0
  162.3170  205.5490  148.0780 O   0  0  0  0  0  0  0  0  0  0  0  0
  160.8500  203.7730  149.4570 S   0  0  0  0  0  0  0  0  0  0  0  0
  161.6890  206.6690  148.6480 C   0  0  1  0  0  3  0  0  0  0  0  0
  161.6160  205.0130  150.5690 C   0  0  1  0  0  3  0  0  0  0  0  0
  161.3020  206.4360  150.1190 C   0  0  0  0  0  2  0  0  0  0  0  0
  161.7230  203.6120  146.9130 N   0  0  0  0  0  2  0  0  0  0  0  0
  161.6870  204.2380  145.6010 C   0  0  0  0  0  3  0  0  0  0  0  0
  162.9920  204.9670  145.3460 C   0  0  0  0  0  1  0  0  0  0  0  0
  160.5430  205.2290  145.5480 C   0  0  0  0  0  1  0  0  0  0  0  0
  161.1310  204.8140  151.9930 C   0  0  0  0  0  2  0  0  0  0  0  0
  161.8690  205.6180  152.8630 O   0  0  0  0  0  0  0  0  0  0  0  0
  161.0000  205.8790  153.9230 C   0  0  0  0  0  2  0  0  0  0  0  0
  160.1450  206.9040  156.7360 Cl  0  0  0  0  0  0  0  0  0  0  0  0
  160.2990  209.2940  155.4460 C   0  0  0  0  0  3  0  0  0  0  0  0
  160.5310  210.1250  154.3460 C   0  0  0  0  0  0  0  0  0  0  0  0
  160.9140  209.5730  153.1210 C   0  0  0  0  0  3  0  0  0  0  0  0
  160.4530  207.9090  155.3280 C   0  0  0  0  0  0  0  0  0  0  0  0
  161.0700  208.1890  152.9970 C   0  0  0  0  0  3  0  0  0  0  0  0
  160.8490  207.3530  154.0970 C   0  0  0  0  0  0  0  0  0  0  0  0
  160.3370  211.8570  154.5020 Cl  0  0  0  0  0  0  0  0  0  0  0  0
  162.7070  210.9690  149.5720 O   0  0  0  0  0  0  0  0  0  0  0  0
  162.3990  211.6250  148.4270 N   0  0  0  0  0  2  0  0  0  0  0  0
  160.8570  213.0260  149.4770 O   0  0  0  0  0  0  0  0  0  0  0  0
  161.4250  212.6730  148.4110 C   0  0  0  0  0  0  0  0  0  0  0  0
  160.1990  212.4380  146.2650 C   0  0  0  0  0  2  0  0  0  0  0  0
  159.5870  213.3570  142.6790 C   0  0  0  0  0  0  0  0  0  0  0  0
  161.0770  213.3590  147.1290 C   0  0  2  0  0  3  0  0  0  0  0  0
  162.4840  213.7170  144.9150 C   0  0  0  0  0  2  0  0  0  0  0  0
  160.1340  212.9260  144.8540 C   0  0  0  0  0  0  0  0  0  0  0  0
  160.8380  213.7660  142.8620 C   0  0  0  0  0  3  0  0  0  0  0  0
  158.9880  212.7720  143.9220 C   0  0  0  0  0  2  0  0  0  0  0  0
  162.3170  213.8700  146.4070 C   0  0  0  0  0  0  0  0  0  0  0  0
  161.1630  213.4870  144.2490 C   0  0  0  0  0  0  0  0  0  0  0  0
  163.1850  214.4530  147.0360 O   0  0  0  0  0  0  0  0  0  0  0  0
  158.8730  213.4690  141.3750 C   0  0  0  0  0  2  0  0  0  0  0  0
  158.2260  212.2520  139.4270 O   0  0  0  0  0  1  0  0  0  0  0  0
  159.0480  212.2010  140.5540 C   0  0  1  0  0  3  0  0  0  0  0  0
  160.4990  212.0810  140.1230 C   0  0  0  0  0  2  0  0  0  0  0  0
  160.7930  210.7050  139.6210 C   0  0  0  0  0  0  0  0  0  0  0  0
  159.9250  209.8450  139.6420 O   0  0  0  0  0  0  0  0  0  0  0  0
  162.1610  210.3740  139.1260 C   0  0  0  0  0  2  0  0  0  0  0  0
  162.0700  209.5900  137.9750 O   0  0  0  0  0  1  0  0  0  0  0  0
  2  3  1  0  0  0  0
  2  1  1  0  0  0  0
  4 10  1  6  0  0  0
  4  5  1  0  0  0  0
  4  6  1  0  0  0  0
  5  7  1  0  0  0  0
  6  8  1  0  0  0  0
  7  3  1  1  0  0  0
  7  9  1  0  0  0  0
  8 14  1  1  0  0  0
  9  8  1  0  0  0  0
 11 10  1  0  0  0  0
 12 11  1  0  0  0  0
 13 11  1  0  0  0  0
 14 15  1  0  0  0  0
 15 16  1  0  0  0  0
 16 23  1  0  0  0  0
 19 24  1  0  0  0  0
 19 18  2  0  0  0  0
 20 19  1  0  0  0  0
 21 18  1  0  0  0  0
 21 17  1  0  0  0  0
 22 20  2  0  0  0  0
 22 23  1  0  0  0  0
 23 21  2  0  0  0  0
 25  1  1  0  0  0  0
 26 25  1  0  0  0  0
 28 26  1  0  0  0  0
 28 27  2  0  0  0  0
 29 31  1  0  0  0  0
 30 34  2  0  0  0  0
 30 35  1  0  0  0  0
 31 28  1  1  0  0  0
 32 36  1  0  0  0  0
 33 29  1  0  0  0  0
 34 37  1  0  0  0  0
 35 33  1  0  0  0  0
 36 38  2  0  0  0  0
 36 31  1  0  0  0  0
 37 33  2  0  0  0  0
 37 32  1  0  0  0  0
 39 30  1  0  0  0  0
 41 40  1  6  0  0  0
 41 39  1  0  0  0  0
 42 41  1  0  0  0  0
 43 44  2  0  0  0  0
 43 42  1  0  0  0  0
 45 43  1  0  0  0  0
 46 45  1  0  0  0  0
M  END
>  <MODEL>
4

>  <REMARK>
 VINA RESULT:      -5.9      2.978      5.536
  Name = 
  17 active torsions:
  status: ('A' for Active; 'I' for Inactive)
    1  A    between atoms: C_4  and  N_42
    2  A    between atoms: C_6  and  O_12
    3  A    between atoms: C_6  and  C_40
    4  A    between atoms: C_8  and  C_17
    5  A    between atoms: C_9  and  C_17
    6  A    between atoms: C_9  and  C_45
    7  A    between atoms: C_10  and  C_19
    8  A    between atoms: C_10  and  O_31
    9  A    between atoms: O_12  and  C_43
   10  A    between atoms: C_14  and  C_44
   11  A    between atoms: N_16  and  O_31
   12  A    between atoms: C_18  and  N_42
   13  A    between atoms: C_19  and  C_26
   14  A    between atoms: C_22  and  C_26
   15  A    between atoms: C_25  and  C_41
   16  A    between atoms: C_28  and  C_43
   17  A    between atoms: C_44  and  C_45
                            x       y       z     vdW  Elec       q    Type
                         _______ _______ _______ _____ _____    ______ ____

>  <TORSDO>
F 17

$$$$
=
 OpenBabel11072411083D

 46 49  0  0  1  0  0  0  0  0999 V2000
  159.2210  213.9150  151.5280 C   0  0  0  0  0  2  0  0  0  0  0  0
  157.9110  213.4290  150.9460 C   0  0  0  0  0  2  0  0  0  0  0  0
  157.5570  214.2660  149.7280 C   0  0  0  0  0  2  0  0  0  0  0  0
  160.7860  213.6460  148.2890 C   0  0  2  0  0  3  0  0  0  0  0  0
  159.6320  213.2810  148.9980 O   0  0  0  0  0  0  0  0  0  0  0  0
  160.6410  213.2150  146.5110 S   0  0  0  0  0  0  0  0  0  0  0  0
  158.6820  214.2720  148.6990 C   0  0  1  0  0  3  0  0  0  0  0  0
  158.8180  213.0190  146.4970 C   0  0  1  0  0  3  0  0  0  0  0  0
  158.1310  214.1400  147.2690 C   0  0  0  0  0  2  0  0  0  0  0  0
  161.9440  212.9730  148.8560 N   0  0  0  0  0  2  0  0  0  0  0  0
  162.2890  211.8720  147.9710 C   0  0  0  0  0  3  0  0  0  0  0  0
  162.1330  210.5550  148.7080 C   0  0  0  0  0  1  0  0  0  0  0  0
  163.7260  212.0230  147.5170 C   0  0  0  0  0  1  0  0  0  0  0  0
  158.3020  212.9950  145.0710 C   0  0  0  0  0  2  0  0  0  0  0  0
  159.3650  212.8200  144.1840 O   0  0  0  0  0  0  0  0  0  0  0  0
  158.9840  213.5160  143.0370 C   0  0  0  0  0  2  0  0  0  0  0  0
  161.9660  212.6190  143.0880 Cl  0  0  0  0  0  0  0  0  0  0  0  0
  161.3090  211.7570  140.5920 C   0  0  0  0  0  3  0  0  0  0  0  0
  160.4490  211.5600  139.5080 C   0  0  0  0  0  0  0  0  0  0  0  0
  159.1240  211.9960  139.5790 C   0  0  0  0  0  3  0  0  0  0  0  0
  160.8470  212.3880  141.7520 C   0  0  0  0  0  0  0  0  0  0  0  0
  158.6560  212.6260  140.7350 C   0  0  0  0  0  3  0  0  0  0  0  0
  159.5100  212.8180  141.8270 C   0  0  0  0  0  0  0  0  0  0  0  0
  161.0340  210.7690  138.0610 Cl  0  0  0  0  0  0  0  0  0  0  0  0
  159.3970  213.3670  152.8010 O   0  0  0  0  0  0  0  0  0  0  0  0
  159.9410  212.1450  152.5810 N   0  0  0  0  0  2  0  0  0  0  0  0
  160.6190  211.8910  154.7990 O   0  0  0  0  0  0  0  0  0  0  0  0
  160.5800  211.4170  153.6340 C   0  0  0  0  0  0  0  0  0  0  0  0
  160.4450  209.3790  152.2230 C   0  0  0  0  0  2  0  0  0  0  0  0
  161.1340  205.7500  151.5650 C   0  0  0  0  0  0  0  0  0  0  0  0
  161.2030  210.0860  153.3590 C   0  0  2  0  0  3  0  0  0  0  0  0
  160.9910  207.7740  154.6310 C   0  0  0  0  0  2  0  0  0  0  0  0
  160.7950  207.9280  152.1640 C   0  0  0  0  0  0  0  0  0  0  0  0
  161.2410  205.8190  152.8870 C   0  0  0  0  0  2  0  0  0  0  0  0
  160.8360  207.0810  150.9440 C   0  0  0  0  0  3  0  0  0  0  0  0
  161.3240  209.2460  154.6240 C   0  0  0  0  0  0  0  0  0  0  0  0
  161.0270  207.2090  153.2460 C   0  0  0  0  0  0  0  0  0  0  0  0
  161.7350  209.7580  155.6520 O   0  0  0  0  0  0  0  0  0  0  0  0
  161.2900  204.4820  150.7970 C   0  0  0  0  0  2  0  0  0  0  0  0
  161.6370  203.5820  148.6140 O   0  0  0  0  0  1  0  0  0  0  0  0
  161.6570  204.7680  149.3490 C   0  0  1  0  0  3  0  0  0  0  0  0
  160.6560  205.7500  148.7650 C   0  0  0  0  0  2  0  0  0  0  0  0
  161.1720  206.3410  147.4930 C   0  0  0  0  0  0  0  0  0  0  0  0
  162.1840  207.0250  147.5000 O   0  0  0  0  0  0  0  0  0  0  0  0
  160.4260  206.1210  146.2200 C   0  0  0  0  0  2  0  0  0  0  0  0
  161.3250  205.8550  145.1860 O   0  0  0  0  0  1  0  0  0  0  0  0
  1 25  1  0  0  0  0
  2  1  1  0  0  0  0
  3  2  1  0  0  0  0
  4 10  1  1  0  0  0
  4  5  1  0  0  0  0
  6  4  1  0  0  0  0
  7  5  1  0  0  0  0
  7  3  1  1  0  0  0
  8 14  1  6  0  0  0
  8  6  1  0  0  0  0
  8  9  1  0  0  0  0
  9  7  1  0  0  0  0
 11 12  1  0  0  0  0
 11 10  1  0  0  0  0
 13 11  1  0  0  0  0
 15 14  1  0  0  0  0
 16 15  1  0  0  0  0
 18 21  1  0  0  0  0
 19 20  1  0  0  0  0
 19 18  2  0  0  0  0
 20 22  2  0  0  0  0
 21 23  2  0  0  0  0
 21 17  1  0  0  0  0
 22 23  1  0  0  0  0
 23 16  1  0  0  0  0
 24 19  1  0  0  0  0
 26 25  1  0  0  0  0
 26 28  1  0  0  0  0
 28 27  2  0  0  0  0
 29 31  1  0  0  0  0
 30 34  1  0  0  0  0
 31 28  1  1  0  0  0
 31 36  1  0  0  0  0
 33 29  1  0  0  0  0
 33 37  2  0  0  0  0
 34 37  1  0  0  0  0
 35 30  2  0  0  0  0
 35 33  1  0  0  0  0
 36 32  1  0  0  0  0
 36 38  2  0  0  0  0
 37 32  1  0  0  0  0
 39 30  1  0  0  0  0
 41 40  1  6  0  0  0
 41 39  1  0  0  0  0
 42 41  1  0  0  0  0
 43 44  2  0  0  0  0
 43 42  1  0  0  0  0
 45 43  1  0  0  0  0
 46 45  1  0  0  0  0
M  END
>  <MODEL>
5

>  <REMARK>
 VINA RESULT:      -5.6      3.779      9.843
  Name = 
  17 active torsions:
  status: ('A' for Active; 'I' for Inactive)
    1  A    between atoms: C_4  and  N_42
    2  A    between atoms: C_6  and  O_12
    3  A    between atoms: C_6  and  C_40
    4  A    between atoms: C_8  and  C_17
    5  A    between atoms: C_9  and  C_17
    6  A    between atoms: C_9  and  C_45
    7  A    between atoms: C_10  and  C_19
    8  A    between atoms: C_10  and  O_31
    9  A    between atoms: O_12  and  C_43
   10  A    between atoms: C_14  and  C_44
   11  A    between atoms: N_16  and  O_31
   12  A    between atoms: C_18  and  N_42
   13  A    between atoms: C_19  and  C_26
   14  A    between atoms: C_22  and  C_26
   15  A    between atoms: C_25  and  C_41
   16  A    between atoms: C_28  and  C_43
   17  A    between atoms: C_44  and  C_45
                            x       y       z     vdW  Elec       q    Type
                         _______ _______ _______ _____ _____    ______ ____

>  <TORSDO>
F 17

$$$$
=
 OpenBabel11072411083D

 46 49  0  0  1  0  0  0  0  0999 V2000
  158.6010  213.1640  152.8240 C   0  0  0  0  0  2  0  0  0  0  0  0
  159.8730  213.2460  152.0080 C   0  0  0  0  0  2  0  0  0  0  0  0
  159.6250  214.0890  150.7680 C   0  0  0  0  0  2  0  0  0  0  0  0
  159.5730  213.3060  147.2660 C   0  0  2  0  0  3  0  0  0  0  0  0
  159.9900  214.0390  148.3860 O   0  0  0  0  0  0  0  0  0  0  0  0
  160.7500  211.9530  146.8780 S   0  0  0  0  0  0  0  0  0  0  0  0
  159.6520  213.2480  149.4970 C   0  0  1  0  0  3  0  0  0  0  0  0
  161.5870  211.9370  148.5090 C   0  0  1  0  0  3  0  0  0  0  0  0
  160.5820  212.0320  149.6520 C   0  0  0  0  0  2  0  0  0  0  0  0
  159.4560  214.1900  146.1160 N   0  0  0  0  0  2  0  0  0  0  0  0
  158.3940  213.6690  145.2700 C   0  0  0  0  0  3  0  0  0  0  0  0
  157.3620  212.9550  146.1240 C   0  0  0  0  0  1  0  0  0  0  0  0
  158.9790  212.6900  144.2730 C   0  0  0  0  0  1  0  0  0  0  0  0
  162.4130  210.6740  148.6650 C   0  0  0  0  0  2  0  0  0  0  0  0
  161.6640  209.5640  148.2710 O   0  0  0  0  0  0  0  0  0  0  0  0
  162.3320  208.4740  148.8270 C   0  0  0  0  0  2  0  0  0  0  0  0
  159.9410  206.6910  149.7200 Cl  0  0  0  0  0  0  0  0  0  0  0  0
  160.7870  205.2250  147.5900 C   0  0  0  0  0  3  0  0  0  0  0  0
  161.6140  204.9390  146.5000 C   0  0  0  0  0  0  0  0  0  0  0  0
  162.6630  205.8020  146.1730 C   0  0  0  0  0  3  0  0  0  0  0  0
  161.0030  206.3750  148.3560 C   0  0  0  0  0  0  0  0  0  0  0  0
  162.8840  206.9530  146.9350 C   0  0  0  0  0  3  0  0  0  0  0  0
  162.0530  207.2490  148.0220 C   0  0  0  0  0  0  0  0  0  0  0  0
  161.3370  203.4990  145.5460 Cl  0  0  0  0  0  0  0  0  0  0  0  0
  158.9110  212.8010  154.1360 O   0  0  0  0  0  0  0  0  0  0  0  0
  159.4660  211.5690  154.0340 N   0  0  0  0  0  2  0  0  0  0  0  0
  160.7690  211.8390  155.9510 O   0  0  0  0  0  0  0  0  0  0  0  0
  160.4360  211.1100  154.9810 C   0  0  0  0  0  0  0  0  0  0  0  0
  160.9090  209.2770  153.3740 C   0  0  0  0  0  2  0  0  0  0  0  0
  161.6790  205.6960  152.5620 C   0  0  0  0  0  0  0  0  0  0  0  0
  161.0580  209.7590  154.8270 C   0  0  2  0  0  3  0  0  0  0  0  0
  160.1670  207.3520  155.4760 C   0  0  0  0  0  2  0  0  0  0  0  0
  161.1840  207.8130  153.2620 C   0  0  0  0  0  0  0  0  0  0  0  0
  161.1410  205.5980  153.7730 C   0  0  0  0  0  2  0  0  0  0  0  0
  161.7700  207.1150  152.0890 C   0  0  0  0  0  3  0  0  0  0  0  0
  160.5230  208.7700  155.8540 C   0  0  0  0  0  0  0  0  0  0  0  0
  160.8390  206.9520  154.2000 C   0  0  0  0  0  0  0  0  0  0  0  0
  160.4130  209.1100  157.0200 O   0  0  0  0  0  0  0  0  0  0  0  0
  162.1300  204.5160  151.7710 C   0  0  0  0  0  2  0  0  0  0  0  0
  160.1470  203.9600  150.5660 O   0  0  0  0  0  1  0  0  0  0  0  0
  160.9940  203.5220  151.5860 C   0  0  1  0  0  3  0  0  0  0  0  0
  161.5710  202.1650  151.2240 C   0  0  0  0  0  2  0  0  0  0  0  0
  160.8290  201.5610  150.0760 C   0  0  0  0  0  0  0  0  0  0  0  0
  159.6550  201.2470  150.2010 O   0  0  0  0  0  0  0  0  0  0  0  0
  161.5380  201.3100  148.7880 C   0  0  0  0  0  2  0  0  0  0  0  0
  160.6060  201.1140  147.7670 O   0  0  0  0  0  1  0  0  0  0  0  0
  1 25  1  0  0  0  0
  2  1  1  0  0  0  0
  3  2  1  0  0  0  0
  4 10  1  6  0  0  0
  4  5  1  0  0  0  0
  5  7  1  0  0  0  0
  6  4  1  0  0  0  0
  6  8  1  0  0  0  0
  7  9  1  0  0  0  0
  7  3  1  1  0  0  0
  8 14  1  1  0  0  0
  8  9  1  0  0  0  0
 11 10  1  0  0  0  0
 11 12  1  0  0  0  0
 13 11  1  0  0  0  0
 15 14  1  0  0  0  0
 15 16  1  0  0  0  0
 18 21  1  0  0  0  0
 19 18  2  0  0  0  0
 20 19  1  0  0  0  0
 20 22  2  0  0  0  0
 21 17  1  0  0  0  0
 22 23  1  0  0  0  0
 23 21  2  0  0  0  0
 23 16  1  0  0  0  0
 24 19  1  0  0  0  0
 26 25  1  0  0  0  0
 26 28  1  0  0  0  0
 28 27  2  0  0  0  0
 29 31  1  0  0  0  0
 30 34  1  0  0  0  0
 31 28  1  6  0  0  0
 31 36  1  0  0  0  0
 32 36  1  0  0  0  0
 33 29  1  0  0  0  0
 33 37  2  0  0  0  0
 34 37  1  0  0  0  0
 35 30  2  0  0  0  0
 35 33  1  0  0  0  0
 36 38  2  0  0  0  0
 37 32  1  0  0  0  0
 39 30  1  0  0  0  0
 41 40  1  6  0  0  0
 41 39  1  0  0  0  0
 42 41  1  0  0  0  0
 43 44  2  0  0  0  0
 43 42  1  0  0  0  0
 45 43  1  0  0  0  0
 46 45  1  0  0  0  0
M  END
>  <MODEL>
6

>  <REMARK>
 VINA RESULT:      -5.5      3.876      9.539
  Name = 
  17 active torsions:
  status: ('A' for Active; 'I' for Inactive)
    1  A    between atoms: C_4  and  N_42
    2  A    between atoms: C_6  and  O_12
    3  A    between atoms: C_6  and  C_40
    4  A    between atoms: C_8  and  C_17
    5  A    between atoms: C_9  and  C_17
    6  A    between atoms: C_9  and  C_45
    7  A    between atoms: C_10  and  C_19
    8  A    between atoms: C_10  and  O_31
    9  A    between atoms: O_12  and  C_43
   10  A    between atoms: C_14  and  C_44
   11  A    between atoms: N_16  and  O_31
   12  A    between atoms: C_18  and  N_42
   13  A    between atoms: C_19  and  C_26
   14  A    between atoms: C_22  and  C_26
   15  A    between atoms: C_25  and  C_41
   16  A    between atoms: C_28  and  C_43
   17  A    between atoms: C_44  and  C_45
                            x       y       z     vdW  Elec       q    Type
                         _______ _______ _______ _____ _____    ______ ____

>  <TORSDO>
F 17

$$$$
=
 OpenBabel11072411083D

 46 49  0  0  1  0  0  0  0  0999 V2000
  161.5880  206.0420  143.6780 C   0  0  0  0  0  2  0  0  0  0  0  0
  161.3370  204.8200  144.5350 C   0  0  0  0  0  2  0  0  0  0  0  0
  161.7280  205.1220  145.9720 C   0  0  0  0  0  2  0  0  0  0  0  0
  160.6870  202.1150  147.6320 C   0  0  2  0  0  3  0  0  0  0  0  0
  161.6390  202.9790  147.0730 O   0  0  0  0  0  0  0  0  0  0  0  0
  160.5200  202.3870  149.4390 S   0  0  0  0  0  0  0  0  0  0  0  0
  160.9940  204.2230  146.9600 C   0  0  1  0  0  3  0  0  0  0  0  0
  161.3100  204.0400  149.4710 C   0  0  1  0  0  3  0  0  0  0  0  0
  160.8200  204.9150  148.3220 C   0  0  0  0  0  2  0  0  0  0  0  0
  161.0710  200.7340  147.3840 N   0  0  0  0  0  2  0  0  0  0  0  0
  161.1390  200.5500  145.9430 C   0  0  0  0  0  3  0  0  0  0  0  0
  159.9010  201.1390  145.2930 C   0  0  0  0  0  1  0  0  0  0  0  0
  161.2120  199.0700  145.6280 C   0  0  0  0  0  1  0  0  0  0  0  0
  161.0310  204.7330  150.7910 C   0  0  0  0  0  2  0  0  0  0  0  0
  161.1360  206.1150  150.6340 O   0  0  0  0  0  0  0  0  0  0  0  0
  162.1440  206.4950  151.5210 C   0  0  0  0  0  2  0  0  0  0  0  0
  161.7990  209.5730  151.2020 Cl  0  0  0  0  0  0  0  0  0  0  0  0
  160.8280  209.3000  153.7290 C   0  0  0  0  0  3  0  0  0  0  0  0
  160.4760  208.5860  154.8780 C   0  0  0  0  0  0  0  0  0  0  0  0
  160.6660  207.2030  154.9270 C   0  0  0  0  0  3  0  0  0  0  0  0
  161.3670  208.6340  152.6230 C   0  0  0  0  0  0  0  0  0  0  0  0
  161.2040  206.5320  153.8260 C   0  0  0  0  0  3  0  0  0  0  0  0
  161.5490  207.2390  152.6690 C   0  0  0  0  0  0  0  0  0  0  0  0
  159.8010  209.4260  156.2560 Cl  0  0  0  0  0  0  0  0  0  0  0  0
  161.9130  205.6420  142.3800 O   0  0  0  0  0  0  0  0  0  0  0  0
  161.6400  206.7190  141.6050 N   0  0  0  0  0  2  0  0  0  0  0  0
  163.2720  206.1780  140.0270 O   0  0  0  0  0  0  0  0  0  0  0  0
  162.3730  206.9750  140.4030 C   0  0  0  0  0  0  0  0  0  0  0  0
  161.1880  209.1560  140.3830 C   0  0  0  0  0  2  0  0  0  0  0  0
  159.5780  212.0390  138.6010 C   0  0  0  0  0  0  0  0  0  0  0  0
  162.0750  208.1880  139.5820 C   0  0  2  0  0  3  0  0  0  0  0  0
  160.3360  208.5760  137.6240 C   0  0  0  0  0  2  0  0  0  0  0  0
  160.5770  210.1880  139.4930 C   0  0  0  0  0  0  0  0  0  0  0  0
  159.5430  211.0850  137.6770 C   0  0  0  0  0  3  0  0  0  0  0  0
  160.2380  211.5850  139.8680 C   0  0  0  0  0  2  0  0  0  0  0  0
  161.5000  207.8230  138.2200 C   0  0  0  0  0  0  0  0  0  0  0  0
  160.1860  209.9220  138.2620 C   0  0  0  0  0  0  0  0  0  0  0  0
  162.0110  206.9250  137.5700 O   0  0  0  0  0  0  0  0  0  0  0  0
  159.0140  213.4020  138.3900 C   0  0  0  0  0  2  0  0  0  0  0  0
  156.9870  212.7390  137.3200 O   0  0  0  0  0  1  0  0  0  0  0  0
  157.4950  213.3740  138.4540 C   0  0  1  0  0  3  0  0  0  0  0  0
  157.0610  212.6210  139.7000 C   0  0  0  0  0  2  0  0  0  0  0  0
  155.7470  211.9440  139.4810 C   0  0  0  0  0  0  0  0  0  0  0  0
  155.7050  210.7450  139.2490 O   0  0  0  0  0  0  0  0  0  0  0  0
  154.4890  212.7450  139.5120 C   0  0  0  0  0  2  0  0  0  0  0  0
  153.7270  212.3840  140.6230 O   0  0  0  0  0  1  0  0  0  0  0  0
  1  2  1  0  0  0  0
  2  3  1  0  0  0  0
  4 10  1  1  0  0  0
  4  6  1  0  0  0  0
  5  4  1  0  0  0  0
  6  8  1  0  0  0  0
  7  3  1  6  0  0  0
  7  5  1  0  0  0  0
  7  9  1  0  0  0  0
  8 14  1  1  0  0  0
  9  8  1  0  0  0  0
 11 10  1  0  0  0  0
 12 11  1  0  0  0  0
 13 11  1  0  0  0  0
 15 14  1  0  0  0  0
 15 16  1  0  0  0  0
 16 23  1  0  0  0  0
 17 21  1  0  0  0  0
 18 19  1  0  0  0  0
 19 20  2  0  0  0  0
 19 24  1  0  0  0  0
 21 23  1  0  0  0  0
 21 18  2  0  0  0  0
 22 20  1  0  0  0  0
 23 22  2  0  0  0  0
 25  1  1  0  0  0  0
 26 25  1  0  0  0  0
 27 28  2  0  0  0  0
 28 26  1  0  0  0  0
 30 35  1  0  0  0  0
 31 29  1  0  0  0  0
 31 28  1  1  0  0  0
 32 36  1  0  0  0  0
 32 37  1  0  0  0  0
 33 35  1  0  0  0  0
 33 29  1  0  0  0  0
 34 37  1  0  0  0  0
 34 30  2  0  0  0  0
 36 31  1  0  0  0  0
 37 33  2  0  0  0  0
 38 36  2  0  0  0  0
 39 41  1  0  0  0  0
 39 30  1  0  0  0  0
 41 40  1  6  0  0  0
 41 42  1  0  0  0  0
 43 45  1  0  0  0  0
 43 42  1  0  0  0  0
 44 43  2  0  0  0  0
 45 46  1  0  0  0  0
M  END
>  <MODEL>
7

>  <REMARK>
 VINA RESULT:      -5.3      4.614      8.158
  Name = 
  17 active torsions:
  status: ('A' for Active; 'I' for Inactive)
    1  A    between atoms: C_4  and  N_42
    2  A    between atoms: C_6  and  O_12
    3  A    between atoms: C_6  and  C_40
    4  A    between atoms: C_8  and  C_17
    5  A    between atoms: C_9  and  C_17
    6  A    between atoms: C_9  and  C_45
    7  A    between atoms: C_10  and  C_19
    8  A    between atoms: C_10  and  O_31
    9  A    between atoms: O_12  and  C_43
   10  A    between atoms: C_14  and  C_44
   11  A    between atoms: N_16  and  O_31
   12  A    between atoms: C_18  and  N_42
   13  A    between atoms: C_19  and  C_26
   14  A    between atoms: C_22  and  C_26
   15  A    between atoms: C_25  and  C_41
   16  A    between atoms: C_28  and  C_43
   17  A    between atoms: C_44  and  C_45
                            x       y       z     vdW  Elec       q    Type
                         _______ _______ _______ _____ _____    ______ ____

>  <TORSDO>
F 17

$$$$
=
 OpenBabel11072411083D

 46 49  0  0  1  0  0  0  0  0999 V2000
  161.2470  207.8290  148.9500 C   0  0  0  0  0  2  0  0  0  0  0  0
  161.3100  207.0500  147.6540 C   0  0  0  0  0  2  0  0  0  0  0  0
  162.1080  205.7750  147.8690 C   0  0  0  0  0  2  0  0  0  0  0  0
  160.7830  202.5030  148.5200 C   0  0  2  0  0  3  0  0  0  0  0  0
  161.8180  203.4150  148.2690 O   0  0  0  0  0  0  0  0  0  0  0  0
  160.5520  202.2340  150.3200 S   0  0  0  0  0  0  0  0  0  0  0  0
  161.2680  204.6830  148.5230 C   0  0  1  0  0  3  0  0  0  0  0  0
  161.4550  203.7330  150.8680 C   0  0  1  0  0  3  0  0  0  0  0  0
  161.0800  204.9480  150.0260 C   0  0  0  0  0  2  0  0  0  0  0  0
  161.0790  201.2330  147.8750 N   0  0  0  0  0  2  0  0  0  0  0  0
  160.8500  201.4020  146.4490 C   0  0  0  0  0  3  0  0  0  0  0  0
  159.3900  201.7310  146.2010 C   0  0  0  0  0  1  0  0  0  0  0  0
  161.2000  200.1160  145.7290 C   0  0  0  0  0  1  0  0  0  0  0  0
  161.1640  204.0190  152.3290 C   0  0  0  0  0  2  0  0  0  0  0  0
  160.6450  205.3070  152.4670 O   0  0  0  0  0  0  0  0  0  0  0  0
  161.2840  205.8250  153.5940 C   0  0  0  0  0  2  0  0  0  0  0  0
  160.4190  206.9640  156.3600 Cl  0  0  0  0  0  0  0  0  0  0  0  0
  160.3840  209.2740  154.9230 C   0  0  0  0  0  3  0  0  0  0  0  0
  160.5360  210.0480  153.7700 C   0  0  0  0  0  0  0  0  0  0  0  0
  160.9310  209.4470  152.5720 C   0  0  0  0  0  3  0  0  0  0  0  0
  160.6290  207.8970  154.8860 C   0  0  0  0  0  0  0  0  0  0  0  0
  161.1770  208.0720  152.5280 C   0  0  0  0  0  3  0  0  0  0  0  0
  161.0360  207.2930  153.6820 C   0  0  0  0  0  0  0  0  0  0  0  0
  160.2290  211.7700  153.8250 Cl  0  0  0  0  0  0  0  0  0  0  0  0
  162.3170  208.7260  149.0060 O   0  0  0  0  0  0  0  0  0  0  0  0
  161.9650  209.7400  148.1780 N   0  0  0  0  0  2  0  0  0  0  0  0
  161.9790  211.3300  149.8840 O   0  0  0  0  0  0  0  0  0  0  0  0
  161.7830  211.0710  148.6690 C   0  0  0  0  0  0  0  0  0  0  0  0
  160.4270  211.6010  146.6580 C   0  0  0  0  0  2  0  0  0  0  0  0
  159.6020  213.7340  143.6830 C   0  0  0  0  0  0  0  0  0  0  0  0
  161.3620  212.1650  147.7410 C   0  0  2  0  0  3  0  0  0  0  0  0
  162.6320  213.3140  145.7220 C   0  0  0  0  0  2  0  0  0  0  0  0
  160.2780  212.5600  145.5230 C   0  0  0  0  0  0  0  0  0  0  0  0
  160.8640  214.0690  143.9250 C   0  0  0  0  0  3  0  0  0  0  0  0
  159.0760  212.7330  144.6670 C   0  0  0  0  0  2  0  0  0  0  0  0
  162.5580  212.9200  147.1780 C   0  0  0  0  0  0  0  0  0  0  0  0
  161.2720  213.3170  145.0980 C   0  0  0  0  0  0  0  0  0  0  0  0
  163.4670  213.2530  147.9210 O   0  0  0  0  0  0  0  0  0  0  0  0
  158.8090  214.2930  142.5510 C   0  0  0  0  0  2  0  0  0  0  0  0
  159.9340  212.7580  141.1110 O   0  0  0  0  0  1  0  0  0  0  0  0
  159.5380  214.0910  141.2310 C   0  0  1  0  0  3  0  0  0  0  0  0
  158.6070  214.4530  140.0870 C   0  0  0  0  0  2  0  0  0  0  0  0
  158.0670  213.2230  139.4320 C   0  0  0  0  0  0  0  0  0  0  0  0
  157.6200  212.3120  140.1110 O   0  0  0  0  0  0  0  0  0  0  0  0
  158.1100  213.0980  137.9460 C   0  0  0  0  0  2  0  0  0  0  0  0
  156.8370  213.3110  137.4170 O   0  0  0  0  0  1  0  0  0  0  0  0
  1 25  1  0  0  0  0
  2  3  1  0  0  0  0
  2  1  1  0  0  0  0
  4 10  1  6  0  0  0
  4  6  1  0  0  0  0
  5  4  1  0  0  0  0
  5  7  1  0  0  0  0
  6  8  1  0  0  0  0
  7  3  1  1  0  0  0
  7  9  1  0  0  0  0
  8 14  1  1  0  0  0
  9  8  1  0  0  0  0
 11 10  1  0  0  0  0
 12 11  1  0  0  0  0
 13 11  1  0  0  0  0
 14 15  1  0  0  0  0
 15 16  1  0  0  0  0
 16 23  1  0  0  0  0
 19 24  1  0  0  0  0
 19 18  2  0  0  0  0
 20 19  1  0  0  0  0
 21 18  1  0  0  0  0
 21 17  1  0  0  0  0
 22 20  2  0  0  0  0
 22 23  1  0  0  0  0
 23 21  2  0  0  0  0
 26 28  1  0  0  0  0
 26 25  1  0  0  0  0
 28 27  2  0  0  0  0
 29 31  1  0  0  0  0
 30 34  2  0  0  0  0
 30 35  1  0  0  0  0
 31 28  1  6  0  0  0
 32 36  1  0  0  0  0
 33 29  1  0  0  0  0
 34 37  1  0  0  0  0
 35 33  1  0  0  0  0
 36 31  1  0  0  0  0
 36 38  2  0  0  0  0
 37 33  2  0  0  0  0
 37 32  1  0  0  0  0
 39 30  1  0  0  0  0
 41 40  1  6  0  0  0
 41 39  1  0  0  0  0
 42 41  1  0  0  0  0
 43 42  1  0  0  0  0
 43 44  2  0  0  0  0
 45 43  1  0  0  0  0
 46 45  1  0  0  0  0
M  END
>  <MODEL>
8

>  <REMARK>
 VINA RESULT:      -5.3      3.300      6.235
  Name = 
  17 active torsions:
  status: ('A' for Active; 'I' for Inactive)
    1  A    between atoms: C_4  and  N_42
    2  A    between atoms: C_6  and  O_12
    3  A    between atoms: C_6  and  C_40
    4  A    between atoms: C_8  and  C_17
    5  A    between atoms: C_9  and  C_17
    6  A    between atoms: C_9  and  C_45
    7  A    between atoms: C_10  and  C_19
    8  A    between atoms: C_10  and  O_31
    9  A    between atoms: O_12  and  C_43
   10  A    between atoms: C_14  and  C_44
   11  A    between atoms: N_16  and  O_31
   12  A    between atoms: C_18  and  N_42
   13  A    between atoms: C_19  and  C_26
   14  A    between atoms: C_22  and  C_26
   15  A    between atoms: C_25  and  C_41
   16  A    between atoms: C_28  and  C_43
   17  A    between atoms: C_44  and  C_45
                            x       y       z     vdW  Elec       q    Type
                         _______ _______ _______ _____ _____    ______ ____

>  <TORSDO>
F 17

$$$$
=
 OpenBabel11072411083D

 46 49  0  0  1  0  0  0  0  0999 V2000
  161.2590  208.8540  149.3860 C   0  0  0  0  0  2  0  0  0  0  0  0
  161.3890  207.8120  148.2960 C   0  0  0  0  0  2  0  0  0  0  0  0
  162.2060  206.6390  148.8130 C   0  0  0  0  0  2  0  0  0  0  0  0
  160.9110  203.5640  150.1360 C   0  0  2  0  0  3  0  0  0  0  0  0
  161.9390  204.4170  149.7090 O   0  0  0  0  0  0  0  0  0  0  0  0
  160.6510  203.6870  151.9480 S   0  0  0  0  0  0  0  0  0  0  0  0
  161.3680  205.7010  149.6740 C   0  0  1  0  0  3  0  0  0  0  0  0
  161.5250  205.2830  152.1720 C   0  0  1  0  0  3  0  0  0  0  0  0
  161.1500  206.2810  151.0820 C   0  0  0  0  0  2  0  0  0  0  0  0
  161.2350  202.1900  149.7860 N   0  0  0  0  0  2  0  0  0  0  0  0
  160.7050  201.9400  148.4550 C   0  0  0  0  0  3  0  0  0  0  0  0
  161.1630  200.5780  147.9680 C   0  0  0  0  0  1  0  0  0  0  0  0
  161.2120  203.0050  147.5040 C   0  0  0  0  0  1  0  0  0  0  0  0
  161.2040  205.8730  153.5320 C   0  0  0  0  0  2  0  0  0  0  0  0
  160.8890  207.2260  153.4010 O   0  0  0  0  0  0  0  0  0  0  0  0
  161.2010  207.7820  154.6410 C   0  0  0  0  0  2  0  0  0  0  0  0
  162.2620  209.9490  152.6720 Cl  0  0  0  0  0  0  0  0  0  0  0  0
  160.4720  211.4680  154.0470 C   0  0  0  0  0  3  0  0  0  0  0  0
  159.4950  211.7030  155.0190 C   0  0  0  0  0  0  0  0  0  0  0  0
  159.0800  210.6650  155.8570 C   0  0  0  0  0  3  0  0  0  0  0  0
  161.0350  210.1960  153.9060 C   0  0  0  0  0  0  0  0  0  0  0  0
  159.6390  209.3910  155.7210 C   0  0  0  0  0  3  0  0  0  0  0  0
  160.6090  209.1480  154.7430 C   0  0  0  0  0  0  0  0  0  0  0  0
  158.7950  213.2980  155.1890 Cl  0  0  0  0  0  0  0  0  0  0  0  0
  162.3340  209.7420  149.3120 O   0  0  0  0  0  0  0  0  0  0  0  0
  162.0390  210.5590  148.2720 N   0  0  0  0  0  2  0  0  0  0  0  0
  161.2670  212.2750  149.6520 O   0  0  0  0  0  0  0  0  0  0  0  0
  161.4730  211.8560  148.4830 C   0  0  0  0  0  0  0  0  0  0  0  0
  160.4580  211.8830  146.2170 C   0  0  0  0  0  2  0  0  0  0  0  0
  159.9870  213.3890  142.8130 C   0  0  0  0  0  0  0  0  0  0  0  0
  161.1250  212.7250  147.3170 C   0  0  2  0  0  3  0  0  0  0  0  0
  162.6250  213.6830  145.3570 C   0  0  0  0  0  2  0  0  0  0  0  0
  160.4280  212.6200  144.9190 C   0  0  0  0  0  0  0  0  0  0  0  0
  161.1470  213.9130  143.1920 C   0  0  0  0  0  3  0  0  0  0  0  0
  159.3890  212.5020  143.8640 C   0  0  0  0  0  2  0  0  0  0  0  0
  162.3270  213.5230  146.8280 C   0  0  0  0  0  0  0  0  0  0  0  0
  161.4050  213.4170  144.5310 C   0  0  0  0  0  0  0  0  0  0  0  0
  163.0510  214.0810  147.6360 O   0  0  0  0  0  0  0  0  0  0  0  0
  159.3630  213.6550  141.4860 C   0  0  0  0  0  2  0  0  0  0  0  0
  160.6650  211.7310  140.9410 O   0  0  0  0  0  1  0  0  0  0  0  0
  160.0630  212.8650  140.3910 C   0  0  1  0  0  3  0  0  0  0  0  0
  159.0440  212.4480  139.3460 C   0  0  0  0  0  2  0  0  0  0  0  0
  159.6730  211.5750  138.3090 C   0  0  0  0  0  0  0  0  0  0  0  0
  160.5650  212.0120  137.5980 O   0  0  0  0  0  0  0  0  0  0  0  0
  159.1820  210.1790  138.1210 C   0  0  0  0  0  2  0  0  0  0  0  0
  160.2390  209.2820  138.2810 O   0  0  0  0  0  1  0  0  0  0  0  0
  2  3  1  0  0  0  0
  2  1  1  0  0  0  0
  4 10  1  1  0  0  0
  4  6  1  0  0  0  0
  5  4  1  0  0  0  0
  6  8  1  0  0  0  0
  7  3  1  6  0  0  0
  7  5  1  0  0  0  0
  7  9  1  0  0  0  0
  8 14  1  1  0  0  0
  9  8  1  0  0  0  0
 11 10  1  0  0  0  0
 12 11  1  0  0  0  0
 13 11  1  0  0  0  0
 15 14  1  0  0  0  0
 15 16  1  0  0  0  0
 16 23  1  0  0  0  0
 17 21  1  0  0  0  0
 18 19  1  0  0  0  0
 19 24  1  0  0  0  0
 19 20  2  0  0  0  0
 21 18  2  0  0  0  0
 21 23  1  0  0  0  0
 22 20  1  0  0  0  0
 23 22  2  0  0  0  0
 25  1  1  0  0  0  0
 26 28  1  0  0  0  0
 26 25  1  0  0  0  0
 28 27  2  0  0  0  0
 29 31  1  0  0  0  0
 30 34  2  0  0  0  0
 30 35  1  0  0  0  0
 31 28  1  1  0  0  0
 32 36  1  0  0  0  0
 33 29  1  0  0  0  0
 34 37  1  0  0  0  0
 35 33  1  0  0  0  0
 36 31  1  0  0  0  0
 36 38  2  0  0  0  0
 37 33  2  0  0  0  0
 37 32  1  0  0  0  0
 39 30  1  0  0  0  0
 41 40  1  1  0  0  0
 41 39  1  0  0  0  0
 42 41  1  0  0  0  0
 43 42  1  0  0  0  0
 44 43  2  0  0  0  0
 45 46  1  0  0  0  0
 45 43  1  0  0  0  0
M  END
>  <MODEL>
9

>  <REMARK>
 VINA RESULT:      -5.2      3.155      5.974
  Name = 
  17 active torsions:
  status: ('A' for Active; 'I' for Inactive)
    1  A    between atoms: C_4  and  N_42
    2  A    between atoms: C_6  and  O_12
    3  A    between atoms: C_6  and  C_40
    4  A    between atoms: C_8  and  C_17
    5  A    between atoms: C_9  and  C_17
    6  A    between atoms: C_9  and  C_45
    7  A    between atoms: C_10  and  C_19
    8  A    between atoms: C_10  and  O_31
    9  A    between atoms: O_12  and  C_43
   10  A    between atoms: C_14  and  C_44
   11  A    between atoms: N_16  and  O_31
   12  A    between atoms: C_18  and  N_42
   13  A    between atoms: C_19  and  C_26
   14  A    between atoms: C_22  and  C_26
   15  A    between atoms: C_25  and  C_41
   16  A    between atoms: C_28  and  C_43
   17  A    between atoms: C_44  and  C_45
                            x       y       z     vdW  Elec       q    Type
                         _______ _______ _______ _____ _____    ______ ____

>  <TORSDO>
F 17

$$$$
