=
 OpenBabel11072414163D

 34 37  0  0  1  0  0  0  0  0999 V2000
  162.0480  208.0070  149.1540 N   0  0  0  0  0  0  0  0  0  0  0  0
  161.3660  205.8380  149.9070 C   0  0  0  0  0  0  0  0  0  0  0  0
  162.0860  208.4890  150.4240 C   0  0  0  0  0  0  0  0  0  0  0  0
  161.3790  206.3270  151.2160 C   0  0  0  0  0  3  0  0  0  0  0  0
  161.7430  207.6420  151.4990 C   0  0  0  0  0  0  0  0  0  0  0  0
  162.4050  209.9320  150.6140 C   0  0  0  0  0  1  0  0  0  0  0  0
  161.7010  206.7260  148.8550 C   0  0  0  0  0  0  0  0  0  0  0  0
  162.5450  204.3980  146.2230 C   0  0  0  0  0  3  0  0  0  0  0  0
  161.6080  206.3560  147.4290 C   0  0  0  0  0  0  0  0  0  0  0  0
  162.8030  205.7760  146.7330 C   0  0  0  0  0  2  0  0  0  0  0  0
  160.1600  206.1670  145.3930 C   0  0  0  0  0  3  0  0  0  0  0  0
  160.4570  206.5650  146.7830 C   0  0  0  0  0  3  0  0  0  0  0  0
  161.6160  204.1260  145.3080 C   0  0  0  0  0  3  0  0  0  0  0  0
  160.6630  205.1050  144.7510 C   0  0  0  0  0  3  0  0  0  0  0  0
  160.5060  204.0200  148.6500 O   0  0  0  0  0  0  0  0  0  0  0  0
  161.3800  203.4520  150.7370 N   0  0  0  0  0  2  0  0  0  0  0  0
  161.0770  204.4010  149.7090 C   0  0  0  0  0  0  0  0  0  0  0  0
  161.1090  202.0830  150.5940 C   0  0  0  0  0  0  0  0  0  0  0  0
  160.8860  200.9540  150.4750 N   0  0  0  0  0  0  0  0  0  0  0  0
  161.7430  208.0430  152.8440 O   0  0  0  0  0  0  0  0  0  0  0  0
  160.6090  208.7780  155.9410 C   0  0  0  0  0  2  0  0  0  0  0  0
  160.5120  206.9900  154.6110 C   0  0  0  0  0  2  0  0  0  0  0  0
  160.9550  207.4220  155.8730 O   0  0  0  0  0  0  0  0  0  0  0  0
  160.5730  208.1530  153.6460 C   0  0  1  0  0  3  0  0  0  0  0  0
  160.6930  209.3520  154.5460 C   0  0  1  0  0  3  0  0  0  0  0  0
  157.6920  211.6940  155.1980 C   0  0  0  0  0  2  0  0  0  0  0  0
  158.8240  210.7060  155.3210 C   0  0  0  0  0  3  0  0  0  0  0  0
  157.8940  212.6490  154.0280 C   0  0  0  0  0  2  0  0  0  0  0  0
  159.6120  210.3610  154.2870 C   0  0  0  0  0  0  0  0  0  0  0  0
  160.6020  211.9760  152.8360 O   0  0  0  0  0  1  0  0  0  0  0  0
  159.5300  211.0870  152.9540 C   0  0  2  0  0  3  0  0  0  0  0  0
  158.2000  211.8330  152.7780 C   0  0  2  0  0  3  0  0  0  0  0  0
  158.2450  212.6650  151.6570 O   0  0  0  0  0  0  0  0  0  0  0  0
  157.6530  213.8580  152.0750 C   0  0  0  0  0  1  0  0  0  0  0  0
  1  3  1  0  0  0  0
  2  4  2  0  0  0  0
  3  6  1  0  0  0  0
  3  5  2  0  0  0  0
  4  5  1  0  0  0  0
  5 20  1  0  0  0  0
  7  1  2  0  0  0  0
  7  2  1  0  0  0  0
  8 10  1  0  0  0  0
  9  7  1  0  0  0  0
 10  9  1  0  0  0  0
 11 12  1  0  0  0  0
 12  9  2  0  0  0  0
 13  8  2  0  0  0  0
 14 13  1  0  0  0  0
 14 11  2  0  0  0  0
 15 17  2  0  0  0  0
 17  2  1  0  0  0  0
 17 16  1  0  0  0  0
 18 16  1  0  0  0  0
 19 18  3  0  0  0  0
 22 23  1  0  0  0  0
 23 21  1  0  0  0  0
 24 20  1  6  0  0  0
 24 25  1  0  0  0  0
 24 22  1  0  0  0  0
 25 29  1  6  0  0  0
 25 21  1  0  0  0  0
 26 27  1  0  0  0  0
 28 26  1  0  0  0  0
 29 27  2  0  0  0  0
 31 30  1  1  0  0  0
 31 29  1  0  0  0  0
 32 33  1  6  0  0  0
 32 31  1  0  0  0  0
 32 28  1  0  0  0  0
 33 34  1  0  0  0  0
M  END
>  <MODEL>
1

>  <REMARK>
 VINA RESULT:      -8.4      0.000      0.000
  Name = 
  7 active torsions:
  status: ('A' for Active; 'I' for Inactive)
    1  A    between atoms: O_1  and  C_21
    2  A    between atoms: O_1  and  C_31
    3  A    between atoms: C_2  and  N_13
    4  A    between atoms: O_5  and  C_34
    5  A    between atoms: C_12  and  C_16
    6  A    between atoms: C_17  and  C_23
    7  A    between atoms: C_19  and  C_33
                            x       y       z     vdW  Elec       q    Type
                         _______ _______ _______ _____ _____    ______ ____

>  <TORSDO>
F 7

$$$$
=
 OpenBabel11072414163D

 34 37  0  0  1  0  0  0  0  0999 V2000
  161.0650  205.2320  150.0890 N   0  0  0  0  0  0  0  0  0  0  0  0
  161.8560  207.4780  149.8270 C   0  0  0  0  0  0  0  0  0  0  0  0
  161.0840  205.3330  151.4440 C   0  0  0  0  0  0  0  0  0  0  0  0
  161.9020  207.5860  151.2200 C   0  0  0  0  0  3  0  0  0  0  0  0
  161.5130  206.5340  152.0460 C   0  0  0  0  0  0  0  0  0  0  0  0
  160.7310  204.1220  152.2390 C   0  0  0  0  0  1  0  0  0  0  0  0
  161.4340  206.2490  149.2630 C   0  0  0  0  0  0  0  0  0  0  0  0
  162.1710  203.9450  146.5790 C   0  0  0  0  0  3  0  0  0  0  0  0
  161.4580  205.9780  147.8130 C   0  0  0  0  0  0  0  0  0  0  0  0
  162.6070  205.2210  147.2170 C   0  0  0  0  0  2  0  0  0  0  0  0
  160.2700  206.1710  145.6150 C   0  0  0  0  0  3  0  0  0  0  0  0
  160.4540  206.4340  147.0560 C   0  0  0  0  0  3  0  0  0  0  0  0
  161.3330  203.9000  145.5450 C   0  0  0  0  0  3  0  0  0  0  0  0
  160.6500  205.0680  144.9570 C   0  0  0  0  0  3  0  0  0  0  0  0
  162.8300  208.5610  147.9560 O   0  0  0  0  0  0  0  0  0  0  0  0
  161.8140  209.9830  149.5000 N   0  0  0  0  0  2  0  0  0  0  0  0
  162.1770  208.6810  149.0290 C   0  0  0  0  0  0  0  0  0  0  0  0
  162.1130  211.1490  148.7810 C   0  0  0  0  0  0  0  0  0  0  0  0
  162.3590  212.1110  148.1870 N   0  0  0  0  0  0  0  0  0  0  0  0
  161.5770  206.7370  153.4330 O   0  0  0  0  0  0  0  0  0  0  0  0
  161.1280  208.5080  156.2760 C   0  0  0  0  0  2  0  0  0  0  0  0
  160.1630  206.7120  155.3690 C   0  0  0  0  0  2  0  0  0  0  0  0
  160.8500  207.1540  156.5120 O   0  0  0  0  0  0  0  0  0  0  0  0
  160.6390  207.5080  154.1730 C   0  0  1  0  0  3  0  0  0  0  0  0
  161.3350  208.6890  154.7900 C   0  0  1  0  0  3  0  0  0  0  0  0
  160.3200  211.5080  152.3530 C   0  0  0  0  0  2  0  0  0  0  0  0
  160.8300  210.2350  152.9780 C   0  0  0  0  0  3  0  0  0  0  0  0
  159.2660  212.1860  153.2200 C   0  0  0  0  0  2  0  0  0  0  0  0
  160.7760  209.9940  154.3000 C   0  0  0  0  0  0  0  0  0  0  0  0
  158.7970  210.3460  155.5870 O   0  0  0  0  0  1  0  0  0  0  0  0
  160.0240  210.9190  155.2430 C   0  0  2  0  0  3  0  0  0  0  0  0
  159.8070  212.3140  154.6390 C   0  0  2  0  0  3  0  0  0  0  0  0
  158.9280  213.0610  155.4250 O   0  0  0  0  0  0  0  0  0  0  0  0
  158.0670  213.6750  154.5130 C   0  0  0  0  0  1  0  0  0  0  0  0
  1  3  1  0  0  0  0
  2  4  2  0  0  0  0
  3  5  2  0  0  0  0
  3  6  1  0  0  0  0
  4  5  1  0  0  0  0
  5 20  1  0  0  0  0
  7  2  1  0  0  0  0
  7  1  2  0  0  0  0
  8 10  1  0  0  0  0
  9  7  1  0  0  0  0
 10  9  1  0  0  0  0
 11 12  1  0  0  0  0
 12  9  2  0  0  0  0
 13  8  2  0  0  0  0
 14 13  1  0  0  0  0
 14 11  2  0  0  0  0
 15 17  2  0  0  0  0
 17 16  1  0  0  0  0
 17  2  1  0  0  0  0
 18 16  1  0  0  0  0
 19 18  3  0  0  0  0
 21 23  1  0  0  0  0
 22 23  1  0  0  0  0
 24 20  1  1  0  0  0
 24 25  1  0  0  0  0
 24 22  1  0  0  0  0
 25 29  1  6  0  0  0
 25 21  1  0  0  0  0
 26 27  1  0  0  0  0
 26 28  1  0  0  0  0
 27 29  2  0  0  0  0
 28 32  1  0  0  0  0
 29 31  1  0  0  0  0
 31 30  1  6  0  0  0
 32 31  1  0  0  0  0
 32 33  1  1  0  0  0
 34 33  1  0  0  0  0
M  END
>  <MODEL>
2

>  <REMARK>
 VINA RESULT:      -8.4      1.882      3.675
  Name = 
  7 active torsions:
  status: ('A' for Active; 'I' for Inactive)
    1  A    between atoms: O_1  and  C_21
    2  A    between atoms: O_1  and  C_31
    3  A    between atoms: C_2  and  N_13
    4  A    between atoms: O_5  and  C_34
    5  A    between atoms: C_12  and  C_16
    6  A    between atoms: C_17  and  C_23
    7  A    between atoms: C_19  and  C_33
                            x       y       z     vdW  Elec       q    Type
                         _______ _______ _______ _____ _____    ______ ____

>  <TORSDO>
F 7

$$$$
=
 OpenBabel11072414163D

 34 37  0  0  1  0  0  0  0  0999 V2000
  162.0280  208.6140  148.4580 N   0  0  0  0  0  0  0  0  0  0  0  0
  161.4200  206.7220  149.7960 C   0  0  0  0  0  0  0  0  0  0  0  0
  162.0700  209.4290  149.5450 C   0  0  0  0  0  0  0  0  0  0  0  0
  161.4370  207.5550  150.9180 C   0  0  0  0  0  3  0  0  0  0  0  0
  161.7670  208.9060  150.8190 C   0  0  0  0  0  0  0  0  0  0  0  0
  162.3500  210.8760  149.3210 C   0  0  0  0  0  1  0  0  0  0  0  0
  161.7150  207.2920  148.5330 C   0  0  0  0  0  0  0  0  0  0  0  0
  162.4030  204.2560  146.6990 C   0  0  0  0  0  3  0  0  0  0  0  0
  161.6120  206.5400  147.2670 C   0  0  0  0  0  0  0  0  0  0  0  0
  162.7660  205.6990  146.8080 C   0  0  0  0  0  2  0  0  0  0  0  0
  160.1830  205.8870  145.3160 C   0  0  0  0  0  3  0  0  0  0  0  0
  160.4910  206.6410  146.5470 C   0  0  0  0  0  3  0  0  0  0  0  0
  161.4680  203.8040  145.8640 C   0  0  0  0  0  3  0  0  0  0  0  0
  160.6060  204.6520  145.0190 C   0  0  0  0  0  3  0  0  0  0  0  0
  160.4080  204.6570  149.2210 O   0  0  0  0  0  0  0  0  0  0  0  0
  161.7330  204.6060  151.1400 N   0  0  0  0  0  2  0  0  0  0  0  0
  161.1710  205.2800  150.0100 C   0  0  0  0  0  0  0  0  0  0  0  0
  161.5080  203.2440  151.3860 C   0  0  0  0  0  0  0  0  0  0  0  0
  161.3230  202.1190  151.5880 N   0  0  0  0  0  0  0  0  0  0  0  0
  161.7740  209.6630  152.0000 O   0  0  0  0  0  0  0  0  0  0  0  0
  160.6620  211.1820  154.8060 C   0  0  0  0  0  2  0  0  0  0  0  0
  160.5230  209.1180  153.9710 C   0  0  0  0  0  2  0  0  0  0  0  0
  160.9760  209.8450  155.0840 O   0  0  0  0  0  0  0  0  0  0  0  0
  160.6090  209.9980  152.7430 C   0  0  1  0  0  3  0  0  0  0  0  0
  160.7560  211.3820  153.3110 C   0  0  1  0  0  3  0  0  0  0  0  0
  158.8520  213.7360  150.9130 C   0  0  0  0  0  2  0  0  0  0  0  0
  159.8310  212.7800  151.5450 C   0  0  0  0  0  3  0  0  0  0  0  0
  157.4780  213.6580  151.5670 C   0  0  0  0  0  2  0  0  0  0  0  0
  159.6980  212.3180  152.8010 C   0  0  0  0  0  0  0  0  0  0  0  0
  157.6400  211.4420  153.6330 O   0  0  0  0  0  1  0  0  0  0  0  0
  158.4430  212.5860  153.6140 C   0  0  2  0  0  3  0  0  0  0  0  0
  157.6460  213.7840  153.0760 C   0  0  2  0  0  3  0  0  0  0  0  0
  156.3970  213.8650  153.6960 O   0  0  0  0  0  0  0  0  0  0  0  0
  156.6540  214.4410  154.9410 C   0  0  0  0  0  1  0  0  0  0  0  0
  1  7  2  0  0  0  0
  1  3  1  0  0  0  0
  2 17  1  0  0  0  0
  2  4  2  0  0  0  0
  3  5  2  0  0  0  0
  5  4  1  0  0  0  0
  5 20  1  0  0  0  0
  6  3  1  0  0  0  0
  7  2  1  0  0  0  0
  8 10  1  0  0  0  0
  9  7  1  0  0  0  0
 10  9  1  0  0  0  0
 11 12  1  0  0  0  0
 12  9  2  0  0  0  0
 13  8  2  0  0  0  0
 14 11  2  0  0  0  0
 14 13  1  0  0  0  0
 15 17  2  0  0  0  0
 16 18  1  0  0  0  0
 17 16  1  0  0  0  0
 18 19  3  0  0  0  0
 21 23  1  0  0  0  0
 22 23  1  0  0  0  0
 24 20  1  6  0  0  0
 24 25  1  0  0  0  0
 24 22  1  0  0  0  0
 25 29  1  6  0  0  0
 25 21  1  0  0  0  0
 26 27  1  0  0  0  0
 26 28  1  0  0  0  0
 27 29  2  0  0  0  0
 28 32  1  0  0  0  0
 29 31  1  0  0  0  0
 31 30  1  6  0  0  0
 32 31  1  0  0  0  0
 32 33  1  1  0  0  0
 33 34  1  0  0  0  0
M  END
>  <MODEL>
3

>  <REMARK>
 VINA RESULT:      -8.0      1.366      2.059
  Name = 
  7 active torsions:
  status: ('A' for Active; 'I' for Inactive)
    1  A    between atoms: O_1  and  C_21
    2  A    between atoms: O_1  and  C_31
    3  A    between atoms: C_2  and  N_13
    4  A    between atoms: O_5  and  C_34
    5  A    between atoms: C_12  and  C_16
    6  A    between atoms: C_17  and  C_23
    7  A    between atoms: C_19  and  C_33
                            x       y       z     vdW  Elec       q    Type
                         _______ _______ _______ _____ _____    ______ ____

>  <TORSDO>
F 7

$$$$
=
 OpenBabel11072414163D

 34 37  0  0  1  0  0  0  0  0999 V2000
  161.0540  206.2820  152.2130 N   0  0  0  0  0  0  0  0  0  0  0  0
  161.3840  207.1420  150.0010 C   0  0  0  0  0  0  0  0  0  0  0  0
  160.9710  207.5330  152.7380 C   0  0  0  0  0  0  0  0  0  0  0  0
  161.3230  208.4340  150.5330 C   0  0  0  0  0  3  0  0  0  0  0  0
  161.1080  208.6530  151.8930 C   0  0  0  0  0  0  0  0  0  0  0  0
  160.8250  207.6600  154.2160 C   0  0  0  0  0  1  0  0  0  0  0  0
  161.2570  206.0450  150.8880 C   0  0  0  0  0  0  0  0  0  0  0  0
  160.8540  202.5350  151.6460 C   0  0  0  0  0  3  0  0  0  0  0  0
  161.4230  204.6420  150.4610 C   0  0  0  0  0  0  0  0  0  0  0  0
  161.8690  203.6120  151.4550 C   0  0  0  0  0  2  0  0  0  0  0  0
  161.2070  202.9640  148.6140 C   0  0  0  0  0  3  0  0  0  0  0  0
  161.1860  204.3240  149.1840 C   0  0  0  0  0  3  0  0  0  0  0  0
  160.4630  201.7240  150.6640 C   0  0  0  0  0  3  0  0  0  0  0  0
  160.8910  201.8320  149.2560 C   0  0  0  0  0  3  0  0  0  0  0  0
  162.5700  207.3510  147.9590 O   0  0  0  0  0  0  0  0  0  0  0  0
  160.3900  206.5470  147.7560 N   0  0  0  0  0  2  0  0  0  0  0  0
  161.5010  207.0040  148.5330 C   0  0  0  0  0  0  0  0  0  0  0  0
  160.4560  206.4160  146.3620 C   0  0  0  0  0  0  0  0  0  0  0  0
  160.5110  206.3080  145.2110 N   0  0  0  0  0  0  0  0  0  0  0  0
  161.0460  209.9830  152.3360 O   0  0  0  0  0  0  0  0  0  0  0  0
  159.7060  212.8800  153.4450 C   0  0  0  0  0  2  0  0  0  0  0  0
  159.2850  210.7160  153.7870 C   0  0  0  0  0  2  0  0  0  0  0  0
  159.6280  211.9060  154.4500 O   0  0  0  0  0  0  0  0  0  0  0  0
  159.8520  210.7550  152.3860 C   0  0  1  0  0  3  0  0  0  0  0  0
  160.1840  212.2060  152.1800 C   0  0  1  0  0  3  0  0  0  0  0  0
  157.3920  213.4960  149.8440 C   0  0  0  0  0  2  0  0  0  0  0  0
  158.1870  212.9530  151.0030 C   0  0  0  0  0  3  0  0  0  0  0  0
  158.2540  214.3230  148.8980 C   0  0  0  0  0  2  0  0  0  0  0  0
  159.5190  212.7700  150.9570 C   0  0  0  0  0  0  0  0  0  0  0  0
  161.0160  214.4420  150.1480 O   0  0  0  0  0  1  0  0  0  0  0  0
  160.3460  213.2710  149.7850 C   0  0  2  0  0  3  0  0  0  0  0  0
  159.4920  213.5150  148.5320 C   0  0  2  0  0  3  0  0  0  0  0  0
  160.2310  214.1810  147.5530 O   0  0  0  0  0  0  0  0  0  0  0  0
  160.8440  213.1670  146.8160 C   0  0  0  0  0  1  0  0  0  0  0  0
  1  3  1  0  0  0  0
  2  4  2  0  0  0  0
  2  7  1  0  0  0  0
  3  6  1  0  0  0  0
  4  5  1  0  0  0  0
  5 20  1  0  0  0  0
  5  3  2  0  0  0  0
  7  1  2  0  0  0  0
  9  7  1  0  0  0  0
  9 10  1  0  0  0  0
 10  8  1  0  0  0  0
 11 12  1  0  0  0  0
 11 14  2  0  0  0  0
 12  9  2  0  0  0  0
 13  8  2  0  0  0  0
 14 13  1  0  0  0  0
 15 17  2  0  0  0  0
 16 17  1  0  0  0  0
 17  2  1  0  0  0  0
 18 16  1  0  0  0  0
 19 18  3  0  0  0  0
 21 23  1  0  0  0  0
 22 23  1  0  0  0  0
 24 20  1  1  0  0  0
 24 22  1  0  0  0  0
 25 29  1  6  0  0  0
 25 24  1  0  0  0  0
 25 21  1  0  0  0  0
 26 27  1  0  0  0  0
 28 26  1  0  0  0  0
 29 27  2  0  0  0  0
 31 30  1  1  0  0  0
 31 29  1  0  0  0  0
 32 33  1  6  0  0  0
 32 28  1  0  0  0  0
 32 31  1  0  0  0  0
 34 33  1  0  0  0  0
M  END
>  <MODEL>
4

>  <REMARK>
 VINA RESULT:      -7.7      2.445      4.451
  Name = 
  7 active torsions:
  status: ('A' for Active; 'I' for Inactive)
    1  A    between atoms: O_1  and  C_21
    2  A    between atoms: O_1  and  C_31
    3  A    between atoms: C_2  and  N_13
    4  A    between atoms: O_5  and  C_34
    5  A    between atoms: C_12  and  C_16
    6  A    between atoms: C_17  and  C_23
    7  A    between atoms: C_19  and  C_33
                            x       y       z     vdW  Elec       q    Type
                         _______ _______ _______ _____ _____    ______ ____

>  <TORSDO>
F 7

$$$$
=
 OpenBabel11072414163D

 34 37  0  0  1  0  0  0  0  0999 V2000
  161.2020  205.3350  152.0040 N   0  0  0  0  0  0  0  0  0  0  0  0
  161.5500  206.4850  149.9310 C   0  0  0  0  0  0  0  0  0  0  0  0
  161.2810  206.4910  152.7140 C   0  0  0  0  0  0  0  0  0  0  0  0
  161.6570  207.6780  150.6520 C   0  0  0  0  0  3  0  0  0  0  0  0
  161.5170  207.7070  152.0380 C   0  0  0  0  0  0  0  0  0  0  0  0
  161.2040  206.4050  154.1990 C   0  0  0  0  0  1  0  0  0  0  0  0
  161.3290  205.2840  150.6500 C   0  0  0  0  0  0  0  0  0  0  0  0
  160.0810  201.8940  150.6360 C   0  0  0  0  0  3  0  0  0  0  0  0
  161.3170  203.9540  150.0100 C   0  0  0  0  0  0  0  0  0  0  0  0
  161.3010  202.7210  150.8630 C   0  0  0  0  0  2  0  0  0  0  0  0
  161.2320  202.6440  147.8760 C   0  0  0  0  0  3  0  0  0  0  0  0
  161.3380  203.8800  148.6760 C   0  0  0  0  0  3  0  0  0  0  0  0
  159.7890  201.3390  149.4600 C   0  0  0  0  0  3  0  0  0  0  0  0
  160.5560  201.5390  148.2160 C   0  0  0  0  0  3  0  0  0  0  0  0
  162.6350  207.0050  147.8880 O   0  0  0  0  0  0  0  0  0  0  0  0
  160.4550  206.2060  147.6710 N   0  0  0  0  0  2  0  0  0  0  0  0
  161.5980  206.5630  148.4550 C   0  0  0  0  0  0  0  0  0  0  0  0
  160.4560  206.2800  146.2710 C   0  0  0  0  0  0  0  0  0  0  0  0
  160.4560  206.3410  145.1160 N   0  0  0  0  0  0  0  0  0  0  0  0
  161.6230  208.9510  152.6770 O   0  0  0  0  0  0  0  0  0  0  0  0
  160.7710  211.2510  155.0020 C   0  0  0  0  0  2  0  0  0  0  0  0
  160.2680  209.1070  154.6480 C   0  0  0  0  0  2  0  0  0  0  0  0
  160.8320  209.9810  155.5920 O   0  0  0  0  0  0  0  0  0  0  0  0
  160.5290  209.6480  153.2600 C   0  0  1  0  0  3  0  0  0  0  0  0
  160.9200  211.0790  153.5080 C   0  0  1  0  0  3  0  0  0  0  0  0
  159.6000  213.2170  150.5750 C   0  0  0  0  0  2  0  0  0  0  0  0
  160.3710  212.2660  151.4540 C   0  0  0  0  0  3  0  0  0  0  0  0
  158.1740  213.4230  151.0710 C   0  0  0  0  0  2  0  0  0  0  0  0
  160.0570  212.0410  152.7420 C   0  0  0  0  0  0  0  0  0  0  0  0
  157.8270  211.5820  153.4570 O   0  0  0  0  0  1  0  0  0  0  0  0
  158.7830  212.5970  153.3550 C   0  0  2  0  0  3  0  0  0  0  0  0
  158.2180  213.7770  152.5520 C   0  0  2  0  0  3  0  0  0  0  0  0
  156.9410  214.1170  153.0040 O   0  0  0  0  0  0  0  0  0  0  0  0
  156.2310  214.4530  151.8510 C   0  0  0  0  0  1  0  0  0  0  0  0
  1  3  1  0  0  0  0
  2  7  1  0  0  0  0
  2  4  2  0  0  0  0
  3  6  1  0  0  0  0
  4  5  1  0  0  0  0
  5 20  1  0  0  0  0
  5  3  2  0  0  0  0
  7  1  2  0  0  0  0
  8 10  1  0  0  0  0
  9  7  1  0  0  0  0
  9 10  1  0  0  0  0
 11 14  2  0  0  0  0
 11 12  1  0  0  0  0
 12  9  2  0  0  0  0
 13  8  2  0  0  0  0
 14 13  1  0  0  0  0
 15 17  2  0  0  0  0
 16 17  1  0  0  0  0
 17  2  1  0  0  0  0
 18 16  1  0  0  0  0
 19 18  3  0  0  0  0
 21 23  1  0  0  0  0
 22 23  1  0  0  0  0
 24 20  1  1  0  0  0
 24 25  1  0  0  0  0
 24 22  1  0  0  0  0
 25 29  1  6  0  0  0
 25 21  1  0  0  0  0
 26 28  1  0  0  0  0
 26 27  1  0  0  0  0
 27 29  2  0  0  0  0
 28 32  1  0  0  0  0
 29 31  1  0  0  0  0
 31 30  1  6  0  0  0
 32 33  1  1  0  0  0
 32 31  1  0  0  0  0
 34 33  1  0  0  0  0
M  END
>  <MODEL>
5

>  <REMARK>
 VINA RESULT:      -7.2      1.922      3.686
  Name = 
  7 active torsions:
  status: ('A' for Active; 'I' for Inactive)
    1  A    between atoms: O_1  and  C_21
    2  A    between atoms: O_1  and  C_31
    3  A    between atoms: C_2  and  N_13
    4  A    between atoms: O_5  and  C_34
    5  A    between atoms: C_12  and  C_16
    6  A    between atoms: C_17  and  C_23
    7  A    between atoms: C_19  and  C_33
                            x       y       z     vdW  Elec       q    Type
                         _______ _______ _______ _____ _____    ______ ____

>  <TORSDO>
F 7

$$$$
=
 OpenBabel11072414163D

 34 37  0  0  1  0  0  0  0  0999 V2000
  161.6970  210.0840  151.0140 N   0  0  0  0  0  0  0  0  0  0  0  0
  161.5260  208.1000  152.3450 C   0  0  0  0  0  0  0  0  0  0  0  0
  161.9560  209.3660  149.8900 C   0  0  0  0  0  0  0  0  0  0  0  0
  161.8150  207.3500  151.2000 C   0  0  0  0  0  3  0  0  0  0  0  0
  162.0230  207.9590  149.9640 C   0  0  0  0  0  0  0  0  0  0  0  0
  162.2490  210.1140  148.6360 C   0  0  0  0  0  1  0  0  0  0  0  0
  161.4840  209.5110  152.2300 C   0  0  0  0  0  0  0  0  0  0  0  0
  159.2290  211.1590  154.5220 C   0  0  0  0  0  3  0  0  0  0  0  0
  161.3060  210.4080  153.3880 C   0  0  0  0  0  0  0  0  0  0  0  0
  160.1790  211.3960  153.3960 C   0  0  0  0  0  2  0  0  0  0  0  0
  162.0870  211.0750  155.6730 C   0  0  0  0  0  3  0  0  0  0  0  0
  162.1730  210.3280  154.4030 C   0  0  0  0  0  3  0  0  0  0  0  0
  159.5870  211.2400  155.8030 C   0  0  0  0  0  3  0  0  0  0  0  0
  160.9630  211.4710  156.2840 C   0  0  0  0  0  3  0  0  0  0  0  0
  161.5860  206.1690  153.7200 O   0  0  0  0  0  0  0  0  0  0  0  0
  160.4140  207.9790  154.6100 N   0  0  0  0  0  2  0  0  0  0  0  0
  161.2060  207.3660  153.5890 C   0  0  0  0  0  0  0  0  0  0  0  0
  160.0780  207.3110  155.7970 C   0  0  0  0  0  0  0  0  0  0  0  0
  159.8000  206.7610  156.7760 N   0  0  0  0  0  0  0  0  0  0  0  0
  162.2920  207.1270  148.8660 O   0  0  0  0  0  0  0  0  0  0  0  0
  161.7730  204.9620  146.3240 C   0  0  0  0  0  2  0  0  0  0  0  0
  160.7820  206.8340  147.0270 C   0  0  0  0  0  2  0  0  0  0  0  0
  161.4280  206.2590  145.9200 O   0  0  0  0  0  0  0  0  0  0  0  0
  161.3500  206.2290  148.2930 C   0  0  1  0  0  3  0  0  0  0  0  0
  162.0620  204.9970  147.8070 C   0  0  1  0  0  3  0  0  0  0  0  0
  160.6780  202.7140  150.5980 C   0  0  0  0  0  2  0  0  0  0  0  0
  161.1700  203.8790  149.7770 C   0  0  0  0  0  3  0  0  0  0  0  0
  160.1580  201.5800  149.7230 C   0  0  0  0  0  2  0  0  0  0  0  0
  161.5810  203.7560  148.5030 C   0  0  0  0  0  0  0  0  0  0  0  0
  160.3250  202.5670  146.8590 O   0  0  0  0  0  1  0  0  0  0  0  0
  161.4070  202.4560  147.7370 C   0  0  2  0  0  3  0  0  0  0  0  0
  161.2100  201.2520  148.6700 C   0  0  2  0  0  3  0  0  0  0  0  0
  160.8300  200.1210  147.9450 O   0  0  0  0  0  0  0  0  0  0  0  0
  161.9300  199.8310  147.1360 C   0  0  0  0  0  1  0  0  0  0  0  0
  1  7  1  0  0  0  0
  2 17  1  0  0  0  0
  3  5  1  0  0  0  0
  3  1  2  0  0  0  0
  4  2  1  0  0  0  0
  5  4  2  0  0  0  0
  6  3  1  0  0  0  0
  7  2  2  0  0  0  0
  7  9  1  0  0  0  0
  8 13  2  0  0  0  0
  9 10  1  0  0  0  0
  9 12  2  0  0  0  0
 10  8  1  0  0  0  0
 11 14  2  0  0  0  0
 12 11  1  0  0  0  0
 13 14  1  0  0  0  0
 16 18  1  0  0  0  0
 17 15  2  0  0  0  0
 17 16  1  0  0  0  0
 18 19  3  0  0  0  0
 20  5  1  0  0  0  0
 21 25  1  0  0  0  0
 22 24  1  0  0  0  0
 23 21  1  0  0  0  0
 23 22  1  0  0  0  0
 24 20  1  6  0  0  0
 25 24  1  0  0  0  0
 25 29  1  1  0  0  0
 27 26  1  0  0  0  0
 28 26  1  0  0  0  0
 29 27  2  0  0  0  0
 31 30  1  6  0  0  0
 31 29  1  0  0  0  0
 31 32  1  0  0  0  0
 32 33  1  6  0  0  0
 32 28  1  0  0  0  0
 34 33  1  0  0  0  0
M  END
>  <MODEL>
6

>  <REMARK>
 VINA RESULT:      -6.9      2.840      8.853
  Name = 
  7 active torsions:
  status: ('A' for Active; 'I' for Inactive)
    1  A    between atoms: O_1  and  C_21
    2  A    between atoms: O_1  and  C_31
    3  A    between atoms: C_2  and  N_13
    4  A    between atoms: O_5  and  C_34
    5  A    between atoms: C_12  and  C_16
    6  A    between atoms: C_17  and  C_23
    7  A    between atoms: C_19  and  C_33
                            x       y       z     vdW  Elec       q    Type
                         _______ _______ _______ _____ _____    ______ ____

>  <TORSDO>
F 7

$$$$
=
 OpenBabel11072414163D

 34 37  0  0  1  0  0  0  0  0999 V2000
  159.3440  209.5440  156.1210 N   0  0  0  0  0  0  0  0  0  0  0  0
  159.3590  210.9630  154.1920 C   0  0  0  0  0  0  0  0  0  0  0  0
  160.1110  208.6100  155.5000 C   0  0  0  0  0  0  0  0  0  0  0  0
  160.1290  210.0000  153.5330 C   0  0  0  0  0  3  0  0  0  0  0  0
  160.5240  208.8230  154.1680 C   0  0  0  0  0  0  0  0  0  0  0  0
  160.4070  207.3480  156.2350 C   0  0  0  0  0  1  0  0  0  0  0  0
  158.9520  210.7020  155.5230 C   0  0  0  0  0  0  0  0  0  0  0  0
  158.2860  213.9820  156.8820 C   0  0  0  0  0  3  0  0  0  0  0  0
  158.0420  211.5870  156.2750 C   0  0  0  0  0  0  0  0  0  0  0  0
  158.6070  212.5730  157.2530 C   0  0  0  0  0  2  0  0  0  0  0  0
  155.6860  212.3420  156.6670 C   0  0  0  0  0  3  0  0  0  0  0  0
  156.7250  211.4760  156.0770 C   0  0  0  0  0  3  0  0  0  0  0  0
  157.0400  214.4480  156.8100 C   0  0  0  0  0  3  0  0  0  0  0  0
  155.8210  213.6350  156.9850 C   0  0  0  0  0  3  0  0  0  0  0  0
  159.3280  213.3300  154.0510 O   0  0  0  0  0  0  0  0  0  0  0  0
  158.4790  212.2190  152.1840 N   0  0  0  0  0  2  0  0  0  0  0  0
  159.0830  212.2300  153.4810 C   0  0  0  0  0  0  0  0  0  0  0  0
  158.1890  213.3990  151.4840 C   0  0  0  0  0  0  0  0  0  0  0  0
  157.9490  214.3720  150.9060 N   0  0  0  0  0  0  0  0  0  0  0  0
  161.3090  207.9200  153.4360 O   0  0  0  0  0  0  0  0  0  0  0  0
  162.7080  207.4370  150.3980 C   0  0  0  0  0  2  0  0  0  0  0  0
  161.0920  208.7510  151.1970 C   0  0  0  0  0  2  0  0  0  0  0  0
  162.3320  208.7800  150.5380 O   0  0  0  0  0  0  0  0  0  0  0  0
  161.0420  207.5330  152.0930 C   0  0  1  0  0  3  0  0  0  0  0  0
  162.1670  206.6750  151.5850 C   0  0  1  0  0  3  0  0  0  0  0  0
  160.8830  203.0520  151.9630 C   0  0  0  0  0  2  0  0  0  0  0  0
  161.3540  204.4640  152.2010 C   0  0  0  0  0  3  0  0  0  0  0  0
  160.3030  202.8730  150.5650 C   0  0  0  0  0  2  0  0  0  0  0  0
  161.7010  205.2990  151.2050 C   0  0  0  0  0  0  0  0  0  0  0  0
  160.3470  205.6140  149.2660 O   0  0  0  0  0  1  0  0  0  0  0  0
  161.4680  204.9340  149.7490 C   0  0  2  0  0  3  0  0  0  0  0  0
  161.2970  203.4210  149.5490 C   0  0  2  0  0  3  0  0  0  0  0  0
  160.8640  203.1400  148.2510 O   0  0  0  0  0  0  0  0  0  0  0  0
  160.8410  201.7460  148.1760 C   0  0  0  0  0  1  0  0  0  0  0  0
  2  7  2  0  0  0  0
  3  1  2  0  0  0  0
  3  6  1  0  0  0  0
  4  5  2  0  0  0  0
  4  2  1  0  0  0  0
  5  3  1  0  0  0  0
  7  1  1  0  0  0  0
  7  9  1  0  0  0  0
  8 10  1  0  0  0  0
  9 10  1  0  0  0  0
 11 14  2  0  0  0  0
 12  9  2  0  0  0  0
 12 11  1  0  0  0  0
 13  8  2  0  0  0  0
 13 14  1  0  0  0  0
 16 17  1  0  0  0  0
 17 15  2  0  0  0  0
 17  2  1  0  0  0  0
 18 16  1  0  0  0  0
 19 18  3  0  0  0  0
 20  5  1  0  0  0  0
 21 23  1  0  0  0  0
 21 25  1  0  0  0  0
 22 24  1  0  0  0  0
 23 22  1  0  0  0  0
 24 20  1  1  0  0  0
 25 29  1  6  0  0  0
 25 24  1  0  0  0  0
 26 27  1  0  0  0  0
 28 26  1  0  0  0  0
 29 27  2  0  0  0  0
 31 30  1  1  0  0  0
 31 29  1  0  0  0  0
 32 33  1  6  0  0  0
 32 31  1  0  0  0  0
 32 28  1  0  0  0  0
 34 33  1  0  0  0  0
M  END
>  <MODEL>
7

>  <REMARK>
 VINA RESULT:      -6.8      3.290      9.557
  Name = 
  7 active torsions:
  status: ('A' for Active; 'I' for Inactive)
    1  A    between atoms: O_1  and  C_21
    2  A    between atoms: O_1  and  C_31
    3  A    between atoms: C_2  and  N_13
    4  A    between atoms: O_5  and  C_34
    5  A    between atoms: C_12  and  C_16
    6  A    between atoms: C_17  and  C_23
    7  A    between atoms: C_19  and  C_33
                            x       y       z     vdW  Elec       q    Type
                         _______ _______ _______ _____ _____    ______ ____

>  <TORSDO>
F 7

$$$$
=
 OpenBabel11072414163D

 34 37  0  0  1  0  0  0  0  0999 V2000
  161.5440  207.9130  151.1380 N   0  0  0  0  0  0  0  0  0  0  0  0
  161.8920  209.6490  149.5240 C   0  0  0  0  0  0  0  0  0  0  0  0
  161.7280  206.9420  150.2050 C   0  0  0  0  0  0  0  0  0  0  0  0
  162.0620  208.6600  148.5510 C   0  0  0  0  0  3  0  0  0  0  0  0
  161.9940  207.3050  148.8680 C   0  0  0  0  0  0  0  0  0  0  0  0
  161.5510  205.5250  150.6290 C   0  0  0  0  0  1  0  0  0  0  0  0
  161.6120  209.2420  150.8520 C   0  0  0  0  0  0  0  0  0  0  0  0
  159.1170  211.1500  152.6380 C   0  0  0  0  0  3  0  0  0  0  0  0
  161.2980  210.1930  151.9360 C   0  0  0  0  0  0  0  0  0  0  0  0
  160.2770  211.2680  151.7080 C   0  0  0  0  0  2  0  0  0  0  0  0
  161.6910  210.8810  154.3130 C   0  0  0  0  0  3  0  0  0  0  0  0
  161.9480  210.0830  153.0980 C   0  0  0  0  0  3  0  0  0  0  0  0
  159.2340  211.2490  153.9610 C   0  0  0  0  0  3  0  0  0  0  0  0
  160.5100  211.3870  154.6900 C   0  0  0  0  0  3  0  0  0  0  0  0
  163.0500  211.7160  149.6160 O   0  0  0  0  0  0  0  0  0  0  0  0
  161.1750  211.6960  148.2290 N   0  0  0  0  0  2  0  0  0  0  0  0
  162.0930  211.0570  149.1210 C   0  0  0  0  0  0  0  0  0  0  0  0
  161.3230  213.0330  147.8340 C   0  0  0  0  0  0  0  0  0  0  0  0
  161.4450  214.1360  147.5080 N   0  0  0  0  0  0  0  0  0  0  0  0
  162.1920  206.3820  147.8300 O   0  0  0  0  0  0  0  0  0  0  0  0
  161.1820  204.8800  144.9760 C   0  0  0  0  0  2  0  0  0  0  0  0
  160.3460  206.4670  146.3030 C   0  0  0  0  0  2  0  0  0  0  0  0
  160.7590  206.2160  144.9840 O   0  0  0  0  0  0  0  0  0  0  0  0
  161.1570  205.6030  147.2430 C   0  0  1  0  0  3  0  0  0  0  0  0
  161.7620  204.5670  146.3360 C   0  0  1  0  0  3  0  0  0  0  0  0
  160.9770  201.5990  148.6800 C   0  0  0  0  0  2  0  0  0  0  0  0
  161.2890  202.9540  148.0980 C   0  0  0  0  0  3  0  0  0  0  0  0
  160.2930  200.6880  147.6670 C   0  0  0  0  0  2  0  0  0  0  0  0
  161.4350  203.1690  146.7790 C   0  0  0  0  0  0  0  0  0  0  0  0
  159.8760  202.3550  145.1670 O   0  0  0  0  0  1  0  0  0  0  0  0
  161.1130  202.0890  145.7600 C   0  0  2  0  0  3  0  0  0  0  0  0
  161.1110  200.6850  146.3820 C   0  0  2  0  0  3  0  0  0  0  0  0
  160.5960  199.7470  145.4840 O   0  0  0  0  0  0  0  0  0  0  0  0
  161.4690  198.6610  145.5620 C   0  0  0  0  0  1  0  0  0  0  0  0
  2  7  2  0  0  0  0
  3  6  1  0  0  0  0
  3  1  2  0  0  0  0
  4  5  2  0  0  0  0
  4  2  1  0  0  0  0
  5  3  1  0  0  0  0
  7  1  1  0  0  0  0
  7  9  1  0  0  0  0
  8 13  2  0  0  0  0
  9 12  2  0  0  0  0
 10  9  1  0  0  0  0
 10  8  1  0  0  0  0
 11 14  2  0  0  0  0
 12 11  1  0  0  0  0
 13 14  1  0  0  0  0
 16 17  1  0  0  0  0
 17  2  1  0  0  0  0
 17 15  2  0  0  0  0
 18 16  1  0  0  0  0
 19 18  3  0  0  0  0
 20  5  1  0  0  0  0
 21 23  1  0  0  0  0
 21 25  1  0  0  0  0
 22 24  1  0  0  0  0
 23 22  1  0  0  0  0
 24 20  1  6  0  0  0
 25 29  1  1  0  0  0
 25 24  1  0  0  0  0
 27 26  1  0  0  0  0
 28 26  1  0  0  0  0
 29 27  2  0  0  0  0
 31 30  1  1  0  0  0
 31 32  1  0  0  0  0
 31 29  1  0  0  0  0
 32 33  1  6  0  0  0
 32 28  1  0  0  0  0
 33 34  1  0  0  0  0
M  END
>  <MODEL>
8

>  <REMARK>
 VINA RESULT:      -6.5      2.911      9.729
  Name = 
  7 active torsions:
  status: ('A' for Active; 'I' for Inactive)
    1  A    between atoms: O_1  and  C_21
    2  A    between atoms: O_1  and  C_31
    3  A    between atoms: C_2  and  N_13
    4  A    between atoms: O_5  and  C_34
    5  A    between atoms: C_12  and  C_16
    6  A    between atoms: C_17  and  C_23
    7  A    between atoms: C_19  and  C_33
                            x       y       z     vdW  Elec       q    Type
                         _______ _______ _______ _____ _____    ______ ____

>  <TORSDO>
F 7

$$$$
=
 OpenBabel11072414163D

 34 37  0  0  1  0  0  0  0  0999 V2000
  161.3960  206.6290  153.3490 N   0  0  0  0  0  0  0  0  0  0  0  0
  161.2590  208.8110  152.3710 C   0  0  0  0  0  0  0  0  0  0  0  0
  161.6940  206.0590  152.1520 C   0  0  0  0  0  0  0  0  0  0  0  0
  161.5410  208.2340  151.1300 C   0  0  0  0  0  3  0  0  0  0  0  0
  161.7710  206.8660  150.9970 C   0  0  0  0  0  0  0  0  0  0  0  0
  161.8370  204.5760  152.1010 C   0  0  0  0  0  1  0  0  0  0  0  0
  161.1740  207.9630  153.5020 C   0  0  0  0  0  0  0  0  0  0  0  0
  162.1470  209.3020  156.7140 C   0  0  0  0  0  3  0  0  0  0  0  0
  160.7670  208.4400  154.8380 C   0  0  0  0  0  0  0  0  0  0  0  0
  161.5990  208.0910  156.0360 C   0  0  0  0  0  2  0  0  0  0  0  0
  159.1510  209.7990  156.1860 C   0  0  0  0  0  3  0  0  0  0  0  0
  159.6490  209.1630  154.9510 C   0  0  0  0  0  3  0  0  0  0  0  0
  161.3740  210.2400  157.2610 C   0  0  0  0  0  3  0  0  0  0  0  0
  159.9010  210.2690  157.1910 C   0  0  0  0  0  3  0  0  0  0  0  0
  162.0750  210.9600  152.9520 O   0  0  0  0  0  0  0  0  0  0  0  0
  159.9520  210.9390  151.9870 N   0  0  0  0  0  2  0  0  0  0  0  0
  161.1420  210.2840  152.4380 C   0  0  0  0  0  0  0  0  0  0  0  0
  159.7970  212.3320  152.0460 C   0  0  0  0  0  0  0  0  0  0  0  0
  159.6690  213.4810  152.0950 N   0  0  0  0  0  0  0  0  0  0  0  0
  162.0630  206.3760  149.7160 O   0  0  0  0  0  0  0  0  0  0  0  0
  161.4470  205.4990  146.5110 C   0  0  0  0  0  2  0  0  0  0  0  0
  160.4680  206.8510  147.9910 C   0  0  0  0  0  2  0  0  0  0  0  0
  161.0650  206.8310  146.7190 O   0  0  0  0  0  0  0  0  0  0  0  0
  161.1060  205.7810  148.8480 C   0  0  1  0  0  3  0  0  0  0  0  0
  161.8090  204.9020  147.8510 C   0  0  1  0  0  3  0  0  0  0  0  0
  160.3890  201.6530  149.3830 C   0  0  0  0  0  2  0  0  0  0  0  0
  160.8470  203.0670  149.1300 C   0  0  0  0  0  3  0  0  0  0  0  0
  160.0550  200.9220  148.0880 C   0  0  0  0  0  2  0  0  0  0  0  0
  161.3810  203.4670  147.9630 C   0  0  0  0  0  0  0  0  0  0  0  0
  160.3910  202.9480  145.8550 O   0  0  0  0  0  1  0  0  0  0  0  0
  161.3940  202.5570  146.7450 C   0  0  2  0  0  3  0  0  0  0  0  0
  161.2220  201.0790  147.1220 C   0  0  2  0  0  3  0  0  0  0  0  0
  161.0130  200.2990  145.9830 O   0  0  0  0  0  0  0  0  0  0  0  0
  161.6220  199.0760  146.2710 C   0  0  0  0  0  1  0  0  0  0  0  0
  1  7  1  0  0  0  0
  2 17  1  0  0  0  0
  2  7  2  0  0  0  0
  3  1  2  0  0  0  0
  4  2  1  0  0  0  0
  5  4  2  0  0  0  0
  5  3  1  0  0  0  0
  6  3  1  0  0  0  0
  7  9  1  0  0  0  0
  8 13  2  0  0  0  0
  9 12  2  0  0  0  0
  9 10  1  0  0  0  0
 10  8  1  0  0  0  0
 11 14  2  0  0  0  0
 12 11  1  0  0  0  0
 14 13  1  0  0  0  0
 16 18  1  0  0  0  0
 16 17  1  0  0  0  0
 17 15  2  0  0  0  0
 18 19  3  0  0  0  0
 20  5  1  0  0  0  0
 21 23  1  0  0  0  0
 21 25  1  0  0  0  0
 22 24  1  0  0  0  0
 23 22  1  0  0  0  0
 24 20  1  1  0  0  0
 25 29  1  6  0  0  0
 25 24  1  0  0  0  0
 27 26  1  0  0  0  0
 28 26  1  0  0  0  0
 29 27  2  0  0  0  0
 31 30  1  6  0  0  0
 31 32  1  0  0  0  0
 31 29  1  0  0  0  0
 32 33  1  6  0  0  0
 32 28  1  0  0  0  0
 33 34  1  0  0  0  0
M  END
>  <MODEL>
9

>  <REMARK>
 VINA RESULT:      -6.4      2.637      9.560
  Name = 
  7 active torsions:
  status: ('A' for Active; 'I' for Inactive)
    1  A    between atoms: O_1  and  C_21
    2  A    between atoms: O_1  and  C_31
    3  A    between atoms: C_2  and  N_13
    4  A    between atoms: O_5  and  C_34
    5  A    between atoms: C_12  and  C_16
    6  A    between atoms: C_17  and  C_23
    7  A    between atoms: C_19  and  C_33
                            x       y       z     vdW  Elec       q    Type
                         _______ _______ _______ _____ _____    ______ ____

>  <TORSDO>
F 7

$$$$
