=
 OpenBabel11072413583D

 29 33  0  0  1  0  0  0  0  0999 V2000
  160.9090  208.4840  153.4430 C   0  0  0  0  0  0  0  0  0  0  0  0
  160.0640  209.4070  153.2920 O   0  0  0  0  0  0  0  0  0  0  0  0
  161.4760  207.8110  152.2960 N   0  0  0  0  0  0  0  0  0  0  0  0
  162.1310  209.8010  148.6130 N   0  0  0  0  0  0  0  0  0  0  0  0
  161.6870  208.5030  151.0360 C   0  0  0  0  0  0  0  0  0  0  0  0
  161.6200  207.8050  149.8180 C   0  0  0  0  0  3  0  0  0  0  0  0
  161.9930  209.8730  150.9950 C   0  0  0  0  0  3  0  0  0  0  0  0
  161.8440  208.4730  148.6120 C   0  0  0  0  0  3  0  0  0  0  0  0
  162.2110  210.5080  149.7710 C   0  0  0  0  0  3  0  0  0  0  0  0
  161.2280  205.7310  153.3910 O   0  0  0  0  0  0  0  0  0  0  0  0
  162.0040  206.4500  152.4590 C   0  0  1  0  0  3  0  0  0  0  0  0
  160.9870  205.4550  152.0370 C   0  0  1  0  0  3  0  0  0  0  0  0
  161.6500  204.2170  151.6710 N   0  0  0  0  0  2  0  0  0  0  0  0
  160.6350  203.3680  151.0730 C   0  0  0  0  0  2  0  0  0  0  0  0
  161.7410  202.7470  147.8620 C   0  0  1  0  0  3  0  0  0  0  0  0
  160.5050  202.5250  148.7520 C   0  0  1  0  0  0  0  0  0  0  0  0
  160.7990  201.6660  147.5180 C   0  0  0  0  0  2  0  0  0  0  0  0
  161.2790  202.4310  150.0760 C   0  0  2  0  0  3  0  0  0  0  0  0
  160.3380  201.3550  149.7290 C   0  0  0  0  0  2  0  0  0  0  0  0
  161.0810  204.8770  144.6840 C   0  0  0  0  0  1  0  0  0  0  0  0
  161.5230  203.9370  146.9830 C   0  0  0  0  0  0  0  0  0  0  0  0
  161.5940  205.0970  147.4700 O   0  0  0  0  0  0  0  0  0  0  0  0
  161.2830  203.7540  145.5850 N   0  0  0  0  0  2  0  0  0  0  0  0
  161.3270  208.1100  154.8340 C   0  0  0  0  0  2  0  0  0  0  0  0
  161.7930  211.1220  156.7700 N   0  0  0  0  0  0  0  0  0  0  0  0
  161.2730  209.2660  155.7150 N   0  0  0  0  0  0  0  0  0  0  0  0
  160.6390  210.6920  157.2610 N   0  0  0  0  0  0  0  0  0  0  0  0
  160.3210  209.5530  156.6160 C   0  0  0  0  0  3  0  0  0  0  0  0
  162.1840  210.2470  155.8250 C   0  0  0  0  0  3  0  0  0  0  0  0
  1 24  1  0  0  0  0
  2  1  2  0  0  0  0
  3  1  1  0  0  0  0
  4  9  1  0  0  0  0
  5  3  1  0  0  0  0
  6  5  2  0  0  0  0
  7  5  1  0  0  0  0
  8  4  2  0  0  0  0
  8  6  1  0  0  0  0
  9  7  2  0  0  0  0
 11  3  1  6  0  0  0
 11 10  1  0  0  0  0
 12 13  1  1  0  0  0
 12 11  1  0  0  0  0
 12 10  1  0  0  0  0
 14 13  1  0  0  0  0
 15 21  1  6  0  0  0
 15 16  1  0  0  0  0
 16 17  1  1  0  0  0
 16 19  1  0  0  0  0
 16 18  1  0  0  0  0
 17 15  1  0  0  0  0
 18 14  1  1  0  0  0
 19 18  1  0  0  0  0
 20 23  1  0  0  0  0
 21 22  2  0  0  0  0
 23 21  1  0  0  0  0
 24 26  1  0  0  0  0
 25 27  1  0  0  0  0
 26 29  1  0  0  0  0
 26 28  1  0  0  0  0
 28 27  2  0  0  0  0
 29 25  2  0  0  0  0
M  END
>  <MODEL>
1

>  <REMARK>
 VINA RESULT:      -7.7      0.000      0.000
  Name = 
  8 active torsions:
  status: ('A' for Active; 'I' for Inactive)
    1  A    between atoms: C_2  and  C_5
    2  A    between atoms: C_2  and  N_10
    3  A    between atoms: C_4  and  C_6
    4  A    between atoms: N_9  and  C_18
    5  A    between atoms: N_9  and  C_23
    6  A    between atoms: C_15  and  N_20
    7  A    between atoms: C_17  and  C_18
    8  A    between atoms: N_20  and  C_21
                            x       y       z     vdW  Elec       q    Type
                         _______ _______ _______ _____ _____    ______ ____

>  <TORSDO>
F 8

$$$$
=
 OpenBabel11072413583D

 29 33  0  0  1  0  0  0  0  0999 V2000
  161.1440  206.6170  148.6430 C   0  0  0  0  0  0  0  0  0  0  0  0
  160.0890  205.9540  148.4500 O   0  0  0  0  0  0  0  0  0  0  0  0
  161.6000  206.8960  149.9860 N   0  0  0  0  0  0  0  0  0  0  0  0
  160.9670  204.1920  153.1850 N   0  0  0  0  0  0  0  0  0  0  0  0
  161.3670  205.9660  151.0770 C   0  0  0  0  0  0  0  0  0  0  0  0
  161.4050  206.4070  152.4110 C   0  0  0  0  0  3  0  0  0  0  0  0
  161.1310  204.6030  150.8390 C   0  0  0  0  0  3  0  0  0  0  0  0
  161.2000  205.5030  153.4550 C   0  0  0  0  0  3  0  0  0  0  0  0
  160.9300  203.7270  151.9080 C   0  0  0  0  0  3  0  0  0  0  0  0
  162.0010  209.1680  149.4710 O   0  0  0  0  0  0  0  0  0  0  0  0
  162.4620  208.0630  150.2150 C   0  0  1  0  0  3  0  0  0  0  0  0
  161.6800  209.1610  150.8370 C   0  0  1  0  0  3  0  0  0  0  0  0
  162.5800  210.0480  151.5500 N   0  0  0  0  0  2  0  0  0  0  0  0
  162.1560  210.0360  152.9380 C   0  0  0  0  0  2  0  0  0  0  0  0
  159.0410  211.4550  152.4840 C   0  0  1  0  0  3  0  0  0  0  0  0
  160.0890  211.2280  153.5890 C   0  0  1  0  0  0  0  0  0  0  0  0
  158.6080  211.4710  153.8930 C   0  0  0  0  0  2  0  0  0  0  0  0
  160.6490  209.9210  153.0070 C   0  0  2  0  0  3  0  0  0  0  0  0
  160.2150  209.9410  154.4130 C   0  0  0  0  0  2  0  0  0  0  0  0
  160.1530  214.4470  150.2730 C   0  0  0  0  0  1  0  0  0  0  0  0
  159.1620  212.8480  151.9530 C   0  0  0  0  0  0  0  0  0  0  0  0
  158.5660  213.7940  152.5370 O   0  0  0  0  0  0  0  0  0  0  0  0
  159.9900  213.1090  150.8170 N   0  0  0  0  0  2  0  0  0  0  0  0
  161.9230  207.0950  147.4540 C   0  0  0  0  0  2  0  0  0  0  0  0
  161.5170  204.8360  144.6660 N   0  0  0  0  0  0  0  0  0  0  0  0
  161.9780  206.0650  146.4280 N   0  0  0  0  0  0  0  0  0  0  0  0
  162.5460  204.2760  145.2870 N   0  0  0  0  0  0  0  0  0  0  0  0
  162.8280  205.0270  146.3680 C   0  0  0  0  0  3  0  0  0  0  0  0
  161.1660  205.9300  145.3670 C   0  0  0  0  0  3  0  0  0  0  0  0
  1  3  1  0  0  0  0
  2  1  2  0  0  0  0
  3  5  1  0  0  0  0
  4  8  1  0  0  0  0
  5  6  1  0  0  0  0
  6  8  2  0  0  0  0
  7  5  2  0  0  0  0
  7  9  1  0  0  0  0
  9  4  2  0  0  0  0
 10 11  1  0  0  0  0
 10 12  1  0  0  0  0
 11  3  1  6  0  0  0
 11 12  1  0  0  0  0
 12 13  1  1  0  0  0
 13 14  1  0  0  0  0
 15 21  1  1  0  0  0
 15 16  1  0  0  0  0
 15 17  1  0  0  0  0
 16 17  1  6  0  0  0
 16 19  1  0  0  0  0
 18 14  1  1  0  0  0
 18 16  1  0  0  0  0
 18 19  1  0  0  0  0
 20 23  1  0  0  0  0
 21 22  2  0  0  0  0
 23 21  1  0  0  0  0
 24  1  1  0  0  0  0
 25 27  1  0  0  0  0
 25 29  2  0  0  0  0
 26 24  1  0  0  0  0
 27 28  2  0  0  0  0
 28 26  1  0  0  0  0
 29 26  1  0  0  0  0
M  END
>  <MODEL>
2

>  <REMARK>
 VINA RESULT:      -7.1      2.862      8.593
  Name = 
  8 active torsions:
  status: ('A' for Active; 'I' for Inactive)
    1  A    between atoms: C_2  and  C_5
    2  A    between atoms: C_2  and  N_10
    3  A    between atoms: C_4  and  C_6
    4  A    between atoms: N_9  and  C_18
    5  A    between atoms: N_9  and  C_23
    6  A    between atoms: C_15  and  N_20
    7  A    between atoms: C_17  and  C_18
    8  A    between atoms: N_20  and  C_21
                            x       y       z     vdW  Elec       q    Type
                         _______ _______ _______ _____ _____    ______ ____

>  <TORSDO>
F 8

$$$$
=
 OpenBabel11072413583D

 29 33  0  0  1  0  0  0  0  0999 V2000
  162.1710  209.7240  150.0440 C   0  0  0  0  0  0  0  0  0  0  0  0
  162.9880  210.3560  150.7670 O   0  0  0  0  0  0  0  0  0  0  0  0
  161.4720  208.5700  150.5620 N   0  0  0  0  0  0  0  0  0  0  0  0
  160.4440  208.3030  154.6630 N   0  0  0  0  0  0  0  0  0  0  0  0
  161.1080  208.4660  151.9640 C   0  0  0  0  0  0  0  0  0  0  0  0
  160.5260  209.5560  152.6330 C   0  0  0  0  0  3  0  0  0  0  0  0
  161.3530  207.2950  152.6990 C   0  0  0  0  0  3  0  0  0  0  0  0
  160.1970  209.4550  153.9870 C   0  0  0  0  0  3  0  0  0  0  0  0
  161.0110  207.2300  154.0520 C   0  0  0  0  0  3  0  0  0  0  0  0
  162.0460  206.9640  148.9250 O   0  0  0  0  0  0  0  0  0  0  0  0
  160.9740  207.5600  149.6190 C   0  0  1  0  0  3  0  0  0  0  0  0
  161.4990  206.2200  149.9810 C   0  0  1  0  0  3  0  0  0  0  0  0
  160.6190  205.1980  149.4480 N   0  0  0  0  0  2  0  0  0  0  0  0
  160.5560  204.1460  150.4470 C   0  0  0  0  0  2  0  0  0  0  0  0
  161.6920  202.1360  147.8790 C   0  0  1  0  0  3  0  0  0  0  0  0
  160.5620  202.1970  148.9240 C   0  0  1  0  0  0  0  0  0  0  0  0
  161.0130  200.8870  148.2710 C   0  0  0  0  0  2  0  0  0  0  0  0
  161.3720  202.9590  149.9850 C   0  0  2  0  0  3  0  0  0  0  0  0
  160.6930  201.7120  150.3720 C   0  0  0  0  0  2  0  0  0  0  0  0
  160.9270  204.4980  144.8930 C   0  0  0  0  0  1  0  0  0  0  0  0
  161.1850  202.6200  146.5580 C   0  0  0  0  0  0  0  0  0  0  0  0
  160.5200  201.8430  145.8210 O   0  0  0  0  0  0  0  0  0  0  0  0
  161.4130  203.9740  146.1600 N   0  0  0  0  0  2  0  0  0  0  0  0
  161.9260  210.2050  148.6450 C   0  0  0  0  0  2  0  0  0  0  0  0
  161.6440  213.8030  148.7490 N   0  0  0  0  0  0  0  0  0  0  0  0
  162.0520  211.6520  148.5690 N   0  0  0  0  0  0  0  0  0  0  0  0
  162.7840  213.6660  148.0880 N   0  0  0  0  0  0  0  0  0  0  0  0
  163.0340  212.3480  147.9750 C   0  0  0  0  0  3  0  0  0  0  0  0
  161.1920  212.5690  149.0410 C   0  0  0  0  0  3  0  0  0  0  0  0
  1  3  1  0  0  0  0
  1  2  2  0  0  0  0
  3  5  1  0  0  0  0
  5  6  2  0  0  0  0
  5  7  1  0  0  0  0
  6  8  1  0  0  0  0
  7  9  2  0  0  0  0
  8  4  2  0  0  0  0
  9  4  1  0  0  0  0
 10 11  1  0  0  0  0
 10 12  1  0  0  0  0
 11 12  1  0  0  0  0
 11  3  1  1  0  0  0
 12 13  1  6  0  0  0
 13 14  1  0  0  0  0
 15 21  1  6  0  0  0
 15 17  1  0  0  0  0
 15 16  1  0  0  0  0
 16 17  1  1  0  0  0
 16 18  1  0  0  0  0
 16 19  1  0  0  0  0
 18 19  1  0  0  0  0
 18 14  1  1  0  0  0
 20 23  1  0  0  0  0
 22 21  2  0  0  0  0
 23 21  1  0  0  0  0
 24  1  1  0  0  0  0
 25 29  2  0  0  0  0
 26 24  1  0  0  0  0
 26 29  1  0  0  0  0
 27 25  1  0  0  0  0
 28 27  2  0  0  0  0
 28 26  1  0  0  0  0
M  END
>  <MODEL>
3

>  <REMARK>
 VINA RESULT:      -7.0      2.057      4.695
  Name = 
  8 active torsions:
  status: ('A' for Active; 'I' for Inactive)
    1  A    between atoms: C_2  and  C_5
    2  A    between atoms: C_2  and  N_10
    3  A    between atoms: C_4  and  C_6
    4  A    between atoms: N_9  and  C_18
    5  A    between atoms: N_9  and  C_23
    6  A    between atoms: C_15  and  N_20
    7  A    between atoms: C_17  and  C_18
    8  A    between atoms: N_20  and  C_21
                            x       y       z     vdW  Elec       q    Type
                         _______ _______ _______ _____ _____    ______ ____

>  <TORSDO>
F 8

$$$$
=
 OpenBabel11072413583D

 29 33  0  0  1  0  0  0  0  0999 V2000
  160.0540  211.5510  154.2350 C   0  0  0  0  0  0  0  0  0  0  0  0
  160.4580  212.1800  155.2490 O   0  0  0  0  0  0  0  0  0  0  0  0
  160.4320  210.1700  154.0290 N   0  0  0  0  0  0  0  0  0  0  0  0
  161.1130  207.5180  157.2610 N   0  0  0  0  0  0  0  0  0  0  0  0
  160.6510  209.2670  155.1450 C   0  0  0  0  0  0  0  0  0  0  0  0
  161.7840  209.4060  155.9640 C   0  0  0  0  0  3  0  0  0  0  0  0
  159.7640  208.2130  155.4180 C   0  0  0  0  0  3  0  0  0  0  0  0
  161.9970  208.5210  157.0230 C   0  0  0  0  0  3  0  0  0  0  0  0
  160.0100  207.3470  156.4850 C   0  0  0  0  0  3  0  0  0  0  0  0
  161.5180  210.1440  151.9290 O   0  0  0  0  0  0  0  0  0  0  0  0
  160.4300  209.6300  152.6630 C   0  0  1  0  0  3  0  0  0  0  0  0
  161.6630  208.8400  152.4250 C   0  0  1  0  0  3  0  0  0  0  0  0
  161.4250  207.8870  151.3560 N   0  0  0  0  0  2  0  0  0  0  0  0
  161.1170  206.6210  151.9950 C   0  0  0  0  0  2  0  0  0  0  0  0
  161.7180  205.1340  148.9370 C   0  0  1  0  0  3  0  0  0  0  0  0
  160.7150  205.0770  150.1050 C   0  0  1  0  0  0  0  0  0  0  0  0
  160.9230  203.9070  149.1380 C   0  0  0  0  0  2  0  0  0  0  0  0
  161.7200  205.4880  151.1920 C   0  0  2  0  0  3  0  0  0  0  0  0
  160.9250  204.2660  151.3890 C   0  0  0  0  0  2  0  0  0  0  0  0
  160.4120  206.1220  145.4170 C   0  0  0  0  0  1  0  0  0  0  0  0
  161.1490  205.9540  147.8230 C   0  0  0  0  0  0  0  0  0  0  0  0
  160.8930  207.1740  148.0130 O   0  0  0  0  0  0  0  0  0  0  0  0
  160.9460  205.3640  146.5370 N   0  0  0  0  0  2  0  0  0  0  0  0
  159.1610  212.2550  153.2570 C   0  0  0  0  0  2  0  0  0  0  0  0
  155.8070  213.1080  154.2900 N   0  0  0  0  0  0  0  0  0  0  0  0
  157.8060  212.3520  153.7770 N   0  0  0  0  0  0  0  0  0  0  0  0
  155.9330  211.9060  154.8350 N   0  0  0  0  0  0  0  0  0  0  0  0
  157.1580  211.4420  154.5230 C   0  0  0  0  0  3  0  0  0  0  0  0
  156.9560  213.3830  153.6450 C   0  0  0  0  0  3  0  0  0  0  0  0
  1  2  2  0  0  0  0
  3  1  1  0  0  0  0
  3  5  1  0  0  0  0
  5  7  2  0  0  0  0
  5  6  1  0  0  0  0
  6  8  2  0  0  0  0
  7  9  1  0  0  0  0
  8  4  1  0  0  0  0
  9  4  2  0  0  0  0
 10 12  1  0  0  0  0
 10 11  1  0  0  0  0
 11  3  1  1  0  0  0
 12 13  1  6  0  0  0
 12 11  1  0  0  0  0
 13 14  1  0  0  0  0
 15 21  1  6  0  0  0
 15 17  1  0  0  0  0
 15 16  1  0  0  0  0
 16 17  1  1  0  0  0
 16 18  1  0  0  0  0
 16 19  1  0  0  0  0
 18 19  1  0  0  0  0
 18 14  1  1  0  0  0
 20 23  1  0  0  0  0
 21 22  2  0  0  0  0
 23 21  1  0  0  0  0
 24 26  1  0  0  0  0
 24  1  1  0  0  0  0
 25 27  1  0  0  0  0
 26 28  1  0  0  0  0
 28 27  2  0  0  0  0
 29 26  1  0  0  0  0
 29 25  2  0  0  0  0
M  END
>  <MODEL>
4

>  <REMARK>
 VINA RESULT:      -7.0      2.910      4.727
  Name = 
  8 active torsions:
  status: ('A' for Active; 'I' for Inactive)
    1  A    between atoms: C_2  and  C_5
    2  A    between atoms: C_2  and  N_10
    3  A    between atoms: C_4  and  C_6
    4  A    between atoms: N_9  and  C_18
    5  A    between atoms: N_9  and  C_23
    6  A    between atoms: C_15  and  N_20
    7  A    between atoms: C_17  and  C_18
    8  A    between atoms: N_20  and  C_21
                            x       y       z     vdW  Elec       q    Type
                         _______ _______ _______ _____ _____    ______ ____

>  <TORSDO>
F 8

$$$$
=
 OpenBabel11072413583D

 29 33  0  0  1  0  0  0  0  0999 V2000
  162.0640  209.8490  149.7850 C   0  0  0  0  0  0  0  0  0  0  0  0
  162.3220  210.6580  150.7160 O   0  0  0  0  0  0  0  0  0  0  0  0
  162.1160  208.4220  150.0150 N   0  0  0  0  0  0  0  0  0  0  0  0
  161.1580  206.7870  153.8040 N   0  0  0  0  0  0  0  0  0  0  0  0
  161.7810  207.8480  151.3070 C   0  0  0  0  0  0  0  0  0  0  0  0
  160.8250  208.4600  152.1350 C   0  0  0  0  0  3  0  0  0  0  0  0
  162.4190  206.6890  151.7800 C   0  0  0  0  0  3  0  0  0  0  0  0
  160.5240  207.9120  153.3830 C   0  0  0  0  0  3  0  0  0  0  0  0
  162.0920  206.1700  153.0340 C   0  0  0  0  0  3  0  0  0  0  0  0
  161.8800  206.2290  149.1650 O   0  0  0  0  0  0  0  0  0  0  0  0
  162.3480  207.5270  148.8750 C   0  0  1  0  0  3  0  0  0  0  0  0
  161.0560  207.0210  148.3510 C   0  0  1  0  0  3  0  0  0  0  0  0
  161.2210  206.6240  146.9650 N   0  0  0  0  0  2  0  0  0  0  0  0
  161.9190  205.3510  146.9820 C   0  0  0  0  0  2  0  0  0  0  0  0
  160.3520  202.4950  148.1280 C   0  0  1  0  0  3  0  0  0  0  0  0
  161.5570  202.9210  147.2690 C   0  0  1  0  0  0  0  0  0  0  0  0
  160.9000  201.5430  147.1440 C   0  0  0  0  0  2  0  0  0  0  0  0
  160.9310  204.2270  146.7580 C   0  0  2  0  0  3  0  0  0  0  0  0
  161.4780  203.2750  145.7790 C   0  0  0  0  0  2  0  0  0  0  0  0
  161.3030  202.8810  151.8730 C   0  0  0  0  0  1  0  0  0  0  0  0
  160.8130  202.1510  149.5080 C   0  0  0  0  0  0  0  0  0  0  0  0
  161.2090  200.9810  149.7620 O   0  0  0  0  0  0  0  0  0  0  0  0
  160.8480  203.1610  150.5200 N   0  0  0  0  0  2  0  0  0  0  0  0
  161.6850  210.3940  148.4400 C   0  0  0  0  0  2  0  0  0  0  0  0
  161.7390  214.0050  148.4230 N   0  0  0  0  0  0  0  0  0  0  0  0
  161.9640  211.8200  148.3670 N   0  0  0  0  0  0  0  0  0  0  0  0
  162.9710  213.7400  148.0140 N   0  0  0  0  0  0  0  0  0  0  0  0
  163.1100  212.4010  147.9770 C   0  0  0  0  0  3  0  0  0  0  0  0
  161.1190  212.8290  148.6360 C   0  0  0  0  0  3  0  0  0  0  0  0
  1  3  1  0  0  0  0
  1  2  2  0  0  0  0
  3  5  1  0  0  0  0
  5  7  2  0  0  0  0
  5  6  1  0  0  0  0
  6  8  2  0  0  0  0
  7  9  1  0  0  0  0
  8  4  1  0  0  0  0
  9  4  2  0  0  0  0
 11 10  1  0  0  0  0
 11  3  1  1  0  0  0
 12 13  1  6  0  0  0
 12 11  1  0  0  0  0
 12 10  1  0  0  0  0
 13 14  1  0  0  0  0
 15 21  1  1  0  0  0
 16 19  1  1  0  0  0
 16 15  1  0  0  0  0
 17 16  1  0  0  0  0
 17 15  1  0  0  0  0
 18 14  1  1  0  0  0
 18 16  1  0  0  0  0
 19 18  1  0  0  0  0
 21 22  2  0  0  0  0
 21 23  1  0  0  0  0
 23 20  1  0  0  0  0
 24  1  1  0  0  0  0
 25 29  2  0  0  0  0
 26 24  1  0  0  0  0
 26 29  1  0  0  0  0
 27 25  1  0  0  0  0
 28 27  2  0  0  0  0
 28 26  1  0  0  0  0
M  END
>  <MODEL>
5

>  <REMARK>
 VINA RESULT:      -6.9      2.414      5.360
  Name = 
  8 active torsions:
  status: ('A' for Active; 'I' for Inactive)
    1  A    between atoms: C_2  and  C_5
    2  A    between atoms: C_2  and  N_10
    3  A    between atoms: C_4  and  C_6
    4  A    between atoms: N_9  and  C_18
    5  A    between atoms: N_9  and  C_23
    6  A    between atoms: C_15  and  N_20
    7  A    between atoms: C_17  and  C_18
    8  A    between atoms: N_20  and  C_21
                            x       y       z     vdW  Elec       q    Type
                         _______ _______ _______ _____ _____    ______ ____

>  <TORSDO>
F 8

$$$$
=
 OpenBabel11072413583D

 29 33  0  0  1  0  0  0  0  0999 V2000
  159.7920  211.8380  154.1760 C   0  0  0  0  0  0  0  0  0  0  0  0
  160.2660  212.5580  155.0960 O   0  0  0  0  0  0  0  0  0  0  0  0
  160.2470  210.4770  154.0000 N   0  0  0  0  0  0  0  0  0  0  0  0
  161.5120  208.0870  157.2610 N   0  0  0  0  0  0  0  0  0  0  0  0
  160.6680  209.6640  155.1280 C   0  0  0  0  0  0  0  0  0  0  0  0
  161.9180  209.8760  155.7340 C   0  0  0  0  0  3  0  0  0  0  0  0
  159.8610  208.6260  155.6230 C   0  0  0  0  0  3  0  0  0  0  0  0
  162.3230  209.0770  156.8050 C   0  0  0  0  0  3  0  0  0  0  0  0
  160.3000  207.8470  156.6950 C   0  0  0  0  0  3  0  0  0  0  0  0
  161.1290  210.3260  151.8120 O   0  0  0  0  0  0  0  0  0  0  0  0
  160.1220  209.8520  152.6770 C   0  0  1  0  0  3  0  0  0  0  0  0
  161.3370  209.0560  152.3710 C   0  0  1  0  0  3  0  0  0  0  0  0
  161.0110  208.0370  151.3910 N   0  0  0  0  0  2  0  0  0  0  0  0
  161.9230  208.2290  150.2790 C   0  0  0  0  0  2  0  0  0  0  0  0
  160.8240  205.4990  148.4730 C   0  0  1  0  0  3  0  0  0  0  0  0
  162.0740  206.3820  148.6400 C   0  0  1  0  0  0  0  0  0  0  0  0
  161.8070  205.5600  147.3750 C   0  0  0  0  0  2  0  0  0  0  0  0
  161.3110  207.6620  149.0170 C   0  0  2  0  0  3  0  0  0  0  0  0
  162.2920  207.7190  147.9220 C   0  0  0  0  0  2  0  0  0  0  0  0
  161.1510  203.0870  151.4980 C   0  0  0  0  0  1  0  0  0  0  0  0
  160.9890  204.2370  149.2590 C   0  0  0  0  0  0  0  0  0  0  0  0
  161.1810  203.1460  148.6580 O   0  0  0  0  0  0  0  0  0  0  0  0
  160.9790  204.2810  150.6880 N   0  0  0  0  0  2  0  0  0  0  0  0
  158.7370  212.4150  153.2800 C   0  0  0  0  0  2  0  0  0  0  0  0
  155.7570  212.4190  155.3210 N   0  0  0  0  0  0  0  0  0  0  0  0
  157.5140  212.6720  154.0260 N   0  0  0  0  0  0  0  0  0  0  0  0
  155.7040  213.6390  154.8070 N   0  0  0  0  0  0  0  0  0  0  0  0
  156.7790  213.7950  154.0120 C   0  0  0  0  0  3  0  0  0  0  0  0
  156.8650  211.8230  154.8390 C   0  0  0  0  0  3  0  0  0  0  0  0
  1  2  2  0  0  0  0
  3  1  1  0  0  0  0
  3  5  1  0  0  0  0
  5  7  2  0  0  0  0
  5  6  1  0  0  0  0
  6  8  2  0  0  0  0
  7  9  1  0  0  0  0
  8  4  1  0  0  0  0
  9  4  2  0  0  0  0
 10 12  1  0  0  0  0
 10 11  1  0  0  0  0
 11  3  1  1  0  0  0
 12 13  1  6  0  0  0
 12 11  1  0  0  0  0
 14 13  1  0  0  0  0
 15 16  1  0  0  0  0
 15 21  1  1  0  0  0
 16 17  1  6  0  0  0
 16 18  1  0  0  0  0
 17 15  1  0  0  0  0
 18 14  1  1  0  0  0
 19 16  1  0  0  0  0
 19 18  1  0  0  0  0
 21 23  1  0  0  0  0
 22 21  2  0  0  0  0
 23 20  1  0  0  0  0
 24 26  1  0  0  0  0
 24  1  1  0  0  0  0
 26 29  1  0  0  0  0
 27 25  1  0  0  0  0
 28 26  1  0  0  0  0
 28 27  2  0  0  0  0
 29 25  2  0  0  0  0
M  END
>  <MODEL>
6

>  <REMARK>
 VINA RESULT:      -6.8      2.935      5.354
  Name = 
  8 active torsions:
  status: ('A' for Active; 'I' for Inactive)
    1  A    between atoms: C_2  and  C_5
    2  A    between atoms: C_2  and  N_10
    3  A    between atoms: C_4  and  C_6
    4  A    between atoms: N_9  and  C_18
    5  A    between atoms: N_9  and  C_23
    6  A    between atoms: C_15  and  N_20
    7  A    between atoms: C_17  and  C_18
    8  A    between atoms: N_20  and  C_21
                            x       y       z     vdW  Elec       q    Type
                         _______ _______ _______ _____ _____    ______ ____

>  <TORSDO>
F 8

$$$$
=
 OpenBabel11072413583D

 29 33  0  0  1  0  0  0  0  0999 V2000
  159.9310  211.8180  154.3080 C   0  0  0  0  0  0  0  0  0  0  0  0
  160.2430  212.4300  155.3650 O   0  0  0  0  0  0  0  0  0  0  0  0
  160.4200  210.4810  154.0610 N   0  0  0  0  0  0  0  0  0  0  0  0
  161.1630  207.7370  157.2020 N   0  0  0  0  0  0  0  0  0  0  0  0
  160.6620  209.5460  155.1470 C   0  0  0  0  0  0  0  0  0  0  0  0
  161.8480  209.6140  155.8960 C   0  0  0  0  0  3  0  0  0  0  0  0
  159.7410  208.5320  155.4580 C   0  0  0  0  0  3  0  0  0  0  0  0
  162.0810  208.6990  156.9260 C   0  0  0  0  0  3  0  0  0  0  0  0
  160.0080  207.6350  156.4940 C   0  0  0  0  0  3  0  0  0  0  0  0
  161.3430  210.8560  151.9180 O   0  0  0  0  0  0  0  0  0  0  0  0
  160.5150  210.0040  152.6750 C   0  0  1  0  0  3  0  0  0  0  0  0
  161.9200  209.6530  152.3510 C   0  0  1  0  0  3  0  0  0  0  0  0
  161.9380  208.7030  151.2540 N   0  0  0  0  0  2  0  0  0  0  0  0
  161.0160  207.6410  151.6150 C   0  0  0  0  0  2  0  0  0  0  0  0
  161.7830  204.3000  151.1970 C   0  0  1  0  0  3  0  0  0  0  0  0
  160.8510  205.2070  152.0220 C   0  0  1  0  0  0  0  0  0  0  0  0
  161.2440  203.7970  152.4750 C   0  0  0  0  0  2  0  0  0  0  0  0
  161.7960  206.4190  152.0480 C   0  0  2  0  0  3  0  0  0  0  0  0
  161.2570  205.9140  153.3210 C   0  0  0  0  0  2  0  0  0  0  0  0
  159.9500  201.7200  148.9490 C   0  0  0  0  0  1  0  0  0  0  0  0
  161.0300  203.7200  150.0430 C   0  0  0  0  0  0  0  0  0  0  0  0
  160.7560  204.4430  149.0470 O   0  0  0  0  0  0  0  0  0  0  0  0
  160.6680  202.3370  150.0520 N   0  0  0  0  0  2  0  0  0  0  0  0
  159.0270  212.4980  153.3220 C   0  0  0  0  0  2  0  0  0  0  0  0
  155.5850  213.1330  154.2080 N   0  0  0  0  0  0  0  0  0  0  0  0
  157.6580  212.5220  153.8120 N   0  0  0  0  0  0  0  0  0  0  0  0
  155.8150  212.0270  154.8990 N   0  0  0  0  0  0  0  0  0  0  0  0
  157.0860  211.6520  154.6590 C   0  0  0  0  0  3  0  0  0  0  0  0
  156.7150  213.4410  153.5440 C   0  0  0  0  0  3  0  0  0  0  0  0
  1  2  2  0  0  0  0
  3  1  1  0  0  0  0
  3  5  1  0  0  0  0
  5  7  2  0  0  0  0
  5  6  1  0  0  0  0
  6  8  2  0  0  0  0
  7  9  1  0  0  0  0
  8  4  1  0  0  0  0
  9  4  2  0  0  0  0
 10 12  1  0  0  0  0
 10 11  1  0  0  0  0
 11  3  1  1  0  0  0
 12 13  1  6  0  0  0
 12 11  1  0  0  0  0
 13 14  1  0  0  0  0
 15 21  1  6  0  0  0
 15 16  1  0  0  0  0
 15 17  1  0  0  0  0
 16 18  1  0  0  0  0
 16 17  1  1  0  0  0
 16 19  1  0  0  0  0
 18 14  1  6  0  0  0
 18 19  1  0  0  0  0
 20 23  1  0  0  0  0
 21 23  1  0  0  0  0
 22 21  2  0  0  0  0
 24 26  1  0  0  0  0
 24  1  1  0  0  0  0
 25 27  1  0  0  0  0
 26 28  1  0  0  0  0
 28 27  2  0  0  0  0
 29 26  1  0  0  0  0
 29 25  2  0  0  0  0
M  END
>  <MODEL>
7

>  <REMARK>
 VINA RESULT:      -6.7      2.942      5.284
  Name = 
  8 active torsions:
  status: ('A' for Active; 'I' for Inactive)
    1  A    between atoms: C_2  and  C_5
    2  A    between atoms: C_2  and  N_10
    3  A    between atoms: C_4  and  C_6
    4  A    between atoms: N_9  and  C_18
    5  A    between atoms: N_9  and  C_23
    6  A    between atoms: C_15  and  N_20
    7  A    between atoms: C_17  and  C_18
    8  A    between atoms: N_20  and  C_21
                            x       y       z     vdW  Elec       q    Type
                         _______ _______ _______ _____ _____    ______ ____

>  <TORSDO>
F 8

$$$$
=
 OpenBabel11072413583D

 29 33  0  0  1  0  0  0  0  0999 V2000
  162.1050  208.0380  149.0710 C   0  0  0  0  0  0  0  0  0  0  0  0
  162.3710  209.0120  148.3160 O   0  0  0  0  0  0  0  0  0  0  0  0
  161.3560  206.9060  148.5730 N   0  0  0  0  0  0  0  0  0  0  0  0
  161.6220  205.6130  144.5470 N   0  0  0  0  0  0  0  0  0  0  0  0
  161.4590  206.4750  147.1890 C   0  0  0  0  0  0  0  0  0  0  0  0
  160.3550  206.5770  146.3260 C   0  0  0  0  0  3  0  0  0  0  0  0
  162.6440  205.9170  146.6830 C   0  0  0  0  0  3  0  0  0  0  0  0
  160.4560  206.1420  145.0030 C   0  0  0  0  0  3  0  0  0  0  0  0
  162.7080  205.4920  145.3540 C   0  0  0  0  0  3  0  0  0  0  0  0
  160.3910  204.7890  148.9910 O   0  0  0  0  0  0  0  0  0  0  0  0
  160.6060  206.0760  149.5240 C   0  0  1  0  0  3  0  0  0  0  0  0
  161.4230  204.9070  149.9350 C   0  0  1  0  0  3  0  0  0  0  0  0
  160.9580  204.4230  151.2220 N   0  0  0  0  0  2  0  0  0  0  0  0
  160.2840  203.1630  150.9680 C   0  0  0  0  0  2  0  0  0  0  0  0
  161.6340  201.4910  148.2650 C   0  0  1  0  0  3  0  0  0  0  0  0
  160.5620  201.3080  149.3560 C   0  0  1  0  0  0  0  0  0  0  0  0
  161.2070  200.1260  148.6250 C   0  0  0  0  0  2  0  0  0  0  0  0
  161.2740  202.1600  150.4180 C   0  0  2  0  0  3  0  0  0  0  0  0
  160.8470  200.7970  150.7740 C   0  0  0  0  0  2  0  0  0  0  0  0
  159.7280  201.3290  144.8860 C   0  0  0  0  0  1  0  0  0  0  0  0
  160.9850  201.9270  146.9900 C   0  0  0  0  0  0  0  0  0  0  0  0
  161.0330  203.1390  146.6460 O   0  0  0  0  0  0  0  0  0  0  0  0
  160.3580  200.9600  146.1430 N   0  0  0  0  0  2  0  0  0  0  0  0
  162.5950  208.0690  150.4880 C   0  0  0  0  0  2  0  0  0  0  0  0
  160.9430  210.7670  152.2300 N   0  0  0  0  0  0  0  0  0  0  0  0
  161.7780  208.9620  151.2950 N   0  0  0  0  0  0  0  0  0  0  0  0
  160.3200  209.7200  152.7520 N   0  0  0  0  0  0  0  0  0  0  0  0
  160.8320  208.6130  152.1810 C   0  0  0  0  0  3  0  0  0  0  0  0
  161.8410  210.3030  151.3390 C   0  0  0  0  0  3  0  0  0  0  0  0
  1 24  1  0  0  0  0
  2  1  2  0  0  0  0
  3  1  1  0  0  0  0
  4  8  2  0  0  0  0
  4  9  1  0  0  0  0
  5  3  1  0  0  0  0
  6  5  2  0  0  0  0
  7  5  1  0  0  0  0
  8  6  1  0  0  0  0
  9  7  2  0  0  0  0
 10 11  1  0  0  0  0
 10 12  1  0  0  0  0
 11  3  1  6  0  0  0
 11 12  1  0  0  0  0
 12 13  1  1  0  0  0
 14 13  1  0  0  0  0
 15 21  1  6  0  0  0
 15 17  1  0  0  0  0
 15 16  1  0  0  0  0
 16 17  1  1  0  0  0
 16 18  1  0  0  0  0
 16 19  1  0  0  0  0
 18 19  1  0  0  0  0
 18 14  1  1  0  0  0
 20 23  1  0  0  0  0
 22 21  2  0  0  0  0
 23 21  1  0  0  0  0
 24 26  1  0  0  0  0
 25 27  1  0  0  0  0
 26 29  1  0  0  0  0
 26 28  1  0  0  0  0
 28 27  2  0  0  0  0
 29 25  2  0  0  0  0
M  END
>  <MODEL>
8

>  <REMARK>
 VINA RESULT:      -6.7      2.611      3.885
  Name = 
  8 active torsions:
  status: ('A' for Active; 'I' for Inactive)
    1  A    between atoms: C_2  and  C_5
    2  A    between atoms: C_2  and  N_10
    3  A    between atoms: C_4  and  C_6
    4  A    between atoms: N_9  and  C_18
    5  A    between atoms: N_9  and  C_23
    6  A    between atoms: C_15  and  N_20
    7  A    between atoms: C_17  and  C_18
    8  A    between atoms: N_20  and  C_21
                            x       y       z     vdW  Elec       q    Type
                         _______ _______ _______ _____ _____    ______ ____

>  <TORSDO>
F 8

$$$$
=
 OpenBabel11072413583D

 29 33  0  0  1  0  0  0  0  0999 V2000
  161.4940  211.4080  150.2860 C   0  0  0  0  0  0  0  0  0  0  0  0
  161.3260  212.6550  150.3630 O   0  0  0  0  0  0  0  0  0  0  0  0
  161.4620  210.5870  151.4750 N   0  0  0  0  0  0  0  0  0  0  0  0
  159.0230  211.5290  154.8080 N   0  0  0  0  0  0  0  0  0  0  0  0
  160.6220  210.9250  152.6110 C   0  0  0  0  0  0  0  0  0  0  0  0
  161.1800  211.0760  153.8910 C   0  0  0  0  0  3  0  0  0  0  0  0
  159.2330  211.0780  152.4730 C   0  0  0  0  0  3  0  0  0  0  0  0
  160.3620  211.3820  154.9820 C   0  0  0  0  0  3  0  0  0  0  0  0
  158.4460  211.3830  153.5860 C   0  0  0  0  0  3  0  0  0  0  0  0
  161.6890  208.4720  152.5050 O   0  0  0  0  0  0  0  0  0  0  0  0
  162.1660  209.2980  151.4670 C   0  0  1  0  0  3  0  0  0  0  0  0
  161.2060  208.1940  151.2170 C   0  0  1  0  0  3  0  0  0  0  0  0
  161.9160  207.0540  150.6690 N   0  0  0  0  0  2  0  0  0  0  0  0
  160.9350  205.9960  150.5100 C   0  0  0  0  0  2  0  0  0  0  0  0
  161.8530  203.8250  147.9870 C   0  0  1  0  0  3  0  0  0  0  0  0
  160.7410  204.0210  149.0330 C   0  0  1  0  0  0  0  0  0  0  0  0
  161.0570  202.6580  148.4110 C   0  0  0  0  0  2  0  0  0  0  0  0
  161.6270  204.7230  150.0730 C   0  0  2  0  0  3  0  0  0  0  0  0
  160.8320  203.5590  150.4920 C   0  0  0  0  0  2  0  0  0  0  0  0
  160.4550  206.2030  145.2550 C   0  0  0  0  0  1  0  0  0  0  0  0
  161.3880  204.3250  146.6560 C   0  0  0  0  0  0  0  0  0  0  0  0
  161.3590  203.5420  145.6690 O   0  0  0  0  0  0  0  0  0  0  0  0
  160.9320  205.6730  146.5220 N   0  0  0  0  0  2  0  0  0  0  0  0
  161.7100  210.7930  148.9350 C   0  0  0  0  0  2  0  0  0  0  0  0
  161.1390  213.1550  146.2640 N   0  0  0  0  0  0  0  0  0  0  0  0
  161.7340  211.8160  147.9020 N   0  0  0  0  0  0  0  0  0  0  0  0
  162.4250  213.3640  146.5050 N   0  0  0  0  0  0  0  0  0  0  0  0
  162.7920  212.5430  147.5070 C   0  0  0  0  0  3  0  0  0  0  0  0
  160.7150  212.2030  147.1170 C   0  0  0  0  0  3  0  0  0  0  0  0
  1  2  2  0  0  0  0
  1  3  1  0  0  0  0
  3  5  1  0  0  0  0
  4  8  1  0  0  0  0
  5  6  1  0  0  0  0
  6  8  2  0  0  0  0
  7  5  2  0  0  0  0
  7  9  1  0  0  0  0
  9  4  2  0  0  0  0
 11  3  1  1  0  0  0
 11 10  1  0  0  0  0
 12 13  1  6  0  0  0
 12 11  1  0  0  0  0
 12 10  1  0  0  0  0
 14 13  1  0  0  0  0
 15 21  1  6  0  0  0
 15 17  1  0  0  0  0
 15 16  1  0  0  0  0
 16 17  1  1  0  0  0
 16 18  1  0  0  0  0
 16 19  1  0  0  0  0
 18 19  1  0  0  0  0
 18 14  1  1  0  0  0
 20 23  1  0  0  0  0
 22 21  2  0  0  0  0
 23 21  1  0  0  0  0
 24  1  1  0  0  0  0
 25 27  1  0  0  0  0
 25 29  2  0  0  0  0
 26 24  1  0  0  0  0
 27 28  2  0  0  0  0
 28 26  1  0  0  0  0
 29 26  1  0  0  0  0
M  END
>  <MODEL>
9

>  <REMARK>
 VINA RESULT:      -6.6      2.466      5.352
  Name = 
  8 active torsions:
  status: ('A' for Active; 'I' for Inactive)
    1  A    between atoms: C_2  and  C_5
    2  A    between atoms: C_2  and  N_10
    3  A    between atoms: C_4  and  C_6
    4  A    between atoms: N_9  and  C_18
    5  A    between atoms: N_9  and  C_23
    6  A    between atoms: C_15  and  N_20
    7  A    between atoms: C_17  and  C_18
    8  A    between atoms: N_20  and  C_21
                            x       y       z     vdW  Elec       q    Type
                         _______ _______ _______ _____ _____    ______ ____

>  <TORSDO>
F 8

$$$$
