=
 OpenBabel11072409583D

 54 58  0  0  1  0  0  0  0  0999 V2000
  161.6000  207.9920  152.2400 C   0  0  0  0  0  0  0  0  0  0  0  0
  160.7640  208.4060  154.4940 C   0  0  0  0  0  0  0  0  0  0  0  0
  161.1950  206.0260  153.7710 C   0  0  0  0  0  1  0  0  0  0  0  0
  160.7710  209.7820  154.2220 C   0  0  0  0  0  3  0  0  0  0  0  0
  161.1860  207.5010  153.4960 C   0  0  0  0  0  0  0  0  0  0  0  0
  161.1500  210.2630  152.9670 C   0  0  0  0  0  0  0  0  0  0  0  0
  161.5820  209.3660  151.9870 C   0  0  0  0  0  3  0  0  0  0  0  0
  160.3400  207.9070  155.8610 C   0  0  1  0  0  3  0  0  0  0  0  0
  161.1610  208.4900  156.9980 C   0  0  0  0  0  2  0  0  0  0  0  0
  159.7480  208.9930  156.7810 C   0  0  1  0  0  3  0  0  0  0  0  0
  159.8100  210.4180  156.2340 C   0  0  0  0  0  2  0  0  0  0  0  0
  159.1770  211.3930  157.2120 C   0  0  0  0  0  2  0  0  0  0  0  0
  157.1060  212.5440  157.2610 F   0  0  0  0  0  0  0  0  0  0  0  0
  158.2460  212.3620  156.4990 C   0  0  1  0  0  3  0  0  0  0  0  0
  158.5760  214.4530  155.1670 O   0  0  0  0  0  0  0  0  0  0  0  0
  159.7760  214.0910  157.0850 O   0  0  0  0  0  1  0  0  0  0  0  0
  158.9060  213.6820  156.2750 C   0  0  0  0  0  0  0  0  0  0  0  0
  159.7950  212.3710  152.6970 N   0  0  0  0  0  0  0  0  0  0  0  0
  160.4540  212.0130  151.5320 O   0  0  0  0  0  0  0  0  0  0  0  0
  161.1180  211.7480  152.6920 C   0  0  2  0  0  3  0  0  0  0  0  0
  158.6730  211.4380  152.8290 C   0  0  0  0  0  2  0  0  0  0  0  0
  157.3600  212.2010  152.8320 C   0  0  0  0  0  2  0  0  0  0  0  0
  157.5190  213.4660  152.1320 N   0  0  0  0  0  2  0  0  0  0  0  0
  155.4120  214.3750  150.8330 S   0  0  0  0  0  0  0  0  0  0  0  0
  156.9320  213.7830  150.8620 C   0  0  0  0  0  0  0  0  0  0  0  0
  157.6490  213.6760  149.6260 N   0  0  0  0  0  2  0  0  0  0  0  0
  158.9570  214.2590  149.3770 C   0  0  0  0  0  2  0  0  0  0  0  0
  159.3890  213.9770  147.9420 C   0  0  1  0  0  3  0  0  0  0  0  0
  160.2170  212.7820  147.8870 N   0  0  0  0  0  2  0  0  0  0  0  0
  161.5550  213.1680  148.3060 C   0  0  0  0  0  1  0  0  0  0  0  0
  158.1960  213.8540  146.9910 C   0  0  0  0  0  2  0  0  0  0  0  0
  158.5980  213.5120  145.5930 C   0  0  0  0  0  0  0  0  0  0  0  0
  159.1040  212.2510  145.3020 O   0  0  0  0  0  1  0  0  0  0  0  0
  158.4630  214.3620  144.6770 O   0  0  0  0  0  0  0  0  0  0  0  0
  162.1010  207.0840  151.1570 C   0  0  0  0  0  2  0  0  0  0  0  0
  159.9960  204.2690  149.7840 O   0  0  0  0  0  0  0  0  0  0  0  0
  162.2210  204.5890  151.5820 C   0  0  0  0  0  2  0  0  0  0  0  0
  160.7400  205.4720  149.7610 C   0  0  1  0  0  3  0  0  0  0  0  0
  161.4640  203.2700  151.4550 C   0  0  0  0  0  0  0  0  0  0  0  0
  162.3660  202.2290  151.6780 O   0  0  0  0  0  1  0  0  0  0  0  0
  160.8580  203.1710  150.0340 C   0  0  1  0  0  3  0  0  0  0  0  0
  161.3430  205.7580  151.1420 C   0  0  2  0  0  3  0  0  0  0  0  0
  160.4520  203.2160  152.4170 O   0  0  0  0  0  1  0  0  0  0  0  0
  160.3430  205.9200  145.3540 N   0  0  0  0  0  0  0  0  0  0  0  0
  161.6140  205.7490  145.1970 C   0  0  0  0  0  0  0  0  0  0  0  0
  161.4400  205.6210  147.3290 C   0  0  0  0  0  0  0  0  0  0  0  0
  162.2600  205.7550  143.8590 C   0  0  0  0  0  1  0  0  0  0  0  0
  162.3340  205.5550  146.4040 N   0  0  0  0  0  0  0  0  0  0  0  0
  160.0740  205.8530  146.7830 C   0  0  0  0  0  2  0  0  0  0  0  0
  161.7590  205.4550  148.7110 N   0  0  0  0  0  2  0  0  0  0  0  0
  160.1040  201.8520  149.7880 C   0  0  2  0  0  3  0  0  0  0  0  0
  160.6950  200.8160  150.5110 O   0  0  0  0  0  1  0  0  0  0  0  0
  161.1610  200.5700  148.0670 O   0  0  0  0  0  1  0  0  0  0  0  0
  160.1290  201.4760  148.3140 C   0  0  0  0  0  2  0  0  0  0  0  0
  1  5  1  0  0  0  0
  4  2  1  0  0  0  0
  5  3  1  0  0  0  0
  5  2  2  0  0  0  0
  6  4  2  0  0  0  0
  7  1  2  0  0  0  0
  7  6  1  0  0  0  0
  8  2  1  6  0  0  0
  8 10  1  0  0  0  0
  8  9  1  0  0  0  0
 10 11  1  6  0  0  0
 10  9  1  0  0  0  0
 11 12  1  0  0  0  0
 14 12  1  0  0  0  0
 14 13  1  1  0  0  0
 15 17  2  0  0  0  0
 17 14  1  0  0  0  0
 17 16  1  0  0  0  0
 18 21  1  0  0  0  0
 19 20  1  0  0  0  0
 19 18  1  0  0  0  0
 20 18  1  0  0  0  0
 20  6  1  1  0  0  0
 21 22  1  0  0  0  0
 23 22  1  0  0  0  0
 24 25  2  0  0  0  0
 25 23  1  0  0  0  0
 26 25  1  0  0  0  0
 27 26  1  0  0  0  0
 28 31  1  6  0  0  0
 28 27  1  0  0  0  0
 29 28  1  0  0  0  0
 29 30  1  0  0  0  0
 32 31  1  0  0  0  0
 33 32  1  0  0  0  0
 34 32  2  0  0  0  0
 35  1  1  0  0  0  0
 36 41  1  0  0  0  0
 38 50  1  6  0  0  0
 38 36  1  0  0  0  0
 38 42  1  0  0  0  0
 39 37  1  0  0  0  0
 39 40  1  0  0  0  0
 39 43  1  0  0  0  0
 41 51  1  1  0  0  0
 41 39  1  0  0  0  0
 42 35  1  6  0  0  0
 42 37  1  0  0  0  0
 44 49  1  0  0  0  0
 45 44  2  0  0  0  0
 45 48  1  0  0  0  0
 46 50  1  0  0  0  0
 47 45  1  0  0  0  0
 48 46  2  0  0  0  0
 49 46  1  0  0  0  0
 51 52  1  1  0  0  0
 53 54  1  0  0  0  0
 54 51  1  0  0  0  0
M  END
>  <MODEL>
1

>  <REMARK>
 VINA RESULT:      -5.3      0.000      0.000
  Name = 
  21 active torsions:
  status: ('A' for Active; 'I' for Inactive)
    1  A    between atoms: C_1  and  C_35
    2  A    between atoms: C_2  and  C_6
    3  A    between atoms: C_5  and  C_8
    4  A    between atoms: C_5  and  C_48
    5  A    between atoms: N_12  and  C_38
    6  A    between atoms: N_12  and  C_44
    7  A    between atoms: C_17  and  C_41
    8  A    between atoms: C_17  and  C_51
    9  A    between atoms: N_18  and  C_42
   10  A    between atoms: C_19  and  N_31
   11  A    between atoms: C_21  and  C_43
   12  A    between atoms: C_21  and  C_47
   13  A    between atoms: C_23  and  C_37
   14  A    between atoms: C_23  and  C_47
   15  A    between atoms: N_27  and  C_48
   16  A    between atoms: C_35  and  C_46
   17  A    between atoms: N_36  and  C_44
   18  A    between atoms: N_36  and  C_54
   19  A    between atoms: C_38  and  C_42
   20  A    between atoms: C_45  and  C_50
   21  A    between atoms: C_48  and  C_54
                            x       y       z     vdW  Elec       q    Type
                         _______ _______ _______ _____ _____    ______ ____

>  <TORSDO>
F 21

$$$$
=
 OpenBabel11072409583D

 54 58  0  0  1  0  0  0  0  0999 V2000
  161.1810  208.5270  150.8400 C   0  0  0  0  0  0  0  0  0  0  0  0
  162.5070  207.6650  148.9830 C   0  0  0  0  0  0  0  0  0  0  0  0
  161.3450  206.0300  150.5150 C   0  0  0  0  0  1  0  0  0  0  0  0
  162.8060  208.9840  148.6110 C   0  0  0  0  0  3  0  0  0  0  0  0
  161.6840  207.4330  150.1060 C   0  0  0  0  0  0  0  0  0  0  0  0
  162.3340  210.0650  149.3590 C   0  0  0  0  0  0  0  0  0  0  0  0
  161.5060  209.8320  150.4600 C   0  0  0  0  0  3  0  0  0  0  0  0
  163.0390  206.5070  148.1620 C   0  0  1  0  0  3  0  0  0  0  0  0
  162.1250  205.2940  148.1650 C   0  0  0  0  0  2  0  0  0  0  0  0
  162.1890  206.1600  146.9240 C   0  0  1  0  0  3  0  0  0  0  0  0
  160.8780  206.9340  146.7930 C   0  0  0  0  0  2  0  0  0  0  0  0
  160.0470  206.3840  145.6460 C   0  0  0  0  0  2  0  0  0  0  0  0
  162.2430  205.8990  144.9010 F   0  0  0  0  0  0  0  0  0  0  0  0
  160.9110  205.6170  144.6570 C   0  0  1  0  0  3  0  0  0  0  0  0
  161.5960  203.3510  145.4660 O   0  0  0  0  0  1  0  0  0  0  0  0
  159.6870  203.6190  144.2270 O   0  0  0  0  0  0  0  0  0  0  0  0
  160.6900  204.1460  144.7730 C   0  0  0  0  0  0  0  0  0  0  0  0
  161.7870  212.1230  148.0090 N   0  0  0  0  0  0  0  0  0  0  0  0
  162.9810  211.5370  147.6200 O   0  0  0  0  0  0  0  0  0  0  0  0
  162.6980  211.4740  148.9510 C   0  0  2  0  0  3  0  0  0  0  0  0
  160.7250  211.2620  147.4840 C   0  0  0  0  0  2  0  0  0  0  0  0
  159.6910  212.0990  146.7510 C   0  0  0  0  0  2  0  0  0  0  0  0
  160.2920  212.7150  145.5780 N   0  0  0  0  0  2  0  0  0  0  0  0
  158.6690  213.9800  143.9300 S   0  0  0  0  0  0  0  0  0  0  0  0
  159.6940  212.7580  144.2760 C   0  0  0  0  0  0  0  0  0  0  0  0
  160.0170  211.8220  143.2400 N   0  0  0  0  0  2  0  0  0  0  0  0
  161.2670  211.8110  142.4980 C   0  0  0  0  0  2  0  0  0  0  0  0
  160.9950  212.0420  141.0160 C   0  0  1  0  0  3  0  0  0  0  0  0
  161.1060  213.4560  140.6940 N   0  0  0  0  0  2  0  0  0  0  0  0
  162.3280  213.9430  141.3140 C   0  0  0  0  0  1  0  0  0  0  0  0
  161.9160  211.2090  140.1200 C   0  0  0  0  0  2  0  0  0  0  0  0
  161.6850  211.4490  138.6630 C   0  0  0  0  0  0  0  0  0  0  0  0
  162.5330  212.2900  137.9530 O   0  0  0  0  0  0  0  0  0  0  0  0
  160.7320  210.8760  138.0770 O   0  0  0  0  0  1  0  0  0  0  0  0
  160.2660  208.3450  152.0140 C   0  0  0  0  0  2  0  0  0  0  0  0
  161.6120  210.5830  154.7370 O   0  0  0  0  0  0  0  0  0  0  0  0
  160.3390  208.0100  154.5240 C   0  0  0  0  0  2  0  0  0  0  0  0
  160.9240  210.2450  153.5480 C   0  0  1  0  0  3  0  0  0  0  0  0
  160.9780  208.4940  155.8230 C   0  0  0  0  0  0  0  0  0  0  0  0
  160.2530  207.9580  156.8880 O   0  0  0  0  0  1  0  0  0  0  0  0
  160.9350  210.0420  155.8590 C   0  0  1  0  0  3  0  0  0  0  0  0
  160.9510  208.7280  153.3230 C   0  0  2  0  0  3  0  0  0  0  0  0
  162.2980  208.0450  155.8930 O   0  0  0  0  0  1  0  0  0  0  0  0
  159.2110  213.7890  151.4790 N   0  0  0  0  0  0  0  0  0  0  0  0
  158.0540  213.5730  152.0110 C   0  0  0  0  0  0  0  0  0  0  0  0
  159.1890  211.9390  152.8080 C   0  0  0  0  0  0  0  0  0  0  0  0
  156.8840  214.4530  151.7610 C   0  0  0  0  0  1  0  0  0  0  0  0
  157.9980  212.4300  152.8500 N   0  0  0  0  0  0  0  0  0  0  0  0
  160.1020  212.7370  151.9450 C   0  0  0  0  0  2  0  0  0  0  0  0
  159.5590  210.7740  153.5460 N   0  0  0  0  0  2  0  0  0  0  0  0
  161.5210  210.6330  157.1540 C   0  0  2  0  0  3  0  0  0  0  0  0
  161.3450  212.0170  157.1760 O   0  0  0  0  0  1  0  0  0  0  0  0
  163.7430  211.5170  157.0850 O   0  0  0  0  0  1  0  0  0  0  0  0
  163.0100  210.3430  157.2610 C   0  0  0  0  0  2  0  0  0  0  0  0
  1 35  1  0  0  0  0
  2  5  1  0  0  0  0
  4  2  2  0  0  0  0
  4  6  1  0  0  0  0
  5  3  1  0  0  0  0
  5  1  2  0  0  0  0
  6  7  2  0  0  0  0
  7  1  1  0  0  0  0
  8  9  1  0  0  0  0
  8  2  1  1  0  0  0
 10 11  1  1  0  0  0
 10  8  1  0  0  0  0
 10  9  1  0  0  0  0
 12 11  1  0  0  0  0
 14 17  1  0  0  0  0
 14 13  1  1  0  0  0
 14 12  1  0  0  0  0
 16 17  2  0  0  0  0
 17 15  1  0  0  0  0
 18 20  1  0  0  0  0
 19 18  1  0  0  0  0
 19 20  1  0  0  0  0
 20  6  1  6  0  0  0
 21 18  1  0  0  0  0
 22 21  1  0  0  0  0
 23 22  1  0  0  0  0
 24 25  2  0  0  0  0
 25 23  1  0  0  0  0
 26 25  1  0  0  0  0
 27 26  1  0  0  0  0
 28 31  1  6  0  0  0
 28 27  1  0  0  0  0
 29 28  1  0  0  0  0
 29 30  1  0  0  0  0
 32 31  1  0  0  0  0
 33 32  2  0  0  0  0
 34 32  1  0  0  0  0
 36 41  1  0  0  0  0
 37 39  1  0  0  0  0
 38 50  1  1  0  0  0
 38 36  1  0  0  0  0
 39 41  1  0  0  0  0
 39 43  1  0  0  0  0
 39 40  1  0  0  0  0
 41 51  1  1  0  0  0
 42 35  1  6  0  0  0
 42 38  1  0  0  0  0
 42 37  1  0  0  0  0
 44 49  1  0  0  0  0
 44 45  2  0  0  0  0
 45 48  1  0  0  0  0
 46 48  2  0  0  0  0
 46 50  1  0  0  0  0
 47 45  1  0  0  0  0
 49 46  1  0  0  0  0
 51 52  1  6  0  0  0
 51 54  1  0  0  0  0
 53 54  1  0  0  0  0
M  END
>  <MODEL>
2

>  <REMARK>
 VINA RESULT:      -5.1      4.190      8.995
  Name = 
  21 active torsions:
  status: ('A' for Active; 'I' for Inactive)
    1  A    between atoms: C_1  and  C_35
    2  A    between atoms: C_2  and  C_6
    3  A    between atoms: C_5  and  C_8
    4  A    between atoms: C_5  and  C_48
    5  A    between atoms: N_12  and  C_38
    6  A    between atoms: N_12  and  C_44
    7  A    between atoms: C_17  and  C_41
    8  A    between atoms: C_17  and  C_51
    9  A    between atoms: N_18  and  C_42
   10  A    between atoms: C_19  and  N_31
   11  A    between atoms: C_21  and  C_43
   12  A    between atoms: C_21  and  C_47
   13  A    between atoms: C_23  and  C_37
   14  A    between atoms: C_23  and  C_47
   15  A    between atoms: N_27  and  C_48
   16  A    between atoms: C_35  and  C_46
   17  A    between atoms: N_36  and  C_44
   18  A    between atoms: N_36  and  C_54
   19  A    between atoms: C_38  and  C_42
   20  A    between atoms: C_45  and  C_50
   21  A    between atoms: C_48  and  C_54
                            x       y       z     vdW  Elec       q    Type
                         _______ _______ _______ _____ _____    ______ ____

>  <TORSDO>
F 21

$$$$
=
 OpenBabel11072409583D

 54 58  0  0  1  0  0  0  0  0999 V2000
  161.5200  206.4940  148.7580 C   0  0  0  0  0  0  0  0  0  0  0  0
  161.3180  204.0850  149.0870 C   0  0  0  0  0  0  0  0  0  0  0  0
  160.1920  205.6380  150.7270 C   0  0  0  0  0  1  0  0  0  0  0  0
  162.0920  203.8830  147.9340 C   0  0  0  0  0  3  0  0  0  0  0  0
  161.0260  205.4020  149.5020 C   0  0  0  0  0  0  0  0  0  0  0  0
  162.6080  204.9660  147.2180 C   0  0  0  0  0  0  0  0  0  0  0  0
  162.3030  206.2680  147.6220 C   0  0  0  0  0  3  0  0  0  0  0  0
  160.7770  202.8940  149.8530 C   0  0  1  0  0  3  0  0  0  0  0  0
  159.5370  202.2830  149.2220 C   0  0  0  0  0  2  0  0  0  0  0  0
  160.8600  201.5560  149.0930 C   0  0  1  0  0  3  0  0  0  0  0  0
  161.3380  201.6540  147.6450 C   0  0  0  0  0  2  0  0  0  0  0  0
  161.3560  200.2810  146.9940 C   0  0  0  0  0  2  0  0  0  0  0  0
  160.7230  199.1230  145.0260 F   0  0  0  0  0  0  0  0  0  0  0  0
  161.0650  200.3750  145.5040 C   0  0  1  0  0  3  0  0  0  0  0  0
  160.1860  202.4970  144.5130 O   0  0  0  0  0  0  0  0  0  0  0  0
  158.7960  201.0820  145.6610 O   0  0  0  0  0  1  0  0  0  0  0  0
  159.9510  201.3290  145.2290 C   0  0  0  0  0  0  0  0  0  0  0  0
  162.8720  205.0940  144.7140 N   0  0  0  0  0  0  0  0  0  0  0  0
  162.8890  203.7890  145.1820 O   0  0  0  0  0  0  0  0  0  0  0  0
  163.4630  204.7180  145.9980 C   0  0  2  0  0  3  0  0  0  0  0  0
  161.4750  205.5280  144.7820 C   0  0  0  0  0  2  0  0  0  0  0  0
  160.9830  205.9170  143.3980 C   0  0  0  0  0  2  0  0  0  0  0  0
  162.0960  205.9280  142.4610 N   0  0  0  0  0  2  0  0  0  0  0  0
  162.7660  205.7870  139.9150 S   0  0  0  0  0  0  0  0  0  0  0  0
  162.0830  206.5650  141.1760 C   0  0  0  0  0  0  0  0  0  0  0  0
  161.4270  207.8160  140.9360 N   0  0  0  0  0  2  0  0  0  0  0  0
  161.6750  208.6710  139.7860 C   0  0  0  0  0  2  0  0  0  0  0  0
  161.8190  210.1200  140.2360 C   0  0  1  0  0  3  0  0  0  0  0  0
  162.8070  210.8100  139.4200 N   0  0  0  0  0  2  0  0  0  0  0  0
  162.3010  210.8270  138.0570 C   0  0  0  0  0  1  0  0  0  0  0  0
  160.4830  210.8690  140.2170 C   0  0  0  0  0  2  0  0  0  0  0  0
  160.3960  211.9330  141.2620 C   0  0  0  0  0  0  0  0  0  0  0  0
  161.4280  212.0960  142.1780 O   0  0  0  0  0  1  0  0  0  0  0  0
  159.3940  212.6920  141.3030 O   0  0  0  0  0  0  0  0  0  0  0  0
  161.2060  207.9130  149.1240 C   0  0  0  0  0  2  0  0  0  0  0  0
  162.7500  209.8810  151.9490 O   0  0  0  0  0  0  0  0  0  0  0  0
  160.5000  208.1320  151.5470 C   0  0  0  0  0  2  0  0  0  0  0  0
  162.2950  209.6250  150.6340 C   0  0  1  0  0  3  0  0  0  0  0  0
  160.9550  208.5620  152.9390 C   0  0  0  0  0  0  0  0  0  0  0  0
  159.8290  208.6350  153.7600 O   0  0  0  0  0  1  0  0  0  0  0  0
  161.6480  209.9430  152.8380 C   0  0  1  0  0  3  0  0  0  0  0  0
  161.6500  208.2370  150.5480 C   0  0  2  0  0  3  0  0  0  0  0  0
  161.8400  207.6130  153.4560 O   0  0  0  0  0  1  0  0  0  0  0  0
  162.9130  212.7750  147.5560 N   0  0  0  0  0  0  0  0  0  0  0  0
  161.7380  213.2610  147.7810 C   0  0  0  0  0  0  0  0  0  0  0  0
  161.7710  211.6100  149.1470 C   0  0  0  0  0  0  0  0  0  0  0  0
  161.2150  214.4520  147.0610 C   0  0  0  0  0  1  0  0  0  0  0  0
  160.9940  212.5670  148.7690 N   0  0  0  0  0  0  0  0  0  0  0  0
  163.0780  211.6270  148.4340 C   0  0  0  0  0  2  0  0  0  0  0  0
  161.3950  210.6770  150.1600 N   0  0  0  0  0  2  0  0  0  0  0  0
  162.1110  210.4870  154.2020 C   0  0  2  0  0  3  0  0  0  0  0  0
  162.1880  209.4530  155.1340 O   0  0  0  0  0  1  0  0  0  0  0  0
  160.6590  211.1490  155.9850 O   0  0  0  0  0  1  0  0  0  0  0  0
  161.1380  211.5300  154.7310 C   0  0  0  0  0  2  0  0  0  0  0  0
  1 35  1  0  0  0  0
  1  5  1  0  0  0  0
  2  5  2  0  0  0  0
  4  2  1  0  0  0  0
  5  3  1  0  0  0  0
  6  7  1  0  0  0  0
  6  4  2  0  0  0  0
  7  1  2  0  0  0  0
  8  2  1  6  0  0  0
  9  8  1  0  0  0  0
 10 11  1  6  0  0  0
 10  9  1  0  0  0  0
 10  8  1  0  0  0  0
 12 11  1  0  0  0  0
 14 13  1  1  0  0  0
 14 12  1  0  0  0  0
 15 17  2  0  0  0  0
 17 14  1  0  0  0  0
 17 16  1  0  0  0  0
 18 21  1  0  0  0  0
 18 19  1  0  0  0  0
 18 20  1  0  0  0  0
 19 20  1  0  0  0  0
 20  6  1  1  0  0  0
 22 21  1  0  0  0  0
 23 22  1  0  0  0  0
 24 25  2  0  0  0  0
 25 23  1  0  0  0  0
 26 25  1  0  0  0  0
 27 26  1  0  0  0  0
 28 27  1  6  0  0  0
 29 28  1  0  0  0  0
 30 29  1  0  0  0  0
 31 28  1  0  0  0  0
 31 32  1  0  0  0  0
 32 34  2  0  0  0  0
 32 33  1  0  0  0  0
 36 41  1  0  0  0  0
 37 39  1  0  0  0  0
 38 50  1  1  0  0  0
 38 36  1  0  0  0  0
 39 43  1  0  0  0  0
 39 40  1  0  0  0  0
 41 39  1  0  0  0  0
 41 51  1  1  0  0  0
 42 35  1  6  0  0  0
 42 38  1  0  0  0  0
 42 37  1  0  0  0  0
 44 45  2  0  0  0  0
 44 49  1  0  0  0  0
 45 48  1  0  0  0  0
 46 50  1  0  0  0  0
 47 45  1  0  0  0  0
 48 46  2  0  0  0  0
 49 46  1  0  0  0  0
 51 54  1  0  0  0  0
 51 52  1  1  0  0  0
 54 53  1  0  0  0  0
M  END
>  <MODEL>
3

>  <REMARK>
 VINA RESULT:      -4.2      4.605      9.948
  Name = 
  21 active torsions:
  status: ('A' for Active; 'I' for Inactive)
    1  A    between atoms: C_1  and  C_35
    2  A    between atoms: C_2  and  C_6
    3  A    between atoms: C_5  and  C_8
    4  A    between atoms: C_5  and  C_48
    5  A    between atoms: N_12  and  C_38
    6  A    between atoms: N_12  and  C_44
    7  A    between atoms: C_17  and  C_41
    8  A    between atoms: C_17  and  C_51
    9  A    between atoms: N_18  and  C_42
   10  A    between atoms: C_19  and  N_31
   11  A    between atoms: C_21  and  C_43
   12  A    between atoms: C_21  and  C_47
   13  A    between atoms: C_23  and  C_37
   14  A    between atoms: C_23  and  C_47
   15  A    between atoms: N_27  and  C_48
   16  A    between atoms: C_35  and  C_46
   17  A    between atoms: N_36  and  C_44
   18  A    between atoms: N_36  and  C_54
   19  A    between atoms: C_38  and  C_42
   20  A    between atoms: C_45  and  C_50
   21  A    between atoms: C_48  and  C_54
                            x       y       z     vdW  Elec       q    Type
                         _______ _______ _______ _____ _____    ______ ____

>  <TORSDO>
F 21

$$$$
=
 OpenBabel11072409583D

 54 58  0  0  1  0  0  0  0  0999 V2000
  160.6890  210.5180  151.8690 C   0  0  0  0  0  0  0  0  0  0  0  0
  162.2100  208.7340  151.1940 C   0  0  0  0  0  0  0  0  0  0  0  0
  161.7620  210.6290  149.5870 C   0  0  0  0  0  1  0  0  0  0  0  0
  162.0050  208.1170  152.4370 C   0  0  0  0  0  3  0  0  0  0  0  0
  161.5490  209.9480  150.9070 C   0  0  0  0  0  0  0  0  0  0  0  0
  161.1270  208.6660  153.3740 C   0  0  0  0  0  0  0  0  0  0  0  0
  160.4880  209.8760  153.0940 C   0  0  0  0  0  3  0  0  0  0  0  0
  163.1590  208.1140  150.1880 C   0  0  1  0  0  3  0  0  0  0  0  0
  163.1570  206.5950  150.2140 C   0  0  0  0  0  2  0  0  0  0  0  0
  162.4680  207.3100  149.0700 C   0  0  1  0  0  3  0  0  0  0  0  0
  160.9570  207.1440  149.2220 C   0  0  0  0  0  2  0  0  0  0  0  0
  160.4020  206.2650  148.1140 C   0  0  0  0  0  2  0  0  0  0  0  0
  162.2660  205.0270  147.3340 F   0  0  0  0  0  0  0  0  0  0  0  0
  161.4210  206.0710  147.0020 C   0  0  1  0  0  3  0  0  0  0  0  0
  160.3400  206.8040  144.8690 O   0  0  0  0  0  0  0  0  0  0  0  0
  160.5510  204.5760  145.3650 O   0  0  0  0  0  1  0  0  0  0  0  0
  160.7540  205.7700  145.7020 C   0  0  0  0  0  0  0  0  0  0  0  0
  161.0480  206.5080  154.6740 N   0  0  0  0  0  0  0  0  0  0  0  0
  159.8170  207.1430  154.6270 O   0  0  0  0  0  0  0  0  0  0  0  0
  160.9030  207.9630  154.6930 C   0  0  2  0  0  3  0  0  0  0  0  0
  161.2530  205.9240  153.3470 C   0  0  0  0  0  2  0  0  0  0  0  0
  160.7720  204.4830  153.3320 C   0  0  0  0  0  2  0  0  0  0  0  0
  160.3290  204.1210  151.9950 N   0  0  0  0  0  2  0  0  0  0  0  0
  162.3240  202.4600  151.5360 S   0  0  0  0  0  0  0  0  0  0  0  0
  161.1330  203.4470  151.0170 C   0  0  0  0  0  0  0  0  0  0  0  0
  160.8860  203.5420  149.6090 N   0  0  0  0  0  2  0  0  0  0  0  0
  161.4450  202.6450  148.6110 C   0  0  0  0  0  2  0  0  0  0  0  0
  160.8770  201.2410  148.7960 C   0  0  1  0  0  3  0  0  0  0  0  0
  159.4460  201.2340  148.5320 N   0  0  0  0  0  2  0  0  0  0  0  0
  158.7750  201.0840  149.8130 C   0  0  0  0  0  1  0  0  0  0  0  0
  161.5940  200.2060  147.9250 C   0  0  0  0  0  2  0  0  0  0  0  0
  161.1690  200.2540  146.4930 C   0  0  0  0  0  0  0  0  0  0  0  0
  160.7290  201.4490  145.9370 O   0  0  0  0  0  1  0  0  0  0  0  0
  161.2250  199.2150  145.7870 O   0  0  0  0  0  0  0  0  0  0  0  0
  159.9950  211.8280  151.6390 C   0  0  0  0  0  2  0  0  0  0  0  0
  158.4350  214.3620  153.9580 O   0  0  0  0  0  0  0  0  0  0  0  0
  158.4370  211.5050  153.6110 C   0  0  0  0  0  2  0  0  0  0  0  0
  158.8680  213.8130  152.7290 C   0  0  1  0  0  3  0  0  0  0  0  0
  157.8530  212.1710  154.8540 C   0  0  0  0  0  0  0  0  0  0  0  0
  156.7900  211.3890  155.3060 O   0  0  0  0  0  1  0  0  0  0  0  0
  157.3660  213.5920  154.4820 C   0  0  1  0  0  3  0  0  0  0  0  0
  159.4650  212.4170  152.9450 C   0  0  2  0  0  3  0  0  0  0  0  0
  158.8300  212.2390  155.8510 O   0  0  0  0  0  1  0  0  0  0  0  0
  159.0070  214.4510  148.3300 N   0  0  0  0  0  0  0  0  0  0  0  0
  157.7250  214.3280  148.2460 C   0  0  0  0  0  0  0  0  0  0  0  0
  158.0320  214.0270  150.3450 C   0  0  0  0  0  0  0  0  0  0  0  0
  156.9940  214.4530  146.9580 C   0  0  0  0  0  1  0  0  0  0  0  0
  157.0770  214.0660  149.4810 N   0  0  0  0  0  0  0  0  0  0  0  0
  159.3660  214.2700  149.7290 C   0  0  0  0  0  2  0  0  0  0  0  0
  157.7940  213.8010  151.7350 N   0  0  0  0  0  2  0  0  0  0  0  0
  156.7190  214.3380  155.6640 C   0  0  2  0  0  3  0  0  0  0  0  0
  157.3890  214.0360  156.8500 O   0  0  0  0  0  1  0  0  0  0  0  0
  154.5240  214.3300  154.7120 O   0  0  0  0  0  1  0  0  0  0  0  0
  155.2610  213.9370  155.8290 C   0  0  0  0  0  2  0  0  0  0  0  0
  1  7  1  0  0  0  0
  2  4  2  0  0  0  0
  3  5  1  0  0  0  0
  4  6  1  0  0  0  0
  5  2  1  0  0  0  0
  5  1  2  0  0  0  0
  7  6  2  0  0  0  0
  8  9  1  0  0  0  0
  8  2  1  1  0  0  0
 10 11  1  1  0  0  0
 10  8  1  0  0  0  0
 10  9  1  0  0  0  0
 12 11  1  0  0  0  0
 14 13  1  1  0  0  0
 14 12  1  0  0  0  0
 15 17  2  0  0  0  0
 16 17  1  0  0  0  0
 17 14  1  0  0  0  0
 18 20  1  0  0  0  0
 19 18  1  0  0  0  0
 19 20  1  0  0  0  0
 20  6  1  6  0  0  0
 21 18  1  0  0  0  0
 22 21  1  0  0  0  0
 23 22  1  0  0  0  0
 25 24  2  0  0  0  0
 25 23  1  0  0  0  0
 26 25  1  0  0  0  0
 27 28  1  0  0  0  0
 27 26  1  0  0  0  0
 28 31  1  6  0  0  0
 29 28  1  0  0  0  0
 29 30  1  0  0  0  0
 32 31  1  0  0  0  0
 33 32  1  0  0  0  0
 34 32  2  0  0  0  0
 35  1  1  0  0  0  0
 36 41  1  0  0  0  0
 37 39  1  0  0  0  0
 38 50  1  6  0  0  0
 38 42  1  0  0  0  0
 38 36  1  0  0  0  0
 39 40  1  0  0  0  0
 39 43  1  0  0  0  0
 41 39  1  0  0  0  0
 41 51  1  1  0  0  0
 42 35  1  6  0  0  0
 42 37  1  0  0  0  0
 44 49  1  0  0  0  0
 45 44  2  0  0  0  0
 45 48  1  0  0  0  0
 46 50  1  0  0  0  0
 47 45  1  0  0  0  0
 48 46  2  0  0  0  0
 49 46  1  0  0  0  0
 51 54  1  0  0  0  0
 51 52  1  1  0  0  0
 53 54  1  0  0  0  0
M  END
>  <MODEL>
4

>  <REMARK>
 VINA RESULT:      -3.8      3.712     10.367
  Name = 
  21 active torsions:
  status: ('A' for Active; 'I' for Inactive)
    1  A    between atoms: C_1  and  C_35
    2  A    between atoms: C_2  and  C_6
    3  A    between atoms: C_5  and  C_8
    4  A    between atoms: C_5  and  C_48
    5  A    between atoms: N_12  and  C_38
    6  A    between atoms: N_12  and  C_44
    7  A    between atoms: C_17  and  C_41
    8  A    between atoms: C_17  and  C_51
    9  A    between atoms: N_18  and  C_42
   10  A    between atoms: C_19  and  N_31
   11  A    between atoms: C_21  and  C_43
   12  A    between atoms: C_21  and  C_47
   13  A    between atoms: C_23  and  C_37
   14  A    between atoms: C_23  and  C_47
   15  A    between atoms: N_27  and  C_48
   16  A    between atoms: C_35  and  C_46
   17  A    between atoms: N_36  and  C_44
   18  A    between atoms: N_36  and  C_54
   19  A    between atoms: C_38  and  C_42
   20  A    between atoms: C_45  and  C_50
   21  A    between atoms: C_48  and  C_54
                            x       y       z     vdW  Elec       q    Type
                         _______ _______ _______ _____ _____    ______ ____

>  <TORSDO>
F 21

$$$$
=
 OpenBabel11072409583D

 54 58  0  0  1  0  0  0  0  0999 V2000
  161.0720  207.2650  152.0630 C   0  0  0  0  0  0  0  0  0  0  0  0
  161.3130  208.2340  154.2890 C   0  0  0  0  0  0  0  0  0  0  0  0
  160.6890  205.7970  154.0800 C   0  0  0  0  0  1  0  0  0  0  0  0
  161.6390  209.4630  153.6960 C   0  0  0  0  0  3  0  0  0  0  0  0
  161.0300  207.1230  153.4650 C   0  0  0  0  0  0  0  0  0  0  0  0
  161.6480  209.6100  152.3070 C   0  0  0  0  0  0  0  0  0  0  0  0
  161.3830  208.5040  151.4950 C   0  0  0  0  0  3  0  0  0  0  0  0
  161.3010  208.1010  155.7980 C   0  0  1  0  0  3  0  0  0  0  0  0
  161.3970  209.4340  156.5220 C   0  0  0  0  0  2  0  0  0  0  0  0
  160.0640  208.7150  156.4820 C   0  0  1  0  0  3  0  0  0  0  0  0
  159.1180  209.4800  155.5580 C   0  0  0  0  0  2  0  0  0  0  0  0
  159.2380  210.9760  155.7910 C   0  0  0  0  0  2  0  0  0  0  0  0
  158.0950  212.9120  156.5400 F   0  0  0  0  0  0  0  0  0  0  0  0
  157.9730  211.5400  156.4180 C   0  0  1  0  0  3  0  0  0  0  0  0
  155.6690  210.6000  156.1640 O   0  0  0  0  0  1  0  0  0  0  0  0
  156.7630  211.5090  154.3670 O   0  0  0  0  0  0  0  0  0  0  0  0
  156.7710  211.2240  155.5920 C   0  0  0  0  0  0  0  0  0  0  0  0
  160.8780  211.9240  151.6680 N   0  0  0  0  0  0  0  0  0  0  0  0
  161.2410  211.1640  150.5680 O   0  0  0  0  0  0  0  0  0  0  0  0
  161.9720  210.9540  151.6980 C   0  0  2  0  0  3  0  0  0  0  0  0
  159.5810  211.4050  152.1070 C   0  0  0  0  0  2  0  0  0  0  0  0
  158.5390  212.5110  152.0710 C   0  0  0  0  0  2  0  0  0  0  0  0
  158.9880  213.5880  151.2030 N   0  0  0  0  0  2  0  0  0  0  0  0
  157.1960  213.2000  149.3080 S   0  0  0  0  0  0  0  0  0  0  0  0
  158.6610  213.7130  149.8130 C   0  0  0  0  0  0  0  0  0  0  0  0
  159.5310  214.3400  148.8620 N   0  0  0  0  0  2  0  0  0  0  0  0
  160.9770  214.4130  148.9900 C   0  0  0  0  0  2  0  0  0  0  0  0
  161.6390  213.9350  147.7020 C   0  0  1  0  0  3  0  0  0  0  0  0
  162.8540  213.1930  148.0000 N   0  0  0  0  0  2  0  0  0  0  0  0
  162.4840  211.7920  148.1150 C   0  0  0  0  0  1  0  0  0  0  0  0
  160.6910  213.0970  146.8390 C   0  0  0  0  0  2  0  0  0  0  0  0
  160.8620  213.3450  145.3760 C   0  0  0  0  0  0  0  0  0  0  0  0
  161.5750  214.4530  144.9350 O   0  0  0  0  0  1  0  0  0  0  0  0
  160.3720  212.5410  144.5420 O   0  0  0  0  0  0  0  0  0  0  0  0
  160.8260  206.1110  151.1380 C   0  0  0  0  0  2  0  0  0  0  0  0
  162.6580  205.1350  147.9870 O   0  0  0  0  0  0  0  0  0  0  0  0
  160.7390  207.1150  148.8130 C   0  0  0  0  0  2  0  0  0  0  0  0
  161.9350  204.9430  149.1870 C   0  0  1  0  0  3  0  0  0  0  0  0
  161.4510  207.1880  147.4650 C   0  0  0  0  0  0  0  0  0  0  0  0
  160.5800  207.7760  146.5470 O   0  0  0  0  0  1  0  0  0  0  0  0
  161.8300  205.7550  147.0170 C   0  0  1  0  0  3  0  0  0  0  0  0
  161.5550  206.2920  149.8090 C   0  0  2  0  0  3  0  0  0  0  0  0
  162.5970  207.9780  147.5820 O   0  0  0  0  0  1  0  0  0  0  0  0
  160.8450  201.0600  151.0620 N   0  0  0  0  0  0  0  0  0  0  0  0
  159.7770  200.9820  150.3400 C   0  0  0  0  0  0  0  0  0  0  0  0
  160.5820  202.8580  149.6870 C   0  0  0  0  0  0  0  0  0  0  0  0
  158.8400  199.8320  150.4230 C   0  0  0  0  0  1  0  0  0  0  0  0
  159.5770  202.0820  149.4660 N   0  0  0  0  0  0  0  0  0  0  0  0
  161.5090  202.3080  150.7150 C   0  0  0  0  0  2  0  0  0  0  0  0
  160.7670  204.0860  148.9820 N   0  0  0  0  0  2  0  0  0  0  0  0
  162.5200  205.7140  145.6420 C   0  0  2  0  0  3  0  0  0  0  0  0
  161.6450  206.1560  144.6490 O   0  0  0  0  0  1  0  0  0  0  0  0
  161.8420  203.4690  145.1680 O   0  0  0  0  0  1  0  0  0  0  0  0
  162.9560  204.2990  145.2930 C   0  0  0  0  0  2  0  0  0  0  0  0
  1  5  1  0  0  0  0
  4  2  1  0  0  0  0
  5  3  1  0  0  0  0
  5  2  2  0  0  0  0
  6  4  2  0  0  0  0
  7  1  2  0  0  0  0
  7  6  1  0  0  0  0
  8  2  1  6  0  0  0
  8 10  1  0  0  0  0
  8  9  1  0  0  0  0
 10 11  1  6  0  0  0
 10  9  1  0  0  0  0
 11 12  1  0  0  0  0
 12 14  1  0  0  0  0
 14 13  1  6  0  0  0
 16 17  2  0  0  0  0
 17 15  1  0  0  0  0
 17 14  1  0  0  0  0
 18 20  1  0  0  0  0
 18 21  1  0  0  0  0
 19 18  1  0  0  0  0
 19 20  1  0  0  0  0
 20  6  1  1  0  0  0
 22 21  1  0  0  0  0
 23 22  1  0  0  0  0
 24 25  2  0  0  0  0
 25 23  1  0  0  0  0
 26 27  1  0  0  0  0
 26 25  1  0  0  0  0
 28 31  1  1  0  0  0
 28 29  1  0  0  0  0
 28 27  1  0  0  0  0
 29 30  1  0  0  0  0
 32 31  1  0  0  0  0
 33 32  1  0  0  0  0
 34 32  2  0  0  0  0
 35  1  1  0  0  0  0
 36 38  1  0  0  0  0
 37 42  1  0  0  0  0
 38 50  1  6  0  0  0
 38 42  1  0  0  0  0
 39 43  1  0  0  0  0
 39 37  1  0  0  0  0
 40 39  1  0  0  0  0
 41 51  1  6  0  0  0
 41 39  1  0  0  0  0
 41 36  1  0  0  0  0
 42 35  1  1  0  0  0
 45 47  1  0  0  0  0
 45 44  2  0  0  0  0
 46 49  1  0  0  0  0
 48 46  2  0  0  0  0
 48 45  1  0  0  0  0
 49 44  1  0  0  0  0
 50 46  1  0  0  0  0
 51 52  1  6  0  0  0
 53 54  1  0  0  0  0
 54 51  1  0  0  0  0
M  END
>  <MODEL>
5

>  <REMARK>
 VINA RESULT:      -3.8      2.315      3.758
  Name = 
  21 active torsions:
  status: ('A' for Active; 'I' for Inactive)
    1  A    between atoms: C_1  and  C_35
    2  A    between atoms: C_2  and  C_6
    3  A    between atoms: C_5  and  C_8
    4  A    between atoms: C_5  and  C_48
    5  A    between atoms: N_12  and  C_38
    6  A    between atoms: N_12  and  C_44
    7  A    between atoms: C_17  and  C_41
    8  A    between atoms: C_17  and  C_51
    9  A    between atoms: N_18  and  C_42
   10  A    between atoms: C_19  and  N_31
   11  A    between atoms: C_21  and  C_43
   12  A    between atoms: C_21  and  C_47
   13  A    between atoms: C_23  and  C_37
   14  A    between atoms: C_23  and  C_47
   15  A    between atoms: N_27  and  C_48
   16  A    between atoms: C_35  and  C_46
   17  A    between atoms: N_36  and  C_44
   18  A    between atoms: N_36  and  C_54
   19  A    between atoms: C_38  and  C_42
   20  A    between atoms: C_45  and  C_50
   21  A    between atoms: C_48  and  C_54
                            x       y       z     vdW  Elec       q    Type
                         _______ _______ _______ _____ _____    ______ ____

>  <TORSDO>
F 21

$$$$
=
 OpenBabel11072409583D

 54 58  0  0  1  0  0  0  0  0999 V2000
  161.4270  209.5650  151.5900 C   0  0  0  0  0  0  0  0  0  0  0  0
  161.1670  207.1830  152.0510 C   0  0  0  0  0  0  0  0  0  0  0  0
  160.0300  208.8500  153.5670 C   0  0  0  0  0  1  0  0  0  0  0  0
  161.9670  206.9000  150.9330 C   0  0  0  0  0  3  0  0  0  0  0  0
  160.8910  208.5270  152.3810 C   0  0  0  0  0  0  0  0  0  0  0  0
  162.5240  207.9300  150.1710 C   0  0  0  0  0  0  0  0  0  0  0  0
  162.2350  209.2590  150.4920 C   0  0  0  0  0  3  0  0  0  0  0  0
  160.5810  206.0490  152.8680 C   0  0  1  0  0  3  0  0  0  0  0  0
  161.6180  205.2990  153.6890 C   0  0  0  0  0  2  0  0  0  0  0  0
  160.6720  206.2500  154.3940 C   0  0  1  0  0  3  0  0  0  0  0  0
  161.4570  207.4810  154.8460 C   0  0  0  0  0  2  0  0  0  0  0  0
  161.2300  207.7450  156.3250 C   0  0  0  0  0  2  0  0  0  0  0  0
  162.6680  209.5640  155.8390 F   0  0  0  0  0  0  0  0  0  0  0  0
  161.6770  209.1470  156.7090 C   0  0  1  0  0  3  0  0  0  0  0  0
  159.2930  209.7530  157.1580 O   0  0  0  0  0  1  0  0  0  0  0  0
  160.7050  211.2470  156.1450 O   0  0  0  0  0  0  0  0  0  0  0  0
  160.5390  210.1110  156.6580 C   0  0  0  0  0  0  0  0  0  0  0  0
  162.7150  207.3170  147.7330 N   0  0  0  0  0  0  0  0  0  0  0  0
  163.1890  206.3180  148.5690 O   0  0  0  0  0  0  0  0  0  0  0  0
  163.4060  207.5950  148.9910 C   0  0  2  0  0  3  0  0  0  0  0  0
  161.2540  207.2630  147.8300 C   0  0  0  0  0  2  0  0  0  0  0  0
  160.7480  205.9230  147.3260 C   0  0  0  0  0  2  0  0  0  0  0  0
  161.6600  205.3930  146.3230 N   0  0  0  0  0  2  0  0  0  0  0  0
  160.8290  205.3060  143.8220 S   0  0  0  0  0  0  0  0  0  0  0  0
  161.2730  204.5740  145.2120 C   0  0  0  0  0  0  0  0  0  0  0  0
  161.3350  203.1430  145.2420 N   0  0  0  0  0  2  0  0  0  0  0  0
  160.1830  202.2700  145.3980 C   0  0  0  0  0  2  0  0  0  0  0  0
  160.4120  201.3070  146.5580 C   0  0  1  0  0  3  0  0  0  0  0  0
  160.8960  200.0260  146.0670 N   0  0  0  0  0  2  0  0  0  0  0  0
  161.8740  199.5400  147.0260 C   0  0  0  0  0  1  0  0  0  0  0  0
  161.3690  201.8800  147.6080 C   0  0  0  0  0  2  0  0  0  0  0  0
  160.6700  202.3250  148.8520 C   0  0  0  0  0  0  0  0  0  0  0  0
  159.4800  201.7210  149.2370 O   0  0  0  0  0  0  0  0  0  0  0  0
  161.1690  203.2380  149.5580 O   0  0  0  0  0  1  0  0  0  0  0  0
  161.1320  211.0090  151.8650 C   0  0  0  0  0  2  0  0  0  0  0  0
  158.0430  212.6330  150.4310 O   0  0  0  0  0  0  0  0  0  0  0  0
  160.8870  212.6990  149.9930 C   0  0  0  0  0  2  0  0  0  0  0  0
  158.9110  212.1400  151.4330 C   0  0  1  0  0  3  0  0  0  0  0  0
  159.9010  213.3390  149.0200 C   0  0  0  0  0  0  0  0  0  0  0  0
  160.5170  214.4530  148.4490 O   0  0  0  0  0  1  0  0  0  0  0  0
  158.6280  213.7570  149.7940 C   0  0  1  0  0  3  0  0  0  0  0  0
  160.2040  211.6020  150.8070 C   0  0  2  0  0  3  0  0  0  0  0  0
  159.5780  212.4260  148.0130 O   0  0  0  0  0  1  0  0  0  0  0  0
  157.2580  212.5790  155.5380 N   0  0  0  0  0  0  0  0  0  0  0  0
  157.9320  213.6660  155.7210 C   0  0  0  0  0  0  0  0  0  0  0  0
  158.5460  213.1260  153.7400 C   0  0  0  0  0  0  0  0  0  0  0  0
  157.8560  214.4500  156.9810 C   0  0  0  0  0  1  0  0  0  0  0  0
  158.7460  214.0440  154.6220 N   0  0  0  0  0  0  0  0  0  0  0  0
  157.5800  212.0930  154.2050 C   0  0  0  0  0  2  0  0  0  0  0  0
  159.1780  213.1480  152.4600 N   0  0  0  0  0  2  0  0  0  0  0  0
  157.5810  214.4530  148.9060 C   0  0  2  0  0  3  0  0  0  0  0  0
  156.2940  214.1750  149.3670 O   0  0  0  0  0  1  0  0  0  0  0  0
  156.5030  213.3300  147.0890 O   0  0  0  0  0  1  0  0  0  0  0  0
  157.6820  213.9730  147.4660 C   0  0  0  0  0  2  0  0  0  0  0  0
  1 35  1  0  0  0  0
  1  5  1  0  0  0  0
  2  5  2  0  0  0  0
  4  2  1  0  0  0  0
  5  3  1  0  0  0  0
  6  7  1  0  0  0  0
  6  4  2  0  0  0  0
  7  1  2  0  0  0  0
  8  2  1  6  0  0  0
  8  9  1  0  0  0  0
  8 10  1  0  0  0  0
  9 10  1  0  0  0  0
 10 11  1  6  0  0  0
 11 12  1  0  0  0  0
 12 14  1  0  0  0  0
 14 13  1  6  0  0  0
 16 17  2  0  0  0  0
 17 14  1  0  0  0  0
 17 15  1  0  0  0  0
 18 21  1  0  0  0  0
 18 19  1  0  0  0  0
 18 20  1  0  0  0  0
 19 20  1  0  0  0  0
 20  6  1  1  0  0  0
 22 21  1  0  0  0  0
 23 22  1  0  0  0  0
 24 25  2  0  0  0  0
 25 26  1  0  0  0  0
 25 23  1  0  0  0  0
 26 27  1  0  0  0  0
 28 27  1  6  0  0  0
 28 31  1  0  0  0  0
 29 28  1  0  0  0  0
 29 30  1  0  0  0  0
 31 32  1  0  0  0  0
 32 33  2  0  0  0  0
 32 34  1  0  0  0  0
 36 38  1  0  0  0  0
 37 42  1  0  0  0  0
 38 50  1  1  0  0  0
 39 41  1  0  0  0  0
 39 37  1  0  0  0  0
 40 39  1  0  0  0  0
 41 51  1  6  0  0  0
 41 36  1  0  0  0  0
 42 38  1  0  0  0  0
 42 35  1  1  0  0  0
 43 39  1  0  0  0  0
 44 45  2  0  0  0  0
 45 47  1  0  0  0  0
 46 49  1  0  0  0  0
 46 48  2  0  0  0  0
 48 45  1  0  0  0  0
 49 44  1  0  0  0  0
 50 46  1  0  0  0  0
 51 52  1  1  0  0  0
 53 54  1  0  0  0  0
 54 51  1  0  0  0  0
M  END
>  <MODEL>
6

>  <REMARK>
 VINA RESULT:      -3.3      2.935      9.473
  Name = 
  21 active torsions:
  status: ('A' for Active; 'I' for Inactive)
    1  A    between atoms: C_1  and  C_35
    2  A    between atoms: C_2  and  C_6
    3  A    between atoms: C_5  and  C_8
    4  A    between atoms: C_5  and  C_48
    5  A    between atoms: N_12  and  C_38
    6  A    between atoms: N_12  and  C_44
    7  A    between atoms: C_17  and  C_41
    8  A    between atoms: C_17  and  C_51
    9  A    between atoms: N_18  and  C_42
   10  A    between atoms: C_19  and  N_31
   11  A    between atoms: C_21  and  C_43
   12  A    between atoms: C_21  and  C_47
   13  A    between atoms: C_23  and  C_37
   14  A    between atoms: C_23  and  C_47
   15  A    between atoms: N_27  and  C_48
   16  A    between atoms: C_35  and  C_46
   17  A    between atoms: N_36  and  C_44
   18  A    between atoms: N_36  and  C_54
   19  A    between atoms: C_38  and  C_42
   20  A    between atoms: C_45  and  C_50
   21  A    between atoms: C_48  and  C_54
                            x       y       z     vdW  Elec       q    Type
                         _______ _______ _______ _____ _____    ______ ____

>  <TORSDO>
F 21

$$$$
=
 OpenBabel11072409583D

 54 58  0  0  1  0  0  0  0  0999 V2000
  161.1000  209.8860  151.3200 C   0  0  0  0  0  0  0  0  0  0  0  0
  162.4510  208.1780  150.2210 C   0  0  0  0  0  0  0  0  0  0  0  0
  162.1370  210.4070  149.0790 C   0  0  0  0  0  1  0  0  0  0  0  0
  162.2170  207.3220  151.3090 C   0  0  0  0  0  3  0  0  0  0  0  0
  161.8900  209.4730  150.2280 C   0  0  0  0  0  0  0  0  0  0  0  0
  161.4060  207.7210  152.3740 C   0  0  0  0  0  0  0  0  0  0  0  0
  160.8670  209.0100  152.3840 C   0  0  0  0  0  3  0  0  0  0  0  0
  163.3260  207.7190  149.0720 C   0  0  1  0  0  3  0  0  0  0  0  0
  163.3330  206.2110  148.8840 C   0  0  0  0  0  2  0  0  0  0  0  0
  162.5570  207.0690  147.9050 C   0  0  1  0  0  3  0  0  0  0  0  0
  161.0620  206.8590  148.1430 C   0  0  0  0  0  2  0  0  0  0  0  0
  160.2880  207.0190  146.8450 C   0  0  0  0  0  2  0  0  0  0  0  0
  159.0440  205.7180  145.3050 F   0  0  0  0  0  0  0  0  0  0  0  0
  160.1680  205.6930  146.1100 C   0  0  1  0  0  3  0  0  0  0  0  0
  161.3760  205.7800  143.9210 O   0  0  0  0  0  0  0  0  0  0  0  0
  162.3810  204.8780  145.7730 O   0  0  0  0  0  1  0  0  0  0  0  0
  161.3710  205.4310  145.2670 C   0  0  0  0  0  0  0  0  0  0  0  0
  161.3640  205.3500  153.2280 N   0  0  0  0  0  0  0  0  0  0  0  0
  160.1080  205.9350  153.2270 O   0  0  0  0  0  0  0  0  0  0  0  0
  161.1470  206.7670  153.5160 C   0  0  2  0  0  3  0  0  0  0  0  0
  161.6670  205.0430  151.8280 C   0  0  0  0  0  2  0  0  0  0  0  0
  160.9250  203.7900  151.3970 C   0  0  0  0  0  2  0  0  0  0  0  0
  161.3940  203.3600  150.0890 N   0  0  0  0  0  2  0  0  0  0  0  0
  159.7740  201.2820  149.9930 S   0  0  0  0  0  0  0  0  0  0  0  0
  161.0930  202.0970  149.4820 C   0  0  0  0  0  0  0  0  0  0  0  0
  161.8520  201.5570  148.3930 N   0  0  0  0  0  2  0  0  0  0  0  0
  161.5340  200.3210  147.6980 C   0  0  0  0  0  2  0  0  0  0  0  0
  161.2600  200.6080  146.2250 C   0  0  1  0  0  3  0  0  0  0  0  0
  160.5700  199.4840  145.6090 N   0  0  0  0  0  2  0  0  0  0  0  0
  161.5330  198.4000  145.4960 C   0  0  0  0  0  1  0  0  0  0  0  0
  160.4700  201.9040  146.0230 C   0  0  0  0  0  2  0  0  0  0  0  0
  159.5330  201.8400  144.8620 C   0  0  0  0  0  0  0  0  0  0  0  0
  159.3550  202.9530  144.0480 O   0  0  0  0  0  0  0  0  0  0  0  0
  158.9160  200.7740  144.6120 O   0  0  0  0  0  1  0  0  0  0  0  0
  160.5150  211.2640  151.4050 C   0  0  0  0  0  2  0  0  0  0  0  0
  159.3660  213.4210  154.2800 O   0  0  0  0  0  0  0  0  0  0  0  0
  159.4120  210.6260  153.5940 C   0  0  0  0  0  2  0  0  0  0  0  0
  159.5590  213.0400  152.9320 C   0  0  1  0  0  3  0  0  0  0  0  0
  159.0710  211.1100  155.0010 C   0  0  0  0  0  0  0  0  0  0  0  0
  158.1560  210.2160  155.5570 O   0  0  0  0  0  1  0  0  0  0  0  0
  158.4610  212.5300  154.9100 C   0  0  1  0  0  3  0  0  0  0  0  0
  160.2430  211.6700  152.8520 C   0  0  2  0  0  3  0  0  0  0  0  0
  160.2290  211.1300  155.7830 O   0  0  0  0  0  1  0  0  0  0  0  0
  158.7110  214.4530  148.8010 N   0  0  0  0  0  0  0  0  0  0  0  0
  157.4540  214.1880  148.9410 C   0  0  0  0  0  0  0  0  0  0  0  0
  158.2230  213.5640  150.8410 C   0  0  0  0  0  0  0  0  0  0  0  0
  156.4600  214.4460  147.8670 C   0  0  0  0  0  1  0  0  0  0  0  0
  157.1070  213.6360  150.2010 N   0  0  0  0  0  0  0  0  0  0  0  0
  159.3700  214.0750  150.0420 C   0  0  0  0  0  2  0  0  0  0  0  0
  158.3040  213.0700  152.1790 N   0  0  0  0  0  2  0  0  0  0  0  0
  158.0430  213.0970  156.2790 C   0  0  2  0  0  3  0  0  0  0  0  0
  156.6580  213.2600  156.3320 O   0  0  0  0  0  1  0  0  0  0  0  0
  160.0780  214.3260  156.5470 O   0  0  0  0  0  1  0  0  0  0  0  0
  158.6890  214.4510  156.5290 C   0  0  0  0  0  2  0  0  0  0  0  0
  1 35  1  0  0  0  0
  1  7  1  0  0  0  0
  2  5  1  0  0  0  0
  2  4  2  0  0  0  0
  3  5  1  0  0  0  0
  4  6  1  0  0  0  0
  5  1  2  0  0  0  0
  6  7  2  0  0  0  0
  8  2  1  1  0  0  0
  9  8  1  0  0  0  0
 10 11  1  1  0  0  0
 10  9  1  0  0  0  0
 10  8  1  0  0  0  0
 12 11  1  0  0  0  0
 14 13  1  6  0  0  0
 14 12  1  0  0  0  0
 15 17  2  0  0  0  0
 17 16  1  0  0  0  0
 17 14  1  0  0  0  0
 18 20  1  0  0  0  0
 19 18  1  0  0  0  0
 19 20  1  0  0  0  0
 20  6  1  6  0  0  0
 21 18  1  0  0  0  0
 22 21  1  0  0  0  0
 23 22  1  0  0  0  0
 25 24  2  0  0  0  0
 25 23  1  0  0  0  0
 26 25  1  0  0  0  0
 27 26  1  0  0  0  0
 28 31  1  1  0  0  0
 28 27  1  0  0  0  0
 29 28  1  0  0  0  0
 30 29  1  0  0  0  0
 32 31  1  0  0  0  0
 33 32  2  0  0  0  0
 34 32  1  0  0  0  0
 36 41  1  0  0  0  0
 37 39  1  0  0  0  0
 38 50  1  6  0  0  0
 38 36  1  0  0  0  0
 39 40  1  0  0  0  0
 39 43  1  0  0  0  0
 41 39  1  0  0  0  0
 41 51  1  1  0  0  0
 42 35  1  6  0  0  0
 42 38  1  0  0  0  0
 42 37  1  0  0  0  0
 44 45  2  0  0  0  0
 44 49  1  0  0  0  0
 45 48  1  0  0  0  0
 46 50  1  0  0  0  0
 47 45  1  0  0  0  0
 48 46  2  0  0  0  0
 49 46  1  0  0  0  0
 51 52  1  6  0  0  0
 51 54  1  0  0  0  0
 54 53  1  0  0  0  0
M  END
>  <MODEL>
7

>  <REMARK>
 VINA RESULT:      -3.1      3.843     10.496
  Name = 
  21 active torsions:
  status: ('A' for Active; 'I' for Inactive)
    1  A    between atoms: C_1  and  C_35
    2  A    between atoms: C_2  and  C_6
    3  A    between atoms: C_5  and  C_8
    4  A    between atoms: C_5  and  C_48
    5  A    between atoms: N_12  and  C_38
    6  A    between atoms: N_12  and  C_44
    7  A    between atoms: C_17  and  C_41
    8  A    between atoms: C_17  and  C_51
    9  A    between atoms: N_18  and  C_42
   10  A    between atoms: C_19  and  N_31
   11  A    between atoms: C_21  and  C_43
   12  A    between atoms: C_21  and  C_47
   13  A    between atoms: C_23  and  C_37
   14  A    between atoms: C_23  and  C_47
   15  A    between atoms: N_27  and  C_48
   16  A    between atoms: C_35  and  C_46
   17  A    between atoms: N_36  and  C_44
   18  A    between atoms: N_36  and  C_54
   19  A    between atoms: C_38  and  C_42
   20  A    between atoms: C_45  and  C_50
   21  A    between atoms: C_48  and  C_54
                            x       y       z     vdW  Elec       q    Type
                         _______ _______ _______ _____ _____    ______ ____

>  <TORSDO>
F 21

$$$$
=
 OpenBabel11072409583D

 54 58  0  0  1  0  0  0  0  0999 V2000
  161.2650  208.1580  150.9530 C   0  0  0  0  0  0  0  0  0  0  0  0
  161.3540  210.0890  152.4410 C   0  0  0  0  0  0  0  0  0  0  0  0
  160.6730  207.8510  153.3870 C   0  0  0  0  0  1  0  0  0  0  0  0
  161.7660  210.8800  151.3570 C   0  0  0  0  0  3  0  0  0  0  0  0
  161.1040  208.7150  152.2390 C   0  0  0  0  0  0  0  0  0  0  0  0
  161.8920  210.3330  150.0780 C   0  0  0  0  0  0  0  0  0  0  0  0
  161.6600  208.9690  149.8850 C   0  0  0  0  0  3  0  0  0  0  0  0
  161.2150  210.7070  153.8180 C   0  0  1  0  0  3  0  0  0  0  0  0
  160.8150  212.1720  153.7850 C   0  0  0  0  0  2  0  0  0  0  0  0
  159.7800  211.1380  154.1810 C   0  0  1  0  0  3  0  0  0  0  0  0
  158.7540  211.0100  153.0570 C   0  0  0  0  0  2  0  0  0  0  0  0
  158.0340  212.3300  152.8380 C   0  0  0  0  0  2  0  0  0  0  0  0
  157.8660  214.3420  154.0790 F   0  0  0  0  0  0  0  0  0  0  0  0
  157.6570  212.9770  154.1620 C   0  0  1  0  0  3  0  0  0  0  0  0
  155.2120  213.1730  153.6720 O   0  0  0  0  0  0  0  0  0  0  0  0
  155.9400  212.0970  155.5600 O   0  0  0  0  0  1  0  0  0  0  0  0
  156.2280  212.7170  154.5040 C   0  0  0  0  0  0  0  0  0  0  0  0
  161.6040  212.4940  148.8110 N   0  0  0  0  0  0  0  0  0  0  0  0
  161.2770  211.3850  148.0470 O   0  0  0  0  0  0  0  0  0  0  0  0
  162.3060  211.2160  148.9240 C   0  0  2  0  0  3  0  0  0  0  0  0
  160.4980  212.6760  149.7530 C   0  0  0  0  0  2  0  0  0  0  0  0
  159.3310  213.3590  149.0600 C   0  0  0  0  0  2  0  0  0  0  0  0
  159.8190  214.1850  147.9660 N   0  0  0  0  0  2  0  0  0  0  0  0
  157.8500  214.0210  146.2200 S   0  0  0  0  0  0  0  0  0  0  0  0
  159.4390  214.0370  146.5920 C   0  0  0  0  0  0  0  0  0  0  0  0
  160.3930  213.9810  145.5230 N   0  0  0  0  0  2  0  0  0  0  0  0
  160.7340  212.7780  144.7830 C   0  0  0  0  0  2  0  0  0  0  0  0
  161.4790  213.1460  143.5040 C   0  0  1  0  0  3  0  0  0  0  0  0
  162.9060  212.9160  143.6650 N   0  0  0  0  0  2  0  0  0  0  0  0
  163.2400  213.2370  145.0430 C   0  0  0  0  0  1  0  0  0  0  0  0
  160.9430  212.3950  142.2820 C   0  0  0  0  0  2  0  0  0  0  0  0
  159.6790  212.9820  141.7450 C   0  0  0  0  0  0  0  0  0  0  0  0
  159.3260  214.2870  142.0650 O   0  0  0  0  0  1  0  0  0  0  0  0
  158.9420  212.3000  140.9890 O   0  0  0  0  0  0  0  0  0  0  0  0
  161.0590  206.6970  150.6870 C   0  0  0  0  0  2  0  0  0  0  0  0
  162.2470  204.4470  147.9000 O   0  0  0  0  0  0  0  0  0  0  0  0
  160.6550  206.8270  148.1890 C   0  0  0  0  0  2  0  0  0  0  0  0
  161.7270  204.7840  149.1720 C   0  0  1  0  0  3  0  0  0  0  0  0
  161.1300  206.3290  146.8260 C   0  0  0  0  0  0  0  0  0  0  0  0
  160.1630  206.6690  145.8790 O   0  0  0  0  0  1  0  0  0  0  0  0
  161.3160  204.7930  146.8890 C   0  0  1  0  0  3  0  0  0  0  0  0
  161.5630  206.3040  149.3000 C   0  0  2  0  0  3  0  0  0  0  0  0
  162.3370  206.9500  146.4950 O   0  0  0  0  0  1  0  0  0  0  0  0
  160.9740  200.4640  149.9100 N   0  0  0  0  0  0  0  0  0  0  0  0
  159.7040  200.6770  150.0100 C   0  0  0  0  0  0  0  0  0  0  0  0
  160.4300  202.6630  149.6670 C   0  0  0  0  0  0  0  0  0  0  0  0
  158.7300  199.5830  150.2600 C   0  0  0  0  0  1  0  0  0  0  0  0
  159.3220  202.0340  149.8610 N   0  0  0  0  0  0  0  0  0  0  0  0
  161.6070  201.7520  149.6680 C   0  0  0  0  0  2  0  0  0  0  0  0
  160.4780  204.0740  149.4500 N   0  0  0  0  0  2  0  0  0  0  0  0
  161.7560  204.1830  145.5460 C   0  0  2  0  0  3  0  0  0  0  0  0
  161.5300  205.0870  144.5080 O   0  0  0  0  0  1  0  0  0  0  0  0
  159.8260  203.2120  144.5190 O   0  0  0  0  0  1  0  0  0  0  0  0
  160.9780  202.9110  145.2440 C   0  0  0  0  0  2  0  0  0  0  0  0
  1  5  1  0  0  0  0
  4  2  1  0  0  0  0
  5  2  2  0  0  0  0
  5  3  1  0  0  0  0
  6  4  2  0  0  0  0
  7  6  1  0  0  0  0
  7  1  2  0  0  0  0
  8  2  1  6  0  0  0
  8 10  1  0  0  0  0
  9  8  1  0  0  0  0
  9 10  1  0  0  0  0
 10 11  1  6  0  0  0
 12 11  1  0  0  0  0
 12 14  1  0  0  0  0
 14 13  1  6  0  0  0
 14 17  1  0  0  0  0
 15 17  2  0  0  0  0
 17 16  1  0  0  0  0
 18 20  1  0  0  0  0
 18 21  1  0  0  0  0
 19 18  1  0  0  0  0
 19 20  1  0  0  0  0
 20  6  1  1  0  0  0
 22 21  1  0  0  0  0
 23 22  1  0  0  0  0
 24 25  2  0  0  0  0
 25 23  1  0  0  0  0
 26 25  1  0  0  0  0
 27 26  1  0  0  0  0
 28 31  1  6  0  0  0
 28 29  1  0  0  0  0
 28 27  1  0  0  0  0
 29 30  1  0  0  0  0
 32 33  1  0  0  0  0
 32 31  1  0  0  0  0
 34 32  2  0  0  0  0
 35  1  1  0  0  0  0
 36 38  1  0  0  0  0
 37 42  1  0  0  0  0
 38 42  1  0  0  0  0
 38 50  1  6  0  0  0
 39 41  1  0  0  0  0
 39 37  1  0  0  0  0
 40 39  1  0  0  0  0
 41 51  1  6  0  0  0
 41 36  1  0  0  0  0
 42 35  1  1  0  0  0
 43 39  1  0  0  0  0
 44 45  2  0  0  0  0
 45 47  1  0  0  0  0
 46 49  1  0  0  0  0
 46 48  2  0  0  0  0
 48 45  1  0  0  0  0
 49 44  1  0  0  0  0
 50 46  1  0  0  0  0
 51 52  1  6  0  0  0
 53 54  1  0  0  0  0
 54 51  1  0  0  0  0
M  END
>  <MODEL>
8

>  <REMARK>
 VINA RESULT:      -3.0      2.845      4.552
  Name = 
  21 active torsions:
  status: ('A' for Active; 'I' for Inactive)
    1  A    between atoms: C_1  and  C_35
    2  A    between atoms: C_2  and  C_6
    3  A    between atoms: C_5  and  C_8
    4  A    between atoms: C_5  and  C_48
    5  A    between atoms: N_12  and  C_38
    6  A    between atoms: N_12  and  C_44
    7  A    between atoms: C_17  and  C_41
    8  A    between atoms: C_17  and  C_51
    9  A    between atoms: N_18  and  C_42
   10  A    between atoms: C_19  and  N_31
   11  A    between atoms: C_21  and  C_43
   12  A    between atoms: C_21  and  C_47
   13  A    between atoms: C_23  and  C_37
   14  A    between atoms: C_23  and  C_47
   15  A    between atoms: N_27  and  C_48
   16  A    between atoms: C_35  and  C_46
   17  A    between atoms: N_36  and  C_44
   18  A    between atoms: N_36  and  C_54
   19  A    between atoms: C_38  and  C_42
   20  A    between atoms: C_45  and  C_50
   21  A    between atoms: C_48  and  C_54
                            x       y       z     vdW  Elec       q    Type
                         _______ _______ _______ _____ _____    ______ ____

>  <TORSDO>
F 21

$$$$
=
 OpenBabel11072409583D

 54 58  0  0  1  0  0  0  0  0999 V2000
  160.2190  210.4840  152.4130 C   0  0  0  0  0  0  0  0  0  0  0  0
  161.1150  208.7660  153.8960 C   0  0  0  0  0  0  0  0  0  0  0  0
  159.4380  210.4150  154.8120 C   0  0  0  0  0  1  0  0  0  0  0  0
  161.8810  208.2730  152.8290 C   0  0  0  0  0  3  0  0  0  0  0  0
  160.2730  209.8790  153.6860 C   0  0  0  0  0  0  0  0  0  0  0  0
  161.8510  208.8940  151.5780 C   0  0  0  0  0  0  0  0  0  0  0  0
  161.0040  209.9850  151.3700 C   0  0  0  0  0  3  0  0  0  0  0  0
  161.1710  208.0820  155.2470 C   0  0  1  0  0  3  0  0  0  0  0  0
  159.8560  207.4380  155.6530 C   0  0  0  0  0  2  0  0  0  0  0  0
  160.9960  206.5510  155.1950 C   0  0  1  0  0  3  0  0  0  0  0  0
  160.6540  205.9790  153.8200 C   0  0  0  0  0  2  0  0  0  0  0  0
  161.4070  204.6800  153.5810 C   0  0  0  0  0  2  0  0  0  0  0  0
  162.3680  204.5430  151.4190 F   0  0  0  0  0  0  0  0  0  0  0  0
  161.2410  204.2050  152.1460 C   0  0  1  0  0  3  0  0  0  0  0  0
  162.1060  201.8850  151.7910 O   0  0  0  0  0  0  0  0  0  0  0  0
  159.8960  202.2440  152.2830 O   0  0  0  0  0  1  0  0  0  0  0  0
  161.0400  202.7280  152.0840 C   0  0  0  0  0  0  0  0  0  0  0  0
  162.0970  207.3340  149.6130 N   0  0  0  0  0  0  0  0  0  0  0  0
  162.9800  207.0370  150.6390 O   0  0  0  0  0  0  0  0  0  0  0  0
  162.7100  208.3600  150.4560 C   0  0  2  0  0  3  0  0  0  0  0  0
  160.7840  206.8670  150.0640 C   0  0  0  0  0  2  0  0  0  0  0  0
  160.2390  205.8310  149.0960 C   0  0  0  0  0  2  0  0  0  0  0  0
  161.2890  205.4020  148.1850 N   0  0  0  0  0  2  0  0  0  0  0  0
  160.4180  206.9440  146.2320 S   0  0  0  0  0  0  0  0  0  0  0  0
  161.3490  205.7260  146.7900 C   0  0  0  0  0  0  0  0  0  0  0  0
  162.2480  205.0800  145.8800 N   0  0  0  0  0  2  0  0  0  0  0  0
  162.2580  203.6530  145.6020 C   0  0  0  0  0  2  0  0  0  0  0  0
  160.9810  203.0100  146.1340 C   0  0  1  0  0  3  0  0  0  0  0  0
  160.0280  202.8060  145.0530 N   0  0  0  0  0  2  0  0  0  0  0  0
  160.0140  201.3830  144.7580 C   0  0  0  0  0  1  0  0  0  0  0  0
  161.2560  201.6950  146.8690 C   0  0  0  0  0  2  0  0  0  0  0  0
  161.0540  201.8000  148.3460 C   0  0  0  0  0  0  0  0  0  0  0  0
  159.8110  201.5250  148.9000 O   0  0  0  0  0  0  0  0  0  0  0  0
  162.0160  202.1240  149.0880 O   0  0  0  0  0  1  0  0  0  0  0  0
  159.3100  211.6400  152.1190 C   0  0  0  0  0  2  0  0  0  0  0  0
  157.9150  214.2900  154.4140 O   0  0  0  0  0  0  0  0  0  0  0  0
  157.5470  211.4760  153.9310 C   0  0  0  0  0  2  0  0  0  0  0  0
  158.3780  213.7270  153.2020 C   0  0  1  0  0  3  0  0  0  0  0  0
  156.9510  212.1750  155.1500 C   0  0  0  0  0  0  0  0  0  0  0  0
  155.7500  211.5390  155.4700 O   0  0  0  0  0  1  0  0  0  0  0  0
  156.7040  213.6640  154.8060 C   0  0  1  0  0  3  0  0  0  0  0  0
  158.7500  212.2530  153.4000 C   0  0  2  0  0  3  0  0  0  0  0  0
  157.8310  212.0660  156.2290 O   0  0  0  0  0  1  0  0  0  0  0  0
  158.9900  214.0070  148.8060 N   0  0  0  0  0  0  0  0  0  0  0  0
  157.7250  214.1910  148.6160 C   0  0  0  0  0  0  0  0  0  0  0  0
  157.7960  213.9710  150.7460 C   0  0  0  0  0  0  0  0  0  0  0  0
  157.1430  214.3990  147.2650 C   0  0  0  0  0  1  0  0  0  0  0  0
  156.9450  214.1800  149.8010 N   0  0  0  0  0  0  0  0  0  0  0  0
  159.1900  213.8420  150.2380 C   0  0  0  0  0  2  0  0  0  0  0  0
  157.4100  213.9060  152.1190 N   0  0  0  0  0  2  0  0  0  0  0  0
  156.0630  214.4530  155.9630 C   0  0  2  0  0  3  0  0  0  0  0  0
  156.4050  213.8780  157.1870 O   0  0  0  0  0  1  0  0  0  0  0  0
  153.9710  214.0940  157.0660 O   0  0  0  0  0  1  0  0  0  0  0  0
  154.5460  214.4530  155.8470 C   0  0  0  0  0  2  0  0  0  0  0  0
  1  5  1  0  0  0  0
  4  2  1  0  0  0  0
  5  2  2  0  0  0  0
  5  3  1  0  0  0  0
  6  4  2  0  0  0  0
  7  6  1  0  0  0  0
  7  1  2  0  0  0  0
  8  2  1  6  0  0  0
  8  9  1  0  0  0  0
 10 11  1  6  0  0  0
 10  8  1  0  0  0  0
 10  9  1  0  0  0  0
 12 11  1  0  0  0  0
 14 13  1  6  0  0  0
 14 12  1  0  0  0  0
 15 17  2  0  0  0  0
 17 14  1  0  0  0  0
 17 16  1  0  0  0  0
 18 21  1  0  0  0  0
 18 20  1  0  0  0  0
 18 19  1  0  0  0  0
 20 19  1  0  0  0  0
 20  6  1  1  0  0  0
 22 21  1  0  0  0  0
 23 22  1  0  0  0  0
 24 25  2  0  0  0  0
 25 23  1  0  0  0  0
 26 25  1  0  0  0  0
 27 26  1  0  0  0  0
 28 27  1  6  0  0  0
 28 31  1  0  0  0  0
 29 28  1  0  0  0  0
 30 29  1  0  0  0  0
 31 32  1  0  0  0  0
 32 33  2  0  0  0  0
 32 34  1  0  0  0  0
 35  1  1  0  0  0  0
 36 41  1  0  0  0  0
 37 39  1  0  0  0  0
 38 50  1  6  0  0  0
 38 42  1  0  0  0  0
 38 36  1  0  0  0  0
 39 40  1  0  0  0  0
 39 43  1  0  0  0  0
 41 39  1  0  0  0  0
 41 51  1  1  0  0  0
 42 35  1  6  0  0  0
 42 37  1  0  0  0  0
 44 49  1  0  0  0  0
 45 44  2  0  0  0  0
 45 48  1  0  0  0  0
 46 50  1  0  0  0  0
 47 45  1  0  0  0  0
 48 46  2  0  0  0  0
 49 46  1  0  0  0  0
 51 52  1  1  0  0  0
 54 51  1  0  0  0  0
 54 53  1  0  0  0  0
M  END
>  <MODEL>
9

>  <REMARK>
 VINA RESULT:      -2.7      3.182      9.788
  Name = 
  21 active torsions:
  status: ('A' for Active; 'I' for Inactive)
    1  A    between atoms: C_1  and  C_35
    2  A    between atoms: C_2  and  C_6
    3  A    between atoms: C_5  and  C_8
    4  A    between atoms: C_5  and  C_48
    5  A    between atoms: N_12  and  C_38
    6  A    between atoms: N_12  and  C_44
    7  A    between atoms: C_17  and  C_41
    8  A    between atoms: C_17  and  C_51
    9  A    between atoms: N_18  and  C_42
   10  A    between atoms: C_19  and  N_31
   11  A    between atoms: C_21  and  C_43
   12  A    between atoms: C_21  and  C_47
   13  A    between atoms: C_23  and  C_37
   14  A    between atoms: C_23  and  C_47
   15  A    between atoms: N_27  and  C_48
   16  A    between atoms: C_35  and  C_46
   17  A    between atoms: N_36  and  C_44
   18  A    between atoms: N_36  and  C_54
   19  A    between atoms: C_38  and  C_42
   20  A    between atoms: C_45  and  C_50
   21  A    between atoms: C_48  and  C_54
                            x       y       z     vdW  Elec       q    Type
                         _______ _______ _______ _____ _____    ______ ____

>  <TORSDO>
F 21

$$$$
