=
 OpenBabel11072412243D

 27 32  0  0  1  0  0  0  0  0999 V2000
  160.7040  209.3600  154.5680 C   0  0  0  0  0  0  0  0  0  0  0  0
  160.9190  210.3970  153.7340 N   0  0  0  0  0  0  0  0  0  0  0  0
  160.8710  205.3660  153.9530 Cl  0  0  0  0  0  0  0  0  0  0  0  0
  160.8660  208.1410  153.9530 C   0  0  0  0  0  0  0  0  0  0  0  0
  162.4250  207.1890  148.0890 C   0  0  1  0  0  3  0  0  0  0  0  0
  161.8360  210.1700  150.1950 N   0  0  0  0  0  0  0  0  0  0  0  0
  161.2090  208.3860  152.6380 C   0  0  0  0  0  0  0  0  0  0  0  0
  161.8110  207.6980  150.3440 C   0  0  0  0  0  0  0  0  0  0  0  0
  161.2310  209.8430  152.5410 C   0  0  0  0  0  0  0  0  0  0  0  0
  161.0700  206.5160  148.2900 C   0  0  2  0  0  3  0  0  0  0  0  0
  160.3540  209.4580  155.9110 C   0  0  0  0  0  3  0  0  0  0  0  0
  161.5140  210.6200  151.4320 C   0  0  0  0  0  3  0  0  0  0  0  0
  162.3100  208.7040  148.2700 C   0  0  0  0  0  2  0  0  0  0  0  0
  160.6810  206.9550  154.6760 C   0  0  0  0  0  0  0  0  0  0  0  0
  160.1730  208.2580  156.6180 C   0  0  0  0  0  3  0  0  0  0  0  0
  160.3380  207.0510  155.9940 N   0  0  0  0  0  0  0  0  0  0  0  0
  161.4700  207.4440  151.6630 C   0  0  0  0  0  3  0  0  0  0  0  0
  161.9760  208.9130  149.7000 C   0  0  0  0  0  0  0  0  0  0  0  0
  162.0820  206.5550  149.4310 C   0  0  1  0  0  3  0  0  0  0  0  0
  161.5040  204.7550  146.2800 C   0  0  0  0  0  0  0  0  0  0  0  0
  161.2530  202.7310  148.3180 C   0  0  0  0  0  3  0  0  0  0  0  0
  160.9560  205.0940  147.6970 C   0  0  1  0  0  3  0  0  0  0  0  0
  160.8490  205.6410  145.2350 C   0  0  0  0  0  1  0  0  0  0  0  0
  163.0140  204.9260  146.2070 C   0  0  0  0  0  1  0  0  0  0  0  0
  161.1850  203.3210  145.9440 C   0  0  0  0  0  3  0  0  0  0  0  0
  161.1080  202.3780  146.8920 C   0  0  0  0  0  3  0  0  0  0  0  0
  161.2160  204.0060  148.7090 C   0  0  0  0  0  3  0  0  0  0  0  0
  1 11  1  0  0  0  0
  2  1  1  0  0  0  0
  3 14  1  0  0  0  0
  4  1  2  0  0  0  0
  4 14  1  0  0  0  0
  5 13  1  1  0  0  0
  5 10  1  0  0  0  0
  5 19  1  0  0  0  0
  6 12  2  0  0  0  0
  7  4  1  0  0  0  0
  8 17  1  0  0  0  0
  9  7  1  0  0  0  0
  9  2  2  0  0  0  0
 10 22  1  6  0  0  0
 10 19  1  0  0  0  0
 11 15  2  0  0  0  0
 12  9  1  0  0  0  0
 13 18  1  0  0  0  0
 14 16  2  0  0  0  0
 16 15  1  0  0  0  0
 17  7  2  0  0  0  0
 18  6  1  0  0  0  0
 18  8  2  0  0  0  0
 19  8  1  1  0  0  0
 20 22  1  0  0  0  0
 21 27  2  0  0  0  0
 22 27  1  1  0  0  0
 23 20  1  0  0  0  0
 24 20  1  0  0  0  0
 25 20  1  0  0  0  0
 25 26  2  0  0  0  0
 26 21  1  0  0  0  0
M  END
>  <MODEL>
1

>  <REMARK>
 VINA RESULT:     -10.7      0.000      0.000
  Name = 
  1 active torsions:
  status: ('A' for Active; 'I' for Inactive)
    1  A    between atoms: C_12  and  C_13
                            x       y       z     vdW  Elec       q    Type
                         _______ _______ _______ _____ _____    ______ ____

>  <TORSDO>
F 1

$$$$
=
 OpenBabel11072412243D

 27 32  0  0  1  0  0  0  0  0999 V2000
  161.6970  204.5090  147.4940 C   0  0  0  0  0  0  0  0  0  0  0  0
  162.1360  205.7100  147.0690 N   0  0  0  0  0  0  0  0  0  0  0  0
  160.0820  203.3540  151.0180 Cl  0  0  0  0  0  0  0  0  0  0  0  0
  161.2120  204.5440  148.7800 C   0  0  0  0  0  0  0  0  0  0  0  0
  160.9150  209.4720  152.4340 C   0  0  1  0  0  3  0  0  0  0  0  0
  162.1170  208.8240  148.9990 N   0  0  0  0  0  0  0  0  0  0  0  0
  161.3380  205.8430  149.2310 C   0  0  0  0  0  0  0  0  0  0  0  0
  161.0990  207.6320  150.9170 C   0  0  0  0  0  0  0  0  0  0  0  0
  161.9330  206.5560  148.1040 C   0  0  0  0  0  0  0  0  0  0  0  0
  161.7830  208.4480  153.1600 C   0  0  2  0  0  3  0  0  0  0  0  0
  161.7100  203.3310  146.7530 C   0  0  0  0  0  3  0  0  0  0  0  0
  162.2760  207.8930  148.0260 C   0  0  0  0  0  3  0  0  0  0  0  0
  161.5860  209.9290  151.1370 C   0  0  0  0  0  2  0  0  0  0  0  0
  160.7140  203.3800  149.3800 C   0  0  0  0  0  0  0  0  0  0  0  0
  161.2060  202.1760  147.3720 C   0  0  0  0  0  3  0  0  0  0  0  0
  160.7270  202.2250  148.6530 N   0  0  0  0  0  0  0  0  0  0  0  0
  160.9690  206.3270  150.4700 C   0  0  0  0  0  3  0  0  0  0  0  0
  161.6080  208.7380  150.2550 C   0  0  0  0  0  0  0  0  0  0  0  0
  160.6250  207.9840  152.2820 C   0  0  1  0  0  3  0  0  0  0  0  0
  161.2800  209.4800  155.6120 C   0  0  0  0  0  0  0  0  0  0  0  0
  159.9990  206.9530  156.1500 C   0  0  0  0  0  3  0  0  0  0  0  0
  161.4540  208.2630  154.6580 C   0  0  1  0  0  3  0  0  0  0  0  0
  162.5360  210.3310  155.6160 C   0  0  0  0  0  1  0  0  0  0  0  0
  160.0920  210.3420  155.2090 C   0  0  0  0  0  1  0  0  0  0  0  0
  161.0410  208.9910  157.0170 C   0  0  0  0  0  3  0  0  0  0  0  0
  160.4110  207.8350  157.2600 C   0  0  0  0  0  3  0  0  0  0  0  0
  160.4560  207.1610  154.9140 C   0  0  0  0  0  3  0  0  0  0  0  0
  1  4  1  0  0  0  0
  2  1  2  0  0  0  0
  2  9  1  0  0  0  0
  4  7  2  0  0  0  0
  4 14  1  0  0  0  0
  5 13  1  6  0  0  0
  5 10  1  0  0  0  0
  6 18  2  0  0  0  0
  7 17  1  0  0  0  0
  9  7  1  0  0  0  0
 10 22  1  1  0  0  0
 11 15  2  0  0  0  0
 11  1  1  0  0  0  0
 12  9  2  0  0  0  0
 12  6  1  0  0  0  0
 14  3  1  0  0  0  0
 15 16  1  0  0  0  0
 16 14  2  0  0  0  0
 17  8  2  0  0  0  0
 18  8  1  0  0  0  0
 18 13  1  0  0  0  0
 19  8  1  6  0  0  0
 19  5  1  0  0  0  0
 19 10  1  0  0  0  0
 20 23  1  0  0  0  0
 20 25  1  0  0  0  0
 21 26  1  0  0  0  0
 22 27  1  6  0  0  0
 22 20  1  0  0  0  0
 24 20  1  0  0  0  0
 25 26  2  0  0  0  0
 27 21  2  0  0  0  0
M  END
>  <MODEL>
2

>  <REMARK>
 VINA RESULT:     -10.2      2.255      7.591
  Name = 
  1 active torsions:
  status: ('A' for Active; 'I' for Inactive)
    1  A    between atoms: C_12  and  C_13
                            x       y       z     vdW  Elec       q    Type
                         _______ _______ _______ _____ _____    ______ ____

>  <TORSDO>
F 1

$$$$
=
 OpenBabel11072412243D

 27 32  0  0  1  0  0  0  0  0999 V2000
  161.2060  203.6220  146.9930 C   0  0  0  0  0  0  0  0  0  0  0  0
  160.9430  202.6370  147.8750 N   0  0  0  0  0  0  0  0  0  0  0  0
  162.1220  207.5230  147.5460 Cl  0  0  0  0  0  0  0  0  0  0  0  0
  161.4750  204.8240  147.6030 C   0  0  0  0  0  0  0  0  0  0  0  0
  161.5810  205.9080  153.6470 C   0  0  1  0  0  3  0  0  0  0  0  0
  160.9050  202.9580  151.5240 N   0  0  0  0  0  0  0  0  0  0  0  0
  161.3860  204.6230  148.9660 C   0  0  0  0  0  0  0  0  0  0  0  0
  161.4940  205.3560  151.3220 C   0  0  0  0  0  0  0  0  0  0  0  0
  161.0440  203.2090  149.0960 C   0  0  0  0  0  0  0  0  0  0  0  0
  160.5240  206.8390  153.0600 C   0  0  2  0  0  3  0  0  0  0  0  0
  161.2160  203.4890  145.6080 C   0  0  0  0  0  3  0  0  0  0  0  0
  160.8310  202.4860  150.2560 C   0  0  0  0  0  3  0  0  0  0  0  0
  161.1710  204.4440  153.4730 C   0  0  0  0  0  2  0  0  0  0  0  0
  161.7700  205.9570  146.8320 C   0  0  0  0  0  0  0  0  0  0  0  0
  161.5140  204.6360  144.8540 C   0  0  0  0  0  3  0  0  0  0  0  0
  161.7800  205.8270  145.4740 N   0  0  0  0  0  0  0  0  0  0  0  0
  161.5870  205.5650  149.9550 C   0  0  0  0  0  3  0  0  0  0  0  0
  161.1940  204.1920  152.0120 C   0  0  0  0  0  0  0  0  0  0  0  0
  161.7670  206.4850  152.2500 C   0  0  1  0  0  3  0  0  0  0  0  0
  160.5780  208.6320  155.0880 C   0  0  0  0  0  0  0  0  0  0  0  0
  161.7730  210.4150  153.1620 C   0  0  0  0  0  3  0  0  0  0  0  0
  160.5880  208.2970  153.5690 C   0  0  1  0  0  3  0  0  0  0  0  0
  159.3310  208.0700  155.7460 C   0  0  0  0  0  1  0  0  0  0  0  0
  161.8090  208.0780  155.7910 C   0  0  0  0  0  1  0  0  0  0  0  0
  160.5730  210.1270  155.2760 C   0  0  0  0  0  3  0  0  0  0  0  0
  161.1630  210.9470  154.3970 C   0  0  0  0  0  3  0  0  0  0  0  0
  161.5370  209.1600  152.7760 C   0  0  0  0  0  3  0  0  0  0  0  0
  1  4  1  0  0  0  0
  1  2  2  0  0  0  0
  2  9  1  0  0  0  0
  4  7  2  0  0  0  0
  5 13  1  6  0  0  0
  6 18  2  0  0  0  0
  7  9  1  0  0  0  0
  7 17  1  0  0  0  0
  8 18  1  0  0  0  0
  9 12  2  0  0  0  0
 10 22  1  1  0  0  0
 10  5  1  0  0  0  0
 11  1  1  0  0  0  0
 12  6  1  0  0  0  0
 14  3  1  0  0  0  0
 14  4  1  0  0  0  0
 15 16  1  0  0  0  0
 15 11  2  0  0  0  0
 16 14  2  0  0  0  0
 17  8  2  0  0  0  0
 18 13  1  0  0  0  0
 19  8  1  6  0  0  0
 19 10  1  0  0  0  0
 19  5  1  0  0  0  0
 20 25  1  0  0  0  0
 20 23  1  0  0  0  0
 20 24  1  0  0  0  0
 21 26  1  0  0  0  0
 22 27  1  1  0  0  0
 22 20  1  0  0  0  0
 26 25  2  0  0  0  0
 27 21  2  0  0  0  0
M  END
>  <MODEL>
3

>  <REMARK>
 VINA RESULT:      -9.5      2.992      8.313
  Name = 
  1 active torsions:
  status: ('A' for Active; 'I' for Inactive)
    1  A    between atoms: C_12  and  C_13
                            x       y       z     vdW  Elec       q    Type
                         _______ _______ _______ _____ _____    ______ ____

>  <TORSDO>
F 1

$$$$
=
 OpenBabel11072412243D

 27 32  0  0  1  0  0  0  0  0999 V2000
  161.3000  203.9860  149.3590 C   0  0  0  0  0  0  0  0  0  0  0  0
  161.3010  203.5760  150.6420 N   0  0  0  0  0  0  0  0  0  0  0  0
  161.1240  207.6900  147.7430 Cl  0  0  0  0  0  0  0  0  0  0  0  0
  161.2280  205.3540  149.2370 C   0  0  0  0  0  0  0  0  0  0  0  0
  160.9600  209.4170  153.8350 C   0  0  1  0  0  3  0  0  0  0  0  0
  161.1320  205.7320  153.6000 N   0  0  0  0  0  0  0  0  0  0  0  0
  161.1790  205.8780  150.5140 C   0  0  0  0  0  0  0  0  0  0  0  0
  161.0550  207.7320  152.1410 C   0  0  0  0  0  0  0  0  0  0  0  0
  161.2280  204.7050  151.3820 C   0  0  0  0  0  0  0  0  0  0  0  0
  159.6990  209.6250  153.0020 C   0  0  2  0  0  3  0  0  0  0  0  0
  161.3630  203.1590  148.2420 C   0  0  0  0  0  3  0  0  0  0  0  0
  161.2030  204.6660  152.7650 C   0  0  0  0  0  3  0  0  0  0  0  0
  160.9620  208.0290  154.4780 C   0  0  0  0  0  2  0  0  0  0  0  0
  161.2170  205.9510  147.9690 C   0  0  0  0  0  0  0  0  0  0  0  0
  161.3510  203.7760  146.9810 C   0  0  0  0  0  3  0  0  0  0  0  0
  161.2790  205.1390  146.8750 N   0  0  0  0  0  0  0  0  0  0  0  0
  161.1060  207.2130  150.8570 C   0  0  0  0  0  3  0  0  0  0  0  0
  161.0710  207.0660  153.3560 C   0  0  0  0  0  0  0  0  0  0  0  0
  161.0020  209.2070  152.3270 C   0  0  1  0  0  3  0  0  0  0  0  0
  158.8840  212.0790  153.8020 C   0  0  0  0  0  0  0  0  0  0  0  0
  160.2120  213.0340  151.4280 C   0  0  0  0  0  3  0  0  0  0  0  0
  159.3610  211.1010  152.6910 C   0  0  1  0  0  3  0  0  0  0  0  0
  157.6270  211.5490  154.4690 C   0  0  0  0  0  1  0  0  0  0  0  0
  159.9580  212.2950  154.8580 C   0  0  0  0  0  1  0  0  0  0  0  0
  158.5600  213.4190  153.1920 C   0  0  0  0  0  3  0  0  0  0  0  0
  159.2080  213.8730  152.1120 C   0  0  0  0  0  3  0  0  0  0  0  0
  160.3180  211.7350  151.7130 C   0  0  0  0  0  3  0  0  0  0  0  0
  1  2  2  0  0  0  0
  2  9  1  0  0  0  0
  3 14  1  0  0  0  0
  4  1  1  0  0  0  0
  4  7  2  0  0  0  0
  5 13  1  1  0  0  0
  7 17  1  0  0  0  0
  7  9  1  0  0  0  0
  8 18  1  0  0  0  0
  9 12  2  0  0  0  0
 10 22  1  6  0  0  0
 10  5  1  0  0  0  0
 11  1  1  0  0  0  0
 12  6  1  0  0  0  0
 14  4  1  0  0  0  0
 15 11  2  0  0  0  0
 16 15  1  0  0  0  0
 16 14  2  0  0  0  0
 17  8  2  0  0  0  0
 18  6  2  0  0  0  0
 18 13  1  0  0  0  0
 19  8  1  1  0  0  0
 19 10  1  0  0  0  0
 19  5  1  0  0  0  0
 20 23  1  0  0  0  0
 20 24  1  0  0  0  0
 21 27  2  0  0  0  0
 21 26  1  0  0  0  0
 22 27  1  1  0  0  0
 22 20  1  0  0  0  0
 25 20  1  0  0  0  0
 26 25  2  0  0  0  0
M  END
>  <MODEL>
4

>  <REMARK>
 VINA RESULT:      -9.4      3.023      8.065
  Name = 
  1 active torsions:
  status: ('A' for Active; 'I' for Inactive)
    1  A    between atoms: C_12  and  C_13
                            x       y       z     vdW  Elec       q    Type
                         _______ _______ _______ _____ _____    ______ ____

>  <TORSDO>
F 1

$$$$
=
 OpenBabel11072412243D

 27 32  0  0  1  0  0  0  0  0999 V2000
  161.2060  204.0110  147.0080 C   0  0  0  0  0  0  0  0  0  0  0  0
  160.7220  203.0470  147.8140 N   0  0  0  0  0  0  0  0  0  0  0  0
  162.7890  207.6390  147.8430 Cl  0  0  0  0  0  0  0  0  0  0  0  0
  161.6580  205.1090  147.7030 C   0  0  0  0  0  0  0  0  0  0  0  0
  161.6360  205.8280  153.8020 C   0  0  1  0  0  3  0  0  0  0  0  0
  160.5470  203.1740  151.4720 N   0  0  0  0  0  0  0  0  0  0  0  0
  161.4600  204.8550  149.0460 C   0  0  0  0  0  0  0  0  0  0  0  0
  161.5740  205.4270  151.4450 C   0  0  0  0  0  0  0  0  0  0  0  0
  160.8590  203.5240  149.0720 C   0  0  0  0  0  0  0  0  0  0  0  0
  160.8000  206.9700  153.2300 C   0  0  2  0  0  3  0  0  0  0  0  0
  161.2660  203.9540  145.6190 C   0  0  0  0  0  3  0  0  0  0  0  0
  160.4560  202.7920  150.1740 C   0  0  0  0  0  3  0  0  0  0  0  0
  160.9760  204.4780  153.5190 C   0  0  0  0  0  2  0  0  0  0  0  0
  162.1960  206.2060  147.0180 C   0  0  0  0  0  0  0  0  0  0  0  0
  161.8090  205.0640  144.9520 C   0  0  0  0  0  3  0  0  0  0  0  0
  162.2540  206.1500  145.6560 N   0  0  0  0  0  0  0  0  0  0  0  0
  161.7770  205.6880  150.0990 C   0  0  0  0  0  3  0  0  0  0  0  0
  161.0310  204.3040  152.0480 C   0  0  0  0  0  0  0  0  0  0  0  0
  161.9990  206.4350  152.4530 C   0  0  1  0  0  3  0  0  0  0  0  0
  161.0900  209.6470  152.9550 C   0  0  0  0  0  0  0  0  0  0  0  0
  160.5770  209.7550  155.7900 C   0  0  0  0  0  3  0  0  0  0  0  0
  161.1020  208.3610  153.8310 C   0  0  1  0  0  3  0  0  0  0  0  0
  162.0830  209.5190  151.8140 C   0  0  0  0  0  1  0  0  0  0  0  0
  159.7070  209.9260  152.3860 C   0  0  0  0  0  1  0  0  0  0  0  0
  161.4920  210.8340  153.7930 C   0  0  0  0  0  3  0  0  0  0  0  0
  161.2160  210.8930  155.1020 C   0  0  0  0  0  3  0  0  0  0  0  0
  160.4870  208.5650  155.1920 C   0  0  0  0  0  3  0  0  0  0  0  0
  1  4  1  0  0  0  0
  1  2  2  0  0  0  0
  2  9  1  0  0  0  0
  4  7  2  0  0  0  0
  5 13  1  6  0  0  0
  6 18  2  0  0  0  0
  7  9  1  0  0  0  0
  7 17  1  0  0  0  0
  8 18  1  0  0  0  0
  9 12  2  0  0  0  0
 10  5  1  0  0  0  0
 10 22  1  1  0  0  0
 11  1  1  0  0  0  0
 12  6  1  0  0  0  0
 14  4  1  0  0  0  0
 14  3  1  0  0  0  0
 15 11  2  0  0  0  0
 15 16  1  0  0  0  0
 16 14  2  0  0  0  0
 17  8  2  0  0  0  0
 18 13  1  0  0  0  0
 19  8  1  6  0  0  0
 19 10  1  0  0  0  0
 19  5  1  0  0  0  0
 20 25  1  0  0  0  0
 20 22  1  0  0  0  0
 22 27  1  1  0  0  0
 23 20  1  0  0  0  0
 24 20  1  0  0  0  0
 25 26  2  0  0  0  0
 26 21  1  0  0  0  0
 27 21  2  0  0  0  0
M  END
>  <MODEL>
5

>  <REMARK>
 VINA RESULT:      -9.3      2.907      8.066
  Name = 
  1 active torsions:
  status: ('A' for Active; 'I' for Inactive)
    1  A    between atoms: C_12  and  C_13
                            x       y       z     vdW  Elec       q    Type
                         _______ _______ _______ _____ _____    ______ ____

>  <TORSDO>
F 1

$$$$
=
 OpenBabel11072412243D

 27 32  0  0  1  0  0  0  0  0999 V2000
  161.3720  205.0220  148.9770 C   0  0  0  0  0  0  0  0  0  0  0  0
  161.1270  204.1880  150.0060 N   0  0  0  0  0  0  0  0  0  0  0  0
  161.9560  209.0240  148.8680 Cl  0  0  0  0  0  0  0  0  0  0  0  0
  161.5100  206.3310  149.3750 C   0  0  0  0  0  0  0  0  0  0  0  0
  161.1470  208.4560  155.1250 C   0  0  1  0  0  3  0  0  0  0  0  0
  160.8310  205.1350  153.5330 N   0  0  0  0  0  0  0  0  0  0  0  0
  161.3490  206.3640  150.7450 C   0  0  0  0  0  0  0  0  0  0  0  0
  161.2510  207.5020  152.9350 C   0  0  0  0  0  0  0  0  0  0  0  0
  161.1060  204.9710  151.1090 C   0  0  0  0  0  0  0  0  0  0  0  0
  160.0630  209.1780  154.3290 C   0  0  2  0  0  3  0  0  0  0  0  0
  161.4800  204.6520  147.6400 C   0  0  0  0  0  3  0  0  0  0  0  0
  160.8740  204.4450  152.3670 C   0  0  0  0  0  3  0  0  0  0  0  0
  160.8600  206.9550  155.1950 C   0  0  0  0  0  2  0  0  0  0  0  0
  161.7690  207.3330  148.4290 C   0  0  0  0  0  0  0  0  0  0  0  0
  161.7400  205.6710  146.7090 C   0  0  0  0  0  3  0  0  0  0  0  0
  161.8760  206.9700  147.1180 N   0  0  0  0  0  0  0  0  0  0  0  0
  161.4150  207.4770  151.5590 C   0  0  0  0  0  3  0  0  0  0  0  0
  160.9950  206.4550  153.8060 C   0  0  0  0  0  0  0  0  0  0  0  0
  161.3780  208.7950  153.6580 C   0  0  1  0  0  3  0  0  0  0  0  0
  158.8910  211.5800  153.8960 C   0  0  0  0  0  0  0  0  0  0  0  0
  160.1240  212.3620  156.3830 C   0  0  0  0  0  3  0  0  0  0  0  0
  159.9840  210.7020  154.5710 C   0  0  1  0  0  3  0  0  0  0  0  0
  158.9700  211.4530  152.3860 C   0  0  0  0  0  1  0  0  0  0  0  0
  157.4950  211.1910  154.3600 C   0  0  0  0  0  1  0  0  0  0  0  0
  159.1100  213.0270  154.2560 C   0  0  0  0  0  3  0  0  0  0  0  0
  159.6490  213.3840  155.4300 C   0  0  0  0  0  3  0  0  0  0  0  0
  160.2570  211.0900  156.0030 C   0  0  0  0  0  3  0  0  0  0  0  0
  1  4  1  0  0  0  0
  1  2  2  0  0  0  0
  2  9  1  0  0  0  0
  4  7  2  0  0  0  0
  5 13  1  6  0  0  0
  6 18  2  0  0  0  0
  7  9  1  0  0  0  0
  7 17  1  0  0  0  0
  8 18  1  0  0  0  0
  9 12  2  0  0  0  0
 10 22  1  1  0  0  0
 10  5  1  0  0  0  0
 11  1  1  0  0  0  0
 12  6  1  0  0  0  0
 14  3  1  0  0  0  0
 14  4  1  0  0  0  0
 15 16  1  0  0  0  0
 15 11  2  0  0  0  0
 16 14  2  0  0  0  0
 17  8  2  0  0  0  0
 18 13  1  0  0  0  0
 19  8  1  6  0  0  0
 19 10  1  0  0  0  0
 19  5  1  0  0  0  0
 20 25  1  0  0  0  0
 20 24  1  0  0  0  0
 20 22  1  0  0  0  0
 22 27  1  1  0  0  0
 23 20  1  0  0  0  0
 25 26  2  0  0  0  0
 26 21  1  0  0  0  0
 27 21  2  0  0  0  0
M  END
>  <MODEL>
6

>  <REMARK>
 VINA RESULT:      -9.2      2.782      8.272
  Name = 
  1 active torsions:
  status: ('A' for Active; 'I' for Inactive)
    1  A    between atoms: C_12  and  C_13
                            x       y       z     vdW  Elec       q    Type
                         _______ _______ _______ _____ _____    ______ ____

>  <TORSDO>
F 1

$$$$
=
 OpenBabel11072412243D

 27 32  0  0  1  0  0  0  0  0999 V2000
  161.2070  203.7620  148.6110 C   0  0  0  0  0  0  0  0  0  0  0  0
  161.2040  203.1200  149.7950 N   0  0  0  0  0  0  0  0  0  0  0  0
  161.2230  207.7070  147.7160 Cl  0  0  0  0  0  0  0  0  0  0  0  0
  161.2130  205.1300  148.7470 C   0  0  0  0  0  0  0  0  0  0  0  0
  161.2540  208.2710  154.0250 C   0  0  1  0  0  3  0  0  0  0  0  0
  161.2060  204.6910  153.1050 N   0  0  0  0  0  0  0  0  0  0  0  0
  161.2140  205.4080  150.1000 C   0  0  0  0  0  0  0  0  0  0  0  0
  161.2240  206.9300  152.0450 C   0  0  0  0  0  0  0  0  0  0  0  0
  161.2080  204.0930  150.7340 C   0  0  0  0  0  0  0  0  0  0  0  0
  159.9940  208.7000  153.2770 C   0  0  2  0  0  3  0  0  0  0  0  0
  161.2040  203.1550  147.3590 C   0  0  0  0  0  3  0  0  0  0  0  0
  161.2030  203.7980  152.0850 C   0  0  0  0  0  3  0  0  0  0  0  0
  161.1850  206.7900  154.3990 C   0  0  0  0  0  2  0  0  0  0  0  0
  161.2170  205.9530  147.6130 C   0  0  0  0  0  0  0  0  0  0  0  0
  161.2090  203.9970  146.2350 C   0  0  0  0  0  3  0  0  0  0  0  0
  161.2140  205.3580  146.3850 N   0  0  0  0  0  0  0  0  0  0  0  0
  161.2240  206.6580  150.6860 C   0  0  0  0  0  3  0  0  0  0  0  0
  161.2200  206.0490  153.1150 C   0  0  0  0  0  0  0  0  0  0  0  0
  161.2600  208.3450  152.5030 C   0  0  1  0  0  3  0  0  0  0  0  0
  159.8050  211.0810  154.5520 C   0  0  0  0  0  0  0  0  0  0  0  0
  160.2950  212.2390  151.9570 C   0  0  0  0  0  3  0  0  0  0  0  0
  159.7380  210.2240  153.2550 C   0  0  1  0  0  3  0  0  0  0  0  0
  158.8200  210.5600  155.5810 C   0  0  0  0  0  1  0  0  0  0  0  0
  161.2040  211.0810  155.1520 C   0  0  0  0  0  1  0  0  0  0  0  0
  159.4400  212.5080  154.2340 C   0  0  0  0  0  3  0  0  0  0  0  0
  159.7050  213.0510  153.0390 C   0  0  0  0  0  3  0  0  0  0  0  0
  160.3470  210.9100  152.0580 C   0  0  0  0  0  3  0  0  0  0  0  0
  1  4  1  0  0  0  0
  1  2  2  0  0  0  0
  2  9  1  0  0  0  0
  4  7  2  0  0  0  0
  5 13  1  6  0  0  0
  6 18  2  0  0  0  0
  7 17  1  0  0  0  0
  7  9  1  0  0  0  0
  8 18  1  0  0  0  0
  9 12  2  0  0  0  0
 10 22  1  1  0  0  0
 10  5  1  0  0  0  0
 11  1  1  0  0  0  0
 12  6  1  0  0  0  0
 14  3  1  0  0  0  0
 14  4  1  0  0  0  0
 15 16  1  0  0  0  0
 15 11  2  0  0  0  0
 16 14  2  0  0  0  0
 17  8  2  0  0  0  0
 18 13  1  0  0  0  0
 19  8  1  6  0  0  0
 19 10  1  0  0  0  0
 19  5  1  0  0  0  0
 20 24  1  0  0  0  0
 20 23  1  0  0  0  0
 21 27  2  0  0  0  0
 21 26  1  0  0  0  0
 22 27  1  6  0  0  0
 22 20  1  0  0  0  0
 25 20  1  0  0  0  0
 26 25  2  0  0  0  0
M  END
>  <MODEL>
7

>  <REMARK>
 VINA RESULT:      -9.1      2.855      8.148
  Name = 
  1 active torsions:
  status: ('A' for Active; 'I' for Inactive)
    1  A    between atoms: C_12  and  C_13
                            x       y       z     vdW  Elec       q    Type
                         _______ _______ _______ _____ _____    ______ ____

>  <TORSDO>
F 1

$$$$
=
 OpenBabel11072412243D

 27 32  0  0  1  0  0  0  0  0999 V2000
  161.3450  208.5540  154.5550 C   0  0  0  0  0  0  0  0  0  0  0  0
  161.3890  207.2550  154.9110 N   0  0  0  0  0  0  0  0  0  0  0  0
  160.8210  210.3140  150.9510 Cl  0  0  0  0  0  0  0  0  0  0  0  0
  161.1450  208.7290  153.2060 C   0  0  0  0  0  0  0  0  0  0  0  0
  160.4620  204.2940  149.0120 C   0  0  1  0  0  3  0  0  0  0  0  0
  161.0390  204.3840  152.6620 N   0  0  0  0  0  0  0  0  0  0  0  0
  161.0520  207.4740  152.6380 C   0  0  0  0  0  0  0  0  0  0  0  0
  160.7550  205.9210  150.7410 C   0  0  0  0  0  0  0  0  0  0  0  0
  161.2130  206.5590  153.7650 C   0  0  0  0  0  0  0  0  0  0  0  0
  161.6790  205.1090  148.5840 C   0  0  2  0  0  3  0  0  0  0  0  0
  161.4810  209.6370  155.4180 C   0  0  0  0  0  3  0  0  0  0  0  0
  161.2060  205.1760  153.7490 C   0  0  0  0  0  3  0  0  0  0  0  0
  160.7200  203.5960  150.3480 C   0  0  0  0  0  2  0  0  0  0  0  0
  161.0730  210.0190  152.6640 C   0  0  0  0  0  0  0  0  0  0  0  0
  161.4050  210.9210  154.8550 C   0  0  0  0  0  3  0  0  0  0  0  0
  161.2060  211.0810  153.5110 N   0  0  0  0  0  0  0  0  0  0  0  0
  160.8460  207.1840  151.3040 C   0  0  0  0  0  3  0  0  0  0  0  0
  160.8380  204.6800  151.3520 C   0  0  0  0  0  0  0  0  0  0  0  0
  160.5070  205.7930  149.2800 C   0  0  1  0  0  3  0  0  0  0  0  0
  162.3680  204.5220  146.0330 C   0  0  0  0  0  0  0  0  0  0  0  0
  160.3100  206.4010  145.2960 C   0  0  0  0  0  3  0  0  0  0  0  0
  161.7240  205.4720  147.0830 C   0  0  1  0  0  3  0  0  0  0  0  0
  163.8190  204.2500  146.3860 C   0  0  0  0  0  1  0  0  0  0  0  0
  161.6190  203.2000  145.9390 C   0  0  0  0  0  1  0  0  0  0  0  0
  162.3310  205.1700  144.6730 C   0  0  0  0  0  3  0  0  0  0  0  0
  161.3500  206.0130  144.3240 C   0  0  0  0  0  3  0  0  0  0  0  0
  160.4560  206.1250  146.5930 C   0  0  0  0  0  3  0  0  0  0  0  0
  1  2  1  0  0  0  0
  1 11  1  0  0  0  0
  3 14  1  0  0  0  0
  4  1  2  0  0  0  0
  5 19  1  0  0  0  0
  5 13  1  1  0  0  0
  6 12  2  0  0  0  0
  7  4  1  0  0  0  0
  7  9  1  0  0  0  0
  8 17  1  0  0  0  0
  8 18  2  0  0  0  0
  9  2  2  0  0  0  0
 10 22  1  6  0  0  0
 10  5  1  0  0  0  0
 10 19  1  0  0  0  0
 12  9  1  0  0  0  0
 13 18  1  0  0  0  0
 14  4  1  0  0  0  0
 14 16  2  0  0  0  0
 15 11  2  0  0  0  0
 16 15  1  0  0  0  0
 17  7  2  0  0  0  0
 18  6  1  0  0  0  0
 19  8  1  1  0  0  0
 20 23  1  0  0  0  0
 20 22  1  0  0  0  0
 21 27  2  0  0  0  0
 22 27  1  6  0  0  0
 24 20  1  0  0  0  0
 25 20  1  0  0  0  0
 26 25  2  0  0  0  0
 26 21  1  0  0  0  0
M  END
>  <MODEL>
8

>  <REMARK>
 VINA RESULT:      -9.0      1.941      3.560
  Name = 
  1 active torsions:
  status: ('A' for Active; 'I' for Inactive)
    1  A    between atoms: C_12  and  C_13
                            x       y       z     vdW  Elec       q    Type
                         _______ _______ _______ _____ _____    ______ ____

>  <TORSDO>
F 1

$$$$
=
 OpenBabel11072412243D

 27 32  0  0  1  0  0  0  0  0999 V2000
  161.0400  204.0260  149.1670 C   0  0  0  0  0  0  0  0  0  0  0  0
  160.8720  204.4430  150.4370 N   0  0  0  0  0  0  0  0  0  0  0  0
  162.0950  206.0360  145.8180 Cl  0  0  0  0  0  0  0  0  0  0  0  0
  161.4080  205.0430  148.3170 C   0  0  0  0  0  0  0  0  0  0  0  0
  162.2950  210.9270  149.8380 C   0  0  1  0  0  3  0  0  0  0  0  0
  161.3000  207.8700  151.6610 N   0  0  0  0  0  0  0  0  0  0  0  0
  161.4870  206.1990  149.0700 C   0  0  0  0  0  0  0  0  0  0  0  0
  161.9060  208.6130  149.3780 C   0  0  0  0  0  0  0  0  0  0  0  0
  161.1360  205.7690  150.4200 C   0  0  0  0  0  0  0  0  0  0  0  0
  161.1910  210.9160  148.7840 C   0  0  2  0  0  3  0  0  0  0  0  0
  160.8740  202.7220  148.7120 C   0  0  0  0  0  3  0  0  0  0  0  0
  161.0570  206.5400  151.5660 C   0  0  0  0  0  3  0  0  0  0  0  0
  161.8380  210.2110  151.1100 C   0  0  0  0  0  2  0  0  0  0  0  0
  161.6260  204.7840  146.9580 C   0  0  0  0  0  0  0  0  0  0  0  0
  161.0970  202.4830  147.3460 C   0  0  0  0  0  3  0  0  0  0  0  0
  161.4620  203.5050  146.5120 N   0  0  0  0  0  0  0  0  0  0  0  0
  161.8300  207.4570  148.6170 C   0  0  0  0  0  3  0  0  0  0  0  0
  161.6720  208.7870  150.7320 C   0  0  0  0  0  0  0  0  0  0  0  0
  162.3150  209.8860  148.7260 C   0  0  1  0  0  3  0  0  0  0  0  0
  160.3630  213.1700  147.5360 C   0  0  0  0  0  0  0  0  0  0  0  0
  163.0650  213.3280  146.5420 C   0  0  0  0  0  3  0  0  0  0  0  0
  161.3470  211.9720  147.6680 C   0  0  1  0  0  3  0  0  0  0  0  0
  158.9400  212.6700  147.3690 C   0  0  0  0  0  1  0  0  0  0  0  0
  160.4320  214.0880  148.7470 C   0  0  0  0  0  1  0  0  0  0  0  0
  160.7180  213.9850  146.3180 C   0  0  0  0  0  3  0  0  0  0  0  0
  161.9820  214.0840  145.8850 C   0  0  0  0  0  3  0  0  0  0  0  0
  162.7830  212.3520  147.4070 C   0  0  0  0  0  3  0  0  0  0  0  0
  1  2  2  0  0  0  0
  3 14  1  0  0  0  0
  4  7  2  0  0  0  0
  4  1  1  0  0  0  0
  5 13  1  1  0  0  0
  7  9  1  0  0  0  0
  8 18  1  0  0  0  0
  9  2  1  0  0  0  0
  9 12  2  0  0  0  0
 10 22  1  6  0  0  0
 10  5  1  0  0  0  0
 11  1  1  0  0  0  0
 12  6  1  0  0  0  0
 14  4  1  0  0  0  0
 15 11  2  0  0  0  0
 16 14  2  0  0  0  0
 16 15  1  0  0  0  0
 17  7  1  0  0  0  0
 17  8  2  0  0  0  0
 18 13  1  0  0  0  0
 18  6  2  0  0  0  0
 19 10  1  0  0  0  0
 19  8  1  1  0  0  0
 19  5  1  0  0  0  0
 20 22  1  0  0  0  0
 20 24  1  0  0  0  0
 21 27  2  0  0  0  0
 22 27  1  1  0  0  0
 23 20  1  0  0  0  0
 25 20  1  0  0  0  0
 26 25  2  0  0  0  0
 26 21  1  0  0  0  0
M  END
>  <MODEL>
9

>  <REMARK>
 VINA RESULT:      -8.5      3.739      7.344
  Name = 
  1 active torsions:
  status: ('A' for Active; 'I' for Inactive)
    1  A    between atoms: C_12  and  C_13
                            x       y       z     vdW  Elec       q    Type
                         _______ _______ _______ _____ _____    ______ ____

>  <TORSDO>
F 1

$$$$
