=
 OpenBabel11072411523D

 32 37  0  0  1  0  0  0  0  0999 V2000
  160.9920  202.4990  149.9390 C   0  0  0  0  0  3  0  0  0  0  0  0
  161.5950  206.7370  149.5070 C   0  0  0  0  0  0  0  0  0  0  0  0
  161.9210  208.9070  148.3100 C   0  0  0  0  0  3  0  0  0  0  0  0
  162.1240  210.9070  149.5200 N   0  0  0  0  0  0  0  0  0  0  0  0
  161.4520  204.2970  146.0020 C   0  0  0  0  0  0  0  0  0  0  0  0
  161.7760  208.1570  149.4870 C   0  0  0  0  0  0  0  0  0  0  0  0
  161.6900  206.4700  147.0240 C   0  0  0  0  0  2  0  0  0  0  0  0
  161.5500  205.9280  148.3170 C   0  0  0  0  0  0  0  0  0  0  0  0
  161.0490  203.8220  152.0100 C   0  0  0  0  0  3  0  0  0  0  0  0
  161.3570  204.5240  148.4180 C   0  0  0  0  0  0  0  0  0  0  0  0
  161.6870  208.2230  151.8780 N   0  0  0  0  0  0  0  0  0  0  0  0
  161.3110  203.7260  147.2650 C   0  0  0  0  0  3  0  0  0  0  0  0
  161.2550  204.6910  150.8180 C   0  0  0  0  0  0  0  0  0  0  0  0
  161.2120  203.9430  149.6720 C   0  0  0  0  0  0  0  0  0  0  0  0
  162.0890  210.2540  148.3590 N   0  0  0  0  0  0  0  0  0  0  0  0
  161.9910  210.2500  150.6990 C   0  0  0  0  0  3  0  0  0  0  0  0
  161.5090  206.8820  151.9670 C   0  0  0  0  0  0  0  0  0  0  0  0
  161.4060  203.5180  144.8960 F   0  0  0  0  0  0  0  0  0  0  0  0
  161.6440  205.6710  145.8820 C   0  0  0  0  0  3  0  0  0  0  0  0
  161.8140  208.8680  150.7010 C   0  0  0  0  0  0  0  0  0  0  0  0
  160.9170  202.4030  151.4590 C   0  0  0  0  0  3  0  0  0  0  0  0
  161.4520  206.0940  150.7850 C   0  0  0  0  0  0  0  0  0  0  0  0
  160.5410  205.2090  153.3670 O   0  0  0  0  0  1  0  0  0  0  0  0
  161.4210  206.2940  153.3470 C   0  0  2  0  0  3  0  0  0  0  0  0
  161.5540  208.6210  154.3190 C   0  0  0  0  0  3  0  0  0  0  0  0
  161.1900  209.5600  155.2880 C   0  0  0  0  0  3  0  0  0  0  0  0
  161.0230  207.3240  154.3590 C   0  0  0  0  0  0  0  0  0  0  0  0
  159.7720  207.9110  156.3500 C   0  0  0  0  0  3  0  0  0  0  0  0
  160.1360  206.9720  155.3810 C   0  0  0  0  0  3  0  0  0  0  0  0
  160.2970  209.2130  156.3080 C   0  0  0  0  0  0  0  0  0  0  0  0
  159.5090  211.4790  156.9100 C   0  0  0  0  0  1  0  0  0  0  0  0
  159.9510  210.1740  157.2610 O   0  0  0  0  0  0  0  0  0  0  0  0
  1 21  1  0  0  0  0
  2 22  1  0  0  0  0
  3 15  2  0  0  0  0
  3  6  1  0  0  0  0
  4 16  2  0  0  0  0
  5 12  1  0  0  0  0
  6  2  1  0  0  0  0
  6 20  2  0  0  0  0
  7  8  1  0  0  0  0
  8 10  1  0  0  0  0
  8  2  2  0  0  0  0
 10 14  1  0  0  0  0
 11 17  2  0  0  0  0
 12 10  2  0  0  0  0
 13  9  1  0  0  0  0
 14  1  2  0  0  0  0
 14 13  1  0  0  0  0
 15  4  1  0  0  0  0
 16 20  1  0  0  0  0
 17 24  1  0  0  0  0
 18  5  1  0  0  0  0
 19  5  2  0  0  0  0
 19  7  1  0  0  0  0
 20 11  1  0  0  0  0
 21  9  2  0  0  0  0
 22 13  2  0  0  0  0
 22 17  1  0  0  0  0
 24 23  1  6  0  0  0
 24 27  1  0  0  0  0
 25 27  2  0  0  0  0
 25 26  1  0  0  0  0
 26 30  2  0  0  0  0
 27 29  1  0  0  0  0
 29 28  2  0  0  0  0
 30 28  1  0  0  0  0
 30 32  1  0  0  0  0
 31 32  1  0  0  0  0
M  END
>  <MODEL>
1

>  <REMARK>
 VINA RESULT:     -10.6      0.000      0.000
  Name = 
  3 active torsions:
  status: ('A' for Active; 'I' for Inactive)
    1  A    between atoms: O_16  and  C_25
    2  A    between atoms: C_20  and  C_29
    3  A    between atoms: C_23  and  C_29
                            x       y       z     vdW  Elec       q    Type
                         _______ _______ _______ _____ _____    ______ ____

>  <TORSDO>
F 3

$$$$
=
 OpenBabel11072411523D

 32 37  0  0  1  0  0  0  0  0999 V2000
  159.6780  208.7090  156.3440 C   0  0  0  0  0  3  0  0  0  0  0  0
  160.8850  209.7240  152.3410 C   0  0  0  0  0  0  0  0  0  0  0  0
  161.2660  211.1890  150.3520 C   0  0  0  0  0  3  0  0  0  0  0  0
  162.2300  210.3090  148.4020 N   0  0  0  0  0  0  0  0  0  0  0  0
  159.1540  212.7490  154.8130 C   0  0  0  0  0  0  0  0  0  0  0  0
  161.3370  209.9470  151.0010 C   0  0  0  0  0  0  0  0  0  0  0  0
  160.1190  212.0750  152.7060 C   0  0  0  0  0  3  0  0  0  0  0  0
  160.3030  210.7540  153.1620 C   0  0  0  0  0  0  0  0  0  0  0  0
  160.6740  206.9070  155.0010 C   0  0  0  0  0  3  0  0  0  0  0  0
  159.8880  210.4580  154.4880 C   0  0  0  0  0  0  0  0  0  0  0  0
  161.9900  207.6510  150.8180 N   0  0  0  0  0  0  0  0  0  0  0  0
  159.3190  211.4540  155.2960 C   0  0  0  0  0  3  0  0  0  0  0  0
  160.5970  208.1720  154.2200 C   0  0  0  0  0  0  0  0  0  0  0  0
  160.0490  209.1690  154.9820 C   0  0  0  0  0  0  0  0  0  0  0  0
  161.7120  211.3340  149.0770 N   0  0  0  0  0  0  0  0  0  0  0  0
  162.3310  209.0790  148.9630 C   0  0  0  0  0  3  0  0  0  0  0  0
  161.5850  207.3740  152.0810 C   0  0  0  0  0  0  0  0  0  0  0  0
  158.6040  213.7030  155.6020 F   0  0  0  0  0  0  0  0  0  0  0  0
  159.5530  213.0600  153.5160 C   0  0  0  0  0  3  0  0  0  0  0  0
  161.8880  208.8790  150.2690 C   0  0  1  0  0  3  0  0  0  0  0  0
  160.0490  207.2310  156.3580 C   0  0  0  0  0  3  0  0  0  0  0  0
  161.0240  208.4020  152.8880 C   0  0  0  0  0  0  0  0  0  0  0  0
  162.9980  205.7250  153.0710 O   0  0  0  0  0  1  0  0  0  0  0  0
  161.7230  205.9520  152.5480 C   0  0  2  0  0  3  0  0  0  0  0  0
  161.1400  205.4240  150.1470 C   0  0  0  0  0  3  0  0  0  0  0  0
  160.8300  204.5040  149.1430 C   0  0  0  0  0  3  0  0  0  0  0  0
  161.4150  204.9820  151.4490 C   0  0  0  0  0  0  0  0  0  0  0  0
  161.0530  202.6950  150.7340 C   0  0  0  0  0  3  0  0  0  0  0  0
  161.3650  203.6150  151.7390 C   0  0  0  0  0  3  0  0  0  0  0  0
  160.7850  203.1350  149.4280 C   0  0  0  0  0  0  0  0  0  0  0  0
  161.0630  200.9510  148.3010 C   0  0  0  0  0  1  0  0  0  0  0  0
  160.4730  202.2400  148.4020 O   0  0  0  0  0  0  0  0  0  0  0  0
  1 21  1  0  0  0  0
  2 22  1  0  0  0  0
  2  8  1  0  0  0  0
  3  6  1  0  0  0  0
  4 16  2  0  0  0  0
  4 15  1  0  0  0  0
  5 12  1  0  0  0  0
  5 18  1  0  0  0  0
  6  2  2  0  0  0  0
  7  8  2  0  0  0  0
  7 19  1  0  0  0  0
  8 10  1  0  0  0  0
  9 21  2  0  0  0  0
 10 14  1  0  0  0  0
 10 12  2  0  0  0  0
 11 17  2  0  0  0  0
 13 14  1  0  0  0  0
 13  9  1  0  0  0  0
 14  1  2  0  0  0  0
 15  3  2  0  0  0  0
 17 24  1  0  0  0  0
 17 22  1  0  0  0  0
 19  5  2  0  0  0  0
 20 16  1  6  0  0  0
 20 11  1  0  0  0  0
 20  6  1  0  0  0  0
 22 13  2  0  0  0  0
 24 23  1  6  0  0  0
 25 27  1  0  0  0  0
 26 30  1  0  0  0  0
 26 25  2  0  0  0  0
 27 29  2  0  0  0  0
 27 24  1  0  0  0  0
 28 29  1  0  0  0  0
 30 28  2  0  0  0  0
 31 32  1  0  0  0  0
 32 30  1  0  0  0  0
M  END
>  <MODEL>
2

>  <REMARK>
 VINA RESULT:     -10.4      3.256      7.308
  Name = 
  3 active torsions:
  status: ('A' for Active; 'I' for Inactive)
    1  A    between atoms: O_16  and  C_25
    2  A    between atoms: C_20  and  C_29
    3  A    between atoms: C_23  and  C_29
                            x       y       z     vdW  Elec       q    Type
                         _______ _______ _______ _____ _____    ______ ____

>  <TORSDO>
F 3

$$$$
=
 OpenBabel11072411523D

 32 37  0  0  1  0  0  0  0  0999 V2000
  161.6640  206.0350  147.9910 C   0  0  0  0  0  3  0  0  0  0  0  0
  161.2040  206.7470  152.2090 C   0  0  0  0  0  0  0  0  0  0  0  0
  160.8470  206.1750  154.6160 C   0  0  0  0  0  3  0  0  0  0  0  0
  160.8640  207.8620  156.2470 N   0  0  0  0  0  0  0  0  0  0  0  0
  160.8620  202.7520  150.7330 C   0  0  0  0  0  0  0  0  0  0  0  0
  161.0840  207.1040  153.5900 C   0  0  1  0  0  3  0  0  0  0  0  0
  160.8310  204.3050  152.5800 C   0  0  0  0  0  3  0  0  0  0  0  0
  161.0860  205.3960  151.7260 C   0  0  0  0  0  0  0  0  0  0  0  0
  161.8880  208.3630  148.7470 C   0  0  0  0  0  3  0  0  0  0  0  0
  161.2270  205.1200  150.3400 C   0  0  0  0  0  0  0  0  0  0  0  0
  161.4340  209.4090  153.0470 N   0  0  0  0  0  0  0  0  0  0  0  0
  161.1140  203.8070  149.8590 C   0  0  0  0  0  3  0  0  0  0  0  0
  161.5930  207.4580  149.8920 C   0  0  0  0  0  0  0  0  0  0  0  0
  161.4800  206.1650  149.4580 C   0  0  0  0  0  0  0  0  0  0  0  0
  160.7440  206.5780  155.9090 N   0  0  0  0  0  0  0  0  0  0  0  0
  161.0930  208.8160  155.3110 C   0  0  0  0  0  3  0  0  0  0  0  0
  161.5600  209.1390  151.7250 C   0  0  0  0  0  0  0  0  0  0  0  0
  160.7550  201.4890  150.2580 F   0  0  0  0  0  0  0  0  0  0  0  0
  160.7190  203.0010  152.0950 C   0  0  0  0  0  3  0  0  0  0  0  0
  161.2080  208.4530  153.9710 C   0  0  0  0  0  0  0  0  0  0  0  0
  161.8970  207.4640  147.5120 C   0  0  0  0  0  3  0  0  0  0  0  0
  161.4560  207.7990  151.2610 C   0  0  0  0  0  0  0  0  0  0  0  0
  163.0810  210.7830  150.9000 O   0  0  0  0  0  1  0  0  0  0  0  0
  161.7710  210.3090  150.8060 C   0  0  2  0  0  3  0  0  0  0  0  0
  159.8930  211.3250  152.1540 C   0  0  0  0  0  3  0  0  0  0  0  0
  158.9630  212.3450  152.3730 C   0  0  0  0  0  3  0  0  0  0  0  0
  160.7850  211.4030  151.0750 C   0  0  0  0  0  0  0  0  0  0  0  0
  159.7990  213.5220  150.4300 C   0  0  0  0  0  3  0  0  0  0  0  0
  160.7300  212.5010  150.2110 C   0  0  0  0  0  3  0  0  0  0  0  0
  158.9100  213.4490  151.5140 C   0  0  0  0  0  0  0  0  0  0  0  0
  156.6590  214.1780  152.2340 C   0  0  0  0  0  1  0  0  0  0  0  0
  157.9700  214.4530  151.7600 O   0  0  0  0  0  0  0  0  0  0  0  0
  1 14  1  0  0  0  0
  2  6  1  0  0  0  0
  3 15  2  0  0  0  0
  5 19  1  0  0  0  0
  6 20  1  0  0  0  0
  6  3  1  1  0  0  0
  8  2  2  0  0  0  0
  8  7  1  0  0  0  0
  9 13  2  0  0  0  0
 10  8  1  0  0  0  0
 11 20  2  0  0  0  0
 12 10  1  0  0  0  0
 12  5  2  0  0  0  0
 13 22  1  0  0  0  0
 14 13  1  0  0  0  0
 14 10  2  0  0  0  0
 15  4  1  0  0  0  0
 16  4  2  0  0  0  0
 17 11  1  0  0  0  0
 18  5  1  0  0  0  0
 19  7  2  0  0  0  0
 20 16  1  0  0  0  0
 21  1  2  0  0  0  0
 21  9  1  0  0  0  0
 22 17  2  0  0  0  0
 22  2  1  0  0  0  0
 24 23  1  1  0  0  0
 24 27  1  0  0  0  0
 24 17  1  0  0  0  0
 25 26  1  0  0  0  0
 27 25  2  0  0  0  0
 28 30  1  0  0  0  0
 29 28  2  0  0  0  0
 29 27  1  0  0  0  0
 30 32  1  0  0  0  0
 30 26  2  0  0  0  0
 32 31  1  0  0  0  0
M  END
>  <MODEL>
3

>  <REMARK>
 VINA RESULT:      -9.8      3.018      5.317
  Name = 
  3 active torsions:
  status: ('A' for Active; 'I' for Inactive)
    1  A    between atoms: O_16  and  C_25
    2  A    between atoms: C_20  and  C_29
    3  A    between atoms: C_23  and  C_29
                            x       y       z     vdW  Elec       q    Type
                         _______ _______ _______ _____ _____    ______ ____

>  <TORSDO>
F 3

$$$$
=
 OpenBabel11072411523D

 32 37  0  0  1  0  0  0  0  0999 V2000
  161.6150  204.2080  146.4890 C   0  0  0  0  0  3  0  0  0  0  0  0
  161.3420  205.7030  150.5150 C   0  0  0  0  0  0  0  0  0  0  0  0
  161.0530  205.6000  152.9950 C   0  0  0  0  0  3  0  0  0  0  0  0
  161.1960  207.5550  154.2850 N   0  0  0  0  0  0  0  0  0  0  0  0
  160.7870  201.5240  149.8140 C   0  0  0  0  0  0  0  0  0  0  0  0
  161.2880  206.3120  151.8090 C   0  0  1  0  0  3  0  0  0  0  0  0
  160.8860  203.3900  151.3420 C   0  0  0  0  0  3  0  0  0  0  0  0
  161.1520  204.2920  150.2940 C   0  0  0  0  0  0  0  0  0  0  0  0
  161.9590  206.6220  146.7950 C   0  0  0  0  0  3  0  0  0  0  0  0
  161.2300  203.7610  148.9790 C   0  0  0  0  0  0  0  0  0  0  0  0
  161.7070  208.4600  150.8380 N   0  0  0  0  0  0  0  0  0  0  0  0
  161.0470  202.3880  148.7530 C   0  0  0  0  0  3  0  0  0  0  0  0
  161.6720  205.9570  148.0960 C   0  0  0  0  0  0  0  0  0  0  0  0
  161.4910  204.6130  147.9130 C   0  0  0  0  0  0  0  0  0  0  0  0
  161.0140  206.2380  154.1930 N   0  0  0  0  0  0  0  0  0  0  0  0
  161.4280  208.3090  153.1820 C   0  0  0  0  0  3  0  0  0  0  0  0
  161.7740  207.9460  149.5860 C   0  0  0  0  0  0  0  0  0  0  0  0
  160.6120  200.2020  149.5850 F   0  0  0  0  0  0  0  0  0  0  0  0
  160.7050  202.0250  151.1110 C   0  0  0  0  0  3  0  0  0  0  0  0
  161.4790  207.7010  151.9300 C   0  0  0  0  0  0  0  0  0  0  0  0
  161.8870  205.5120  145.7480 C   0  0  0  0  0  3  0  0  0  0  0  0
  161.5990  206.5500  149.3820 C   0  0  0  0  0  0  0  0  0  0  0  0
  163.3220  208.8710  148.0230 O   0  0  0  0  0  1  0  0  0  0  0  0
  161.9960  208.9160  148.4600 C   0  0  2  0  0  3  0  0  0  0  0  0
  161.5800  210.7030  150.1960 C   0  0  0  0  0  3  0  0  0  0  0  0
  161.1910  212.0000  150.5410 C   0  0  0  0  0  3  0  0  0  0  0  0
  161.6080  210.3090  148.8500 C   0  0  0  0  0  0  0  0  0  0  0  0
  160.8420  212.5150  148.2030 C   0  0  0  0  0  3  0  0  0  0  0  0
  161.2320  211.2180  147.8570 C   0  0  0  0  0  3  0  0  0  0  0  0
  160.8200  212.9140  149.5490 C   0  0  0  0  0  0  0  0  0  0  0  0
  159.4700  214.4520  150.9370 C   0  0  0  0  0  1  0  0  0  0  0  0
  160.4370  214.2030  149.9250 O   0  0  0  0  0  0  0  0  0  0  0  0
  1 14  1  0  0  0  0
  2  6  1  0  0  0  0
  3 15  2  0  0  0  0
  5 19  1  0  0  0  0
  6 20  1  0  0  0  0
  6  3  1  1  0  0  0
  8  2  2  0  0  0  0
  8  7  1  0  0  0  0
  9 13  2  0  0  0  0
 10  8  1  0  0  0  0
 11 20  2  0  0  0  0
 12 10  1  0  0  0  0
 12  5  2  0  0  0  0
 13 22  1  0  0  0  0
 14 13  1  0  0  0  0
 14 10  2  0  0  0  0
 15  4  1  0  0  0  0
 16  4  2  0  0  0  0
 17 11  1  0  0  0  0
 18  5  1  0  0  0  0
 19  7  2  0  0  0  0
 20 16  1  0  0  0  0
 21  1  2  0  0  0  0
 21  9  1  0  0  0  0
 22 17  2  0  0  0  0
 22  2  1  0  0  0  0
 24 23  1  1  0  0  0
 24 27  1  0  0  0  0
 24 17  1  0  0  0  0
 25 26  1  0  0  0  0
 27 25  2  0  0  0  0
 28 30  1  0  0  0  0
 29 28  2  0  0  0  0
 29 27  1  0  0  0  0
 30 32  1  0  0  0  0
 30 26  2  0  0  0  0
 32 31  1  0  0  0  0
M  END
>  <MODEL>
4

>  <REMARK>
 VINA RESULT:      -9.4      2.805      5.330
  Name = 
  3 active torsions:
  status: ('A' for Active; 'I' for Inactive)
    1  A    between atoms: O_16  and  C_25
    2  A    between atoms: C_20  and  C_29
    3  A    between atoms: C_23  and  C_29
                            x       y       z     vdW  Elec       q    Type
                         _______ _______ _______ _____ _____    ______ ____

>  <TORSDO>
F 3

$$$$
=
 OpenBabel11072411523D

 32 37  0  0  1  0  0  0  0  0999 V2000
  160.1470  207.9570  155.5200 C   0  0  0  0  0  3  0  0  0  0  0  0
  160.8170  210.3730  152.0230 C   0  0  0  0  0  0  0  0  0  0  0  0
  160.8370  212.4440  150.6240 C   0  0  0  0  0  3  0  0  0  0  0  0
  161.6730  212.3820  148.4320 N   0  0  0  0  0  0  0  0  0  0  0  0
  159.0620  212.1710  155.4790 C   0  0  0  0  0  0  0  0  0  0  0  0
  161.1000  211.0780  150.8100 C   0  0  0  0  0  0  0  0  0  0  0  0
  159.8630  212.3540  153.2100 C   0  0  0  0  0  3  0  0  0  0  0  0
  160.2240  210.9930  153.1800 C   0  0  0  0  0  0  0  0  0  0  0  0
  161.1710  206.8380  153.5850 C   0  0  0  0  0  3  0  0  0  0  0  0
  159.9830  210.2270  154.3520 C   0  0  0  0  0  0  0  0  0  0  0  0
  161.9570  209.0730  149.8210 N   0  0  0  0  0  0  0  0  0  0  0  0
  159.4060  210.8210  155.4850 C   0  0  0  0  0  3  0  0  0  0  0  0
  160.8860  208.2680  153.2830 C   0  0  0  0  0  0  0  0  0  0  0  0
  160.3240  208.8800  154.3710 C   0  0  0  0  0  0  0  0  0  0  0  0
  161.1290  213.0540  149.4470 N   0  0  0  0  0  0  0  0  0  0  0  0
  161.9560  211.0600  148.5380 C   0  0  0  0  0  3  0  0  0  0  0  0
  161.7180  208.3490  150.9400 C   0  0  0  0  0  0  0  0  0  0  0  0
  158.5060  212.7340  156.5770 F   0  0  0  0  0  0  0  0  0  0  0  0
  159.2890  212.9380  154.3400 C   0  0  0  0  0  3  0  0  0  0  0  0
  161.6750  210.3890  149.7260 C   0  0  1  0  0  3  0  0  0  0  0  0
  160.6640  206.6160  155.0090 C   0  0  0  0  0  3  0  0  0  0  0  0
  161.1450  208.9740  152.0820 C   0  0  0  0  0  0  0  0  0  0  0  0
  163.3700  206.6590  151.2760 O   0  0  0  0  0  1  0  0  0  0  0  0
  162.0460  206.8830  150.8900 C   0  0  2  0  0  3  0  0  0  0  0  0
  161.1530  205.0610  149.3860 C   0  0  0  0  0  3  0  0  0  0  0  0
  160.9370  204.5290  148.1120 C   0  0  0  0  0  3  0  0  0  0  0  0
  161.7800  206.3070  149.5330 C   0  0  0  0  0  0  0  0  0  0  0  0
  161.9830  206.4750  147.1240 C   0  0  0  0  0  3  0  0  0  0  0  0
  162.1990  207.0080  148.3980 C   0  0  0  0  0  3  0  0  0  0  0  0
  161.3480  205.2320  146.9730 C   0  0  0  0  0  0  0  0  0  0  0  0
  161.2070  205.4270  144.5120 C   0  0  0  0  0  1  0  0  0  0  0  0
  161.1170  204.6740  145.7140 O   0  0  0  0  0  0  0  0  0  0  0  0
  2 22  1  0  0  0  0
  2  8  1  0  0  0  0
  3  6  1  0  0  0  0
  4 16  2  0  0  0  0
  4 15  1  0  0  0  0
  5 12  1  0  0  0  0
  5 18  1  0  0  0  0
  6  2  2  0  0  0  0
  7 19  1  0  0  0  0
  8  7  2  0  0  0  0
  8 10  1  0  0  0  0
  9 21  2  0  0  0  0
 10 14  1  0  0  0  0
 10 12  2  0  0  0  0
 11 17  2  0  0  0  0
 13  9  1  0  0  0  0
 13 14  1  0  0  0  0
 14  1  2  0  0  0  0
 15  3  2  0  0  0  0
 17 22  1  0  0  0  0
 19  5  2  0  0  0  0
 20 16  1  6  0  0  0
 20 11  1  0  0  0  0
 20  6  1  0  0  0  0
 21  1  1  0  0  0  0
 22 13  2  0  0  0  0
 24 17  1  0  0  0  0
 24 23  1  6  0  0  0
 25 27  1  0  0  0  0
 26 25  2  0  0  0  0
 27 24  1  0  0  0  0
 28 29  1  0  0  0  0
 29 27  2  0  0  0  0
 30 28  2  0  0  0  0
 30 26  1  0  0  0  0
 31 32  1  0  0  0  0
 32 30  1  0  0  0  0
M  END
>  <MODEL>
5

>  <REMARK>
 VINA RESULT:      -9.4      3.475      7.631
  Name = 
  3 active torsions:
  status: ('A' for Active; 'I' for Inactive)
    1  A    between atoms: O_16  and  C_25
    2  A    between atoms: C_20  and  C_29
    3  A    between atoms: C_23  and  C_29
                            x       y       z     vdW  Elec       q    Type
                         _______ _______ _______ _____ _____    ______ ____

>  <TORSDO>
F 3

$$$$
=
 OpenBabel11072411523D

 32 37  0  0  1  0  0  0  0  0999 V2000
  161.6720  204.5380  146.9330 C   0  0  0  0  0  3  0  0  0  0  0  0
  161.3900  206.5780  150.7110 C   0  0  0  0  0  0  0  0  0  0  0  0
  161.0410  206.8270  153.1740 C   0  0  0  0  0  3  0  0  0  0  0  0
  161.2600  208.9300  154.1920 N   0  0  0  0  0  0  0  0  0  0  0  0
  160.6300  202.3760  150.5640 C   0  0  0  0  0  0  0  0  0  0  0  0
  161.3400  207.3590  151.9100 C   0  0  1  0  0  3  0  0  0  0  0  0
  160.7950  204.4240  151.8290 C   0  0  0  0  0  3  0  0  0  0  0  0
  161.1300  205.1620  150.6770 C   0  0  0  0  0  0  0  0  0  0  0  0
  162.1360  206.9520  146.9210 C   0  0  0  0  0  3  0  0  0  0  0  0
  161.2090  204.4530  149.4490 C   0  0  0  0  0  0  0  0  0  0  0  0
  161.8940  209.3310  150.6710 N   0  0  0  0  0  0  0  0  0  0  0  0
  160.9590  203.0730  149.4040 C   0  0  0  0  0  3  0  0  0  0  0  0
  161.7860  206.4840  148.2910 C   0  0  0  0  0  0  0  0  0  0  0  0
  161.5380  205.1380  148.2850 C   0  0  0  0  0  0  0  0  0  0  0  0
  161.0100  207.6230  154.2730 N   0  0  0  0  0  0  0  0  0  0  0  0
  161.5560  209.5150  153.0050 C   0  0  0  0  0  3  0  0  0  0  0  0
  161.9600  208.6500  149.5020 C   0  0  0  0  0  0  0  0  0  0  0  0
  160.3900  201.0440  150.5100 F   0  0  0  0  0  0  0  0  0  0  0  0
  160.5460  203.0520  151.7780 C   0  0  0  0  0  3  0  0  0  0  0  0
  161.6020  208.7400  151.8480 C   0  0  0  0  0  0  0  0  0  0  0  0
  162.0280  205.7140  146.0310 C   0  0  0  0  0  3  0  0  0  0  0  0
  161.7170  207.2490  149.4830 C   0  0  0  0  0  0  0  0  0  0  0  0
  163.6340  209.6420  148.1190 O   0  0  0  0  0  1  0  0  0  0  0  0
  162.2580  209.4460  148.2630 C   0  0  2  0  0  3  0  0  0  0  0  0
  161.5920  211.6200  149.3610 C   0  0  0  0  0  3  0  0  0  0  0  0
  160.8830  212.8240  149.3500 C   0  0  0  0  0  3  0  0  0  0  0  0
  161.5280  210.7530  148.2600 C   0  0  0  0  0  0  0  0  0  0  0  0
  160.0300  212.2990  147.1470 C   0  0  0  0  0  3  0  0  0  0  0  0
  160.7400  211.0940  147.1570 C   0  0  0  0  0  3  0  0  0  0  0  0
  160.0990  213.1720  148.2440 C   0  0  0  0  0  0  0  0  0  0  0  0
  157.9870  214.4530  148.3740 C   0  0  0  0  0  1  0  0  0  0  0  0
  159.4020  214.3830  148.2620 O   0  0  0  0  0  0  0  0  0  0  0  0
  1 14  1  0  0  0  0
  2  6  1  0  0  0  0
  3 15  2  0  0  0  0
  4 15  1  0  0  0  0
  5 19  1  0  0  0  0
  6  3  1  1  0  0  0
  8  2  2  0  0  0  0
  8  7  1  0  0  0  0
  9 13  2  0  0  0  0
 10  8  1  0  0  0  0
 11 20  2  0  0  0  0
 12 10  1  0  0  0  0
 12  5  2  0  0  0  0
 13 22  1  0  0  0  0
 14 13  1  0  0  0  0
 14 10  2  0  0  0  0
 16  4  2  0  0  0  0
 17 11  1  0  0  0  0
 18  5  1  0  0  0  0
 19  7  2  0  0  0  0
 20  6  1  0  0  0  0
 20 16  1  0  0  0  0
 21  9  1  0  0  0  0
 21  1  2  0  0  0  0
 22 17  2  0  0  0  0
 22  2  1  0  0  0  0
 24 23  1  1  0  0  0
 24 17  1  0  0  0  0
 26 25  1  0  0  0  0
 27 24  1  0  0  0  0
 27 25  2  0  0  0  0
 28 29  2  0  0  0  0
 28 30  1  0  0  0  0
 29 27  1  0  0  0  0
 30 32  1  0  0  0  0
 30 26  2  0  0  0  0
 32 31  1  0  0  0  0
M  END
>  <MODEL>
6

>  <REMARK>
 VINA RESULT:      -9.1      3.157      5.747
  Name = 
  3 active torsions:
  status: ('A' for Active; 'I' for Inactive)
    1  A    between atoms: O_16  and  C_25
    2  A    between atoms: C_20  and  C_29
    3  A    between atoms: C_23  and  C_29
                            x       y       z     vdW  Elec       q    Type
                         _______ _______ _______ _____ _____    ______ ____

>  <TORSDO>
F 3

$$$$
=
 OpenBabel11072411523D

 32 37  0  0  1  0  0  0  0  0999 V2000
  159.3410  209.5030  156.4850 C   0  0  0  0  0  3  0  0  0  0  0  0
  158.9630  211.9780  152.9860 C   0  0  0  0  0  0  0  0  0  0  0  0
  157.9970  213.7510  151.5130 C   0  0  0  0  0  3  0  0  0  0  0  0
  158.9720  214.2210  149.4310 N   0  0  0  0  0  0  0  0  0  0  0  0
  156.1250  212.4150  156.1500 C   0  0  0  0  0  0  0  0  0  0  0  0
  158.9460  212.7540  151.7830 C   0  0  0  0  0  0  0  0  0  0  0  0
  156.9450  213.0690  153.9770 C   0  0  0  0  0  3  0  0  0  0  0  0
  157.9980  212.1360  154.0440 C   0  0  0  0  0  0  0  0  0  0  0  0
  161.0260  209.1870  154.7220 C   0  0  0  0  0  3  0  0  0  0  0  0
  158.0870  211.3350  155.2130 C   0  0  0  0  0  0  0  0  0  0  0  0
  160.8730  211.5840  150.9780 N   0  0  0  0  0  0  0  0  0  0  0  0
  157.1530  211.4800  156.2500 C   0  0  0  0  0  3  0  0  0  0  0  0
  160.0360  210.2290  154.3320 C   0  0  0  0  0  0  0  0  0  0  0  0
  159.1100  210.4000  155.3250 C   0  0  0  0  0  0  0  0  0  0  0  0
  158.0360  214.4530  150.3510 N   0  0  0  0  0  0  0  0  0  0  0  0
  159.9230  213.2730  149.6220 C   0  0  0  0  0  3  0  0  0  0  0  0
  160.9470  210.8180  152.0940 C   0  0  0  0  0  0  0  0  0  0  0  0
  155.2290  212.5470  157.1570 F   0  0  0  0  0  0  0  0  0  0  0  0
  156.0190  213.2090  155.0120 C   0  0  0  0  0  3  0  0  0  0  0  0
  159.9260  212.5270  150.7980 C   0  0  1  0  0  3  0  0  0  0  0  0
  160.5660  208.6850  156.0900 C   0  0  0  0  0  3  0  0  0  0  0  0
  159.9980  210.9930  153.1380 C   0  0  0  0  0  0  0  0  0  0  0  0
  163.2770  210.3530  151.8660 O   0  0  0  0  0  1  0  0  0  0  0  0
  162.0330  209.7800  152.1400 C   0  0  2  0  0  3  0  0  0  0  0  0
  161.2590  207.4200  151.6810 C   0  0  0  0  0  3  0  0  0  0  0  0
  161.0240  206.3650  150.7950 C   0  0  0  0  0  3  0  0  0  0  0  0
  161.7480  208.6450  151.2050 C   0  0  0  0  0  0  0  0  0  0  0  0
  161.7770  207.7450  148.9550 C   0  0  0  0  0  3  0  0  0  0  0  0
  162.0120  208.8010  149.8410 C   0  0  0  0  0  3  0  0  0  0  0  0
  161.2800  206.5200  149.4280 C   0  0  0  0  0  0  0  0  0  0  0  0
  160.9400  204.1030  149.0230 C   0  0  0  0  0  1  0  0  0  0  0  0
  161.0340  205.4470  148.5680 O   0  0  0  0  0  0  0  0  0  0  0  0
  2 22  1  0  0  0  0
  2  8  1  0  0  0  0
  3  6  1  0  0  0  0
  4 16  2  0  0  0  0
  4 15  1  0  0  0  0
  5 12  1  0  0  0  0
  5 18  1  0  0  0  0
  6  2  2  0  0  0  0
  7  8  2  0  0  0  0
  7 19  1  0  0  0  0
  8 10  1  0  0  0  0
  9 21  2  0  0  0  0
 10 14  1  0  0  0  0
 10 12  2  0  0  0  0
 11 17  2  0  0  0  0
 13  9  1  0  0  0  0
 13 14  1  0  0  0  0
 14  1  2  0  0  0  0
 15  3  2  0  0  0  0
 17 24  1  0  0  0  0
 17 22  1  0  0  0  0
 19  5  2  0  0  0  0
 20 16  1  6  0  0  0
 20 11  1  0  0  0  0
 20  6  1  0  0  0  0
 21  1  1  0  0  0  0
 22 13  2  0  0  0  0
 24 23  1  6  0  0  0
 26 25  2  0  0  0  0
 27 25  1  0  0  0  0
 27 24  1  0  0  0  0
 28 30  2  0  0  0  0
 28 29  1  0  0  0  0
 29 27  2  0  0  0  0
 30 26  1  0  0  0  0
 32 31  1  0  0  0  0
 32 30  1  0  0  0  0
M  END
>  <MODEL>
7

>  <REMARK>
 VINA RESULT:      -9.1      4.207      8.225
  Name = 
  3 active torsions:
  status: ('A' for Active; 'I' for Inactive)
    1  A    between atoms: O_16  and  C_25
    2  A    between atoms: C_20  and  C_29
    3  A    between atoms: C_23  and  C_29
                            x       y       z     vdW  Elec       q    Type
                         _______ _______ _______ _____ _____    ______ ____

>  <TORSDO>
F 3

$$$$
=
 OpenBabel11072411523D

 32 37  0  0  1  0  0  0  0  0999 V2000
  162.1460  210.2270  147.9150 C   0  0  0  0  0  3  0  0  0  0  0  0
  161.4580  207.0890  150.7780 C   0  0  0  0  0  0  0  0  0  0  0  0
  161.1290  204.7510  151.5970 C   0  0  0  0  0  3  0  0  0  0  0  0
  160.8290  204.3310  153.8870 N   0  0  0  0  0  0  0  0  0  0  0  0
  161.8010  206.0810  146.6400 C   0  0  0  0  0  0  0  0  0  0  0  0
  161.2440  206.1320  151.8200 C   0  0  0  0  0  0  0  0  0  0  0  0
  161.4700  205.4040  148.9330 C   0  0  0  0  0  3  0  0  0  0  0  0
  161.5710  206.7340  149.3870 C   0  0  0  0  0  0  0  0  0  0  0  0
  161.9740  210.9020  150.2730 C   0  0  0  0  0  3  0  0  0  0  0  0
  161.7940  207.7420  148.4110 C   0  0  2  0  0  3  0  0  0  0  0  0
  161.2360  207.8820  153.4540 N   0  0  0  0  0  0  0  0  0  0  0  0
  161.9060  207.4070  147.0520 C   0  0  0  0  0  3  0  0  0  0  0  0
  161.7950  209.4310  150.1260 C   0  0  0  0  0  0  0  0  0  0  0  0
  161.9020  209.0680  148.8110 C   0  0  0  0  0  0  0  0  0  0  0  0
  160.9260  203.8940  152.6310 N   0  0  0  0  0  0  0  0  0  0  0  0
  160.9300  205.6510  154.1790 C   0  0  0  0  0  3  0  0  0  0  0  0
  161.4420  208.8380  152.5160 C   0  0  0  0  0  0  0  0  0  0  0  0
  161.9100  205.7680  145.3270 F   0  0  0  0  0  0  0  0  0  0  0  0
  161.5820  205.0780  147.5800 C   0  0  0  0  0  3  0  0  0  0  0  0
  161.1400  206.5700  153.1530 C   0  0  0  0  0  0  0  0  0  0  0  0
  162.1620  211.4300  148.8510 C   0  0  0  0  0  3  0  0  0  0  0  0
  161.5660  208.4740  151.1470 C   0  0  0  0  0  0  0  0  0  0  0  0
  162.4890  210.4310  153.9520 O   0  0  0  0  0  1  0  0  0  0  0  0
  161.4890  210.2630  152.9910 C   0  0  2  0  0  3  0  0  0  0  0  0
  159.2030  211.2880  152.6690 C   0  0  0  0  0  3  0  0  0  0  0  0
  157.9790  211.7230  153.1840 C   0  0  0  0  0  3  0  0  0  0  0  0
  160.1600  210.7110  153.5170 C   0  0  0  0  0  0  0  0  0  0  0  0
  158.6630  211.0210  155.3970 C   0  0  0  0  0  3  0  0  0  0  0  0
  159.8870  210.5850  154.8820 C   0  0  0  0  0  3  0  0  0  0  0  0
  157.7000  211.5920  154.5490 C   0  0  0  0  0  0  0  0  0  0  0  0
  156.0350  211.7980  156.3660 C   0  0  0  0  0  1  0  0  0  0  0  0
  156.4670  212.0360  155.0330 O   0  0  0  0  0  0  0  0  0  0  0  0
  1 14  2  0  0  0  0
  1 21  1  0  0  0  0
  2 22  1  0  0  0  0
  2  6  1  0  0  0  0
  3  6  2  0  0  0  0
  3 15  1  0  0  0  0
  4 16  1  0  0  0  0
  5 12  2  0  0  0  0
  5 19  1  0  0  0  0
  6 20  1  0  0  0  0
  7  8  1  0  0  0  0
  8  2  2  0  0  0  0
 10 12  1  1  0  0  0
 10 14  1  0  0  0  0
 10  8  1  0  0  0  0
 13  9  1  0  0  0  0
 13 22  2  0  0  0  0
 14 13  1  0  0  0  0
 15  4  2  0  0  0  0
 17 24  1  0  0  0  0
 17 11  2  0  0  0  0
 18  5  1  0  0  0  0
 19  7  2  0  0  0  0
 20 11  1  0  0  0  0
 20 16  2  0  0  0  0
 21  9  2  0  0  0  0
 22 17  1  0  0  0  0
 24 27  1  0  0  0  0
 24 23  1  1  0  0  0
 25 26  2  0  0  0  0
 25 27  1  0  0  0  0
 26 30  1  0  0  0  0
 27 29  2  0  0  0  0
 29 28  1  0  0  0  0
 30 32  1  0  0  0  0
 30 28  2  0  0  0  0
 32 31  1  0  0  0  0
M  END
>  <MODEL>
8

>  <REMARK>
 VINA RESULT:      -9.0      2.330      4.661
  Name = 
  3 active torsions:
  status: ('A' for Active; 'I' for Inactive)
    1  A    between atoms: O_16  and  C_25
    2  A    between atoms: C_20  and  C_29
    3  A    between atoms: C_23  and  C_29
                            x       y       z     vdW  Elec       q    Type
                         _______ _______ _______ _____ _____    ______ ____

>  <TORSDO>
F 3

$$$$
=
 OpenBabel11072411523D

 32 37  0  0  1  0  0  0  0  0999 V2000
  161.5880  204.6760  144.7210 C   0  0  0  0  0  3  0  0  0  0  0  0
  161.2250  203.8650  148.9310 C   0  0  0  0  0  0  0  0  0  0  0  0
  160.9210  202.4850  150.9930 C   0  0  0  0  0  3  0  0  0  0  0  0
  160.9780  203.4950  153.1110 N   0  0  0  0  0  0  0  0  0  0  0  0
  160.8400  200.6370  146.1580 C   0  0  0  0  0  0  0  0  0  0  0  0
  161.1370  203.7150  150.3520 C   0  0  1  0  0  3  0  0  0  0  0  0
  160.8540  201.4450  148.4320 C   0  0  0  0  0  3  0  0  0  0  0  0
  161.0920  202.7670  148.0090 C   0  0  0  0  0  0  0  0  0  0  0  0
  161.8350  206.5940  146.2390 C   0  0  0  0  0  3  0  0  0  0  0  0
  161.2010  202.9950  146.6110 C   0  0  0  0  0  0  0  0  0  0  0  0
  161.4800  206.0660  150.6420 N   0  0  0  0  0  0  0  0  0  0  0  0
  161.0740  201.9320  145.7030 C   0  0  0  0  0  3  0  0  0  0  0  0
  161.5640  205.3430  147.0010 C   0  0  0  0  0  0  0  0  0  0  0  0
  161.4370  204.2830  146.1450 C   0  0  0  0  0  0  0  0  0  0  0  0
  160.8480  202.4100  152.3470 N   0  0  0  0  0  0  0  0  0  0  0  0
  161.1890  204.7170  152.5630 C   0  0  0  0  0  3  0  0  0  0  0  0
  161.5770  206.2770  149.3070 C   0  0  0  0  0  0  0  0  0  0  0  0
  160.7180  199.6190  145.2740 F   0  0  0  0  0  0  0  0  0  0  0  0
  160.7280  200.3930  147.5240 C   0  0  0  0  0  3  0  0  0  0  0  0
  161.2730  204.8460  151.1780 C   0  0  0  0  0  0  0  0  0  0  0  0
  161.8140  206.1830  144.7680 C   0  0  0  0  0  3  0  0  0  0  0  0
  161.4580  205.1830  148.4060 C   0  0  0  0  0  0  0  0  0  0  0  0
  163.0390  207.8670  148.2920 O   0  0  0  0  0  1  0  0  0  0  0  0
  161.7700  207.6950  148.8500 C   0  0  2  0  0  3  0  0  0  0  0  0
  160.8810  208.2780  151.1410 C   0  0  0  0  0  3  0  0  0  0  0  0
  160.6530  209.2080  152.1600 C   0  0  0  0  0  3  0  0  0  0  0  0
  161.5390  208.6680  149.9660 C   0  0  0  0  0  0  0  0  0  0  0  0
  161.7270  210.9230  150.8330 C   0  0  0  0  0  3  0  0  0  0  0  0
  161.9560  209.9930  149.8140 C   0  0  0  0  0  3  0  0  0  0  0  0
  161.0750  210.5340  152.0140 C   0  0  0  0  0  0  0  0  0  0  0  0
  160.9470  211.0830  154.4230 C   0  0  0  0  0  1  0  0  0  0  0  0
  160.8330  211.4390  153.0510 O   0  0  0  0  0  0  0  0  0  0  0  0
  1 21  2  0  0  0  0
  1 14  1  0  0  0  0
  2  6  1  0  0  0  0
  3 15  2  0  0  0  0
  5 19  1  0  0  0  0
  6  3  1  1  0  0  0
  6 20  1  0  0  0  0
  8  7  1  0  0  0  0
  8  2  2  0  0  0  0
  9 13  2  0  0  0  0
 10  8  1  0  0  0  0
 11 20  2  0  0  0  0
 12  5  2  0  0  0  0
 12 10  1  0  0  0  0
 13 22  1  0  0  0  0
 14 10  2  0  0  0  0
 14 13  1  0  0  0  0
 15  4  1  0  0  0  0
 16  4  2  0  0  0  0
 17 11  1  0  0  0  0
 18  5  1  0  0  0  0
 19  7  2  0  0  0  0
 20 16  1  0  0  0  0
 21  9  1  0  0  0  0
 22  2  1  0  0  0  0
 22 17  2  0  0  0  0
 24 23  1  1  0  0  0
 24 17  1  0  0  0  0
 24 27  1  0  0  0  0
 25 26  1  0  0  0  0
 27 25  2  0  0  0  0
 28 30  1  0  0  0  0
 29 27  1  0  0  0  0
 29 28  2  0  0  0  0
 30 26  2  0  0  0  0
 30 32  1  0  0  0  0
 32 31  1  0  0  0  0
M  END
>  <MODEL>
9

>  <REMARK>
 VINA RESULT:      -8.9      2.565      5.033
  Name = 
  3 active torsions:
  status: ('A' for Active; 'I' for Inactive)
    1  A    between atoms: O_16  and  C_25
    2  A    between atoms: C_20  and  C_29
    3  A    between atoms: C_23  and  C_29
                            x       y       z     vdW  Elec       q    Type
                         _______ _______ _______ _____ _____    ______ ____

>  <TORSDO>
F 3

$$$$
