=
 OpenBabel11072412403D

 31 36  0  0  1  0  0  0  0  0999 V2000
  161.8640  206.4420  153.3680 C   0  0  0  0  0  2  0  0  0  0  0  0
  162.1980  207.5330  151.2740 C   0  0  2  0  0  3  0  0  0  0  0  0
  159.6570  212.2010  154.0560 N   0  0  0  0  0  1  0  0  0  0  0  0
  160.6790  212.5880  149.7120 C   0  0  0  0  0  0  0  0  0  0  0  0
  162.9570  212.2540  148.3880 C   0  0  0  0  0  2  0  0  0  0  0  0
  160.7930  213.4360  147.5330 C   0  0  0  0  0  0  0  0  0  0  0  0
  161.2660  210.1510  151.2260 C   0  0  0  0  0  0  0  0  0  0  0  0
  160.6960  211.3970  153.3860 C   0  0  1  0  0  3  0  0  0  0  0  0
  161.2850  206.3780  150.8790 C   0  0  2  0  0  3  0  0  0  0  0  0
  162.1890  212.9290  147.2540 C   0  0  0  0  0  0  0  0  0  0  0  0
  160.1330  213.9690  146.6250 O   0  0  0  0  0  0  0  0  0  0  0  0
  161.9650  211.7590  149.4650 C   0  0  2  0  0  3  0  0  0  0  0  0
  162.3840  206.3170  152.0160 N   0  0  2  0  0  0  0  0  0  0  0  0
  161.1730  208.8700  153.2800 C   0  0  0  0  0  0  0  0  0  0  0  0
  160.6920  210.0680  153.9770 N   0  0  0  0  0  2  0  0  0  0  0  0
  161.2320  208.7300  151.8260 C   0  0  2  0  0  3  0  0  0  0  0  0
  160.0610  212.5480  151.1030 C   0  0  0  0  0  2  0  0  0  0  0  0
  160.2250  213.3360  148.7820 N   0  0  0  0  0  0  0  0  0  0  0  0
  161.3400  207.7950  153.9780 C   0  0  0  0  0  3  0  0  0  0  0  0
  162.6070  213.1210  146.1310 O   0  0  0  0  0  0  0  0  0  0  0  0
  160.3730  211.2590  151.9040 C   0  0  1  0  0  3  0  0  0  0  0  0
  161.9040  210.3690  150.0650 C   0  0  0  0  0  3  0  0  0  0  0  0
  160.8540  204.8330  150.7240 C   0  0  0  0  0  2  0  0  0  0  0  0
  160.4280  204.3550  149.3940 N   0  0  0  0  0  2  0  0  0  0  0  0
  161.5830  204.1130  147.2630 C   0  0  2  0  0  3  0  0  0  0  0  0
  162.0140  205.8500  145.8640 C   0  0  0  0  0  2  0  0  0  0  0  0
  161.1500  203.5760  148.4170 C   0  0  2  0  0  3  0  0  0  0  0  0
  161.5100  205.4800  147.1280 N   0  0  0  0  0  2  0  0  0  0  0  0
  162.0320  204.6840  145.0220 N   0  0  0  0  0  2  0  0  0  0  0  0
  161.8800  203.5580  145.9200 C   0  0  0  0  0  2  0  0  0  0  0  0
  161.0850  202.1090  148.3540 C   0  0  0  0  0  1  0  0  0  0  0  0
  1 19  1  0  0  0  0
  2 16  1  0  0  0  0
  2 13  1  0  0  0  0
  4 17  1  0  0  0  0
  5 12  1  0  0  0  0
  6 18  1  0  0  0  0
  7 16  1  0  0  0  0
  7 21  1  0  0  0  0
  8 15  1  0  0  0  0
  8  3  1  0  0  0  0
  9  2  1  0  0  0  0
  9 13  1  0  0  0  0
 10  6  1  0  0  0  0
 10  5  1  0  0  0  0
 11  6  2  0  0  0  0
 12  4  1  0  0  0  0
 12 22  1  0  0  0  0
 13  1  1  0  0  0  0
 14 15  1  0  0  0  0
 14 19  2  0  0  0  0
 16 14  1  0  0  0  0
 17 21  1  0  0  0  0
 18  4  2  0  0  0  0
 20 10  2  0  0  0  0
 21  8  1  0  0  0  0
 22  7  2  0  0  0  0
 23  9  1  0  0  0  0
 24 23  1  0  0  0  0
 25 27  1  0  0  0  0
 26 28  1  0  0  0  0
 27 24  1  0  0  0  0
 28 25  1  0  0  0  0
 29 26  1  0  0  0  0
 29 30  1  0  0  0  0
 30 25  1  0  0  0  0
 31 27  1  0  0  0  0
M  END
>  <MODEL>
1

>  <REMARK>
 VINA RESULT:      -8.5      0.000      0.000
  Name = 
  3 active torsions:
  status: ('A' for Active; 'I' for Inactive)
    1  A    between atoms: C_8  and  N_16
    2  A    between atoms: C_10  and  C_13
    3  A    between atoms: C_10  and  N_16
                            x       y       z     vdW  Elec       q    Type
                         _______ _______ _______ _____ _____    ______ ____

>  <TORSDO>
F 3

$$$$
=
 OpenBabel11072412403D

 31 36  0  0  1  0  0  0  0  0999 V2000
  161.5370  210.6240  154.6610 C   0  0  0  0  0  2  0  0  0  0  0  0
  161.2300  208.2670  154.4680 C   0  0  2  0  0  3  0  0  0  0  0  0
  161.9730  209.3210  148.6100 N   0  0  0  0  0  1  0  0  0  0  0  0
  160.9770  205.1590  149.9320 C   0  0  0  0  0  0  0  0  0  0  0  0
  162.1430  203.5210  151.6680 C   0  0  0  0  0  2  0  0  0  0  0  0
  160.3690  202.9000  149.8580 C   0  0  0  0  0  0  0  0  0  0  0  0
  161.3240  207.3480  151.8470 C   0  0  0  0  0  0  0  0  0  0  0  0
  162.2540  208.8040  149.9620 C   0  0  1  0  0  3  0  0  0  0  0  0
  159.9080  208.7000  155.0900 C   0  0  2  0  0  3  0  0  0  0  0  0
  161.2230  202.4830  151.0320 C   0  0  0  0  0  0  0  0  0  0  0  0
  159.5930  202.0830  149.3320 O   0  0  0  0  0  0  0  0  0  0  0  0
  161.6450  204.9410  151.3130 C   0  0  2  0  0  3  0  0  0  0  0  0
  161.3100  209.3780  155.3750 N   0  0  2  0  0  0  0  0  0  0  0  0
  161.7470  209.6840  152.3260 C   0  0  0  0  0  0  0  0  0  0  0  0
  162.0710  209.8910  150.9110 N   0  0  0  0  0  2  0  0  0  0  0  0
  161.0880  208.4910  152.8560 C   0  0  2  0  0  3  0  0  0  0  0  0
  161.0850  206.5380  149.2980 C   0  0  0  0  0  2  0  0  0  0  0  0
  160.4330  204.1710  149.3340 N   0  0  0  0  0  0  0  0  0  0  0  0
  161.8380  210.7010  153.1190 C   0  0  0  0  0  3  0  0  0  0  0  0
  161.1230  201.3210  151.3730 O   0  0  0  0  0  0  0  0  0  0  0  0
  161.2700  207.6960  150.3110 C   0  0  1  0  0  3  0  0  0  0  0  0
  161.3980  206.0790  152.2830 C   0  0  0  0  0  3  0  0  0  0  0  0
  158.9600  209.3710  156.2090 C   0  0  0  0  0  2  0  0  0  0  0  0
  157.9490  210.3520  155.7710 N   0  0  0  0  0  2  0  0  0  0  0  0
  158.3240  212.3260  154.3940 C   0  0  2  0  0  3  0  0  0  0  0  0
  158.5690  212.2550  152.1360 C   0  0  0  0  0  2  0  0  0  0  0  0
  158.0610  211.7800  155.5940 C   0  0  2  0  0  3  0  0  0  0  0  0
  158.2740  211.5030  153.2930 N   0  0  0  0  0  2  0  0  0  0  0  0
  159.2140  213.4750  152.5400 N   0  0  0  0  0  2  0  0  0  0  0  0
  158.9600  213.5950  153.9600 C   0  0  0  0  0  2  0  0  0  0  0  0
  158.3520  212.7050  156.6990 C   0  0  0  0  0  1  0  0  0  0  0  0
  1 13  1  0  0  0  0
  2  9  1  0  0  0  0
  2 13  1  0  0  0  0
  3  8  1  0  0  0  0
  4 12  1  0  0  0  0
  6 10  1  0  0  0  0
  7 22  2  0  0  0  0
  7 16  1  0  0  0  0
  8 21  1  0  0  0  0
  8 15  1  0  0  0  0
  9 13  1  0  0  0  0
  9 23  1  0  0  0  0
 10 20  2  0  0  0  0
 10  5  1  0  0  0  0
 11  6  2  0  0  0  0
 12  5  1  0  0  0  0
 12 22  1  0  0  0  0
 14 16  1  0  0  0  0
 14 19  2  0  0  0  0
 15 14  1  0  0  0  0
 16  2  1  0  0  0  0
 17  4  1  0  0  0  0
 17 21  1  0  0  0  0
 18  6  1  0  0  0  0
 18  4  2  0  0  0  0
 19  1  1  0  0  0  0
 21  7  1  0  0  0  0
 24 23  1  0  0  0  0
 25 27  1  0  0  0  0
 26 29  1  0  0  0  0
 26 28  1  0  0  0  0
 27 24  1  0  0  0  0
 27 31  1  0  0  0  0
 28 25  1  0  0  0  0
 29 30  1  0  0  0  0
 30 25  1  0  0  0  0
M  END
>  <MODEL>
2

>  <REMARK>
 VINA RESULT:      -7.6      4.047      8.360
  Name = 
  3 active torsions:
  status: ('A' for Active; 'I' for Inactive)
    1  A    between atoms: C_8  and  N_16
    2  A    between atoms: C_10  and  C_13
    3  A    between atoms: C_10  and  N_16
                            x       y       z     vdW  Elec       q    Type
                         _______ _______ _______ _____ _____    ______ ____

>  <TORSDO>
F 3

$$$$
=
 OpenBabel11072412403D

 31 36  0  0  1  0  0  0  0  0999 V2000
  161.6900  210.3330  154.5720 C   0  0  0  0  0  2  0  0  0  0  0  0
  161.3510  207.9810  154.3660 C   0  0  2  0  0  3  0  0  0  0  0  0
  161.9170  209.0850  148.4980 N   0  0  0  0  0  1  0  0  0  0  0  0
  160.9170  204.9210  149.8120 C   0  0  0  0  0  0  0  0  0  0  0  0
  162.1200  203.2530  151.4940 C   0  0  0  0  0  2  0  0  0  0  0  0
  160.2820  202.6690  149.7360 C   0  0  0  0  0  0  0  0  0  0  0  0
  161.3500  207.0860  151.7360 C   0  0  0  0  0  0  0  0  0  0  0  0
  162.2350  208.5510  149.8350 C   0  0  1  0  0  3  0  0  0  0  0  0
  160.0550  208.4220  155.0350 C   0  0  2  0  0  3  0  0  0  0  0  0
  161.1680  202.2310  150.8780 C   0  0  0  0  0  0  0  0  0  0  0  0
  159.4800  201.8670  149.2280 O   0  0  0  0  0  0  0  0  0  0  0  0
  161.6270  204.6820  151.1680 C   0  0  2  0  0  3  0  0  0  0  0  0
  161.4730  209.0830  155.2810 N   0  0  2  0  0  0  0  0  0  0  0  0
  161.8150  209.4140  152.2230 C   0  0  0  0  0  0  0  0  0  0  0  0
  162.0950  209.6310  150.7990 N   0  0  0  0  0  2  0  0  0  0  0  0
  161.1600  208.2220  152.7620 C   0  0  2  0  0  3  0  0  0  0  0  0
  161.0200  206.3050  149.1870 C   0  0  0  0  0  2  0  0  0  0  0  0
  160.3430  203.9440  149.2220 N   0  0  0  0  0  0  0  0  0  0  0  0
  161.9420  210.4220  153.0210 C   0  0  0  0  0  3  0  0  0  0  0  0
  161.0670  201.0680  151.2100 O   0  0  0  0  0  0  0  0  0  0  0  0
  161.2510  207.4500  150.2050 C   0  0  1  0  0  3  0  0  0  0  0  0
  161.4240  205.8130  152.1570 C   0  0  0  0  0  3  0  0  0  0  0  0
  159.1510  209.0920  156.1900 C   0  0  0  0  0  2  0  0  0  0  0  0
  158.0180  209.9450  155.7840 N   0  0  0  0  0  2  0  0  0  0  0  0
  157.2850  212.2640  155.6570 C   0  0  2  0  0  3  0  0  0  0  0  0
  155.9880  213.2590  157.2350 C   0  0  0  0  0  2  0  0  0  0  0  0
  158.0160  211.2490  155.1660 C   0  0  2  0  0  3  0  0  0  0  0  0
  156.7010  212.0920  156.8900 N   0  0  0  0  0  2  0  0  0  0  0  0
  155.7730  214.0300  156.0390 N   0  0  0  0  0  2  0  0  0  0  0  0
  156.6850  213.4820  155.0580 C   0  0  0  0  0  2  0  0  0  0  0  0
  158.4060  211.4740  153.7660 C   0  0  0  0  0  1  0  0  0  0  0  0
  1 13  1  0  0  0  0
  2  9  1  0  0  0  0
  2 13  1  0  0  0  0
  3  8  1  0  0  0  0
  4 12  1  0  0  0  0
  6 10  1  0  0  0  0
  7 22  2  0  0  0  0
  7 16  1  0  0  0  0
  8 21  1  0  0  0  0
  8 15  1  0  0  0  0
  9 13  1  0  0  0  0
  9 23  1  0  0  0  0
 10 20  2  0  0  0  0
 10  5  1  0  0  0  0
 11  6  2  0  0  0  0
 12  5  1  0  0  0  0
 12 22  1  0  0  0  0
 14 16  1  0  0  0  0
 14 19  2  0  0  0  0
 15 14  1  0  0  0  0
 16  2  1  0  0  0  0
 17  4  1  0  0  0  0
 17 21  1  0  0  0  0
 18  6  1  0  0  0  0
 18  4  2  0  0  0  0
 19  1  1  0  0  0  0
 21  7  1  0  0  0  0
 24 23  1  0  0  0  0
 25 28  1  0  0  0  0
 27 25  1  0  0  0  0
 27 24  1  0  0  0  0
 28 26  1  0  0  0  0
 29 26  1  0  0  0  0
 30 25  1  0  0  0  0
 30 29  1  0  0  0  0
 31 27  1  0  0  0  0
M  END
>  <MODEL>
3

>  <REMARK>
 VINA RESULT:      -7.3      4.220      8.960
  Name = 
  3 active torsions:
  status: ('A' for Active; 'I' for Inactive)
    1  A    between atoms: C_8  and  N_16
    2  A    between atoms: C_10  and  C_13
    3  A    between atoms: C_10  and  N_16
                            x       y       z     vdW  Elec       q    Type
                         _______ _______ _______ _____ _____    ______ ____

>  <TORSDO>
F 3

$$$$
=
 OpenBabel11072412403D

 31 36  0  0  1  0  0  0  0  0999 V2000
  161.8400  206.3670  154.1330 C   0  0  0  0  0  2  0  0  0  0  0  0
  161.6720  207.8460  152.2700 C   0  0  2  0  0  3  0  0  0  0  0  0
  158.5430  211.2410  156.0990 N   0  0  0  0  0  1  0  0  0  0  0  0
  158.9190  212.5940  151.8450 C   0  0  0  0  0  0  0  0  0  0  0  0
  161.0370  213.0350  150.3030 C   0  0  0  0  0  2  0  0  0  0  0  0
  158.5810  213.8030  149.8700 C   0  0  0  0  0  0  0  0  0  0  0  0
  160.1990  210.1400  152.8050 C   0  0  0  0  0  0  0  0  0  0  0  0
  159.6410  210.8300  155.2040 C   0  0  1  0  0  3  0  0  0  0  0  0
  160.9900  206.5940  151.7320 C   0  0  2  0  0  3  0  0  0  0  0  0
  160.0090  213.6930  149.3870 C   0  0  0  0  0  0  0  0  0  0  0  0
  157.7160  214.3140  149.1380 O   0  0  0  0  0  0  0  0  0  0  0  0
  160.3140  212.1450  151.3400 C   0  0  2  0  0  3  0  0  0  0  0  0
  162.2060  206.6000  152.7450 N   0  0  2  0  0  0  0  0  0  0  0  0
  160.6360  208.5420  154.5730 C   0  0  0  0  0  0  0  0  0  0  0  0
  159.9970  209.4570  155.5250 N   0  0  0  0  0  2  0  0  0  0  0  0
  160.5460  208.6700  153.1190 C   0  0  2  0  0  3  0  0  0  0  0  0
  158.4990  212.1730  153.2460 C   0  0  0  0  0  2  0  0  0  0  0  0
  158.2050  213.3620  151.1170 N   0  0  0  0  0  0  0  0  0  0  0  0
  161.1150  207.4340  155.0330 C   0  0  0  0  0  3  0  0  0  0  0  0
  160.2360  214.1680  148.2930 O   0  0  0  0  0  0  0  0  0  0  0  0
  159.1780  210.8760  153.7540 C   0  0  1  0  0  3  0  0  0  0  0  0
  160.6290  210.6970  151.6610 C   0  0  0  0  0  3  0  0  0  0  0  0
  160.8870  205.0400  151.3160 C   0  0  0  0  0  2  0  0  0  0  0  0
  160.4340  204.7110  149.9500 N   0  0  0  0  0  2  0  0  0  0  0  0
  161.5910  204.4480  147.8230 C   0  0  2  0  0  3  0  0  0  0  0  0
  162.2720  206.1940  146.5390 C   0  0  0  0  0  2  0  0  0  0  0  0
  161.0680  203.9040  148.9350 C   0  0  2  0  0  3  0  0  0  0  0  0
  161.6980  205.8180  147.7720 N   0  0  0  0  0  2  0  0  0  0  0  0
  162.1550  205.0880  145.6270 N   0  0  0  0  0  2  0  0  0  0  0  0
  161.8400  203.9400  146.4510 C   0  0  0  0  0  2  0  0  0  0  0  0
  160.8140  202.4640  148.7820 C   0  0  0  0  0  1  0  0  0  0  0  0
  1 19  1  0  0  0  0
  2 13  1  0  0  0  0
  2 16  1  0  0  0  0
  4 17  1  0  0  0  0
  5 12  1  0  0  0  0
  6 18  1  0  0  0  0
  7 16  1  0  0  0  0
  7 21  1  0  0  0  0
  8 15  1  0  0  0  0
  8  3  1  0  0  0  0
  9  2  1  0  0  0  0
  9 13  1  0  0  0  0
 10  6  1  0  0  0  0
 10  5  1  0  0  0  0
 11  6  2  0  0  0  0
 12 22  1  0  0  0  0
 12  4  1  0  0  0  0
 13  1  1  0  0  0  0
 14 19  2  0  0  0  0
 14 15  1  0  0  0  0
 16 14  1  0  0  0  0
 17 21  1  0  0  0  0
 18  4  2  0  0  0  0
 20 10  2  0  0  0  0
 21  8  1  0  0  0  0
 22  7  2  0  0  0  0
 23  9  1  0  0  0  0
 24 23  1  0  0  0  0
 25 27  1  0  0  0  0
 26 28  1  0  0  0  0
 27 24  1  0  0  0  0
 28 25  1  0  0  0  0
 29 30  1  0  0  0  0
 29 26  1  0  0  0  0
 30 25  1  0  0  0  0
 31 27  1  0  0  0  0
M  END
>  <MODEL>
4

>  <REMARK>
 VINA RESULT:      -7.2      1.585      1.993
  Name = 
  3 active torsions:
  status: ('A' for Active; 'I' for Inactive)
    1  A    between atoms: C_8  and  N_16
    2  A    between atoms: C_10  and  C_13
    3  A    between atoms: C_10  and  N_16
                            x       y       z     vdW  Elec       q    Type
                         _______ _______ _______ _____ _____    ______ ____

>  <TORSDO>
F 3

$$$$
=
 OpenBabel11072412403D

 31 36  0  0  1  0  0  0  0  0999 V2000
  162.6640  206.0040  151.6900 C   0  0  0  0  0  2  0  0  0  0  0  0
  161.4180  207.9800  151.2090 C   0  0  2  0  0  3  0  0  0  0  0  0
  160.4610  208.0160  157.1310 N   0  0  0  0  0  1  0  0  0  0  0  0
  158.4390  211.1200  154.6110 C   0  0  0  0  0  0  0  0  0  0  0  0
  159.3920  212.9060  152.8910 C   0  0  0  0  0  2  0  0  0  0  0  0
  157.0140  212.8610  153.9650 C   0  0  0  0  0  0  0  0  0  0  0  0
  160.2440  209.1240  153.4530 C   0  0  0  0  0  0  0  0  0  0  0  0
  160.9620  208.4540  155.8150 C   0  0  1  0  0  3  0  0  0  0  0  0
  160.6690  206.9360  150.3900 C   0  0  2  0  0  3  0  0  0  0  0  0
  157.9830  213.4850  152.9890 C   0  0  0  0  0  0  0  0  0  0  0  0
  155.8530  213.2950  154.0520 O   0  0  0  0  0  0  0  0  0  0  0  0
  159.3990  211.4620  153.4430 C   0  0  2  0  0  3  0  0  0  0  0  0
  162.2290  206.9300  150.6570 N   0  0  2  0  0  0  0  0  0  0  0  0
  161.6790  207.1870  153.6930 C   0  0  0  0  0  0  0  0  0  0  0  0
  161.5530  207.3040  155.1490 N   0  0  0  0  0  2  0  0  0  0  0  0
  160.8320  207.8940  152.7320 C   0  0  2  0  0  3  0  0  0  0  0  0
  158.8520  210.0130  155.5710 C   0  0  0  0  0  2  0  0  0  0  0  0
  157.3850  211.8190  154.7840 N   0  0  0  0  0  0  0  0  0  0  0  0
  162.4240  206.2390  153.2270 C   0  0  0  0  0  3  0  0  0  0  0  0
  157.5620  214.4340  152.3590 O   0  0  0  0  0  0  0  0  0  0  0  0
  159.8080  208.9590  154.9590 C   0  0  1  0  0  3  0  0  0  0  0  0
  159.9620  210.2350  152.7530 C   0  0  0  0  0  3  0  0  0  0  0  0
  160.5010  205.7940  149.2650 C   0  0  0  0  0  2  0  0  0  0  0  0
  161.3830  204.6130  149.3300 N   0  0  0  0  0  2  0  0  0  0  0  0
  161.1980  202.9920  147.5220 C   0  0  2  0  0  3  0  0  0  0  0  0
  161.5990  203.4910  145.3420 C   0  0  0  0  0  2  0  0  0  0  0  0
  161.1740  203.2730  148.8360 C   0  0  2  0  0  3  0  0  0  0  0  0
  161.6400  203.9740  146.6670 N   0  0  0  0  0  2  0  0  0  0  0  0
  160.7420  202.3360  145.3060 N   0  0  0  0  0  2  0  0  0  0  0  0
  160.5770  201.9340  146.6870 C   0  0  0  0  0  2  0  0  0  0  0  0
  160.4910  202.2290  149.6130 C   0  0  0  0  0  1  0  0  0  0  0  0
  1 19  1  0  0  0  0
  2 16  1  0  0  0  0
  4 18  2  0  0  0  0
  4 17  1  0  0  0  0
  5 10  1  0  0  0  0
  5 12  1  0  0  0  0
  6 11  2  0  0  0  0
  6 18  1  0  0  0  0
  7 21  1  0  0  0  0
  8  3  1  0  0  0  0
  9 13  1  0  0  0  0
  9  2  1  0  0  0  0
 10  6  1  0  0  0  0
 12  4  1  0  0  0  0
 13  2  1  0  0  0  0
 13  1  1  0  0  0  0
 14 15  1  0  0  0  0
 15  8  1  0  0  0  0
 16  7  1  0  0  0  0
 16 14  1  0  0  0  0
 19 14  2  0  0  0  0
 20 10  2  0  0  0  0
 21 17  1  0  0  0  0
 21  8  1  0  0  0  0
 22 12  1  0  0  0  0
 22  7  2  0  0  0  0
 23 24  1  0  0  0  0
 23  9  1  0  0  0  0
 25 27  1  0  0  0  0
 26 28  1  0  0  0  0
 27 24  1  0  0  0  0
 27 31  1  0  0  0  0
 28 25  1  0  0  0  0
 29 26  1  0  0  0  0
 29 30  1  0  0  0  0
 30 25  1  0  0  0  0
M  END
>  <MODEL>
5

>  <REMARK>
 VINA RESULT:      -6.8      3.317      4.167
  Name = 
  3 active torsions:
  status: ('A' for Active; 'I' for Inactive)
    1  A    between atoms: C_8  and  N_16
    2  A    between atoms: C_10  and  C_13
    3  A    between atoms: C_10  and  N_16
                            x       y       z     vdW  Elec       q    Type
                         _______ _______ _______ _____ _____    ______ ____

>  <TORSDO>
F 3

$$$$
=
 OpenBabel11072412403D

 31 36  0  0  1  0  0  0  0  0999 V2000
  161.0650  209.1560  154.4590 C   0  0  0  0  0  2  0  0  0  0  0  0
  161.5090  209.9510  152.2550 C   0  0  2  0  0  3  0  0  0  0  0  0
  157.0900  213.8190  153.4780 N   0  0  0  0  0  1  0  0  0  0  0  0
  158.8960  213.8490  149.3780 C   0  0  0  0  0  0  0  0  0  0  0  0
  161.4030  214.1250  148.5450 C   0  0  0  0  0  2  0  0  0  0  0  0
  159.2320  214.3300  147.1120 C   0  0  0  0  0  0  0  0  0  0  0  0
  159.8500  212.0380  151.4740 C   0  0  0  0  0  0  0  0  0  0  0  0
  158.4500  213.3320  153.1800 C   0  0  1  0  0  3  0  0  0  0  0  0
  161.1120  208.5040  151.9870 C   0  0  2  0  0  3  0  0  0  0  0  0
  160.7410  214.3030  147.1820 C   0  0  0  0  0  0  0  0  0  0  0  0
  158.6620  214.4510  146.0140 O   0  0  0  0  0  0  0  0  0  0  0  0
  160.3960  213.4920  149.5320 C   0  0  2  0  0  3  0  0  0  0  0  0
  161.8890  209.0080  153.2710 N   0  0  2  0  0  0  0  0  0  0  0  0
  159.6960  211.1460  153.7200 C   0  0  0  0  0  0  0  0  0  0  0  0
  158.7240  212.1950  154.0450 N   0  0  0  0  0  2  0  0  0  0  0  0
  160.1220  210.8080  152.3630 C   0  0  2  0  0  3  0  0  0  0  0  0
  158.0240  213.8160  150.6250 C   0  0  0  0  0  2  0  0  0  0  0  0
  158.4560  214.2370  148.2440 N   0  0  0  0  0  0  0  0  0  0  0  0
  160.0250  210.3200  154.6580 C   0  0  0  0  0  3  0  0  0  0  0  0
  161.3220  214.4490  146.1250 O   0  0  0  0  0  0  0  0  0  0  0  0
  158.5300  212.8590  151.7340 C   0  0  1  0  0  3  0  0  0  0  0  0
  160.6350  212.2790  150.4110 C   0  0  0  0  0  3  0  0  0  0  0  0
  161.2260  206.9010  152.1150 C   0  0  0  0  0  2  0  0  0  0  0  0
  160.5030  206.0680  151.1350 N   0  0  0  0  0  2  0  0  0  0  0  0
  161.2500  205.3660  148.9260 C   0  0  2  0  0  3  0  0  0  0  0  0
  161.5010  206.7900  147.1730 C   0  0  0  0  0  2  0  0  0  0  0  0
  161.0060  205.0760  150.2150 C   0  0  2  0  0  3  0  0  0  0  0  0
  161.2130  206.6880  148.5510 N   0  0  0  0  0  2  0  0  0  0  0  0
  161.3190  205.4950  146.5750 N   0  0  0  0  0  2  0  0  0  0  0  0
  161.2800  204.5610  147.6800 C   0  0  0  0  0  2  0  0  0  0  0  0
  160.8680  203.6300  150.4410 C   0  0  0  0  0  1  0  0  0  0  0  0
  1 19  1  0  0  0  0
  2 16  1  0  0  0  0
  2 13  1  0  0  0  0
  4 12  1  0  0  0  0
  4 17  1  0  0  0  0
  5 12  1  0  0  0  0
  6 10  1  0  0  0  0
  6 18  1  0  0  0  0
  7 21  1  0  0  0  0
  7 16  1  0  0  0  0
  8  3  1  0  0  0  0
  8 15  1  0  0  0  0
  9 23  1  0  0  0  0
  9  2  1  0  0  0  0
  9 13  1  0  0  0  0
 10  5  1  0  0  0  0
 11  6  2  0  0  0  0
 12 22  1  0  0  0  0
 13  1  1  0  0  0  0
 14 15  1  0  0  0  0
 14 19  2  0  0  0  0
 16 14  1  0  0  0  0
 17 21  1  0  0  0  0
 18  4  2  0  0  0  0
 20 10  2  0  0  0  0
 21  8  1  0  0  0  0
 22  7  2  0  0  0  0
 24 23  1  0  0  0  0
 25 27  1  0  0  0  0
 26 28  1  0  0  0  0
 27 31  1  0  0  0  0
 27 24  1  0  0  0  0
 28 25  1  0  0  0  0
 29 26  1  0  0  0  0
 29 30  1  0  0  0  0
 30 25  1  0  0  0  0
M  END
>  <MODEL>
6

>  <REMARK>
 VINA RESULT:      -6.6      1.587      2.414
  Name = 
  3 active torsions:
  status: ('A' for Active; 'I' for Inactive)
    1  A    between atoms: C_8  and  N_16
    2  A    between atoms: C_10  and  C_13
    3  A    between atoms: C_10  and  N_16
                            x       y       z     vdW  Elec       q    Type
                         _______ _______ _______ _____ _____    ______ ____

>  <TORSDO>
F 3

$$$$
=
 OpenBabel11072412403D

 31 36  0  0  1  0  0  0  0  0999 V2000
  160.6600  207.7260  154.0090 C   0  0  0  0  0  2  0  0  0  0  0  0
  160.7680  208.0080  151.6430 C   0  0  2  0  0  3  0  0  0  0  0  0
  161.3500  202.0380  151.6260 N   0  0  0  0  0  1  0  0  0  0  0  0
  161.6430  204.2330  147.7330 C   0  0  0  0  0  0  0  0  0  0  0  0
  159.9920  205.9240  146.5200 C   0  0  0  0  0  2  0  0  0  0  0  0
  162.0300  204.6790  145.4680 C   0  0  0  0  0  0  0  0  0  0  0  0
  161.1250  205.6260  150.2570 C   0  0  0  0  0  0  0  0  0  0  0  0
  160.7480  203.3620  151.3880 C   0  0  1  0  0  3  0  0  0  0  0  0
  161.9700  208.8220  152.1060 C   0  0  2  0  0  3  0  0  0  0  0  0
  160.9170  205.6910  145.3280 C   0  0  0  0  0  0  0  0  0  0  0  0
  162.8140  204.4830  144.5240 O   0  0  0  0  0  0  0  0  0  0  0  0
  160.6870  205.4510  147.8170 C   0  0  2  0  0  3  0  0  0  0  0  0
  160.6120  208.6730  152.9070 N   0  0  2  0  0  0  0  0  0  0  0  0
  160.8430  205.5960  152.6630 C   0  0  0  0  0  0  0  0  0  0  0  0
  160.8380  204.1300  152.6210 N   0  0  0  0  0  2  0  0  0  0  0  0
  161.2590  206.4520  151.5530 C   0  0  2  0  0  3  0  0  0  0  0  0
  161.8030  203.3660  148.9740 C   0  0  0  0  0  2  0  0  0  0  0  0
  162.1990  203.9460  146.6200 N   0  0  0  0  0  0  0  0  0  0  0  0
  160.6910  206.1650  153.8140 C   0  0  0  0  0  3  0  0  0  0  0  0
  160.8310  206.2370  144.2470 O   0  0  0  0  0  0  0  0  0  0  0  0
  161.5270  204.1030  150.3090 C   0  0  1  0  0  3  0  0  0  0  0  0
  160.8400  206.2440  149.0990 C   0  0  0  0  0  3  0  0  0  0  0  0
  162.7290  209.9910  152.9170 C   0  0  0  0  0  2  0  0  0  0  0  0
  161.9430  210.8150  153.8550 N   0  0  0  0  0  2  0  0  0  0  0  0
  160.6170  210.9660  155.8930 C   0  0  2  0  0  3  0  0  0  0  0  0
  158.3920  211.4240  155.9120 C   0  0  0  0  0  2  0  0  0  0  0  0
  161.7840  210.6930  155.2840 C   0  0  2  0  0  3  0  0  0  0  0  0
  159.5130  211.1590  155.0960 N   0  0  0  0  0  2  0  0  0  0  0  0
  158.8600  211.8070  157.2170 N   0  0  0  0  0  2  0  0  0  0  0  0
  160.2500  211.4080  157.2610 C   0  0  0  0  0  2  0  0  0  0  0  0
  162.9160  210.7180  156.2220 C   0  0  0  0  0  1  0  0  0  0  0  0
  2  9  1  0  0  0  0
  2 13  1  0  0  0  0
  4 12  1  0  0  0  0
  4 17  1  0  0  0  0
  5 12  1  0  0  0  0
  6 18  1  0  0  0  0
  7 21  1  0  0  0  0
  7 16  1  0  0  0  0
  8  3  1  0  0  0  0
  8 15  1  0  0  0  0
  9 13  1  0  0  0  0
  9 23  1  0  0  0  0
 10  6  1  0  0  0  0
 10  5  1  0  0  0  0
 11  6  2  0  0  0  0
 12 22  1  0  0  0  0
 13  1  1  0  0  0  0
 14 19  2  0  0  0  0
 15 14  1  0  0  0  0
 16  2  1  0  0  0  0
 16 14  1  0  0  0  0
 17 21  1  0  0  0  0
 18  4  2  0  0  0  0
 19  1  1  0  0  0  0
 20 10  2  0  0  0  0
 21  8  1  0  0  0  0
 22  7  2  0  0  0  0
 23 24  1  0  0  0  0
 24 27  1  0  0  0  0
 25 30  1  0  0  0  0
 26 29  1  0  0  0  0
 27 25  1  0  0  0  0
 27 31  1  0  0  0  0
 28 25  1  0  0  0  0
 28 26  1  0  0  0  0
 29 30  1  0  0  0  0
M  END
>  <MODEL>
7

>  <REMARK>
 VINA RESULT:      -6.2      3.525      8.266
  Name = 
  3 active torsions:
  status: ('A' for Active; 'I' for Inactive)
    1  A    between atoms: C_8  and  N_16
    2  A    between atoms: C_10  and  C_13
    3  A    between atoms: C_10  and  N_16
                            x       y       z     vdW  Elec       q    Type
                         _______ _______ _______ _____ _____    ______ ____

>  <TORSDO>
F 3

$$$$
=
 OpenBabel11072412403D

 31 36  0  0  1  0  0  0  0  0999 V2000
  162.4770  205.8010  152.9300 C   0  0  0  0  0  2  0  0  0  0  0  0
  161.7640  207.6180  151.5590 C   0  0  2  0  0  3  0  0  0  0  0  0
  159.5130  209.7410  156.6980 N   0  0  0  0  0  1  0  0  0  0  0  0
  158.7320  212.0080  152.9140 C   0  0  0  0  0  0  0  0  0  0  0  0
  160.3670  213.0040  151.0720 C   0  0  0  0  0  2  0  0  0  0  0  0
  157.8420  213.5680  151.4140 C   0  0  0  0  0  0  0  0  0  0  0  0
  160.3460  209.5640  152.9470 C   0  0  0  0  0  0  0  0  0  0  0  0
  160.3720  209.6570  155.5030 C   0  0  1  0  0  3  0  0  0  0  0  0
  161.0380  206.4430  150.9150 C   0  0  2  0  0  3  0  0  0  0  0  0
  159.1060  213.7240  150.6010 C   0  0  0  0  0  0  0  0  0  0  0  0
  156.7930  214.1240  151.0440 O   0  0  0  0  0  0  0  0  0  0  0  0
  159.9780  211.8370  152.0080 C   0  0  2  0  0  3  0  0  0  0  0  0
  162.4680  206.3660  151.5900 N   0  0  2  0  0  0  0  0  0  0  0  0
  161.3020  207.6840  154.1370 C   0  0  0  0  0  0  0  0  0  0  0  0
  160.8730  208.2950  155.3990 N   0  0  0  0  0  2  0  0  0  0  0  0
  160.8430  208.1090  152.8160 C   0  0  2  0  0  3  0  0  0  0  0  0
  158.7020  211.2520  154.2350 C   0  0  0  0  0  2  0  0  0  0  0  0
  157.8160  212.8290  152.5740 N   0  0  0  0  0  0  0  0  0  0  0  0
  161.9420  206.5630  154.1990 C   0  0  0  0  0  3  0  0  0  0  0  0
  159.0240  214.4450  149.6270 O   0  0  0  0  0  0  0  0  0  0  0  0
  159.5570  209.9600  154.2520 C   0  0  1  0  0  3  0  0  0  0  0  0
  160.4430  210.3980  151.8980 C   0  0  0  0  0  3  0  0  0  0  0  0
  160.9200  205.0130  150.1800 C   0  0  0  0  0  3  0  0  0  0  0  0
  160.9880  204.9760  148.7070 N   0  0  0  0  0  0  0  0  0  0  0  0
  160.9770  202.5840  148.2500 C   0  0  2  0  0  3  0  0  0  0  0  0
  160.4490  201.0120  149.8030 C   0  0  0  0  0  2  0  0  0  0  0  0
  161.1040  203.8490  147.8130 C   0  0  2  0  0  3  0  0  0  0  0  0
  160.5210  202.3950  149.5330 N   0  0  0  0  0  2  0  0  0  0  0  0
  161.2500  200.3180  148.8300 N   0  0  0  0  0  2  0  0  0  0  0  0
  161.4920  201.2770  147.7740 C   0  0  0  0  0  2  0  0  0  0  0  0
  161.7920  203.9210  146.5160 C   0  0  0  0  0  1  0  0  0  0  0  0
  1 19  1  0  0  0  0
  2 13  1  0  0  0  0
  2 16  1  0  0  0  0
  4 17  1  0  0  0  0
  5 12  1  0  0  0  0
  6 18  1  0  0  0  0
  7 21  1  0  0  0  0
  8  3  1  0  0  0  0
  9  2  1  0  0  0  0
  9 13  1  0  0  0  0
 10  5  1  0  0  0  0
 10  6  1  0  0  0  0
 11  6  2  0  0  0  0
 12  4  1  0  0  0  0
 13  1  1  0  0  0  0
 14 19  2  0  0  0  0
 14 15  1  0  0  0  0
 15  8  1  0  0  0  0
 16  7  1  0  0  0  0
 16 14  1  0  0  0  0
 17 21  1  0  0  0  0
 18  4  2  0  0  0  0
 20 10  2  0  0  0  0
 21  8  1  0  0  0  0
 22 12  1  0  0  0  0
 22  7  2  0  0  0  0
 23  9  1  0  0  0  0
 24 23  2  0  0  0  0
 25 28  1  0  0  0  0
 27 25  1  0  0  0  0
 27 24  1  0  0  0  0
 28 26  1  0  0  0  0
 29 26  1  0  0  0  0
 30 25  1  0  0  0  0
 30 29  1  0  0  0  0
 31 27  1  0  0  0  0
M  END
>  <MODEL>
8

>  <REMARK>
 VINA RESULT:      -6.2      2.282      3.310
  Name = 
  3 active torsions:
  status: ('A' for Active; 'I' for Inactive)
    1  A    between atoms: C_8  and  N_16
    2  A    between atoms: C_10  and  C_13
    3  A    between atoms: C_10  and  N_16
                            x       y       z     vdW  Elec       q    Type
                         _______ _______ _______ _____ _____    ______ ____

>  <TORSDO>
F 3

$$$$
