=
 OpenBabel11072410563D

 42 42  0  0  1  0  0  0  0  0999 V2000
  161.2650  207.2540  154.6720 C   0  0  0  0  0  2  0  0  0  0  0  0
  160.3100  207.7570  155.7110 C   0  0  0  0  0  0  0  0  0  0  0  0
  159.9080  206.9950  156.5750 O   0  0  0  0  0  0  0  0  0  0  0  0
  160.1310  209.8120  154.5040 F   0  0  0  0  0  0  0  0  0  0  0  0
  159.8370  209.1850  155.7050 C   0  0  2  0  0  3  0  0  0  0  0  0
  160.3520  210.0170  156.8880 C   0  0  1  0  0  3  0  0  0  0  0  0
  161.7500  210.0400  156.9340 O   0  0  0  0  0  1  0  0  0  0  0  0
  159.7590  211.4260  156.9610 C   0  0  1  0  0  3  0  0  0  0  0  0
  160.5130  212.2980  156.1750 O   0  0  0  0  0  1  0  0  0  0  0  0
  158.2990  211.4700  156.5260 C   0  0  0  0  0  2  0  0  0  0  0  0
  158.0740  212.5620  155.4930 C   0  0  0  0  0  2  0  0  0  0  0  0
  157.5770  211.9600  154.1890 C   0  0  0  0  0  2  0  0  0  0  0  0
  157.6430  212.9440  153.1190 N   0  0  0  0  0  2  0  0  0  0  0  0
  159.6870  212.1660  152.2180 N   0  0  0  0  0  2  0  0  0  0  0  0
  158.6800  212.9700  152.1310 C   0  0  0  0  0  0  0  0  0  0  0  0
  158.7200  214.0750  151.1250 C   0  0  0  0  0  2  0  0  0  0  0  0
  158.2020  213.6220  149.8010 C   0  0  0  0  0  0  0  0  0  0  0  0
  159.6700  213.0370  146.4900 O   0  0  0  0  0  0  0  0  0  0  0  0
  157.4140  212.5520  147.0250 C   0  0  0  0  0  1  0  0  0  0  0  0
  158.7760  213.0450  147.3750 C   0  0  0  0  0  0  0  0  0  0  0  0
  156.9850  213.3200  149.6890 O   0  0  0  0  0  0  0  0  0  0  0  0
  159.0990  213.5240  148.6880 N   0  0  0  0  0  2  0  0  0  0  0  0
  160.5220  206.6100  153.5150 C   0  0  0  0  0  2  0  0  0  0  0  0
  160.8020  208.9250  151.9250 O   0  0  0  0  0  0  0  0  0  0  0  0
  161.4230  205.3110  150.1450 C   0  0  0  0  0  3  0  0  0  0  0  0
  161.7940  206.5670  149.4080 C   0  0  2  0  0  3  0  0  0  0  0  0
  161.2410  205.3250  151.4740 C   0  0  0  0  0  0  0  0  0  0  0  0
  161.1980  207.7120  150.0160 O   0  0  0  0  0  0  0  0  0  0  0  0
  161.1040  207.8170  151.4050 C   0  0  0  0  0  0  0  0  0  0  0  0
  161.4000  206.6140  152.2660 C   0  0  1  0  0  3  0  0  0  0  0  0
  161.4070  206.4750  147.9670 C   0  0  0  0  0  0  0  0  0  0  0  0
  161.5620  207.4300  147.2210 O   0  0  0  0  0  0  0  0  0  0  0  0
  160.8410  205.1960  147.4420 C   0  0  0  0  0  2  0  0  0  0  0  0
  161.2270  205.5860  144.6220 O   0  0  0  0  0  0  0  0  0  0  0  0
  161.7300  204.6640  145.9480 P   0  0  0  0  0  0  0  0  0  0  0  0
  163.3900  204.8820  146.1820 O   0  0  0  0  0  1  0  0  0  0  0  0
  161.4480  203.2020  145.6810 O   0  0  0  0  0  1  0  0  0  0  0  0
  160.9760  204.0210  152.1600 C   0  0  0  0  0  2  0  0  0  0  0  0
  161.6620  202.8840  151.4170 C   0  0  0  0  0  2  0  0  0  0  0  0
  160.6370  201.8800  150.9220 C   0  0  0  0  0  2  0  0  0  0  0  0
  160.5220  201.9410  149.4090 C   0  0  0  0  0  2  0  0  0  0  0  0
  161.3390  200.9660  148.8410 O   0  0  0  0  0  1  0  0  0  0  0  0
  1  2  1  0  0  0  0
  2  3  2  0  0  0  0
  5  4  1  6  0  0  0
  5  2  1  0  0  0  0
  5  6  1  0  0  0  0
  6  7  1  6  0  0  0
  6  8  1  0  0  0  0
  8  9  1  6  0  0  0
 10  8  1  0  0  0  0
 11 10  1  0  0  0  0
 12 11  1  0  0  0  0
 13 12  1  0  0  0  0
 15 14  2  0  0  0  0
 15 13  1  0  0  0  0
 16 15  1  0  0  0  0
 17 16  1  0  0  0  0
 18 20  2  0  0  0  0
 19 20  1  0  0  0  0
 20 22  1  0  0  0  0
 21 17  2  0  0  0  0
 22 17  1  0  0  0  0
 23  1  1  0  0  0  0
 25 27  2  0  0  0  0
 26 31  1  6  0  0  0
 26 28  1  0  0  0  0
 26 25  1  0  0  0  0
 27 38  1  0  0  0  0
 27 30  1  0  0  0  0
 28 29  1  0  0  0  0
 29 24  2  0  0  0  0
 29 30  1  0  0  0  0
 30 23  1  1  0  0  0
 32 31  2  0  0  0  0
 33 31  1  0  0  0  0
 34 35  2  0  0  0  0
 35 36  1  0  0  0  0
 35 33  1  0  0  0  0
 37 35  1  0  0  0  0
 39 38  1  0  0  0  0
 40 39  1  0  0  0  0
 41 40  1  0  0  0  0
 42 41  1  0  0  0  0
M  END
>  <MODEL>
1

>  <REMARK>
 VINA RESULT:      -6.8      0.000      0.000
  Name = 
  19 active torsions:
  status: ('A' for Active; 'I' for Inactive)
    1  A    between atoms: N_1  and  C_17
    2  A    between atoms: C_4  and  C_11
    3  A    between atoms: C_4  and  C_18
    4  A    between atoms: C_6  and  C_17
    5  A    between atoms: C_6  and  C_36
    6  A    between atoms: P_8  and  C_34
    7  A    between atoms: C_9  and  C_19
    8  A    between atoms: C_10  and  C_11
    9  A    between atoms: C_10  and  C_15
   10  A    between atoms: C_13  and  C_15
   11  A    between atoms: C_13  and  C_36
   12  A    between atoms: C_14  and  C_25
   13  A    between atoms: C_18  and  C_33
   14  A    between atoms: C_19  and  C_21
   15  A    between atoms: C_22  and  C_23
   16  A    between atoms: C_22  and  C_27
   17  A    between atoms: C_23  and  C_40
   18  A    between atoms: C_25  and  C_34
   19  A    between atoms: C_29  and  C_40
                            x       y       z     vdW  Elec       q    Type
                         _______ _______ _______ _____ _____    ______ ____

>  <TORSDO>
F 19

$$$$
=
 OpenBabel11072410563D

 42 42  0  0  1  0  0  0  0  0999 V2000
  161.6410  209.8150  148.2330 C   0  0  0  0  0  2  0  0  0  0  0  0
  161.8820  211.1240  148.9200 C   0  0  0  0  0  0  0  0  0  0  0  0
  162.0450  211.1450  150.1300 O   0  0  0  0  0  0  0  0  0  0  0  0
  161.7910  213.5110  148.9800 F   0  0  0  0  0  0  0  0  0  0  0  0
  161.9230  212.4130  148.1450 C   0  0  2  0  0  3  0  0  0  0  0  0
  160.9050  212.4820  146.9970 C   0  0  1  0  0  3  0  0  0  0  0  0
  159.5950  212.5990  147.4740 O   0  0  0  0  0  1  0  0  0  0  0  0
  161.2250  213.5500  145.9480 C   0  0  1  0  0  3  0  0  0  0  0  0
  162.5940  213.8170  145.9470 O   0  0  0  0  0  1  0  0  0  0  0  0
  160.7750  213.1480  144.5480 C   0  0  0  0  0  2  0  0  0  0  0  0
  161.7310  213.6880  143.4970 C   0  0  0  0  0  2  0  0  0  0  0  0
  162.5010  212.5480  142.8490 C   0  0  0  0  0  2  0  0  0  0  0  0
  161.6570  211.8470  141.8920 N   0  0  0  0  0  2  0  0  0  0  0  0
  162.9760  212.3710  139.9990 N   0  0  0  0  0  2  0  0  0  0  0  0
  161.9650  211.7390  140.4970 C   0  0  0  0  0  0  0  0  0  0  0  0
  160.9940  211.0820  139.5700 C   0  0  0  0  0  2  0  0  0  0  0  0
  161.4590  209.7220  139.1730 C   0  0  0  0  0  0  0  0  0  0  0  0
  162.0060  206.5420  140.9180 O   0  0  0  0  0  0  0  0  0  0  0  0
  162.2230  206.8010  138.5740 C   0  0  0  0  0  1  0  0  0  0  0  0
  161.9310  207.3260  139.9380 C   0  0  0  0  0  0  0  0  0  0  0  0
  161.7330  209.4950  137.9650 O   0  0  0  0  0  0  0  0  0  0  0  0
  161.5680  208.6950  140.1660 N   0  0  0  0  0  2  0  0  0  0  0  0
  162.3130  208.6760  148.9790 C   0  0  0  0  0  2  0  0  0  0  0  0
  161.4610  208.1350  151.6160 O   0  0  0  0  0  0  0  0  0  0  0  0
  161.2180  205.1200  148.8830 C   0  0  0  0  0  3  0  0  0  0  0  0
  160.5570  204.9530  150.2220 C   0  0  2  0  0  3  0  0  0  0  0  0
  161.5610  206.3370  148.4350 C   0  0  0  0  0  0  0  0  0  0  0  0
  161.0310  205.9280  151.1510 O   0  0  0  0  0  0  0  0  0  0  0  0
  161.2810  207.2400  150.7460 C   0  0  0  0  0  0  0  0  0  0  0  0
  161.2960  207.5770  149.2750 C   0  0  1  0  0  3  0  0  0  0  0  0
  160.7690  203.5730  150.7540 C   0  0  0  0  0  0  0  0  0  0  0  0
  160.1950  203.2040  151.7680 O   0  0  0  0  0  0  0  0  0  0  0  0
  161.6810  202.6400  150.0260 C   0  0  0  0  0  2  0  0  0  0  0  0
  161.5390  200.1910  148.5320 O   0  0  0  0  0  1  0  0  0  0  0  0
  160.7580  201.6670  148.7980 P   0  0  0  0  0  0  0  0  0  0  0  0
  159.1970  201.3770  149.3780 O   0  0  0  0  0  1  0  0  0  0  0  0
  160.6760  202.4340  147.4970 O   0  0  0  0  0  0  0  0  0  0  0  0
  162.1200  206.4430  147.0500 C   0  0  0  0  0  2  0  0  0  0  0  0
  162.7550  205.1250  146.6340 C   0  0  0  0  0  2  0  0  0  0  0  0
  162.4590  204.8320  145.1740 C   0  0  0  0  0  2  0  0  0  0  0  0
  161.0260  205.2040  144.8370 C   0  0  0  0  0  2  0  0  0  0  0  0
  160.3350  204.0660  144.4280 O   0  0  0  0  0  1  0  0  0  0  0  0
  1  2  1  0  0  0  0
  1 23  1  0  0  0  0
  2  3  2  0  0  0  0
  5  2  1  0  0  0  0
  5  4  1  1  0  0  0
  6  7  1  1  0  0  0
  6  5  1  0  0  0  0
  8  9  1  6  0  0  0
  8  6  1  0  0  0  0
 10  8  1  0  0  0  0
 11 10  1  0  0  0  0
 12 11  1  0  0  0  0
 13 12  1  0  0  0  0
 14 15  2  0  0  0  0
 15 13  1  0  0  0  0
 16 15  1  0  0  0  0
 17 16  1  0  0  0  0
 17 22  1  0  0  0  0
 19 20  1  0  0  0  0
 20 22  1  0  0  0  0
 20 18  2  0  0  0  0
 21 17  2  0  0  0  0
 25 26  1  0  0  0  0
 26 31  1  1  0  0  0
 26 28  1  0  0  0  0
 27 25  2  0  0  0  0
 27 30  1  0  0  0  0
 29 28  1  0  0  0  0
 29 24  2  0  0  0  0
 30 23  1  1  0  0  0
 30 29  1  0  0  0  0
 31 32  2  0  0  0  0
 33 31  1  0  0  0  0
 34 35  1  0  0  0  0
 35 36  1  0  0  0  0
 35 33  1  0  0  0  0
 37 35  2  0  0  0  0
 38 27  1  0  0  0  0
 39 38  1  0  0  0  0
 40 39  1  0  0  0  0
 41 40  1  0  0  0  0
 42 41  1  0  0  0  0
M  END
>  <MODEL>
2

>  <REMARK>
 VINA RESULT:      -6.3      4.831      8.346
  Name = 
  19 active torsions:
  status: ('A' for Active; 'I' for Inactive)
    1  A    between atoms: N_1  and  C_17
    2  A    between atoms: C_4  and  C_11
    3  A    between atoms: C_4  and  C_18
    4  A    between atoms: C_6  and  C_17
    5  A    between atoms: C_6  and  C_36
    6  A    between atoms: P_8  and  C_34
    7  A    between atoms: C_9  and  C_19
    8  A    between atoms: C_10  and  C_11
    9  A    between atoms: C_10  and  C_15
   10  A    between atoms: C_13  and  C_15
   11  A    between atoms: C_13  and  C_36
   12  A    between atoms: C_14  and  C_25
   13  A    between atoms: C_18  and  C_33
   14  A    between atoms: C_19  and  C_21
   15  A    between atoms: C_22  and  C_23
   16  A    between atoms: C_22  and  C_27
   17  A    between atoms: C_23  and  C_40
   18  A    between atoms: C_25  and  C_34
   19  A    between atoms: C_29  and  C_40
                            x       y       z     vdW  Elec       q    Type
                         _______ _______ _______ _____ _____    ______ ____

>  <TORSDO>
F 19

$$$$
=
 OpenBabel11072410563D

 42 42  0  0  1  0  0  0  0  0999 V2000
  162.2170  209.7310  151.5150 C   0  0  0  0  0  2  0  0  0  0  0  0
  162.1350  209.0130  150.2030 C   0  0  0  0  0  0  0  0  0  0  0  0
  161.8110  209.6290  149.2010 O   0  0  0  0  0  0  0  0  0  0  0  0
  162.7060  207.1700  148.7920 F   0  0  0  0  0  0  0  0  0  0  0  0
  162.4450  207.5430  150.1010 C   0  0  2  0  0  3  0  0  0  0  0  0
  161.3690  206.6370  150.7160 C   0  0  1  0  0  3  0  0  0  0  0  0
  160.7150  205.8750  149.7420 O   0  0  0  0  0  1  0  0  0  0  0  0
  161.8750  205.7690  151.8700 C   0  0  1  0  0  3  0  0  0  0  0  0
  161.9150  206.5200  153.0450 O   0  0  0  0  0  1  0  0  0  0  0  0
  161.0240  204.5230  152.0830 C   0  0  0  0  0  2  0  0  0  0  0  0
  161.8150  203.2650  151.7640 C   0  0  0  0  0  2  0  0  0  0  0  0
  160.9110  202.2210  151.1280 C   0  0  0  0  0  2  0  0  0  0  0  0
  161.3750  201.9000  149.7860 N   0  0  0  0  0  2  0  0  0  0  0  0
  159.2300  201.4250  148.9100 N   0  0  0  0  0  2  0  0  0  0  0  0
  160.4980  201.5670  148.7040 C   0  0  0  0  0  0  0  0  0  0  0  0
  161.0670  201.1590  147.3840 C   0  0  0  0  0  2  0  0  0  0  0  0
  160.9610  202.2600  146.3830 C   0  0  0  0  0  0  0  0  0  0  0  0
  161.9200  205.8000  146.2930 O   0  0  0  0  0  0  0  0  0  0  0  0
  161.0140  204.6430  144.4360 C   0  0  0  0  0  1  0  0  0  0  0  0
  161.4810  204.7080  145.8500 C   0  0  0  0  0  0  0  0  0  0  0  0
  160.4580  202.0180  145.2550 O   0  0  0  0  0  0  0  0  0  0  0  0
  161.4470  203.5660  146.7170 N   0  0  0  0  0  2  0  0  0  0  0  0
  160.8490  209.8350  152.1650 C   0  0  0  0  0  2  0  0  0  0  0  0
  160.8920  209.2340  154.9230 O   0  0  0  0  0  0  0  0  0  0  0  0
  159.3290  212.8230  153.7840 C   0  0  0  0  0  3  0  0  0  0  0  0
  159.5930  212.5650  155.2400 C   0  0  2  0  0  3  0  0  0  0  0  0
  159.9150  212.0730  152.8380 C   0  0  0  0  0  0  0  0  0  0  0  0
  159.7990  211.1740  155.4850 O   0  0  0  0  0  0  0  0  0  0  0  0
  160.5140  210.3870  154.5800 C   0  0  0  0  0  0  0  0  0  0  0  0
  160.8560  210.9400  153.2180 C   0  0  1  0  0  3  0  0  0  0  0  0
  158.4760  213.0870  156.0860 C   0  0  0  0  0  0  0  0  0  0  0  0
  158.3710  212.7460  157.2540 O   0  0  0  0  0  0  0  0  0  0  0  0
  157.4950  214.0440  155.4920 C   0  0  0  0  0  2  0  0  0  0  0  0
  154.9260  213.5800  156.6900 O   0  0  0  0  0  1  0  0  0  0  0  0
  155.8610  213.2650  155.3170 P   0  0  0  0  0  0  0  0  0  0  0  0
  155.0860  213.8990  153.9550 O   0  0  0  0  0  0  0  0  0  0  0  0
  156.0250  211.7710  155.1510 O   0  0  0  0  0  1  0  0  0  0  0  0
  159.6930  212.4490  151.4060 C   0  0  0  0  0  2  0  0  0  0  0  0
  159.8820  213.9470  151.2180 C   0  0  0  0  0  2  0  0  0  0  0  0
  160.1850  214.2640  149.7650 C   0  0  0  0  0  2  0  0  0  0  0  0
  160.9710  213.1330  149.1260 C   0  0  0  0  0  2  0  0  0  0  0  0
  161.3870  213.5180  147.8530 O   0  0  0  0  0  1  0  0  0  0  0  0
  1 23  1  0  0  0  0
  2  1  1  0  0  0  0
  3  2  2  0  0  0  0
  5  4  1  6  0  0  0
  5  2  1  0  0  0  0
  5  6  1  0  0  0  0
  6  7  1  6  0  0  0
  6  8  1  0  0  0  0
  8 10  1  0  0  0  0
  8  9  1  1  0  0  0
 11 10  1  0  0  0  0
 12 11  1  0  0  0  0
 13 12  1  0  0  0  0
 15 14  2  0  0  0  0
 15 13  1  0  0  0  0
 16 15  1  0  0  0  0
 17 22  1  0  0  0  0
 17 16  1  0  0  0  0
 19 20  1  0  0  0  0
 20 18  2  0  0  0  0
 20 22  1  0  0  0  0
 21 17  2  0  0  0  0
 25 26  1  0  0  0  0
 26 28  1  0  0  0  0
 26 31  1  1  0  0  0
 27 30  1  0  0  0  0
 27 25  2  0  0  0  0
 29 24  2  0  0  0  0
 29 28  1  0  0  0  0
 30 23  1  6  0  0  0
 30 29  1  0  0  0  0
 31 32  2  0  0  0  0
 33 31  1  0  0  0  0
 35 33  1  0  0  0  0
 35 34  1  0  0  0  0
 36 35  2  0  0  0  0
 37 35  1  0  0  0  0
 38 27  1  0  0  0  0
 39 38  1  0  0  0  0
 40 39  1  0  0  0  0
 41 40  1  0  0  0  0
 42 41  1  0  0  0  0
M  END
>  <MODEL>
3

>  <REMARK>
 VINA RESULT:      -6.3      4.350      9.972
  Name = 
  19 active torsions:
  status: ('A' for Active; 'I' for Inactive)
    1  A    between atoms: N_1  and  C_17
    2  A    between atoms: C_4  and  C_11
    3  A    between atoms: C_4  and  C_18
    4  A    between atoms: C_6  and  C_17
    5  A    between atoms: C_6  and  C_36
    6  A    between atoms: P_8  and  C_34
    7  A    between atoms: C_9  and  C_19
    8  A    between atoms: C_10  and  C_11
    9  A    between atoms: C_10  and  C_15
   10  A    between atoms: C_13  and  C_15
   11  A    between atoms: C_13  and  C_36
   12  A    between atoms: C_14  and  C_25
   13  A    between atoms: C_18  and  C_33
   14  A    between atoms: C_19  and  C_21
   15  A    between atoms: C_22  and  C_23
   16  A    between atoms: C_22  and  C_27
   17  A    between atoms: C_23  and  C_40
   18  A    between atoms: C_25  and  C_34
   19  A    between atoms: C_29  and  C_40
                            x       y       z     vdW  Elec       q    Type
                         _______ _______ _______ _____ _____    ______ ____

>  <TORSDO>
F 19

$$$$
=
 OpenBabel11072410563D

 42 42  0  0  1  0  0  0  0  0999 V2000
  160.7480  205.9850  154.3110 C   0  0  0  0  0  2  0  0  0  0  0  0
  160.5070  207.2140  155.1330 C   0  0  0  0  0  0  0  0  0  0  0  0
  159.4220  207.3760  155.6670 O   0  0  0  0  0  0  0  0  0  0  0  0
  162.1040  208.2280  156.5940 F   0  0  0  0  0  0  0  0  0  0  0  0
  161.5820  208.2530  155.3100 C   0  0  2  0  0  3  0  0  0  0  0  0
  161.1410  209.6750  154.9340 C   0  0  1  0  0  3  0  0  0  0  0  0
  160.2800  209.6750  153.8310 O   0  0  0  0  0  1  0  0  0  0  0  0
  160.5660  210.4760  156.1040 C   0  0  1  0  0  3  0  0  0  0  0  0
  161.4930  211.4280  156.5270 O   0  0  0  0  0  1  0  0  0  0  0  0
  159.2480  211.1580  155.7540 C   0  0  0  0  0  2  0  0  0  0  0  0
  158.6010  211.7530  156.9940 C   0  0  0  0  0  2  0  0  0  0  0  0
  157.1150  211.9720  156.7590 C   0  0  0  0  0  2  0  0  0  0  0  0
  156.9000  213.1650  155.9540 N   0  0  0  0  0  2  0  0  0  0  0  0
  155.4400  212.1350  154.4040 N   0  0  0  0  0  2  0  0  0  0  0  0
  156.0150  213.2120  154.8280 C   0  0  0  0  0  0  0  0  0  0  0  0
  155.9280  214.4530  154.0010 C   0  0  0  0  0  2  0  0  0  0  0  0
  156.2480  214.1760  152.5710 C   0  0  0  0  0  0  0  0  0  0  0  0
  159.2870  213.3330  150.6970 O   0  0  0  0  0  0  0  0  0  0  0  0
  157.1290  213.4040  149.7250 C   0  0  0  0  0  1  0  0  0  0  0  0
  158.0600  213.5380  150.8810 C   0  0  0  0  0  0  0  0  0  0  0  0
  155.3200  214.1850  151.7210 O   0  0  0  0  0  0  0  0  0  0  0  0
  157.6010  213.8890  152.1930 N   0  0  0  0  0  2  0  0  0  0  0  0
  161.6680  206.2850  153.1400 C   0  0  0  0  0  2  0  0  0  0  0  0
  161.3670  203.5980  152.3270 O   0  0  0  0  0  0  0  0  0  0  0  0
  161.3800  206.4700  149.4340 C   0  0  0  0  0  3  0  0  0  0  0  0
  160.9840  205.0660  149.0740 C   0  0  2  0  0  3  0  0  0  0  0  0
  161.3750  206.8770  150.7120 C   0  0  0  0  0  0  0  0  0  0  0  0
  161.3670  204.1480  150.0970 O   0  0  0  0  0  0  0  0  0  0  0  0
  161.2580  204.4930  151.4460 C   0  0  0  0  0  0  0  0  0  0  0  0
  160.9750  205.9250  151.8290 C   0  0  1  0  0  3  0  0  0  0  0  0
  161.5730  204.6650  147.7600 C   0  0  0  0  0  0  0  0  0  0  0  0
  161.7650  203.4870  147.5000 O   0  0  0  0  0  0  0  0  0  0  0  0
  161.9130  205.7200  146.7580 C   0  0  0  0  0  2  0  0  0  0  0  0
  162.2860  205.5250  143.9160 O   0  0  0  0  0  0  0  0  0  0  0  0
  161.1440  205.3530  145.1520 P   0  0  0  0  0  0  0  0  0  0  0  0
  160.5670  203.7640  145.1620 O   0  0  0  0  0  1  0  0  0  0  0  0
  159.9930  206.3030  144.9090 O   0  0  0  0  0  1  0  0  0  0  0  0
  161.6790  208.3170  150.9920 C   0  0  0  0  0  2  0  0  0  0  0  0
  162.1000  209.0250  149.7130 C   0  0  0  0  0  2  0  0  0  0  0  0
  161.9310  210.5270  149.8600 C   0  0  0  0  0  2  0  0  0  0  0  0
  162.1030  211.2140  148.5170 C   0  0  0  0  0  2  0  0  0  0  0  0
  161.8430  212.5760  148.6560 O   0  0  0  0  0  1  0  0  0  0  0  0
  1  2  1  0  0  0  0
  2  5  1  0  0  0  0
  2  3  2  0  0  0  0
  5  4  1  1  0  0  0
  6  7  1  6  0  0  0
  6  5  1  0  0  0  0
  6  8  1  0  0  0  0
  8  9  1  6  0  0  0
 10  8  1  0  0  0  0
 10 11  1  0  0  0  0
 12 11  1  0  0  0  0
 13 12  1  0  0  0  0
 14 15  2  0  0  0  0
 15 13  1  0  0  0  0
 16 15  1  0  0  0  0
 17 16  1  0  0  0  0
 18 20  2  0  0  0  0
 19 20  1  0  0  0  0
 20 22  1  0  0  0  0
 21 17  2  0  0  0  0
 22 17  1  0  0  0  0
 23  1  1  0  0  0  0
 25 27  2  0  0  0  0
 26 31  1  6  0  0  0
 26 25  1  0  0  0  0
 26 28  1  0  0  0  0
 27 38  1  0  0  0  0
 27 30  1  0  0  0  0
 28 29  1  0  0  0  0
 29 30  1  0  0  0  0
 29 24  2  0  0  0  0
 30 23  1  1  0  0  0
 32 31  2  0  0  0  0
 33 31  1  0  0  0  0
 34 35  2  0  0  0  0
 35 36  1  0  0  0  0
 35 33  1  0  0  0  0
 37 35  1  0  0  0  0
 39 40  1  0  0  0  0
 39 38  1  0  0  0  0
 41 42  1  0  0  0  0
 41 40  1  0  0  0  0
M  END
>  <MODEL>
4

>  <REMARK>
 VINA RESULT:      -5.8      2.034      3.960
  Name = 
  19 active torsions:
  status: ('A' for Active; 'I' for Inactive)
    1  A    between atoms: N_1  and  C_17
    2  A    between atoms: C_4  and  C_11
    3  A    between atoms: C_4  and  C_18
    4  A    between atoms: C_6  and  C_17
    5  A    between atoms: C_6  and  C_36
    6  A    between atoms: P_8  and  C_34
    7  A    between atoms: C_9  and  C_19
    8  A    between atoms: C_10  and  C_11
    9  A    between atoms: C_10  and  C_15
   10  A    between atoms: C_13  and  C_15
   11  A    between atoms: C_13  and  C_36
   12  A    between atoms: C_14  and  C_25
   13  A    between atoms: C_18  and  C_33
   14  A    between atoms: C_19  and  C_21
   15  A    between atoms: C_22  and  C_23
   16  A    between atoms: C_22  and  C_27
   17  A    between atoms: C_23  and  C_40
   18  A    between atoms: C_25  and  C_34
   19  A    between atoms: C_29  and  C_40
                            x       y       z     vdW  Elec       q    Type
                         _______ _______ _______ _____ _____    ______ ____

>  <TORSDO>
F 19

$$$$
=
 OpenBabel11072410563D

 42 42  0  0  1  0  0  0  0  0999 V2000
  162.4820  210.7870  149.8920 C   0  0  0  0  0  2  0  0  0  0  0  0
  161.8100  211.8850  149.1260 C   0  0  0  0  0  0  0  0  0  0  0  0
  160.9300  212.5390  149.6620 O   0  0  0  0  0  0  0  0  0  0  0  0
  163.4790  212.7210  147.6350 F   0  0  0  0  0  0  0  0  0  0  0  0
  162.2000  212.1920  147.7060 C   0  0  2  0  0  3  0  0  0  0  0  0
  161.2010  213.0950  146.9680 C   0  0  1  0  0  3  0  0  0  0  0  0
  161.4870  214.4510  147.1630 O   0  0  0  0  0  1  0  0  0  0  0  0
  161.0380  212.7570  145.4840 C   0  0  1  0  0  3  0  0  0  0  0  0
  159.6850  212.7470  145.1470 O   0  0  0  0  0  1  0  0  0  0  0  0
  161.7890  213.7260  144.5770 C   0  0  0  0  0  2  0  0  0  0  0  0
  162.8070  212.9890  143.7230 C   0  0  0  0  0  2  0  0  0  0  0  0
  162.6260  213.3520  142.2570 C   0  0  0  0  0  2  0  0  0  0  0  0
  161.3500  212.8540  141.7660 N   0  0  0  0  0  2  0  0  0  0  0  0
  161.6690  213.5690  139.5340 N   0  0  0  0  0  2  0  0  0  0  0  0
  160.9440  212.9340  140.3940 C   0  0  0  0  0  0  0  0  0  0  0  0
  159.5770  212.4820  139.9950 C   0  0  0  0  0  2  0  0  0  0  0  0
  159.6360  211.2640  139.1370 C   0  0  0  0  0  0  0  0  0  0  0  0
  161.3580  208.0290  139.3190 O   0  0  0  0  0  0  0  0  0  0  0  0
  159.7910  208.5840  137.6320 C   0  0  0  0  0  1  0  0  0  0  0  0
  160.5740  208.8990  138.8600 C   0  0  0  0  0  0  0  0  0  0  0  0
  158.9490  211.2210  138.0830 O   0  0  0  0  0  0  0  0  0  0  0  0
  160.4600  210.1600  139.5340 N   0  0  0  0  0  2  0  0  0  0  0  0
  161.4600  209.8750  150.5480 C   0  0  0  0  0  2  0  0  0  0  0  0
  161.8120  208.3800  148.1800 O   0  0  0  0  0  0  0  0  0  0  0  0
  161.2240  206.3290  151.6530 C   0  0  0  0  0  3  0  0  0  0  0  0
  161.6540  205.5820  150.4220 C   0  0  2  0  0  3  0  0  0  0  0  0
  161.3780  207.6590  151.7370 C   0  0  0  0  0  0  0  0  0  0  0  0
  161.4720  206.3780  149.2510 O   0  0  0  0  0  0  0  0  0  0  0  0
  161.7440  207.7470  149.2680 C   0  0  0  0  0  0  0  0  0  0  0  0
  161.9870  208.4440  150.5850 C   0  0  1  0  0  3  0  0  0  0  0  0
  160.9160  204.2880  150.2980 C   0  0  0  0  0  0  0  0  0  0  0  0
  160.3520  203.8000  151.2660 O   0  0  0  0  0  0  0  0  0  0  0  0
  160.8610  203.6010  148.9730 C   0  0  0  0  0  2  0  0  0  0  0  0
  161.4070  201.3230  150.6350 O   0  0  0  0  0  1  0  0  0  0  0  0
  160.6800  201.8040  149.1860 P   0  0  0  0  0  0  0  0  0  0  0  0
  159.0370  201.4120  149.2260 O   0  0  0  0  0  1  0  0  0  0  0  0
  161.3400  201.0860  148.0300 O   0  0  0  0  0  0  0  0  0  0  0  0
  161.0270  208.3260  153.0300 C   0  0  0  0  0  2  0  0  0  0  0  0
  160.8360  207.2890  154.1250 C   0  0  0  0  0  2  0  0  0  0  0  0
  161.3160  207.8310  155.4590 C   0  0  0  0  0  2  0  0  0  0  0  0
  160.1450  208.0250  156.4060 C   0  0  0  0  0  2  0  0  0  0  0  0
  159.9230  206.8490  157.1180 O   0  0  0  0  0  1  0  0  0  0  0  0
  1 23  1  0  0  0  0
  2  3  2  0  0  0  0
  2  1  1  0  0  0  0
  5  4  1  1  0  0  0
  5  2  1  0  0  0  0
  6  7  1  6  0  0  0
  6  5  1  0  0  0  0
  8  9  1  6  0  0  0
  8  6  1  0  0  0  0
 10  8  1  0  0  0  0
 11 10  1  0  0  0  0
 12 11  1  0  0  0  0
 13 12  1  0  0  0  0
 14 15  2  0  0  0  0
 15 13  1  0  0  0  0
 16 15  1  0  0  0  0
 17 22  1  0  0  0  0
 17 16  1  0  0  0  0
 19 20  1  0  0  0  0
 20 18  2  0  0  0  0
 20 22  1  0  0  0  0
 21 17  2  0  0  0  0
 24 29  2  0  0  0  0
 25 27  2  0  0  0  0
 26 31  1  6  0  0  0
 26 25  1  0  0  0  0
 27 38  1  0  0  0  0
 28 29  1  0  0  0  0
 28 26  1  0  0  0  0
 29 30  1  0  0  0  0
 30 23  1  6  0  0  0
 30 27  1  0  0  0  0
 31 32  2  0  0  0  0
 33 35  1  0  0  0  0
 33 31  1  0  0  0  0
 35 36  1  0  0  0  0
 35 34  1  0  0  0  0
 37 35  2  0  0  0  0
 38 39  1  0  0  0  0
 39 40  1  0  0  0  0
 40 41  1  0  0  0  0
 41 42  1  0  0  0  0
M  END
>  <MODEL>
5

>  <REMARK>
 VINA RESULT:      -5.7      4.923      8.515
  Name = 
  19 active torsions:
  status: ('A' for Active; 'I' for Inactive)
    1  A    between atoms: N_1  and  C_17
    2  A    between atoms: C_4  and  C_11
    3  A    between atoms: C_4  and  C_18
    4  A    between atoms: C_6  and  C_17
    5  A    between atoms: C_6  and  C_36
    6  A    between atoms: P_8  and  C_34
    7  A    between atoms: C_9  and  C_19
    8  A    between atoms: C_10  and  C_11
    9  A    between atoms: C_10  and  C_15
   10  A    between atoms: C_13  and  C_15
   11  A    between atoms: C_13  and  C_36
   12  A    between atoms: C_14  and  C_25
   13  A    between atoms: C_18  and  C_33
   14  A    between atoms: C_19  and  C_21
   15  A    between atoms: C_22  and  C_23
   16  A    between atoms: C_22  and  C_27
   17  A    between atoms: C_23  and  C_40
   18  A    between atoms: C_25  and  C_34
   19  A    between atoms: C_29  and  C_40
                            x       y       z     vdW  Elec       q    Type
                         _______ _______ _______ _____ _____    ______ ____

>  <TORSDO>
F 19

$$$$
=
 OpenBabel11072410563D

 42 42  0  0  1  0  0  0  0  0999 V2000
  161.9220  206.9000  150.3500 C   0  0  0  0  0  2  0  0  0  0  0  0
  161.2990  206.4810  149.0540 C   0  0  0  0  0  0  0  0  0  0  0  0
  160.1180  206.1740  149.0270 O   0  0  0  0  0  0  0  0  0  0  0  0
  162.5440  207.6900  147.4110 F   0  0  0  0  0  0  0  0  0  0  0  0
  162.1070  206.4290  147.7850 C   0  0  2  0  0  3  0  0  0  0  0  0
  161.3880  205.7390  146.6170 C   0  0  1  0  0  3  0  0  0  0  0  0
  160.4840  206.5990  145.9840 O   0  0  0  0  0  1  0  0  0  0  0  0
  162.3320  205.0700  145.6150 C   0  0  1  0  0  3  0  0  0  0  0  0
  163.6560  205.2700  146.0070 O   0  0  0  0  0  1  0  0  0  0  0  0
  162.0590  203.5780  145.4600 C   0  0  0  0  0  2  0  0  0  0  0  0
  160.6560  203.3370  144.9290 C   0  0  0  0  0  2  0  0  0  0  0  0
  160.1560  201.9690  145.3650 C   0  0  0  0  0  2  0  0  0  0  0  0
  160.5520  201.6990  146.7390 N   0  0  0  0  0  2  0  0  0  0  0  0
  161.4040  199.5340  146.3120 N   0  0  0  0  0  2  0  0  0  0  0  0
  161.2200  200.5000  147.1500 C   0  0  0  0  0  0  0  0  0  0  0  0
  161.5050  200.2660  148.5980 C   0  0  0  0  0  2  0  0  0  0  0  0
  160.8760  201.3150  149.4510 C   0  0  0  0  0  0  0  0  0  0  0  0
  162.1050  203.8140  151.8400 O   0  0  0  0  0  0  0  0  0  0  0  0
  159.8400  203.6510  151.1680 C   0  0  0  0  0  1  0  0  0  0  0  0
  161.2630  203.2100  151.1280 C   0  0  0  0  0  0  0  0  0  0  0  0
  159.6290  201.4840  149.3980 O   0  0  0  0  0  0  0  0  0  0  0  0
  161.7010  202.1210  150.3020 N   0  0  0  0  0  2  0  0  0  0  0  0
  160.8590  207.2500  151.3770 C   0  0  0  0  0  2  0  0  0  0  0  0
  161.0020  205.9610  153.8840 O   0  0  0  0  0  0  0  0  0  0  0  0
  161.0760  210.0370  153.8360 C   0  0  0  0  0  3  0  0  0  0  0  0
  161.3910  209.3110  155.1130 C   0  0  2  0  0  3  0  0  0  0  0  0
  161.1300  209.4010  152.6550 C   0  0  0  0  0  0  0  0  0  0  0  0
  160.9820  207.9450  155.0400 O   0  0  0  0  0  0  0  0  0  0  0  0
  161.1380  207.2140  153.8610 C   0  0  0  0  0  0  0  0  0  0  0  0
  161.5040  207.9290  152.5820 C   0  0  1  0  0  3  0  0  0  0  0  0
  160.7540  209.9880  156.2830 C   0  0  0  0  0  0  0  0  0  0  0  0
  159.9490  209.3920  156.9830 O   0  0  0  0  0  0  0  0  0  0  0  0
  161.1200  211.4010  156.5990 C   0  0  0  0  0  2  0  0  0  0  0  0
  158.2710  211.7330  156.7530 O   0  0  0  0  0  1  0  0  0  0  0  0
  159.7070  212.5120  156.3180 P   0  0  0  0  0  0  0  0  0  0  0  0
  159.8980  213.9020  157.2590 O   0  0  0  0  0  1  0  0  0  0  0  0
  159.6470  212.8980  154.8570 O   0  0  0  0  0  0  0  0  0  0  0  0
  160.9070  210.2070  151.4130 C   0  0  0  0  0  2  0  0  0  0  0  0
  162.2310  210.4710  150.7110 C   0  0  0  0  0  2  0  0  0  0  0  0
  162.0460  210.4440  149.2050 C   0  0  0  0  0  2  0  0  0  0  0  0
  162.2500  211.8300  148.6200 C   0  0  0  0  0  2  0  0  0  0  0  0
  161.2000  212.6580  149.0110 O   0  0  0  0  0  1  0  0  0  0  0  0
  1 23  1  0  0  0  0
  2  1  1  0  0  0  0
  3  2  2  0  0  0  0
  5  4  1  6  0  0  0
  5  2  1  0  0  0  0
  6  7  1  6  0  0  0
  6  5  1  0  0  0  0
  8  9  1  1  0  0  0
  8  6  1  0  0  0  0
 10  8  1  0  0  0  0
 11 12  1  0  0  0  0
 11 10  1  0  0  0  0
 12 13  1  0  0  0  0
 13 15  1  0  0  0  0
 14 15  2  0  0  0  0
 15 16  1  0  0  0  0
 16 17  1  0  0  0  0
 17 22  1  0  0  0  0
 20 19  1  0  0  0  0
 20 18  2  0  0  0  0
 21 17  2  0  0  0  0
 22 20  1  0  0  0  0
 25 26  1  0  0  0  0
 26 31  1  1  0  0  0
 27 25  2  0  0  0  0
 28 26  1  0  0  0  0
 29 24  2  0  0  0  0
 29 28  1  0  0  0  0
 30 23  1  6  0  0  0
 30 27  1  0  0  0  0
 30 29  1  0  0  0  0
 31 33  1  0  0  0  0
 31 32  2  0  0  0  0
 35 33  1  0  0  0  0
 35 34  1  0  0  0  0
 35 36  1  0  0  0  0
 37 35  2  0  0  0  0
 38 27  1  0  0  0  0
 39 38  1  0  0  0  0
 40 39  1  0  0  0  0
 41 42  1  0  0  0  0
 41 40  1  0  0  0  0
M  END
>  <MODEL>
6

>  <REMARK>
 VINA RESULT:      -5.7      4.540     10.490
  Name = 
  19 active torsions:
  status: ('A' for Active; 'I' for Inactive)
    1  A    between atoms: N_1  and  C_17
    2  A    between atoms: C_4  and  C_11
    3  A    between atoms: C_4  and  C_18
    4  A    between atoms: C_6  and  C_17
    5  A    between atoms: C_6  and  C_36
    6  A    between atoms: P_8  and  C_34
    7  A    between atoms: C_9  and  C_19
    8  A    between atoms: C_10  and  C_11
    9  A    between atoms: C_10  and  C_15
   10  A    between atoms: C_13  and  C_15
   11  A    between atoms: C_13  and  C_36
   12  A    between atoms: C_14  and  C_25
   13  A    between atoms: C_18  and  C_33
   14  A    between atoms: C_19  and  C_21
   15  A    between atoms: C_22  and  C_23
   16  A    between atoms: C_22  and  C_27
   17  A    between atoms: C_23  and  C_40
   18  A    between atoms: C_25  and  C_34
   19  A    between atoms: C_29  and  C_40
                            x       y       z     vdW  Elec       q    Type
                         _______ _______ _______ _____ _____    ______ ____

>  <TORSDO>
F 19

$$$$
=
 OpenBabel11072410563D

 42 42  0  0  1  0  0  0  0  0999 V2000
  161.7230  207.7240  148.5150 C   0  0  0  0  0  2  0  0  0  0  0  0
  161.0500  206.5680  147.8400 C   0  0  0  0  0  0  0  0  0  0  0  0
  160.5060  205.7110  148.5180 O   0  0  0  0  0  0  0  0  0  0  0  0
  159.8100  205.9880  145.8820 F   0  0  0  0  0  0  0  0  0  0  0  0
  161.0350  206.4450  146.3410 C   0  0  2  0  0  3  0  0  0  0  0  0
  162.1770  205.5890  145.7750 C   0  0  1  0  0  3  0  0  0  0  0  0
  162.8410  204.8810  146.7820 O   0  0  0  0  0  1  0  0  0  0  0  0
  161.7550  204.6750  144.6220 C   0  0  1  0  0  3  0  0  0  0  0  0
  160.8490  203.7190  145.0840 O   0  0  0  0  0  1  0  0  0  0  0  0
  161.1430  205.4460  143.4580 C   0  0  0  0  0  2  0  0  0  0  0  0
  162.2190  206.1610  142.6570 C   0  0  0  0  0  2  0  0  0  0  0  0
  161.7910  206.2970  141.2050 C   0  0  0  0  0  2  0  0  0  0  0  0
  161.9050  207.6810  140.7700 N   0  0  0  0  0  2  0  0  0  0  0  0
  161.5910  207.2260  138.4700 N   0  0  0  0  0  2  0  0  0  0  0  0
  161.7410  208.1000  139.4100 C   0  0  0  0  0  0  0  0  0  0  0  0
  161.9700  209.5290  139.0400 C   0  0  0  0  0  2  0  0  0  0  0  0
  161.1510  210.4460  139.8840 C   0  0  0  0  0  0  0  0  0  0  0  0
  161.7940  212.5650  142.8090 O   0  0  0  0  0  0  0  0  0  0  0  0
  159.7230  212.5130  141.6630 C   0  0  0  0  0  1  0  0  0  0  0  0
  161.1340  212.0750  141.8580 C   0  0  0  0  0  0  0  0  0  0  0  0
  159.9390  210.6280  139.5960 O   0  0  0  0  0  0  0  0  0  0  0  0
  161.7610  211.1160  140.9950 N   0  0  0  0  0  2  0  0  0  0  0  0
  162.3400  207.2990  149.8360 C   0  0  0  0  0  2  0  0  0  0  0  0
  161.8170  209.8900  150.8270 O   0  0  0  0  0  0  0  0  0  0  0  0
  161.1680  206.7340  153.3240 C   0  0  0  0  0  3  0  0  0  0  0  0
  160.6790  208.0980  153.7210 C   0  0  2  0  0  3  0  0  0  0  0  0
  161.4780  206.4620  152.0480 C   0  0  0  0  0  0  0  0  0  0  0  0
  161.2860  209.1120  152.9210 O   0  0  0  0  0  0  0  0  0  0  0  0
  161.5100  208.9100  151.5580 C   0  0  0  0  0  0  0  0  0  0  0  0
  161.3460  207.5290  150.9720 C   0  0  1  0  0  3  0  0  0  0  0  0
  160.9290  208.3530  155.1730 C   0  0  0  0  0  0  0  0  0  0  0  0
  161.7530  207.6910  155.7860 O   0  0  0  0  0  0  0  0  0  0  0  0
  160.1700  209.4370  155.8660 C   0  0  0  0  0  2  0  0  0  0  0  0
  162.7590  210.6730  155.7170 O   0  0  0  0  0  1  0  0  0  0  0  0
  161.1030  210.9980  155.8340 P   0  0  0  0  0  0  0  0  0  0  0  0
  160.6150  211.9090  154.4970 O   0  0  0  0  0  0  0  0  0  0  0  0
  160.8320  211.7790  157.1010 O   0  0  0  0  0  1  0  0  0  0  0  0
  161.8580  205.0550  151.7020 C   0  0  0  0  0  2  0  0  0  0  0  0
  160.7580  204.0920  152.1200 C   0  0  0  0  0  2  0  0  0  0  0  0
  161.1290  202.6680  151.7490 C   0  0  0  0  0  2  0  0  0  0  0  0
  160.6780  202.3540  150.3340 C   0  0  0  0  0  2  0  0  0  0  0  0
  161.1580  201.1000  149.9610 O   0  0  0  0  0  1  0  0  0  0  0  0
  1 23  1  0  0  0  0
  2  1  1  0  0  0  0
  2  3  2  0  0  0  0
  5  4  1  1  0  0  0
  5  2  1  0  0  0  0
  6  5  1  0  0  0  0
  6  7  1  1  0  0  0
  8  9  1  1  0  0  0
  8  6  1  0  0  0  0
 10  8  1  0  0  0  0
 11 10  1  0  0  0  0
 12 11  1  0  0  0  0
 13 12  1  0  0  0  0
 14 15  2  0  0  0  0
 15 13  1  0  0  0  0
 16 15  1  0  0  0  0
 16 17  1  0  0  0  0
 17 22  1  0  0  0  0
 19 20  1  0  0  0  0
 20 18  2  0  0  0  0
 21 17  2  0  0  0  0
 22 20  1  0  0  0  0
 24 29  2  0  0  0  0
 25 26  1  0  0  0  0
 26 31  1  1  0  0  0
 27 25  2  0  0  0  0
 28 26  1  0  0  0  0
 29 28  1  0  0  0  0
 30 23  1  6  0  0  0
 30 29  1  0  0  0  0
 30 27  1  0  0  0  0
 31 32  2  0  0  0  0
 31 33  1  0  0  0  0
 34 35  1  0  0  0  0
 35 33  1  0  0  0  0
 35 37  1  0  0  0  0
 36 35  2  0  0  0  0
 38 27  1  0  0  0  0
 38 39  1  0  0  0  0
 40 39  1  0  0  0  0
 41 40  1  0  0  0  0
 42 41  1  0  0  0  0
M  END
>  <MODEL>
7

>  <REMARK>
 VINA RESULT:      -5.7      5.028      9.498
  Name = 
  19 active torsions:
  status: ('A' for Active; 'I' for Inactive)
    1  A    between atoms: N_1  and  C_17
    2  A    between atoms: C_4  and  C_11
    3  A    between atoms: C_4  and  C_18
    4  A    between atoms: C_6  and  C_17
    5  A    between atoms: C_6  and  C_36
    6  A    between atoms: P_8  and  C_34
    7  A    between atoms: C_9  and  C_19
    8  A    between atoms: C_10  and  C_11
    9  A    between atoms: C_10  and  C_15
   10  A    between atoms: C_13  and  C_15
   11  A    between atoms: C_13  and  C_36
   12  A    between atoms: C_14  and  C_25
   13  A    between atoms: C_18  and  C_33
   14  A    between atoms: C_19  and  C_21
   15  A    between atoms: C_22  and  C_23
   16  A    between atoms: C_22  and  C_27
   17  A    between atoms: C_23  and  C_40
   18  A    between atoms: C_25  and  C_34
   19  A    between atoms: C_29  and  C_40
                            x       y       z     vdW  Elec       q    Type
                         _______ _______ _______ _____ _____    ______ ____

>  <TORSDO>
F 19

$$$$
=
 OpenBabel11072410563D

 42 42  0  0  1  0  0  0  0  0999 V2000
  161.6320  209.4000  148.2440 C   0  0  0  0  0  2  0  0  0  0  0  0
  161.9720  210.7540  148.7870 C   0  0  0  0  0  0  0  0  0  0  0  0
  162.0390  210.9170  149.9950 O   0  0  0  0  0  0  0  0  0  0  0  0
  163.0110  212.8840  148.4810 F   0  0  0  0  0  0  0  0  0  0  0  0
  162.2290  211.9180  147.8680 C   0  0  2  0  0  3  0  0  0  0  0  0
  160.9550  212.5450  147.2850 C   0  0  1  0  0  3  0  0  0  0  0  0
  160.1590  213.1210  148.2810 O   0  0  0  0  0  1  0  0  0  0  0  0
  161.2130  213.5160  146.1310 C   0  0  1  0  0  3  0  0  0  0  0  0
  162.3260  214.3060  146.4180 O   0  0  0  0  0  1  0  0  0  0  0  0
  161.4160  212.8030  144.7990 C   0  0  0  0  0  2  0  0  0  0  0  0
  162.7680  213.1500  144.2000 C   0  0  0  0  0  2  0  0  0  0  0  0
  162.6280  213.4370  142.7130 C   0  0  0  0  0  2  0  0  0  0  0  0
  161.9200  212.3500  142.0530 N   0  0  0  0  0  2  0  0  0  0  0  0
  163.1220  212.4970  140.0200 N   0  0  0  0  0  2  0  0  0  0  0  0
  162.2400  211.8820  140.7370 C   0  0  0  0  0  0  0  0  0  0  0  0
  161.3980  210.8240  140.1000 C   0  0  0  0  0  2  0  0  0  0  0  0
  160.2820  211.4200  139.3100 C   0  0  0  0  0  0  0  0  0  0  0  0
  157.0000  212.8530  140.1080 O   0  0  0  0  0  0  0  0  0  0  0  0
  157.9260  212.8390  137.9280 C   0  0  0  0  0  1  0  0  0  0  0  0
  157.9770  212.5280  139.3850 C   0  0  0  0  0  0  0  0  0  0  0  0
  160.4030  211.5270  138.0620 O   0  0  0  0  0  0  0  0  0  0  0  0
  159.1030  211.8750  139.9860 N   0  0  0  0  0  2  0  0  0  0  0  0
  162.3590  208.3080  149.0090 C   0  0  0  0  0  2  0  0  0  0  0  0
  162.1940  207.7520  151.7720 O   0  0  0  0  0  0  0  0  0  0  0  0
  160.9260  204.8770  149.1750 C   0  0  0  0  0  3  0  0  0  0  0  0
  160.6350  204.7230  150.6410 C   0  0  2  0  0  3  0  0  0  0  0  0
  161.2580  206.0720  148.6640 C   0  0  0  0  0  0  0  0  0  0  0  0
  161.4350  205.6140  151.4180 O   0  0  0  0  0  0  0  0  0  0  0  0
  161.6980  206.9110  150.9740 C   0  0  0  0  0  0  0  0  0  0  0  0
  161.3530  207.3000  149.5570 C   0  0  1  0  0  3  0  0  0  0  0  0
  160.8420  203.3100  151.0810 C   0  0  0  0  0  0  0  0  0  0  0  0
  160.2690  202.8780  152.0700 O   0  0  0  0  0  0  0  0  0  0  0  0
  161.7470  202.4220  150.2910 C   0  0  0  0  0  2  0  0  0  0  0  0
  159.1830  201.5740  149.3100 O   0  0  0  0  0  1  0  0  0  0  0  0
  160.8340  201.6070  148.9450 P   0  0  0  0  0  0  0  0  0  0  0  0
  161.0740  202.4670  147.5100 O   0  0  0  0  0  0  0  0  0  0  0  0
  161.3390  200.1920  148.7730 O   0  0  0  0  0  1  0  0  0  0  0  0
  161.4330  206.1770  147.1800 C   0  0  0  0  0  2  0  0  0  0  0  0
  162.7000  205.4570  146.7450 C   0  0  0  0  0  2  0  0  0  0  0  0
  162.5520  204.9330  145.3290 C   0  0  0  0  0  2  0  0  0  0  0  0
  161.1510  205.1960  144.8080 C   0  0  0  0  0  2  0  0  0  0  0  0
  161.2240  205.6990  143.5110 O   0  0  0  0  0  1  0  0  0  0  0  0
  1  2  1  0  0  0  0
  1 23  1  0  0  0  0
  2  3  2  0  0  0  0
  5  4  1  1  0  0  0
  5  2  1  0  0  0  0
  6  5  1  0  0  0  0
  6  7  1  1  0  0  0
  8  9  1  1  0  0  0
  8  6  1  0  0  0  0
 10  8  1  0  0  0  0
 11 10  1  0  0  0  0
 12 11  1  0  0  0  0
 13 12  1  0  0  0  0
 14 15  2  0  0  0  0
 15 13  1  0  0  0  0
 16 15  1  0  0  0  0
 17 22  1  0  0  0  0
 17 16  1  0  0  0  0
 19 20  1  0  0  0  0
 20 22  1  0  0  0  0
 20 18  2  0  0  0  0
 21 17  2  0  0  0  0
 25 26  1  0  0  0  0
 26 31  1  1  0  0  0
 26 28  1  0  0  0  0
 27 25  2  0  0  0  0
 27 30  1  0  0  0  0
 29 28  1  0  0  0  0
 29 24  2  0  0  0  0
 30 23  1  6  0  0  0
 30 29  1  0  0  0  0
 31 32  2  0  0  0  0
 33 31  1  0  0  0  0
 35 34  1  0  0  0  0
 35 33  1  0  0  0  0
 36 35  2  0  0  0  0
 37 35  1  0  0  0  0
 38 27  1  0  0  0  0
 39 38  1  0  0  0  0
 40 39  1  0  0  0  0
 41 40  1  0  0  0  0
 42 41  1  0  0  0  0
M  END
>  <MODEL>
8

>  <REMARK>
 VINA RESULT:      -5.5      4.870      8.047
  Name = 
  19 active torsions:
  status: ('A' for Active; 'I' for Inactive)
    1  A    between atoms: N_1  and  C_17
    2  A    between atoms: C_4  and  C_11
    3  A    between atoms: C_4  and  C_18
    4  A    between atoms: C_6  and  C_17
    5  A    between atoms: C_6  and  C_36
    6  A    between atoms: P_8  and  C_34
    7  A    between atoms: C_9  and  C_19
    8  A    between atoms: C_10  and  C_11
    9  A    between atoms: C_10  and  C_15
   10  A    between atoms: C_13  and  C_15
   11  A    between atoms: C_13  and  C_36
   12  A    between atoms: C_14  and  C_25
   13  A    between atoms: C_18  and  C_33
   14  A    between atoms: C_19  and  C_21
   15  A    between atoms: C_22  and  C_23
   16  A    between atoms: C_22  and  C_27
   17  A    between atoms: C_23  and  C_40
   18  A    between atoms: C_25  and  C_34
   19  A    between atoms: C_29  and  C_40
                            x       y       z     vdW  Elec       q    Type
                         _______ _______ _______ _____ _____    ______ ____

>  <TORSDO>
F 19

$$$$
=
 OpenBabel11072410563D

 42 42  0  0  1  0  0  0  0  0999 V2000
  162.3360  208.8510  148.4940 C   0  0  0  0  0  2  0  0  0  0  0  0
  162.0440  210.1940  149.0910 C   0  0  0  0  0  0  0  0  0  0  0  0
  161.7790  210.2770  150.2790 O   0  0  0  0  0  0  0  0  0  0  0  0
  163.2460  212.1510  148.4310 F   0  0  0  0  0  0  0  0  0  0  0  0
  162.0700  211.4410  148.2490 C   0  0  2  0  0  3  0  0  0  0  0  0
  160.8520  212.3540  148.4510 C   0  0  1  0  0  3  0  0  0  0  0  0
  161.0990  213.3410  149.4100 O   0  0  0  0  0  1  0  0  0  0  0  0
  160.2990  212.9480  147.1530 C   0  0  1  0  0  3  0  0  0  0  0  0
  161.1340  213.9740  146.7100 O   0  0  0  0  0  1  0  0  0  0  0  0
  160.1360  211.9040  146.0550 C   0  0  0  0  0  2  0  0  0  0  0  0
  159.5990  212.5370  144.7820 C   0  0  0  0  0  2  0  0  0  0  0  0
  160.5860  212.3450  143.6410 C   0  0  0  0  0  2  0  0  0  0  0  0
  159.9320  212.5760  142.3620 N   0  0  0  0  0  2  0  0  0  0  0  0
  161.2860  211.0720  141.1370 N   0  0  0  0  0  2  0  0  0  0  0  0
  160.2770  211.8780  141.1590 C   0  0  0  0  0  0  0  0  0  0  0  0
  159.6180  212.2480  139.8700 C   0  0  0  0  0  2  0  0  0  0  0  0
  158.4830  211.3300  139.5580 C   0  0  0  0  0  0  0  0  0  0  0  0
  154.8350  211.6690  139.3650 O   0  0  0  0  0  0  0  0  0  0  0  0
  155.9970  209.6880  138.7880 C   0  0  0  0  0  1  0  0  0  0  0  0
  155.9520  211.1000  139.2610 C   0  0  0  0  0  0  0  0  0  0  0  0
  158.7280  210.1340  139.2500 O   0  0  0  0  0  0  0  0  0  0  0  0
  157.1410  211.8300  139.5980 N   0  0  0  0  0  2  0  0  0  0  0  0
  161.2000  207.8780  148.7600 C   0  0  0  0  0  2  0  0  0  0  0  0
  161.5220  206.3210  146.4280 O   0  0  0  0  0  0  0  0  0  0  0  0
  161.0180  204.3620  149.9660 C   0  0  0  0  0  3  0  0  0  0  0  0
  161.4310  203.5850  148.7490 C   0  0  2  0  0  3  0  0  0  0  0  0
  161.1620  205.6950  150.0100 C   0  0  0  0  0  0  0  0  0  0  0  0
  161.2210  204.3460  147.5600 O   0  0  0  0  0  0  0  0  0  0  0  0
  161.4800  205.7180  147.5340 C   0  0  0  0  0  0  0  0  0  0  0  0
  161.7410  206.4530  148.8260 C   0  0  1  0  0  3  0  0  0  0  0  0
  160.7030  202.2820  148.6740 C   0  0  0  0  0  0  0  0  0  0  0  0
  159.7000  202.0920  149.3460 O   0  0  0  0  0  0  0  0  0  0  0  0
  161.2050  201.2140  147.7580 C   0  0  0  0  0  2  0  0  0  0  0  0
  161.2040  202.6360  145.2610 O   0  0  0  0  0  1  0  0  0  0  0  0
  160.4560  201.3770  146.1080 P   0  0  0  0  0  0  0  0  0  0  0  0
  160.6640  199.9300  145.2590 O   0  0  0  0  0  0  0  0  0  0  0  0
  158.9790  201.6710  146.2470 O   0  0  0  0  0  1  0  0  0  0  0  0
  160.8280  206.3950  151.2910 C   0  0  0  0  0  2  0  0  0  0  0  0
  161.9310  206.1760  152.3160 C   0  0  0  0  0  2  0  0  0  0  0  0
  161.3390  205.9910  153.7010 C   0  0  0  0  0  2  0  0  0  0  0  0
  161.2090  207.3300  154.4050 C   0  0  0  0  0  2  0  0  0  0  0  0
  160.0690  207.3240  155.2050 O   0  0  0  0  0  1  0  0  0  0  0  0
  1 23  1  0  0  0  0
  1  2  1  0  0  0  0
  2  3  2  0  0  0  0
  5  4  1  1  0  0  0
  5  6  1  0  0  0  0
  5  2  1  0  0  0  0
  6  7  1  1  0  0  0
  8  9  1  6  0  0  0
  8  6  1  0  0  0  0
 10  8  1  0  0  0  0
 11 10  1  0  0  0  0
 12 11  1  0  0  0  0
 13 12  1  0  0  0  0
 14 15  2  0  0  0  0
 15 13  1  0  0  0  0
 16 15  1  0  0  0  0
 17 22  1  0  0  0  0
 17 16  1  0  0  0  0
 19 20  1  0  0  0  0
 20 18  2  0  0  0  0
 20 22  1  0  0  0  0
 21 17  2  0  0  0  0
 24 29  2  0  0  0  0
 25 27  2  0  0  0  0
 26 31  1  6  0  0  0
 26 25  1  0  0  0  0
 27 38  1  0  0  0  0
 28 26  1  0  0  0  0
 29 28  1  0  0  0  0
 29 30  1  0  0  0  0
 30 23  1  6  0  0  0
 30 27  1  0  0  0  0
 31 32  2  0  0  0  0
 33 31  1  0  0  0  0
 34 35  1  0  0  0  0
 35 37  1  0  0  0  0
 35 33  1  0  0  0  0
 36 35  2  0  0  0  0
 38 39  1  0  0  0  0
 39 40  1  0  0  0  0
 40 41  1  0  0  0  0
 41 42  1  0  0  0  0
M  END
>  <MODEL>
9

>  <REMARK>
 VINA RESULT:      -5.4      4.458      7.634
  Name = 
  19 active torsions:
  status: ('A' for Active; 'I' for Inactive)
    1  A    between atoms: N_1  and  C_17
    2  A    between atoms: C_4  and  C_11
    3  A    between atoms: C_4  and  C_18
    4  A    between atoms: C_6  and  C_17
    5  A    between atoms: C_6  and  C_36
    6  A    between atoms: P_8  and  C_34
    7  A    between atoms: C_9  and  C_19
    8  A    between atoms: C_10  and  C_11
    9  A    between atoms: C_10  and  C_15
   10  A    between atoms: C_13  and  C_15
   11  A    between atoms: C_13  and  C_36
   12  A    between atoms: C_14  and  C_25
   13  A    between atoms: C_18  and  C_33
   14  A    between atoms: C_19  and  C_21
   15  A    between atoms: C_22  and  C_23
   16  A    between atoms: C_22  and  C_27
   17  A    between atoms: C_23  and  C_40
   18  A    between atoms: C_25  and  C_34
   19  A    between atoms: C_29  and  C_40
                            x       y       z     vdW  Elec       q    Type
                         _______ _______ _______ _____ _____    ______ ____

>  <TORSDO>
F 19

$$$$
