=
 OpenBabel11072412593D

 48 53  0  0  1  0  0  0  0  0999 V2000
  159.0260  214.3380  143.3660 O   0  0  0  0  0  0  0  0  0  0  0  0
  159.6860  213.6720  144.2100 C   0  0  0  0  0  0  0  0  0  0  0  0
  161.7760  213.5900  146.7270 C   0  0  1  0  0  3  0  0  0  0  0  0
  160.5770  212.3730  148.5990 C   0  0  2  0  0  3  0  0  0  0  0  0
  161.1790  213.7850  144.1900 C   0  0  1  0  0  3  0  0  0  0  0  0
  163.6420  212.7990  148.9220 O   0  0  0  0  0  1  0  0  0  0  0  0
  161.7400  211.3500  148.6450 C   0  0  2  0  0  3  0  0  0  0  0  0
  158.9810  212.8370  145.2020 C   0  0  0  0  0  0  0  0  0  0  0  0
  159.7580  212.0890  146.2430 C   0  0  0  0  0  2  0  0  0  0  0  0
  160.4190  213.0520  147.2250 C   0  0  2  0  0  3  0  0  0  0  0  0
  163.0570  211.8780  148.0540 C   0  0  1  0  0  3  0  0  0  0  0  0
  162.8590  212.5100  146.6800 C   0  0  0  0  0  2  0  0  0  0  0  0
  157.6810  212.7700  145.1590 N   0  0  0  0  0  0  0  0  0  0  0  0
  161.7360  214.4520  145.4570 C   0  0  0  0  0  2  0  0  0  0  0  0
  162.8150  212.5030  142.9630 N   0  0  0  0  0  2  0  0  0  0  0  0
  161.8620  212.5080  143.8200 C   0  0  0  0  0  3  0  0  0  0  0  0
  160.6560  213.4180  149.7210 C   0  0  2  0  0  3  0  0  0  0  0  0
  160.8520  212.7910  151.0990 C   0  0  0  0  0  1  0  0  0  0  0  0
  159.4420  214.3610  149.7100 C   0  0  0  0  0  2  0  0  0  0  0  0
  156.3000  214.2420  154.4520 N   0  0  0  0  0  0  0  0  0  0  0  0
  156.5270  214.2840  152.1540 C   0  0  0  0  0  0  0  0  0  0  0  0
  158.6400  214.3180  150.9770 C   0  0  0  0  0  0  0  0  0  0  0  0
  159.3070  214.2860  152.2220 C   0  0  0  0  0  3  0  0  0  0  0  0
  155.0610  214.2440  152.3830 C   0  0  0  0  0  3  0  0  0  0  0  0
  157.1840  214.2720  153.3500 C   0  0  0  0  0  0  0  0  0  0  0  0
  154.9350  214.2390  153.9230 C   0  0  0  0  0  2  0  0  0  0  0  0
  158.5800  214.2680  153.4220 C   0  0  0  0  0  3  0  0  0  0  0  0
  157.2260  214.3150  150.9390 C   0  0  0  0  0  0  0  0  0  0  0  0
  156.4740  214.3500  149.6450 C   0  0  0  0  0  1  0  0  0  0  0  0
  161.3360  210.0350  147.9740 C   0  0  0  0  0  2  0  0  0  0  0  0
  162.0030  208.8130  148.6010 C   0  0  1  0  0  0  0  0  0  0  0  0
  160.9990  207.8660  150.5450 C   0  0  0  0  0  0  0  0  0  0  0  0
  161.1180  206.9530  147.3030 O   0  0  0  0  0  0  0  0  0  0  0  0
  163.4420  208.6520  148.1400 C   0  0  0  0  0  1  0  0  0  0  0  0
  161.9510  208.9510  150.1200 C   0  0  0  0  0  2  0  0  0  0  0  0
  160.5960  207.1090  149.5840 N   0  0  0  0  0  0  0  0  0  0  0  0
  161.2100  207.5700  148.3980 C   0  0  0  0  0  0  0  0  0  0  0  0
  160.5520  207.6640  151.8540 O   0  0  0  0  0  0  0  0  0  0  0  0
  162.2850  206.7070  153.0560 O   0  0  0  0  0  0  0  0  0  0  0  0
  161.3860  207.5850  152.9770 C   0  0  0  0  0  0  0  0  0  0  0  0
  161.0470  209.3020  156.0370 C   0  0  0  0  0  3  0  0  0  0  0  0
  160.7500  210.2950  155.1730 N   0  0  0  0  0  0  0  0  0  0  0  0
  161.3180  208.1510  155.3890 N   0  0  0  0  0  0  0  0  0  0  0  0
  160.8210  209.7940  153.9540 N   0  0  0  0  0  2  0  0  0  0  0  0
  161.1600  208.5010  154.0970 C   0  0  0  0  0  0  0  0  0  0  0  0
  156.8780  212.0000  146.0990 C   0  0  0  0  0  2  0  0  0  0  0  0
  156.2710  214.1170  146.2660 C   0  0  0  0  0  1  0  0  0  0  0  0
  156.1050  212.8690  146.8660 O   0  0  0  0  0  0  0  0  0  0  0  0
  1  2  2  0  0  0  0
  2  8  1  0  0  0  0
  3 14  1  6  0  0  0
  3 10  1  0  0  0  0
  4  7  1  0  0  0  0
  4 17  1  1  0  0  0
  5 16  1  1  0  0  0
  5  2  1  0  0  0  0
  5 14  1  0  0  0  0
  7 30  1  6  0  0  0
  8  9  1  0  0  0  0
 10  9  1  6  0  0  0
 10  4  1  0  0  0  0
 11  7  1  0  0  0  0
 11  6  1  1  0  0  0
 12  3  1  0  0  0  0
 12 11  1  0  0  0  0
 13  8  2  0  0  0  0
 13 46  1  0  0  0  0
 15 16  2  0  0  0  0
 17 18  1  1  0  0  0
 19 17  1  0  0  0  0
 19 22  1  0  0  0  0
 21 24  2  0  0  0  0
 21 25  1  0  0  0  0
 22 23  1  0  0  0  0
 23 27  2  0  0  0  0
 24 26  1  0  0  0  0
 25 27  1  0  0  0  0
 25 20  2  0  0  0  0
 26 20  1  0  0  0  0
 28 22  2  0  0  0  0
 28 21  1  0  0  0  0
 29 28  1  0  0  0  0
 30 31  1  0  0  0  0
 31 34  1  6  0  0  0
 31 35  1  0  0  0  0
 32 38  1  0  0  0  0
 33 37  2  0  0  0  0
 35 32  1  0  0  0  0
 36 32  2  0  0  0  0
 37 31  1  0  0  0  0
 37 36  1  0  0  0  0
 38 40  1  0  0  0  0
 40 39  2  0  0  0  0
 40 45  1  0  0  0  0
 42 41  2  0  0  0  0
 43 41  1  0  0  0  0
 44 45  1  0  0  0  0
 44 42  1  0  0  0  0
 45 43  2  0  0  0  0
 46 48  1  0  0  0  0
 47 48  1  0  0  0  0
M  END
>  <MODEL>
1

>  <REMARK>
 VINA RESULT:      -1.9      0.000      0.000
  Name = 
  11 active torsions:
  status: ('A' for Active; 'I' for Inactive)
    1  A    between atoms: C_8  and  C_28
    2  A    between atoms: C_9  and  C_47
    3  A    between atoms: C_11  and  C_29
    4  A    between atoms: C_12  and  C_29
    5  A    between atoms: C_14  and  O_24
    6  A    between atoms: C_18  and  C_48
    7  A    between atoms: O_24  and  C_25
    8  A    between atoms: C_25  and  C_44
    9  A    between atoms: C_28  and  C_48
   10  A    between atoms: N_31  and  C_37
   11  A    between atoms: C_37  and  O_43
                            x       y       z     vdW  Elec       q    Type
                         _______ _______ _______ _____ _____    ______ ____

>  <TORSDO>
F 11

$$$$
=
 OpenBabel11072412593D

 48 53  0  0  1  0  0  0  0  0999 V2000
  156.3880  213.0980  153.8830 O   0  0  0  0  0  0  0  0  0  0  0  0
  157.4420  212.4790  154.1920 C   0  0  0  0  0  0  0  0  0  0  0  0
  159.0080  209.6480  154.6890 C   0  0  1  0  0  3  0  0  0  0  0  0
  160.9900  209.6530  153.1090 C   0  0  2  0  0  3  0  0  0  0  0  0
  157.4150  211.5950  155.4010 C   0  0  1  0  0  3  0  0  0  0  0  0
  160.9740  207.5010  155.3560 O   0  0  0  0  0  1  0  0  0  0  0  0
  161.9280  209.4570  154.3270 C   0  0  2  0  0  3  0  0  0  0  0  0
  158.6470  212.6120  153.3500 C   0  0  0  0  0  0  0  0  0  0  0  0
  159.8840  211.8330  153.6810 C   0  0  0  0  0  2  0  0  0  0  0  0
  159.6590  210.3380  153.4720 C   0  0  2  0  0  3  0  0  0  0  0  0
  161.2320  208.8560  155.5580 C   0  0  1  0  0  3  0  0  0  0  0  0
  159.9380  209.5870  155.9010 C   0  0  0  0  0  2  0  0  0  0  0  0
  158.6100  213.4070  152.3190 N   0  0  0  0  0  0  0  0  0  0  0  0
  157.5880  210.1090  155.0470 C   0  0  0  0  0  2  0  0  0  0  0  0
  158.4850  213.3240  156.7000 N   0  0  0  0  0  2  0  0  0  0  0  0
  158.3110  212.0700  156.4980 C   0  0  0  0  0  3  0  0  0  0  0  0
  160.7420  208.3530  152.3300 C   0  0  2  0  0  3  0  0  0  0  0  0
  161.6050  207.1950  152.8240 C   0  0  0  0  0  1  0  0  0  0  0  0
  160.9030  208.5560  150.8140 C   0  0  0  0  0  2  0  0  0  0  0  0
  161.4680  203.7540  147.8150 N   0  0  0  0  0  0  0  0  0  0  0  0
  161.8020  206.0180  148.1260 C   0  0  0  0  0  0  0  0  0  0  0  0
  161.0470  207.2720  150.0520 C   0  0  0  0  0  0  0  0  0  0  0  0
  160.5120  206.0800  150.5890 C   0  0  0  0  0  3  0  0  0  0  0  0
  162.4610  205.7180  146.8300 C   0  0  0  0  0  3  0  0  0  0  0  0
  161.2640  204.8770  148.6480 C   0  0  2  0  0  3  0  0  0  0  0  0
  162.2050  204.2070  146.6340 C   0  0  0  0  0  3  0  0  0  0  0  0
  160.6130  204.8700  149.8840 C   0  0  0  0  0  3  0  0  0  0  0  0
  161.7050  207.2440  148.7990 C   0  0  0  0  0  0  0  0  0  0  0  0
  162.2860  208.4800  148.1890 C   0  0  0  0  0  1  0  0  0  0  0  0
  162.6320  210.7660  154.6890 C   0  0  0  0  0  2  0  0  0  0  0  0
  163.0790  210.8230  156.1480 C   0  0  1  0  0  0  0  0  0  0  0  0
  164.5750  212.5630  156.7930 C   0  0  0  0  0  0  0  0  0  0  0  0
  161.2770  212.0380  157.2470 O   0  0  0  0  0  0  0  0  0  0  0  0
  162.8370  209.5060  156.8670 C   0  0  0  0  0  1  0  0  0  0  0  0
  164.5610  211.1830  156.1940 C   0  0  0  0  0  2  0  0  0  0  0  0
  163.4190  212.9910  157.1660 N   0  0  0  0  0  0  0  0  0  0  0  0
  162.4810  211.9740  156.8780 C   0  0  0  0  0  0  0  0  0  0  0  0
  165.7160  213.3570  156.9400 O   0  0  0  0  0  0  0  0  0  0  0  0
  166.7160  214.1360  155.0020 O   0  0  0  0  0  0  0  0  0  0  0  0
  166.7760  213.4050  156.0260 C   0  0  0  0  0  0  0  0  0  0  0  0
  169.6660  211.6770  157.0700 C   0  0  0  0  0  3  0  0  0  0  0  0
  169.3200  210.9350  155.9970 N   0  0  0  0  0  0  0  0  0  0  0  0
  168.8090  212.7020  157.2560 N   0  0  0  0  0  0  0  0  0  0  0  0
  168.2360  211.4770  155.4730 N   0  0  0  0  0  2  0  0  0  0  0  0
  167.9410  212.5430  156.2390 C   0  0  0  0  0  0  0  0  0  0  0  0
  159.7270  213.5990  151.4040 C   0  0  0  0  0  2  0  0  0  0  0  0
  158.3490  213.6460  149.6800 C   0  0  0  0  0  1  0  0  0  0  0  0
  159.4490  212.9630  150.1960 O   0  0  0  0  0  0  0  0  0  0  0  0
  1  2  2  0  0  0  0
  2  5  1  0  0  0  0
  3 14  1  1  0  0  0
  3 12  1  0  0  0  0
  4 17  1  1  0  0  0
  4 10  1  0  0  0  0
  4  7  1  0  0  0  0
  5 16  1  1  0  0  0
  7 30  1  1  0  0  0
  7 11  1  0  0  0  0
  8  9  1  0  0  0  0
  8  2  1  0  0  0  0
 10  9  1  1  0  0  0
 10  3  1  0  0  0  0
 11  6  1  6  0  0  0
 11 12  1  0  0  0  0
 13  8  2  0  0  0  0
 14  5  1  0  0  0  0
 16 15  2  0  0  0  0
 17 18  1  1  0  0  0
 19 17  1  0  0  0  0
 20 25  1  0  0  0  0
 21 25  1  0  0  0  0
 21 28  1  0  0  0  0
 22 23  1  0  0  0  0
 22 19  1  0  0  0  0
 24 21  2  0  0  0  0
 25 27  1  1  0  0  0
 26 24  1  0  0  0  0
 26 20  2  0  0  0  0
 27 23  2  0  0  0  0
 28 22  2  0  0  0  0
 29 28  1  0  0  0  0
 30 31  1  0  0  0  0
 31 35  1  0  0  0  0
 31 34  1  1  0  0  0
 31 37  1  0  0  0  0
 32 38  1  0  0  0  0
 32 36  2  0  0  0  0
 35 32  1  0  0  0  0
 37 36  1  0  0  0  0
 37 33  2  0  0  0  0
 39 40  2  0  0  0  0
 40 45  1  0  0  0  0
 40 38  1  0  0  0  0
 41 43  1  0  0  0  0
 42 41  2  0  0  0  0
 44 42  1  0  0  0  0
 44 45  1  0  0  0  0
 45 43  2  0  0  0  0
 46 13  1  0  0  0  0
 47 48  1  0  0  0  0
 48 46  1  0  0  0  0
M  END
>  <MODEL>
2

>  <REMARK>
 VINA RESULT:      -1.2      4.280      9.207
  Name = 
  11 active torsions:
  status: ('A' for Active; 'I' for Inactive)
    1  A    between atoms: C_8  and  C_28
    2  A    between atoms: C_9  and  C_47
    3  A    between atoms: C_11  and  C_29
    4  A    between atoms: C_12  and  C_29
    5  A    between atoms: C_14  and  O_24
    6  A    between atoms: C_18  and  C_48
    7  A    between atoms: O_24  and  C_25
    8  A    between atoms: C_25  and  C_44
    9  A    between atoms: C_28  and  C_48
   10  A    between atoms: N_31  and  C_37
   11  A    between atoms: C_37  and  O_43
                            x       y       z     vdW  Elec       q    Type
                         _______ _______ _______ _____ _____    ______ ____

>  <TORSDO>
F 11

$$$$
