=
 OpenBabel11072411423D

 53 58  0  0  1  0  0  0  0  0999 V2000
  161.4900  208.8420  150.5220 C   0  0  1  0  0  3  0  0  0  0  0  0
  161.3470  212.2880  149.0120 C   0  0  1  0  0  0  0  0  0  0  0  0
  160.4250  212.3790  155.5940 C   0  0  0  0  0  2  0  0  0  0  0  0
  160.3860  207.9480  150.5300 O   0  0  0  0  0  0  0  0  0  0  0  0
  162.7090  212.6620  148.8090 O   0  0  0  0  0  0  0  0  0  0  0  0
  163.1760  212.1800  147.5650 C   0  0  2  0  0  3  0  0  0  0  0  0
  163.1190  211.1670  151.6740 C   0  0  0  0  0  1  0  0  0  0  0  0
  161.6000  211.1370  151.7100 C   0  0  2  0  0  3  0  0  0  0  0  0
  162.7530  209.7460  156.7540 C   0  0  0  0  0  2  0  0  0  0  0  0
  159.5280  205.8300  150.7160 O   0  0  0  0  0  0  0  0  0  0  0  0
  160.2590  205.0480  155.3660 C   0  0  0  0  0  2  0  0  0  0  0  0
  160.9400  214.4490  147.3890 C   0  0  0  0  0  2  0  0  0  0  0  0
  159.1450  213.7470  149.2110 C   0  0  0  0  0  1  0  0  0  0  0  0
  161.2170  210.8400  149.2330 N   0  0  1  0  0  0  0  0  0  0  0  0
  161.1420  210.6390  153.0700 C   0  0  0  0  0  2  0  0  0  0  0  0
  161.5740  205.5080  152.8380 C   0  0  2  0  0  3  0  0  0  0  0  0
  162.6300  213.1140  146.4660 C   0  0  0  0  0  2  0  0  0  0  0  0
  161.7900  206.0570  151.4370 C   0  0  0  0  0  2  0  0  0  0  0  0
  160.4460  206.2850  154.9110 C   0  0  0  0  0  0  0  0  0  0  0  0
  162.8950  210.6490  147.4060 C   0  0  0  0  0  2  0  0  0  0  0  0
  162.3230  214.3750  147.0500 O   0  0  0  0  0  0  0  0  0  0  0  0
  162.0240  208.7690  155.8460 C   0  0  0  0  0  2  0  0  0  0  0  0
  160.4470  213.4630  148.4910 C   0  0  2  0  0  0  0  0  0  0  0  0
  160.3650  212.2340  147.7870 C   0  0  0  0  0  2  0  0  0  0  0  0
  161.8760  210.9550  157.0460 C   0  0  0  0  0  2  0  0  0  0  0  0
  160.5130  206.5990  150.8710 C   0  0  0  0  0  0  0  0  0  0  0  0
  162.2400  208.7190  149.1770 C   0  0  1  0  0  3  0  0  0  0  0  0
  161.1120  206.5380  153.7050 O   0  0  0  0  0  0  0  0  0  0  0  0
  162.4290  210.1620  148.7940 C   0  0  2  0  0  3  0  0  0  0  0  0
  161.8400  211.8780  155.8390 C   0  0  0  0  0  2  0  0  0  0  0  0
  159.5490  211.2970  154.9640 C   0  0  2  0  0  3  0  0  0  0  0  0
  160.9750  210.3010  150.5710 C   0  0  1  0  0  3  0  0  0  0  0  0
  162.7750  204.9890  153.3230 O   0  0  0  0  0  1  0  0  0  0  0  0
  159.9140  207.4330  155.7000 C   0  0  0  0  0  2  0  0  0  0  0  0
  159.7780  211.2290  153.4410 C   0  0  2  0  0  3  0  0  0  0  0  0
  160.9660  208.0110  156.6320 C   0  0  0  0  0  2  0  0  0  0  0  0
  158.2460  212.4740  156.3140 C   0  0  0  0  0  1  0  0  0  0  0  0
  158.2100  211.5880  155.2350 O   0  0  0  0  0  0  0  0  0  0  0  0
  157.9030  211.6540  152.1830 C   0  0  0  0  0  1  0  0  0  0  0  0
  158.7080  210.6380  152.7260 O   0  0  0  0  0  0  0  0  0  0  0  0
  163.4360  207.9640  149.2440 O   0  0  0  0  0  0  0  0  0  0  0  0
  163.2640  206.7250  148.5990 C   0  0  0  0  0  2  0  0  0  0  0  0
  162.0820  206.7960  147.6500 C   0  0  0  0  0  2  0  0  0  0  0  0
  162.4670  206.2320  146.2940 C   0  0  0  0  0  2  0  0  0  0  0  0
  162.7490  204.7430  146.4000 C   0  0  0  0  0  2  0  0  0  0  0  0
  161.7170  203.9750  145.7200 N   0  0  0  0  0  2  0  0  0  0  0  0
  160.8240  203.5150  146.7020 N   0  0  0  0  0  2  0  0  0  0  0  0
  160.6920  202.6250  151.1960 C   0  0  0  0  0  1  0  0  0  0  0  0
  160.5590  202.3820  149.7050 C   0  0  1  0  0  3  0  0  0  0  0  0
  161.3750  203.2840  149.0000 O   0  0  0  0  0  0  0  0  0  0  0  0
  160.9790  200.9690  149.3820 C   0  0  0  0  0  2  0  0  0  0  0  0
  161.2300  200.9640  147.6050 S   0  0  0  0  0  0  0  0  0  0  0  0
  161.5750  202.7570  147.7040 C   0  0  1  0  0  3  0  0  0  0  0  0
  1  4  1  6  0  0  0
  1 32  1  0  0  0  0
  2 24  1  6  0  0  0
  2 14  1  0  0  0  0
  3 30  1  0  0  0  0
  4 26  1  0  0  0  0
  5  2  1  0  0  0  0
  6 17  1  6  0  0  0
  6  5  1  0  0  0  0
  8  7  1  1  0  0  0
  8 15  1  0  0  0  0
  9 25  1  0  0  0  0
 10 26  2  0  0  0  0
 12 23  1  0  0  0  0
 14 32  1  0  0  0  0
 15 35  1  0  0  0  0
 16 33  1  0  0  0  0
 16 28  1  0  0  0  0
 17 21  1  0  0  0  0
 18 16  1  0  0  0  0
 19 11  2  0  0  0  0
 19 34  1  0  0  0  0
 20  6  1  0  0  0  0
 20 29  1  0  0  0  0
 21 12  1  0  0  0  0
 22 36  1  0  0  0  0
 22  9  1  0  0  0  0
 23  2  1  0  0  0  0
 23 13  1  0  0  0  0
 24 23  1  0  0  0  0
 26 18  1  0  0  0  0
 27 41  1  0  0  0  0
 27  1  1  0  0  0  0
 28 19  1  0  0  0  0
 29 27  1  0  0  0  0
 29 14  1  0  0  0  0
 30 25  1  0  0  0  0
 31 38  1  0  0  0  0
 31  3  1  0  0  0  0
 32  8  1  0  0  0  0
 34 36  1  0  0  0  0
 35 31  1  0  0  0  0
 38 37  1  0  0  0  0
 39 40  1  0  0  0  0
 40 35  1  0  0  0  0
 42 41  1  0  0  0  0
 43 42  1  0  0  0  0
 44 45  1  0  0  0  0
 44 43  1  0  0  0  0
 46 45  1  0  0  0  0
 46 47  1  0  0  0  0
 47 53  1  0  0  0  0
 49 48  1  0  0  0  0
 50 49  1  0  0  0  0
 51 49  1  0  0  0  0
 52 53  1  0  0  0  0
 52 51  1  0  0  0  0
 53 50  1  0  0  0  0
M  END
>  <MODEL>
1

>  <REMARK>
 VINA RESULT:       6.3      0.000      0.000
  Name = 
  10 active torsions:
  status: ('A' for Active; 'I' for Inactive)
    1  A    between atoms: C_1  and  O_8
    2  A    between atoms: C_1  and  C_16
    3  A    between atoms: N_3  and  C_9
    4  A    between atoms: N_3  and  N_17
    5  A    between atoms: O_8  and  C_40
    6  A    between atoms: C_9  and  C_48
    7  A    between atoms: O_15  and  C_46
    8  A    between atoms: C_16  and  C_48
    9  A    between atoms: N_17  and  C_41
   10  A    between atoms: O_50  and  C_52
                            x       y       z     vdW  Elec       q    Type
                         _______ _______ _______ _____ _____    ______ ____

>  <TORSDO>
F 10

$$$$
=
 OpenBabel11072411423D

 53 58  0  0  1  0  0  0  0  0999 V2000
  161.5050  208.7550  150.4280 C   0  0  1  0  0  3  0  0  0  0  0  0
  161.4420  212.2420  149.0100 C   0  0  1  0  0  0  0  0  0  0  0  0
  160.4980  212.1790  155.5890 C   0  0  0  0  0  2  0  0  0  0  0  0
  160.3820  207.8850  150.4100 O   0  0  0  0  0  0  0  0  0  0  0  0
  162.8120  212.5910  148.8210 O   0  0  0  0  0  0  0  0  0  0  0  0
  163.2730  212.1320  147.5670 C   0  0  2  0  0  3  0  0  0  0  0  0
  163.1790  211.0130  151.6470 C   0  0  0  0  0  1  0  0  0  0  0  0
  161.6600  211.0150  151.6780 C   0  0  2  0  0  3  0  0  0  0  0  0
  162.7650  209.4660  156.6860 C   0  0  0  0  0  2  0  0  0  0  0  0
  159.4790  205.7820  150.5360 O   0  0  0  0  0  0  0  0  0  0  0  0
  160.1760  204.8610  155.1670 C   0  0  0  0  0  2  0  0  0  0  0  0
  161.0870  214.4530  147.4440 C   0  0  0  0  0  2  0  0  0  0  0  0
  159.2710  213.7420  149.2410 C   0  0  0  0  0  1  0  0  0  0  0  0
  161.2800  210.7920  149.1920 N   0  0  1  0  0  0  0  0  0  0  0  0
  161.1870  210.4910  153.0220 C   0  0  0  0  0  2  0  0  0  0  0  0
  161.5100  205.3600  152.6560 C   0  0  2  0  0  3  0  0  0  0  0  0
  162.7510  213.1070  146.4910 C   0  0  0  0  0  2  0  0  0  0  0  0
  161.7430  205.9410  151.2700 C   0  0  0  0  0  2  0  0  0  0  0  0
  160.3910  206.1050  154.7450 C   0  0  0  0  0  0  0  0  0  0  0  0
  162.9600  210.6130  147.3660 C   0  0  0  0  0  2  0  0  0  0  0  0
  162.4700  214.3580  147.1070 O   0  0  0  0  0  0  0  0  0  0  0  0
  162.0180  208.5290  155.7500 C   0  0  0  0  0  2  0  0  0  0  0  0
  160.5690  213.4490  148.5180 C   0  0  2  0  0  0  0  0  0  0  0  0
  160.4630  212.2410  147.7810 C   0  0  0  0  0  2  0  0  0  0  0  0
  161.9130  210.6860  157.0080 C   0  0  0  0  0  2  0  0  0  0  0  0
  160.4800  206.5240  150.7140 C   0  0  0  0  0  0  0  0  0  0  0  0
  162.2570  208.6510  149.0830 C   0  0  1  0  0  3  0  0  0  0  0  0
  161.0670  206.3760  153.5480 O   0  0  0  0  0  0  0  0  0  0  0  0
  162.4790  210.0990  148.7390 C   0  0  2  0  0  3  0  0  0  0  0  0
  161.9010  211.6400  155.8250 C   0  0  0  0  0  2  0  0  0  0  0  0
  159.6010  211.1320  154.9280 C   0  0  2  0  0  3  0  0  0  0  0  0
  161.0220  210.2220  150.5150 C   0  0  1  0  0  3  0  0  0  0  0  0
  162.6980  204.8020  153.1310 O   0  0  0  0  0  1  0  0  0  0  0  0
  159.8810  207.2440  155.5630 C   0  0  0  0  0  2  0  0  0  0  0  0
  159.8340  211.1000  153.4050 C   0  0  2  0  0  3  0  0  0  0  0  0
  160.9420  207.7740  156.5130 C   0  0  0  0  0  2  0  0  0  0  0  0
  158.2590  211.8370  156.5430 C   0  0  0  0  0  1  0  0  0  0  0  0
  158.2680  211.4450  155.2030 O   0  0  0  0  0  0  0  0  0  0  0  0
  157.9900  211.5980  152.1290 C   0  0  0  0  0  1  0  0  0  0  0  0
  158.7550  210.5510  152.6710 O   0  0  0  0  0  0  0  0  0  0  0  0
  163.4370  207.8690  149.1340 O   0  0  0  0  0  0  0  0  0  0  0  0
  163.2280  206.6350  148.4890 C   0  0  0  0  0  2  0  0  0  0  0  0
  162.1040  206.7640  147.4780 C   0  0  0  0  0  2  0  0  0  0  0  0
  162.3610  205.8480  146.2940 C   0  0  0  0  0  2  0  0  0  0  0  0
  161.2000  205.9100  145.3150 C   0  0  0  0  0  2  0  0  0  0  0  0
  160.7790  204.5700  144.9330 N   0  0  0  0  0  2  0  0  0  0  0  0
  161.5970  203.6620  145.6260 N   0  0  0  0  0  2  0  0  0  0  0  0
  161.2930  199.1300  146.2290 C   0  0  0  0  0  1  0  0  0  0  0  0
  161.5640  200.5820  146.5670 C   0  0  1  0  0  3  0  0  0  0  0  0
  160.8280  201.4170  145.7080 O   0  0  0  0  0  0  0  0  0  0  0  0
  161.1620  200.8550  147.9960 C   0  0  0  0  0  2  0  0  0  0  0  0
  161.0800  202.6440  148.1120 S   0  0  0  0  0  0  0  0  0  0  0  0
  160.7470  202.6910  146.3150 C   0  0  1  0  0  3  0  0  0  0  0  0
  1  4  1  6  0  0  0
  1 32  1  0  0  0  0
  2 24  1  6  0  0  0
  2 14  1  0  0  0  0
  3 30  1  0  0  0  0
  4 26  1  0  0  0  0
  5  2  1  0  0  0  0
  6 17  1  6  0  0  0
  6  5  1  0  0  0  0
  8  7  1  1  0  0  0
  8 15  1  0  0  0  0
  9 25  1  0  0  0  0
 10 26  2  0  0  0  0
 12 23  1  0  0  0  0
 14 32  1  0  0  0  0
 15 35  1  0  0  0  0
 16 33  1  0  0  0  0
 16 28  1  0  0  0  0
 17 21  1  0  0  0  0
 18 16  1  0  0  0  0
 19 11  2  0  0  0  0
 19 34  1  0  0  0  0
 20  6  1  0  0  0  0
 20 29  1  0  0  0  0
 21 12  1  0  0  0  0
 22 36  1  0  0  0  0
 22  9  1  0  0  0  0
 23  2  1  0  0  0  0
 23 13  1  0  0  0  0
 24 23  1  0  0  0  0
 26 18  1  0  0  0  0
 27 41  1  0  0  0  0
 27  1  1  0  0  0  0
 28 19  1  0  0  0  0
 29 27  1  0  0  0  0
 29 14  1  0  0  0  0
 30 25  1  0  0  0  0
 31 38  1  0  0  0  0
 31  3  1  0  0  0  0
 32  8  1  0  0  0  0
 34 36  1  0  0  0  0
 35 31  1  0  0  0  0
 38 37  1  0  0  0  0
 39 40  1  0  0  0  0
 40 35  1  0  0  0  0
 42 41  1  0  0  0  0
 43 42  1  0  0  0  0
 44 43  1  0  0  0  0
 45 44  1  0  0  0  0
 46 45  1  0  0  0  0
 46 47  1  0  0  0  0
 47 53  1  0  0  0  0
 48 49  1  0  0  0  0
 49 51  1  0  0  0  0
 50 53  1  0  0  0  0
 50 49  1  0  0  0  0
 51 52  1  0  0  0  0
 53 52  1  0  0  0  0
M  END
>  <MODEL>
2

>  <REMARK>
 VINA RESULT:       6.6      0.956      1.261
  Name = 
  10 active torsions:
  status: ('A' for Active; 'I' for Inactive)
    1  A    between atoms: C_1  and  O_8
    2  A    between atoms: C_1  and  C_16
    3  A    between atoms: N_3  and  C_9
    4  A    between atoms: N_3  and  N_17
    5  A    between atoms: O_8  and  C_40
    6  A    between atoms: C_9  and  C_48
    7  A    between atoms: O_15  and  C_46
    8  A    between atoms: C_16  and  C_48
    9  A    between atoms: N_17  and  C_41
   10  A    between atoms: O_50  and  C_52
                            x       y       z     vdW  Elec       q    Type
                         _______ _______ _______ _____ _____    ______ ____

>  <TORSDO>
F 10

$$$$
=
 OpenBabel11072411423D

 53 58  0  0  1  0  0  0  0  0999 V2000
  161.2890  209.3680  151.0610 C   0  0  1  0  0  3  0  0  0  0  0  0
  161.0250  212.5630  149.0880 C   0  0  1  0  0  0  0  0  0  0  0  0
  159.5960  213.4470  155.5180 C   0  0  0  0  0  2  0  0  0  0  0  0
  160.2510  208.3990  151.1180 O   0  0  0  0  0  0  0  0  0  0  0  0
  162.3700  213.0130  148.9270 O   0  0  0  0  0  0  0  0  0  0  0  0
  162.9630  212.4100  147.7950 C   0  0  2  0  0  3  0  0  0  0  0  0
  162.6600  211.9450  151.9910 C   0  0  0  0  0  1  0  0  0  0  0  0
  161.1490  211.8010  151.9290 C   0  0  2  0  0  3  0  0  0  0  0  0
  162.0040  211.1800  157.1810 C   0  0  0  0  0  2  0  0  0  0  0  0
  159.5300  206.2630  151.5340 O   0  0  0  0  0  0  0  0  0  0  0  0
  159.9530  206.1590  156.2860 C   0  0  0  0  0  2  0  0  0  0  0  0
  160.5970  214.4530  147.1610 C   0  0  0  0  0  2  0  0  0  0  0  0
  158.7190  213.8580  148.9370 C   0  0  0  0  0  1  0  0  0  0  0  0
  160.9790  211.1510  149.4950 N   0  0  1  0  0  0  0  0  0  0  0  0
  160.6230  211.4520  153.3100 C   0  0  0  0  0  2  0  0  0  0  0  0
  161.4240  206.3840  153.8120 C   0  0  2  0  0  3  0  0  0  0  0  0
  162.4400  213.1460  146.5450 C   0  0  0  0  0  2  0  0  0  0  0  0
  161.7090  206.7600  152.3660 C   0  0  0  0  0  2  0  0  0  0  0  0
  160.0900  207.3360  155.6790 C   0  0  0  0  0  0  0  0  0  0  0  0
  162.8010  210.8540  147.8280 C   0  0  0  0  0  2  0  0  0  0  0  0
  162.0040  214.4440  146.9280 O   0  0  0  0  0  0  0  0  0  0  0  0
  161.4160  210.0370  156.3690 C   0  0  0  0  0  2  0  0  0  0  0  0
  160.0890  213.5850  148.3520 C   0  0  2  0  0  0  0  0  0  0  0  0
  160.1460  212.2710  147.8190 C   0  0  0  0  0  2  0  0  0  0  0  0
  161.0260  212.3450  157.2460 C   0  0  0  0  0  2  0  0  0  0  0  0
  160.4450  207.1200  151.6470 C   0  0  0  0  0  0  0  0  0  0  0  0
  162.1460  209.1280  149.7990 C   0  0  1  0  0  3  0  0  0  0  0  0
  160.8270  207.4800  154.4970 O   0  0  0  0  0  0  0  0  0  0  0  0
  162.2650  210.5190  149.2350 C   0  0  2  0  0  3  0  0  0  0  0  0
  161.0200  213.0950  155.9240 C   0  0  0  0  0  2  0  0  0  0  0  0
  158.8480  212.2250  154.9860 C   0  0  2  0  0  3  0  0  0  0  0  0
  160.6730  210.7750  150.8760 C   0  0  1  0  0  3  0  0  0  0  0  0
  162.6170  206.0300  154.4430 O   0  0  0  0  0  1  0  0  0  0  0  0
  159.4200  208.5330  156.2660 C   0  0  0  0  0  2  0  0  0  0  0  0
  159.1970  211.9760  153.5050 C   0  0  2  0  0  3  0  0  0  0  0  0
  160.3550  209.3090  157.1790 C   0  0  0  0  0  2  0  0  0  0  0  0
  157.3270  213.0110  156.3920 C   0  0  0  0  0  1  0  0  0  0  0  0
  157.4750  212.4430  155.1240 O   0  0  0  0  0  0  0  0  0  0  0  0
  157.4490  212.0760  152.0170 C   0  0  0  0  0  1  0  0  0  0  0  0
  158.2290  211.2140  152.8080 O   0  0  0  0  0  0  0  0  0  0  0  0
  163.3830  208.4850  150.0490 O   0  0  0  0  0  0  0  0  0  0  0  0
  163.3590  207.1740  149.5380 C   0  0  0  0  0  2  0  0  0  0  0  0
  162.8050  207.1800  148.1250 C   0  0  0  0  0  2  0  0  0  0  0  0
  161.3170  206.8730  148.1470 C   0  0  0  0  0  2  0  0  0  0  0  0
  160.8300  206.5130  146.7540 C   0  0  0  0  0  2  0  0  0  0  0  0
  161.6320  205.4370  146.1910 N   0  0  0  0  0  2  0  0  0  0  0  0
  160.8390  204.2780  146.1950 N   0  0  0  0  0  2  0  0  0  0  0  0
  161.1060  202.3610  150.3490 C   0  0  0  0  0  1  0  0  0  0  0  0
  160.7550  202.5030  148.8810 C   0  0  1  0  0  3  0  0  0  0  0  0
  161.6180  203.4310  148.2720 O   0  0  0  0  0  0  0  0  0  0  0  0
  160.8920  201.1660  148.1950 C   0  0  0  0  0  2  0  0  0  0  0  0
  160.9230  201.5550  146.4430 S   0  0  0  0  0  0  0  0  0  0  0  0
  161.5690  203.2090  146.8770 C   0  0  1  0  0  3  0  0  0  0  0  0
  1  4  1  6  0  0  0
  2 24  1  6  0  0  0
  2 14  1  0  0  0  0
  3 30  1  0  0  0  0
  4 26  1  0  0  0  0
  5  2  1  0  0  0  0
  6 17  1  6  0  0  0
  6 20  1  0  0  0  0
  6  5  1  0  0  0  0
  8  7  1  1  0  0  0
  8 15  1  0  0  0  0
  9 25  1  0  0  0  0
 10 26  2  0  0  0  0
 12 23  1  0  0  0  0
 14 32  1  0  0  0  0
 15 35  1  0  0  0  0
 16 33  1  0  0  0  0
 16 28  1  0  0  0  0
 17 21  1  0  0  0  0
 18 16  1  0  0  0  0
 19 34  1  0  0  0  0
 19 11  2  0  0  0  0
 20 29  1  0  0  0  0
 21 12  1  0  0  0  0
 22 36  1  0  0  0  0
 22  9  1  0  0  0  0
 23 13  1  0  0  0  0
 23  2  1  0  0  0  0
 24 23  1  0  0  0  0
 26 18  1  0  0  0  0
 27 41  1  0  0  0  0
 27  1  1  0  0  0  0
 28 19  1  0  0  0  0
 29 14  1  0  0  0  0
 29 27  1  0  0  0  0
 30 25  1  0  0  0  0
 31 38  1  0  0  0  0
 31  3  1  0  0  0  0
 32  1  1  0  0  0  0
 32  8  1  0  0  0  0
 34 36  1  0  0  0  0
 35 31  1  0  0  0  0
 38 37  1  0  0  0  0
 39 40  1  0  0  0  0
 40 35  1  0  0  0  0
 42 41  1  0  0  0  0
 43 44  1  0  0  0  0
 43 42  1  0  0  0  0
 45 44  1  0  0  0  0
 46 47  1  0  0  0  0
 46 45  1  0  0  0  0
 47 53  1  0  0  0  0
 49 48  1  0  0  0  0
 50 49  1  0  0  0  0
 51 49  1  0  0  0  0
 52 53  1  0  0  0  0
 52 51  1  0  0  0  0
 53 50  1  0  0  0  0
M  END
>  <MODEL>
3

>  <REMARK>
 VINA RESULT:       8.6      0.997      1.115
  Name = 
  10 active torsions:
  status: ('A' for Active; 'I' for Inactive)
    1  A    between atoms: C_1  and  O_8
    2  A    between atoms: C_1  and  C_16
    3  A    between atoms: N_3  and  C_9
    4  A    between atoms: N_3  and  N_17
    5  A    between atoms: O_8  and  C_40
    6  A    between atoms: C_9  and  C_48
    7  A    between atoms: O_15  and  C_46
    8  A    between atoms: C_16  and  C_48
    9  A    between atoms: N_17  and  C_41
   10  A    between atoms: O_50  and  C_52
                            x       y       z     vdW  Elec       q    Type
                         _______ _______ _______ _____ _____    ______ ____

>  <TORSDO>
F 10

$$$$
=
 OpenBabel11072411423D

 53 58  0  0  1  0  0  0  0  0999 V2000
  161.3630  208.9770  150.8330 C   0  0  1  0  0  3  0  0  0  0  0  0
  161.3280  212.3550  149.1720 C   0  0  1  0  0  0  0  0  0  0  0  0
  160.3750  212.7650  155.7370 C   0  0  0  0  0  2  0  0  0  0  0  0
  160.2330  208.1170  150.8730 O   0  0  0  0  0  0  0  0  0  0  0  0
  162.7010  212.6800  148.9610 O   0  0  0  0  0  0  0  0  0  0  0  0
  163.1610  212.1300  147.7430 C   0  0  2  0  0  3  0  0  0  0  0  0
  163.0530  211.3030  151.8920 C   0  0  0  0  0  1  0  0  0  0  0  0
  161.5330  211.3180  151.9200 C   0  0  2  0  0  3  0  0  0  0  0  0
  162.6190  210.1190  157.0280 C   0  0  0  0  0  2  0  0  0  0  0  0
  159.3130  206.0340  151.1470 O   0  0  0  0  0  0  0  0  0  0  0  0
  159.9960  205.4380  155.8320 C   0  0  0  0  0  2  0  0  0  0  0  0
  160.9930  214.4530  147.4530 C   0  0  0  0  0  2  0  0  0  0  0  0
  159.1690  213.8850  149.2920 C   0  0  0  0  0  1  0  0  0  0  0  0
  161.1550  210.9230  149.4550 N   0  0  1  0  0  0  0  0  0  0  0  0
  161.0540  210.8940  153.2970 C   0  0  0  0  0  2  0  0  0  0  0  0
  161.3380  205.7480  153.2950 C   0  0  2  0  0  3  0  0  0  0  0  0
  162.6480  213.0310  146.6010 C   0  0  0  0  0  2  0  0  0  0  0  0
  161.5770  206.2280  151.8720 C   0  0  0  0  0  2  0  0  0  0  0  0
  160.2220  206.6480  155.3240 C   0  0  0  0  0  0  0  0  0  0  0  0
  162.8360  210.6030  147.6500 C   0  0  0  0  0  2  0  0  0  0  0  0
  162.3750  214.3240  147.1260 O   0  0  0  0  0  0  0  0  0  0  0  0
  161.8660  209.1240  156.1590 C   0  0  0  0  0  2  0  0  0  0  0  0
  160.4660  213.5320  148.5940 C   0  0  2  0  0  0  0  0  0  0  0  0
  160.3510  212.2750  147.9440 C   0  0  0  0  0  2  0  0  0  0  0  0
  161.7760  211.3650  157.2600 C   0  0  0  0  0  2  0  0  0  0  0  0
  160.3200  206.7800  151.2740 C   0  0  0  0  0  0  0  0  0  0  0  0
  162.1160  208.7730  149.5000 C   0  0  1  0  0  3  0  0  0  0  0  0
  160.9010  206.8280  154.1120 O   0  0  0  0  0  0  0  0  0  0  0  0
  162.3490  210.1910  149.0550 C   0  0  2  0  0  3  0  0  0  0  0  0
  161.7730  212.2340  156.0130 C   0  0  0  0  0  2  0  0  0  0  0  0
  159.4710  211.6810  155.1500 C   0  0  2  0  0  3  0  0  0  0  0  0
  160.8910  210.4510  150.8150 C   0  0  1  0  0  3  0  0  0  0  0  0
  162.5210  205.2160  153.8100 O   0  0  0  0  0  1  0  0  0  0  0  0
  159.7190  207.8450  156.0580 C   0  0  0  0  0  2  0  0  0  0  0  0
  159.7060  211.5390  153.6330 C   0  0  2  0  0  3  0  0  0  0  0  0
  160.7830  208.4330  156.9710 C   0  0  0  0  0  2  0  0  0  0  0  0
  157.7040  211.1000  156.3530 C   0  0  0  0  0  1  0  0  0  0  0  0
  158.1390  212.0220  155.3990 O   0  0  0  0  0  0  0  0  0  0  0  0
  157.8880  211.9570  152.2910 C   0  0  0  0  0  1  0  0  0  0  0  0
  158.6230  210.9480  152.9380 O   0  0  0  0  0  0  0  0  0  0  0  0
  163.2890  207.9870  149.6080 O   0  0  0  0  0  0  0  0  0  0  0  0
  163.1070  206.7530  148.9580 C   0  0  0  0  0  2  0  0  0  0  0  0
  162.2140  206.9340  147.7450 C   0  0  0  0  0  2  0  0  0  0  0  0
  161.1370  205.8620  147.7250 C   0  0  0  0  0  2  0  0  0  0  0  0
  161.5950  204.6380  148.5000 C   0  0  0  0  0  2  0  0  0  0  0  0
  162.0120  203.5810  147.5900 N   0  0  0  0  0  2  0  0  0  0  0  0
  162.7790  204.1810  146.5770 N   0  0  0  0  0  2  0  0  0  0  0  0
  159.2520  201.8020  144.8750 C   0  0  0  0  0  1  0  0  0  0  0  0
  160.0880  203.0090  145.2520 C   0  0  1  0  0  3  0  0  0  0  0  0
  161.4380  202.6340  145.3740 O   0  0  0  0  0  0  0  0  0  0  0  0
  159.9570  204.0710  144.1880 C   0  0  0  0  0  2  0  0  0  0  0  0
  161.3180  205.1980  144.5000 S   0  0  0  0  0  0  0  0  0  0  0  0
  162.2180  203.8090  145.2780 C   0  0  1  0  0  3  0  0  0  0  0  0
  1  4  1  6  0  0  0
  2 24  1  6  0  0  0
  2 14  1  0  0  0  0
  3 30  1  0  0  0  0
  4 26  1  0  0  0  0
  5  2  1  0  0  0  0
  6 17  1  6  0  0  0
  6  5  1  0  0  0  0
  8  7  1  1  0  0  0
  8 15  1  0  0  0  0
  9 25  1  0  0  0  0
 10 26  2  0  0  0  0
 12 23  1  0  0  0  0
 14 32  1  0  0  0  0
 15 35  1  0  0  0  0
 16 33  1  0  0  0  0
 16 28  1  0  0  0  0
 17 21  1  0  0  0  0
 18 16  1  0  0  0  0
 19 11  2  0  0  0  0
 19 34  1  0  0  0  0
 20  6  1  0  0  0  0
 20 29  1  0  0  0  0
 21 12  1  0  0  0  0
 22 36  1  0  0  0  0
 22  9  1  0  0  0  0
 23  2  1  0  0  0  0
 23 13  1  0  0  0  0
 24 23  1  0  0  0  0
 26 18  1  0  0  0  0
 27 41  1  0  0  0  0
 27  1  1  0  0  0  0
 28 19  1  0  0  0  0
 29 14  1  0  0  0  0
 29 27  1  0  0  0  0
 30 25  1  0  0  0  0
 31 38  1  0  0  0  0
 31  3  1  0  0  0  0
 32  1  1  0  0  0  0
 32  8  1  0  0  0  0
 34 36  1  0  0  0  0
 35 31  1  0  0  0  0
 38 37  1  0  0  0  0
 39 40  1  0  0  0  0
 40 35  1  0  0  0  0
 42 41  1  0  0  0  0
 43 42  1  0  0  0  0
 44 43  1  0  0  0  0
 44 45  1  0  0  0  0
 46 45  1  0  0  0  0
 47 46  1  0  0  0  0
 48 49  1  0  0  0  0
 49 50  1  0  0  0  0
 51 52  1  0  0  0  0
 51 49  1  0  0  0  0
 52 53  1  0  0  0  0
 53 50  1  0  0  0  0
 53 47  1  0  0  0  0
M  END
>  <MODEL>
4

>  <REMARK>
 VINA RESULT:       8.9      1.361      1.821
  Name = 
  10 active torsions:
  status: ('A' for Active; 'I' for Inactive)
    1  A    between atoms: C_1  and  O_8
    2  A    between atoms: C_1  and  C_16
    3  A    between atoms: N_3  and  C_9
    4  A    between atoms: N_3  and  N_17
    5  A    between atoms: O_8  and  C_40
    6  A    between atoms: C_9  and  C_48
    7  A    between atoms: O_15  and  C_46
    8  A    between atoms: C_16  and  C_48
    9  A    between atoms: N_17  and  C_41
   10  A    between atoms: O_50  and  C_52
                            x       y       z     vdW  Elec       q    Type
                         _______ _______ _______ _____ _____    ______ ____

>  <TORSDO>
F 10

$$$$
