=
 OpenBabel11072414383D

 26 31  0  0  1  0  0  0  0  0999 V2000
  160.2450  209.9740  154.3210 S   0  0  0  0  0  0  0  0  0  0  0  0
  160.3190  205.2270  147.2710 C   0  0  0  0  0  2  0  0  0  0  0  0
  160.6860  208.2280  154.7170 C   0  0  0  0  0  2  0  0  0  0  0  0
  161.2180  204.4050  148.1910 C   0  0  1  0  0  0  0  0  0  0  0  0
  161.8130  210.3590  150.5490 C   0  0  0  0  0  0  0  0  0  0  0  0
  161.8160  206.4050  153.4990 N   0  0  0  0  0  2  0  0  0  0  0  0
  161.2450  210.7280  151.7810 C   0  0  0  0  0  3  0  0  0  0  0  0
  160.7650  207.4230  153.4180 C   0  0  2  0  0  3  0  0  0  0  0  0
  161.7610  205.6560  147.4780 C   0  0  2  0  0  0  0  0  0  0  0  0
  161.1170  208.4080  152.3830 C   0  0  0  0  0  0  0  0  0  0  0  0
  161.9850  206.6240  151.0220 N   0  0  0  0  0  0  0  0  0  0  0  0
  162.0590  206.5880  148.5140 O   0  0  0  0  0  0  0  0  0  0  0  0
  160.8900  209.7240  152.6860 C   0  0  0  0  0  0  0  0  0  0  0  0
  162.0420  205.7250  152.2050 C   0  0  2  0  0  3  0  0  0  0  0  0
  161.1720  204.4980  152.0340 C   0  0  0  0  0  3  0  0  0  0  0  0
  160.9140  204.0200  150.8080 C   0  0  0  0  0  3  0  0  0  0  0  0
  161.8460  205.9920  149.7420 C   0  0  0  0  0  0  0  0  0  0  0  0
  162.7860  205.4200  146.3820 C   0  0  0  0  0  1  0  0  0  0  0  0
  161.3920  204.7620  149.6280 C   0  0  0  0  0  0  0  0  0  0  0  0
  161.7110  208.0200  151.1970 C   0  0  0  0  0  0  0  0  0  0  0  0
  162.0560  209.0040  150.2550 C   0  0  0  0  0  3  0  0  0  0  0  0
  162.2510  211.5930  149.3870 Cl  0  0  0  0  0  0  0  0  0  0  0  0
  161.7970  203.2010  147.6950 O   0  0  0  0  0  0  0  0  0  0  0  0
  160.5360  201.7000  146.5070 O   0  0  0  0  0  0  0  0  0  0  0  0
  160.9500  201.0760  148.7590 C   0  0  0  0  0  1  0  0  0  0  0  0
  161.0850  202.0030  147.5980 C   0  0  0  0  0  0  0  0  0  0  0  0
  1  3  1  0  0  0  0
  2  9  1  0  0  0  0
  2  4  1  0  0  0  0
  4 23  1  6  0  0  0
  4 19  1  0  0  0  0
  5  7  1  0  0  0  0
  7 13  2  0  0  0  0
  8  6  1  0  0  0  0
  8  3  1  1  0  0  0
  9 18  1  6  0  0  0
  9  4  1  0  0  0  0
  9 12  1  0  0  0  0
 10 13  1  0  0  0  0
 10  8  1  0  0  0  0
 11 20  1  0  0  0  0
 11 14  1  0  0  0  0
 12 17  1  0  0  0  0
 13  1  1  0  0  0  0
 14 15  1  6  0  0  0
 14  6  1  0  0  0  0
 16 15  2  0  0  0  0
 17 11  1  0  0  0  0
 19 17  2  0  0  0  0
 19 16  1  0  0  0  0
 20 10  2  0  0  0  0
 21  5  2  0  0  0  0
 21 20  1  0  0  0  0
 22  5  1  0  0  0  0
 24 26  2  0  0  0  0
 26 23  1  0  0  0  0
 26 25  1  0  0  0  0
M  END
>  <MODEL>
1

>  <REMARK>
 VINA RESULT:      -8.8      0.000      0.000
  Name = 
  2 active torsions:
  status: ('A' for Active; 'I' for Inactive)
    1  A    between atoms: C_5  and  O_17
    2  A    between atoms: C_11  and  O_17
                            x       y       z     vdW  Elec       q    Type
                         _______ _______ _______ _____ _____    ______ ____

>  <TORSDO>
F 2

$$$$
=
 OpenBabel11072414383D

 26 31  0  0  1  0  0  0  0  0999 V2000
  159.3930  210.1580  155.9590 S   0  0  0  0  0  0  0  0  0  0  0  0
  159.9740  206.1490  148.4860 C   0  0  0  0  0  2  0  0  0  0  0  0
  160.2070  208.5170  156.1630 C   0  0  0  0  0  2  0  0  0  0  0  0
  161.0810  205.4590  149.2790 C   0  0  1  0  0  0  0  0  0  0  0  0
  160.5970  211.1830  152.1720 C   0  0  0  0  0  0  0  0  0  0  0  0
  161.6040  207.0820  154.7230 N   0  0  0  0  0  2  0  0  0  0  0  0
  160.0470  211.3190  153.4600 C   0  0  0  0  0  3  0  0  0  0  0  0
  160.3630  207.8600  154.7900 C   0  0  2  0  0  3  0  0  0  0  0  0
  161.3080  206.8520  148.6670 C   0  0  2  0  0  0  0  0  0  0  0  0
  160.4370  208.9810  153.8390 C   0  0  0  0  0  0  0  0  0  0  0  0
  161.5610  207.5420  152.2740 N   0  0  0  0  0  0  0  0  0  0  0  0
  161.4760  207.7350  149.7720 O   0  0  0  0  0  0  0  0  0  0  0  0
  159.9650  210.1890  154.2790 C   0  0  0  0  0  0  0  0  0  0  0  0
  161.8790  206.5770  153.3590 C   0  0  2  0  0  3  0  0  0  0  0  0
  161.2690  205.2140  153.1120 C   0  0  0  0  0  3  0  0  0  0  0  0
  161.0340  204.7990  151.8580 C   0  0  0  0  0  3  0  0  0  0  0  0
  161.4710  207.0050  150.9460 C   0  0  0  0  0  0  0  0  0  0  0  0
  162.2860  206.9320  147.5060 C   0  0  0  0  0  1  0  0  0  0  0  0
  161.2720  205.7220  150.7350 C   0  0  0  0  0  0  0  0  0  0  0  0
  161.0190  208.8280  152.5950 C   0  0  0  0  0  0  0  0  0  0  0  0
  161.0920  209.9390  151.7380 C   0  0  0  0  0  3  0  0  0  0  0  0
  160.6950  212.5760  151.1160 Cl  0  0  0  0  0  0  0  0  0  0  0  0
  161.8610  204.4510  148.6430 O   0  0  0  0  0  0  0  0  0  0  0  0
  161.2520  203.0170  146.9610 O   0  0  0  0  0  0  0  0  0  0  0  0
  160.8020  202.2180  149.1500 C   0  0  0  0  0  1  0  0  0  0  0  0
  161.3170  203.2440  148.1970 C   0  0  0  0  0  0  0  0  0  0  0  0
  1  3  1  0  0  0  0
  2  9  1  0  0  0  0
  2  4  1  0  0  0  0
  4 23  1  6  0  0  0
  4 19  1  0  0  0  0
  5  7  1  0  0  0  0
  6  8  1  0  0  0  0
  7 13  2  0  0  0  0
  8  3  1  1  0  0  0
  9 18  1  6  0  0  0
  9  4  1  0  0  0  0
  9 12  1  0  0  0  0
 10 13  1  0  0  0  0
 10  8  1  0  0  0  0
 11 20  1  0  0  0  0
 11 14  1  0  0  0  0
 12 17  1  0  0  0  0
 13  1  1  0  0  0  0
 14 15  1  6  0  0  0
 14  6  1  0  0  0  0
 16 15  2  0  0  0  0
 17 11  1  0  0  0  0
 19 17  2  0  0  0  0
 19 16  1  0  0  0  0
 20 10  2  0  0  0  0
 21  5  2  0  0  0  0
 21 20  1  0  0  0  0
 22  5  1  0  0  0  0
 24 26  2  0  0  0  0
 26 23  1  0  0  0  0
 26 25  1  0  0  0  0
M  END
>  <MODEL>
2

>  <REMARK>
 VINA RESULT:      -8.1      1.394      1.704
  Name = 
  2 active torsions:
  status: ('A' for Active; 'I' for Inactive)
    1  A    between atoms: C_5  and  O_17
    2  A    between atoms: C_11  and  O_17
                            x       y       z     vdW  Elec       q    Type
                         _______ _______ _______ _____ _____    ______ ____

>  <TORSDO>
F 2

$$$$
=
 OpenBabel11072414383D

 26 31  0  0  1  0  0  0  0  0999 V2000
  160.9150  205.9090  147.6680 S   0  0  0  0  0  0  0  0  0  0  0  0
  158.9530  207.8770  155.7010 C   0  0  0  0  0  2  0  0  0  0  0  0
  161.5320  207.5930  148.0950 C   0  0  0  0  0  2  0  0  0  0  0  0
  160.1300  208.8140  155.4460 C   0  0  1  0  0  0  0  0  0  0  0  0
  161.1920  204.0140  151.2980 C   0  0  0  0  0  0  0  0  0  0  0  0
  162.2930  208.6880  150.1690 N   0  0  0  0  0  2  0  0  0  0  0  0
  161.0270  204.1830  149.9110 C   0  0  0  0  0  3  0  0  0  0  0  0
  161.2290  207.8810  149.5670 C   0  0  2  0  0  3  0  0  0  0  0  0
  160.3670  207.3260  155.7590 C   0  0  2  0  0  0  0  0  0  0  0  0
  161.1940  206.5590  150.2120 C   0  0  0  0  0  0  0  0  0  0  0  0
  161.6610  207.6100  152.3250 N   0  0  0  0  0  0  0  0  0  0  0  0
  160.9380  206.7710  154.5780 O   0  0  0  0  0  0  0  0  0  0  0  0
  161.0190  205.4790  149.3880 C   0  0  0  0  0  0  0  0  0  0  0  0
  162.1260  208.8400  151.6320 C   0  0  2  0  0  3  0  0  0  0  0  0
  161.2990  210.0530  151.9990 C   0  0  0  0  0  3  0  0  0  0  0  0
  160.6860  210.1150  153.1900 C   0  0  0  0  0  3  0  0  0  0  0  0
  161.1500  207.7780  153.6550 C   0  0  0  0  0  0  0  0  0  0  0  0
  161.0020  207.0080  157.1030 C   0  0  0  0  0  1  0  0  0  0  0  0
  160.7360  208.9480  154.0890 C   0  0  0  0  0  0  0  0  0  0  0  0
  161.3970  206.4190  151.5720 C   0  0  0  0  0  0  0  0  0  0  0  0
  161.3850  205.1310  152.1320 C   0  0  0  0  0  3  0  0  0  0  0  0
  161.1870  202.4040  151.9860 Cl  0  0  0  0  0  0  0  0  0  0  0  0
  160.5730  209.6680  156.4970 O   0  0  0  0  0  0  0  0  0  0  0  0
  160.9150  211.8940  156.0700 O   0  0  0  0  0  0  0  0  0  0  0  0
  162.9020  210.6130  156.2760 C   0  0  0  0  0  1  0  0  0  0  0  0
  161.4180  210.7590  156.2780 C   0  0  0  0  0  0  0  0  0  0  0  0
  1  3  1  0  0  0  0
  1 13  1  0  0  0  0
  2  9  1  0  0  0  0
  4  2  1  0  0  0  0
  4  9  1  0  0  0  0
  4 23  1  1  0  0  0
  5 22  1  0  0  0  0
  5 21  1  0  0  0  0
  6 14  1  0  0  0  0
  7  5  2  0  0  0  0
  8  3  1  6  0  0  0
  8  6  1  0  0  0  0
  8 10  1  0  0  0  0
  9 18  1  1  0  0  0
 10 20  1  0  0  0  0
 11 17  1  0  0  0  0
 12  9  1  0  0  0  0
 13  7  1  0  0  0  0
 13 10  2  0  0  0  0
 14 15  1  6  0  0  0
 14 11  1  0  0  0  0
 15 16  2  0  0  0  0
 16 19  1  0  0  0  0
 17 19  2  0  0  0  0
 17 12  1  0  0  0  0
 19  4  1  0  0  0  0
 20 21  2  0  0  0  0
 20 11  1  0  0  0  0
 24 26  2  0  0  0  0
 25 26  1  0  0  0  0
 26 23  1  0  0  0  0
M  END
>  <MODEL>
3

>  <REMARK>
 VINA RESULT:      -8.1      3.983      7.659
  Name = 
  2 active torsions:
  status: ('A' for Active; 'I' for Inactive)
    1  A    between atoms: C_5  and  O_17
    2  A    between atoms: C_11  and  O_17
                            x       y       z     vdW  Elec       q    Type
                         _______ _______ _______ _____ _____    ______ ____

>  <TORSDO>
F 2

$$$$
=
 OpenBabel11072414383D

 26 31  0  0  1  0  0  0  0  0999 V2000
  158.4070  212.3560  155.7870 S   0  0  0  0  0  0  0  0  0  0  0  0
  160.0000  206.4600  149.8760 C   0  0  0  0  0  2  0  0  0  0  0  0
  159.2720  210.9070  156.5300 C   0  0  0  0  0  2  0  0  0  0  0  0
  161.0440  206.1090  150.9330 C   0  0  1  0  0  0  0  0  0  0  0  0
  159.9710  212.3620  151.9930 C   0  0  0  0  0  0  0  0  0  0  0  0
  160.8850  209.2370  155.7000 N   0  0  0  0  0  2  0  0  0  0  0  0
  159.2770  212.8120  153.1310 C   0  0  0  0  0  3  0  0  0  0  0  0
  159.6090  209.9040  155.4260 C   0  0  2  0  0  3  0  0  0  0  0  0
  161.2700  207.2860  149.9680 C   0  0  2  0  0  0  0  0  0  0  0  0
  159.7340  210.7130  154.2030 C   0  0  0  0  0  0  0  0  0  0  0  0
  161.0920  208.9820  153.2300 N   0  0  0  0  0  0  0  0  0  0  0  0
  161.2730  208.4550  150.7820 O   0  0  0  0  0  0  0  0  0  0  0  0
  159.1600  211.9560  154.2300 C   0  0  0  0  0  0  0  0  0  0  0  0
  161.3330  208.3910  154.5720 C   0  0  2  0  0  3  0  0  0  0  0  0
  160.8200  206.9700  154.6730 C   0  0  0  0  0  3  0  0  0  0  0  0
  160.7450  206.2020  153.5770 C   0  0  0  0  0  3  0  0  0  0  0  0
  161.1740  208.0880  152.1110 C   0  0  0  0  0  0  0  0  0  0  0  0
  162.3650  207.1100  148.9280 C   0  0  0  0  0  1  0  0  0  0  0  0
  161.0610  206.7860  152.2610 C   0  0  0  0  0  0  0  0  0  0  0  0
  160.4560  210.2610  153.1140 C   0  0  0  0  0  0  0  0  0  0  0  0
  160.5700  211.0880  151.9840 C   0  0  0  0  0  3  0  0  0  0  0  0
  160.1190  213.4030  150.5940 Cl  0  0  0  0  0  0  0  0  0  0  0  0
  161.9370  205.0260  150.6880 O   0  0  0  0  0  0  0  0  0  0  0  0
  161.5720  203.0020  151.7020 O   0  0  0  0  0  0  0  0  0  0  0  0
  161.0100  203.0670  149.3970 C   0  0  0  0  0  1  0  0  0  0  0  0
  161.5160  203.6940  150.6520 C   0  0  0  0  0  0  0  0  0  0  0  0
  1  3  1  0  0  0  0
  2  9  1  0  0  0  0
  2  4  1  0  0  0  0
  4 23  1  6  0  0  0
  4 19  1  0  0  0  0
  5  7  1  0  0  0  0
  7 13  2  0  0  0  0
  8  6  1  0  0  0  0
  8  3  1  1  0  0  0
  9 18  1  6  0  0  0
  9 12  1  0  0  0  0
  9  4  1  0  0  0  0
 10 13  1  0  0  0  0
 10  8  1  0  0  0  0
 11 14  1  0  0  0  0
 12 17  1  0  0  0  0
 13  1  1  0  0  0  0
 14 15  1  6  0  0  0
 14  6  1  0  0  0  0
 16 15  2  0  0  0  0
 17 19  2  0  0  0  0
 17 11  1  0  0  0  0
 19 16  1  0  0  0  0
 20 11  1  0  0  0  0
 20 10  2  0  0  0  0
 21  5  2  0  0  0  0
 21 20  1  0  0  0  0
 22  5  1  0  0  0  0
 25 26  1  0  0  0  0
 26 23  1  0  0  0  0
 26 24  2  0  0  0  0
M  END
>  <MODEL>
4

>  <REMARK>
 VINA RESULT:      -7.2      2.359      3.372
  Name = 
  2 active torsions:
  status: ('A' for Active; 'I' for Inactive)
    1  A    between atoms: C_5  and  O_17
    2  A    between atoms: C_11  and  O_17
                            x       y       z     vdW  Elec       q    Type
                         _______ _______ _______ _____ _____    ______ ____

>  <TORSDO>
F 2

$$$$
=
 OpenBabel11072414383D

 26 31  0  0  1  0  0  0  0  0999 V2000
  162.7050  209.9470  150.5800 S   0  0  0  0  0  0  0  0  0  0  0  0
  162.0390  201.5130  149.7560 C   0  0  0  0  0  2  0  0  0  0  0  0
  162.1730  209.5000  148.8720 C   0  0  0  0  0  2  0  0  0  0  0  0
  161.1300  201.9930  148.6280 C   0  0  1  0  0  0  0  0  0  0  0  0
  161.0060  206.9170  152.7650 C   0  0  0  0  0  0  0  0  0  0  0  0
  160.8820  207.6440  147.8870 N   0  0  0  0  0  2  0  0  0  0  0  0
  161.6480  208.1370  152.4850 C   0  0  0  0  0  3  0  0  0  0  0  0
  161.9900  207.9830  148.7840 C   0  0  2  0  0  3  0  0  0  0  0  0
  160.6360  201.9940  150.0850 C   0  0  2  0  0  0  0  0  0  0  0  0
  161.6560  207.5610  150.1540 C   0  0  0  0  0  0  0  0  0  0  0  0
  160.6220  205.5810  149.2620 N   0  0  0  0  0  0  0  0  0  0  0  0
  160.4410  203.3640  150.4240 O   0  0  0  0  0  0  0  0  0  0  0  0
  161.9780  208.4340  151.1590 C   0  0  0  0  0  0  0  0  0  0  0  0
  160.5590  206.2000  147.9110 C   0  0  2  0  0  3  0  0  0  0  0  0
  161.3440  205.4130  146.8830 C   0  0  0  0  0  3  0  0  0  0  0  0
  161.5190  204.0920  147.0370 C   0  0  0  0  0  3  0  0  0  0  0  0
  160.6680  204.1480  149.3080 C   0  0  0  0  0  0  0  0  0  0  0  0
  159.5530  200.9870  150.4350 C   0  0  0  0  0  1  0  0  0  0  0  0
  161.0380  203.4370  148.2660 C   0  0  0  0  0  0  0  0  0  0  0  0
  160.9900  206.3750  150.3970 C   0  0  0  0  0  0  0  0  0  0  0  0
  160.6680  206.0350  151.7210 C   0  0  0  0  0  3  0  0  0  0  0  0
  160.5980  206.5070  154.4170 Cl  0  0  0  0  0  0  0  0  0  0  0  0
  160.4560  201.0280  147.8250 O   0  0  0  0  0  0  0  0  0  0  0  0
  161.6570  199.6650  146.4280 O   0  0  0  0  0  0  0  0  0  0  0  0
  160.5050  201.4270  145.3350 C   0  0  0  0  0  1  0  0  0  0  0  0
  160.8990  200.6620  146.5520 C   0  0  0  0  0  0  0  0  0  0  0  0
  1 13  1  0  0  0  0
  2  9  1  0  0  0  0
  3  1  1  0  0  0  0
  4 23  1  6  0  0  0
  4  2  1  0  0  0  0
  4  9  1  0  0  0  0
  5 22  1  0  0  0  0
  6 14  1  0  0  0  0
  6  8  1  0  0  0  0
  7  5  1  0  0  0  0
  8  3  1  1  0  0  0
  8 10  1  0  0  0  0
  9 12  1  0  0  0  0
  9 18  1  1  0  0  0
 10 20  2  0  0  0  0
 10 13  1  0  0  0  0
 11 17  1  0  0  0  0
 11 20  1  0  0  0  0
 13  7  2  0  0  0  0
 14 15  1  6  0  0  0
 14 11  1  0  0  0  0
 15 16  2  0  0  0  0
 16 19  1  0  0  0  0
 17 12  1  0  0  0  0
 19  4  1  0  0  0  0
 19 17  2  0  0  0  0
 20 21  1  0  0  0  0
 21  5  2  0  0  0  0
 24 26  2  0  0  0  0
 25 26  1  0  0  0  0
 26 23  1  0  0  0  0
M  END
>  <MODEL>
5

>  <REMARK>
 VINA RESULT:      -6.8      2.506      4.114
  Name = 
  2 active torsions:
  status: ('A' for Active; 'I' for Inactive)
    1  A    between atoms: C_5  and  O_17
    2  A    between atoms: C_11  and  O_17
                            x       y       z     vdW  Elec       q    Type
                         _______ _______ _______ _____ _____    ______ ____

>  <TORSDO>
F 2

$$$$
=
 OpenBabel11072414383D

 26 31  0  0  1  0  0  0  0  0999 V2000
  159.8280  212.6570  152.9410 S   0  0  0  0  0  0  0  0  0  0  0  0
  160.3090  206.0790  147.5790 C   0  0  0  0  0  2  0  0  0  0  0  0
  160.3160  211.1220  153.8370 C   0  0  0  0  0  2  0  0  0  0  0  0
  161.2040  205.5990  148.7180 C   0  0  1  0  0  0  0  0  0  0  0  0
  161.5100  212.0010  149.2560 C   0  0  0  0  0  0  0  0  0  0  0  0
  161.5490  209.0750  153.2280 N   0  0  0  0  0  2  0  0  0  0  0  0
  160.8870  212.6860  150.3140 C   0  0  0  0  0  3  0  0  0  0  0  0
  160.4670  209.9790  152.8300 C   0  0  2  0  0  3  0  0  0  0  0  0
  161.7270  206.6120  147.6850 C   0  0  2  0  0  0  0  0  0  0  0  0
  160.8200  210.6360  151.5610 C   0  0  0  0  0  0  0  0  0  0  0  0
  161.7960  208.5740  150.7990 N   0  0  0  0  0  0  0  0  0  0  0  0
  161.9570  207.8160  148.4110 O   0  0  0  0  0  0  0  0  0  0  0  0
  160.5360  211.9720  151.4640 C   0  0  0  0  0  0  0  0  0  0  0  0
  161.8440  208.0590  152.1930 C   0  0  2  0  0  3  0  0  0  0  0  0
  161.0230  206.7990  152.3660 C   0  0  0  0  0  3  0  0  0  0  0  0
  160.8240  205.9760  151.3270 C   0  0  0  0  0  3  0  0  0  0  0  0
  161.7230  207.5930  149.7550 C   0  0  0  0  0  0  0  0  0  0  0  0
  162.7980  206.1140  146.7280 C   0  0  0  0  0  1  0  0  0  0  0  0
  161.3170  206.3650  149.9930 C   0  0  0  0  0  0  0  0  0  0  0  0
  161.4670  209.9470  150.5530 C   0  0  0  0  0  0  0  0  0  0  0  0
  161.8100  210.6300  149.3750 C   0  0  0  0  0  3  0  0  0  0  0  0
  161.9440  212.8630  147.7960 Cl  0  0  0  0  0  0  0  0  0  0  0  0
  161.8420  204.3300  148.6070 O   0  0  0  0  0  0  0  0  0  0  0  0
  161.0600  202.5900  147.3350 O   0  0  0  0  0  0  0  0  0  0  0  0
  160.4420  202.4930  149.6240 C   0  0  0  0  0  1  0  0  0  0  0  0
  161.1300  203.1360  148.4670 C   0  0  0  0  0  0  0  0  0  0  0  0
  1  3  1  0  0  0  0
  2  9  1  0  0  0  0
  2  4  1  0  0  0  0
  4 23  1  6  0  0  0
  4 19  1  0  0  0  0
  5 21  2  0  0  0  0
  5  7  1  0  0  0  0
  7 13  2  0  0  0  0
  8  6  1  0  0  0  0
  8  3  1  1  0  0  0
  9 18  1  6  0  0  0
  9 12  1  0  0  0  0
  9  4  1  0  0  0  0
 10  8  1  0  0  0  0
 11 14  1  0  0  0  0
 12 17  1  0  0  0  0
 13 10  1  0  0  0  0
 13  1  1  0  0  0  0
 14 15  1  6  0  0  0
 14  6  1  0  0  0  0
 16 15  2  0  0  0  0
 17 19  2  0  0  0  0
 17 11  1  0  0  0  0
 19 16  1  0  0  0  0
 20 11  1  0  0  0  0
 20 10  2  0  0  0  0
 21 20  1  0  0  0  0
 22  5  1  0  0  0  0
 24 26  2  0  0  0  0
 26 23  1  0  0  0  0
 26 25  1  0  0  0  0
M  END
>  <MODEL>
6

>  <REMARK>
 VINA RESULT:      -6.5      1.568      2.023
  Name = 
  2 active torsions:
  status: ('A' for Active; 'I' for Inactive)
    1  A    between atoms: C_5  and  O_17
    2  A    between atoms: C_11  and  O_17
                            x       y       z     vdW  Elec       q    Type
                         _______ _______ _______ _____ _____    ______ ____

>  <TORSDO>
F 2

$$$$
=
 OpenBabel11072414383D

 26 31  0  0  1  0  0  0  0  0999 V2000
  160.8870  204.3120  146.2410 S   0  0  0  0  0  0  0  0  0  0  0  0
  159.5570  208.6020  153.4570 C   0  0  0  0  0  2  0  0  0  0  0  0
  161.7470  205.9420  146.1960 C   0  0  0  0  0  2  0  0  0  0  0  0
  160.8400  209.2580  152.9550 C   0  0  1  0  0  0  0  0  0  0  0  0
  161.0530  203.4290  150.2440 C   0  0  0  0  0  0  0  0  0  0  0  0
  162.7390  207.4270  147.8970 N   0  0  0  0  0  2  0  0  0  0  0  0
  160.8550  203.2460  148.8640 C   0  0  0  0  0  3  0  0  0  0  0  0
  161.5490  206.6510  147.5380 C   0  0  2  0  0  3  0  0  0  0  0  0
  160.8820  207.8880  153.6550 C   0  0  2  0  0  0  0  0  0  0  0  0
  161.3590  205.5660  148.5150 C   0  0  0  0  0  0  0  0  0  0  0  0
  162.0560  207.0620  150.2660 N   0  0  0  0  0  0  0  0  0  0  0  0
  161.3210  206.9640  152.6640 O   0  0  0  0  0  0  0  0  0  0  0  0
  161.0030  204.3440  148.0120 C   0  0  0  0  0  0  0  0  0  0  0  0
  162.6570  207.9830  149.2660 C   0  0  2  0  0  3  0  0  0  0  0  0
  162.0210  209.3560  149.2970 C   0  0  0  0  0  3  0  0  0  0  0  0
  161.4740  209.8200  150.4300 C   0  0  0  0  0  3  0  0  0  0  0  0
  161.6300  207.6490  151.5040 C   0  0  0  0  0  0  0  0  0  0  0  0
  161.5240  207.8510  155.0330 C   0  0  0  0  0  1  0  0  0  0  0  0
  161.4000  208.9390  151.6100 C   0  0  0  0  0  0  0  0  0  0  0  0
  161.5990  205.7650  149.8610 C   0  0  0  0  0  0  0  0  0  0  0  0
  161.4340  204.6870  150.7470 C   0  0  0  0  0  3  0  0  0  0  0  0
  160.8560  202.0770  151.3390 Cl  0  0  0  0  0  0  0  0  0  0  0  0
  161.4400  210.2870  153.7360 O   0  0  0  0  0  0  0  0  0  0  0  0
  160.7870  211.7290  155.3940 O   0  0  0  0  0  0  0  0  0  0  0  0
  159.9120  212.2350  153.2470 C   0  0  0  0  0  1  0  0  0  0  0  0
  160.7340  211.4090  154.1780 C   0  0  0  0  0  0  0  0  0  0  0  0
  1 13  1  0  0  0  0
  2  9  1  0  0  0  0
  3  1  1  0  0  0  0
  4  2  1  0  0  0  0
  4  9  1  0  0  0  0
  4 23  1  1  0  0  0
  5 21  1  0  0  0  0
  5 22  1  0  0  0  0
  6 14  1  0  0  0  0
  7  5  2  0  0  0  0
  8  3  1  6  0  0  0
  8  6  1  0  0  0  0
  8 10  1  0  0  0  0
  9 18  1  1  0  0  0
 10 20  1  0  0  0  0
 11 17  1  0  0  0  0
 12  9  1  0  0  0  0
 13 10  2  0  0  0  0
 13  7  1  0  0  0  0
 14 15  1  6  0  0  0
 14 11  1  0  0  0  0
 15 16  2  0  0  0  0
 16 19  1  0  0  0  0
 17 19  2  0  0  0  0
 17 12  1  0  0  0  0
 19  4  1  0  0  0  0
 20 11  1  0  0  0  0
 20 21  2  0  0  0  0
 23 26  1  0  0  0  0
 25 26  1  0  0  0  0
 26 24  2  0  0  0  0
M  END
>  <MODEL>
7

>  <REMARK>
 VINA RESULT:      -6.0      3.764      7.464
  Name = 
  2 active torsions:
  status: ('A' for Active; 'I' for Inactive)
    1  A    between atoms: C_5  and  O_17
    2  A    between atoms: C_11  and  O_17
                            x       y       z     vdW  Elec       q    Type
                         _______ _______ _______ _____ _____    ______ ____

>  <TORSDO>
F 2

$$$$
=
 OpenBabel11072414383D

 26 31  0  0  1  0  0  0  0  0999 V2000
  161.7100  201.8270  148.6680 S   0  0  0  0  0  0  0  0  0  0  0  0
  162.8800  209.6250  151.8410 C   0  0  0  0  0  2  0  0  0  0  0  0
  161.2070  201.8900  150.4400 C   0  0  0  0  0  2  0  0  0  0  0  0
  161.8330  209.0680  152.8020 C   0  0  1  0  0  0  0  0  0  0  0  0
  160.8310  205.6450  147.4500 C   0  0  0  0  0  0  0  0  0  0  0  0
  160.3090  203.6410  151.9270 N   0  0  0  0  0  2  0  0  0  0  0  0
  161.1730  204.2840  147.3660 C   0  0  0  0  0  3  0  0  0  0  0  0
  161.3580  203.3230  150.9550 C   0  0  2  0  0  3  0  0  0  0  0  0
  161.4240  209.5830  151.4110 C   0  0  2  0  0  0  0  0  0  0  0  0
  161.1940  204.1730  149.7640 C   0  0  0  0  0  0  0  0  0  0  0  0
  160.5790  206.0070  151.1930 N   0  0  0  0  0  0  0  0  0  0  0  0
  160.9480  208.4420  150.7040 O   0  0  0  0  0  0  0  0  0  0  0  0
  161.3640  203.5640  148.5490 C   0  0  0  0  0  0  0  0  0  0  0  0
  160.3150  205.0690  152.3150 C   0  0  2  0  0  3  0  0  0  0  0  0
  161.2020  205.3420  153.5110 C   0  0  0  0  0  3  0  0  0  0  0  0
  161.6710  206.5780  153.7330 C   0  0  0  0  0  3  0  0  0  0  0  0
  160.9410  207.3480  151.5500 C   0  0  0  0  0  0  0  0  0  0  0  0
  160.6070  210.8650  151.3760 C   0  0  0  0  0  1  0  0  0  0  0  0
  161.4080  207.6400  152.7450 C   0  0  0  0  0  0  0  0  0  0  0  0
  160.8180  205.4980  149.8750 C   0  0  0  0  0  0  0  0  0  0  0  0
  160.6440  206.2550  148.7050 C   0  0  0  0  0  3  0  0  0  0  0  0
  160.6050  206.5780  145.9860 Cl  0  0  0  0  0  0  0  0  0  0  0  0
  161.3500  209.8990  153.8540 O   0  0  0  0  0  0  0  0  0  0  0  0
  162.9540  210.7030  155.2800 O   0  0  0  0  0  0  0  0  0  0  0  0
  161.4560  209.1450  156.2600 C   0  0  0  0  0  1  0  0  0  0  0  0
  161.9560  209.9550  155.1120 C   0  0  0  0  0  0  0  0  0  0  0  0
  1  3  1  0  0  0  0
  2  4  1  0  0  0  0
  4 23  1  1  0  0  0
  5 21  1  0  0  0  0
  6 14  1  0  0  0  0
  7  5  2  0  0  0  0
  7 13  1  0  0  0  0
  8  3  1  6  0  0  0
  8  6  1  0  0  0  0
  9 18  1  6  0  0  0
  9  2  1  0  0  0  0
  9  4  1  0  0  0  0
 10 20  1  0  0  0  0
 10  8  1  0  0  0  0
 11 17  1  0  0  0  0
 11 14  1  0  0  0  0
 12  9  1  0  0  0  0
 12 17  1  0  0  0  0
 13  1  1  0  0  0  0
 13 10  2  0  0  0  0
 14 15  1  1  0  0  0
 15 16  2  0  0  0  0
 17 19  2  0  0  0  0
 19  4  1  0  0  0  0
 19 16  1  0  0  0  0
 20 11  1  0  0  0  0
 21 20  2  0  0  0  0
 22  5  1  0  0  0  0
 23 26  1  0  0  0  0
 26 24  2  0  0  0  0
 26 25  1  0  0  0  0
M  END
>  <MODEL>
8

>  <REMARK>
 VINA RESULT:      -5.9      3.398      6.669
  Name = 
  2 active torsions:
  status: ('A' for Active; 'I' for Inactive)
    1  A    between atoms: C_5  and  O_17
    2  A    between atoms: C_11  and  O_17
                            x       y       z     vdW  Elec       q    Type
                         _______ _______ _______ _____ _____    ______ ____

>  <TORSDO>
F 2

$$$$
