=
 OpenBabel11072412203D

 68 74  0  0  1  0  0  0  0  0999 V2000
  162.0490  211.1220  155.1930 C   0  0  0  0  0  1  0  0  0  0  0  0
  160.1390  212.4210  154.2970 C   0  0  2  0  0  3  0  0  0  0  0  0
  160.1360  206.6140  153.3710 C   0  0  0  0  0  2  0  0  0  0  0  0
  160.5990  208.0000  152.9420 C   0  0  2  0  0  3  0  0  0  0  0  0
  161.0310  211.1940  154.0650 C   0  0  2  0  0  0  0  0  0  0  0  0
  160.6450  205.6520  152.3220 C   0  0  1  0  0  3  0  0  0  0  0  0
  162.8590  211.8230  148.4050 C   0  0  1  0  0  3  0  0  0  0  0  0
  160.1820  209.9010  154.0000 C   0  0  1  0  0  3  0  0  0  0  0  0
  161.8200  212.9890  147.3750 P   0  0  2  0  0  0  0  0  0  0  0  0
  160.1110  213.0500  152.1630 O   0  0  0  0  0  0  0  0  0  0  0  0
  161.7850  211.4560  152.7640 C   0  0  0  0  0  3  0  0  0  0  0  0
  161.7900  207.8100  152.0150 C   0  0  0  0  0  2  0  0  0  0  0  0
  160.9720  208.7470  154.0630 O   0  0  0  0  0  0  0  0  0  0  0  0
  160.3130  211.9150  147.1030 C   0  0  2  0  0  3  0  0  0  0  0  0
  158.6860  212.3980  154.4840 C   0  0  1  0  0  0  0  0  0  0  0  0
  159.9820  209.5270  147.5700 C   0  0  0  0  0  3  0  0  0  0  0  0
  162.1000  212.7160  150.6570 C   0  0  0  0  0  2  0  0  0  0  0  0
  162.1810  206.6680  149.2570 C   0  0  0  0  0  2  0  0  0  0  0  0
  159.5850  205.5110  151.2410 C   0  0  0  0  0  1  0  0  0  0  0  0
  161.3260  212.3800  151.8840 C   0  0  0  0  0  0  0  0  0  0  0  0
  162.5980  212.6600  145.8580 O   0  0  0  0  0  1  0  0  0  0  0  0
  160.2730  208.2620  147.4840 C   0  0  0  0  0  0  0  0  0  0  0  0
  159.2000  212.3880  153.0360 C   0  0  2  0  0  3  0  0  0  0  0  0
  164.2630  212.3710  148.5880 C   0  0  0  0  0  1  0  0  0  0  0  0
  160.8800  206.2050  148.6140 C   0  0  0  0  0  2  0  0  0  0  0  0
  161.9310  206.3100  151.8300 C   0  0  2  0  0  3  0  0  0  0  0  0
  162.1940  211.5020  149.7400 C   0  0  0  0  0  2  0  0  0  0  0  0
  158.0720  211.0430  154.8940 C   0  0  0  0  0  2  0  0  0  0  0  0
  162.5710  205.8570  150.5020 C   0  0  1  0  0  3  0  0  0  0  0  0
  160.7120  210.5000  146.7150 C   0  0  0  0  0  2  0  0  0  0  0  0
  160.5900  206.9960  147.3850 C   0  0  0  0  0  0  0  0  0  0  0  0
  159.6030  209.8940  156.3540 O   0  0  0  0  0  1  0  0  0  0  0  0
  159.0680  209.8800  155.0640 C   0  0  2  0  0  3  0  0  0  0  0  0
  161.7830  203.7410  151.2600 C   0  0  0  0  0  0  0  0  0  0  0  0
  162.5600  204.3430  150.2920 C   0  0  1  0  0  3  0  0  0  0  0  0
  161.5800  203.3140  152.4960 C   0  0  0  0  0  2  0  0  0  0  0  0
  161.3290  203.9430  149.8460 O   0  0  0  0  0  0  0  0  0  0  0  0
  159.5180  212.4720  146.0970 O   0  0  0  0  0  0  0  0  0  0  0  0
  159.8760  211.7900  144.9310 C   0  0  0  0  0  2  0  0  0  0  0  0
  158.8600  213.5500  143.4890 O   0  0  0  0  0  1  0  0  0  0  0  0
  159.9530  212.7500  143.7970 C   0  0  0  0  0  0  0  0  0  0  0  0
  160.9910  212.8070  143.0870 O   0  0  0  0  0  0  0  0  0  0  0  0
  160.5340  206.2900  146.0670 C   0  0  0  0  0  2  0  0  0  0  0  0
  160.4780  204.8910  146.2420 O   0  0  0  0  0  0  0  0  0  0  0  0
  159.8530  204.2420  144.1640 O   0  0  0  0  0  1  0  0  0  0  0  0
  160.9150  204.2220  145.0720 C   0  0  1  0  0  0  0  0  0  0  0  0
  162.3250  205.1210  144.3070 P   0  0  0  0  0  0  0  0  0  0  0  0
  163.0830  206.0970  145.4620 O   0  0  0  0  0  1  0  0  0  0  0  0
  161.7470  206.0930  143.0490 O   0  0  0  0  0  0  0  0  0  0  0  0
  163.3310  204.1400  143.7480 O   0  0  0  0  0  1  0  0  0  0  0  0
  161.2770  202.7500  145.3780 C   0  0  0  0  0  2  0  0  0  0  0  0
  162.1970  203.1220  147.5210 O   0  0  0  0  0  0  0  0  0  0  0  0
  161.4550  202.4370  146.8360 C   0  0  0  0  0  0  0  0  0  0  0  0
  160.3440  200.2600  146.5520 N   0  0  0  0  0  2  0  0  0  0  0  0
  159.2670  201.1540  147.0210 C   0  0  0  0  0  2  0  0  0  0  0  0
  160.9930  200.8570  148.8640 C   0  0  0  0  0  1  0  0  0  0  0  0
  160.6350  201.3620  147.4790 C   0  0  2  0  0  0  0  0  0  0  0  0
  158.0030  213.6980  154.9590 C   0  0  1  0  0  3  0  0  0  0  0  0
  157.2720  214.4530  153.8470 C   0  0  0  0  0  2  0  0  0  0  0  0
  156.7040  213.4850  152.8200 C   0  0  1  0  0  3  0  0  0  0  0  0
  155.3430  213.2940  153.0570 O   0  0  0  0  0  1  0  0  0  0  0  0
  156.5180  213.3510  150.4230 N   0  0  0  0  0  2  0  0  0  0  0  0
  156.8920  214.0310  151.4450 C   0  0  0  0  0  3  0  0  0  0  0  0
  157.0370  213.4220  156.1040 C   0  0  0  0  0  2  0  0  0  0  0  0
  156.6610  211.9550  156.1240 C   0  0  0  0  0  2  0  0  0  0  0  0
  155.4260  211.7930  156.7520 O   0  0  0  0  0  0  0  0  0  0  0  0
  154.6510  211.0920  155.8290 C   0  0  0  0  0  2  0  0  0  0  0  0
  154.0120  209.8940  156.5040 C   0  0  0  0  0  1  0  0  0  0  0  0
  2 15  1  0  0  0  0
  4  3  1  0  0  0  0
  4 13  1  0  0  0  0
  5  2  1  0  0  0  0
  5  1  1  0  0  0  0
  6  3  1  0  0  0  0
  7 24  1  0  0  0  0
  7 27  1  0  0  0  0
  8 13  1  0  0  0  0
  8  5  1  0  0  0  0
  8 33  1  0  0  0  0
  9  7  1  0  0  0  0
 10 23  1  0  0  0  0
 11  5  1  0  0  0  0
 12  4  1  0  0  0  0
 14  9  1  0  0  0  0
 15 28  1  0  0  0  0
 15 58  1  0  0  0  0
 17 20  1  0  0  0  0
 18 29  1  0  0  0  0
 19  6  1  0  0  0  0
 20 10  1  0  0  0  0
 20 11  2  0  0  0  0
 21  9  1  0  0  0  0
 22 16  2  0  0  0  0
 23  2  1  0  0  0  0
 23 15  1  0  0  0  0
 25 18  1  0  0  0  0
 26 12  1  0  0  0  0
 26  6  1  0  0  0  0
 27 17  1  0  0  0  0
 28 33  1  0  0  0  0
 29 26  1  0  0  0  0
 30 14  1  0  0  0  0
 30 16  1  0  0  0  0
 31 22  2  0  0  0  0
 31 25  1  0  0  0  0
 33 32  1  0  0  0  0
 34 36  2  0  0  0  0
 35 29  1  0  0  0  0
 35 34  1  0  0  0  0
 37 35  1  0  0  0  0
 37 34  1  0  0  0  0
 38 14  1  0  0  0  0
 39 38  1  0  0  0  0
 40 41  1  0  0  0  0
 41 39  1  0  0  0  0
 42 41  2  0  0  0  0
 43 44  1  0  0  0  0
 43 31  1  0  0  0  0
 45 46  1  0  0  0  0
 46 51  1  0  0  0  0
 46 44  1  0  0  0  0
 47 46  1  0  0  0  0
 47 48  1  0  0  0  0
 49 47  2  0  0  0  0
 50 47  1  0  0  0  0
 51 53  1  0  0  0  0
 53 57  1  0  0  0  0
 53 52  2  0  0  0  0
 54 55  1  0  0  0  0
 54 57  1  0  0  0  0
 55 57  1  0  0  0  0
 57 56  1  0  0  0  0
 58 64  1  0  0  0  0
 59 58  1  0  0  0  0
 60 61  1  0  0  0  0
 60 59  1  0  0  0  0
 62 63  2  0  0  0  0
 63 60  1  0  0  0  0
 64 65  1  0  0  0  0
 65 66  1  0  0  0  0
 67 68  1  0  0  0  0
 67 66  1  0  0  0  0
M  END
>  <MODEL>
1

>  <REMARK>
 VINA RESULT:      12.9      0.000      0.000
  Name = 
  19 active torsions:
  status: ('A' for Active; 'I' for Inactive)
    1  A    between atoms: O_2  and  C_3
    2  A    between atoms: O_2  and  C_42
    3  A    between atoms: C_9  and  C_59
    4  A    between atoms: C_10  and  C_29
    5  A    between atoms: C_10  and  C_42
    6  A    between atoms: C_13  and  C_56
    7  A    between atoms: C_13  and  C_58
    8  A    between atoms: C_18  and  C_46
    9  A    between atoms: C_18  and  O_50
   10  A    between atoms: P_25  and  C_68
   11  A    between atoms: C_28  and  O_50
   12  A    between atoms: C_29  and  C_30
   13  A    between atoms: C_29  and  C_56
   14  A    between atoms: C_38  and  C_48
   15  A    between atoms: C_38  and  C_55
   16  A    between atoms: C_44  and  O_60
   17  A    between atoms: C_44  and  C_62
   18  A    between atoms: C_48  and  C_68
   19  A    between atoms: O_60  and  C_68
                            x       y       z     vdW  Elec       q    Type
                         _______ _______ _______ _____ _____    ______ ____

>  <TORSDO>
F 19

$$$$
=
 OpenBabel11072412203D

 68 75  0  0  1  0  0  0  0  0999 V2000
  161.9090  209.5950  156.4870 C   0  0  0  0  0  1  0  0  0  0  0  0
  160.2550  211.1440  155.4850 C   0  0  2  0  0  3  0  0  0  0  0  0
  159.8170  205.4480  154.0920 C   0  0  0  0  0  2  0  0  0  0  0  0
  160.4590  206.8050  153.8350 C   0  0  2  0  0  3  0  0  0  0  0  0
  161.0490  209.8500  155.2580 C   0  0  2  0  0  0  0  0  0  0  0  0
  160.3580  204.5140  153.0330 C   0  0  1  0  0  3  0  0  0  0  0  0
  163.6130  210.6820  149.9190 C   0  0  1  0  0  3  0  0  0  0  0  0
  160.0960  208.6600  154.9890 C   0  0  1  0  0  3  0  0  0  0  0  0
  162.8240  212.0180  148.8750 P   0  0  2  0  0  0  0  0  0  0  0  0
  160.5500  211.9210  153.4210 O   0  0  0  0  0  0  0  0  0  0  0  0
  161.9790  210.1230  154.0790 C   0  0  0  0  0  3  0  0  0  0  0  0
  161.7320  206.5580  153.0390 C   0  0  0  0  0  2  0  0  0  0  0  0
  160.7590  207.4290  155.0490 O   0  0  0  0  0  0  0  0  0  0  0  0
  161.2670  211.1280  148.3430 C   0  0  2  0  0  3  0  0  0  0  0  0
  158.7940  211.2590  155.5000 C   0  0  1  0  0  0  0  0  0  0  0  0
  160.6570  208.7600  148.5710 C   0  0  0  0  0  3  0  0  0  0  0  0
  162.6690  211.4880  152.1330 C   0  0  0  0  0  2  0  0  0  0  0  0
  162.3500  205.5780  150.2610 C   0  0  0  0  0  2  0  0  0  0  0  0
  159.4320  204.5600  151.8300 C   0  0  0  0  0  1  0  0  0  0  0  0
  161.7210  211.1490  153.2310 C   0  0  0  0  0  0  0  0  0  0  0  0
  163.7480  211.7180  147.4360 O   0  0  0  0  0  1  0  0  0  0  0  0
  160.8350  207.4810  148.4150 C   0  0  0  0  0  0  0  0  0  0  0  0
  159.4800  211.2970  154.1250 C   0  0  2  0  0  3  0  0  0  0  0  0
  165.0290  211.0660  150.3080 C   0  0  0  0  0  1  0  0  0  0  0  0
  161.1010  205.2980  149.4360 C   0  0  0  0  0  2  0  0  0  0  0  0
  161.7510  205.0680  152.7500 C   0  0  2  0  0  3  0  0  0  0  0  0
  162.7610  210.3380  151.1370 C   0  0  0  0  0  2  0  0  0  0  0  0
  158.0090  209.9490  155.7230 C   0  0  0  0  0  2  0  0  0  0  0  0
  162.5050  204.6460  151.4720 C   0  0  1  0  0  3  0  0  0  0  0  0
  161.5750  209.7100  147.8890 C   0  0  0  0  0  2  0  0  0  0  0  0
  161.0410  206.2000  148.2500 C   0  0  0  0  0  0  0  0  0  0  0  0
  159.2330  208.5480  157.2510 O   0  0  0  0  0  1  0  0  0  0  0  0
  158.8620  208.6800  155.9120 C   0  0  2  0  0  3  0  0  0  0  0  0
  163.1290  202.4140  152.0240 C   0  0  0  0  0  0  0  0  0  0  0  0
  162.3780  203.1590  151.1380 C   0  0  1  0  0  3  0  0  0  0  0  0
  164.2840  201.9520  152.4760 C   0  0  0  0  0  2  0  0  0  0  0  0
  161.6360  202.5270  152.1010 O   0  0  0  0  0  0  0  0  0  0  0  0
  160.6590  211.8330  147.3010 O   0  0  0  0  0  0  0  0  0  0  0  0
  159.3440  212.0450  147.7230 C   0  0  0  0  0  2  0  0  0  0  0  0
  158.6980  214.4500  147.6270 O   0  0  0  0  0  0  0  0  0  0  0  0
  159.2320  213.3900  148.3490 C   0  0  0  0  0  0  0  0  0  0  0  0
  159.6620  213.5800  149.5160 O   0  0  0  0  0  1  0  0  0  0  0  0
  161.0810  205.5970  146.8820 C   0  0  0  0  0  2  0  0  0  0  0  0
  160.3390  204.3980  146.8320 O   0  0  0  0  0  0  0  0  0  0  0  0
  162.4670  203.6350  146.9640 O   0  0  0  0  0  1  0  0  0  0  0  0
  161.1820  203.2990  146.5310 C   0  0  1  0  0  0  0  0  0  0  0  0
  160.6490  201.8060  147.4610 P   0  0  0  0  0  0  0  0  0  0  0  0
  161.7990  200.5770  147.2890 O   0  0  0  0  0  1  0  0  0  0  0  0
  159.1660  201.2700  146.8460 O   0  0  0  0  0  0  0  0  0  0  0  0
  160.4830  202.1320  148.9280 O   0  0  0  0  0  1  0  0  0  0  0  0
  161.2260  203.0360  145.0080 C   0  0  0  0  0  2  0  0  0  0  0  0
  159.3140  203.9380  143.9550 O   0  0  0  0  0  0  0  0  0  0  0  0
  160.5090  204.0580  144.1730 C   0  0  0  0  0  0  0  0  0  0  0  0
  162.4690  205.5180  144.4560 N   0  0  0  0  0  2  0  0  0  0  0  0
  161.3190  206.4300  144.6010 C   0  0  0  0  0  2  0  0  0  0  0  0
  161.4080  205.5420  142.2210 C   0  0  0  0  0  1  0  0  0  0  0  0
  161.2290  205.2850  143.7050 C   0  0  2  0  0  0  0  0  0  0  0  0
  158.1840  212.5860  155.9970 C   0  0  1  0  0  3  0  0  0  0  0  0
  157.9090  213.5960  154.8820 C   0  0  0  0  0  2  0  0  0  0  0  0
  157.1990  212.9300  153.7130 C   0  0  1  0  0  3  0  0  0  0  0  0
  156.3210  211.9570  154.1900 O   0  0  0  0  0  0  0  0  0  0  0  0
  155.1870  213.7640  152.6860 N   0  0  0  0  0  2  0  0  0  0  0  0
  156.4330  213.9450  152.9340 C   0  0  0  0  0  3  0  0  0  0  0  0
  156.9020  212.3390  156.7830 C   0  0  0  0  0  2  0  0  0  0  0  0
  155.8540  211.7160  155.8840 C   0  0  1  0  0  3  0  0  0  0  0  0
  154.7310  211.3740  156.6360 O   0  0  0  0  0  0  0  0  0  0  0  0
  154.4540  210.0560  156.2760 C   0  0  0  0  0  2  0  0  0  0  0  0
  153.4670  209.4550  157.2580 C   0  0  0  0  0  1  0  0  0  0  0  0
  2 15  1  0  0  0  0
  4  3  1  0  0  0  0
  4 13  1  0  0  0  0
  5  2  1  0  0  0  0
  5  1  1  0  0  0  0
  6  3  1  0  0  0  0
  7 24  1  0  0  0  0
  7 27  1  0  0  0  0
  8 13  1  0  0  0  0
  8  5  1  0  0  0  0
  8 33  1  0  0  0  0
  9  7  1  0  0  0  0
 10 23  1  0  0  0  0
 11  5  1  0  0  0  0
 12  4  1  0  0  0  0
 14  9  1  0  0  0  0
 15 28  1  0  0  0  0
 15 58  1  0  0  0  0
 17 20  1  0  0  0  0
 18 29  1  0  0  0  0
 19  6  1  0  0  0  0
 20 10  1  0  0  0  0
 20 11  2  0  0  0  0
 21  9  1  0  0  0  0
 22 16  2  0  0  0  0
 23  2  1  0  0  0  0
 23 15  1  0  0  0  0
 25 18  1  0  0  0  0
 26  6  1  0  0  0  0
 26 12  1  0  0  0  0
 27 17  1  0  0  0  0
 28 33  1  0  0  0  0
 29 26  1  0  0  0  0
 30 14  1  0  0  0  0
 30 16  1  0  0  0  0
 31 22  2  0  0  0  0
 31 25  1  0  0  0  0
 33 32  1  0  0  0  0
 34 37  1  0  0  0  0
 34 36  2  0  0  0  0
 35 29  1  0  0  0  0
 35 34  1  0  0  0  0
 35 37  1  0  0  0  0
 38 39  1  0  0  0  0
 38 14  1  0  0  0  0
 39 41  1  0  0  0  0
 40 41  2  0  0  0  0
 41 42  1  0  0  0  0
 43 31  1  0  0  0  0
 44 43  1  0  0  0  0
 46 44  1  0  0  0  0
 46 45  1  0  0  0  0
 46 47  1  0  0  0  0
 47 50  1  0  0  0  0
 48 47  1  0  0  0  0
 49 47  2  0  0  0  0
 51 46  1  0  0  0  0
 52 53  2  0  0  0  0
 53 51  1  0  0  0  0
 54 55  1  0  0  0  0
 56 57  1  0  0  0  0
 57 53  1  0  0  0  0
 57 54  1  0  0  0  0
 57 55  1  0  0  0  0
 58 64  1  0  0  0  0
 59 58  1  0  0  0  0
 60 61  1  0  0  0  0
 60 59  1  0  0  0  0
 61 65  1  0  0  0  0
 62 63  2  0  0  0  0
 63 60  1  0  0  0  0
 65 66  1  0  0  0  0
 65 64  1  0  0  0  0
 67 66  1  0  0  0  0
 67 68  1  0  0  0  0
M  END
>  <MODEL>
2

>  <REMARK>
 VINA RESULT:      15.7      2.055      2.973
  Name = 
  19 active torsions:
  status: ('A' for Active; 'I' for Inactive)
    1  A    between atoms: O_2  and  C_3
    2  A    between atoms: O_2  and  C_42
    3  A    between atoms: C_9  and  C_59
    4  A    between atoms: C_10  and  C_29
    5  A    between atoms: C_10  and  C_42
    6  A    between atoms: C_13  and  C_56
    7  A    between atoms: C_13  and  C_58
    8  A    between atoms: C_18  and  C_46
    9  A    between atoms: C_18  and  O_50
   10  A    between atoms: P_25  and  C_68
   11  A    between atoms: C_28  and  O_50
   12  A    between atoms: C_29  and  C_30
   13  A    between atoms: C_29  and  C_56
   14  A    between atoms: C_38  and  C_48
   15  A    between atoms: C_38  and  C_55
   16  A    between atoms: C_44  and  O_60
   17  A    between atoms: C_44  and  C_62
   18  A    between atoms: C_48  and  C_68
   19  A    between atoms: O_60  and  C_68
                            x       y       z     vdW  Elec       q    Type
                         _______ _______ _______ _____ _____    ______ ____

>  <TORSDO>
F 19

$$$$
