=
 OpenBabel11072410453D

 38 39  0  0  1  0  0  0  0  0999 V2000
  160.6690  209.0760  156.2750 C   0  0  0  0  0  2  0  0  0  0  0  0
  160.4260  210.9390  152.6110 C   0  0  1  0  0  3  0  0  0  0  0  0
  162.4520  210.6250  156.2210 O   0  0  0  0  0  0  0  0  0  0  0  0
  161.4710  207.1120  154.9340 C   0  0  0  0  0  3  0  0  0  0  0  0
  161.3400  210.3310  155.8100 C   0  0  0  0  0  0  0  0  0  0  0  0
  161.3010  211.3280  153.6560 O   0  0  0  0  0  0  0  0  0  0  0  0
  160.6200  211.2570  154.8850 C   0  0  0  0  0  2  0  0  0  0  0  0
  161.0150  208.5320  152.9510 C   0  0  1  0  0  3  0  0  0  0  0  0
  159.8780  209.5190  152.7680 C   0  0  0  0  0  2  0  0  0  0  0  0
  161.5320  207.8690  156.0380 C   0  0  0  0  0  3  0  0  0  0  0  0
  160.5310  207.3640  153.7940 C   0  0  0  0  0  2  0  0  0  0  0  0
  159.2990  211.9490  152.3760 C   0  0  0  0  0  2  0  0  0  0  0  0
  159.1380  214.1010  148.8050 C   0  0  0  0  0  2  0  0  0  0  0  0
  158.1600  213.6080  149.6940 O   0  0  0  0  0  0  0  0  0  0  0  0
  157.3660  214.0820  151.9220 C   0  0  0  0  0  1  0  0  0  0  0  0
  160.5610  213.5980  149.1270 C   0  0  0  0  0  2  0  0  0  0  0  0
  160.5780  212.6230  150.3050 C   0  0  0  0  0  2  0  0  0  0  0  0
  159.7220  213.1220  151.4790 C   0  0  1  0  0  3  0  0  0  0  0  0
  158.5580  214.0080  150.9790 C   0  0  1  0  0  3  0  0  0  0  0  0
  161.5170  208.0550  151.5970 C   0  0  0  0  0  2  0  0  0  0  0  0
  163.1290  206.3220  151.9010 O   0  0  0  0  0  1  0  0  0  0  0  0
  161.7810  206.5570  151.6250 C   0  0  2  0  0  3  0  0  0  0  0  0
  160.5310  204.6380  150.4850 C   0  0  0  0  0  1  0  0  0  0  0  0
  161.3610  205.9020  150.3070 C   0  0  1  0  0  3  0  0  0  0  0  0
  160.7370  206.8870  149.3190 C   0  0  0  0  0  2  0  0  0  0  0  0
  161.5460  207.0690  148.0310 C   0  0  1  0  0  3  0  0  0  0  0  0
  162.5540  208.2070  148.1710 C   0  0  0  0  0  2  0  0  0  0  0  0
  161.9360  209.3680  148.6400 O   0  0  0  0  0  1  0  0  0  0  0  0
  162.2700  205.7760  147.6840 C   0  0  0  0  0  2  0  0  0  0  0  0
  162.2750  205.5570  146.1810 C   0  0  0  0  0  2  0  0  0  0  0  0
  161.5380  204.2730  145.8300 C   0  0  0  0  0  2  0  0  0  0  0  0
  160.9290  202.1490  147.0170 C   0  0  0  0  0  0  0  0  0  0  0  0
  161.3230  203.4280  147.0510 C   0  0  0  0  0  3  0  0  0  0  0  0
  161.6210  200.4800  148.7170 O   0  0  0  0  0  0  0  0  0  0  0  0
  160.6960  201.4190  148.2750 C   0  0  0  0  0  0  0  0  0  0  0  0
  159.6570  201.6270  148.9580 O   0  0  0  0  0  1  0  0  0  0  0  0
  160.6820  201.4520  145.7170 C   0  0  0  0  0  2  0  0  0  0  0  0
  159.3440  201.5460  145.3840 F   0  0  0  0  0  0  0  0  0  0  0  0
  2 12  1  1  0  0  0
  2  9  1  0  0  0  0
  2  6  1  0  0  0  0
  4 10  2  0  0  0  0
  5  3  2  0  0  0  0
  5  1  1  0  0  0  0
  6  7  1  0  0  0  0
  7  5  1  0  0  0  0
  8 20  1  6  0  0  0
  8 11  1  0  0  0  0
  9  8  1  0  0  0  0
 10  1  1  0  0  0  0
 11  4  1  0  0  0  0
 13 16  1  0  0  0  0
 13 14  1  0  0  0  0
 14 19  1  0  0  0  0
 16 17  1  0  0  0  0
 17 18  1  0  0  0  0
 18 12  1  6  0  0  0
 19 18  1  0  0  0  0
 19 15  1  1  0  0  0
 20 22  1  0  0  0  0
 22 21  1  6  0  0  0
 24 23  1  1  0  0  0
 24 22  1  0  0  0  0
 25 24  1  0  0  0  0
 26 29  1  1  0  0  0
 26 27  1  0  0  0  0
 26 25  1  0  0  0  0
 27 28  1  0  0  0  0
 30 29  1  0  0  0  0
 31 30  1  0  0  0  0
 31 33  1  0  0  0  0
 32 33  2  0  0  0  0
 32 35  1  0  0  0  0
 35 34  2  0  0  0  0
 35 36  1  0  0  0  0
 37 32  1  0  0  0  0
 38 37  1  0  0  0  0
M  END
>  <MODEL>
1

>  <REMARK>
 VINA RESULT:      -7.4      0.000      0.000
  Name = 
  14 active torsions:
  status: ('A' for Active; 'I' for Inactive)
    1  A    between atoms: C_2  and  C_9
    2  A    between atoms: C_4  and  C_6
    3  A    between atoms: C_4  and  C_33
    4  A    between atoms: C_6  and  C_22
    5  A    between atoms: C_6  and  C_29
    6  A    between atoms: C_9  and  C_35
    7  A    between atoms: C_12  and  C_14
    8  A    between atoms: C_12  and  C_17
    9  A    between atoms: C_13  and  C_23
   10  A    between atoms: C_20  and  C_23
   11  A    between atoms: C_20  and  C_29
   12  A    between atoms: C_21  and  C_28
   13  A    between atoms: C_28  and  C_34
   14  A    between atoms: C_33  and  C_34
                            x       y       z     vdW  Elec       q    Type
                         _______ _______ _______ _____ _____    ______ ____

>  <TORSDO>
F 14

$$$$
=
 OpenBabel11072410453D

 38 39  0  0  1  0  0  0  0  0999 V2000
  160.3610  207.6020  155.6600 C   0  0  0  0  0  2  0  0  0  0  0  0
  160.9810  211.1380  153.6430 C   0  0  1  0  0  3  0  0  0  0  0  0
  162.2450  208.6020  156.6770 O   0  0  0  0  0  0  0  0  0  0  0  0
  161.2370  206.5490  153.5570 C   0  0  0  0  0  3  0  0  0  0  0  0
  161.2120  208.7720  156.0480 C   0  0  0  0  0  0  0  0  0  0  0  0
  161.6700  210.7510  154.8200 O   0  0  0  0  0  0  0  0  0  0  0  0
  160.7620  210.1580  155.7160 C   0  0  0  0  0  2  0  0  0  0  0  0
  161.2890  208.8600  152.6570 C   0  0  1  0  0  3  0  0  0  0  0  0
  160.2960  209.9750  152.9230 C   0  0  0  0  0  2  0  0  0  0  0  0
  161.1490  206.5780  154.8940 C   0  0  0  0  0  3  0  0  0  0  0  0
  160.5570  207.5290  152.6490 C   0  0  0  0  0  2  0  0  0  0  0  0
  160.0080  212.2980  153.8800 C   0  0  0  0  0  2  0  0  0  0  0  0
  155.9360  213.1930  153.7180 C   0  0  0  0  0  2  0  0  0  0  0  0
  157.1020  213.8600  153.2850 O   0  0  0  0  0  0  0  0  0  0  0  0
  158.7840  213.5950  151.5770 C   0  0  0  0  0  1  0  0  0  0  0  0
  156.2330  211.9500  154.5840 C   0  0  0  0  0  2  0  0  0  0  0  0
  157.7310  211.7590  154.8290 C   0  0  0  0  0  2  0  0  0  0  0  0
  158.5540  211.9390  153.5440 C   0  0  1  0  0  3  0  0  0  0  0  0
  157.8540  212.9150  152.5700 C   0  0  1  0  0  3  0  0  0  0  0  0
  162.0000  209.0980  151.3330 C   0  0  0  0  0  2  0  0  0  0  0  0
  163.0550  207.0620  150.6730 O   0  0  0  0  0  1  0  0  0  0  0  0
  161.9260  207.8550  150.4590 C   0  0  2  0  0  3  0  0  0  0  0  0
  161.9960  209.7120  148.7010 C   0  0  0  0  0  1  0  0  0  0  0  0
  161.7840  208.2310  148.9820 C   0  0  1  0  0  3  0  0  0  0  0  0
  162.5940  207.3290  148.0520 C   0  0  0  0  0  2  0  0  0  0  0  0
  161.7440  206.3340  147.2570 C   0  0  1  0  0  3  0  0  0  0  0  0
  160.4650  206.9900  146.7440 C   0  0  0  0  0  2  0  0  0  0  0  0
  159.9950  206.3420  145.5990 O   0  0  0  0  0  1  0  0  0  0  0  0
  162.5480  205.7820  146.0880 C   0  0  0  0  0  2  0  0  0  0  0  0
  162.8880  204.3190  146.3210 C   0  0  0  0  0  2  0  0  0  0  0  0
  161.6710  203.5690  146.8450 C   0  0  0  0  0  2  0  0  0  0  0  0
  160.9900  202.8460  149.1480 C   0  0  0  0  0  0  0  0  0  0  0  0
  161.5230  203.7580  148.3270 C   0  0  0  0  0  3  0  0  0  0  0  0
  160.3890  204.3960  150.9890 O   0  0  0  0  0  0  0  0  0  0  0  0
  160.8410  203.1460  150.5820 C   0  0  0  0  0  0  0  0  0  0  0  0
  161.1290  202.2820  151.4550 O   0  0  0  0  0  1  0  0  0  0  0  0
  160.5010  201.5310  148.6270 C   0  0  0  0  0  2  0  0  0  0  0  0
  161.5760  200.7010  148.3740 F   0  0  0  0  0  0  0  0  0  0  0  0
  1  5  1  0  0  0  0
  2 12  1  1  0  0  0
  2  6  1  0  0  0  0
  4 10  2  0  0  0  0
  5  3  2  0  0  0  0
  6  7  1  0  0  0  0
  7  5  1  0  0  0  0
  8 20  1  6  0  0  0
  8  9  1  0  0  0  0
  9  2  1  0  0  0  0
 10  1  1  0  0  0  0
 11  8  1  0  0  0  0
 11  4  1  0  0  0  0
 13 16  1  0  0  0  0
 14 13  1  0  0  0  0
 16 17  1  0  0  0  0
 18 12  1  1  0  0  0
 18 17  1  0  0  0  0
 19 15  1  1  0  0  0
 19 14  1  0  0  0  0
 19 18  1  0  0  0  0
 22 21  1  6  0  0  0
 22 20  1  0  0  0  0
 24 23  1  1  0  0  0
 24 22  1  0  0  0  0
 25 24  1  0  0  0  0
 26 29  1  6  0  0  0
 26 25  1  0  0  0  0
 27 26  1  0  0  0  0
 28 27  1  0  0  0  0
 29 30  1  0  0  0  0
 30 31  1  0  0  0  0
 31 33  1  0  0  0  0
 32 35  1  0  0  0  0
 33 32  2  0  0  0  0
 35 34  2  0  0  0  0
 35 36  1  0  0  0  0
 37 32  1  0  0  0  0
 38 37  1  0  0  0  0
M  END
>  <MODEL>
2

>  <REMARK>
 VINA RESULT:      -7.2      1.938      2.925
  Name = 
  14 active torsions:
  status: ('A' for Active; 'I' for Inactive)
    1  A    between atoms: C_2  and  C_9
    2  A    between atoms: C_4  and  C_6
    3  A    between atoms: C_4  and  C_33
    4  A    between atoms: C_6  and  C_22
    5  A    between atoms: C_6  and  C_29
    6  A    between atoms: C_9  and  C_35
    7  A    between atoms: C_12  and  C_14
    8  A    between atoms: C_12  and  C_17
    9  A    between atoms: C_13  and  C_23
   10  A    between atoms: C_20  and  C_23
   11  A    between atoms: C_20  and  C_29
   12  A    between atoms: C_21  and  C_28
   13  A    between atoms: C_28  and  C_34
   14  A    between atoms: C_33  and  C_34
                            x       y       z     vdW  Elec       q    Type
                         _______ _______ _______ _____ _____    ______ ____

>  <TORSDO>
F 14

$$$$
=
 OpenBabel11072410453D

 38 39  0  0  1  0  0  0  0  0999 V2000
  161.2490  213.0460  150.1400 C   0  0  0  0  0  2  0  0  0  0  0  0
  159.9830  210.8780  153.4040 C   0  0  1  0  0  3  0  0  0  0  0  0
  158.8940  213.2410  150.1700 O   0  0  0  0  0  0  0  0  0  0  0  0
  161.7040  210.7880  149.1430 C   0  0  0  0  0  3  0  0  0  0  0  0
  159.9130  213.0550  150.8170 C   0  0  0  0  0  0  0  0  0  0  0  0
  159.1470  211.7070  152.6150 O   0  0  0  0  0  0  0  0  0  0  0  0
  159.8320  212.8940  152.3010 C   0  0  0  0  0  2  0  0  0  0  0  0
  161.0220  209.8930  151.3530 C   0  0  1  0  0  3  0  0  0  0  0  0
  161.2950  210.4990  152.7170 C   0  0  0  0  0  2  0  0  0  0  0  0
  161.2880  212.0560  149.0120 C   0  0  0  0  0  3  0  0  0  0  0  0
  162.1900  210.1930  150.4300 C   0  0  0  0  0  2  0  0  0  0  0  0
  160.2300  211.4480  154.8050 C   0  0  0  0  0  2  0  0  0  0  0  0
  161.3900  208.0390  156.9120 C   0  0  0  0  0  2  0  0  0  0  0  0
  162.0530  209.2240  156.5280 O   0  0  0  0  0  0  0  0  0  0  0  0
  162.0120  211.5650  157.1070 C   0  0  0  0  0  1  0  0  0  0  0  0
  159.9900  207.8940  156.2790 C   0  0  0  0  0  2  0  0  0  0  0  0
  159.6640  209.0420  155.3230 C   0  0  0  0  0  2  0  0  0  0  0  0
  160.0320  210.4100  155.9180 C   0  0  1  0  0  3  0  0  0  0  0  0
  161.2150  210.2850  156.9050 C   0  0  1  0  0  3  0  0  0  0  0  0
  160.8010  208.3930  151.4830 C   0  0  0  0  0  2  0  0  0  0  0  0
  162.9090  207.7170  150.5910 O   0  0  0  0  0  1  0  0  0  0  0  0
  162.1210  207.6830  151.7430 C   0  0  2  0  0  3  0  0  0  0  0  0
  161.7010  206.1110  153.7180 C   0  0  0  0  0  1  0  0  0  0  0  0
  161.8860  206.2450  152.2120 C   0  0  1  0  0  3  0  0  0  0  0  0
  160.8000  205.5230  151.4150 C   0  0  0  0  0  2  0  0  0  0  0  0
  161.3290  204.3880  150.5330 C   0  0  1  0  0  3  0  0  0  0  0  0
  160.7650  203.0400  150.9730 C   0  0  0  0  0  2  0  0  0  0  0  0
  160.9440  202.8460  152.3450 O   0  0  0  0  0  1  0  0  0  0  0  0
  160.9690  204.6500  149.0770 C   0  0  0  0  0  2  0  0  0  0  0  0
  160.3960  206.0480  148.9160 C   0  0  0  0  0  2  0  0  0  0  0  0
  161.1140  206.7890  147.7970 C   0  0  0  0  0  2  0  0  0  0  0  0
  161.5100  205.5150  145.6740 C   0  0  0  0  0  0  0  0  0  0  0  0
  160.7120  206.2520  146.4550 C   0  0  0  0  0  3  0  0  0  0  0  0
  161.3880  205.8000  143.2130 O   0  0  0  0  0  0  0  0  0  0  0  0
  161.0410  205.0770  144.3480 C   0  0  0  0  0  0  0  0  0  0  0  0
  160.3160  204.0520  144.2270 O   0  0  0  0  0  1  0  0  0  0  0  0
  162.8960  205.1550  146.1080 C   0  0  0  0  0  2  0  0  0  0  0  0
  162.8680  203.9790  146.8330 F   0  0  0  0  0  0  0  0  0  0  0  0
  1  5  1  0  0  0  0
  2 12  1  1  0  0  0
  3  5  2  0  0  0  0
  4 11  1  0  0  0  0
  5  7  1  0  0  0  0
  6  2  1  0  0  0  0
  7  6  1  0  0  0  0
  8 20  1  1  0  0  0
  8  9  1  0  0  0  0
  9  2  1  0  0  0  0
 10  4  2  0  0  0  0
 10  1  1  0  0  0  0
 11  8  1  0  0  0  0
 14 19  1  0  0  0  0
 14 13  1  0  0  0  0
 16 13  1  0  0  0  0
 17 18  1  0  0  0  0
 17 16  1  0  0  0  0
 18 12  1  6  0  0  0
 18 19  1  0  0  0  0
 19 15  1  6  0  0  0
 20 22  1  0  0  0  0
 22 21  1  6  0  0  0
 22 24  1  0  0  0  0
 24 23  1  1  0  0  0
 25 24  1  0  0  0  0
 26 29  1  6  0  0  0
 26 27  1  0  0  0  0
 26 25  1  0  0  0  0
 27 28  1  0  0  0  0
 30 29  1  0  0  0  0
 31 30  1  0  0  0  0
 32 37  1  0  0  0  0
 32 33  2  0  0  0  0
 33 31  1  0  0  0  0
 34 35  2  0  0  0  0
 35 32  1  0  0  0  0
 36 35  1  0  0  0  0
 37 38  1  0  0  0  0
M  END
>  <MODEL>
3

>  <REMARK>
 VINA RESULT:      -6.7      2.129      5.389
  Name = 
  14 active torsions:
  status: ('A' for Active; 'I' for Inactive)
    1  A    between atoms: C_2  and  C_9
    2  A    between atoms: C_4  and  C_6
    3  A    between atoms: C_4  and  C_33
    4  A    between atoms: C_6  and  C_22
    5  A    between atoms: C_6  and  C_29
    6  A    between atoms: C_9  and  C_35
    7  A    between atoms: C_12  and  C_14
    8  A    between atoms: C_12  and  C_17
    9  A    between atoms: C_13  and  C_23
   10  A    between atoms: C_20  and  C_23
   11  A    between atoms: C_20  and  C_29
   12  A    between atoms: C_21  and  C_28
   13  A    between atoms: C_28  and  C_34
   14  A    between atoms: C_33  and  C_34
                            x       y       z     vdW  Elec       q    Type
                         _______ _______ _______ _____ _____    ______ ____

>  <TORSDO>
F 14

$$$$
=
 OpenBabel11072410453D

 38 39  0  0  1  0  0  0  0  0999 V2000
  160.7290  213.4310  150.1720 C   0  0  0  0  0  2  0  0  0  0  0  0
  161.1250  209.9380  152.3160 C   0  0  1  0  0  3  0  0  0  0  0  0
  158.5320  212.7680  150.7360 O   0  0  0  0  0  0  0  0  0  0  0  0
  161.3610  211.9960  148.2120 C   0  0  0  0  0  3  0  0  0  0  0  0
  159.7180  212.7290  151.0250 C   0  0  0  0  0  0  0  0  0  0  0  0
  159.9090  210.6480  152.1510 O   0  0  0  0  0  0  0  0  0  0  0  0
  160.1570  212.0280  152.2700 C   0  0  0  0  0  2  0  0  0  0  0  0
  161.6550  210.1870  149.8850 C   0  0  1  0  0  3  0  0  0  0  0  0
  162.1990  210.3160  151.2940 C   0  0  0  0  0  2  0  0  0  0  0  0
  160.6380  212.9950  148.7380 C   0  0  0  0  0  3  0  0  0  0  0  0
  162.3590  211.1870  148.9840 C   0  0  0  0  0  2  0  0  0  0  0  0
  161.6660  210.0130  153.7480 C   0  0  0  0  0  2  0  0  0  0  0  0
  161.0170  207.6670  157.1370 C   0  0  0  0  0  2  0  0  0  0  0  0
  161.8360  208.7840  156.8620 O   0  0  0  0  0  0  0  0  0  0  0  0
  161.5610  211.1410  156.4320 C   0  0  0  0  0  1  0  0  0  0  0  0
  160.3430  207.0840  155.8770 C   0  0  0  0  0  2  0  0  0  0  0  0
  160.7690  207.8130  154.6010 C   0  0  0  0  0  2  0  0  0  0  0  0
  160.7440  209.3390  154.7730 C   0  0  1  0  0  3  0  0  0  0  0  0
  161.0100  209.7350  156.2440 C   0  0  1  0  0  3  0  0  0  0  0  0
  161.8480  208.7660  149.3770 C   0  0  0  0  0  2  0  0  0  0  0  0
  162.7330  207.5430  151.2250 O   0  0  0  0  0  1  0  0  0  0  0  0
  161.5690  207.7630  150.4870 C   0  0  2  0  0  3  0  0  0  0  0  0
  160.3730  206.6030  148.5450 C   0  0  0  0  0  1  0  0  0  0  0  0
  161.0180  206.4540  149.9170 C   0  0  1  0  0  3  0  0  0  0  0  0
  162.0210  205.3030  149.9780 C   0  0  0  0  0  2  0  0  0  0  0  0
  161.5660  204.1300  150.8520 C   0  0  1  0  0  3  0  0  0  0  0  0
  161.1200  204.6100  152.2300 C   0  0  0  0  0  2  0  0  0  0  0  0
  160.4660  203.5920  152.9280 O   0  0  0  0  0  1  0  0  0  0  0  0
  160.4270  203.3850  150.1700 C   0  0  0  0  0  2  0  0  0  0  0  0
  160.7870  201.9200  149.9840 C   0  0  0  0  0  2  0  0  0  0  0  0
  160.7890  201.5590  148.5050 C   0  0  0  0  0  2  0  0  0  0  0  0
  161.0920  202.7650  146.3270 C   0  0  0  0  0  0  0  0  0  0  0  0
  161.1490  202.7490  147.6640 C   0  0  0  0  0  3  0  0  0  0  0  0
  162.5750  204.7350  146.0560 O   0  0  0  0  0  1  0  0  0  0  0  0
  161.5160  203.9660  145.5880 C   0  0  0  0  0  0  0  0  0  0  0  0
  160.9220  204.3150  144.5310 O   0  0  0  0  0  0  0  0  0  0  0  0
  160.6390  201.5630  145.5600 C   0  0  0  0  0  2  0  0  0  0  0  0
  159.2770  201.6350  145.3390 F   0  0  0  0  0  0  0  0  0  0  0  0
  1  5  1  0  0  0  0
  2 12  1  1  0  0  0
  3  5  2  0  0  0  0
  4 10  2  0  0  0  0
  4 11  1  0  0  0  0
  5  7  1  0  0  0  0
  6  7  1  0  0  0  0
  6  2  1  0  0  0  0
  8 20  1  6  0  0  0
  8  9  1  0  0  0  0
  9  2  1  0  0  0  0
 10  1  1  0  0  0  0
 11  8  1  0  0  0  0
 14 13  1  0  0  0  0
 16 13  1  0  0  0  0
 17 18  1  0  0  0  0
 17 16  1  0  0  0  0
 18 12  1  6  0  0  0
 18 19  1  0  0  0  0
 19 15  1  6  0  0  0
 19 14  1  0  0  0  0
 20 22  1  0  0  0  0
 22 21  1  6  0  0  0
 24 23  1  6  0  0  0
 24 25  1  0  0  0  0
 24 22  1  0  0  0  0
 26 25  1  6  0  0  0
 26 27  1  0  0  0  0
 27 28  1  0  0  0  0
 29 26  1  0  0  0  0
 30 29  1  0  0  0  0
 31 30  1  0  0  0  0
 32 33  2  0  0  0  0
 33 31  1  0  0  0  0
 35 34  1  0  0  0  0
 35 32  1  0  0  0  0
 36 35  2  0  0  0  0
 37 32  1  0  0  0  0
 38 37  1  0  0  0  0
M  END
>  <MODEL>
4

>  <REMARK>
 VINA RESULT:      -6.6      1.918      5.349
  Name = 
  14 active torsions:
  status: ('A' for Active; 'I' for Inactive)
    1  A    between atoms: C_2  and  C_9
    2  A    between atoms: C_4  and  C_6
    3  A    between atoms: C_4  and  C_33
    4  A    between atoms: C_6  and  C_22
    5  A    between atoms: C_6  and  C_29
    6  A    between atoms: C_9  and  C_35
    7  A    between atoms: C_12  and  C_14
    8  A    between atoms: C_12  and  C_17
    9  A    between atoms: C_13  and  C_23
   10  A    between atoms: C_20  and  C_23
   11  A    between atoms: C_20  and  C_29
   12  A    between atoms: C_21  and  C_28
   13  A    between atoms: C_28  and  C_34
   14  A    between atoms: C_33  and  C_34
                            x       y       z     vdW  Elec       q    Type
                         _______ _______ _______ _____ _____    ______ ____

>  <TORSDO>
F 14

$$$$
=
 OpenBabel11072410453D

 38 39  0  0  1  0  0  0  0  0999 V2000
  161.5770  212.8120  149.5100 C   0  0  0  0  0  2  0  0  0  0  0  0
  159.6890  211.7010  152.9960 C   0  0  1  0  0  3  0  0  0  0  0  0
  159.2630  213.0300  149.0870 O   0  0  0  0  0  0  0  0  0  0  0  0
  162.0520  210.3570  149.2890 C   0  0  0  0  0  3  0  0  0  0  0  0
  160.1540  213.0300  149.9220 C   0  0  0  0  0  0  0  0  0  0  0  0
  159.0370  212.2720  151.8750 O   0  0  0  0  0  0  0  0  0  0  0  0
  159.8310  213.3100  151.3540 C   0  0  0  0  0  2  0  0  0  0  0  0
  160.9790  210.1520  151.5160 C   0  0  1  0  0  3  0  0  0  0  0  0
  161.0690  211.1250  152.6750 C   0  0  0  0  0  2  0  0  0  0  0  0
  161.7360  211.5360  148.7340 C   0  0  0  0  0  3  0  0  0  0  0  0
  162.2940  210.1580  150.7550 C   0  0  0  0  0  2  0  0  0  0  0  0
  159.7450  212.6520  154.1960 C   0  0  0  0  0  2  0  0  0  0  0  0
  156.0930  210.9720  155.3140 C   0  0  0  0  0  2  0  0  0  0  0  0
  157.4050  210.4660  155.1890 O   0  0  0  0  0  0  0  0  0  0  0  0
  159.5200  210.6780  156.3270 C   0  0  0  0  0  1  0  0  0  0  0  0
  155.9390  212.4050  154.7630 C   0  0  0  0  0  2  0  0  0  0  0  0
  157.2360  212.9300  154.1440 C   0  0  0  0  0  2  0  0  0  0  0  0
  158.4570  212.6410  155.0310 C   0  0  1  0  0  3  0  0  0  0  0  0
  158.2400  211.3630  155.8720 C   0  0  1  0  0  3  0  0  0  0  0  0
  160.6540  208.7560  152.0300 C   0  0  0  0  0  2  0  0  0  0  0  0
  160.8750  207.4680  150.0340 O   0  0  0  0  0  1  0  0  0  0  0  0
  161.4630  207.7110  151.2760 C   0  0  2  0  0  3  0  0  0  0  0  0
  161.4750  206.6330  153.5960 C   0  0  0  0  0  1  0  0  0  0  0  0
  161.5910  206.4230  152.0920 C   0  0  1  0  0  3  0  0  0  0  0  0
  160.6940  205.2970  151.5800 C   0  0  0  0  0  2  0  0  0  0  0  0
  161.4550  204.1690  150.8760 C   0  0  1  0  0  3  0  0  0  0  0  0
  161.5090  202.9160  151.7440 C   0  0  0  0  0  2  0  0  0  0  0  0
  160.5240  202.9490  152.7340 O   0  0  0  0  0  1  0  0  0  0  0  0
  160.7920  203.8480  149.5440 C   0  0  0  0  0  2  0  0  0  0  0  0
  160.6220  202.3470  149.3840 C   0  0  0  0  0  2  0  0  0  0  0  0
  160.9950  201.9190  147.9720 C   0  0  0  0  0  2  0  0  0  0  0  0
  161.1840  203.2320  145.8440 C   0  0  0  0  0  0  0  0  0  0  0  0
  161.4300  203.0980  147.1520 C   0  0  0  0  0  3  0  0  0  0  0  0
  162.8950  204.9960  145.5040 O   0  0  0  0  0  1  0  0  0  0  0  0
  161.6990  204.4040  145.1150 C   0  0  0  0  0  0  0  0  0  0  0  0
  161.0610  204.8880  144.1410 O   0  0  0  0  0  0  0  0  0  0  0  0
  160.4240  202.1860  145.0910 C   0  0  0  0  0  2  0  0  0  0  0  0
  159.3330  202.7600  144.4660 F   0  0  0  0  0  0  0  0  0  0  0  0
  1  5  1  0  0  0  0
  2 12  1  1  0  0  0
  3  5  2  0  0  0  0
  4 11  1  0  0  0  0
  5  7  1  0  0  0  0
  6  2  1  0  0  0  0
  7  6  1  0  0  0  0
  8 20  1  1  0  0  0
  8  9  1  0  0  0  0
  9  2  1  0  0  0  0
 10  4  2  0  0  0  0
 10  1  1  0  0  0  0
 11  8  1  0  0  0  0
 14 13  1  0  0  0  0
 14 19  1  0  0  0  0
 16 13  1  0  0  0  0
 17 16  1  0  0  0  0
 17 18  1  0  0  0  0
 18 12  1  6  0  0  0
 18 19  1  0  0  0  0
 19 15  1  6  0  0  0
 22 21  1  6  0  0  0
 22 20  1  0  0  0  0
 22 24  1  0  0  0  0
 24 23  1  1  0  0  0
 25 24  1  0  0  0  0
 26 29  1  6  0  0  0
 26 25  1  0  0  0  0
 26 27  1  0  0  0  0
 27 28  1  0  0  0  0
 30 29  1  0  0  0  0
 31 30  1  0  0  0  0
 32 33  2  0  0  0  0
 33 31  1  0  0  0  0
 35 34  1  0  0  0  0
 35 32  1  0  0  0  0
 36 35  2  0  0  0  0
 37 32  1  0  0  0  0
 38 37  1  0  0  0  0
M  END
>  <MODEL>
5

>  <REMARK>
 VINA RESULT:      -6.3      2.399      4.863
  Name = 
  14 active torsions:
  status: ('A' for Active; 'I' for Inactive)
    1  A    between atoms: C_2  and  C_9
    2  A    between atoms: C_4  and  C_6
    3  A    between atoms: C_4  and  C_33
    4  A    between atoms: C_6  and  C_22
    5  A    between atoms: C_6  and  C_29
    6  A    between atoms: C_9  and  C_35
    7  A    between atoms: C_12  and  C_14
    8  A    between atoms: C_12  and  C_17
    9  A    between atoms: C_13  and  C_23
   10  A    between atoms: C_20  and  C_23
   11  A    between atoms: C_20  and  C_29
   12  A    between atoms: C_21  and  C_28
   13  A    between atoms: C_28  and  C_34
   14  A    between atoms: C_33  and  C_34
                            x       y       z     vdW  Elec       q    Type
                         _______ _______ _______ _____ _____    ______ ____

>  <TORSDO>
F 14

$$$$
=
 OpenBabel11072410453D

 38 39  0  0  1  0  0  0  0  0999 V2000
  161.7630  203.4940  151.7880 C   0  0  0  0  0  2  0  0  0  0  0  0
  161.1390  206.5390  149.0870 C   0  0  1  0  0  3  0  0  0  0  0  0
  159.6920  203.0230  150.7520 O   0  0  0  0  0  0  0  0  0  0  0  0
  161.2500  205.2560  153.5000 C   0  0  0  0  0  3  0  0  0  0  0  0
  160.7820  203.5660  150.6590 C   0  0  0  0  0  0  0  0  0  0  0  0
  160.3360  205.3760  149.1880 O   0  0  0  0  0  0  0  0  0  0  0  0
  161.1630  204.2550  149.3890 C   0  0  0  0  0  2  0  0  0  0  0  0
  161.1370  206.8140  151.5730 C   0  0  1  0  0  3  0  0  0  0  0  0
  161.9990  206.8000  150.3250 C   0  0  0  0  0  2  0  0  0  0  0  0
  161.1620  203.9890  153.0720 C   0  0  0  0  0  3  0  0  0  0  0  0
  161.9640  206.3440  152.7570 C   0  0  0  0  0  2  0  0  0  0  0  0
  161.9810  206.5680  147.8070 C   0  0  0  0  0  2  0  0  0  0  0  0
  161.5910  205.4530  143.8060 C   0  0  0  0  0  2  0  0  0  0  0  0
  162.6950  205.7250  144.6420 O   0  0  0  0  0  0  0  0  0  0  0  0
  163.8110  204.7030  146.5200 C   0  0  0  0  0  1  0  0  0  0  0  0
  160.2360  205.8010  144.4560 C   0  0  0  0  0  2  0  0  0  0  0  0
  160.4010  206.4260  145.8420 C   0  0  0  0  0  2  0  0  0  0  0  0
  161.4220  205.6630  146.7010 C   0  0  1  0  0  3  0  0  0  0  0  0
  162.4920  204.9840  145.8160 C   0  0  1  0  0  3  0  0  0  0  0  0
  160.5870  208.2130  151.8130 C   0  0  0  0  0  2  0  0  0  0  0  0
  160.5080  208.8510  154.1110 O   0  0  0  0  0  1  0  0  0  0  0  0
  161.3150  208.8770  152.9720 C   0  0  2  0  0  3  0  0  0  0  0  0
  161.9190  210.5380  151.1210 C   0  0  0  0  0  1  0  0  0  0  0  0
  161.7230  210.3080  152.6140 C   0  0  1  0  0  3  0  0  0  0  0  0
  160.8340  211.3670  153.2650 C   0  0  0  0  0  2  0  0  0  0  0  0
  159.5790  211.7050  152.4560 C   0  0  1  0  0  3  0  0  0  0  0  0
  158.3140  211.4630  153.2750 C   0  0  0  0  0  2  0  0  0  0  0  0
  157.6080  212.6520  153.4700 O   0  0  0  0  0  1  0  0  0  0  0  0
  159.6300  213.1570  152.0000 C   0  0  0  0  0  2  0  0  0  0  0  0
  159.2710  213.2630  150.5270 C   0  0  0  0  0  2  0  0  0  0  0  0
  160.4650  213.7600  149.7250 C   0  0  0  0  0  2  0  0  0  0  0  0
  161.0880  212.8570  147.4700 C   0  0  0  0  0  0  0  0  0  0  0  0
  160.2510  213.5450  148.2560 C   0  0  0  0  0  3  0  0  0  0  0  0
  161.7320  213.2380  145.1050 O   0  0  0  0  0  0  0  0  0  0  0  0
  160.8160  212.7450  146.0270 C   0  0  0  0  0  0  0  0  0  0  0  0
  159.7510  212.2110  145.6110 O   0  0  0  0  0  1  0  0  0  0  0  0
  162.3260  212.2270  148.0260 C   0  0  0  0  0  2  0  0  0  0  0  0
  163.3500  213.1530  148.0520 F   0  0  0  0  0  0  0  0  0  0  0  0
  1 10  1  0  0  0  0
  2 12  1  6  0  0  0
  2  6  1  0  0  0  0
  2  9  1  0  0  0  0
  5  3  2  0  0  0  0
  5  1  1  0  0  0  0
  6  7  1  0  0  0  0
  7  5  1  0  0  0  0
  8 20  1  1  0  0  0
  8 11  1  0  0  0  0
  9  8  1  0  0  0  0
 10  4  2  0  0  0  0
 11  4  1  0  0  0  0
 13 16  1  0  0  0  0
 13 14  1  0  0  0  0
 14 19  1  0  0  0  0
 16 17  1  0  0  0  0
 17 18  1  0  0  0  0
 18 12  1  1  0  0  0
 19 15  1  1  0  0  0
 19 18  1  0  0  0  0
 20 22  1  0  0  0  0
 22 21  1  1  0  0  0
 24 23  1  6  0  0  0
 24 22  1  0  0  0  0
 24 25  1  0  0  0  0
 26 29  1  1  0  0  0
 26 25  1  0  0  0  0
 26 27  1  0  0  0  0
 27 28  1  0  0  0  0
 30 29  1  0  0  0  0
 31 30  1  0  0  0  0
 32 37  1  0  0  0  0
 32 33  2  0  0  0  0
 33 31  1  0  0  0  0
 34 35  2  0  0  0  0
 35 32  1  0  0  0  0
 36 35  1  0  0  0  0
 37 38  1  0  0  0  0
M  END
>  <MODEL>
6

>  <REMARK>
 VINA RESULT:      -5.9      3.063      8.438
  Name = 
  14 active torsions:
  status: ('A' for Active; 'I' for Inactive)
    1  A    between atoms: C_2  and  C_9
    2  A    between atoms: C_4  and  C_6
    3  A    between atoms: C_4  and  C_33
    4  A    between atoms: C_6  and  C_22
    5  A    between atoms: C_6  and  C_29
    6  A    between atoms: C_9  and  C_35
    7  A    between atoms: C_12  and  C_14
    8  A    between atoms: C_12  and  C_17
    9  A    between atoms: C_13  and  C_23
   10  A    between atoms: C_20  and  C_23
   11  A    between atoms: C_20  and  C_29
   12  A    between atoms: C_21  and  C_28
   13  A    between atoms: C_28  and  C_34
   14  A    between atoms: C_33  and  C_34
                            x       y       z     vdW  Elec       q    Type
                         _______ _______ _______ _____ _____    ______ ____

>  <TORSDO>
F 14

$$$$
=
 OpenBabel11072410453D

 38 39  0  0  1  0  0  0  0  0999 V2000
  161.5200  213.0150  149.1610 C   0  0  0  0  0  2  0  0  0  0  0  0
  158.9980  212.7350  152.4040 C   0  0  1  0  0  3  0  0  0  0  0  0
  159.3290  213.0500  148.2780 O   0  0  0  0  0  0  0  0  0  0  0  0
  161.9900  210.5980  149.6450 C   0  0  0  0  0  3  0  0  0  0  0  0
  160.0490  213.2830  149.2360 C   0  0  0  0  0  0  0  0  0  0  0  0
  158.5760  212.9920  151.0750 O   0  0  0  0  0  0  0  0  0  0  0  0
  159.4690  213.8950  150.4700 C   0  0  0  0  0  2  0  0  0  0  0  0
  160.5180  210.9120  151.6170 C   0  0  1  0  0  3  0  0  0  0  0  0
  160.4050  212.1430  152.4950 C   0  0  0  0  0  2  0  0  0  0  0  0
  161.8020  211.5930  148.7680 C   0  0  0  0  0  3  0  0  0  0  0  0
  161.9520  210.7730  151.1330 C   0  0  0  0  0  2  0  0  0  0  0  0
  158.8440  213.9530  153.3210 C   0  0  0  0  0  2  0  0  0  0  0  0
  156.7260  211.5120  155.9600 C   0  0  0  0  0  2  0  0  0  0  0  0
  158.0950  211.6650  155.6540 O   0  0  0  0  0  0  0  0  0  0  0  0
  159.8290  213.3080  155.9850 C   0  0  0  0  0  1  0  0  0  0  0  0
  155.7990  212.2890  155.0010 C   0  0  0  0  0  2  0  0  0  0  0  0
  156.5760  213.0000  153.8920 C   0  0  0  0  0  2  0  0  0  0  0  0
  157.8100  213.7380  154.4350 C   0  0  1  0  0  3  0  0  0  0  0  0
  158.3580  213.0420  155.7020 C   0  0  1  0  0  3  0  0  0  0  0  0
  160.0820  209.6760  152.3900 C   0  0  0  0  0  2  0  0  0  0  0  0
  162.1850  210.1260  153.4230 O   0  0  0  0  0  1  0  0  0  0  0  0
  160.9650  209.4750  153.6130 C   0  0  2  0  0  3  0  0  0  0  0  0
  160.5170  207.5170  155.1970 C   0  0  0  0  0  1  0  0  0  0  0  0
  161.1690  207.9860  153.9030 C   0  0  1  0  0  3  0  0  0  0  0  0
  160.8320  207.0900  152.7120 C   0  0  0  0  0  2  0  0  0  0  0  0
  161.8390  205.9590  152.4830 C   0  0  1  0  0  3  0  0  0  0  0  0
  161.2050  204.5960  152.7450 C   0  0  0  0  0  2  0  0  0  0  0  0
  161.8470  203.5960  152.0110 O   0  0  0  0  0  1  0  0  0  0  0  0
  162.3710  206.0170  151.0580 C   0  0  0  0  0  2  0  0  0  0  0  0
  161.5520  206.9880  150.2240 C   0  0  0  0  0  2  0  0  0  0  0  0
  161.1140  206.3300  148.9230 C   0  0  0  0  0  2  0  0  0  0  0  0
  161.2100  203.9060  148.2910 C   0  0  0  0  0  0  0  0  0  0  0  0
  160.8240  204.8730  149.1300 C   0  0  0  0  0  3  0  0  0  0  0  0
  160.0910  202.1890  149.6890 O   0  0  0  0  0  1  0  0  0  0  0  0
  160.8310  202.5070  148.5560 C   0  0  0  0  0  0  0  0  0  0  0  0
  161.1780  201.5850  147.7690 O   0  0  0  0  0  0  0  0  0  0  0  0
  161.9930  204.2230  147.0560 C   0  0  0  0  0  2  0  0  0  0  0  0
  161.1840  204.0960  145.9440 F   0  0  0  0  0  0  0  0  0  0  0  0
  1  5  1  0  0  0  0
  2  9  1  0  0  0  0
  2 12  1  1  0  0  0
  3  5  2  0  0  0  0
  4 11  1  0  0  0  0
  5  7  1  0  0  0  0
  6  2  1  0  0  0  0
  7  6  1  0  0  0  0
  8 20  1  1  0  0  0
  8  9  1  0  0  0  0
 10  1  1  0  0  0  0
 10  4  2  0  0  0  0
 11  8  1  0  0  0  0
 14 19  1  0  0  0  0
 14 13  1  0  0  0  0
 16 13  1  0  0  0  0
 17 18  1  0  0  0  0
 17 16  1  0  0  0  0
 18 12  1  6  0  0  0
 18 19  1  0  0  0  0
 19 15  1  6  0  0  0
 20 22  1  0  0  0  0
 22 21  1  6  0  0  0
 22 24  1  0  0  0  0
 24 23  1  1  0  0  0
 25 24  1  0  0  0  0
 26 29  1  6  0  0  0
 26 25  1  0  0  0  0
 26 27  1  0  0  0  0
 28 27  1  0  0  0  0
 30 29  1  0  0  0  0
 31 33  1  0  0  0  0
 31 30  1  0  0  0  0
 32 35  1  0  0  0  0
 32 33  2  0  0  0  0
 35 34  1  0  0  0  0
 36 35  2  0  0  0  0
 37 32  1  0  0  0  0
 38 37  1  0  0  0  0
M  END
>  <MODEL>
7

>  <REMARK>
 VINA RESULT:      -5.8      1.990      4.954
  Name = 
  14 active torsions:
  status: ('A' for Active; 'I' for Inactive)
    1  A    between atoms: C_2  and  C_9
    2  A    between atoms: C_4  and  C_6
    3  A    between atoms: C_4  and  C_33
    4  A    between atoms: C_6  and  C_22
    5  A    between atoms: C_6  and  C_29
    6  A    between atoms: C_9  and  C_35
    7  A    between atoms: C_12  and  C_14
    8  A    between atoms: C_12  and  C_17
    9  A    between atoms: C_13  and  C_23
   10  A    between atoms: C_20  and  C_23
   11  A    between atoms: C_20  and  C_29
   12  A    between atoms: C_21  and  C_28
   13  A    between atoms: C_28  and  C_34
   14  A    between atoms: C_33  and  C_34
                            x       y       z     vdW  Elec       q    Type
                         _______ _______ _______ _____ _____    ______ ____

>  <TORSDO>
F 14

$$$$
=
 OpenBabel11072410453D

 38 39  0  0  1  0  0  0  0  0999 V2000
  161.7350  204.4810  152.6080 C   0  0  0  0  0  2  0  0  0  0  0  0
  161.4190  206.4510  149.0060 C   0  0  1  0  0  3  0  0  0  0  0  0
  159.6940  203.7640  151.6580 O   0  0  0  0  0  0  0  0  0  0  0  0
  161.2400  206.7370  153.5900 C   0  0  0  0  0  3  0  0  0  0  0  0
  160.8170  204.2030  151.4590 C   0  0  0  0  0  0  0  0  0  0  0  0
  160.5470  205.4220  149.4400 O   0  0  0  0  0  0  0  0  0  0  0  0
  161.2980  204.4060  150.0590 C   0  0  0  0  0  2  0  0  0  0  0  0
  161.3110  207.5530  151.2490 C   0  0  1  0  0  3  0  0  0  0  0  0
  162.2300  207.0850  150.1370 C   0  0  0  0  0  2  0  0  0  0  0  0
  161.1010  205.4040  153.6090 C   0  0  0  0  0  3  0  0  0  0  0  0
  162.0510  207.4820  152.5730 C   0  0  0  0  0  2  0  0  0  0  0  0
  162.3220  206.0140  147.8480 C   0  0  0  0  0  2  0  0  0  0  0  0
  161.2620  205.5200  143.8440 C   0  0  0  0  0  2  0  0  0  0  0  0
  162.4940  205.6390  144.5210 O   0  0  0  0  0  0  0  0  0  0  0  0
  163.8420  204.3230  146.0270 C   0  0  0  0  0  1  0  0  0  0  0  0
  160.0420  205.7970  144.7470 C   0  0  0  0  0  2  0  0  0  0  0  0
  160.4510  206.2030  146.1640 C   0  0  0  0  0  2  0  0  0  0  0  0
  161.5560  205.2970  146.7280 C   0  0  1  0  0  3  0  0  0  0  0  0
  162.4440  204.7350  145.5930 C   0  0  1  0  0  3  0  0  0  0  0  0
  160.8300  208.9690  150.9680 C   0  0  0  0  0  2  0  0  0  0  0  0
  161.6510  210.7840  152.2820 O   0  0  0  0  0  1  0  0  0  0  0  0
  161.9570  209.9660  151.1920 C   0  0  2  0  0  3  0  0  0  0  0  0
  161.9550  210.0390  148.6350 C   0  0  0  0  0  1  0  0  0  0  0  0
  162.2150  210.7950  149.9310 C   0  0  1  0  0  3  0  0  0  0  0  0
  161.5390  212.1650  149.9650 C   0  0  0  0  0  2  0  0  0  0  0  0
  161.0970  212.6720  148.5880 C   0  0  1  0  0  3  0  0  0  0  0  0
  159.7230  213.3320  148.6590 C   0  0  0  0  0  2  0  0  0  0  0  0
  159.5580  214.2570  147.6260 O   0  0  0  0  0  1  0  0  0  0  0  0
  162.1200  213.6620  148.0470 C   0  0  0  0  0  2  0  0  0  0  0  0
  162.7570  213.1250  146.7760 C   0  0  0  0  0  2  0  0  0  0  0  0
  162.5870  214.1200  145.6370 C   0  0  0  0  0  2  0  0  0  0  0  0
  161.4290  212.9130  143.7690 C   0  0  0  0  0  0  0  0  0  0  0  0
  162.5430  213.4150  144.3120 C   0  0  0  0  0  3  0  0  0  0  0  0
  160.4780  211.3210  142.1200 O   0  0  0  0  0  1  0  0  0  0  0  0
  161.4970  212.1920  142.4860 C   0  0  0  0  0  0  0  0  0  0  0  0
  162.4800  212.3490  141.7110 O   0  0  0  0  0  0  0  0  0  0  0  0
  160.1090  213.0350  144.4620 C   0  0  0  0  0  2  0  0  0  0  0  0
  159.9170  211.9500  145.2960 F   0  0  0  0  0  0  0  0  0  0  0  0
  1 10  1  0  0  0  0
  2 12  1  6  0  0  0
  2  6  1  0  0  0  0
  2  9  1  0  0  0  0
  4 10  2  0  0  0  0
  5  3  2  0  0  0  0
  5  1  1  0  0  0  0
  6  7  1  0  0  0  0
  7  5  1  0  0  0  0
  8 20  1  6  0  0  0
  8 11  1  0  0  0  0
  9  8  1  0  0  0  0
 11  4  1  0  0  0  0
 13 14  1  0  0  0  0
 13 16  1  0  0  0  0
 14 19  1  0  0  0  0
 16 17  1  0  0  0  0
 17 18  1  0  0  0  0
 18 12  1  1  0  0  0
 19 15  1  1  0  0  0
 19 18  1  0  0  0  0
 20 22  1  0  0  0  0
 22 21  1  1  0  0  0
 24 23  1  6  0  0  0
 24 25  1  0  0  0  0
 24 22  1  0  0  0  0
 26 29  1  1  0  0  0
 26 27  1  0  0  0  0
 26 25  1  0  0  0  0
 28 27  1  0  0  0  0
 30 29  1  0  0  0  0
 31 30  1  0  0  0  0
 32 33  2  0  0  0  0
 32 37  1  0  0  0  0
 33 31  1  0  0  0  0
 34 35  1  0  0  0  0
 35 32  1  0  0  0  0
 36 35  2  0  0  0  0
 37 38  1  0  0  0  0
M  END
>  <MODEL>
8

>  <REMARK>
 VINA RESULT:      -5.3      3.603      8.237
  Name = 
  14 active torsions:
  status: ('A' for Active; 'I' for Inactive)
    1  A    between atoms: C_2  and  C_9
    2  A    between atoms: C_4  and  C_6
    3  A    between atoms: C_4  and  C_33
    4  A    between atoms: C_6  and  C_22
    5  A    between atoms: C_6  and  C_29
    6  A    between atoms: C_9  and  C_35
    7  A    between atoms: C_12  and  C_14
    8  A    between atoms: C_12  and  C_17
    9  A    between atoms: C_13  and  C_23
   10  A    between atoms: C_20  and  C_23
   11  A    between atoms: C_20  and  C_29
   12  A    between atoms: C_21  and  C_28
   13  A    between atoms: C_28  and  C_34
   14  A    between atoms: C_33  and  C_34
                            x       y       z     vdW  Elec       q    Type
                         _______ _______ _______ _____ _____    ______ ____

>  <TORSDO>
F 14

$$$$
=
 OpenBabel11072410453D

 38 39  0  0  1  0  0  0  0  0999 V2000
  161.7110  204.2680  152.0260 C   0  0  0  0  0  2  0  0  0  0  0  0
  161.3470  206.8970  148.8780 C   0  0  1  0  0  3  0  0  0  0  0  0
  159.5750  203.8710  151.0990 O   0  0  0  0  0  0  0  0  0  0  0  0
  161.4370  206.3240  153.4380 C   0  0  0  0  0  3  0  0  0  0  0  0
  160.7140  204.2690  150.9090 C   0  0  0  0  0  0  0  0  0  0  0  0
  160.4260  205.8610  149.1720 O   0  0  0  0  0  0  0  0  0  0  0  0
  161.1320  204.7020  149.5410 C   0  0  0  0  0  2  0  0  0  0  0  0
  161.4410  207.5610  151.2880 C   0  0  1  0  0  3  0  0  0  0  0  0
  162.2620  207.2540  150.0500 C   0  0  0  0  0  2  0  0  0  0  0  0
  161.2020  205.0230  153.2200 C   0  0  0  0  0  3  0  0  0  0  0  0
  162.2450  207.1960  152.5240 C   0  0  0  0  0  2  0  0  0  0  0  0
  162.1520  206.6300  147.6020 C   0  0  0  0  0  2  0  0  0  0  0  0
  161.3620  205.0710  143.8130 C   0  0  0  0  0  2  0  0  0  0  0  0
  162.5450  205.4100  144.5040 O   0  0  0  0  0  0  0  0  0  0  0  0
  163.8220  204.5820  146.3760 C   0  0  0  0  0  1  0  0  0  0  0  0
  160.0800  205.5270  144.5430 C   0  0  0  0  0  2  0  0  0  0  0  0
  160.3880  206.3030  145.8240 C   0  0  0  0  0  2  0  0  0  0  0  0
  161.4750  205.6180  146.6670 C   0  0  1  0  0  3  0  0  0  0  0  0
  162.4450  204.8140  145.7710 C   0  0  1  0  0  3  0  0  0  0  0  0
  161.0520  209.0320  151.3050 C   0  0  0  0  0  2  0  0  0  0  0  0
  162.7830  210.3110  152.3350 O   0  0  0  0  0  1  0  0  0  0  0  0
  162.2780  209.9080  151.0980 C   0  0  2  0  0  3  0  0  0  0  0  0
  162.3000  210.9170  148.7470 C   0  0  0  0  0  1  0  0  0  0  0  0
  161.9470  211.1140  150.2150 C   0  0  1  0  0  3  0  0  0  0  0  0
  160.5240  211.6340  150.4180 C   0  0  0  0  0  2  0  0  0  0  0  0
  160.4480  213.1370  150.7000 C   0  0  1  0  0  3  0  0  0  0  0  0
  160.2930  213.9330  149.4070 C   0  0  0  0  0  2  0  0  0  0  0  0
  159.6470  213.1750  148.4270 O   0  0  0  0  0  1  0  0  0  0  0  0
  159.2820  213.4320  151.6330 C   0  0  0  0  0  2  0  0  0  0  0  0
  159.5610  212.8840  153.0220 C   0  0  0  0  0  2  0  0  0  0  0  0
  158.7790  211.5990  153.2520 C   0  0  0  0  0  2  0  0  0  0  0  0
  159.6200  210.3140  155.2350 C   0  0  0  0  0  0  0  0  0  0  0  0
  159.6350  210.5630  153.9210 C   0  0  0  0  0  3  0  0  0  0  0  0
  160.0600  208.3630  156.7020 O   0  0  0  0  0  1  0  0  0  0  0  0
  160.5360  209.3120  155.8040 C   0  0  0  0  0  0  0  0  0  0  0  0
  161.7590  209.3060  155.4940 O   0  0  0  0  0  0  0  0  0  0  0  0
  158.7090  211.0690  156.1520 C   0  0  0  0  0  2  0  0  0  0  0  0
  159.4260  212.0350  156.8310 F   0  0  0  0  0  0  0  0  0  0  0  0
  1 10  1  0  0  0  0
  2 12  1  6  0  0  0
  2  6  1  0  0  0  0
  2  9  1  0  0  0  0
  5  3  2  0  0  0  0
  5  1  1  0  0  0  0
  6  7  1  0  0  0  0
  7  5  1  0  0  0  0
  8 20  1  1  0  0  0
  8 11  1  0  0  0  0
  9  8  1  0  0  0  0
 10  4  2  0  0  0  0
 11  4  1  0  0  0  0
 13 14  1  0  0  0  0
 13 16  1  0  0  0  0
 14 19  1  0  0  0  0
 16 17  1  0  0  0  0
 17 18  1  0  0  0  0
 18 12  1  6  0  0  0
 19 15  1  1  0  0  0
 19 18  1  0  0  0  0
 22 20  1  0  0  0  0
 22 21  1  1  0  0  0
 24 23  1  6  0  0  0
 24 25  1  0  0  0  0
 24 22  1  0  0  0  0
 25 26  1  0  0  0  0
 26 27  1  6  0  0  0
 26 29  1  0  0  0  0
 28 27  1  0  0  0  0
 29 30  1  0  0  0  0
 30 31  1  0  0  0  0
 31 33  1  0  0  0  0
 32 35  1  0  0  0  0
 32 37  1  0  0  0  0
 33 32  2  0  0  0  0
 35 34  1  0  0  0  0
 36 35  2  0  0  0  0
 37 38  1  0  0  0  0
M  END
>  <MODEL>
9

>  <REMARK>
 VINA RESULT:      -5.0      3.230      8.522
  Name = 
  14 active torsions:
  status: ('A' for Active; 'I' for Inactive)
    1  A    between atoms: C_2  and  C_9
    2  A    between atoms: C_4  and  C_6
    3  A    between atoms: C_4  and  C_33
    4  A    between atoms: C_6  and  C_22
    5  A    between atoms: C_6  and  C_29
    6  A    between atoms: C_9  and  C_35
    7  A    between atoms: C_12  and  C_14
    8  A    between atoms: C_12  and  C_17
    9  A    between atoms: C_13  and  C_23
   10  A    between atoms: C_20  and  C_23
   11  A    between atoms: C_20  and  C_29
   12  A    between atoms: C_21  and  C_28
   13  A    between atoms: C_28  and  C_34
   14  A    between atoms: C_33  and  C_34
                            x       y       z     vdW  Elec       q    Type
                         _______ _______ _______ _____ _____    ______ ____

>  <TORSDO>
F 14

$$$$
