=
 OpenBabel11072415213D

 63 67  0  0  1  0  0  0  0  0999 V2000
  157.7830  210.8460  137.8690 O   0  0  0  0  0  0  0  0  0  0  0  0
  160.7830  205.4690  145.5280 O   0  0  0  0  0  0  0  0  0  0  0  0
  161.0770  211.7600  147.9510 C   0  0  2  0  0  3  0  0  0  0  0  0
  162.8310  207.2240  138.5950 C   0  0  0  0  0  0  0  0  0  0  0  0
  159.8300  211.8160  145.7840 C   0  0  0  0  0  2  0  0  0  0  0  0
  160.8330  207.5050  140.5350 C   0  0  0  0  0  3  0  0  0  0  0  0
  161.0190  210.7280  148.9100 O   0  0  0  0  0  0  0  0  0  0  0  0
  161.1040  212.5440  140.0450 C   0  0  0  0  0  2  0  0  0  0  0  0
  163.8240  207.0850  137.6360 O   0  0  0  0  0  1  0  0  0  0  0  0
  161.2140  209.5280  148.2030 C   0  0  2  0  0  3  0  0  0  0  0  0
  162.0230  206.8310  140.8520 C   0  0  0  0  0  0  0  0  0  0  0  0
  160.6400  208.0230  139.2460 C   0  0  0  0  0  0  0  0  0  0  0  0
  158.8140  212.5470  139.1210 N   0  0  0  0  0  0  0  0  0  0  0  0
  160.6360  206.7650  146.0490 C   0  0  0  0  0  2  0  0  0  0  0  0
  161.7660  205.4970  144.5100 C   0  0  1  0  0  3  0  0  0  0  0  0
  161.6430  207.8850  138.2810 C   0  0  0  0  0  3  0  0  0  0  0  0
  159.7310  211.2660  144.3650 C   0  0  0  0  0  2  0  0  0  0  0  0
  159.3240  212.2060  141.4750 C   0  0  0  0  0  0  0  0  0  0  0  0
  160.9680  211.1660  146.5560 C   0  0  2  0  0  3  0  0  0  0  0  0
  160.6810  209.7250  146.8120 C   0  0  0  0  0  2  0  0  0  0  0  0
  162.2570  206.2630  142.1490 N   0  0  0  0  0  2  0  0  0  0  0  0
  162.0470  211.3050  143.8030 O   0  0  0  0  0  1  0  0  0  0  0  0
  158.6750  211.1680  138.7010 C   0  0  0  0  0  0  0  0  0  0  0  0
  160.8070  211.8410  143.4490 C   0  0  1  0  0  3  0  0  0  0  0  0
  159.5410  210.1590  139.2310 N   0  0  0  0  0  2  0  0  0  0  0  0
  163.0180  206.6990  139.8760 C   0  0  0  0  0  3  0  0  0  0  0  0
  160.5300  208.3460  148.9120 C   0  0  1  0  0  3  0  0  0  0  0  0
  161.3350  206.1960  143.2470 C   0  0  0  0  0  0  0  0  0  0  0  0
  161.6010  211.8470  141.1770 O   0  0  0  0  0  0  0  0  0  0  0  0
  159.6570  212.9420  140.2600 C   0  0  1  0  0  3  0  0  0  0  0  0
  160.5050  211.4840  141.9940 C   0  0  2  0  0  3  0  0  0  0  0  0
  158.2080  212.1670  141.9700 O   0  0  0  0  0  0  0  0  0  0  0  0
  160.1680  206.6600  143.1400 O   0  0  0  0  0  0  0  0  0  0  0  0
  160.8230  206.9910  148.2480 C   0  0  0  0  0  2  0  0  0  0  0  0
  159.3890  208.7520  138.9040 C   0  0  0  0  0  2  0  0  0  0  0  0
  159.8970  206.7280  147.2340 O   0  0  0  0  0  0  0  0  0  0  0  0
  164.1380  211.1820  148.3770 C   0  0  0  0  0  2  0  0  0  0  0  0
  162.3460  212.6020  148.1420 C   0  0  1  0  0  3  0  0  0  0  0  0
  165.0980  211.9220  147.6410 O   0  0  0  0  0  0  0  0  0  0  0  0
  163.2440  212.0210  149.0750 O   0  0  0  0  0  0  0  0  0  0  0  0
  164.8740  214.2070  147.8030 O   0  0  0  0  0  1  0  0  0  0  0  0
  164.5380  213.0830  147.0430 C   0  0  2  0  0  3  0  0  0  0  0  0
  163.0140  213.0050  146.8130 C   0  0  2  0  0  3  0  0  0  0  0  0
  162.4480  214.3210  146.2590 C   0  0  1  0  0  3  0  0  0  0  0  0
  162.7610  214.4520  144.9040 O   0  0  0  0  0  1  0  0  0  0  0  0
  160.1320  214.4000  145.3180 O   0  0  0  0  0  0  0  0  0  0  0  0
  160.9670  214.3970  146.4280 C   0  0  0  0  0  0  0  0  0  0  0  0
  160.4710  214.4530  147.5830 O   0  0  0  0  0  1  0  0  0  0  0  0
  161.5530  207.1950  150.6160 C   0  0  0  0  0  1  0  0  0  0  0  0
  160.7770  208.3250  150.3040 O   0  0  0  0  0  0  0  0  0  0  0  0
  158.1110  213.5990  138.4330 C   0  0  0  0  0  0  0  0  0  0  0  0
  158.4810  213.9840  137.2140 C   0  0  0  0  0  2  0  0  0  0  0  0
  157.0140  214.3480  139.1180 C   0  0  0  0  0  2  0  0  0  0  0  0
  155.7200  214.1890  138.3390 C   0  0  0  0  0  1  0  0  0  0  0  0
  163.1450  205.9540  144.9930 C   0  0  0  0  0  2  0  0  0  0  0  0
  163.7220  204.9380  145.9610 C   0  0  0  0  0  2  0  0  0  0  0  0
  162.9790  205.0200  147.2830 C   0  0  0  0  0  2  0  0  0  0  0  0
  161.4190  203.8100  148.8120 C   0  0  0  0  0  1  0  0  0  0  0  0
  162.3890  203.6660  147.6460 C   0  0  1  0  0  3  0  0  0  0  0  0
  162.6900  202.8100  145.4380 F   0  0  0  0  0  0  0  0  0  0  0  0
  161.7430  202.9970  146.4300 C   0  0  1  0  0  3  0  0  0  0  0  0
  161.0790  201.6690  146.7790 C   0  0  0  0  0  2  0  0  0  0  0  0
  159.9400  201.8950  147.5290 F   0  0  0  0  0  0  0  0  0  0  0  0
  1 23  2  0  0  0  0
  2 14  1  0  0  0  0
  3 38  1  0  0  0  0
  3  7  1  1  0  0  0
  4 26  1  0  0  0  0
  6 11  1  0  0  0  0
  8 29  1  0  0  0  0
  9  4  1  0  0  0  0
 10 20  1  6  0  0  0
 10  7  1  0  0  0  0
 10 27  1  0  0  0  0
 11 21  1  0  0  0  0
 12  6  2  0  0  0  0
 13 30  1  0  0  0  0
 14 36  1  0  0  0  0
 15 55  1  1  0  0  0
 15  2  1  0  0  0  0
 16  4  2  0  0  0  0
 16 12  1  0  0  0  0
 17  5  1  0  0  0  0
 18 32  2  0  0  0  0
 18 31  1  0  0  0  0
 19  5  1  6  0  0  0
 19 20  1  0  0  0  0
 19  3  1  0  0  0  0
 21 28  1  0  0  0  0
 23 13  1  0  0  0  0
 23 25  1  0  0  0  0
 24 22  1  1  0  0  0
 24 17  1  0  0  0  0
 26 11  2  0  0  0  0
 27 50  1  1  0  0  0
 28 15  1  0  0  0  0
 30  8  1  6  0  0  0
 30 18  1  0  0  0  0
 31 29  1  6  0  0  0
 31 24  1  0  0  0  0
 33 28  2  0  0  0  0
 34 27  1  0  0  0  0
 35 25  1  0  0  0  0
 35 12  1  0  0  0  0
 36 34  1  0  0  0  0
 37 40  1  0  0  0  0
 38 40  1  1  0  0  0
 39 37  1  0  0  0  0
 42 39  1  0  0  0  0
 42 41  1  1  0  0  0
 43 44  1  1  0  0  0
 43 42  1  0  0  0  0
 43 38  1  0  0  0  0
 44 45  1  6  0  0  0
 44 47  1  0  0  0  0
 46 47  2  0  0  0  0
 47 48  1  0  0  0  0
 50 49  1  0  0  0  0
 51 53  1  0  0  0  0
 51 13  1  0  0  0  0
 52 51  2  0  0  0  0
 54 53  1  0  0  0  0
 55 56  1  0  0  0  0
 56 57  1  0  0  0  0
 57 59  1  0  0  0  0
 59 58  1  1  0  0  0
 61 60  1  6  0  0  0
 61 62  1  0  0  0  0
 61 59  1  0  0  0  0
 62 63  1  0  0  0  0
M  END
>  <MODEL>
1

>  <REMARK>
 VINA RESULT:      22.1      0.000      0.000
  Name = 
  12 active torsions:
  status: ('A' for Active; 'I' for Inactive)
    1  A    between atoms: C_3  and  C_7
    2  A    between atoms: C_4  and  C_28
    3  A    between atoms: C_7  and  N_22
    4  A    between atoms: C_8  and  C_54
    5  A    between atoms: C_14  and  C_41
    6  A    between atoms: C_14  and  C_44
    7  A    between atoms: C_15  and  C_34
    8  A    between atoms: C_15  and  C_62
    9  A    between atoms: O_18  and  C_46
   10  A    between atoms: C_24  and  C_29
   11  A    between atoms: C_29  and  C_44
   12  A    between atoms: C_41  and  C_54
                            x       y       z     vdW  Elec       q    Type
                         _______ _______ _______ _____ _____    ______ ____

>  <TORSDO>
F 12

$$$$
=
 OpenBabel11072415213D

 63 67  0  0  1  0  0  0  0  0999 V2000
  159.6590  201.8100  147.3670 O   0  0  0  0  0  0  0  0  0  0  0  0
  159.8940  208.7960  154.2740 O   0  0  0  0  0  0  0  0  0  0  0  0
  160.9780  212.3000  148.6100 C   0  0  2  0  0  3  0  0  0  0  0  0
  163.6070  202.7150  152.1340 C   0  0  0  0  0  0  0  0  0  0  0  0
  160.2300  210.0000  147.9730 C   0  0  0  0  0  2  0  0  0  0  0  0
  161.3620  204.3160  151.6560 C   0  0  0  0  0  3  0  0  0  0  0  0
  160.5190  213.0390  149.7190 O   0  0  0  0  0  0  0  0  0  0  0  0
  162.7520  204.7690  146.8010 C   0  0  0  0  0  2  0  0  0  0  0  0
  164.7230  201.9250  152.3710 O   0  0  0  0  0  1  0  0  0  0  0  0
  160.6020  212.1760  150.8250 C   0  0  2  0  0  3  0  0  0  0  0  0
  162.3000  204.7030  152.6250 C   0  0  0  0  0  0  0  0  0  0  0  0
  161.5420  203.1240  150.9390 C   0  0  0  0  0  0  0  0  0  0  0  0
  160.7440  203.4940  146.1380 N   0  0  0  0  0  0  0  0  0  0  0  0
  159.9150  209.5040  153.0620 C   0  0  0  0  0  2  0  0  0  0  0  0
  161.0470  207.9760  154.3410 C   0  0  1  0  0  3  0  0  0  0  0  0
  162.6680  202.3300  151.1760 C   0  0  0  0  0  3  0  0  0  0  0  0
  160.3080  208.5100  148.2900 C   0  0  0  0  0  2  0  0  0  0  0  0
  160.6900  205.8020  146.9020 C   0  0  0  0  0  0  0  0  0  0  0  0
  161.0320  210.8240  148.9690 C   0  0  2  0  0  3  0  0  0  0  0  0
  160.4110  210.7720  150.3250 C   0  0  0  0  0  2  0  0  0  0  0  0
  162.1480  205.9000  153.4010 N   0  0  0  0  0  2  0  0  0  0  0  0
  162.6470  208.3550  148.7180 O   0  0  0  0  0  1  0  0  0  0  0  0
  160.4130  202.8210  147.3780 C   0  0  0  0  0  0  0  0  0  0  0  0
  161.6400  207.9010  147.8650 C   0  0  1  0  0  3  0  0  0  0  0  0
  160.9290  203.3020  148.6230 N   0  0  0  0  0  2  0  0  0  0  0  0
  163.4230  203.8970  152.8550 C   0  0  0  0  0  3  0  0  0  0  0  0
  159.5620  212.5420  151.8980 C   0  0  1  0  0  3  0  0  0  0  0  0
  161.0300  206.8010  153.3970 C   0  0  0  0  0  0  0  0  0  0  0  0
  162.8580  205.8280  147.7400 O   0  0  0  0  0  0  0  0  0  0  0  0
  161.4030  204.8080  146.1080 C   0  0  1  0  0  3  0  0  0  0  0  0
  161.5690  206.3760  147.9430 C   0  0  2  0  0  3  0  0  0  0  0  0
  159.5140  206.0910  146.7440 O   0  0  0  0  0  0  0  0  0  0  0  0
  160.0290  206.5860  152.6630 O   0  0  0  0  0  0  0  0  0  0  0  0
  159.6990  211.7090  153.1830 C   0  0  0  0  0  2  0  0  0  0  0  0
  160.5620  202.7130  149.8980 C   0  0  0  0  0  2  0  0  0  0  0  0
  158.9620  210.5250  153.0840 O   0  0  0  0  0  0  0  0  0  0  0  0
  163.8230  211.1000  148.0170 C   0  0  0  0  0  2  0  0  0  0  0  0
  162.3280  212.8430  148.1220 C   0  0  1  0  0  3  0  0  0  0  0  0
  164.5050  211.4710  146.8300 O   0  0  0  0  0  0  0  0  0  0  0  0
  163.4260  212.2230  148.7730 O   0  0  0  0  0  0  0  0  0  0  0  0
  164.7160  213.7420  146.5180 O   0  0  0  0  0  1  0  0  0  0  0  0
  163.9350  212.6210  146.2210 C   0  0  2  0  0  3  0  0  0  0  0  0
  162.4560  212.8650  146.5860 C   0  0  2  0  0  3  0  0  0  0  0  0
  161.9220  214.1730  145.9820 C   0  0  1  0  0  3  0  0  0  0  0  0
  162.5720  214.4530  144.7780 O   0  0  0  0  0  1  0  0  0  0  0  0
  159.9610  213.7520  144.4880 O   0  0  0  0  0  0  0  0  0  0  0  0
  160.4500  214.1060  145.7380 C   0  0  0  0  0  0  0  0  0  0  0  0
  159.6480  214.3660  146.6720 O   0  0  0  0  0  1  0  0  0  0  0  0
  158.3060  214.4530  151.6700 C   0  0  0  0  0  1  0  0  0  0  0  0
  159.5150  213.9310  152.1630 O   0  0  0  0  0  0  0  0  0  0  0  0
  160.4240  202.8950  144.8680 C   0  0  0  0  0  0  0  0  0  0  0  0
  160.6440  201.6000  144.6500 C   0  0  0  0  0  2  0  0  0  0  0  0
  159.9310  203.7380  143.7380 C   0  0  0  0  0  2  0  0  0  0  0  0
  160.8760  204.9040  143.5160 C   0  0  0  0  0  1  0  0  0  0  0  0
  162.3640  208.7540  154.2880 C   0  0  0  0  0  2  0  0  0  0  0  0
  162.4930  209.6440  155.5100 C   0  0  0  0  0  2  0  0  0  0  0  0
  162.8230  211.0600  155.0700 C   0  0  0  0  0  2  0  0  0  0  0  0
  164.0830  211.0060  157.2260 C   0  0  0  0  0  1  0  0  0  0  0  0
  164.0480  211.5740  155.8120 C   0  0  1  0  0  3  0  0  0  0  0  0
  165.0260  210.9690  153.7210 F   0  0  0  0  0  0  0  0  0  0  0  0
  165.3330  211.2800  155.0340 C   0  0  1  0  0  3  0  0  0  0  0  0
  166.3220  212.4400  155.0820 C   0  0  0  0  0  2  0  0  0  0  0  0
  167.4020  212.1730  154.2620 F   0  0  0  0  0  0  0  0  0  0  0  0
  1 23  2  0  0  0  0
  2 15  1  0  0  0  0
  3 19  1  0  0  0  0
  3  7  1  1  0  0  0
  4  9  1  0  0  0  0
  4 26  1  0  0  0  0
  5 17  1  0  0  0  0
  6 11  1  0  0  0  0
  7 10  1  0  0  0  0
  8 29  1  0  0  0  0
 10 20  1  6  0  0  0
 10 27  1  0  0  0  0
 11 26  2  0  0  0  0
 11 21  1  0  0  0  0
 12 16  1  0  0  0  0
 12  6  2  0  0  0  0
 13 23  1  0  0  0  0
 14 36  1  0  0  0  0
 14  2  1  0  0  0  0
 15 55  1  6  0  0  0
 16  4  2  0  0  0  0
 19  5  1  6  0  0  0
 19 20  1  0  0  0  0
 23 25  1  0  0  0  0
 24 31  1  0  0  0  0
 24 17  1  0  0  0  0
 24 22  1  1  0  0  0
 25 35  1  0  0  0  0
 27 50  1  1  0  0  0
 27 34  1  0  0  0  0
 28 21  1  0  0  0  0
 28 15  1  0  0  0  0
 29 31  1  0  0  0  0
 30 13  1  0  0  0  0
 30  8  1  1  0  0  0
 30 18  1  0  0  0  0
 31 18  1  6  0  0  0
 32 18  2  0  0  0  0
 33 28  2  0  0  0  0
 35 12  1  0  0  0  0
 36 34  1  0  0  0  0
 37 40  1  0  0  0  0
 38  3  1  0  0  0  0
 38 40  1  1  0  0  0
 39 37  1  0  0  0  0
 42 41  1  1  0  0  0
 42 43  1  0  0  0  0
 42 39  1  0  0  0  0
 43 44  1  1  0  0  0
 43 38  1  0  0  0  0
 44 45  1  6  0  0  0
 46 47  2  0  0  0  0
 47 44  1  0  0  0  0
 47 48  1  0  0  0  0
 49 50  1  0  0  0  0
 51 13  1  0  0  0  0
 52 51  2  0  0  0  0
 53 51  1  0  0  0  0
 54 53  1  0  0  0  0
 55 56  1  0  0  0  0
 57 56  1  0  0  0  0
 57 59  1  0  0  0  0
 59 58  1  1  0  0  0
 61 60  1  6  0  0  0
 61 62  1  0  0  0  0
 61 59  1  0  0  0  0
 63 62  1  0  0  0  0
M  END
>  <MODEL>
2

>  <REMARK>
 VINA RESULT:      23.1      4.835      9.252
  Name = 
  12 active torsions:
  status: ('A' for Active; 'I' for Inactive)
    1  A    between atoms: C_3  and  C_7
    2  A    between atoms: C_4  and  C_28
    3  A    between atoms: C_7  and  N_22
    4  A    between atoms: C_8  and  C_54
    5  A    between atoms: C_14  and  C_41
    6  A    between atoms: C_14  and  C_44
    7  A    between atoms: C_15  and  C_34
    8  A    between atoms: C_15  and  C_62
    9  A    between atoms: O_18  and  C_46
   10  A    between atoms: C_24  and  C_29
   11  A    between atoms: C_29  and  C_44
   12  A    between atoms: C_41  and  C_54
                            x       y       z     vdW  Elec       q    Type
                         _______ _______ _______ _____ _____    ______ ____

>  <TORSDO>
F 12

$$$$
