=
 OpenBabel11072410043D

 55 59  0  0  1  0  0  0  0  0999 V2000
  161.5030  209.2920  149.2440 C   0  0  1  0  0  3  0  0  0  0  0  0
  163.0040  206.2060  144.9600 N   0  0  0  0  0  1  0  0  0  0  0  0
  160.8660  206.8350  149.5050 C   0  0  0  0  0  3  0  0  0  0  0  0
  161.2210  207.9340  148.6640 C   0  0  0  0  0  0  0  0  0  0  0  0
  160.9190  204.2930  149.3450 C   0  0  0  0  0  0  0  0  0  0  0  0
  160.6360  205.5910  148.9010 C   0  0  0  0  0  0  0  0  0  0  0  0
  161.2880  203.5150  148.2790 N   0  0  0  0  0  0  0  0  0  0  0  0
  161.5530  207.7020  147.2990 C   0  0  0  0  0  3  0  0  0  0  0  0
  160.7460  205.4730  147.5540 C   0  0  0  0  0  0  0  0  0  0  0  0
  161.0410  203.8670  150.7140 N   0  0  0  0  0  0  0  0  0  0  0  0
  161.1330  204.2700  147.2000 N   0  0  0  0  0  0  0  0  0  0  0  0
  161.9730  204.3510  146.1780 N   0  0  0  0  0  0  0  0  0  0  0  0
  161.3040  206.4270  146.7730 C   0  0  0  0  0  0  0  0  0  0  0  0
  162.0290  205.6740  145.8490 C   0  0  0  0  0  0  0  0  0  0  0  0
  160.7400  204.7560  151.8290 C   0  0  0  0  0  2  0  0  0  0  0  0
  161.9250  205.2870  152.3490 O   0  0  0  0  0  0  0  0  0  0  0  0
  161.5240  206.3920  153.1060 C   0  0  0  0  0  2  0  0  0  0  0  0
  160.5800  205.9260  154.1990 C   0  0  0  0  0  2  0  0  0  0  0  0
  160.4140  206.9880  155.2310 C   0  0  0  0  0  3  0  0  0  0  0  0
  161.3890  207.7910  155.5110 N   0  0  0  0  0  0  0  0  0  0  0  0
  161.2750  208.8080  156.5120 C   0  0  0  0  0  0  0  0  0  0  0  0
  160.1670  209.0710  157.0470 O   0  0  0  0  0  0  0  0  0  0  0  0
  162.4840  209.5590  156.9330 C   0  0  0  0  0  1  0  0  0  0  0  0
  161.4700  202.5070  151.0240 C   0  0  0  0  0  2  0  0  0  0  0  0
  161.0140  200.7350  149.5200 C   0  0  0  0  0  0  0  0  0  0  0  0
  161.4260  200.5580  148.3070 N   0  0  0  0  0  2  0  0  0  0  0  0
  160.4430  201.5120  150.5150 C   0  0  1  0  0  3  0  0  0  0  0  0
  160.7870  200.2320  150.9500 N   0  0  0  0  0  2  0  0  0  0  0  0
  161.9530  209.2680  150.6730 C   0  0  0  0  0  0  0  0  0  0  0  0
  161.2790  209.9830  151.5700 C   0  0  0  0  0  3  0  0  0  0  0  0
  163.0440  208.4940  151.0590 O   0  0  0  0  0  1  0  0  0  0  0  0
  161.2450  211.2260  153.5830 O   0  0  0  0  0  1  0  0  0  0  0  0
  161.6550  210.0190  153.0170 C   0  0  0  0  0  2  0  0  0  0  0  0
  162.3780  210.1580  148.3410 C   0  0  0  0  0  2  0  0  0  0  0  0
  162.5410  211.5860  148.8610 C   0  0  0  0  0  2  0  0  0  0  0  0
  160.7120  213.1890  149.1710 C   0  0  0  0  0  1  0  0  0  0  0  0
  160.7790  211.8730  147.0790 C   0  0  0  0  0  2  0  0  0  0  0  0
  162.4840  213.7370  147.5530 C   0  0  0  0  0  2  0  0  0  0  0  0
  161.6410  212.5900  148.1380 C   0  0  2  0  0  0  0  0  0  0  0  0
  161.8730  213.0750  145.1630 C   0  0  1  0  0  3  0  0  0  0  0  0
  163.0030  213.4140  146.1500 C   0  0  0  0  0  2  0  0  0  0  0  0
  160.5390  212.7390  145.8430 C   0  0  0  0  0  2  0  0  0  0  0  0
  161.6790  214.1750  144.2290 N   0  0  0  0  0  2  0  0  0  0  0  0
  162.3860  213.7170  142.7180 S   0  0  0  0  0  0  0  0  0  0  0  0
  163.8130  214.1800  142.6860 O   0  0  0  0  0  0  0  0  0  0  0  0
  162.3450  212.2200  142.5780 O   0  0  0  0  0  0  0  0  0  0  0  0
  161.4970  214.4520  141.4200 N   0  0  0  0  0  2  0  0  0  0  0  0
  161.0060  213.3910  140.5520 C   0  0  2  0  0  3  0  0  0  0  0  0
  162.8820  214.3050  139.2640 N   0  0  0  0  0  1  0  0  0  0  0  0
  161.7100  213.4450  139.1920 C   0  0  1  0  0  3  0  0  0  0  0  0
  162.1360  212.0750  138.7760 C   0  0  0  0  0  3  0  0  0  0  0  0
  162.8770  211.3670  139.5430 N   0  0  0  0  0  2  0  0  0  0  0  0
  159.5010  213.5490  140.3740 C   0  0  0  0  0  2  0  0  0  0  0  0
  157.5920  212.4990  140.0140 C   0  0  0  0  0  1  0  0  0  0  0  0
  158.8660  212.3210  140.5560 O   0  0  0  0  0  0  0  0  0  0  0  0
  1 34  1  6  0  0  0
  1 29  1  0  0  0  0
  2 14  1  0  0  0  0
  4  1  1  0  0  0  0
  4  3  2  0  0  0  0
  5 10  1  0  0  0  0
  6  5  1  0  0  0  0
  6  3  1  0  0  0  0
  7  5  2  0  0  0  0
  8  4  1  0  0  0  0
  9  6  2  0  0  0  0
 10 24  1  0  0  0  0
 10 15  1  0  0  0  0
 11  9  1  0  0  0  0
 11  7  1  0  0  0  0
 12 11  1  0  0  0  0
 13  8  2  0  0  0  0
 13  9  1  0  0  0  0
 14 12  2  0  0  0  0
 14 13  1  0  0  0  0
 15 16  1  0  0  0  0
 16 17  1  0  0  0  0
 17 18  1  0  0  0  0
 18 19  1  0  0  0  0
 19 20  2  0  0  0  0
 20 21  1  0  0  0  0
 21 23  1  0  0  0  0
 21 22  2  0  0  0  0
 25 27  1  0  0  0  0
 25 28  1  0  0  0  0
 26 25  2  0  0  0  0
 27 28  1  0  0  0  0
 27 24  1  1  0  0  0
 29 31  1  0  0  0  0
 29 30  2  0  0  0  0
 30 33  1  0  0  0  0
 33 32  1  0  0  0  0
 34 35  1  0  0  0  0
 37 39  1  0  0  0  0
 38 39  1  0  0  0  0
 39 35  1  0  0  0  0
 39 36  1  1  0  0  0
 40 43  1  6  0  0  0
 40 42  1  0  0  0  0
 40 41  1  0  0  0  0
 41 38  1  0  0  0  0
 42 37  1  0  0  0  0
 44 43  1  0  0  0  0
 45 44  2  0  0  0  0
 46 44  2  0  0  0  0
 47 44  1  0  0  0  0
 48 53  1  6  0  0  0
 48 47  1  0  0  0  0
 50 49  1  1  0  0  0
 50 48  1  0  0  0  0
 51 50  1  0  0  0  0
 51 52  2  0  0  0  0
 53 55  1  0  0  0  0
 54 55  1  0  0  0  0
M  END
>  <MODEL>
1

>  <REMARK>
 VINA RESULT:      -4.8      0.000      0.000
  Name = 
  22 active torsions:
  status: ('A' for Active; 'I' for Inactive)
    1  A    between atoms: C_2  and  O_19
    2  A    between atoms: C_2  and  C_20
    3  A    between atoms: C_5  and  N_55
    4  A    between atoms: S_6  and  N_21
    5  A    between atoms: S_6  and  N_38
    6  A    between atoms: C_7  and  C_39
    7  A    between atoms: C_14  and  C_51
    8  A    between atoms: C_15  and  C_18
    9  A    between atoms: C_15  and  C_46
   10  A    between atoms: C_16  and  C_39
   11  A    between atoms: C_18  and  O_35
   12  A    between atoms: C_20  and  N_21
   13  A    between atoms: C_20  and  C_26
   14  A    between atoms: C_23  and  C_29
   15  A    between atoms: C_23  and  N_41
   16  A    between atoms: C_25  and  O_35
   17  A    between atoms: C_25  and  N_41
   18  A    between atoms: C_26  and  C_32
   19  A    between atoms: C_30  and  C_45
   20  A    between atoms: C_31  and  C_39
   21  A    between atoms: C_31  and  C_45
   22  A    between atoms: C_37  and  N_38
                            x       y       z     vdW  Elec       q    Type
                         _______ _______ _______ _____ _____    ______ ____

>  <TORSDO>
F 22

$$$$
=
 OpenBabel11072410043D

 55 59  0  0  1  0  0  0  0  0999 V2000
  161.6590  209.1680  154.3190 C   0  0  1  0  0  3  0  0  0  0  0  0
  158.5570  213.5760  155.3560 N   0  0  0  0  0  1  0  0  0  0  0  0
  161.0140  210.4590  152.2150 C   0  0  0  0  0  3  0  0  0  0  0  0
  160.7720  210.1350  153.5860 C   0  0  0  0  0  0  0  0  0  0  0  0
  160.4230  212.3670  150.6350 C   0  0  0  0  0  0  0  0  0  0  0  0
  160.1610  211.3840  151.5970 C   0  0  0  0  0  0  0  0  0  0  0  0
  159.6460  213.4690  150.8850 N   0  0  0  0  0  0  0  0  0  0  0  0
  159.8450  210.9070  154.3430 C   0  0  0  0  0  3  0  0  0  0  0  0
  159.1400  211.9280  152.3060 C   0  0  0  0  0  0  0  0  0  0  0  0
  161.4900  212.3560  149.6700 N   0  0  0  0  0  0  0  0  0  0  0  0
  158.8530  213.1400  151.8940 N   0  0  0  0  0  0  0  0  0  0  0  0
  158.5530  213.9070  152.9320 N   0  0  0  0  0  0  0  0  0  0  0  0
  159.0360  211.8190  153.6510 C   0  0  0  0  0  0  0  0  0  0  0  0
  158.5850  213.0860  154.0220 C   0  0  0  0  0  0  0  0  0  0  0  0
  162.3670  211.2040  149.5030 C   0  0  0  0  0  2  0  0  0  0  0  0
  161.6330  210.0210  149.6370 O   0  0  0  0  0  0  0  0  0  0  0  0
  161.5940  209.4720  148.3520 C   0  0  0  0  0  2  0  0  0  0  0  0
  162.3200  208.1400  148.3610 C   0  0  0  0  0  2  0  0  0  0  0  0
  161.7730  207.2420  147.3040 C   0  0  0  0  0  3  0  0  0  0  0  0
  162.4440  206.2110  146.9060 N   0  0  0  0  0  0  0  0  0  0  0  0
  161.9620  205.3380  145.8770 C   0  0  0  0  0  0  0  0  0  0  0  0
  162.5750  204.2790  145.5860 O   0  0  0  0  0  0  0  0  0  0  0  0
  160.7160  205.6820  145.1490 C   0  0  0  0  0  1  0  0  0  0  0  0
  161.7200  213.5150  148.8150 C   0  0  0  0  0  2  0  0  0  0  0  0
  161.1610  213.2690  146.5260 C   0  0  0  0  0  0  0  0  0  0  0  0
  160.0320  212.9470  145.9840 N   0  0  0  0  0  2  0  0  0  0  0  0
  162.1800  213.0610  147.4410 C   0  0  1  0  0  3  0  0  0  0  0  0
  162.3900  214.1780  146.6340 N   0  0  0  0  0  2  0  0  0  0  0  0
  162.0010  209.5850  155.7170 C   0  0  0  0  0  0  0  0  0  0  0  0
  162.9870  210.4590  155.9020 C   0  0  0  0  0  3  0  0  0  0  0  0
  161.2850  209.0840  156.8000 O   0  0  0  0  0  1  0  0  0  0  0  0
  164.2540  212.0270  157.1420 O   0  0  0  0  0  1  0  0  0  0  0  0
  163.3970  210.9330  157.2600 C   0  0  0  0  0  2  0  0  0  0  0  0
  161.1830  207.7210  154.2120 C   0  0  0  0  0  2  0  0  0  0  0  0
  160.5640  207.3960  152.8540 C   0  0  0  0  0  2  0  0  0  0  0  0
  162.6930  207.2960  151.6410 C   0  0  0  0  0  1  0  0  0  0  0  0
  160.7350  206.1340  150.6760 C   0  0  0  0  0  2  0  0  0  0  0  0
  161.9080  205.2670  152.7930 C   0  0  0  0  0  2  0  0  0  0  0  0
  161.4550  206.5000  151.9910 C   0  0  2  0  0  0  0  0  0  0  0  0
  160.6300  203.6880  151.2450 C   0  0  1  0  0  3  0  0  0  0  0  0
  160.9050  204.1150  152.6970 C   0  0  0  0  0  2  0  0  0  0  0  0
  161.0760  204.7210  150.2020 C   0  0  0  0  0  2  0  0  0  0  0  0
  161.2720  202.4110  150.9700 N   0  0  0  0  0  2  0  0  0  0  0  0
  160.3600  201.6160  149.7330 S   0  0  0  0  0  0  0  0  0  0  0  0
  160.5660  200.1350  149.8500 O   0  0  0  0  0  0  0  0  0  0  0  0
  158.8990  201.9300  149.9060 O   0  0  0  0  0  0  0  0  0  0  0  0
  160.8980  202.1660  148.1770 N   0  0  0  0  0  2  0  0  0  0  0  0
  160.3120  201.2980  147.1640 C   0  0  2  0  0  3  0  0  0  0  0  0
  162.4580  200.1380  147.4150 N   0  0  0  0  0  1  0  0  0  0  0  0
  161.4030  200.4750  146.4710 C   0  0  1  0  0  3  0  0  0  0  0  0
  160.8250  199.2150  145.9160 C   0  0  0  0  0  3  0  0  0  0  0  0
  161.5760  198.3670  145.3180 N   0  0  0  0  0  2  0  0  0  0  0  0
  159.5680  202.1530  146.1460 C   0  0  0  0  0  2  0  0  0  0  0  0
  159.6660  202.7970  144.0360 C   0  0  0  0  0  1  0  0  0  0  0  0
  159.8050  201.6770  144.8560 O   0  0  0  0  0  0  0  0  0  0  0  0
  1 34  1  1  0  0  0
  1 29  1  0  0  0  0
  3  4  1  0  0  0  0
  4  1  1  0  0  0  0
  4  8  2  0  0  0  0
  5  7  2  0  0  0  0
  5  6  1  0  0  0  0
  6  3  2  0  0  0  0
  6  9  1  0  0  0  0
  7 11  1  0  0  0  0
  9 13  2  0  0  0  0
 10  5  1  0  0  0  0
 11  9  1  0  0  0  0
 11 12  1  0  0  0  0
 12 14  2  0  0  0  0
 13 14  1  0  0  0  0
 13  8  1  0  0  0  0
 14  2  1  0  0  0  0
 15 16  1  0  0  0  0
 15 10  1  0  0  0  0
 17 18  1  0  0  0  0
 17 16  1  0  0  0  0
 19 18  1  0  0  0  0
 20 19  2  0  0  0  0
 21 20  1  0  0  0  0
 22 21  2  0  0  0  0
 23 21  1  0  0  0  0
 24 10  1  0  0  0  0
 25 28  1  0  0  0  0
 25 27  1  0  0  0  0
 26 25  2  0  0  0  0
 27 24  1  1  0  0  0
 28 27  1  0  0  0  0
 29 30  2  0  0  0  0
 29 31  1  0  0  0  0
 30 33  1  0  0  0  0
 32 33  1  0  0  0  0
 35 34  1  0  0  0  0
 37 39  1  0  0  0  0
 39 36  1  6  0  0  0
 39 38  1  0  0  0  0
 39 35  1  0  0  0  0
 40 43  1  6  0  0  0
 40 41  1  0  0  0  0
 41 38  1  0  0  0  0
 42 37  1  0  0  0  0
 42 40  1  0  0  0  0
 44 45  2  0  0  0  0
 44 46  2  0  0  0  0
 44 43  1  0  0  0  0
 47 44  1  0  0  0  0
 48 53  1  6  0  0  0
 48 47  1  0  0  0  0
 50 48  1  0  0  0  0
 50 49  1  1  0  0  0
 51 50  1  0  0  0  0
 52 51  2  0  0  0  0
 54 55  1  0  0  0  0
 55 53  1  0  0  0  0
M  END
>  <MODEL>
2

>  <REMARK>
 VINA RESULT:      -3.2      4.224     10.459
  Name = 
  22 active torsions:
  status: ('A' for Active; 'I' for Inactive)
    1  A    between atoms: C_2  and  O_19
    2  A    between atoms: C_2  and  C_20
    3  A    between atoms: C_5  and  N_55
    4  A    between atoms: S_6  and  N_21
    5  A    between atoms: S_6  and  N_38
    6  A    between atoms: C_7  and  C_39
    7  A    between atoms: C_14  and  C_51
    8  A    between atoms: C_15  and  C_18
    9  A    between atoms: C_15  and  C_46
   10  A    between atoms: C_16  and  C_39
   11  A    between atoms: C_18  and  O_35
   12  A    between atoms: C_20  and  N_21
   13  A    between atoms: C_20  and  C_26
   14  A    between atoms: C_23  and  C_29
   15  A    between atoms: C_23  and  N_41
   16  A    between atoms: C_25  and  O_35
   17  A    between atoms: C_25  and  N_41
   18  A    between atoms: C_26  and  C_32
   19  A    between atoms: C_30  and  C_45
   20  A    between atoms: C_31  and  C_39
   21  A    between atoms: C_31  and  C_45
   22  A    between atoms: C_37  and  N_38
                            x       y       z     vdW  Elec       q    Type
                         _______ _______ _______ _____ _____    ______ ____

>  <TORSDO>
F 22

$$$$
=
 OpenBabel11072410043D

 55 59  0  0  1  0  0  0  0  0999 V2000
  160.8220  206.1840  151.8430 C   0  0  1  0  0  3  0  0  0  0  0  0
  159.0430  201.0910  150.8290 N   0  0  0  0  0  1  0  0  0  0  0  0
  161.7760  205.1970  149.6930 C   0  0  0  0  0  3  0  0  0  0  0  0
  161.1670  205.0090  150.9720 C   0  0  0  0  0  0  0  0  0  0  0  0
  161.9990  203.8580  147.5380 C   0  0  0  0  0  0  0  0  0  0  0  0
  162.0530  204.0590  148.9220 C   0  0  0  0  0  0  0  0  0  0  0  0
  161.5610  202.5860  147.2770 N   0  0  0  0  0  0  0  0  0  0  0  0
  160.6550  203.7300  151.3310 C   0  0  0  0  0  3  0  0  0  0  0  0
  161.7490  202.8310  149.4120 C   0  0  0  0  0  0  0  0  0  0  0  0
  162.1440  204.8670  146.5220 N   0  0  0  0  0  0  0  0  0  0  0  0
  161.4560  201.9840  148.4540 N   0  0  0  0  0  0  0  0  0  0  0  0
  160.4630  201.1960  148.8400 N   0  0  0  0  0  0  0  0  0  0  0  0
  160.9670  202.6440  150.5010 C   0  0  0  0  0  0  0  0  0  0  0  0
  160.2000  201.5380  150.1340 C   0  0  0  0  0  0  0  0  0  0  0  0
  162.5080  206.2400  146.8450 C   0  0  0  0  0  2  0  0  0  0  0  0
  161.3770  207.0600  146.7900 O   0  0  0  0  0  0  0  0  0  0  0  0
  161.2660  207.6100  148.0710 C   0  0  0  0  0  2  0  0  0  0  0  0
  162.3260  208.6830  148.2410 C   0  0  0  0  0  2  0  0  0  0  0  0
  161.7470  210.0320  147.9800 C   0  0  0  0  0  3  0  0  0  0  0  0
  162.3130  211.0930  148.4550 N   0  0  0  0  0  0  0  0  0  0  0  0
  161.7750  212.4030  148.2460 C   0  0  0  0  0  0  0  0  0  0  0  0
  160.5320  212.5960  148.2100 O   0  0  0  0  0  0  0  0  0  0  0  0
  162.6950  213.5560  148.0780 C   0  0  0  0  0  1  0  0  0  0  0  0
  161.9320  204.5320  145.1180 C   0  0  0  0  0  2  0  0  0  0  0  0
  161.2440  205.7100  143.1810 C   0  0  0  0  0  0  0  0  0  0  0  0
  161.9590  206.2770  142.2660 N   0  0  0  0  0  2  0  0  0  0  0  0
  160.9150  205.4800  144.5070 C   0  0  1  0  0  3  0  0  0  0  0  0
  160.1080  204.7770  143.6140 N   0  0  0  0  0  2  0  0  0  0  0  0
  161.1810  206.0050  153.2870 C   0  0  0  0  0  0  0  0  0  0  0  0
  160.3630  206.4940  154.2160 C   0  0  0  0  0  3  0  0  0  0  0  0
  162.3380  205.3220  153.6500 O   0  0  0  0  0  1  0  0  0  0  0  0
  160.9460  207.6130  156.2180 O   0  0  0  0  0  1  0  0  0  0  0  0
  160.6390  206.3630  155.6800 C   0  0  0  0  0  2  0  0  0  0  0  0
  161.2830  207.5180  151.2590 C   0  0  0  0  0  2  0  0  0  0  0  0
  160.3710  208.6830  151.6390 C   0  0  0  0  0  2  0  0  0  0  0  0
  162.5180  209.8680  151.6650 C   0  0  0  0  0  1  0  0  0  0  0  0
  161.2720  209.6450  153.7900 C   0  0  0  0  0  2  0  0  0  0  0  0
  160.4510  211.1860  151.9020 C   0  0  0  0  0  2  0  0  0  0  0  0
  161.1300  209.8530  152.2680 C   0  0  2  0  0  0  0  0  0  0  0  0
  159.8500  211.6430  154.3420 C   0  0  1  0  0  3  0  0  0  0  0  0
  159.3460  211.5620  152.8920 C   0  0  0  0  0  2  0  0  0  0  0  0
  161.2070  210.9620  154.5640 C   0  0  0  0  0  2  0  0  0  0  0  0
  159.9290  213.0340  154.7660 N   0  0  0  0  0  2  0  0  0  0  0  0
  159.1980  213.1520  156.3300 S   0  0  0  0  0  0  0  0  0  0  0  0
  158.9790  211.7700  156.8720 O   0  0  0  0  0  0  0  0  0  0  0  0
  160.1110  213.9100  157.2540 O   0  0  0  0  0  0  0  0  0  0  0  0
  157.6800  213.9820  156.1940 N   0  0  0  0  0  2  0  0  0  0  0  0
  156.9250  213.3660  155.1110 C   0  0  2  0  0  3  0  0  0  0  0  0
  156.8660  214.2570  152.8270 N   0  0  0  0  0  1  0  0  0  0  0  0
  156.3580  214.4410  154.1780 C   0  0  1  0  0  3  0  0  0  0  0  0
  154.8660  214.3680  154.1510 C   0  0  0  0  0  3  0  0  0  0  0  0
  154.2360  214.4240  153.0380 N   0  0  0  0  0  2  0  0  0  0  0  0
  155.7960  212.5320  155.7040 C   0  0  0  0  0  2  0  0  0  0  0  0
  154.2200  212.4810  157.2500 C   0  0  0  0  0  1  0  0  0  0  0  0
  155.5010  212.9720  156.9940 O   0  0  0  0  0  0  0  0  0  0  0  0
  1 34  1  6  0  0  0
  1 29  1  0  0  0  0
  3  4  1  0  0  0  0
  4  8  2  0  0  0  0
  4  1  1  0  0  0  0
  5  6  1  0  0  0  0
  6  9  1  0  0  0  0
  6  3  2  0  0  0  0
  7  5  2  0  0  0  0
  7 11  1  0  0  0  0
  9 13  2  0  0  0  0
 10 15  1  0  0  0  0
 10  5  1  0  0  0  0
 11 12  1  0  0  0  0
 11  9  1  0  0  0  0
 12 14  2  0  0  0  0
 13  8  1  0  0  0  0
 14 13  1  0  0  0  0
 14  2  1  0  0  0  0
 16 15  1  0  0  0  0
 16 17  1  0  0  0  0
 17 18  1  0  0  0  0
 19 18  1  0  0  0  0
 19 20  2  0  0  0  0
 21 20  1  0  0  0  0
 22 21  2  0  0  0  0
 23 21  1  0  0  0  0
 24 10  1  0  0  0  0
 25 28  1  0  0  0  0
 25 27  1  0  0  0  0
 26 25  2  0  0  0  0
 27 24  1  1  0  0  0
 28 27  1  0  0  0  0
 29 31  1  0  0  0  0
 29 30  2  0  0  0  0
 30 33  1  0  0  0  0
 33 32  1  0  0  0  0
 34 35  1  0  0  0  0
 35 39  1  0  0  0  0
 37 42  1  0  0  0  0
 38 39  1  0  0  0  0
 38 41  1  0  0  0  0
 39 36  1  6  0  0  0
 39 37  1  0  0  0  0
 40 42  1  0  0  0  0
 40 43  1  6  0  0  0
 41 40  1  0  0  0  0
 43 44  1  0  0  0  0
 44 45  2  0  0  0  0
 44 46  2  0  0  0  0
 47 44  1  0  0  0  0
 48 53  1  1  0  0  0
 48 47  1  0  0  0  0
 50 49  1  6  0  0  0
 50 48  1  0  0  0  0
 51 50  1  0  0  0  0
 52 51  2  0  0  0  0
 53 55  1  0  0  0  0
 55 54  1  0  0  0  0
M  END
>  <MODEL>
3

>  <REMARK>
 VINA RESULT:      -2.5      4.327      9.247
  Name = 
  22 active torsions:
  status: ('A' for Active; 'I' for Inactive)
    1  A    between atoms: C_2  and  O_19
    2  A    between atoms: C_2  and  C_20
    3  A    between atoms: C_5  and  N_55
    4  A    between atoms: S_6  and  N_21
    5  A    between atoms: S_6  and  N_38
    6  A    between atoms: C_7  and  C_39
    7  A    between atoms: C_14  and  C_51
    8  A    between atoms: C_15  and  C_18
    9  A    between atoms: C_15  and  C_46
   10  A    between atoms: C_16  and  C_39
   11  A    between atoms: C_18  and  O_35
   12  A    between atoms: C_20  and  N_21
   13  A    between atoms: C_20  and  C_26
   14  A    between atoms: C_23  and  C_29
   15  A    between atoms: C_23  and  N_41
   16  A    between atoms: C_25  and  O_35
   17  A    between atoms: C_25  and  N_41
   18  A    between atoms: C_26  and  C_32
   19  A    between atoms: C_30  and  C_45
   20  A    between atoms: C_31  and  C_39
   21  A    between atoms: C_31  and  C_45
   22  A    between atoms: C_37  and  N_38
                            x       y       z     vdW  Elec       q    Type
                         _______ _______ _______ _____ _____    ______ ____

>  <TORSDO>
F 22

$$$$
=
 OpenBabel11072410043D

 55 59  0  0  1  0  0  0  0  0999 V2000
  161.4220  208.0040  148.5830 C   0  0  1  0  0  3  0  0  0  0  0  0
  162.1560  203.7530  151.9760 N   0  0  0  0  0  1  0  0  0  0  0  0
  161.0210  208.5950  151.0320 C   0  0  0  0  0  3  0  0  0  0  0  0
  161.1110  207.6100  149.9990 C   0  0  0  0  0  0  0  0  0  0  0  0
  161.2040  208.6290  153.5720 C   0  0  0  0  0  0  0  0  0  0  0  0
  160.7470  208.1570  152.3350 C   0  0  0  0  0  0  0  0  0  0  0  0
  161.3830  207.5730  154.4270 N   0  0  0  0  0  0  0  0  0  0  0  0
  161.1530  206.2290  150.3400 C   0  0  0  0  0  3  0  0  0  0  0  0
  160.5690  206.8330  152.5720 C   0  0  0  0  0  0  0  0  0  0  0  0
  161.6480  209.9660  153.8650 N   0  0  0  0  0  0  0  0  0  0  0  0
  160.9480  206.4990  153.7820 N   0  0  0  0  0  0  0  0  0  0  0  0
  161.5380  205.3130  153.7570 N   0  0  0  0  0  0  0  0  0  0  0  0
  160.8800  205.8740  151.6680 C   0  0  0  0  0  0  0  0  0  0  0  0
  161.4350  204.8750  152.4680 C   0  0  0  0  0  0  0  0  0  0  0  0
  161.5400  211.0450  152.8920 C   0  0  0  0  0  2  0  0  0  0  0  0
  160.4020  211.8140  153.1560 O   0  0  0  0  0  0  0  0  0  0  0  0
  159.9260  212.2010  151.8990 C   0  0  0  0  0  2  0  0  0  0  0  0
  159.2970  213.5770  152.0110 C   0  0  0  0  0  2  0  0  0  0  0  0
  158.3760  213.6340  153.1810 C   0  0  0  0  0  3  0  0  0  0  0  0
  157.5090  212.6950  153.3820 N   0  0  0  0  0  0  0  0  0  0  0  0
  156.5920  212.7260  154.4820 C   0  0  0  0  0  0  0  0  0  0  0  0
  156.0560  211.6710  154.9100 O   0  0  0  0  0  0  0  0  0  0  0  0
  156.2750  214.0210  155.1340 C   0  0  0  0  0  1  0  0  0  0  0  0
  162.2230  210.2800  155.1680 C   0  0  0  0  0  2  0  0  0  0  0  0
  160.1350  210.5750  156.2480 C   0  0  0  0  0  0  0  0  0  0  0  0
  158.9750  210.0930  155.9420 N   0  0  0  0  0  2  0  0  0  0  0  0
  161.3100  211.2320  155.9200 C   0  0  1  0  0  3  0  0  0  0  0  0
  161.2520  210.8530  157.2600 N   0  0  0  0  0  2  0  0  0  0  0  0
  162.2090  209.2730  148.4560 C   0  0  0  0  0  0  0  0  0  0  0  0
  161.5940  210.4330  148.6700 C   0  0  0  0  0  3  0  0  0  0  0  0
  163.5640  209.2370  148.1410 O   0  0  0  0  0  1  0  0  0  0  0  0
  161.3660  212.7850  148.5520 O   0  0  0  0  0  1  0  0  0  0  0  0
  162.2980  211.7480  148.5660 C   0  0  0  0  0  2  0  0  0  0  0  0
  161.9820  206.8520  147.7510 C   0  0  0  0  0  2  0  0  0  0  0  0
  160.8950  205.9280  147.2030 C   0  0  0  0  0  2  0  0  0  0  0  0
  161.6630  203.6790  146.5990 C   0  0  0  0  0  1  0  0  0  0  0  0
  162.6960  205.6190  145.4650 C   0  0  0  0  0  2  0  0  0  0  0  0
  160.2720  204.9120  144.9850 C   0  0  0  0  0  2  0  0  0  0  0  0
  161.3810  205.0570  146.0430 C   0  0  2  0  0  0  0  0  0  0  0  0
  161.6590  206.1590  143.2410 C   0  0  1  0  0  3  0  0  0  0  0  0
  160.3020  206.0440  143.9560 C   0  0  0  0  0  2  0  0  0  0  0  0
  162.7980  205.4180  143.9530 C   0  0  0  0  0  2  0  0  0  0  0  0
  161.5440  205.6730  141.8730 N   0  0  0  0  0  2  0  0  0  0  0  0
  162.3250  206.8200  140.8380 S   0  0  0  0  0  0  0  0  0  0  0  0
  163.5070  207.4000  141.5560 O   0  0  0  0  0  0  0  0  0  0  0  0
  162.7930  206.1290  139.5870 O   0  0  0  0  0  0  0  0  0  0  0  0
  161.2050  208.0810  140.4280 N   0  0  0  0  0  2  0  0  0  0  0  0
  161.8700  208.9930  139.5070 C   0  0  2  0  0  3  0  0  0  0  0  0
  161.2050  210.5320  141.2980 N   0  0  0  0  0  1  0  0  0  0  0  0
  161.5800  210.4470  139.8940 C   0  0  1  0  0  3  0  0  0  0  0  0
  162.7870  211.2960  139.6600 C   0  0  0  0  0  3  0  0  0  0  0  0
  163.1490  211.5900  138.4680 N   0  0  0  0  0  2  0  0  0  0  0  0
  161.3820  208.7160  138.0910 C   0  0  0  0  0  2  0  0  0  0  0  0
  159.2890  208.8380  137.3970 C   0  0  0  0  0  1  0  0  0  0  0  0
  160.1650  208.0350  138.1290 O   0  0  0  0  0  0  0  0  0  0  0  0
  1 34  1  1  0  0  0
  1  4  1  0  0  0  0
  2 14  1  0  0  0  0
  3  6  1  0  0  0  0
  4  8  1  0  0  0  0
  4  3  2  0  0  0  0
  5 10  1  0  0  0  0
  5  7  2  0  0  0  0
  6  9  2  0  0  0  0
  6  5  1  0  0  0  0
  8 13  2  0  0  0  0
  9 11  1  0  0  0  0
 10 24  1  0  0  0  0
 11  7  1  0  0  0  0
 12 11  1  0  0  0  0
 13 14  1  0  0  0  0
 13  9  1  0  0  0  0
 14 12  2  0  0  0  0
 15 16  1  0  0  0  0
 15 10  1  0  0  0  0
 17 18  1  0  0  0  0
 17 16  1  0  0  0  0
 18 19  1  0  0  0  0
 19 20  2  0  0  0  0
 20 21  1  0  0  0  0
 21 22  2  0  0  0  0
 21 23  1  0  0  0  0
 25 28  1  0  0  0  0
 26 25  2  0  0  0  0
 27 24  1  6  0  0  0
 27 25  1  0  0  0  0
 27 28  1  0  0  0  0
 29  1  1  0  0  0  0
 29 30  2  0  0  0  0
 31 29  1  0  0  0  0
 32 33  1  0  0  0  0
 33 30  1  0  0  0  0
 35 34  1  0  0  0  0
 37 39  1  0  0  0  0
 38 39  1  0  0  0  0
 39 36  1  1  0  0  0
 39 35  1  0  0  0  0
 40 43  1  6  0  0  0
 40 42  1  0  0  0  0
 40 41  1  0  0  0  0
 41 38  1  0  0  0  0
 42 37  1  0  0  0  0
 44 45  2  0  0  0  0
 44 43  1  0  0  0  0
 46 44  2  0  0  0  0
 47 44  1  0  0  0  0
 48 53  1  6  0  0  0
 48 50  1  0  0  0  0
 48 47  1  0  0  0  0
 50 49  1  1  0  0  0
 51 50  1  0  0  0  0
 52 51  2  0  0  0  0
 53 55  1  0  0  0  0
 54 55  1  0  0  0  0
M  END
>  <MODEL>
4

>  <REMARK>
 VINA RESULT:      -2.1      3.233      6.749
  Name = 
  22 active torsions:
  status: ('A' for Active; 'I' for Inactive)
    1  A    between atoms: C_2  and  O_19
    2  A    between atoms: C_2  and  C_20
    3  A    between atoms: C_5  and  N_55
    4  A    between atoms: S_6  and  N_21
    5  A    between atoms: S_6  and  N_38
    6  A    between atoms: C_7  and  C_39
    7  A    between atoms: C_14  and  C_51
    8  A    between atoms: C_15  and  C_18
    9  A    between atoms: C_15  and  C_46
   10  A    between atoms: C_16  and  C_39
   11  A    between atoms: C_18  and  O_35
   12  A    between atoms: C_20  and  N_21
   13  A    between atoms: C_20  and  C_26
   14  A    between atoms: C_23  and  C_29
   15  A    between atoms: C_23  and  N_41
   16  A    between atoms: C_25  and  O_35
   17  A    between atoms: C_25  and  N_41
   18  A    between atoms: C_26  and  C_32
   19  A    between atoms: C_30  and  C_45
   20  A    between atoms: C_31  and  C_39
   21  A    between atoms: C_31  and  C_45
   22  A    between atoms: C_37  and  N_38
                            x       y       z     vdW  Elec       q    Type
                         _______ _______ _______ _____ _____    ______ ____

>  <TORSDO>
F 22

$$$$
=
 OpenBabel11072410043D

 55 60  0  0  1  0  0  0  0  0999 V2000
  160.9410  208.5920  152.2310 C   0  0  1  0  0  3  0  0  0  0  0  0
  162.2910  210.4200  157.2280 N   0  0  0  0  0  1  0  0  0  0  0  0
  159.2260  210.2100  153.2050 C   0  0  0  0  0  3  0  0  0  0  0  0
  160.3050  209.2920  153.3990 C   0  0  0  0  0  0  0  0  0  0  0  0
  158.1870  212.1400  154.5030 C   0  0  0  0  0  0  0  0  0  0  0  0
  158.6910  210.8440  154.3350 C   0  0  0  0  0  0  0  0  0  0  0  0
  158.5150  212.6000  155.7510 N   0  0  0  0  0  0  0  0  0  0  0  0
  160.9510  209.2170  154.6650 C   0  0  0  0  0  3  0  0  0  0  0  0
  159.1980  210.5640  155.5610 C   0  0  0  0  0  0  0  0  0  0  0  0
  157.6190  212.9750  153.4780 N   0  0  0  0  0  0  0  0  0  0  0  0
  159.1020  211.5890  156.3750 N   0  0  0  0  0  0  0  0  0  0  0  0
  160.1870  211.6640  157.1330 N   0  0  0  0  0  0  0  0  0  0  0  0
  160.3580  209.8890  155.7430 C   0  0  0  0  0  0  0  0  0  0  0  0
  160.9410  210.5730  156.8100 C   0  0  0  0  0  0  0  0  0  0  0  0
  157.3800  212.4830  152.1270 C   0  0  0  0  0  2  0  0  0  0  0  0
  157.6640  213.4870  151.1960 O   0  0  0  0  0  0  0  0  0  0  0  0
  158.3360  212.8380  150.1550 C   0  0  0  0  0  2  0  0  0  0  0  0
  157.6550  213.1740  148.8420 C   0  0  0  0  0  2  0  0  0  0  0  0
  158.5740  212.9130  147.6980 C   0  0  0  0  0  3  0  0  0  0  0  0
  158.7070  213.7830  146.7500 N   0  0  0  0  0  0  0  0  0  0  0  0
  159.5620  213.5580  145.6240 C   0  0  0  0  0  0  0  0  0  0  0  0
  160.5410  214.3140  145.3910 O   0  0  0  0  0  0  0  0  0  0  0  0
  159.2980  212.4110  144.7200 C   0  0  0  0  0  1  0  0  0  0  0  0
  157.2550  214.3560  153.7730 C   0  0  0  0  0  2  0  0  0  0  0  0
  155.0730  213.9520  152.9440 C   0  0  0  0  0  0  0  0  0  0  0  0
  154.6180  214.0530  151.7380 N   0  0  0  0  0  2  0  0  0  0  0  0
  155.7630  214.4530  154.0360 C   0  0  1  0  0  3  0  0  0  0  0  0
  155.2500  213.1750  154.2540 N   0  0  0  0  0  2  0  0  0  0  0  0
  161.6630  209.5040  151.2870 C   0  0  0  0  0  0  0  0  0  0  0  0
  161.6700  209.2080  149.9890 C   0  0  0  0  0  3  0  0  0  0  0  0
  162.2970  210.6510  151.7550 O   0  0  0  0  0  1  0  0  0  0  0  0
  161.7920  211.3300  148.9510 O   0  0  0  0  0  1  0  0  0  0  0  0
  162.3640  210.0590  148.9740 C   0  0  0  0  0  2  0  0  0  0  0  0
  161.7560  207.3660  152.6410 C   0  0  0  0  0  2  0  0  0  0  0  0
  160.9330  206.0790  152.6490 C   0  0  0  0  0  2  0  0  0  0  0  0
  161.9520  206.0480  150.4180 C   0  0  0  0  0  1  0  0  0  0  0  0
  159.8160  204.8480  150.7530 C   0  0  0  0  0  2  0  0  0  0  0  0
  162.0170  203.9860  151.7630 C   0  0  0  0  0  2  0  0  0  0  0  0
  161.1630  205.2160  151.4070 C   0  0  2  0  0  0  0  0  0  0  0  0
  160.0970  202.3930  151.2160 C   0  0  1  0  0  3  0  0  0  0  0  0
  161.1640  202.8100  152.2420 C   0  0  0  0  0  2  0  0  0  0  0  0
  159.8350  203.4500  150.1340 C   0  0  2  0  0  3  0  0  0  0  0  0
  160.4750  201.1360  150.5860 N   0  0  0  0  0  2  0  0  0  0  0  0
  160.3500  201.3460  148.8720 S   0  0  0  0  0  0  0  0  0  0  0  0
  161.3480  200.4510  148.1980 O   0  0  0  0  0  0  0  0  0  0  0  0
  158.9650  200.9750  148.4210 O   0  0  0  0  0  0  0  0  0  0  0  0
  160.6750  203.0030  148.4700 N   0  0  0  0  0  0  0  0  0  0  0  0
  161.3860  203.0270  147.1990 C   0  0  2  0  0  3  0  0  0  0  0  0
  162.8120  204.3930  145.7440 N   0  0  0  0  0  1  0  0  0  0  0  0
  162.0820  204.3790  147.0030 C   0  0  1  0  0  3  0  0  0  0  0  0
  161.0750  205.4820  146.9940 C   0  0  0  0  0  3  0  0  0  0  0  0
  161.4550  206.7040  147.0100 N   0  0  0  0  0  2  0  0  0  0  0  0
  160.3950  202.7750  146.0690 C   0  0  0  0  0  2  0  0  0  0  0  0
  159.6260  200.9140  145.1610 C   0  0  0  0  0  1  0  0  0  0  0  0
  160.7920  201.6640  145.3240 O   0  0  0  0  0  0  0  0  0  0  0  0
  1 34  1  1  0  0  0
  1  4  1  0  0  0  0
  3  4  2  0  0  0  0
  3  6  1  0  0  0  0
  4  8  1  0  0  0  0
  5  7  2  0  0  0  0
  6  5  1  0  0  0  0
  6  9  2  0  0  0  0
  7 11  1  0  0  0  0
  8 13  2  0  0  0  0
  9 13  1  0  0  0  0
  9 11  1  0  0  0  0
 10 24  1  0  0  0  0
 10  5  1  0  0  0  0
 11 12  1  0  0  0  0
 13 14  1  0  0  0  0
 14 12  2  0  0  0  0
 14  2  1  0  0  0  0
 15 10  1  0  0  0  0
 16 15  1  0  0  0  0
 17 16  1  0  0  0  0
 18 17  1  0  0  0  0
 19 18  1  0  0  0  0
 20 19  2  0  0  0  0
 21 20  1  0  0  0  0
 22 21  2  0  0  0  0
 23 21  1  0  0  0  0
 25 27  1  0  0  0  0
 25 28  1  0  0  0  0
 26 25  2  0  0  0  0
 27 24  1  6  0  0  0
 27 28  1  0  0  0  0
 29 31  1  0  0  0  0
 29  1  1  0  0  0  0
 30 29  2  0  0  0  0
 32 33  1  0  0  0  0
 33 30  1  0  0  0  0
 34 35  1  0  0  0  0
 37 39  1  0  0  0  0
 38 41  1  0  0  0  0
 39 36  1  6  0  0  0
 39 38  1  0  0  0  0
 39 35  1  0  0  0  0
 40 41  1  1  0  0  0
 42 37  1  1  0  0  0
 42 40  1  0  0  0  0
 43 40  1  0  0  0  0
 44 43  1  0  0  0  0
 45 44  2  0  0  0  0
 46 44  2  0  0  0  0
 47 44  1  0  0  0  0
 47 42  1  0  0  0  0
 48 53  1  6  0  0  0
 48 47  1  0  0  0  0
 50 49  1  6  0  0  0
 50 48  1  0  0  0  0
 51 50  1  0  0  0  0
 51 52  2  0  0  0  0
 54 55  1  0  0  0  0
 55 53  1  0  0  0  0
M  END
>  <MODEL>
5

>  <REMARK>
 VINA RESULT:      -2.0      4.291     10.682
  Name = 
  22 active torsions:
  status: ('A' for Active; 'I' for Inactive)
    1  A    between atoms: C_2  and  O_19
    2  A    between atoms: C_2  and  C_20
    3  A    between atoms: C_5  and  N_55
    4  A    between atoms: S_6  and  N_21
    5  A    between atoms: S_6  and  N_38
    6  A    between atoms: C_7  and  C_39
    7  A    between atoms: C_14  and  C_51
    8  A    between atoms: C_15  and  C_18
    9  A    between atoms: C_15  and  C_46
   10  A    between atoms: C_16  and  C_39
   11  A    between atoms: C_18  and  O_35
   12  A    between atoms: C_20  and  N_21
   13  A    between atoms: C_20  and  C_26
   14  A    between atoms: C_23  and  C_29
   15  A    between atoms: C_23  and  N_41
   16  A    between atoms: C_25  and  O_35
   17  A    between atoms: C_25  and  N_41
   18  A    between atoms: C_26  and  C_32
   19  A    between atoms: C_30  and  C_45
   20  A    between atoms: C_31  and  C_39
   21  A    between atoms: C_31  and  C_45
   22  A    between atoms: C_37  and  N_38
                            x       y       z     vdW  Elec       q    Type
                         _______ _______ _______ _____ _____    ______ ____

>  <TORSDO>
F 22

$$$$
=
 OpenBabel11072410043D

 55 59  0  0  1  0  0  0  0  0999 V2000
  160.5580  213.6080  144.1550 C   0  0  1  0  0  3  0  0  0  0  0  0
  164.0390  212.9640  139.9610 N   0  0  0  0  0  1  0  0  0  0  0  0
  159.4630  213.9650  141.8790 C   0  0  0  0  0  3  0  0  0  0  0  0
  160.6420  213.9150  142.6870 C   0  0  0  0  0  0  0  0  0  0  0  0
  158.9120  213.7530  139.4010 C   0  0  0  0  0  0  0  0  0  0  0  0
  159.6140  214.2370  140.5120 C   0  0  0  0  0  0  0  0  0  0  0  0
  159.7750  213.5960  138.3480 N   0  0  0  0  0  0  0  0  0  0  0  0
  161.9240  213.9100  142.0680 C   0  0  0  0  0  3  0  0  0  0  0  0
  160.8540  214.4520  140.0070 C   0  0  0  0  0  0  0  0  0  0  0  0
  157.5580  213.2660  139.3930 N   0  0  0  0  0  0  0  0  0  0  0  0
  160.9430  214.0700  138.7550 N   0  0  0  0  0  0  0  0  0  0  0  0
  162.1280  213.5160  138.5370 N   0  0  0  0  0  0  0  0  0  0  0  0
  161.9880  214.1800  140.6940 C   0  0  0  0  0  0  0  0  0  0  0  0
  162.8180  213.6460  139.7070 C   0  0  0  0  0  0  0  0  0  0  0  0
  156.6990  213.3530  140.5670 C   0  0  0  0  0  2  0  0  0  0  0  0
  155.8420  214.4520  140.4520 O   0  0  0  0  0  0  0  0  0  0  0  0
  155.1080  214.2180  139.2850 C   0  0  0  0  0  2  0  0  0  0  0  0
  153.6760  213.8840  139.6610 C   0  0  0  0  0  2  0  0  0  0  0  0
  153.3420  212.4910  139.2510 C   0  0  0  0  0  3  0  0  0  0  0  0
  153.6270  211.4930  140.0220 N   0  0  0  0  0  0  0  0  0  0  0  0
  153.3420  210.1380  139.6530 C   0  0  0  0  0  0  0  0  0  0  0  0
  153.6330  209.7030  138.5090 O   0  0  0  0  0  0  0  0  0  0  0  0
  152.7030  209.2300  140.6360 C   0  0  0  0  0  1  0  0  0  0  0  0
  157.0000  212.6680  138.1850 C   0  0  0  0  0  2  0  0  0  0  0  0
  158.0550  210.6410  138.8100 C   0  0  0  0  0  0  0  0  0  0  0  0
  158.6250  210.3200  139.9260 N   0  0  0  0  0  2  0  0  0  0  0  0
  157.8610  211.4990  137.7400 C   0  0  1  0  0  3  0  0  0  0  0  0
  157.0760  210.3490  137.6680 N   0  0  0  0  0  2  0  0  0  0  0  0
  159.1770  213.2890  144.6390 C   0  0  0  0  0  0  0  0  0  0  0  0
  158.4180  214.2760  145.1100 C   0  0  0  0  0  3  0  0  0  0  0  0
  158.6880  211.9870  144.5780 O   0  0  0  0  0  1  0  0  0  0  0  0
  157.0680  213.3560  146.8220 O   0  0  0  0  0  1  0  0  0  0  0  0
  157.0280  214.0520  145.6130 C   0  0  0  0  0  2  0  0  0  0  0  0
  161.6150  212.6060  144.6180 C   0  0  0  0  0  2  0  0  0  0  0  0
  162.6060  213.2030  145.6150 C   0  0  0  0  0  2  0  0  0  0  0  0
  161.5560  214.4360  147.4570 C   0  0  0  0  0  1  0  0  0  0  0  0
  163.3250  212.7940  147.9980 C   0  0  0  0  0  2  0  0  0  0  0  0
  161.0030  212.0520  147.1790 C   0  0  0  0  0  2  0  0  0  0  0  0
  162.1330  213.0920  147.0660 C   0  0  2  0  0  0  0  0  0  0  0  0
  162.4410  210.5320  148.6440 C   0  0  1  0  0  3  0  0  0  0  0  0
  161.5420  210.6370  147.4010 C   0  0  0  0  0  2  0  0  0  0  0  0
  162.9350  211.8870  149.1660 C   0  0  0  0  0  2  0  0  0  0  0  0
  161.7400  209.8280  149.7080 N   0  0  0  0  0  2  0  0  0  0  0  0
  162.0050  208.1320  149.4850 S   0  0  0  0  0  0  0  0  0  0  0  0
  162.1030  207.8430  148.0170 O   0  0  0  0  0  0  0  0  0  0  0  0
  163.2900  207.7330  150.1570 O   0  0  0  0  0  0  0  0  0  0  0  0
  160.6820  207.2460  150.1770 N   0  0  0  0  0  2  0  0  0  0  0  0
  161.2340  206.2250  151.0560 C   0  0  2  0  0  3  0  0  0  0  0  0
  160.3670  204.4280  149.6290 N   0  0  0  0  0  1  0  0  0  0  0  0
  160.3880  204.9490  150.9880 C   0  0  1  0  0  3  0  0  0  0  0  0
  160.9490  203.9070  151.9010 C   0  0  0  0  0  3  0  0  0  0  0  0
  161.1780  202.7240  151.4680 N   0  0  0  0  0  2  0  0  0  0  0  0
  161.2680  206.7610  152.4820 C   0  0  0  0  0  2  0  0  0  0  0  0
  160.9100  208.4650  153.8400 C   0  0  0  0  0  1  0  0  0  0  0  0
  160.7120  208.0400  152.5260 O   0  0  0  0  0  0  0  0  0  0  0  0
  1 34  1  6  0  0  0
  1 29  1  0  0  0  0
  3  4  1  0  0  0  0
  4  1  1  0  0  0  0
  5  6  1  0  0  0  0
  6  3  2  0  0  0  0
  7 11  1  0  0  0  0
  7  5  2  0  0  0  0
  8  4  2  0  0  0  0
  9  6  1  0  0  0  0
  9 13  2  0  0  0  0
 10  5  1  0  0  0  0
 10 15  1  0  0  0  0
 11  9  1  0  0  0  0
 12 11  1  0  0  0  0
 12 14  2  0  0  0  0
 13  8  1  0  0  0  0
 14  2  1  0  0  0  0
 14 13  1  0  0  0  0
 16 15  1  0  0  0  0
 17 18  1  0  0  0  0
 17 16  1  0  0  0  0
 19 18  1  0  0  0  0
 19 20  2  0  0  0  0
 21 20  1  0  0  0  0
 21 23  1  0  0  0  0
 22 21  2  0  0  0  0
 24 10  1  0  0  0  0
 25 26  2  0  0  0  0
 27 24  1  1  0  0  0
 27 25  1  0  0  0  0
 28 27  1  0  0  0  0
 28 25  1  0  0  0  0
 29 30  2  0  0  0  0
 30 33  1  0  0  0  0
 31 29  1  0  0  0  0
 33 32  1  0  0  0  0
 34 35  1  0  0  0  0
 35 39  1  0  0  0  0
 37 42  1  0  0  0  0
 38 41  1  0  0  0  0
 39 38  1  0  0  0  0
 39 36  1  1  0  0  0
 39 37  1  0  0  0  0
 40 42  1  0  0  0  0
 40 43  1  1  0  0  0
 41 40  1  0  0  0  0
 44 43  1  0  0  0  0
 44 46  2  0  0  0  0
 44 47  1  0  0  0  0
 45 44  2  0  0  0  0
 47 48  1  0  0  0  0
 48 53  1  1  0  0  0
 50 49  1  6  0  0  0
 50 48  1  0  0  0  0
 50 51  1  0  0  0  0
 52 51  2  0  0  0  0
 53 55  1  0  0  0  0
 55 54  1  0  0  0  0
M  END
>  <MODEL>
6

>  <REMARK>
 VINA RESULT:      -1.9      3.347     12.332
  Name = 
  22 active torsions:
  status: ('A' for Active; 'I' for Inactive)
    1  A    between atoms: C_2  and  O_19
    2  A    between atoms: C_2  and  C_20
    3  A    between atoms: C_5  and  N_55
    4  A    between atoms: S_6  and  N_21
    5  A    between atoms: S_6  and  N_38
    6  A    between atoms: C_7  and  C_39
    7  A    between atoms: C_14  and  C_51
    8  A    between atoms: C_15  and  C_18
    9  A    between atoms: C_15  and  C_46
   10  A    between atoms: C_16  and  C_39
   11  A    between atoms: C_18  and  O_35
   12  A    between atoms: C_20  and  N_21
   13  A    between atoms: C_20  and  C_26
   14  A    between atoms: C_23  and  C_29
   15  A    between atoms: C_23  and  N_41
   16  A    between atoms: C_25  and  O_35
   17  A    between atoms: C_25  and  N_41
   18  A    between atoms: C_26  and  C_32
   19  A    between atoms: C_30  and  C_45
   20  A    between atoms: C_31  and  C_39
   21  A    between atoms: C_31  and  C_45
   22  A    between atoms: C_37  and  N_38
                            x       y       z     vdW  Elec       q    Type
                         _______ _______ _______ _____ _____    ______ ____

>  <TORSDO>
F 22

$$$$
