=
 OpenBabel11072415193D

 63 67  0  0  1  0  0  0  0  0999 V2000
  161.8210  209.1740  148.5030 C   0  0  2  0  0  3  0  0  0  0  0  0
  161.9090  211.9780  154.2480 C   0  0  0  0  0  1  0  0  0  0  0  0
  159.8810  211.0660  152.9590 C   0  0  2  0  0  3  0  0  0  0  0  0
  161.5750  210.3720  146.3390 N   0  0  0  0  0  2  0  0  0  0  0  0
  162.0940  209.8820  152.8880 C   0  0  0  0  0  2  0  0  0  0  0  0
  156.7470  212.9220  147.4230 C   0  0  0  0  0  1  0  0  0  0  0  0
  162.5380  208.1100  151.3670 O   0  0  0  0  0  1  0  0  0  0  0  0
  161.4050  211.2320  153.0210 C   0  0  2  0  0  3  0  0  0  0  0  0
  161.8500  213.3100  144.3160 C   0  0  0  0  0  0  0  0  0  0  0  0
  159.1940  212.9920  147.1620 C   0  0  0  0  0  3  0  0  0  0  0  0
  162.0680  209.4220  151.4370 C   0  0  2  0  0  3  0  0  0  0  0  0
  163.4430  210.8990  148.3780 O   0  0  0  0  0  0  0  0  0  0  0  0
  159.8440  210.7030  148.0010 C   0  0  0  0  0  2  0  0  0  0  0  0
  159.6920  213.2920  151.8150 O   0  0  0  0  0  0  0  0  0  0  0  0
  158.1760  214.2680  150.1800 C   0  0  0  0  0  2  0  0  0  0  0  0
  159.2510  211.9710  151.9470 C   0  0  0  0  0  0  0  0  0  0  0  0
  161.0310  211.6670  146.1730 C   0  0  0  0  0  0  0  0  0  0  0  0
  160.8650  209.6990  147.4240 C   0  0  2  0  0  3  0  0  0  0  0  0
  162.9580  210.3340  150.5950 C   0  0  0  0  0  2  0  0  0  0  0  0
  162.7350  214.4500  143.8230 C   0  0  0  0  0  2  0  0  0  0  0  0
  158.1000  214.4530  148.7380 N   0  0  0  0  0  2  0  0  0  0  0  0
  159.6200  214.0010  150.5860 C   0  0  0  0  0  2  0  0  0  0  0  0
  161.8280  213.8580  142.8950 C   0  0  0  0  0  2  0  0  0  0  0  0
  158.0700  213.1300  148.1330 C   0  0  1  0  0  3  0  0  0  0  0  0
  162.7760  210.1860  149.1090 C   0  0  0  0  0  0  0  0  0  0  0  0
  161.4360  212.4920  145.2420 C   0  0  0  0  0  0  0  0  0  0  0  0
  158.3280  211.5250  151.2170 O   0  0  0  0  0  0  0  0  0  0  0  0
  159.9620  211.8980  147.1120 C   0  0  0  0  0  0  0  0  0  0  0  0
  157.9400  212.6230  156.9760 C   0  0  0  0  0  1  0  0  0  0  0  0
  158.3180  210.2430  156.3030 C   0  0  0  0  0  2  0  0  0  0  0  0
  157.6600  211.5720  155.9200 C   0  0  2  0  0  0  0  0  0  0  0  0
  159.2510  210.0030  155.1630 C   0  0  0  0  0  0  0  0  0  0  0  0
  158.2650  211.9410  154.6900 O   0  0  0  0  0  0  0  0  0  0  0  0
  159.1820  210.9870  154.2880 C   0  0  0  0  0  0  0  0  0  0  0  0
  155.3980  212.0440  154.2190 O   0  0  0  0  0  0  0  0  0  0  0  0
  155.1230  212.0230  156.8200 O   0  0  0  0  0  1  0  0  0  0  0  0
  155.8680  211.3520  155.6890 P   0  0  0  0  0  0  0  0  0  0  0  0
  155.4900  209.7000  155.6750 O   0  0  0  0  0  1  0  0  0  0  0  0
  160.0730  208.8840  155.0310 O   0  0  0  0  0  0  0  0  0  0  0  0
  159.7120  207.6970  155.5390 O   0  0  0  0  0  0  0  0  0  0  0  0
  160.7560  206.3040  153.8320 C   0  0  0  0  0  0  0  0  0  0  0  0
  159.6080  206.8740  154.4640 N   0  0  0  0  0  2  0  0  0  0  0  0
  161.9040  206.4830  154.3220 O   0  0  0  0  0  0  0  0  0  0  0  0
  160.5690  205.4680  152.5990 C   0  0  2  0  0  3  0  0  0  0  0  0
  162.0750  203.7720  151.6370 N   0  0  0  0  0  1  0  0  0  0  0  0
  160.2290  203.1120  152.8970 O   0  0  0  0  0  1  0  0  0  0  0  0
  161.2120  204.0920  152.7640 C   0  0  2  0  0  3  0  0  0  0  0  0
  161.0410  206.1740  151.3300 C   0  0  0  0  0  2  0  0  0  0  0  0
  159.9840  206.0700  150.2470 C   0  0  0  0  0  1  0  0  0  0  0  0
  162.4070  207.7860  148.1690 C   0  0  0  0  0  2  0  0  0  0  0  0
  161.5140  206.7880  147.4120 C   0  0  2  0  0  3  0  0  0  0  0  0
  161.9260  205.3540  147.7210 C   0  0  0  0  0  2  0  0  0  0  0  0
  163.1430  204.9980  147.0140 N   0  0  0  0  0  2  0  0  0  0  0  0
  162.7560  204.0030  146.0280 C   0  0  0  0  0  2  0  0  0  0  0  0
  160.9450  202.2920  145.7860 C   0  0  0  0  0  3  0  0  0  0  0  0
  160.0230  201.4000  146.3460 C   0  0  0  0  0  3  0  0  0  0  0  0
  161.6880  202.9160  148.0100 C   0  0  0  0  0  3  0  0  0  0  0  0
  161.7740  203.0530  146.6170 C   0  0  0  0  0  0  0  0  0  0  0  0
  159.9330  201.2690  147.7350 C   0  0  0  0  0  3  0  0  0  0  0  0
  160.7640  202.0290  148.5690 C   0  0  0  0  0  3  0  0  0  0  0  0
  161.4570  207.0700  145.9110 C   0  0  0  0  0  2  0  0  0  0  0  0
  160.1960  206.4770  145.3050 C   0  0  0  0  0  2  0  0  0  0  0  0
  159.4180  205.8950  146.3040 O   0  0  0  0  0  1  0  0  0  0  0  0
  1 50  1  6  0  0  0
  1 25  1  0  0  0  0
  3  8  1  0  0  0  0
  3 34  1  1  0  0  0
  4 18  1  0  0  0  0
  5  8  1  0  0  0  0
  8  2  1  1  0  0  0
  9 26  2  0  0  0  0
 10 24  1  0  0  0  0
 11  7  1  1  0  0  0
 11  5  1  0  0  0  0
 12 25  2  0  0  0  0
 14 16  1  0  0  0  0
 15 22  1  0  0  0  0
 16  3  1  0  0  0  0
 17  4  1  0  0  0  0
 17 28  1  0  0  0  0
 18 13  1  1  0  0  0
 18  1  1  0  0  0  0
 19 11  1  0  0  0  0
 20  9  1  0  0  0  0
 21 15  1  0  0  0  0
 22 14  1  0  0  0  0
 23 20  1  0  0  0  0
 23  9  1  0  0  0  0
 24  6  1  6  0  0  0
 24 21  1  0  0  0  0
 25 19  1  0  0  0  0
 26 17  2  0  0  0  0
 27 16  2  0  0  0  0
 28 10  2  0  0  0  0
 28 13  1  0  0  0  0
 31 30  1  0  0  0  0
 31 29  1  1  0  0  0
 32 30  1  0  0  0  0
 33 31  1  0  0  0  0
 34 33  1  0  0  0  0
 34 32  2  0  0  0  0
 35 37  2  0  0  0  0
 37 31  1  0  0  0  0
 37 36  1  0  0  0  0
 38 37  1  0  0  0  0
 39 32  1  0  0  0  0
 39 40  1  0  0  0  0
 41 43  2  0  0  0  0
 41 42  1  0  0  0  0
 42 40  1  0  0  0  0
 44 48  1  6  0  0  0
 44 47  1  0  0  0  0
 44 41  1  0  0  0  0
 47 45  1  6  0  0  0
 47 46  1  0  0  0  0
 49 48  1  0  0  0  0
 51 61  1  6  0  0  0
 51 52  1  0  0  0  0
 51 50  1  0  0  0  0
 53 52  1  0  0  0  0
 54 58  1  0  0  0  0
 54 53  1  0  0  0  0
 55 56  2  0  0  0  0
 55 58  1  0  0  0  0
 56 59  1  0  0  0  0
 57 60  1  0  0  0  0
 58 57  2  0  0  0  0
 59 60  2  0  0  0  0
 62 61  1  0  0  0  0
 62 63  1  0  0  0  0
M  END
>  <MODEL>
1

>  <REMARK>
 VINA RESULT:       8.9      0.000      0.000
  Name = 
  16 active torsions:
  status: ('A' for Active; 'I' for Inactive)
    1  A    between atoms: C_1  and  C_37
    2  A    between atoms: O_3  and  O_12
    3  A    between atoms: O_3  and  C_44
    4  A    between atoms: C_5  and  C_55
    5  A    between atoms: C_9  and  C_23
    6  A    between atoms: O_12  and  N_41
    7  A    between atoms: C_13  and  C_23
    8  A    between atoms: C_13  and  C_37
    9  A    between atoms: C_13  and  C_59
   10  A    between atoms: C_22  and  C_40
   11  A    between atoms: C_29  and  C_40
   12  A    between atoms: C_32  and  C_40
   13  A    between atoms: C_35  and  P_42
   14  A    between atoms: N_50  and  C_59
   15  A    between atoms: N_50  and  C_61
   16  A    between atoms: C_56  and  C_61
                            x       y       z     vdW  Elec       q    Type
                         _______ _______ _______ _____ _____    ______ ____

>  <TORSDO>
F 16

$$$$
=
 OpenBabel11072415193D

 63 67  0  0  1  0  0  0  0  0999 V2000
  161.6570  210.4950  148.2020 C   0  0  2  0  0  3  0  0  0  0  0  0
  160.2470  214.4530  153.0210 C   0  0  0  0  0  1  0  0  0  0  0  0
  158.8210  212.5370  152.0740 C   0  0  2  0  0  3  0  0  0  0  0  0
  161.1320  210.9230  145.8110 N   0  0  0  0  0  2  0  0  0  0  0  0
  161.3170  212.3250  152.2440 C   0  0  0  0  0  2  0  0  0  0  0  0
  155.6310  211.5870  146.3430 C   0  0  0  0  0  1  0  0  0  0  0  0
  162.5140  210.5450  151.2210 O   0  0  0  0  0  1  0  0  0  0  0  0
  160.1570  213.2890  152.0450 C   0  0  2  0  0  3  0  0  0  0  0  0
  160.4140  213.1320  143.0890 C   0  0  0  0  0  0  0  0  0  0  0  0
  157.8790  212.5310  145.9990 C   0  0  0  0  0  3  0  0  0  0  0  0
  161.5750  211.5440  150.9640 C   0  0  2  0  0  3  0  0  0  0  0  0
  162.5030  212.6230  147.5870 O   0  0  0  0  0  0  0  0  0  0  0  0
  159.2890  210.9620  147.3820 C   0  0  0  0  0  2  0  0  0  0  0  0
  157.8820  214.1530  150.4000 O   0  0  0  0  0  0  0  0  0  0  0  0
  156.2320  214.0240  148.6140 C   0  0  0  0  0  2  0  0  0  0  0  0
  157.9700  212.8430  150.8820 C   0  0  0  0  0  0  0  0  0  0  0  0
  160.1500  211.8200  145.3310 C   0  0  0  0  0  0  0  0  0  0  0  0
  160.6550  210.3220  147.0540 C   0  0  2  0  0  3  0  0  0  0  0  0
  162.1090  212.4880  149.8880 C   0  0  0  0  0  2  0  0  0  0  0  0
  160.8300  214.3630  142.2920 C   0  0  0  0  0  2  0  0  0  0  0  0
  156.1970  213.7980  147.1770 N   0  0  0  0  0  2  0  0  0  0  0  0
  157.6350  214.4470  149.0310 C   0  0  0  0  0  2  0  0  0  0  0  0
  160.2890  213.2540  141.5760 C   0  0  0  0  0  2  0  0  0  0  0  0
  156.7190  212.4610  146.9350 C   0  0  1  0  0  3  0  0  0  0  0  0
  162.1060  211.9150  148.4970 C   0  0  0  0  0  0  0  0  0  0  0  0
  160.2760  212.4770  144.2070 C   0  0  0  0  0  0  0  0  0  0  0  0
  157.3430  211.9070  150.3200 O   0  0  0  0  0  0  0  0  0  0  0  0
  159.0070  211.8460  146.2110 C   0  0  0  0  0  0  0  0  0  0  0  0
  155.5450  213.6740  155.2840 C   0  0  0  0  0  1  0  0  0  0  0  0
  157.5970  212.2890  155.6440 C   0  0  0  0  0  2  0  0  0  0  0  0
  156.3060  212.4420  154.8350 C   0  0  2  0  0  0  0  0  0  0  0  0
  158.6510  212.3540  154.5890 C   0  0  0  0  0  0  0  0  0  0  0  0
  156.7310  212.5920  153.4880 O   0  0  0  0  0  0  0  0  0  0  0  0
  158.1100  212.5270  153.3990 C   0  0  0  0  0  0  0  0  0  0  0  0
  156.2390  209.5740  154.8210 O   0  0  0  0  0  1  0  0  0  0  0  0
  154.2050  210.9550  153.9270 O   0  0  0  0  0  0  0  0  0  0  0  0
  155.2730  210.9520  154.9960 P   0  0  0  0  0  0  0  0  0  0  0  0
  154.5360  210.9270  156.5210 O   0  0  0  0  0  1  0  0  0  0  0  0
  160.0200  212.2340  154.8240 O   0  0  0  0  0  0  0  0  0  0  0  0
  160.4810  211.7180  155.9720 O   0  0  0  0  0  0  0  0  0  0  0  0
  161.5780  209.5420  156.0520 C   0  0  0  0  0  0  0  0  0  0  0  0
  160.4450  210.3730  155.7910 N   0  0  0  0  0  2  0  0  0  0  0  0
  162.6260  210.0360  156.5520 O   0  0  0  0  0  0  0  0  0  0  0  0
  161.4900  208.0740  155.7520 C   0  0  2  0  0  3  0  0  0  0  0  0
  161.3860  206.5060  153.8550 N   0  0  0  0  0  1  0  0  0  0  0  0
  161.5280  208.8000  153.4660 O   0  0  0  0  0  1  0  0  0  0  0  0
  161.0080  207.8310  154.3230 C   0  0  2  0  0  3  0  0  0  0  0  0
  160.6550  207.3100  156.7780 C   0  0  0  0  0  2  0  0  0  0  0  0
  159.2340  207.1410  156.2760 C   0  0  0  0  0  1  0  0  0  0  0  0
  162.7520  209.4070  148.2210 C   0  0  0  0  0  2  0  0  0  0  0  0
  162.3270  207.9630  148.5350 C   0  0  2  0  0  3  0  0  0  0  0  0
  160.9050  207.9260  149.0820 C   0  0  0  0  0  2  0  0  0  0  0  0
  160.4030  206.5650  149.1370 N   0  0  0  0  0  2  0  0  0  0  0  0
  159.7360  206.3330  147.8670 C   0  0  0  0  0  2  0  0  0  0  0  0
  160.6140  205.9020  145.5630 C   0  0  0  0  0  3  0  0  0  0  0  0
  161.4730  205.2260  144.6880 C   0  0  0  0  0  3  0  0  0  0  0  0
  161.5470  204.6670  147.4310 C   0  0  0  0  0  3  0  0  0  0  0  0
  160.6480  205.6190  146.9330 C   0  0  0  0  0  0  0  0  0  0  0  0
  162.3660  204.2720  145.1850 C   0  0  0  0  0  3  0  0  0  0  0  0
  162.4030  203.9900  146.5570 C   0  0  0  0  0  3  0  0  0  0  0  0
  163.3220  207.2420  149.4440 C   0  0  0  0  0  2  0  0  0  0  0  0
  162.5940  206.5200  150.5650 C   0  0  0  0  0  2  0  0  0  0  0  0
  163.4590  206.3200  151.6400 O   0  0  0  0  0  1  0  0  0  0  0  0
  1 50  1  6  0  0  0
  1 25  1  0  0  0  0
  3 34  1  1  0  0  0
  4 18  1  0  0  0  0
  8  3  1  0  0  0  0
  8  5  1  0  0  0  0
  8  2  1  1  0  0  0
  9 26  2  0  0  0  0
 10 28  2  0  0  0  0
 10 24  1  0  0  0  0
 11  7  1  1  0  0  0
 11  5  1  0  0  0  0
 12 25  2  0  0  0  0
 14 16  1  0  0  0  0
 15 22  1  0  0  0  0
 16  3  1  0  0  0  0
 17  4  1  0  0  0  0
 17 28  1  0  0  0  0
 18 13  1  1  0  0  0
 18  1  1  0  0  0  0
 19 11  1  0  0  0  0
 20  9  1  0  0  0  0
 21 15  1  0  0  0  0
 22 14  1  0  0  0  0
 23 20  1  0  0  0  0
 23  9  1  0  0  0  0
 24  6  1  6  0  0  0
 24 21  1  0  0  0  0
 25 19  1  0  0  0  0
 26 17  2  0  0  0  0
 27 16  2  0  0  0  0
 28 13  1  0  0  0  0
 31 37  1  0  0  0  0
 31 29  1  1  0  0  0
 31 30  1  0  0  0  0
 32 39  1  0  0  0  0
 32 30  1  0  0  0  0
 33 31  1  0  0  0  0
 34 33  1  0  0  0  0
 34 32  2  0  0  0  0
 35 37  1  0  0  0  0
 36 37  2  0  0  0  0
 37 38  1  0  0  0  0
 39 40  1  0  0  0  0
 41 43  2  0  0  0  0
 42 40  1  0  0  0  0
 42 41  1  0  0  0  0
 44 41  1  0  0  0  0
 44 48  1  1  0  0  0
 45 47  1  0  0  0  0
 47 46  1  6  0  0  0
 47 44  1  0  0  0  0
 49 48  1  0  0  0  0
 51 50  1  1  0  0  0
 51 52  1  0  0  0  0
 51 61  1  0  0  0  0
 52 53  1  0  0  0  0
 54 53  1  0  0  0  0
 55 58  1  0  0  0  0
 56 59  1  0  0  0  0
 56 55  2  0  0  0  0
 58 57  2  0  0  0  0
 58 54  1  0  0  0  0
 59 60  2  0  0  0  0
 60 57  1  0  0  0  0
 61 62  1  0  0  0  0
 62 63  1  0  0  0  0
M  END
>  <MODEL>
2

>  <REMARK>
 VINA RESULT:      11.9      2.212      3.137
  Name = 
  16 active torsions:
  status: ('A' for Active; 'I' for Inactive)
    1  A    between atoms: C_1  and  C_37
    2  A    between atoms: O_3  and  O_12
    3  A    between atoms: O_3  and  C_44
    4  A    between atoms: C_5  and  C_55
    5  A    between atoms: C_9  and  C_23
    6  A    between atoms: O_12  and  N_41
    7  A    between atoms: C_13  and  C_23
    8  A    between atoms: C_13  and  C_37
    9  A    between atoms: C_13  and  C_59
   10  A    between atoms: C_22  and  C_40
   11  A    between atoms: C_29  and  C_40
   12  A    between atoms: C_32  and  C_40
   13  A    between atoms: C_35  and  P_42
   14  A    between atoms: N_50  and  C_59
   15  A    between atoms: N_50  and  C_61
   16  A    between atoms: C_56  and  C_61
                            x       y       z     vdW  Elec       q    Type
                         _______ _______ _______ _____ _____    ______ ____

>  <TORSDO>
F 16

$$$$
