=
 OpenBabel11072410163D

 37 39  0  0  1  0  0  0  0  0999 V2000
  161.3240  206.6320  153.4470 C   0  0  0  0  0  0  0  0  0  0  0  0
  161.8790  207.5430  152.3890 C   0  0  2  0  0  3  0  0  0  0  0  0
  161.4770  205.3810  153.3950 O   0  0  0  0  0  0  0  0  0  0  0  0
  160.6600  208.6670  154.7180 C   0  0  0  0  0  2  0  0  0  0  0  0
  160.8720  208.6640  152.1260 C   0  0  0  0  0  2  0  0  0  0  0  0
  160.4510  209.4300  153.3940 C   0  0  2  0  0  3  0  0  0  0  0  0
  160.6080  207.2200  154.5330 N   0  0  0  0  0  2  0  0  0  0  0  0
  162.2840  206.8470  151.0890 C   0  0  0  0  0  2  0  0  0  0  0  0
  161.2540  207.0290  149.9720 C   0  0  0  0  0  2  0  0  0  0  0  0
  160.7210  205.6880  149.4680 C   0  0  2  0  0  3  0  0  0  0  0  0
  160.8370  202.3570  150.8960 O   0  0  0  0  0  1  0  0  0  0  0  0
  160.5150  203.3420  149.9590 C   0  0  1  0  0  3  0  0  0  0  0  0
  160.9230  204.6460  150.4820 N   0  0  0  0  0  2  0  0  0  0  0  0
  160.8410  204.0650  147.6980 O   0  0  0  0  0  0  0  0  0  0  0  0
  161.3870  205.2800  148.1430 C   0  0  1  0  0  3  0  0  0  0  0  0
  161.2200  203.0720  148.6180 C   0  0  2  0  0  3  0  0  0  0  0  0
  160.8070  201.7180  148.0540 C   0  0  0  0  0  2  0  0  0  0  0  0
  161.6270  200.7120  148.5730 O   0  0  0  0  0  1  0  0  0  0  0  0
  161.1540  206.2610  147.1790 O   0  0  0  0  0  0  0  0  0  0  0  0
  161.9020  205.8640  146.0700 C   0  0  0  0  0  1  0  0  0  0  0  0
  161.1800  210.7670  153.4290 C   0  0  0  0  0  2  0  0  0  0  0  0
  159.0910  213.9450  152.6850 C   0  0  0  0  0  2  0  0  0  0  0  0
  160.2520  211.8840  153.5920 N   0  0  0  0  0  0  0  0  0  0  0  0
  160.0630  212.2790  151.2850 O   0  0  0  0  0  0  0  0  0  0  0  0
  159.8010  212.6480  152.4640 C   0  0  0  0  0  0  0  0  0  0  0  0
  159.9000  212.2840  154.9200 C   0  0  0  0  0  3  0  0  0  0  0  0
  158.2930  213.9450  154.0040 C   0  0  2  0  0  3  0  0  0  0  0  0
  159.0120  213.2550  155.1330 C   0  0  0  0  0  3  0  0  0  0  0  0
  156.8400  213.4470  153.8710 C   0  0  2  0  0  3  0  0  0  0  0  0
  156.7060  214.4530  151.6880 O   0  0  0  0  0  0  0  0  0  0  0  0
  156.0920  214.0250  152.7020 C   0  0  0  0  0  0  0  0  0  0  0  0
  154.7040  214.0130  152.7110 O   0  0  0  0  0  1  0  0  0  0  0  0
  156.5780  214.3950  156.2210 C   0  0  0  0  0  1  0  0  0  0  0  0
  156.0310  213.4310  155.1820 C   0  0  2  0  0  3  0  0  0  0  0  0
  155.9720  212.0350  155.7830 C   0  0  0  0  0  2  0  0  0  0  0  0
  155.8590  211.0730  154.7740 O   0  0  0  0  0  0  0  0  0  0  0  0
  155.1510  210.0270  155.3720 C   0  0  0  0  0  1  0  0  0  0  0  0
  1  7  1  0  0  0  0
  2  8  1  6  0  0  0
  2  1  1  0  0  0  0
  3  1  2  0  0  0  0
  5  2  1  0  0  0  0
  5  6  1  0  0  0  0
  6 21  1  1  0  0  0
  6  4  1  0  0  0  0
  7  4  1  0  0  0  0
  9  8  1  0  0  0  0
 10  9  1  1  0  0  0
 10 13  1  0  0  0  0
 12 13  1  0  0  0  0
 12 11  1  1  0  0  0
 14 15  1  0  0  0  0
 14 16  1  0  0  0  0
 15 19  1  6  0  0  0
 15 10  1  0  0  0  0
 16 17  1  6  0  0  0
 16 12  1  0  0  0  0
 17 18  1  0  0  0  0
 20 19  1  0  0  0  0
 21 23  1  0  0  0  0
 22 27  1  0  0  0  0
 23 26  1  0  0  0  0
 24 25  2  0  0  0  0
 25 22  1  0  0  0  0
 25 23  1  0  0  0  0
 26 28  2  0  0  0  0
 27 29  1  6  0  0  0
 27 28  1  0  0  0  0
 29 31  1  6  0  0  0
 29 34  1  0  0  0  0
 30 31  2  0  0  0  0
 31 32  1  0  0  0  0
 34 35  1  0  0  0  0
 34 33  1  1  0  0  0
 36 37  1  0  0  0  0
 36 35  1  0  0  0  0
M  END
>  <MODEL>
1

>  <REMARK>
 VINA RESULT:      -7.2      0.000      0.000
  Name = 
  12 active torsions:
  status: ('A' for Active; 'I' for Inactive)
    1  A    between atoms: C_2  and  C_11
    2  A    between atoms: O_4  and  C_5
    3  A    between atoms: C_5  and  C_16
    4  A    between atoms: C_6  and  C_36
    5  A    between atoms: O_10  and  C_33
    6  A    between atoms: C_11  and  C_21
    7  A    between atoms: C_12  and  C_21
    8  A    between atoms: N_15  and  C_18
    9  A    between atoms: C_16  and  C_20
   10  A    between atoms: C_18  and  C_28
   11  A    between atoms: C_20  and  C_32
   12  A    between atoms: C_20  and  C_35
                            x       y       z     vdW  Elec       q    Type
                         _______ _______ _______ _____ _____    ______ ____

>  <TORSDO>
F 12

$$$$
=
 OpenBabel11072410163D

 37 39  0  0  1  0  0  0  0  0999 V2000
  161.3950  206.9050  153.0670 C   0  0  0  0  0  0  0  0  0  0  0  0
  161.8850  207.9240  152.0790 C   0  0  2  0  0  3  0  0  0  0  0  0
  161.6120  205.6720  152.9130 O   0  0  0  0  0  0  0  0  0  0  0  0
  160.6480  208.7950  154.5050 C   0  0  0  0  0  2  0  0  0  0  0  0
  160.8180  209.0080  151.9190 C   0  0  0  0  0  2  0  0  0  0  0  0
  160.3780  209.6480  153.2490 C   0  0  2  0  0  3  0  0  0  0  0  0
  160.6670  207.3670  154.2050 N   0  0  0  0  0  2  0  0  0  0  0  0
  162.3050  207.3560  150.7220 C   0  0  0  0  0  2  0  0  0  0  0  0
  161.1260  206.7990  149.9210 C   0  0  0  0  0  2  0  0  0  0  0  0
  161.5920  205.8920  148.7820 C   0  0  2  0  0  3  0  0  0  0  0  0
  161.1410  206.1060  145.1920 O   0  0  0  0  0  1  0  0  0  0  0  0
  161.5940  205.5700  146.3990 C   0  0  1  0  0  3  0  0  0  0  0  0
  161.2480  206.4860  147.4860 N   0  0  0  0  0  2  0  0  0  0  0  0
  161.4690  203.6750  147.8610 O   0  0  0  0  0  0  0  0  0  0  0  0
  160.9850  204.4830  148.9020 C   0  0  1  0  0  3  0  0  0  0  0  0
  160.9600  204.1910  146.6560 C   0  0  2  0  0  3  0  0  0  0  0  0
  161.3090  203.2180  145.5370 C   0  0  0  0  0  2  0  0  0  0  0  0
  160.7350  201.9680  145.7900 O   0  0  0  0  0  1  0  0  0  0  0  0
  161.3510  203.9170  150.1230 O   0  0  0  0  0  0  0  0  0  0  0  0
  160.8060  202.6320  150.1030 C   0  0  0  0  0  1  0  0  0  0  0  0
  161.0380  211.0150  153.3820 C   0  0  0  0  0  2  0  0  0  0  0  0
  158.7230  214.0910  152.9410 C   0  0  0  0  0  2  0  0  0  0  0  0
  160.0580  212.0620  153.6620 N   0  0  0  0  0  0  0  0  0  0  0  0
  159.7010  212.5630  151.3960 O   0  0  0  0  0  0  0  0  0  0  0  0
  159.4930  212.8540  152.6060 C   0  0  0  0  0  0  0  0  0  0  0  0
  159.7670  212.3700  155.0280 C   0  0  0  0  0  3  0  0  0  0  0  0
  158.0120  213.9740  154.3040 C   0  0  2  0  0  3  0  0  0  0  0  0
  158.8390  213.2730  155.3470 C   0  0  0  0  0  3  0  0  0  0  0  0
  156.5840  213.3940  154.2300 C   0  0  2  0  0  3  0  0  0  0  0  0
  156.1440  214.0580  151.9580 O   0  0  0  0  0  0  0  0  0  0  0  0
  155.7300  213.9900  153.1460 C   0  0  0  0  0  0  0  0  0  0  0  0
  154.4370  214.3970  153.4470 O   0  0  0  0  0  1  0  0  0  0  0  0
  156.3420  214.2670  156.6110 C   0  0  0  0  0  1  0  0  0  0  0  0
  155.8650  213.2540  155.5850 C   0  0  2  0  0  3  0  0  0  0  0  0
  156.0260  211.8540  156.1580 C   0  0  0  0  0  2  0  0  0  0  0  0
  156.3180  210.9390  155.1410 O   0  0  0  0  0  0  0  0  0  0  0  0
  155.2290  210.0640  155.1410 C   0  0  0  0  0  1  0  0  0  0  0  0
  1  7  1  0  0  0  0
  2  8  1  6  0  0  0
  2  1  1  0  0  0  0
  3  1  2  0  0  0  0
  5  2  1  0  0  0  0
  5  6  1  0  0  0  0
  6 21  1  1  0  0  0
  6  4  1  0  0  0  0
  7  4  1  0  0  0  0
  9  8  1  0  0  0  0
 10 15  1  0  0  0  0
 10  9  1  1  0  0  0
 12 11  1  6  0  0  0
 12 16  1  0  0  0  0
 12 13  1  0  0  0  0
 13 10  1  0  0  0  0
 14 15  1  0  0  0  0
 15 19  1  1  0  0  0
 16 17  1  6  0  0  0
 16 14  1  0  0  0  0
 17 18  1  0  0  0  0
 20 19  1  0  0  0  0
 21 23  1  0  0  0  0
 22 27  1  0  0  0  0
 23 26  1  0  0  0  0
 24 25  2  0  0  0  0
 25 22  1  0  0  0  0
 25 23  1  0  0  0  0
 26 28  2  0  0  0  0
 27 29  1  6  0  0  0
 27 28  1  0  0  0  0
 29 31  1  6  0  0  0
 29 34  1  0  0  0  0
 30 31  2  0  0  0  0
 31 32  1  0  0  0  0
 34 35  1  0  0  0  0
 34 33  1  1  0  0  0
 36 35  1  0  0  0  0
 37 36  1  0  0  0  0
M  END
>  <MODEL>
2

>  <REMARK>
 VINA RESULT:      -7.2      1.143      2.034
  Name = 
  12 active torsions:
  status: ('A' for Active; 'I' for Inactive)
    1  A    between atoms: C_2  and  C_11
    2  A    between atoms: O_4  and  C_5
    3  A    between atoms: C_5  and  C_16
    4  A    between atoms: C_6  and  C_36
    5  A    between atoms: O_10  and  C_33
    6  A    between atoms: C_11  and  C_21
    7  A    between atoms: C_12  and  C_21
    8  A    between atoms: N_15  and  C_18
    9  A    between atoms: C_16  and  C_20
   10  A    between atoms: C_18  and  C_28
   11  A    between atoms: C_20  and  C_32
   12  A    between atoms: C_20  and  C_35
                            x       y       z     vdW  Elec       q    Type
                         _______ _______ _______ _____ _____    ______ ____

>  <TORSDO>
F 12

$$$$
=
 OpenBabel11072410163D

 37 39  0  0  1  0  0  0  0  0999 V2000
  161.2400  206.5040  153.4680 C   0  0  0  0  0  0  0  0  0  0  0  0
  161.7770  207.4530  152.4360 C   0  0  2  0  0  3  0  0  0  0  0  0
  161.3270  205.2530  153.3310 O   0  0  0  0  0  0  0  0  0  0  0  0
  160.7530  208.4820  154.8990 C   0  0  0  0  0  2  0  0  0  0  0  0
  160.8140  208.6340  152.3040 C   0  0  0  0  0  2  0  0  0  0  0  0
  160.5060  209.3370  153.6390 C   0  0  2  0  0  3  0  0  0  0  0  0
  160.6180  207.0540  154.6290 N   0  0  0  0  0  2  0  0  0  0  0  0
  162.0710  206.8240  151.0730 C   0  0  0  0  0  2  0  0  0  0  0  0
  160.9480  207.0530  150.0580 C   0  0  0  0  0  2  0  0  0  0  0  0
  160.6260  205.7830  149.2710 C   0  0  2  0  0  3  0  0  0  0  0  0
  160.7340  202.2800  150.2000 O   0  0  0  0  0  1  0  0  0  0  0  0
  160.5170  203.3820  149.3700 C   0  0  1  0  0  3  0  0  0  0  0  0
  160.7160  204.6070  150.1450 N   0  0  0  0  0  2  0  0  0  0  0  0
  161.2050  204.4650  147.3450 O   0  0  0  0  0  0  0  0  0  0  0  0
  161.5600  205.6210  148.0600 C   0  0  1  0  0  3  0  0  0  0  0  0
  161.4810  203.3600  148.1700 C   0  0  2  0  0  3  0  0  0  0  0  0
  161.2890  202.0920  147.3460 C   0  0  0  0  0  2  0  0  0  0  0  0
  160.9310  202.4220  146.0350 O   0  0  0  0  0  1  0  0  0  0  0  0
  161.4360  206.7280  147.2200 O   0  0  0  0  0  0  0  0  0  0  0  0
  160.7070  206.2690  146.1220 C   0  0  0  0  0  1  0  0  0  0  0  0
  161.3020  210.6340  153.7110 C   0  0  0  0  0  2  0  0  0  0  0  0
  159.2900  213.8980  153.1500 C   0  0  0  0  0  2  0  0  0  0  0  0
  160.4360  211.7850  153.9520 N   0  0  0  0  0  0  0  0  0  0  0  0
  160.0780  212.2040  151.6700 O   0  0  0  0  0  0  0  0  0  0  0  0
  159.9280  212.5750  152.8670 C   0  0  0  0  0  0  0  0  0  0  0  0
  160.2090  212.1900  155.3060 C   0  0  0  0  0  3  0  0  0  0  0  0
  158.6020  213.9210  154.5290 C   0  0  2  0  0  3  0  0  0  0  0  0
  159.3810  213.1950  155.5930 C   0  0  0  0  0  3  0  0  0  0  0  0
  157.1240  213.4820  154.5120 C   0  0  2  0  0  3  0  0  0  0  0  0
  156.3370  211.4560  155.5470 O   0  0  0  0  0  1  0  0  0  0  0  0
  156.9190  211.9940  154.5680 C   0  0  0  0  0  0  0  0  0  0  0  0
  157.3100  211.2140  153.4880 O   0  0  0  0  0  0  0  0  0  0  0  0
  154.7960  213.7360  153.5070 C   0  0  0  0  0  1  0  0  0  0  0  0
  156.2440  214.1940  153.4670 C   0  0  2  0  0  3  0  0  0  0  0  0
  156.7850  214.0010  152.0580 C   0  0  0  0  0  2  0  0  0  0  0  0
  155.8550  214.4420  151.1110 O   0  0  0  0  0  0  0  0  0  0  0  0
  156.3310  213.9360  149.8990 C   0  0  0  0  0  1  0  0  0  0  0  0
  1  7  1  0  0  0  0
  2  8  1  6  0  0  0
  2  1  1  0  0  0  0
  3  1  2  0  0  0  0
  5  2  1  0  0  0  0
  5  6  1  0  0  0  0
  6 21  1  1  0  0  0
  6  4  1  0  0  0  0
  7  4  1  0  0  0  0
  9  8  1  0  0  0  0
 10  9  1  1  0  0  0
 10 13  1  0  0  0  0
 12 13  1  0  0  0  0
 12 11  1  1  0  0  0
 14 15  1  0  0  0  0
 14 16  1  0  0  0  0
 15 19  1  6  0  0  0
 15 10  1  0  0  0  0
 16 17  1  6  0  0  0
 16 12  1  0  0  0  0
 18 17  1  0  0  0  0
 20 19  1  0  0  0  0
 21 23  1  0  0  0  0
 22 27  1  0  0  0  0
 23 26  1  0  0  0  0
 24 25  2  0  0  0  0
 25 22  1  0  0  0  0
 25 23  1  0  0  0  0
 26 28  2  0  0  0  0
 27 29  1  6  0  0  0
 27 28  1  0  0  0  0
 29 31  1  6  0  0  0
 31 30  1  0  0  0  0
 32 31  2  0  0  0  0
 34 33  1  6  0  0  0
 34 29  1  0  0  0  0
 35 34  1  0  0  0  0
 36 35  1  0  0  0  0
 37 36  1  0  0  0  0
M  END
>  <MODEL>
3

>  <REMARK>
 VINA RESULT:      -7.0      0.985      2.139
  Name = 
  12 active torsions:
  status: ('A' for Active; 'I' for Inactive)
    1  A    between atoms: C_2  and  C_11
    2  A    between atoms: O_4  and  C_5
    3  A    between atoms: C_5  and  C_16
    4  A    between atoms: C_6  and  C_36
    5  A    between atoms: O_10  and  C_33
    6  A    between atoms: C_11  and  C_21
    7  A    between atoms: C_12  and  C_21
    8  A    between atoms: N_15  and  C_18
    9  A    between atoms: C_16  and  C_20
   10  A    between atoms: C_18  and  C_28
   11  A    between atoms: C_20  and  C_32
   12  A    between atoms: C_20  and  C_35
                            x       y       z     vdW  Elec       q    Type
                         _______ _______ _______ _____ _____    ______ ____

>  <TORSDO>
F 12

$$$$
=
 OpenBabel11072410163D

 37 39  0  0  1  0  0  0  0  0999 V2000
  161.0390  203.0040  151.6780 C   0  0  0  0  0  0  0  0  0  0  0  0
  161.0420  203.6820  150.3380 C   0  0  2  0  0  3  0  0  0  0  0  0
  160.9160  201.7540  151.7910 O   0  0  0  0  0  0  0  0  0  0  0  0
  161.5820  205.2120  152.6920 C   0  0  0  0  0  2  0  0  0  0  0  0
  160.2790  205.0020  150.4520 C   0  0  0  0  0  2  0  0  0  0  0  0
  160.7940  205.9230  151.5730 C   0  0  2  0  0  3  0  0  0  0  0  0
  161.1830  203.8160  152.8430 N   0  0  0  0  0  2  0  0  0  0  0  0
  160.5080  202.8310  149.1850 C   0  0  0  0  0  2  0  0  0  0  0  0
  161.6160  202.3170  148.2630 C   0  0  0  0  0  2  0  0  0  0  0  0
  161.8750  203.2730  147.0980 C   0  0  2  0  0  3  0  0  0  0  0  0
  161.8370  206.8930  146.8980 O   0  0  0  0  0  1  0  0  0  0  0  0
  161.9890  205.5830  146.4380 C   0  0  1  0  0  3  0  0  0  0  0  0
  161.8530  204.6640  147.5680 N   0  0  0  0  0  2  0  0  0  0  0  0
  161.1470  203.9430  144.9070 O   0  0  0  0  0  0  0  0  0  0  0  0
  160.8490  203.0740  145.9690 C   0  0  1  0  0  3  0  0  0  0  0  0
  160.9350  205.2550  145.3650 C   0  0  2  0  0  3  0  0  0  0  0  0
  161.0620  206.2000  144.1770 C   0  0  0  0  0  2  0  0  0  0  0  0
  161.6440  205.5340  143.0940 O   0  0  0  0  0  1  0  0  0  0  0  0
  160.9090  201.7590  145.5090 O   0  0  0  0  0  0  0  0  0  0  0  0
  159.6830  201.5400  144.8800 C   0  0  0  0  0  1  0  0  0  0  0  0
  161.6330  207.0340  150.9540 C   0  0  0  0  0  2  0  0  0  0  0  0
  161.7740  210.8080  151.8240 C   0  0  0  0  0  2  0  0  0  0  0  0
  161.4630  208.2990  151.6670 N   0  0  0  0  0  0  0  0  0  0  0  0
  161.8500  209.6150  149.7620 O   0  0  0  0  0  0  0  0  0  0  0  0
  161.6730  209.5570  151.0100 C   0  0  0  0  0  0  0  0  0  0  0  0
  161.2080  208.2540  153.0740 C   0  0  0  0  0  3  0  0  0  0  0  0
  160.9340  210.7250  153.1130 C   0  0  2  0  0  3  0  0  0  0  0  0
  160.9850  209.3700  153.7690 C   0  0  0  0  0  3  0  0  0  0  0  0
  159.4820  211.2250  152.9620 C   0  0  2  0  0  3  0  0  0  0  0  0
  159.9650  213.4960  152.3260 O   0  0  0  0  0  1  0  0  0  0  0  0
  159.3330  212.4330  152.0810 C   0  0  0  0  0  0  0  0  0  0  0  0
  158.5490  212.3480  150.9390 O   0  0  0  0  0  0  0  0  0  0  0  0
  157.2740  211.8460  154.0710 C   0  0  0  0  0  1  0  0  0  0  0  0
  158.6800  211.3070  154.2740 C   0  0  2  0  0  3  0  0  0  0  0  0
  159.3940  212.1600  155.3110 C   0  0  0  0  0  2  0  0  0  0  0  0
  158.5970  213.2490  155.6810 O   0  0  0  0  0  0  0  0  0  0  0  0
  159.5060  214.1940  156.1630 C   0  0  0  0  0  1  0  0  0  0  0  0
  1  3  2  0  0  0  0
  1  7  1  0  0  0  0
  2  8  1  6  0  0  0
  2  5  1  0  0  0  0
  2  1  1  0  0  0  0
  4  7  1  0  0  0  0
  5  6  1  0  0  0  0
  6 21  1  6  0  0  0
  6  4  1  0  0  0  0
  9  8  1  0  0  0  0
 10 13  1  0  0  0  0
 10  9  1  1  0  0  0
 12 11  1  1  0  0  0
 12 13  1  0  0  0  0
 14 16  1  0  0  0  0
 14 15  1  0  0  0  0
 15 19  1  6  0  0  0
 15 10  1  0  0  0  0
 16 17  1  6  0  0  0
 16 12  1  0  0  0  0
 18 17  1  0  0  0  0
 20 19  1  0  0  0  0
 21 23  1  0  0  0  0
 22 27  1  0  0  0  0
 23 26  1  0  0  0  0
 24 25  2  0  0  0  0
 25 23  1  0  0  0  0
 25 22  1  0  0  0  0
 26 28  2  0  0  0  0
 27 29  1  6  0  0  0
 27 28  1  0  0  0  0
 29 31  1  1  0  0  0
 29 34  1  0  0  0  0
 31 30  1  0  0  0  0
 32 31  2  0  0  0  0
 34 33  1  6  0  0  0
 34 35  1  0  0  0  0
 35 36  1  0  0  0  0
 36 37  1  0  0  0  0
M  END
>  <MODEL>
4

>  <REMARK>
 VINA RESULT:      -6.4      2.218      4.357
  Name = 
  12 active torsions:
  status: ('A' for Active; 'I' for Inactive)
    1  A    between atoms: C_2  and  C_11
    2  A    between atoms: O_4  and  C_5
    3  A    between atoms: C_5  and  C_16
    4  A    between atoms: C_6  and  C_36
    5  A    between atoms: O_10  and  C_33
    6  A    between atoms: C_11  and  C_21
    7  A    between atoms: C_12  and  C_21
    8  A    between atoms: N_15  and  C_18
    9  A    between atoms: C_16  and  C_20
   10  A    between atoms: C_18  and  C_28
   11  A    between atoms: C_20  and  C_32
   12  A    between atoms: C_20  and  C_35
                            x       y       z     vdW  Elec       q    Type
                         _______ _______ _______ _____ _____    ______ ____

>  <TORSDO>
F 12

$$$$
=
 OpenBabel11072410163D

 37 39  0  0  1  0  0  0  0  0999 V2000
  161.8250  206.4630  152.7880 C   0  0  0  0  0  0  0  0  0  0  0  0
  162.0110  207.8120  152.1550 C   0  0  2  0  0  3  0  0  0  0  0  0
  162.2280  205.4050  152.2320 O   0  0  0  0  0  0  0  0  0  0  0  0
  160.9460  207.6340  154.8020 C   0  0  0  0  0  2  0  0  0  0  0  0
  160.7630  208.6570  152.4180 C   0  0  0  0  0  2  0  0  0  0  0  0
  160.3850  208.7580  153.9080 C   0  0  2  0  0  3  0  0  0  0  0  0
  161.1720  206.4000  154.0560 N   0  0  0  0  0  2  0  0  0  0  0  0
  162.3540  207.7810  150.6640 C   0  0  0  0  0  2  0  0  0  0  0  0
  161.2360  207.1780  149.8100 C   0  0  0  0  0  2  0  0  0  0  0  0
  161.7560  206.0660  148.8990 C   0  0  2  0  0  3  0  0  0  0  0  0
  162.6040  206.0340  145.3750 O   0  0  0  0  0  1  0  0  0  0  0  0
  162.4480  205.5160  146.6620 C   0  0  1  0  0  3  0  0  0  0  0  0
  162.0570  206.5990  147.5660 N   0  0  0  0  0  2  0  0  0  0  0  0
  161.2820  203.8930  147.9850 O   0  0  0  0  0  0  0  0  0  0  0  0
  160.7490  204.9070  148.7970 C   0  0  1  0  0  3  0  0  0  0  0  0
  161.3810  204.4080  146.6800 C   0  0  2  0  0  3  0  0  0  0  0  0
  161.7700  203.2680  145.7470 C   0  0  0  0  0  2  0  0  0  0  0  0
  160.6310  202.5510  145.3650 O   0  0  0  0  0  1  0  0  0  0  0  0
  160.5020  204.3870  150.0680 O   0  0  0  0  0  0  0  0  0  0  0  0
  160.8070  203.0290  149.9680 C   0  0  0  0  0  1  0  0  0  0  0  0
  160.8140  210.1220  154.4340 C   0  0  0  0  0  2  0  0  0  0  0  0
  158.9090  212.2030  157.0900 C   0  0  0  0  0  2  0  0  0  0  0  0
  159.7320  210.7840  155.1600 N   0  0  0  0  0  0  0  0  0  0  0  0
  161.1770  212.1950  156.3580 O   0  0  0  0  0  0  0  0  0  0  0  0
  160.0060  211.7600  156.1760 C   0  0  0  0  0  0  0  0  0  0  0  0
  158.3910  210.3420  154.9280 C   0  0  0  0  0  3  0  0  0  0  0  0
  157.5300  212.1490  156.4030 C   0  0  2  0  0  3  0  0  0  0  0  0
  157.3570  210.9450  155.5150 C   0  0  0  0  0  3  0  0  0  0  0  0
  157.1270  213.4490  155.6780 C   0  0  2  0  0  3  0  0  0  0  0  0
  154.9260  214.1560  155.0040 O   0  0  0  0  0  0  0  0  0  0  0  0
  155.7180  213.8970  155.9500 C   0  0  0  0  0  0  0  0  0  0  0  0
  155.2620  213.9490  157.2600 O   0  0  0  0  0  1  0  0  0  0  0  0
  158.7030  214.4530  153.9470 C   0  0  0  0  0  1  0  0  0  0  0  0
  157.5290  213.5210  154.1940 C   0  0  2  0  0  3  0  0  0  0  0  0
  156.3610  213.9540  153.3200 C   0  0  0  0  0  2  0  0  0  0  0  0
  156.8030  214.2630  152.0300 O   0  0  0  0  0  0  0  0  0  0  0  0
  155.6280  214.4520  151.2990 C   0  0  0  0  0  1  0  0  0  0  0  0
  1  7  1  0  0  0  0
  2  8  1  6  0  0  0
  2  5  1  0  0  0  0
  2  1  1  0  0  0  0
  3  1  2  0  0  0  0
  5  6  1  0  0  0  0
  6 21  1  1  0  0  0
  6  4  1  0  0  0  0
  7  4  1  0  0  0  0
  9  8  1  0  0  0  0
 10  9  1  1  0  0  0
 12 11  1  6  0  0  0
 12 16  1  0  0  0  0
 12 13  1  0  0  0  0
 13 10  1  0  0  0  0
 14 15  1  0  0  0  0
 15 10  1  0  0  0  0
 15 19  1  1  0  0  0
 16 17  1  6  0  0  0
 16 14  1  0  0  0  0
 18 17  1  0  0  0  0
 20 19  1  0  0  0  0
 21 23  1  0  0  0  0
 23 25  1  0  0  0  0
 25 24  2  0  0  0  0
 25 22  1  0  0  0  0
 26 23  1  0  0  0  0
 26 28  2  0  0  0  0
 27 29  1  6  0  0  0
 27 22  1  0  0  0  0
 28 27  1  0  0  0  0
 29 31  1  6  0  0  0
 30 31  2  0  0  0  0
 31 32  1  0  0  0  0
 34 33  1  1  0  0  0
 34 29  1  0  0  0  0
 35 34  1  0  0  0  0
 36 35  1  0  0  0  0
 37 36  1  0  0  0  0
M  END
>  <MODEL>
5

>  <REMARK>
 VINA RESULT:      -6.1      1.873      3.188
  Name = 
  12 active torsions:
  status: ('A' for Active; 'I' for Inactive)
    1  A    between atoms: C_2  and  C_11
    2  A    between atoms: O_4  and  C_5
    3  A    between atoms: C_5  and  C_16
    4  A    between atoms: C_6  and  C_36
    5  A    between atoms: O_10  and  C_33
    6  A    between atoms: C_11  and  C_21
    7  A    between atoms: C_12  and  C_21
    8  A    between atoms: N_15  and  C_18
    9  A    between atoms: C_16  and  C_20
   10  A    between atoms: C_18  and  C_28
   11  A    between atoms: C_20  and  C_32
   12  A    between atoms: C_20  and  C_35
                            x       y       z     vdW  Elec       q    Type
                         _______ _______ _______ _____ _____    ______ ____

>  <TORSDO>
F 12

$$$$
=
 OpenBabel11072410163D

 37 39  0  0  1  0  0  0  0  0999 V2000
  161.7880  205.8660  152.8430 C   0  0  0  0  0  0  0  0  0  0  0  0
  162.0390  207.1490  152.1040 C   0  0  2  0  0  3  0  0  0  0  0  0
  162.1390  204.7480  152.3740 O   0  0  0  0  0  0  0  0  0  0  0  0
  160.9680  207.2340  154.7540 C   0  0  0  0  0  2  0  0  0  0  0  0
  160.8350  208.0710  152.2950 C   0  0  0  0  0  2  0  0  0  0  0  0
  160.4630  208.3100  153.7710 C   0  0  2  0  0  3  0  0  0  0  0  0
  161.1340  205.9350  154.1100 N   0  0  0  0  0  2  0  0  0  0  0  0
  162.3800  206.9830  150.6220 C   0  0  0  0  0  2  0  0  0  0  0  0
  161.1650  207.1670  149.7100 C   0  0  0  0  0  2  0  0  0  0  0  0
  160.7890  205.8680  148.9970 C   0  0  2  0  0  3  0  0  0  0  0  0
  160.5110  202.4560  150.1900 O   0  0  0  0  0  1  0  0  0  0  0  0
  160.4560  203.5020  149.2650 C   0  0  1  0  0  3  0  0  0  0  0  0
  160.7070  204.7650  149.9600 N   0  0  0  0  0  2  0  0  0  0  0  0
  161.3860  204.3540  147.2280 O   0  0  0  0  0  0  0  0  0  0  0  0
  161.7910  205.5300  147.8800 C   0  0  1  0  0  3  0  0  0  0  0  0
  161.5000  203.3000  148.1520 C   0  0  2  0  0  3  0  0  0  0  0  0
  161.2550  201.9910  147.4130 C   0  0  0  0  0  2  0  0  0  0  0  0
  160.3120  202.1820  146.3980 O   0  0  0  0  0  1  0  0  0  0  0  0
  161.8290  206.5720  146.9530 O   0  0  0  0  0  0  0  0  0  0  0  0
  160.6870  206.4010  146.1700 C   0  0  0  0  0  1  0  0  0  0  0  0
  160.9580  209.6890  154.1890 C   0  0  0  0  0  2  0  0  0  0  0  0
  159.6890  211.7610  157.2080 C   0  0  0  0  0  2  0  0  0  0  0  0
  160.0660  210.3080  155.1670 N   0  0  0  0  0  0  0  0  0  0  0  0
  161.6630  211.8760  155.8770 O   0  0  0  0  0  0  0  0  0  0  0  0
  160.5260  211.3510  156.0380 C   0  0  0  0  0  0  0  0  0  0  0  0
  158.7530  209.7620  155.3270 C   0  0  0  0  0  3  0  0  0  0  0  0
  158.1840  211.5750  156.9300 C   0  0  2  0  0  3  0  0  0  0  0  0
  157.8730  210.3200  156.1590 C   0  0  0  0  0  3  0  0  0  0  0  0
  157.4930  212.8060  156.3090 C   0  0  2  0  0  3  0  0  0  0  0  0
  155.9050  214.3890  157.1860 O   0  0  0  0  0  0  0  0  0  0  0  0
  156.1930  213.1820  156.9630 C   0  0  0  0  0  0  0  0  0  0  0  0
  155.2670  212.1900  157.2540 O   0  0  0  0  0  1  0  0  0  0  0  0
  158.3430  213.8800  154.1600 C   0  0  0  0  0  1  0  0  0  0  0  0
  157.4430  212.8190  154.7700 C   0  0  2  0  0  3  0  0  0  0  0  0
  156.0240  213.0200  154.2600 C   0  0  0  0  0  2  0  0  0  0  0  0
  155.9100  214.2470  153.6000 O   0  0  0  0  0  0  0  0  0  0  0  0
  154.5330  214.4440  153.4710 C   0  0  0  0  0  1  0  0  0  0  0  0
  1  7  1  0  0  0  0
  2  8  1  6  0  0  0
  2  5  1  0  0  0  0
  2  1  1  0  0  0  0
  3  1  2  0  0  0  0
  5  6  1  0  0  0  0
  6 21  1  1  0  0  0
  6  4  1  0  0  0  0
  7  4  1  0  0  0  0
  9  8  1  0  0  0  0
 10  9  1  1  0  0  0
 10 13  1  0  0  0  0
 12 13  1  0  0  0  0
 12 11  1  1  0  0  0
 14 15  1  0  0  0  0
 14 16  1  0  0  0  0
 15 19  1  6  0  0  0
 15 10  1  0  0  0  0
 16 17  1  6  0  0  0
 16 12  1  0  0  0  0
 18 17  1  0  0  0  0
 20 19  1  0  0  0  0
 21 23  1  0  0  0  0
 23 26  1  0  0  0  0
 23 25  1  0  0  0  0
 24 25  2  0  0  0  0
 25 22  1  0  0  0  0
 26 28  2  0  0  0  0
 27 29  1  6  0  0  0
 27 22  1  0  0  0  0
 28 27  1  0  0  0  0
 29 31  1  1  0  0  0
 31 30  2  0  0  0  0
 31 32  1  0  0  0  0
 34 33  1  1  0  0  0
 34 29  1  0  0  0  0
 35 34  1  0  0  0  0
 36 35  1  0  0  0  0
 37 36  1  0  0  0  0
M  END
>  <MODEL>
6

>  <REMARK>
 VINA RESULT:      -6.0      1.763      2.639
  Name = 
  12 active torsions:
  status: ('A' for Active; 'I' for Inactive)
    1  A    between atoms: C_2  and  C_11
    2  A    between atoms: O_4  and  C_5
    3  A    between atoms: C_5  and  C_16
    4  A    between atoms: C_6  and  C_36
    5  A    between atoms: O_10  and  C_33
    6  A    between atoms: C_11  and  C_21
    7  A    between atoms: C_12  and  C_21
    8  A    between atoms: N_15  and  C_18
    9  A    between atoms: C_16  and  C_20
   10  A    between atoms: C_18  and  C_28
   11  A    between atoms: C_20  and  C_32
   12  A    between atoms: C_20  and  C_35
                            x       y       z     vdW  Elec       q    Type
                         _______ _______ _______ _____ _____    ______ ____

>  <TORSDO>
F 12

$$$$
=
 OpenBabel11072410163D

 37 39  0  0  1  0  0  0  0  0999 V2000
  162.3230  208.1420  151.0740 C   0  0  0  0  0  0  0  0  0  0  0  0
  161.2180  207.5250  151.8810 C   0  0  2  0  0  3  0  0  0  0  0  0
  163.1830  207.4400  150.4760 O   0  0  0  0  0  0  0  0  0  0  0  0
  161.2470  210.3530  151.4650 C   0  0  0  0  0  2  0  0  0  0  0  0
  160.9870  208.3740  153.1320 C   0  0  0  0  0  2  0  0  0  0  0  0
  160.7300  209.8630  152.8330 C   0  0  2  0  0  3  0  0  0  0  0  0
  162.3820  209.5660  150.9930 N   0  0  0  0  0  2  0  0  0  0  0  0
  161.4300  206.0530  152.2430 C   0  0  0  0  0  2  0  0  0  0  0  0
  160.5310  205.1100  151.4400 C   0  0  0  0  0  2  0  0  0  0  0  0
  161.2090  204.6380  150.1540 C   0  0  2  0  0  3  0  0  0  0  0  0
  161.0360  205.8680  146.7470 O   0  0  0  0  0  1  0  0  0  0  0  0
  161.4550  205.0450  147.7960 C   0  0  1  0  0  3  0  0  0  0  0  0
  160.8990  205.5540  149.0500 N   0  0  0  0  0  2  0  0  0  0  0  0
  161.4650  202.7980  148.6280 O   0  0  0  0  0  0  0  0  0  0  0  0
  160.7900  203.2030  149.7910 C   0  0  1  0  0  3  0  0  0  0  0  0
  160.9940  203.5940  147.5690 C   0  0  2  0  0  3  0  0  0  0  0  0
  161.5640  203.0430  146.2690 C   0  0  0  0  0  2  0  0  0  0  0  0
  160.5480  202.4440  145.5160 O   0  0  0  0  0  1  0  0  0  0  0  0
  161.1260  202.3390  150.8330 O   0  0  0  0  0  0  0  0  0  0  0  0
  161.0240  201.0590  150.2890 C   0  0  0  0  0  1  0  0  0  0  0  0
  159.2390  210.1440  152.9710 C   0  0  0  0  0  2  0  0  0  0  0  0
  158.7280  213.3480  155.0910 C   0  0  0  0  0  2  0  0  0  0  0  0
  158.9590  211.0270  154.1010 N   0  0  0  0  0  0  0  0  0  0  0  0
  158.5910  212.9120  152.7510 O   0  0  0  0  0  0  0  0  0  0  0  0
  158.7250  212.4300  153.9100 C   0  0  0  0  0  0  0  0  0  0  0  0
  159.0520  210.4850  155.4220 C   0  0  0  0  0  3  0  0  0  0  0  0
  158.2480  212.6380  156.3720 C   0  0  2  0  0  3  0  0  0  0  0  0
  158.7510  211.2240  156.4910 C   0  0  0  0  0  3  0  0  0  0  0  0
  156.7270  212.7190  156.6150 C   0  0  2  0  0  3  0  0  0  0  0  0
  155.7700  211.6150  154.7010 O   0  0  0  0  0  0  0  0  0  0  0  0
  155.9350  211.6280  155.9500 C   0  0  0  0  0  0  0  0  0  0  0  0
  155.4470  210.5790  156.7180 O   0  0  0  0  0  1  0  0  0  0  0  0
  154.8180  214.2920  157.2260 C   0  0  0  0  0  1  0  0  0  0  0  0
  156.1140  214.1220  156.4510 C   0  0  2  0  0  3  0  0  0  0  0  0
  155.8630  214.4530  154.9880 C   0  0  0  0  0  2  0  0  0  0  0  0
  154.4910  214.4530  154.7140 O   0  0  0  0  0  0  0  0  0  0  0  0
  154.4090  214.1080  153.3630 C   0  0  0  0  0  1  0  0  0  0  0  0
  1  2  1  0  0  0  0
  2  8  1  1  0  0  0
  2  5  1  0  0  0  0
  3  1  2  0  0  0  0
  4  6  1  0  0  0  0
  6 21  1  6  0  0  0
  6  5  1  0  0  0  0
  7  1  1  0  0  0  0
  7  4  1  0  0  0  0
  9  8  1  0  0  0  0
 10  9  1  1  0  0  0
 12 11  1  6  0  0  0
 12 13  1  0  0  0  0
 13 10  1  0  0  0  0
 14 15  1  0  0  0  0
 15 10  1  0  0  0  0
 15 19  1  1  0  0  0
 16 17  1  6  0  0  0
 16 12  1  0  0  0  0
 16 14  1  0  0  0  0
 18 17  1  0  0  0  0
 20 19  1  0  0  0  0
 21 23  1  0  0  0  0
 22 27  1  0  0  0  0
 23 26  1  0  0  0  0
 24 25  2  0  0  0  0
 25 23  1  0  0  0  0
 25 22  1  0  0  0  0
 26 28  2  0  0  0  0
 27 28  1  0  0  0  0
 27 29  1  6  0  0  0
 29 31  1  6  0  0  0
 30 31  2  0  0  0  0
 31 32  1  0  0  0  0
 34 29  1  0  0  0  0
 34 33  1  1  0  0  0
 35 34  1  0  0  0  0
 36 35  1  0  0  0  0
 37 36  1  0  0  0  0
M  END
>  <MODEL>
7

>  <REMARK>
 VINA RESULT:      -6.0      1.779      3.170
  Name = 
  12 active torsions:
  status: ('A' for Active; 'I' for Inactive)
    1  A    between atoms: C_2  and  C_11
    2  A    between atoms: O_4  and  C_5
    3  A    between atoms: C_5  and  C_16
    4  A    between atoms: C_6  and  C_36
    5  A    between atoms: O_10  and  C_33
    6  A    between atoms: C_11  and  C_21
    7  A    between atoms: C_12  and  C_21
    8  A    between atoms: N_15  and  C_18
    9  A    between atoms: C_16  and  C_20
   10  A    between atoms: C_18  and  C_28
   11  A    between atoms: C_20  and  C_32
   12  A    between atoms: C_20  and  C_35
                            x       y       z     vdW  Elec       q    Type
                         _______ _______ _______ _____ _____    ______ ____

>  <TORSDO>
F 12

$$$$
=
 OpenBabel11072410163D

 37 39  0  0  1  0  0  0  0  0999 V2000
  161.7400  207.1410  151.1380 C   0  0  0  0  0  0  0  0  0  0  0  0
  161.3550  206.0000  152.0340 C   0  0  2  0  0  3  0  0  0  0  0  0
  162.0460  206.9620  149.9270 O   0  0  0  0  0  0  0  0  0  0  0  0
  161.1520  208.6820  153.0030 C   0  0  0  0  0  2  0  0  0  0  0  0
  161.9480  206.2420  153.4230 C   0  0  0  0  0  2  0  0  0  0  0  0
  161.5770  207.6100  154.0270 C   0  0  2  0  0  3  0  0  0  0  0  0
  161.7510  208.4570  151.6910 N   0  0  0  0  0  2  0  0  0  0  0  0
  161.7280  204.6130  151.5080 C   0  0  0  0  0  2  0  0  0  0  0  0
  160.5780  203.9300  150.7640 C   0  0  0  0  0  2  0  0  0  0  0  0
  161.0400  203.3210  149.4410 C   0  0  2  0  0  3  0  0  0  0  0  0
  161.4810  204.7670  146.1450 O   0  0  0  0  0  1  0  0  0  0  0  0
  161.4970  203.7680  147.1220 C   0  0  1  0  0  3  0  0  0  0  0  0
  161.1620  204.3640  148.4160 N   0  0  0  0  0  2  0  0  0  0  0  0
  160.5630  201.6580  147.7710 O   0  0  0  0  0  0  0  0  0  0  0  0
  160.0810  202.2160  148.9660 C   0  0  1  0  0  3  0  0  0  0  0  0
  160.4890  202.6560  146.7820 C   0  0  2  0  0  3  0  0  0  0  0  0
  160.8200  202.0190  145.4380 C   0  0  0  0  0  2  0  0  0  0  0  0
  159.6600  201.4980  144.8550 O   0  0  0  0  0  1  0  0  0  0  0  0
  160.0040  201.2140  149.9340 O   0  0  0  0  0  0  0  0  0  0  0  0
  161.2230  200.5400  149.8550 C   0  0  0  0  0  1  0  0  0  0  0  0
  160.4860  207.4090  155.0710 C   0  0  0  0  0  2  0  0  0  0  0  0
  160.3090  210.6060  157.2550 C   0  0  0  0  0  2  0  0  0  0  0  0
  160.0340  208.6820  155.6300 N   0  0  0  0  0  0  0  0  0  0  0  0
  162.1030  209.1670  156.6270 O   0  0  0  0  0  0  0  0  0  0  0  0
  160.8870  209.4680  156.4750 C   0  0  0  0  0  0  0  0  0  0  0  0
  158.6720  209.0680  155.4220 C   0  0  0  0  0  3  0  0  0  0  0  0
  159.1090  211.2490  156.5320 C   0  0  2  0  0  3  0  0  0  0  0  0
  158.2160  210.2440  155.8550 C   0  0  0  0  0  3  0  0  0  0  0  0
  159.4830  212.4040  155.5810 C   0  0  2  0  0  3  0  0  0  0  0  0
  160.6660  214.3090  156.4570 O   0  0  0  0  0  0  0  0  0  0  0  0
  159.5570  213.7520  156.2440 C   0  0  0  0  0  0  0  0  0  0  0  0
  158.3810  214.4210  156.5530 O   0  0  0  0  0  1  0  0  0  0  0  0
  159.6390  212.7320  153.0590 C   0  0  0  0  0  1  0  0  0  0  0  0
  158.7330  212.4110  154.2360 C   0  0  2  0  0  3  0  0  0  0  0  0
  157.5720  213.3950  154.2500 C   0  0  0  0  0  2  0  0  0  0  0  0
  156.3590  212.7230  154.0700 O   0  0  0  0  0  0  0  0  0  0  0  0
  155.6390  212.9920  155.2370 C   0  0  0  0  0  1  0  0  0  0  0  0
  1  7  1  0  0  0  0
  1  2  1  0  0  0  0
  2  8  1  6  0  0  0
  2  5  1  0  0  0  0
  3  1  2  0  0  0  0
  4  6  1  0  0  0  0
  5  6  1  0  0  0  0
  6 21  1  1  0  0  0
  7  4  1  0  0  0  0
  9  8  1  0  0  0  0
 10  9  1  1  0  0  0
 12 11  1  6  0  0  0
 12 13  1  0  0  0  0
 13 10  1  0  0  0  0
 14 15  1  0  0  0  0
 15 10  1  0  0  0  0
 15 19  1  1  0  0  0
 16 17  1  6  0  0  0
 16 12  1  0  0  0  0
 16 14  1  0  0  0  0
 18 17  1  0  0  0  0
 20 19  1  0  0  0  0
 21 23  1  0  0  0  0
 23 25  1  0  0  0  0
 25 24  2  0  0  0  0
 25 22  1  0  0  0  0
 26 23  1  0  0  0  0
 26 28  2  0  0  0  0
 27 29  1  6  0  0  0
 27 22  1  0  0  0  0
 28 27  1  0  0  0  0
 29 31  1  1  0  0  0
 31 30  2  0  0  0  0
 31 32  1  0  0  0  0
 34 33  1  6  0  0  0
 34 35  1  0  0  0  0
 34 29  1  0  0  0  0
 36 35  1  0  0  0  0
 36 37  1  0  0  0  0
M  END
>  <MODEL>
8

>  <REMARK>
 VINA RESULT:      -5.7      2.330      3.897
  Name = 
  12 active torsions:
  status: ('A' for Active; 'I' for Inactive)
    1  A    between atoms: C_2  and  C_11
    2  A    between atoms: O_4  and  C_5
    3  A    between atoms: C_5  and  C_16
    4  A    between atoms: C_6  and  C_36
    5  A    between atoms: O_10  and  C_33
    6  A    between atoms: C_11  and  C_21
    7  A    between atoms: C_12  and  C_21
    8  A    between atoms: N_15  and  C_18
    9  A    between atoms: C_16  and  C_20
   10  A    between atoms: C_18  and  C_28
   11  A    between atoms: C_20  and  C_32
   12  A    between atoms: C_20  and  C_35
                            x       y       z     vdW  Elec       q    Type
                         _______ _______ _______ _____ _____    ______ ____

>  <TORSDO>
F 12

$$$$
=
 OpenBabel11072410163D

 37 39  0  0  1  0  0  0  0  0999 V2000
  161.1010  210.9090  153.4030 C   0  0  0  0  0  0  0  0  0  0  0  0
  160.9960  209.4720  153.8270 C   0  0  2  0  0  3  0  0  0  0  0  0
  160.8330  211.8570  154.1900 O   0  0  0  0  0  0  0  0  0  0  0  0
  162.0700  210.1050  151.2550 C   0  0  0  0  0  2  0  0  0  0  0  0
  160.4360  208.6540  152.6630 C   0  0  0  0  0  2  0  0  0  0  0  0
  161.2260  208.8190  151.3520 C   0  0  2  0  0  3  0  0  0  0  0  0
  161.5190  211.1860  152.0660 N   0  0  0  0  0  2  0  0  0  0  0  0
  160.1910  209.2360  155.1070 C   0  0  0  0  0  2  0  0  0  0  0  0
  160.4070  210.3310  156.1540 C   0  0  0  0  0  2  0  0  0  0  0  0
  159.0850  210.9490  156.6100 C   0  0  2  0  0  3  0  0  0  0  0  0
  155.7010  210.6000  155.3550 O   0  0  0  0  0  1  0  0  0  0  0  0
  156.7180  211.0600  156.1940 C   0  0  1  0  0  3  0  0  0  0  0  0
  157.9690  210.3910  155.8360 N   0  0  0  0  0  2  0  0  0  0  0  0
  157.8920  213.0080  156.9510 O   0  0  0  0  0  0  0  0  0  0  0  0
  159.1080  212.4820  156.4860 C   0  0  1  0  0  3  0  0  0  0  0  0
  156.8850  212.5850  156.0650 C   0  0  2  0  0  3  0  0  0  0  0  0
  155.5930  213.3030  156.4360 C   0  0  0  0  0  2  0  0  0  0  0  0
  154.7890  212.4680  157.2190 O   0  0  0  0  0  1  0  0  0  0  0  0
  160.1490  212.9990  157.2560 O   0  0  0  0  0  0  0  0  0  0  0  0
  160.3300  214.3020  156.7910 C   0  0  0  0  0  1  0  0  0  0  0  0
  162.1030  207.5900  151.1450 C   0  0  0  0  0  2  0  0  0  0  0  0
  160.9390  206.4160  147.6400 C   0  0  0  0  0  2  0  0  0  0  0  0
  161.6020  206.7450  150.0630 N   0  0  0  0  0  0  0  0  0  0  0  0
  162.3790  208.1700  148.3680 O   0  0  0  0  0  0  0  0  0  0  0  0
  161.7070  207.1520  148.6910 C   0  0  0  0  0  0  0  0  0  0  0  0
  160.8830  205.5570  150.4090 C   0  0  0  0  0  3  0  0  0  0  0  0
  160.7400  204.9320  148.0070 C   0  0  2  0  0  3  0  0  0  0  0  0
  160.4530  204.7150  149.4690 C   0  0  0  0  0  3  0  0  0  0  0  0
  161.8590  203.9960  147.5060 C   0  0  2  0  0  3  0  0  0  0  0  0
  163.8340  204.6960  146.3210 O   0  0  0  0  0  1  0  0  0  0  0  0
  162.5900  204.4990  146.2930 C   0  0  0  0  0  0  0  0  0  0  0  0
  161.8930  204.6740  145.1050 O   0  0  0  0  0  0  0  0  0  0  0  0
  160.8590  202.1220  146.0980 C   0  0  0  0  0  1  0  0  0  0  0  0
  161.4790  202.5050  147.4320 C   0  0  2  0  0  3  0  0  0  0  0  0
  160.5250  202.1170  148.5510 C   0  0  0  0  0  2  0  0  0  0  0  0
  160.9640  200.9510  149.1860 O   0  0  0  0  0  0  0  0  0  0  0  0
  160.8660  201.2410  150.5490 C   0  0  0  0  0  1  0  0  0  0  0  0
  1  2  1  0  0  0  0
  1  3  2  0  0  0  0
  2  8  1  1  0  0  0
  4  6  1  0  0  0  0
  4  7  1  0  0  0  0
  5  2  1  0  0  0  0
  6 21  1  1  0  0  0
  6  5  1  0  0  0  0
  7  1  1  0  0  0  0
  8  9  1  0  0  0  0
 10  9  1  6  0  0  0
 12 11  1  6  0  0  0
 13 12  1  0  0  0  0
 13 10  1  0  0  0  0
 15 10  1  0  0  0  0
 15 14  1  0  0  0  0
 15 19  1  1  0  0  0
 16 12  1  0  0  0  0
 16 17  1  1  0  0  0
 16 14  1  0  0  0  0
 17 18  1  0  0  0  0
 20 19  1  0  0  0  0
 22 27  1  0  0  0  0
 22 25  1  0  0  0  0
 23 26  1  0  0  0  0
 23 21  1  0  0  0  0
 24 25  2  0  0  0  0
 25 23  1  0  0  0  0
 27 29  1  1  0  0  0
 27 28  1  0  0  0  0
 28 26  2  0  0  0  0
 29 31  1  6  0  0  0
 31 30  1  0  0  0  0
 32 31  2  0  0  0  0
 34 33  1  6  0  0  0
 34 29  1  0  0  0  0
 34 35  1  0  0  0  0
 35 36  1  0  0  0  0
 36 37  1  0  0  0  0
M  END
>  <MODEL>
9

>  <REMARK>
 VINA RESULT:      -5.6      2.452     10.429
  Name = 
  12 active torsions:
  status: ('A' for Active; 'I' for Inactive)
    1  A    between atoms: C_2  and  C_11
    2  A    between atoms: O_4  and  C_5
    3  A    between atoms: C_5  and  C_16
    4  A    between atoms: C_6  and  C_36
    5  A    between atoms: O_10  and  C_33
    6  A    between atoms: C_11  and  C_21
    7  A    between atoms: C_12  and  C_21
    8  A    between atoms: N_15  and  C_18
    9  A    between atoms: C_16  and  C_20
   10  A    between atoms: C_18  and  C_28
   11  A    between atoms: C_20  and  C_32
   12  A    between atoms: C_20  and  C_35
                            x       y       z     vdW  Elec       q    Type
                         _______ _______ _______ _____ _____    ______ ____

>  <TORSDO>
F 12

$$$$
