=
 OpenBabel11072413143D

 34 37  0  0  1  0  0  0  0  0999 V2000
  162.0400  206.0930  151.1360 C   0  0  0  0  0  3  0  0  0  0  0  0
  161.7640  205.5160  153.4900 N   0  0  0  0  0  0  0  0  0  0  0  0
  161.1020  207.8710  153.4320 C   0  0  0  0  0  0  0  0  0  0  0  0
  160.7380  209.0610  154.2470 C   0  0  0  0  0  2  0  0  0  0  0  0
  160.7040  210.2090  153.2300 C   0  0  1  0  0  3  0  0  0  0  0  0
  162.7130  205.6430  152.3910 C   0  0  0  0  0  2  0  0  0  0  0  0
  161.0820  206.5050  153.9850 C   0  0  0  0  0  3  0  0  0  0  0  0
  161.0140  209.5860  151.9520 N   0  0  0  0  0  2  0  0  0  0  0  0
  161.4060  207.2690  151.0180 C   0  0  0  0  0  0  0  0  0  0  0  0
  161.2390  208.2030  152.1550 C   0  0  0  0  0  0  0  0  0  0  0  0
  162.0850  207.4420  147.6960 N   0  0  0  0  0  0  0  0  0  0  0  0
  160.0180  206.2640  148.8810 S   0  0  0  0  0  0  0  0  0  0  0  0
  160.7290  206.0470  146.2470 C   0  0  0  0  0  1  0  0  0  0  0  0
  161.8610  208.1760  148.7300 C   0  0  0  0  0  0  0  0  0  0  0  0
  160.8290  207.6790  149.6890 C   0  0  2  0  0  3  0  0  0  0  0  0
  162.5120  209.4420  148.8680 N   0  0  0  0  0  2  0  0  0  0  0  0
  161.3360  206.2010  147.6250 C   0  0  1  0  0  3  0  0  0  0  0  0
  162.3120  210.3280  150.0050 C   0  0  0  0  0  2  0  0  0  0  0  0
  161.9360  211.7120  149.5200 C   0  0  0  0  0  1  0  0  0  0  0  0
  158.8120  211.5090  154.4590 C   0  0  2  0  0  3  0  0  0  0  0  0
  159.1520  211.7200  152.1260 O   0  0  0  0  0  0  0  0  0  0  0  0
  158.0610  213.8380  151.9660 C   0  0  0  0  0  1  0  0  0  0  0  0
  159.3020  210.8180  153.1870 C   0  0  1  0  0  3  0  0  0  0  0  0
  157.6710  212.3250  153.8950 C   0  0  1  0  0  3  0  0  0  0  0  0
  157.9480  212.3910  152.4000 C   0  0  2  0  0  3  0  0  0  0  0  0
  159.3250  213.8320  155.4070 C   0  0  0  0  0  1  0  0  0  0  0  0
  159.8710  212.4420  155.0950 C   0  0  1  0  0  3  0  0  0  0  0  0
  160.4960  211.8500  156.3590 C   0  0  0  0  0  2  0  0  0  0  0  0
  159.4900  211.0690  157.1930 C   0  0  0  0  0  1  0  0  0  0  0  0
  156.3570  211.6070  154.1500 C   0  0  0  0  0  2  0  0  0  0  0  0
  156.3770  211.0040  155.4380 O   0  0  0  0  0  0  0  0  0  0  0  0
  154.7310  210.9320  157.0320 O   0  0  0  0  0  0  0  0  0  0  0  0
  156.1030  212.8690  157.1140 C   0  0  0  0  0  1  0  0  0  0  0  0
  155.7020  211.5560  156.5290 C   0  0  0  0  0  0  0  0  0  0  0  0
  1  6  1  0  0  0  0
  2  7  2  0  0  0  0
  3  7  1  0  0  0  0
  3  4  1  0  0  0  0
  5  4  1  1  0  0  0
  6  2  1  0  0  0  0
  8 10  1  0  0  0  0
  8  5  1  0  0  0  0
  9  1  2  0  0  0  0
  9 10  1  0  0  0  0
 10  3  2  0  0  0  0
 11 14  2  0  0  0  0
 12 15  1  0  0  0  0
 14 16  1  0  0  0  0
 14 15  1  0  0  0  0
 15  9  1  1  0  0  0
 16 18  1  0  0  0  0
 17 13  1  6  0  0  0
 17 11  1  0  0  0  0
 17 12  1  0  0  0  0
 19 18  1  0  0  0  0
 20 27  1  6  0  0  0
 21 25  1  0  0  0  0
 23 21  1  6  0  0  0
 23  5  1  0  0  0  0
 23 20  1  0  0  0  0
 24 30  1  6  0  0  0
 24 20  1  0  0  0  0
 25 22  1  1  0  0  0
 25 24  1  0  0  0  0
 27 26  1  1  0  0  0
 27 28  1  0  0  0  0
 28 29  1  0  0  0  0
 30 31  1  0  0  0  0
 31 34  1  0  0  0  0
 34 32  2  0  0  0  0
 34 33  1  0  0  0  0
M  END
>  <MODEL>
1

>  <REMARK>
 VINA RESULT:      -5.3      0.000      0.000
  Name = 
  8 active torsions:
  status: ('A' for Active; 'I' for Inactive)
    1  A    between atoms: C_5  and  C_29
    2  A    between atoms: C_10  and  C_29
    3  A    between atoms: C_13  and  C_23
    4  A    between atoms: C_17  and  C_28
    5  A    between atoms: N_18  and  C_32
    6  A    between atoms: C_22  and  O_25
    7  A    between atoms: C_22  and  C_26
    8  A    between atoms: O_25  and  C_31
                            x       y       z     vdW  Elec       q    Type
                         _______ _______ _______ _____ _____    ______ ____

>  <TORSDO>
F 8

$$$$
=
 OpenBabel11072413143D

 34 37  0  0  1  0  0  0  0  0999 V2000
  161.4720  204.6780  150.2100 C   0  0  0  0  0  3  0  0  0  0  0  0
  161.0300  203.6400  152.3740 N   0  0  0  0  0  0  0  0  0  0  0  0
  160.9910  206.0290  152.9040 C   0  0  0  0  0  0  0  0  0  0  0  0
  160.9330  207.0400  153.9940 C   0  0  0  0  0  2  0  0  0  0  0  0
  161.2060  208.3700  153.2780 C   0  0  1  0  0  3  0  0  0  0  0  0
  161.9930  203.7860  151.2890 C   0  0  0  0  0  2  0  0  0  0  0  0
  160.6170  204.6200  153.1210 C   0  0  0  0  0  3  0  0  0  0  0  0
  161.3610  208.0150  151.8760 N   0  0  0  0  0  2  0  0  0  0  0  0
  161.1600  205.9680  150.4040 C   0  0  0  0  0  0  0  0  0  0  0  0
  161.2230  206.6130  151.7360 C   0  0  0  0  0  0  0  0  0  0  0  0
  161.9900  206.8790  147.2400 N   0  0  0  0  0  0  0  0  0  0  0  0
  159.6930  205.8450  148.0930 S   0  0  0  0  0  0  0  0  0  0  0  0
  160.4540  206.2000  145.4890 C   0  0  0  0  0  1  0  0  0  0  0  0
  161.8660  207.3420  148.4360 C   0  0  0  0  0  0  0  0  0  0  0  0
  160.7220  206.8160  149.2400 C   0  0  2  0  0  3  0  0  0  0  0  0
  162.7350  208.3800  148.8980 N   0  0  0  0  0  2  0  0  0  0  0  0
  161.0260  205.8670  146.8510 C   0  0  1  0  0  3  0  0  0  0  0  0
  162.6600  208.9550  150.2320 C   0  0  0  0  0  2  0  0  0  0  0  0
  162.2980  210.4230  150.1400 C   0  0  0  0  0  1  0  0  0  0  0  0
  159.8310  209.9540  154.8210 C   0  0  2  0  0  3  0  0  0  0  0  0
  159.9880  210.3210  152.4880 O   0  0  0  0  0  0  0  0  0  0  0  0
  159.4590  212.6460  152.6250 C   0  0  0  0  0  1  0  0  0  0  0  0
  160.0060  209.3030  153.4490 C   0  0  1  0  0  3  0  0  0  0  0  0
  158.8850  211.0770  154.4630 C   0  0  1  0  0  3  0  0  0  0  0  0
  159.0260  211.2320  152.9550 C   0  0  2  0  0  3  0  0  0  0  0  0
  160.9490  211.8630  156.1120 C   0  0  0  0  0  1  0  0  0  0  0  0
  161.1480  210.5290  155.3970 C   0  0  1  0  0  3  0  0  0  0  0  0
  161.8560  209.5530  156.3390 C   0  0  0  0  0  2  0  0  0  0  0  0
  160.8840  208.8270  157.2600 C   0  0  0  0  0  1  0  0  0  0  0  0
  157.4630  210.6790  154.8160 C   0  0  0  0  0  2  0  0  0  0  0  0
  156.5870  211.7790  154.6100 O   0  0  0  0  0  0  0  0  0  0  0  0
  156.5070  212.8670  156.6260 O   0  0  0  0  0  0  0  0  0  0  0  0
  156.9120  214.2770  154.7590 C   0  0  0  0  0  1  0  0  0  0  0  0
  156.6590  212.9430  155.3790 C   0  0  0  0  0  0  0  0  0  0  0  0
  1  9  2  0  0  0  0
  1  6  1  0  0  0  0
  2  7  2  0  0  0  0
  3  7  1  0  0  0  0
  3  4  1  0  0  0  0
  5 23  1  0  0  0  0
  5  4  1  1  0  0  0
  6  2  1  0  0  0  0
  8  5  1  0  0  0  0
  9 10  1  0  0  0  0
 10  8  1  0  0  0  0
 10  3  2  0  0  0  0
 11 14  2  0  0  0  0
 12 15  1  0  0  0  0
 14 16  1  0  0  0  0
 14 15  1  0  0  0  0
 15  9  1  1  0  0  0
 16 18  1  0  0  0  0
 17 13  1  6  0  0  0
 17 11  1  0  0  0  0
 17 12  1  0  0  0  0
 19 18  1  0  0  0  0
 20 27  1  6  0  0  0
 21 25  1  0  0  0  0
 23 21  1  6  0  0  0
 23 20  1  0  0  0  0
 24 30  1  6  0  0  0
 24 20  1  0  0  0  0
 25 22  1  1  0  0  0
 25 24  1  0  0  0  0
 27 26  1  1  0  0  0
 27 28  1  0  0  0  0
 28 29  1  0  0  0  0
 31 30  1  0  0  0  0
 31 34  1  0  0  0  0
 33 34  1  0  0  0  0
 34 32  2  0  0  0  0
M  END
>  <MODEL>
2

>  <REMARK>
 VINA RESULT:      -3.9      1.485      1.848
  Name = 
  8 active torsions:
  status: ('A' for Active; 'I' for Inactive)
    1  A    between atoms: C_5  and  C_29
    2  A    between atoms: C_10  and  C_29
    3  A    between atoms: C_13  and  C_23
    4  A    between atoms: C_17  and  C_28
    5  A    between atoms: N_18  and  C_32
    6  A    between atoms: C_22  and  O_25
    7  A    between atoms: C_22  and  C_26
    8  A    between atoms: O_25  and  C_31
                            x       y       z     vdW  Elec       q    Type
                         _______ _______ _______ _____ _____    ______ ____

>  <TORSDO>
F 8

$$$$
=
 OpenBabel11072413143D

 34 37  0  0  1  0  0  0  0  0999 V2000
  159.3960  211.8930  155.8540 C   0  0  0  0  0  3  0  0  0  0  0  0
  161.6910  211.5060  156.5840 N   0  0  0  0  0  0  0  0  0  0  0  0
  161.3330  209.7110  154.9600 C   0  0  0  0  0  0  0  0  0  0  0  0
  161.8920  208.4660  154.3680 C   0  0  0  0  0  2  0  0  0  0  0  0
  160.7380  207.9090  153.5230 C   0  0  1  0  0  3  0  0  0  0  0  0
  160.2940  211.5570  156.9990 C   0  0  0  0  0  2  0  0  0  0  0  0
  162.1650  210.6630  155.7180 C   0  0  0  0  0  3  0  0  0  0  0  0
  159.6600  208.8740  153.6780 N   0  0  0  0  0  2  0  0  0  0  0  0
  159.2740  211.1270  154.7600 C   0  0  0  0  0  0  0  0  0  0  0  0
  160.0880  209.9090  154.5440 C   0  0  0  0  0  0  0  0  0  0  0  0
  157.4190  213.7000  153.5490 N   0  0  0  0  0  0  0  0  0  0  0  0
  159.1330  212.1580  152.2260 S   0  0  0  0  0  0  0  0  0  0  0  0
  157.9600  214.4530  151.3080 C   0  0  0  0  0  1  0  0  0  0  0  0
  157.3180  212.5550  154.1300 C   0  0  0  0  0  0  0  0  0  0  0  0
  158.2800  211.4990  153.6920 C   0  0  2  0  0  3  0  0  0  0  0  0
  156.2630  212.3140  155.0650 N   0  0  0  0  0  2  0  0  0  0  0  0
  158.4910  213.8260  152.5790 C   0  0  1  0  0  3  0  0  0  0  0  0
  156.0810  211.0500  155.7620 C   0  0  0  0  0  2  0  0  0  0  0  0
  155.2530  210.1090  154.9120 C   0  0  0  0  0  1  0  0  0  0  0  0
  162.3790  206.9670  151.7350 C   0  0  2  0  0  3  0  0  0  0  0  0
  160.1140  207.4240  151.2230 O   0  0  0  0  0  0  0  0  0  0  0  0
  160.0400  205.9440  149.3500 C   0  0  0  0  0  1  0  0  0  0  0  0
  161.1630  207.8340  152.0550 C   0  0  1  0  0  3  0  0  0  0  0  0
  162.1960  206.7920  150.2450 C   0  0  1  0  0  3  0  0  0  0  0  0
  160.7320  207.1280  149.9960 C   0  0  2  0  0  3  0  0  0  0  0  0
  161.2520  205.4850  153.4940 C   0  0  0  0  0  1  0  0  0  0  0  0
  162.3510  205.5890  152.4400 C   0  0  1  0  0  3  0  0  0  0  0  0
  162.2170  204.4250  151.4570 C   0  0  0  0  0  2  0  0  0  0  0  0
  161.1010  203.4640  151.8420 C   0  0  0  0  0  1  0  0  0  0  0  0
  163.0880  207.7720  149.5020 C   0  0  0  0  0  2  0  0  0  0  0  0
  162.2900  208.7270  148.8150 O   0  0  0  0  0  0  0  0  0  0  0  0
  162.3090  210.3360  150.4480 O   0  0  0  0  0  0  0  0  0  0  0  0
  161.9940  211.1670  148.2470 C   0  0  0  0  0  1  0  0  0  0  0  0
  162.2060  210.0600  149.2250 C   0  0  0  0  0  0  0  0  0  0  0  0
  1  6  1  0  0  0  0
  2  6  1  0  0  0  0
  3  7  1  0  0  0  0
  4  3  1  0  0  0  0
  5  8  1  0  0  0  0
  5  4  1  1  0  0  0
  7  2  2  0  0  0  0
  8 10  1  0  0  0  0
  9  1  2  0  0  0  0
 10  9  1  0  0  0  0
 10  3  2  0  0  0  0
 11 14  2  0  0  0  0
 12 17  1  0  0  0  0
 12 15  1  0  0  0  0
 14 16  1  0  0  0  0
 15 14  1  0  0  0  0
 15  9  1  1  0  0  0
 16 18  1  0  0  0  0
 17 13  1  6  0  0  0
 17 11  1  0  0  0  0
 19 18  1  0  0  0  0
 20 23  1  0  0  0  0
 20 27  1  1  0  0  0
 23 21  1  6  0  0  0
 23  5  1  0  0  0  0
 24 30  1  6  0  0  0
 24 20  1  0  0  0  0
 25 22  1  1  0  0  0
 25 24  1  0  0  0  0
 25 21  1  0  0  0  0
 27 26  1  1  0  0  0
 28 29  1  0  0  0  0
 28 27  1  0  0  0  0
 31 34  1  0  0  0  0
 31 30  1  0  0  0  0
 33 34  1  0  0  0  0
 34 32  2  0  0  0  0
M  END
>  <MODEL>
3

>  <REMARK>
 VINA RESULT:      -3.6      3.093      7.618
  Name = 
  8 active torsions:
  status: ('A' for Active; 'I' for Inactive)
    1  A    between atoms: C_5  and  C_29
    2  A    between atoms: C_10  and  C_29
    3  A    between atoms: C_13  and  C_23
    4  A    between atoms: C_17  and  C_28
    5  A    between atoms: N_18  and  C_32
    6  A    between atoms: C_22  and  O_25
    7  A    between atoms: C_22  and  C_26
    8  A    between atoms: O_25  and  C_31
                            x       y       z     vdW  Elec       q    Type
                         _______ _______ _______ _____ _____    ______ ____

>  <TORSDO>
F 8

$$$$
=
 OpenBabel11072413143D

 34 37  0  0  1  0  0  0  0  0999 V2000
  158.9920  213.4450  154.8220 C   0  0  0  0  0  3  0  0  0  0  0  0
  158.0890  213.9000  152.6020 N   0  0  0  0  0  0  0  0  0  0  0  0
  159.6870  212.0980  152.1740 C   0  0  0  0  0  0  0  0  0  0  0  0
  160.3800  211.2980  151.1270 C   0  0  0  0  0  2  0  0  0  0  0  0
  161.4320  210.5000  151.9080 C   0  0  1  0  0  3  0  0  0  0  0  0
  158.8410  214.4470  153.7250 C   0  0  0  0  0  2  0  0  0  0  0  0
  158.4790  212.8910  151.8840 C   0  0  0  0  0  3  0  0  0  0  0  0
  161.2330  210.8800  153.2990 N   0  0  0  0  0  2  0  0  0  0  0  0
  159.6350  212.2770  154.6730 C   0  0  0  0  0  0  0  0  0  0  0  0
  160.1860  211.8290  153.3740 C   0  0  0  0  0  0  0  0  0  0  0  0
  159.7180  209.0120  155.6010 N   0  0  0  0  0  0  0  0  0  0  0  0
  161.5590  210.8810  156.0340 S   0  0  0  0  0  0  0  0  0  0  0  0
  161.8360  208.1910  156.4530 C   0  0  0  0  0  1  0  0  0  0  0  0
  159.0350  210.0950  155.7410 C   0  0  0  0  0  0  0  0  0  0  0  0
  159.8140  211.3650  155.8570 C   0  0  2  0  0  3  0  0  0  0  0  0
  157.6120  210.0340  155.8750 N   0  0  0  0  0  2  0  0  0  0  0  0
  161.1580  209.1770  155.5270 C   0  0  1  0  0  3  0  0  0  0  0  0
  156.7700  211.2100  156.0360 C   0  0  0  0  0  2  0  0  0  0  0  0
  155.9480  211.4300  154.7820 C   0  0  0  0  0  1  0  0  0  0  0  0
  161.1300  208.4730  150.3030 C   0  0  2  0  0  3  0  0  0  0  0  0
  162.0950  208.2240  152.4510 O   0  0  0  0  0  0  0  0  0  0  0  0
  163.2450  206.2030  151.9090 C   0  0  0  0  0  1  0  0  0  0  0  0
  161.1760  209.0020  151.7360 C   0  0  1  0  0  3  0  0  0  0  0  0
  161.3170  206.9950  150.5600 C   0  0  1  0  0  3  0  0  0  0  0  0
  161.9120  206.9210  151.9590 C   0  0  2  0  0  3  0  0  0  0  0  0
  162.9730  207.9090  148.6160 C   0  0  0  0  0  1  0  0  0  0  0  0
  162.2810  209.0090  149.4170 C   0  0  1  0  0  3  0  0  0  0  0  0
  161.8250  210.1150  148.4630 C   0  0  0  0  0  2  0  0  0  0  0  0
  162.6920  211.3620  148.5650 C   0  0  0  0  0  1  0  0  0  0  0  0
  159.9670  206.2980  150.5310 C   0  0  0  0  0  2  0  0  0  0  0  0
  159.9710  205.2800  149.5380 O   0  0  0  0  0  0  0  0  0  0  0  0
  161.4730  203.8200  148.6060 O   0  0  0  0  0  0  0  0  0  0  0  0
  160.9360  203.3690  150.8740 C   0  0  0  0  0  1  0  0  0  0  0  0
  160.8090  204.1650  149.6180 C   0  0  0  0  0  0  0  0  0  0  0  0
  2  6  1  0  0  0  0
  3 10  2  0  0  0  0
  4  3  1  0  0  0  0
  5  4  1  6  0  0  0
  5  8  1  0  0  0  0
  6  1  1  0  0  0  0
  7  3  1  0  0  0  0
  7  2  2  0  0  0  0
  8 10  1  0  0  0  0
  9  1  2  0  0  0  0
 10  9  1  0  0  0  0
 11 14  2  0  0  0  0
 14 15  1  0  0  0  0
 14 16  1  0  0  0  0
 15  9  1  6  0  0  0
 15 12  1  0  0  0  0
 16 18  1  0  0  0  0
 17 11  1  0  0  0  0
 17 12  1  0  0  0  0
 17 13  1  1  0  0  0
 19 18  1  0  0  0  0
 20 27  1  6  0  0  0
 20 24  1  0  0  0  0
 20 23  1  0  0  0  0
 23  5  1  0  0  0  0
 23 21  1  1  0  0  0
 24 30  1  1  0  0  0
 24 25  1  0  0  0  0
 25 22  1  6  0  0  0
 25 21  1  0  0  0  0
 27 26  1  6  0  0  0
 28 29  1  0  0  0  0
 28 27  1  0  0  0  0
 31 34  1  0  0  0  0
 31 30  1  0  0  0  0
 32 34  2  0  0  0  0
 34 33  1  0  0  0  0
M  END
>  <MODEL>
4

>  <REMARK>
 VINA RESULT:      -3.1      3.350      8.002
  Name = 
  8 active torsions:
  status: ('A' for Active; 'I' for Inactive)
    1  A    between atoms: C_5  and  C_29
    2  A    between atoms: C_10  and  C_29
    3  A    between atoms: C_13  and  C_23
    4  A    between atoms: C_17  and  C_28
    5  A    between atoms: N_18  and  C_32
    6  A    between atoms: C_22  and  O_25
    7  A    between atoms: C_22  and  C_26
    8  A    between atoms: O_25  and  C_31
                            x       y       z     vdW  Elec       q    Type
                         _______ _______ _______ _____ _____    ______ ____

>  <TORSDO>
F 8

$$$$
=
 OpenBabel11072413143D

 34 37  0  0  1  0  0  0  0  0999 V2000
  157.7120  213.2120  154.1190 C   0  0  0  0  0  3  0  0  0  0  0  0
  158.2100  214.0120  151.8690 N   0  0  0  0  0  0  0  0  0  0  0  0
  159.6200  212.0210  152.0570 C   0  0  0  0  0  0  0  0  0  0  0  0
  160.7000  211.2210  151.4190 C   0  0  0  0  0  2  0  0  0  0  0  0
  161.0820  210.1940  152.4930 C   0  0  1  0  0  3  0  0  0  0  0  0
  158.2710  214.3230  153.2920 C   0  0  0  0  0  2  0  0  0  0  0  0
  158.8400  213.0230  151.3090 C   0  0  0  0  0  3  0  0  0  0  0  0
  160.1900  210.4700  153.6090 N   0  0  0  0  0  2  0  0  0  0  0  0
  158.2280  211.9740  154.1410 C   0  0  0  0  0  0  0  0  0  0  0  0
  159.3580  211.5650  153.2750 C   0  0  0  0  0  0  0  0  0  0  0  0
  156.5930  211.5750  157.0900 N   0  0  0  0  0  0  0  0  0  0  0  0
  155.8940  210.6520  154.6970 S   0  0  0  0  0  0  0  0  0  0  0  0
  154.3580  210.6400  156.9610 C   0  0  0  0  0  1  0  0  0  0  0  0
  157.7170  211.3400  156.5070 C   0  0  0  0  0  0  0  0  0  0  0  0
  157.6520  210.9390  155.0700 C   0  0  2  0  0  3  0  0  0  0  0  0
  158.9350  211.3730  157.2560 N   0  0  0  0  0  2  0  0  0  0  0  0
  155.4120  211.4650  156.2540 C   0  0  1  0  0  3  0  0  0  0  0  0
  160.2440  211.1200  156.6730 C   0  0  0  0  0  2  0  0  0  0  0  0
  161.1350  212.3300  156.8620 C   0  0  0  0  0  1  0  0  0  0  0  0
  161.1240  208.5370  150.4850 C   0  0  2  0  0  3  0  0  0  0  0  0
  161.5300  207.8130  152.7020 O   0  0  0  0  0  0  0  0  0  0  0  0
  162.7200  205.8490  152.0450 C   0  0  0  0  0  1  0  0  0  0  0  0
  160.8340  208.7800  151.9660 C   0  0  1  0  0  3  0  0  0  0  0  0
  161.2010  207.0280  150.4740 C   0  0  1  0  0  3  0  0  0  0  0  0
  161.4350  206.6440  151.9280 C   0  0  2  0  0  3  0  0  0  0  0  0
  163.1200  208.3440  148.8920 C   0  0  0  0  0  1  0  0  0  0  0  0
  162.4700  209.1430  150.0180 C   0  0  1  0  0  3  0  0  0  0  0  0
  162.3420  210.6060  149.5900 C   0  0  0  0  0  2  0  0  0  0  0  0
  161.6210  210.7600  148.2590 C   0  0  0  0  0  1  0  0  0  0  0  0
  159.8800  206.4530  149.9900 C   0  0  0  0  0  2  0  0  0  0  0  0
  160.0710  205.7810  148.7510 O   0  0  0  0  0  0  0  0  0  0  0  0
  161.0250  203.7320  149.1300 O   0  0  0  0  0  0  0  0  0  0  0  0
  162.2720  205.1510  147.6910 C   0  0  0  0  0  1  0  0  0  0  0  0
  161.0940  204.8510  148.5580 C   0  0  0  0  0  0  0  0  0  0  0  0
  1  9  2  0  0  0  0
  2  6  1  0  0  0  0
  3 10  2  0  0  0  0
  4  3  1  0  0  0  0
  5  4  1  6  0  0  0
  5  8  1  0  0  0  0
  6  1  1  0  0  0  0
  7  2  2  0  0  0  0
  7  3  1  0  0  0  0
 10  8  1  0  0  0  0
 10  9  1  0  0  0  0
 12 15  1  0  0  0  0
 12 17  1  0  0  0  0
 14 11  2  0  0  0  0
 14 16  1  0  0  0  0
 15  9  1  6  0  0  0
 15 14  1  0  0  0  0
 17 13  1  1  0  0  0
 17 11  1  0  0  0  0
 18 19  1  0  0  0  0
 18 16  1  0  0  0  0
 20 27  1  1  0  0  0
 20 23  1  0  0  0  0
 23  5  1  0  0  0  0
 23 21  1  1  0  0  0
 24 30  1  1  0  0  0
 24 20  1  0  0  0  0
 24 25  1  0  0  0  0
 25 22  1  6  0  0  0
 25 21  1  0  0  0  0
 27 26  1  6  0  0  0
 28 27  1  0  0  0  0
 29 28  1  0  0  0  0
 31 30  1  0  0  0  0
 33 34  1  0  0  0  0
 34 31  1  0  0  0  0
 34 32  2  0  0  0  0
M  END
>  <MODEL>
5

>  <REMARK>
 VINA RESULT:      -2.5      3.312      8.382
  Name = 
  8 active torsions:
  status: ('A' for Active; 'I' for Inactive)
    1  A    between atoms: C_5  and  C_29
    2  A    between atoms: C_10  and  C_29
    3  A    between atoms: C_13  and  C_23
    4  A    between atoms: C_17  and  C_28
    5  A    between atoms: N_18  and  C_32
    6  A    between atoms: C_22  and  O_25
    7  A    between atoms: C_22  and  C_26
    8  A    between atoms: O_25  and  C_31
                            x       y       z     vdW  Elec       q    Type
                         _______ _______ _______ _____ _____    ______ ____

>  <TORSDO>
F 8

$$$$
=
 OpenBabel11072413143D

 34 37  0  0  1  0  0  0  0  0999 V2000
  161.7150  203.9780  148.2560 C   0  0  0  0  0  3  0  0  0  0  0  0
  160.1160  202.9110  149.7570 N   0  0  0  0  0  0  0  0  0  0  0  0
  160.8820  204.8320  151.0640 C   0  0  0  0  0  0  0  0  0  0  0  0
  160.8510  205.4990  152.3940 C   0  0  0  0  0  2  0  0  0  0  0  0
  161.8960  206.6160  152.2710 C   0  0  1  0  0  3  0  0  0  0  0  0
  161.3770  202.7550  149.0430 C   0  0  0  0  0  2  0  0  0  0  0  0
  159.9040  203.7970  150.6830 C   0  0  0  0  0  3  0  0  0  0  0  0
  162.3960  206.5120  150.9090 N   0  0  0  0  0  2  0  0  0  0  0  0
  161.9220  205.1810  148.8110 C   0  0  0  0  0  0  0  0  0  0  0  0
  161.7500  205.4320  150.2600 C   0  0  0  0  0  0  0  0  0  0  0  0
  160.8670  208.1490  147.5430 N   0  0  0  0  0  0  0  0  0  0  0  0
  163.0600  207.6690  148.9670 S   0  0  0  0  0  0  0  0  0  0  0  0
  162.0530  210.1250  148.3020 C   0  0  0  0  0  1  0  0  0  0  0  0
  161.2050  206.9550  147.1980 C   0  0  0  0  0  0  0  0  0  0  0  0
  162.3420  206.3420  147.9480 C   0  0  2  0  0  3  0  0  0  0  0  0
  160.5710  206.3220  146.0840 N   0  0  0  0  0  2  0  0  0  0  0  0
  161.6070  208.7210  148.6520 C   0  0  1  0  0  3  0  0  0  0  0  0
  160.8960  204.9780  145.6310 C   0  0  0  0  0  2  0  0  0  0  0  0
  161.1950  204.9930  144.1470 C   0  0  0  0  0  1  0  0  0  0  0  0
  160.4430  208.1660  153.7760 C   0  0  2  0  0  3  0  0  0  0  0  0
  162.1330  209.0340  152.3640 O   0  0  0  0  0  0  0  0  0  0  0  0
  162.3970  211.0570  153.6050 C   0  0  0  0  0  1  0  0  0  0  0  0
  161.2250  207.9750  152.4770 C   0  0  1  0  0  3  0  0  0  0  0  0
  160.3450  209.6740  153.8060 C   0  0  1  0  0  3  0  0  0  0  0  0
  161.4380  210.1500  152.8610 C   0  0  2  0  0  3  0  0  0  0  0  0
  161.5790  208.7790  155.9880 C   0  0  0  0  0  1  0  0  0  0  0  0
  161.2010  207.6560  155.0260 C   0  0  1  0  0  3  0  0  0  0  0  0
  160.4260  206.5790  155.7870 C   0  0  0  0  0  2  0  0  0  0  0  0
  160.1880  206.9550  157.2430 C   0  0  0  0  0  1  0  0  0  0  0  0
  158.9840  210.1070  153.2880 C   0  0  0  0  0  2  0  0  0  0  0  0
  158.5140  211.2210  154.0360 O   0  0  0  0  0  0  0  0  0  0  0  0
  159.0910  213.3640  154.6090 O   0  0  0  0  0  0  0  0  0  0  0  0
  158.8900  212.9870  152.2740 C   0  0  0  0  0  1  0  0  0  0  0  0
  158.8380  212.5360  153.6960 C   0  0  0  0  0  0  0  0  0  0  0  0
  1  9  2  0  0  0  0
  1  6  1  0  0  0  0
  2  7  2  0  0  0  0
  3  4  1  0  0  0  0
  5  4  1  6  0  0  0
  5 23  1  0  0  0  0
  6  2  1  0  0  0  0
  7  3  1  0  0  0  0
  8  5  1  0  0  0  0
  9 10  1  0  0  0  0
 10  8  1  0  0  0  0
 10  3  2  0  0  0  0
 11 17  1  0  0  0  0
 14 11  2  0  0  0  0
 14 15  1  0  0  0  0
 15  9  1  1  0  0  0
 15 12  1  0  0  0  0
 16 14  1  0  0  0  0
 17 13  1  6  0  0  0
 17 12  1  0  0  0  0
 18 16  1  0  0  0  0
 19 18  1  0  0  0  0
 20 24  1  0  0  0  0
 20 27  1  1  0  0  0
 21 25  1  0  0  0  0
 23 21  1  1  0  0  0
 23 20  1  0  0  0  0
 24 30  1  6  0  0  0
 25 22  1  1  0  0  0
 25 24  1  0  0  0  0
 27 28  1  0  0  0  0
 27 26  1  1  0  0  0
 28 29  1  0  0  0  0
 30 31  1  0  0  0  0
 33 34  1  0  0  0  0
 34 31  1  0  0  0  0
 34 32  2  0  0  0  0
M  END
>  <MODEL>
6

>  <REMARK>
 VINA RESULT:      -2.4      2.285      4.404
  Name = 
  8 active torsions:
  status: ('A' for Active; 'I' for Inactive)
    1  A    between atoms: C_5  and  C_29
    2  A    between atoms: C_10  and  C_29
    3  A    between atoms: C_13  and  C_23
    4  A    between atoms: C_17  and  C_28
    5  A    between atoms: N_18  and  C_32
    6  A    between atoms: C_22  and  O_25
    7  A    between atoms: C_22  and  C_26
    8  A    between atoms: O_25  and  C_31
                            x       y       z     vdW  Elec       q    Type
                         _______ _______ _______ _____ _____    ______ ____

>  <TORSDO>
F 8

$$$$
