=
 OpenBabel11072411283D

 35 40  0  0  1  0  0  0  0  0999 V2000
  162.2780  212.1650  147.4120 O   0  0  0  0  0  1  0  0  0  0  0  0
  158.6420  212.5540  152.8210 C   0  0  2  0  0  3  0  0  0  0  0  0
  160.3180  214.2550  148.9610 C   0  0  0  0  0  2  0  0  0  0  0  0
  160.4470  211.8060  148.9680 C   0  0  1  0  0  3  0  0  0  0  0  0
  160.4870  213.0280  151.1910 C   0  0  0  0  0  2  0  0  0  0  0  0
  162.7460  210.3730  151.1860 O   0  0  0  0  0  0  0  0  0  0  0  0
  160.4400  208.5680  153.7520 N   0  0  2  0  0  0  0  0  0  0  0  0
  161.6550  208.1870  151.7050 C   0  0  0  0  0  0  0  0  0  0  0  0
  161.7630  208.2920  153.1870 C   0  0  0  0  0  2  0  0  0  0  0  0
  158.9800  213.1140  151.4400 C   0  0  2  0  0  3  0  0  0  0  0  0
  161.0510  207.0750  151.0950 C   0  0  0  0  0  3  0  0  0  0  0  0
  162.5900  210.3730  148.9820 C   0  0  1  0  0  3  0  0  0  0  0  0
  161.3820  208.0280  148.9330 C   0  0  0  0  0  0  0  0  0  0  0  0
  161.2680  207.6300  155.6440 O   0  0  0  0  0  0  0  0  0  0  0  0
  158.8750  211.0480  152.8610 C   0  0  0  0  0  2  0  0  0  0  0  0
  159.2540  213.7330  148.0120 C   0  0  1  0  0  3  0  0  0  0  0  0
  158.6050  210.8740  155.2030 O   0  0  0  0  0  0  0  0  0  0  0  0
  161.9640  209.1430  149.5350 C   0  0  0  0  0  0  0  0  0  0  0  0
  159.2920  210.6020  154.2290 C   0  0  0  0  0  0  0  0  0  0  0  0
  160.5700  209.8320  154.3960 C   0  0  1  0  0  3  0  0  0  0  0  0
  161.5980  211.1950  148.1520 C   0  0  2  0  0  3  0  0  0  0  0  0
  163.0750  211.1170  150.1030 O   0  0  0  0  0  0  0  0  0  0  0  0
  162.1020  209.2060  150.8660 C   0  0  0  0  0  0  0  0  0  0  0  0
  160.8830  213.0620  149.7100 C   0  0  2  0  0  3  0  0  0  0  0  0
  161.4300  209.0230  156.1030 C   0  0  0  0  0  0  0  0  0  0  0  0
  159.3240  212.2150  148.0330 C   0  0  0  0  0  2  0  0  0  0  0  0
  160.3720  208.6270  155.2660 C   0  0  2  0  0  0  0  0  0  0  0  0
  157.1850  212.8270  153.1670 C   0  0  0  0  0  1  0  0  0  0  0  0
  162.0560  209.8880  156.7760 O   0  0  0  0  0  0  0  0  0  0  0  0
  161.2560  207.9380  147.5180 N   0  0  0  0  0  1  0  0  0  0  0  0
  160.9320  207.0160  149.7320 N   0  0  0  0  0  0  0  0  0  0  0  0
  158.5890  214.4530  151.3670 O   0  0  0  0  0  1  0  0  0  0  0  0
  157.9930  214.1420  148.4510 O   0  0  0  0  0  0  0  0  0  0  0  0
  156.7000  214.2140  146.4600 C   0  0  0  0  0  1  0  0  0  0  0  0
  157.0840  213.4080  147.6840 C   0  0  0  0  0  2  0  0  0  0  0  0
  2 15  1  0  0  0  0
  2 28  1  6  0  0  0
  4 26  1  6  0  0  0
  4 24  1  0  0  0  0
  5 10  1  0  0  0  0
  7  9  1  1  0  0  0
  7 20  1  0  0  0  0
  7 27  1  0  0  0  0
  8  9  1  0  0  0  0
 10 32  1  1  0  0  0
 10  2  1  0  0  0  0
 11  8  1  0  0  0  0
 12 18  1  1  0  0  0
 12 22  1  0  0  0  0
 13 18  2  0  0  0  0
 13 31  1  0  0  0  0
 14 25  1  0  0  0  0
 15 19  1  0  0  0  0
 16 26  1  0  0  0  0
 16 33  1  1  0  0  0
 16  3  1  0  0  0  0
 18 23  1  0  0  0  0
 19 17  2  0  0  0  0
 20 19  1  6  0  0  0
 20 27  1  0  0  0  0
 21  1  1  1  0  0  0
 21  4  1  0  0  0  0
 21 12  1  0  0  0  0
 22  6  1  0  0  0  0
 23  6  1  0  0  0  0
 23  8  2  0  0  0  0
 24  3  1  6  0  0  0
 24  5  1  0  0  0  0
 25 29  2  0  0  0  0
 27 14  1  1  0  0  0
 27 25  1  0  0  0  0
 30 13  1  0  0  0  0
 31 11  2  0  0  0  0
 34 35  1  0  0  0  0
 35 33  1  0  0  0  0
M  END
>  <MODEL>
1

>  <REMARK>
 VINA RESULT:      -2.8      0.000      0.000
  Name = 
  2 active torsions:
  status: ('A' for Active; 'I' for Inactive)
    1  A    between atoms: C_17  and  O_35
    2  A    between atoms: C_34  and  O_35
                            x       y       z     vdW  Elec       q    Type
                         _______ _______ _______ _____ _____    ______ ____

>  <TORSDO>
F 2

$$$$
=
 OpenBabel11072411283D

 35 40  0  0  1  0  0  0  0  0999 V2000
  158.0910  213.6650  155.4620 O   0  0  0  0  0  1  0  0  0  0  0  0
  161.6720  209.5750  151.8440 C   0  0  2  0  0  3  0  0  0  0  0  0
  160.0840  211.1120  155.8090 C   0  0  0  0  0  2  0  0  0  0  0  0
  158.6630  211.8500  153.9510 C   0  0  1  0  0  3  0  0  0  0  0  0
  161.1140  211.3820  153.4910 C   0  0  0  0  0  2  0  0  0  0  0  0
  160.0460  214.2260  151.7820 O   0  0  0  0  0  0  0  0  0  0  0  0
  160.4300  212.2260  148.4630 N   0  0  2  0  0  0  0  0  0  0  0  0
  158.9000  213.6760  149.6310 C   0  0  0  0  0  0  0  0  0  0  0  0
  160.1300  213.6200  148.7950 C   0  0  0  0  0  2  0  0  0  0  0  0
  161.0150  209.8850  153.1890 C   0  0  2  0  0  3  0  0  0  0  0  0
  157.6320  213.4280  149.0810 C   0  0  0  0  0  3  0  0  0  0  0  0
  158.3090  214.2740  153.1470 C   0  0  1  0  0  3  0  0  0  0  0  0
  156.6040  213.7030  151.2170 C   0  0  0  0  0  0  0  0  0  0  0  0
  161.5210  213.0880  146.6730 O   0  0  0  0  0  0  0  0  0  0  0  0
  160.8610  210.1740  150.7010 C   0  0  0  0  0  2  0  0  0  0  0  0
  158.7990  210.3030  155.8580 C   0  0  1  0  0  3  0  0  0  0  0  0
  162.5030  209.7470  149.0560 O   0  0  0  0  0  0  0  0  0  0  0  0
  157.8630  213.9300  151.7720 C   0  0  0  0  0  0  0  0  0  0  0  0
  161.7460  210.5650  149.5570 C   0  0  0  0  0  0  0  0  0  0  0  0
  161.7080  211.9750  149.0430 C   0  0  1  0  0  3  0  0  0  0  0  0
  157.9320  213.1860  154.1590 C   0  0  2  0  0  3  0  0  0  0  0  0
  159.7260  214.4530  153.0790 O   0  0  0  0  0  0  0  0  0  0  0  0
  158.9590  213.9260  151.0010 C   0  0  0  0  0  0  0  0  0  0  0  0
  160.0810  211.8890  154.5050 C   0  0  2  0  0  3  0  0  0  0  0  0
  162.7400  212.8530  147.4710 C   0  0  0  0  0  0  0  0  0  0  0  0
  157.9300  210.7490  154.6950 C   0  0  0  0  0  2  0  0  0  0  0  0
  161.6180  212.0090  147.5460 C   0  0  2  0  0  0  0  0  0  0  0  0
  161.7700  208.0710  151.6310 C   0  0  0  0  0  1  0  0  0  0  0  0
  163.9150  213.1790  147.7960 O   0  0  0  0  0  0  0  0  0  0  0  0
  155.4300  213.7320  152.0210 N   0  0  0  0  0  1  0  0  0  0  0  0
  156.5180  213.4510  149.8780 N   0  0  0  0  0  0  0  0  0  0  0  0
  161.6660  209.1780  154.2030 O   0  0  0  0  0  1  0  0  0  0  0  0
  159.0950  208.9460  155.7180 O   0  0  0  0  0  0  0  0  0  0  0  0
  160.0860  207.1480  156.9130 C   0  0  0  0  0  1  0  0  0  0  0  0
  159.9640  208.6510  156.7720 C   0  0  0  0  0  2  0  0  0  0  0  0
  2 28  1  6  0  0  0
  2 10  1  0  0  0  0
  3 16  1  0  0  0  0
  4 21  1  0  0  0  0
  4 24  1  0  0  0  0
  4 26  1  1  0  0  0
  6 22  1  0  0  0  0
  7  9  1  1  0  0  0
  7 20  1  0  0  0  0
  8 23  1  0  0  0  0
  9  8  1  0  0  0  0
 10  5  1  0  0  0  0
 10 32  1  1  0  0  0
 11  8  2  0  0  0  0
 11 31  1  0  0  0  0
 12 18  1  6  0  0  0
 12 21  1  0  0  0  0
 13 18  1  0  0  0  0
 13 30  1  0  0  0  0
 14 25  1  0  0  0  0
 15  2  1  0  0  0  0
 16 33  1  6  0  0  0
 17 19  2  0  0  0  0
 19 15  1  0  0  0  0
 20 19  1  6  0  0  0
 21  1  1  1  0  0  0
 22 12  1  0  0  0  0
 23 18  2  0  0  0  0
 23  6  1  0  0  0  0
 24  5  1  6  0  0  0
 24  3  1  0  0  0  0
 25 27  1  0  0  0  0
 25 29  2  0  0  0  0
 26 16  1  0  0  0  0
 27 14  1  6  0  0  0
 27  7  1  0  0  0  0
 27 20  1  0  0  0  0
 31 13  2  0  0  0  0
 33 35  1  0  0  0  0
 35 34  1  0  0  0  0
M  END
>  <MODEL>
2

>  <REMARK>
 VINA RESULT:      -1.1      2.489      7.458
  Name = 
  2 active torsions:
  status: ('A' for Active; 'I' for Inactive)
    1  A    between atoms: C_17  and  O_35
    2  A    between atoms: C_34  and  O_35
                            x       y       z     vdW  Elec       q    Type
                         _______ _______ _______ _____ _____    ______ ____

>  <TORSDO>
F 2

$$$$
=
 OpenBabel11072411283D

 35 40  0  0  1  0  0  0  0  0999 V2000
  161.5810  207.6750  155.3760 O   0  0  0  0  0  1  0  0  0  0  0  0
  161.9050  208.2670  148.8810 C   0  0  2  0  0  3  0  0  0  0  0  0
  162.5660  206.0030  152.7600 C   0  0  0  0  0  2  0  0  0  0  0  0
  160.8850  207.7650  153.0490 C   0  0  1  0  0  3  0  0  0  0  0  0
  162.6620  208.0670  151.2640 C   0  0  0  0  0  2  0  0  0  0  0  0
  162.0510  211.0650  152.9340 O   0  0  0  0  0  0  0  0  0  0  0  0
  160.4440  212.4210  149.6560 N   0  0  2  0  0  0  0  0  0  0  0  0
  160.0610  212.2750  152.0320 C   0  0  0  0  0  0  0  0  0  0  0  0
  160.7830  213.0070  150.9550 C   0  0  0  0  0  2  0  0  0  0  0  0
  161.9560  207.3560  150.1070 C   0  0  2  0  0  3  0  0  0  0  0  0
  158.6760  212.4230  152.2130 C   0  0  0  0  0  3  0  0  0  0  0  0
  161.0920  209.8690  154.5250 C   0  0  1  0  0  3  0  0  0  0  0  0
  158.6970  210.8410  153.9990 C   0  0  0  0  0  0  0  0  0  0  0  0
  160.9930  214.4530  148.8140 O   0  0  0  0  0  0  0  0  0  0  0  0
  160.9740  209.4480  149.1300 C   0  0  0  0  0  2  0  0  0  0  0  0
  161.2060  205.3350  152.8570 C   0  0  1  0  0  3  0  0  0  0  0  0
  161.6180  210.6140  147.1770 O   0  0  0  0  0  0  0  0  0  0  0  0
  160.0690  210.6760  153.8100 C   0  0  0  0  0  0  0  0  0  0  0  0
  161.4330  210.6640  148.3840 C   0  0  0  0  0  0  0  0  0  0  0  0
  161.6800  211.9400  149.1360 C   0  0  1  0  0  3  0  0  0  0  0  0
  160.7860  208.3690  154.4590 C   0  0  2  0  0  3  0  0  0  0  0  0
  162.3470  210.1720  153.9090 O   0  0  0  0  0  0  0  0  0  0  0  0
  160.7180  211.3770  152.8710 C   0  0  0  0  0  0  0  0  0  0  0  0
  162.3300  207.4990  152.6480 C   0  0  2  0  0  3  0  0  0  0  0  0
  162.2660  213.8070  148.4430 C   0  0  0  0  0  0  0  0  0  0  0  0
  160.1650  206.4300  153.0170 C   0  0  0  0  0  2  0  0  0  0  0  0
  161.0450  213.1110  148.4470 C   0  0  2  0  0  0  0  0  0  0  0  0
  161.4010  207.5010  147.6660 C   0  0  0  0  0  1  0  0  0  0  0  0
  163.5120  213.8720  148.2500 O   0  0  0  0  0  0  0  0  0  0  0  0
  158.0020  210.1220  155.0120 N   0  0  0  0  0  1  0  0  0  0  0  0
  158.0280  211.7130  153.1880 N   0  0  0  0  0  0  0  0  0  0  0  0
  162.6640  206.1910  149.7980 O   0  0  0  0  0  1  0  0  0  0  0  0
  160.9490  204.6230  151.6830 O   0  0  0  0  0  0  0  0  0  0  0  0
  160.9510  202.4240  150.7860 C   0  0  0  0  0  1  0  0  0  0  0  0
  161.1550  203.2820  152.0170 C   0  0  0  0  0  2  0  0  0  0  0  0
  2 28  1  6  0  0  0
  2 15  1  0  0  0  0
  2 10  1  0  0  0  0
  3 16  1  0  0  0  0
  4 26  1  1  0  0  0
  4 21  1  0  0  0  0
  6 22  1  0  0  0  0
  7  9  1  1  0  0  0
  8 11  2  0  0  0  0
  8 23  1  0  0  0  0
  9  8  1  0  0  0  0
 10 32  1  6  0  0  0
 10  5  1  0  0  0  0
 11 31  1  0  0  0  0
 12 18  1  6  0  0  0
 13 30  1  0  0  0  0
 16 33  1  6  0  0  0
 16 26  1  0  0  0  0
 17 19  2  0  0  0  0
 18 13  1  0  0  0  0
 19 15  1  0  0  0  0
 20 19  1  6  0  0  0
 20  7  1  0  0  0  0
 21 12  1  0  0  0  0
 21  1  1  1  0  0  0
 22 12  1  0  0  0  0
 23  6  1  0  0  0  0
 23 18  2  0  0  0  0
 24  5  1  6  0  0  0
 24  3  1  0  0  0  0
 24  4  1  0  0  0  0
 25 14  1  0  0  0  0
 27 25  1  1  0  0  0
 27 14  1  0  0  0  0
 27 20  1  0  0  0  0
 27  7  1  0  0  0  0
 29 25  2  0  0  0  0
 31 13  2  0  0  0  0
 33 35  1  0  0  0  0
 34 35  1  0  0  0  0
M  END
>  <MODEL>
3

>  <REMARK>
 VINA RESULT:       0.1      2.407      7.585
  Name = 
  2 active torsions:
  status: ('A' for Active; 'I' for Inactive)
    1  A    between atoms: C_17  and  O_35
    2  A    between atoms: C_34  and  O_35
                            x       y       z     vdW  Elec       q    Type
                         _______ _______ _______ _____ _____    ______ ____

>  <TORSDO>
F 2

$$$$
=
 OpenBabel11072411283D

 35 40  0  0  1  0  0  0  0  0999 V2000
  163.2970  210.8580  147.8010 O   0  0  0  0  0  1  0  0  0  0  0  0
  158.2620  213.3090  151.1590 C   0  0  2  0  0  3  0  0  0  0  0  0
  161.1820  213.3340  147.6840 C   0  0  0  0  0  2  0  0  0  0  0  0
  161.0560  211.1080  148.7070 C   0  0  1  0  0  3  0  0  0  0  0  0
  160.5490  213.1350  150.1470 C   0  0  0  0  0  2  0  0  0  0  0  0
  162.4260  210.7870  151.9130 O   0  0  0  0  0  0  0  0  0  0  0  0
  159.2870  210.1170  154.1170 N   0  0  2  0  0  0  0  0  0  0  0  0
  161.0160  208.9720  152.8890 C   0  0  0  0  0  0  0  0  0  0  0  0
  160.6830  209.6780  154.1560 C   0  0  0  0  0  2  0  0  0  0  0  0
  159.0540  213.2650  149.8520 C   0  0  2  0  0  3  0  0  0  0  0  0
  160.5140  207.6880  152.6160 C   0  0  0  0  0  3  0  0  0  0  0  0
  162.9400  209.8790  149.9660 C   0  0  1  0  0  3  0  0  0  0  0  0
  161.5740  207.6810  150.4780 C   0  0  0  0  0  0  0  0  0  0  0  0
  159.4100  210.0660  156.3800 O   0  0  0  0  0  0  0  0  0  0  0  0
  158.3190  211.9610  151.8670 C   0  0  0  0  0  2  0  0  0  0  0  0
  160.4050  212.4330  146.7400 C   0  0  1  0  0  3  0  0  0  0  0  0
  157.3430  212.7540  153.8680 O   0  0  0  0  0  0  0  0  0  0  0  0
  162.0570  208.9640  150.7360 C   0  0  0  0  0  0  0  0  0  0  0  0
  158.2590  212.1290  153.3550 C   0  0  0  0  0  0  0  0  0  0  0  0
  159.3440  211.5380  154.2080 C   0  0  1  0  0  3  0  0  0  0  0  0
  162.3310  210.2550  148.6110 C   0  0  2  0  0  3  0  0  0  0  0  0
  163.1380  211.0330  150.7870 O   0  0  0  0  0  0  0  0  0  0  0  0
  161.7940  209.5710  151.9000 C   0  0  0  0  0  0  0  0  0  0  0  0
  161.3730  212.5720  148.9830 C   0  0  2  0  0  3  0  0  0  0  0  0
  159.5650  211.5290  156.2720 C   0  0  0  0  0  0  0  0  0  0  0  0
  160.3130  211.0610  147.3850 C   0  0  0  0  0  2  0  0  0  0  0  0
  158.7740  210.7890  155.3760 C   0  0  2  0  0  0  0  0  0  0  0  0
  156.8030  213.6520  150.8890 C   0  0  0  0  0  1  0  0  0  0  0  0
  160.0440  212.6140  156.7030 O   0  0  0  0  0  0  0  0  0  0  0  0
  161.8700  207.0150  149.2560 N   0  0  0  0  0  1  0  0  0  0  0  0
  160.8050  207.0720  151.4280 N   0  0  0  0  0  0  0  0  0  0  0  0
  158.8390  214.4430  149.1320 O   0  0  0  0  0  1  0  0  0  0  0  0
  159.1190  212.9440  146.5570 O   0  0  0  0  0  0  0  0  0  0  0  0
  158.3790  214.2870  144.7440 C   0  0  0  0  0  1  0  0  0  0  0  0
  158.9170  212.9390  145.1750 C   0  0  0  0  0  2  0  0  0  0  0  0
  2 28  1  6  0  0  0
  2 15  1  0  0  0  0
  4 26  1  6  0  0  0
  4 24  1  0  0  0  0
  7  9  1  1  0  0  0
  7 20  1  0  0  0  0
  7 27  1  0  0  0  0
  8  9  1  0  0  0  0
 10 32  1  1  0  0  0
 10  5  1  0  0  0  0
 10  2  1  0  0  0  0
 11  8  1  0  0  0  0
 12 18  1  1  0  0  0
 12 22  1  0  0  0  0
 13 18  2  0  0  0  0
 13 31  1  0  0  0  0
 15 19  1  0  0  0  0
 16 33  1  1  0  0  0
 16 26  1  0  0  0  0
 16  3  1  0  0  0  0
 18 23  1  0  0  0  0
 19 17  2  0  0  0  0
 20 19  1  6  0  0  0
 20 27  1  0  0  0  0
 21  1  1  6  0  0  0
 21  4  1  0  0  0  0
 21 12  1  0  0  0  0
 22  6  1  0  0  0  0
 23  6  1  0  0  0  0
 23  8  2  0  0  0  0
 24  3  1  6  0  0  0
 24  5  1  0  0  0  0
 25 14  1  0  0  0  0
 25 29  2  0  0  0  0
 27 25  1  6  0  0  0
 27 14  1  0  0  0  0
 30 13  1  0  0  0  0
 31 11  2  0  0  0  0
 34 35  1  0  0  0  0
 35 33  1  0  0  0  0
M  END
>  <MODEL>
4

>  <REMARK>
 VINA RESULT:       0.1      1.576      2.012
  Name = 
  2 active torsions:
  status: ('A' for Active; 'I' for Inactive)
    1  A    between atoms: C_17  and  O_35
    2  A    between atoms: C_34  and  O_35
                            x       y       z     vdW  Elec       q    Type
                         _______ _______ _______ _____ _____    ______ ____

>  <TORSDO>
F 2

$$$$
