=
 OpenBabel11072410493D

 40 44  0  0  1  0  0  0  0  0999 V2000
  161.4060  208.7070  151.4140 C   0  0  1  0  0  3  0  0  0  0  0  0
  161.5840  206.0380  153.0850 C   0  0  2  0  0  0  0  0  0  0  0  0
  161.4550  206.6170  154.3550 O   0  0  0  0  0  0  0  0  0  0  0  0
  161.5110  207.4200  150.6960 N   0  0  0  0  0  0  0  0  0  0  0  0
  162.9300  206.3000  152.4130 C   0  0  0  0  0  2  0  0  0  0  0  0
  160.6310  207.1500  153.3350 C   0  0  1  0  0  3  0  0  0  0  0  0
  161.0420  204.7550  153.0400 O   0  0  0  0  0  1  0  0  0  0  0  0
  162.7570  206.6740  150.9350 C   0  0  0  0  0  2  0  0  0  0  0  0
  161.1800  208.5230  152.9280 C   0  0  2  0  0  3  0  0  0  0  0  0
  162.6140  209.6130  151.1810 C   0  0  0  0  0  1  0  0  0  0  0  0
  160.2670  209.6140  153.4680 C   0  0  0  0  0  2  0  0  0  0  0  0
  161.0470  210.8820  153.8090 C   0  0  0  0  0  2  0  0  0  0  0  0
  161.2710  211.0680  155.3160 C   0  0  2  0  0  3  0  0  0  0  0  0
  161.1420  209.7800  156.0700 C   0  0  0  0  0  3  0  0  0  0  0  0
  160.4840  209.7240  157.2260 C   0  0  0  0  0  2  0  0  0  0  0  0
  160.3840  212.0160  155.8370 O   0  0  0  0  0  0  0  0  0  0  0  0
  158.0940  212.4590  155.2150 C   0  0  1  0  0  0  0  0  0  0  0  0
  159.5520  212.3610  154.7700 C   0  0  1  0  0  3  0  0  0  0  0  0
  159.3030  214.3910  156.1660 F   0  0  0  0  0  0  0  0  0  0  0  0
  157.6690  212.0930  156.6130 C   0  0  0  0  0  2  0  0  0  0  0  0
  158.6340  214.4530  153.8780 F   0  0  0  0  0  0  0  0  0  0  0  0
  158.8990  213.7220  155.0230 C   0  0  0  0  0  0  0  0  0  0  0  0
  156.1000  211.5360  154.8980 C   0  0  0  0  0  2  0  0  0  0  0  0
  156.2180  211.7780  156.3950 C   0  0  0  0  0  2  0  0  0  0  0  0
  157.1370  212.2120  154.2270 O   0  0  0  0  0  0  0  0  0  0  0  0
  161.2080  207.5640  149.2670 C   0  0  0  0  0  2  0  0  0  0  0  0
  160.7770  206.2580  148.5940 C   0  0  1  0  0  3  0  0  0  0  0  0
  159.6370  206.4960  147.8240 O   0  0  0  0  0  1  0  0  0  0  0  0
  161.9100  205.7380  147.7100 C   0  0  2  0  0  3  0  0  0  0  0  0
  162.0840  206.5600  146.5910 O   0  0  0  0  0  1  0  0  0  0  0  0
  160.7660  201.5870  145.9210 C   0  0  0  0  0  3  0  0  0  0  0  0
  160.9290  201.2010  147.3590 C   0  0  0  0  0  2  0  0  0  0  0  0
  160.6010  202.3250  148.3190 C   0  0  2  0  0  3  0  0  0  0  0  0
  161.3350  204.0720  145.9990 C   0  0  0  0  0  3  0  0  0  0  0  0
  161.7880  203.2660  148.3240 C   0  0  0  0  0  2  0  0  0  0  0  0
  160.9640  202.7880  145.3610 C   0  0  0  0  0  3  0  0  0  0  0  0
  161.6530  204.3230  147.2780 C   0  0  0  0  0  0  0  0  0  0  0  0
  160.3650  201.7740  149.6880 C   0  0  0  0  0  0  0  0  0  0  0  0
  160.8800  202.4660  150.8210 N   0  0  0  0  0  1  0  0  0  0  0  0
  159.6830  200.7240  149.8490 O   0  0  0  0  0  0  0  0  0  0  0  0
  1 10  1  1  0  0  0
  1  9  1  0  0  0  0
  2  7  1  6  0  0  0
  2  6  1  0  0  0  0
  2  3  1  0  0  0  0
  4  8  1  0  0  0  0
  4  1  1  0  0  0  0
  5  2  1  0  0  0  0
  6  3  1  1  0  0  0
  8  5  1  0  0  0  0
  9  6  1  0  0  0  0
  9 11  1  6  0  0  0
 11 12  1  0  0  0  0
 13 12  1  6  0  0  0
 13 16  1  0  0  0  0
 13 14  1  0  0  0  0
 14 15  2  0  0  0  0
 17 20  1  1  0  0  0
 18 22  1  0  0  0  0
 18 17  1  0  0  0  0
 18 16  1  1  0  0  0
 21 22  1  0  0  0  0
 22 17  1  0  0  0  0
 22 19  1  0  0  0  0
 23 24  1  0  0  0  0
 24 20  1  0  0  0  0
 25 23  1  0  0  0  0
 25 17  1  0  0  0  0
 26  4  1  0  0  0  0
 27 28  1  6  0  0  0
 27 26  1  0  0  0  0
 29 30  1  6  0  0  0
 29 27  1  0  0  0  0
 31 32  1  0  0  0  0
 32 33  1  0  0  0  0
 33 35  1  0  0  0  0
 33 38  1  1  0  0  0
 34 37  2  0  0  0  0
 36 31  2  0  0  0  0
 36 34  1  0  0  0  0
 37 29  1  0  0  0  0
 37 35  1  0  0  0  0
 38 40  2  0  0  0  0
 38 39  1  0  0  0  0
M  END
>  <MODEL>
1

>  <REMARK>
 VINA RESULT:      -7.3      0.000      0.000
  Name = 
  11 active torsions:
  status: ('A' for Active; 'I' for Inactive)
    1  A    between atoms: C_4  and  C_6
    2  A    between atoms: C_4  and  C_35
    3  A    between atoms: C_5  and  C_36
    4  A    between atoms: C_6  and  C_36
    5  A    between atoms: C_8  and  C_19
    6  A    between atoms: C_8  and  C_22
    7  A    between atoms: C_9  and  O_21
    8  A    between atoms: C_10  and  C_12
    9  A    between atoms: C_19  and  N_20
   10  A    between atoms: O_21  and  C_36
   11  A    between atoms: C_22  and  C_34
                            x       y       z     vdW  Elec       q    Type
                         _______ _______ _______ _____ _____    ______ ____

>  <TORSDO>
F 11

$$$$
=
 OpenBabel11072410493D

 40 44  0  0  1  0  0  0  0  0999 V2000
  160.5000  208.5650  153.5080 C   0  0  1  0  0  3  0  0  0  0  0  0
  162.1940  209.7040  151.1030 C   0  0  2  0  0  0  0  0  0  0  0  0
  162.7680  208.4900  150.7010 O   0  0  0  0  0  0  0  0  0  0  0  0
  160.3880  209.9990  153.1710 N   0  0  0  0  0  0  0  0  0  0  0  0
  162.7510  210.2550  152.4150 C   0  0  0  0  0  2  0  0  0  0  0  0
  161.4050  208.4460  151.0820 C   0  0  1  0  0  3  0  0  0  0  0  0
  162.0060  210.5730  150.0300 O   0  0  0  0  0  1  0  0  0  0  0  0
  161.6300  210.7730  153.3270 C   0  0  0  0  0  2  0  0  0  0  0  0
  161.3010  207.7710  152.4560 C   0  0  2  0  0  3  0  0  0  0  0  0
  161.0960  208.3270  154.8940 C   0  0  0  0  0  1  0  0  0  0  0  0
  160.7260  206.3730  152.2900 C   0  0  0  0  0  2  0  0  0  0  0  0
  161.4230  205.6070  151.1680 C   0  0  0  0  0  2  0  0  0  0  0  0
  160.5610  204.4840  150.5740 C   0  0  2  0  0  3  0  0  0  0  0  0
  161.1310  203.1270  150.8530 C   0  0  0  0  0  3  0  0  0  0  0  0
  161.1280  202.6210  152.0850 C   0  0  0  0  0  2  0  0  0  0  0  0
  160.3970  204.6580  149.1970 O   0  0  0  0  0  0  0  0  0  0  0  0
  161.8000  205.2500  147.3220 C   0  0  1  0  0  0  0  0  0  0  0  0
  161.4740  205.4560  148.8000 C   0  0  1  0  0  3  0  0  0  0  0  0
  159.6700  206.4920  147.4570 F   0  0  0  0  0  0  0  0  0  0  0  0
  161.0910  204.2100  146.4950 C   0  0  0  0  0  2  0  0  0  0  0  0
  161.7200  207.6680  147.7710 F   0  0  0  0  0  0  0  0  0  0  0  0
  161.0230  206.4720  147.7490 C   0  0  0  0  0  0  0  0  0  0  0  0
  163.4010  204.5230  145.9680 C   0  0  0  0  0  2  0  0  0  0  0  0
  162.0960  203.9820  145.4040 C   0  0  0  0  0  2  0  0  0  0  0  0
  163.1260  205.4910  146.9520 O   0  0  0  0  0  0  0  0  0  0  0  0
  159.2450  210.6310  153.8410 C   0  0  0  0  0  2  0  0  0  0  0  0
  158.4070  211.5220  152.9210 C   0  0  1  0  0  3  0  0  0  0  0  0
  157.2440  211.9040  153.5910 O   0  0  0  0  0  1  0  0  0  0  0  0
  159.2160  212.7570  152.5240 C   0  0  2  0  0  3  0  0  0  0  0  0
  159.1550  213.7320  153.5260 O   0  0  0  0  0  1  0  0  0  0  0  0
  157.2220  214.1650  148.5530 C   0  0  0  0  0  3  0  0  0  0  0  0
  158.6630  214.2770  148.1590 C   0  0  0  0  0  2  0  0  0  0  0  0
  159.5550  213.2800  148.8720 C   0  0  2  0  0  3  0  0  0  0  0  0
  157.4190  213.3770  150.9700 C   0  0  0  0  0  3  0  0  0  0  0  0
  159.7820  213.8100  150.2730 C   0  0  0  0  0  2  0  0  0  0  0  0
  156.7160  213.8110  149.7410 C   0  0  0  0  0  3  0  0  0  0  0  0
  158.7360  213.3220  151.2190 C   0  0  0  0  0  0  0  0  0  0  0  0
  160.8540  213.1490  148.1450 C   0  0  0  0  0  0  0  0  0  0  0  0
  161.9650  213.9430  148.5480 N   0  0  0  0  0  1  0  0  0  0  0  0
  160.9840  212.3140  147.2070 O   0  0  0  0  0  0  0  0  0  0  0  0
  1 10  1  1  0  0  0
  2  7  1  6  0  0  0
  2  5  1  0  0  0  0
  3  2  1  0  0  0  0
  4  8  1  0  0  0  0
  4  1  1  0  0  0  0
  4 26  1  0  0  0  0
  5  8  1  0  0  0  0
  6  3  1  6  0  0  0
  6  2  1  0  0  0  0
  6  9  1  0  0  0  0
  9 11  1  6  0  0  0
  9  1  1  0  0  0  0
 12 11  1  0  0  0  0
 13 14  1  6  0  0  0
 13 12  1  0  0  0  0
 14 15  2  0  0  0  0
 16 13  1  0  0  0  0
 17 20  1  6  0  0  0
 17 22  1  0  0  0  0
 17 18  1  0  0  0  0
 18 16  1  6  0  0  0
 19 22  1  0  0  0  0
 22 21  1  0  0  0  0
 22 18  1  0  0  0  0
 23 25  1  0  0  0  0
 24 23  1  0  0  0  0
 24 20  1  0  0  0  0
 25 17  1  0  0  0  0
 27 28  1  1  0  0  0
 27 26  1  0  0  0  0
 29 27  1  0  0  0  0
 29 30  1  1  0  0  0
 31 36  2  0  0  0  0
 32 31  1  0  0  0  0
 32 33  1  0  0  0  0
 33 38  1  6  0  0  0
 33 35  1  0  0  0  0
 34 37  2  0  0  0  0
 35 37  1  0  0  0  0
 36 34  1  0  0  0  0
 37 29  1  0  0  0  0
 38 39  1  0  0  0  0
 40 38  2  0  0  0  0
M  END
>  <MODEL>
2

>  <REMARK>
 VINA RESULT:      -7.2      3.997      9.395
  Name = 
  11 active torsions:
  status: ('A' for Active; 'I' for Inactive)
    1  A    between atoms: C_4  and  C_6
    2  A    between atoms: C_4  and  C_35
    3  A    between atoms: C_5  and  C_36
    4  A    between atoms: C_6  and  C_36
    5  A    between atoms: C_8  and  C_19
    6  A    between atoms: C_8  and  C_22
    7  A    between atoms: C_9  and  O_21
    8  A    between atoms: C_10  and  C_12
    9  A    between atoms: C_19  and  N_20
   10  A    between atoms: O_21  and  C_36
   11  A    between atoms: C_22  and  C_34
                            x       y       z     vdW  Elec       q    Type
                         _______ _______ _______ _____ _____    ______ ____

>  <TORSDO>
F 11

$$$$
=
 OpenBabel11072410493D

 40 44  0  0  1  0  0  0  0  0999 V2000
  160.6630  209.7600  153.3170 C   0  0  1  0  0  3  0  0  0  0  0  0
  160.7350  207.3860  155.3940 C   0  0  2  0  0  0  0  0  0  0  0  0
  160.7070  206.3380  154.4640 O   0  0  0  0  0  0  0  0  0  0  0  0
  160.7740  210.0730  154.7570 N   0  0  0  0  0  0  0  0  0  0  0  0
  159.4100  208.1340  155.5320 C   0  0  0  0  0  2  0  0  0  0  0  0
  161.5160  207.4520  154.1320 C   0  0  1  0  0  3  0  0  0  0  0  0
  161.4430  207.0440  156.5440 O   0  0  0  0  0  1  0  0  0  0  0  0
  159.6240  209.6530  155.5750 C   0  0  0  0  0  2  0  0  0  0  0  0
  160.8170  208.2530  153.0260 C   0  0  2  0  0  3  0  0  0  0  0  0
  159.3630  210.2720  152.6990 C   0  0  0  0  0  1  0  0  0  0  0  0
  161.5430  208.0360  151.7080 C   0  0  0  0  0  2  0  0  0  0  0  0
  161.7950  206.5530  151.4420 C   0  0  0  0  0  2  0  0  0  0  0  0
  160.6080  205.8470  150.7720 C   0  0  2  0  0  3  0  0  0  0  0  0
  160.7230  204.3550  150.8460 C   0  0  0  0  0  3  0  0  0  0  0  0
  161.5960  203.7740  151.6670 C   0  0  0  0  0  2  0  0  0  0  0  0
  160.4770  206.2490  149.4400 O   0  0  0  0  0  0  0  0  0  0  0  0
  161.7320  206.2080  147.3770 C   0  0  1  0  0  0  0  0  0  0  0  0
  161.7640  206.1590  148.9040 C   0  0  1  0  0  3  0  0  0  0  0  0
  161.1880  208.4660  148.2150 F   0  0  0  0  0  0  0  0  0  0  0  0
  160.4340  206.2250  146.6150 C   0  0  0  0  0  2  0  0  0  0  0  0
  163.4660  207.7640  148.1700 F   0  0  0  0  0  0  0  0  0  0  0  0
  162.1200  207.4440  148.1540 C   0  0  0  0  0  0  0  0  0  0  0  0
  162.2030  204.9990  145.5770 C   0  0  0  0  0  2  0  0  0  0  0  0
  160.8780  205.6870  145.2870 C   0  0  0  0  0  2  0  0  0  0  0  0
  162.7880  205.5650  146.7250 O   0  0  0  0  0  0  0  0  0  0  0  0
  161.1430  211.4750  154.9860 C   0  0  0  0  0  2  0  0  0  0  0  0
  160.4430  212.1080  156.1910 C   0  0  1  0  0  3  0  0  0  0  0  0
  161.3380  212.1660  157.2600 O   0  0  0  0  0  1  0  0  0  0  0  0
  159.9660  213.5140  155.8270 C   0  0  2  0  0  3  0  0  0  0  0  0
  160.0340  214.3640  156.9360 O   0  0  0  0  0  1  0  0  0  0  0  0
  155.5680  212.8830  154.4140 C   0  0  0  0  0  3  0  0  0  0  0  0
  156.0840  213.6900  153.2630 C   0  0  0  0  0  2  0  0  0  0  0  0
  157.5630  213.4850  153.0060 C   0  0  2  0  0  3  0  0  0  0  0  0
  157.6270  212.7690  155.9140 C   0  0  0  0  0  3  0  0  0  0  0  0
  158.3110  214.2900  154.0490 C   0  0  0  0  0  2  0  0  0  0  0  0
  156.2180  212.5260  155.5290 C   0  0  0  0  0  3  0  0  0  0  0  0
  158.5670  213.4860  155.2810 C   0  0  0  0  0  0  0  0  0  0  0  0
  157.9110  213.9580  151.6320 C   0  0  0  0  0  0  0  0  0  0  0  0
  159.2780  214.1530  151.2830 N   0  0  0  0  0  1  0  0  0  0  0  0
  157.0090  214.1470  150.7690 O   0  0  0  0  0  0  0  0  0  0  0  0
  1 10  1  1  0  0  0
  1  4  1  0  0  0  0
  2  5  1  0  0  0  0
  2  7  1  1  0  0  0
  3  2  1  0  0  0  0
  4 26  1  0  0  0  0
  4  8  1  0  0  0  0
  5  8  1  0  0  0  0
  6  3  1  6  0  0  0
  6  2  1  0  0  0  0
  9 11  1  6  0  0  0
  9  1  1  0  0  0  0
  9  6  1  0  0  0  0
 12 11  1  0  0  0  0
 13 14  1  6  0  0  0
 13 12  1  0  0  0  0
 14 15  2  0  0  0  0
 16 13  1  0  0  0  0
 17 20  1  6  0  0  0
 17 22  1  0  0  0  0
 17 18  1  0  0  0  0
 18 16  1  1  0  0  0
 22 21  1  0  0  0  0
 22 19  1  0  0  0  0
 22 18  1  0  0  0  0
 23 25  1  0  0  0  0
 24 23  1  0  0  0  0
 24 20  1  0  0  0  0
 25 17  1  0  0  0  0
 26 27  1  0  0  0  0
 27 28  1  1  0  0  0
 29 27  1  0  0  0  0
 29 30  1  1  0  0  0
 31 36  2  0  0  0  0
 32 31  1  0  0  0  0
 33 38  1  6  0  0  0
 33 32  1  0  0  0  0
 33 35  1  0  0  0  0
 35 37  1  0  0  0  0
 36 34  1  0  0  0  0
 37 29  1  0  0  0  0
 37 34  2  0  0  0  0
 39 38  1  0  0  0  0
 40 38  2  0  0  0  0
M  END
>  <MODEL>
3

>  <REMARK>
 VINA RESULT:      -7.1      3.307      9.888
  Name = 
  11 active torsions:
  status: ('A' for Active; 'I' for Inactive)
    1  A    between atoms: C_4  and  C_6
    2  A    between atoms: C_4  and  C_35
    3  A    between atoms: C_5  and  C_36
    4  A    between atoms: C_6  and  C_36
    5  A    between atoms: C_8  and  C_19
    6  A    between atoms: C_8  and  C_22
    7  A    between atoms: C_9  and  O_21
    8  A    between atoms: C_10  and  C_12
    9  A    between atoms: C_19  and  N_20
   10  A    between atoms: O_21  and  C_36
   11  A    between atoms: C_22  and  C_34
                            x       y       z     vdW  Elec       q    Type
                         _______ _______ _______ _____ _____    ______ ____

>  <TORSDO>
F 11

$$$$
=
 OpenBabel11072410493D

 40 44  0  0  1  0  0  0  0  0999 V2000
  160.9480  206.8210  152.1760 C   0  0  1  0  0  3  0  0  0  0  0  0
  161.8090  207.6990  149.2710 C   0  0  2  0  0  0  0  0  0  0  0  0
  162.0290  206.4140  148.7560 O   0  0  0  0  0  0  0  0  0  0  0  0
  160.9220  208.2560  151.8260 N   0  0  0  0  0  0  0  0  0  0  0  0
  162.8680  208.1620  150.2700 C   0  0  0  0  0  2  0  0  0  0  0  0
  160.9000  206.5700  149.5970 C   0  0  1  0  0  3  0  0  0  0  0  0
  161.3710  208.5860  148.2890 O   0  0  0  0  0  1  0  0  0  0  0  0
  162.2310  208.8390  151.4910 C   0  0  0  0  0  2  0  0  0  0  0  0
  161.2030  205.9190  150.9510 C   0  0  2  0  0  3  0  0  0  0  0  0
  161.9620  206.4980  153.2710 C   0  0  0  0  0  1  0  0  0  0  0  0
  160.4210  204.6190  151.0740 C   0  0  0  0  0  2  0  0  0  0  0  0
  161.1940  203.4400  150.4860 C   0  0  0  0  0  2  0  0  0  0  0  0
  160.5800  202.9020  149.1860 C   0  0  2  0  0  3  0  0  0  0  0  0
  160.3090  201.4300  149.2570 C   0  0  0  0  0  3  0  0  0  0  0  0
  161.2680  200.5420  149.0030 C   0  0  0  0  0  2  0  0  0  0  0  0
  161.4060  203.1810  148.0930 O   0  0  0  0  0  0  0  0  0  0  0  0
  161.2630  204.0420  145.8420 C   0  0  1  0  0  0  0  0  0  0  0  0
  160.5330  203.4140  147.0270 C   0  0  1  0  0  3  0  0  0  0  0  0
  161.9850  201.6870  146.0080 F   0  0  0  0  0  0  0  0  0  0  0  0
  162.7100  204.4470  145.9300 C   0  0  0  0  0  2  0  0  0  0  0  0
  159.8790  202.1860  145.0080 F   0  0  0  0  0  0  0  0  0  0  0  0
  160.9350  202.5680  145.8170 C   0  0  0  0  0  0  0  0  0  0  0  0
  161.3350  205.8860  144.6090 C   0  0  0  0  0  2  0  0  0  0  0  0
  162.7820  205.4840  144.8490 C   0  0  0  0  0  2  0  0  0  0  0  0
  160.4810  204.8360  144.9970 O   0  0  0  0  0  0  0  0  0  0  0  0
  160.1920  209.0500  152.8220 C   0  0  0  0  0  2  0  0  0  0  0  0
  161.0870  209.9830  153.6420 C   0  0  1  0  0  3  0  0  0  0  0  0
  160.8790  211.2980  153.2240 O   0  0  0  0  0  1  0  0  0  0  0  0
  160.7520  209.8420  155.1270 C   0  0  2  0  0  3  0  0  0  0  0  0
  159.9060  208.7480  155.3430 O   0  0  0  0  0  1  0  0  0  0  0  0
  159.1900  213.6820  157.2600 C   0  0  0  0  0  3  0  0  0  0  0  0
  157.9310  213.2520  156.5720 C   0  0  0  0  0  2  0  0  0  0  0  0
  157.8360  211.7510  156.3850 C   0  0  2  0  0  3  0  0  0  0  0  0
  160.8270  211.8870  156.4850 C   0  0  0  0  0  3  0  0  0  0  0  0
  158.7290  211.3920  155.2150 C   0  0  0  0  0  2  0  0  0  0  0  0
  160.4020  213.1150  157.1950 C   0  0  0  0  0  3  0  0  0  0  0  0
  160.1230  211.0960  155.6610 C   0  0  0  0  0  0  0  0  0  0  0  0
  156.4210  211.3620  156.1020 C   0  0  0  0  0  0  0  0  0  0  0  0
  155.3780  211.8600  156.9330 N   0  0  0  0  0  1  0  0  0  0  0  0
  156.1420  210.6300  155.1120 O   0  0  0  0  0  0  0  0  0  0  0  0
  1 10  1  1  0  0  0
  2  7  1  6  0  0  0
  2  6  1  0  0  0  0
  2  5  1  0  0  0  0
  3  2  1  0  0  0  0
  4  1  1  0  0  0  0
  4 26  1  0  0  0  0
  5  8  1  0  0  0  0
  6  3  1  6  0  0  0
  6  9  1  0  0  0  0
  8  4  1  0  0  0  0
  9 11  1  1  0  0  0
  9  1  1  0  0  0  0
 12 11  1  0  0  0  0
 13 14  1  1  0  0  0
 13 12  1  0  0  0  0
 15 14  2  0  0  0  0
 16 13  1  0  0  0  0
 17 20  1  1  0  0  0
 17 18  1  0  0  0  0
 18 16  1  1  0  0  0
 21 22  1  0  0  0  0
 22 17  1  0  0  0  0
 22 19  1  0  0  0  0
 22 18  1  0  0  0  0
 23 24  1  0  0  0  0
 23 25  1  0  0  0  0
 24 20  1  0  0  0  0
 25 17  1  0  0  0  0
 26 27  1  0  0  0  0
 27 28  1  6  0  0  0
 27 29  1  0  0  0  0
 29 30  1  6  0  0  0
 29 37  1  0  0  0  0
 32 31  1  0  0  0  0
 33 38  1  6  0  0  0
 33 32  1  0  0  0  0
 34 36  1  0  0  0  0
 35 37  1  0  0  0  0
 35 33  1  0  0  0  0
 36 31  2  0  0  0  0
 37 34  2  0  0  0  0
 38 39  1  0  0  0  0
 40 38  2  0  0  0  0
M  END
>  <MODEL>
4

>  <REMARK>
 VINA RESULT:      -7.0      4.124     10.678
  Name = 
  11 active torsions:
  status: ('A' for Active; 'I' for Inactive)
    1  A    between atoms: C_4  and  C_6
    2  A    between atoms: C_4  and  C_35
    3  A    between atoms: C_5  and  C_36
    4  A    between atoms: C_6  and  C_36
    5  A    between atoms: C_8  and  C_19
    6  A    between atoms: C_8  and  C_22
    7  A    between atoms: C_9  and  O_21
    8  A    between atoms: C_10  and  C_12
    9  A    between atoms: C_19  and  N_20
   10  A    between atoms: O_21  and  C_36
   11  A    between atoms: C_22  and  C_34
                            x       y       z     vdW  Elec       q    Type
                         _______ _______ _______ _____ _____    ______ ____

>  <TORSDO>
F 11

$$$$
=
 OpenBabel11072410493D

 40 44  0  0  1  0  0  0  0  0999 V2000
  160.6840  208.2770  154.6200 C   0  0  1  0  0  3  0  0  0  0  0  0
  161.7200  209.9570  152.1600 C   0  0  2  0  0  0  0  0  0  0  0  0
  162.3060  208.8960  151.4560 O   0  0  0  0  0  0  0  0  0  0  0  0
  160.3710  209.7200  154.5580 N   0  0  0  0  0  0  0  0  0  0  0  0
  162.4870  210.3760  153.4120 C   0  0  0  0  0  2  0  0  0  0  0  0
  161.0640  208.6260  152.0810 C   0  0  1  0  0  3  0  0  0  0  0  0
  161.2290  210.9420  151.3040 O   0  0  0  0  0  1  0  0  0  0  0  0
  161.5410  210.6120  154.5980 C   0  0  0  0  0  2  0  0  0  0  0  0
  161.3150  207.7520  153.3150 C   0  0  2  0  0  3  0  0  0  0  0  0
  161.5790  207.9170  155.8050 C   0  0  0  0  0  1  0  0  0  0  0  0
  160.8510  206.3310  153.0320 C   0  0  0  0  0  2  0  0  0  0  0  0
  161.5210  205.7580  151.7850 C   0  0  0  0  0  2  0  0  0  0  0  0
  160.5590  204.9630  150.8910 C   0  0  2  0  0  3  0  0  0  0  0  0
  160.9460  203.5200  150.7880 C   0  0  0  0  0  3  0  0  0  0  0  0
  160.5900  202.7870  149.7350 C   0  0  0  0  0  2  0  0  0  0  0  0
  160.4840  205.5290  149.6150 O   0  0  0  0  0  0  0  0  0  0  0  0
  161.9340  205.7770  147.7000 C   0  0  1  0  0  0  0  0  0  0  0  0
  161.8120  205.7160  149.2210 C   0  0  1  0  0  3  0  0  0  0  0  0
  160.8420  207.8600  148.4510 F   0  0  0  0  0  0  0  0  0  0  0  0
  160.7500  205.5320  146.8020 C   0  0  0  0  0  2  0  0  0  0  0  0
  163.2080  207.6510  148.6570 F   0  0  0  0  0  0  0  0  0  0  0  0
  161.9690  207.0570  148.5000 C   0  0  0  0  0  0  0  0  0  0  0  0
  162.8370  204.7150  145.9720 C   0  0  0  0  0  2  0  0  0  0  0  0
  161.4360  205.1150  145.5350 C   0  0  0  0  0  2  0  0  0  0  0  0
  163.1640  205.3770  147.1710 O   0  0  0  0  0  0  0  0  0  0  0  0
  159.3420  210.1000  155.5330 C   0  0  0  0  0  2  0  0  0  0  0  0
  158.0970  210.7290  154.9010 C   0  0  1  0  0  3  0  0  0  0  0  0
  156.9630  210.0630  155.3690 O   0  0  0  0  0  1  0  0  0  0  0  0
  158.0270  212.2100  155.2690 C   0  0  2  0  0  3  0  0  0  0  0  0
  157.4860  212.3790  156.5480 O   0  0  0  0  0  1  0  0  0  0  0  0
  155.0660  214.2310  152.2890 C   0  0  0  0  0  3  0  0  0  0  0  0
  156.3500  214.4530  151.5510 C   0  0  0  0  0  2  0  0  0  0  0  0
  157.3820  213.3750  151.8110 C   0  0  2  0  0  3  0  0  0  0  0  0
  155.8900  213.0390  154.3870 C   0  0  0  0  0  3  0  0  0  0  0  0
  157.9870  213.6580  153.1710 C   0  0  0  0  0  2  0  0  0  0  0  0
  154.8910  213.6590  153.4880 C   0  0  0  0  0  3  0  0  0  0  0  0
  157.2250  212.9810  154.2610 C   0  0  0  0  0  0  0  0  0  0  0  0
  158.4360  213.4120  150.7520 C   0  0  0  0  0  0  0  0  0  0  0  0
  159.8050  213.5150  151.1300 N   0  0  0  0  0  1  0  0  0  0  0  0
  158.1250  213.3140  149.5330 O   0  0  0  0  0  0  0  0  0  0  0  0
  1 10  1  1  0  0  0
  2  7  1  6  0  0  0
  2  5  1  0  0  0  0
  3  2  1  0  0  0  0
  4  8  1  0  0  0  0
  4  1  1  0  0  0  0
  4 26  1  0  0  0  0
  5  8  1  0  0  0  0
  6  3  1  6  0  0  0
  6  2  1  0  0  0  0
  6  9  1  0  0  0  0
  9 11  1  6  0  0  0
  9  1  1  0  0  0  0
 12 11  1  0  0  0  0
 13 14  1  6  0  0  0
 13 12  1  0  0  0  0
 15 14  2  0  0  0  0
 16 13  1  0  0  0  0
 17 20  1  6  0  0  0
 17 22  1  0  0  0  0
 17 18  1  0  0  0  0
 18 16  1  6  0  0  0
 19 22  1  0  0  0  0
 22 21  1  0  0  0  0
 22 18  1  0  0  0  0
 23 25  1  0  0  0  0
 24 23  1  0  0  0  0
 24 20  1  0  0  0  0
 25 17  1  0  0  0  0
 27 29  1  0  0  0  0
 27 28  1  1  0  0  0
 27 26  1  0  0  0  0
 29 30  1  1  0  0  0
 31 36  2  0  0  0  0
 32 33  1  0  0  0  0
 32 31  1  0  0  0  0
 33 38  1  6  0  0  0
 33 35  1  0  0  0  0
 35 37  1  0  0  0  0
 36 34  1  0  0  0  0
 37 34  2  0  0  0  0
 37 29  1  0  0  0  0
 38 39  1  0  0  0  0
 40 38  2  0  0  0  0
M  END
>  <MODEL>
5

>  <REMARK>
 VINA RESULT:      -6.8      3.320      9.793
  Name = 
  11 active torsions:
  status: ('A' for Active; 'I' for Inactive)
    1  A    between atoms: C_4  and  C_6
    2  A    between atoms: C_4  and  C_35
    3  A    between atoms: C_5  and  C_36
    4  A    between atoms: C_6  and  C_36
    5  A    between atoms: C_8  and  C_19
    6  A    between atoms: C_8  and  C_22
    7  A    between atoms: C_9  and  O_21
    8  A    between atoms: C_10  and  C_12
    9  A    between atoms: C_19  and  N_20
   10  A    between atoms: O_21  and  C_36
   11  A    between atoms: C_22  and  C_34
                            x       y       z     vdW  Elec       q    Type
                         _______ _______ _______ _____ _____    ______ ____

>  <TORSDO>
F 11

$$$$
=
 OpenBabel11072410493D

 40 44  0  0  1  0  0  0  0  0999 V2000
  161.8910  208.0710  150.5280 C   0  0  1  0  0  3  0  0  0  0  0  0
  161.1560  208.2930  153.5870 C   0  0  2  0  0  0  0  0  0  0  0  0
  160.9090  206.9320  153.8090 O   0  0  0  0  0  0  0  0  0  0  0  0
  161.9780  209.3890  151.1900 N   0  0  0  0  0  0  0  0  0  0  0  0
  160.0810  208.9970  152.7610 C   0  0  0  0  0  2  0  0  0  0  0  0
  162.0150  207.2440  152.9810 C   0  0  1  0  0  3  0  0  0  0  0  0
  161.6560  208.9250  154.7250 O   0  0  0  0  0  1  0  0  0  0  0  0
  160.7010  209.9150  151.6980 C   0  0  0  0  0  2  0  0  0  0  0  0
  161.6460  206.9230  151.5280 C   0  0  2  0  0  3  0  0  0  0  0  0
  160.8310  208.0300  149.4290 C   0  0  0  0  0  1  0  0  0  0  0  0
  162.3780  205.6650  151.0860 C   0  0  0  0  0  2  0  0  0  0  0  0
  161.4800  204.4330  151.1670 C   0  0  0  0  0  2  0  0  0  0  0  0
  160.8130  204.0800  149.8300 C   0  0  2  0  0  3  0  0  0  0  0  0
  161.2060  202.7190  149.3450 C   0  0  0  0  0  3  0  0  0  0  0  0
  160.5630  201.6290  149.7610 C   0  0  0  0  0  2  0  0  0  0  0  0
  161.1140  205.0380  148.8570 O   0  0  0  0  0  0  0  0  0  0  0  0
  161.4490  204.9690  146.4660 C   0  0  1  0  0  0  0  0  0  0  0  0
  161.7290  204.3260  147.8230 C   0  0  1  0  0  3  0  0  0  0  0  0
  163.0080  206.4410  147.6900 F   0  0  0  0  0  0  0  0  0  0  0  0
  160.5180  206.1450  146.3260 C   0  0  0  0  0  2  0  0  0  0  0  0
  163.8570  204.4890  146.6170 F   0  0  0  0  0  0  0  0  0  0  0  0
  162.7850  205.1930  147.1340 C   0  0  0  0  0  0  0  0  0  0  0  0
  160.4590  204.5840  144.5170 C   0  0  0  0  0  2  0  0  0  0  0  0
  160.1180  206.0200  144.8860 C   0  0  0  0  0  2  0  0  0  0  0  0
  161.4750  204.1070  145.3660 O   0  0  0  0  0  0  0  0  0  0  0  0
  162.7010  210.3670  150.3680 C   0  0  0  0  0  2  0  0  0  0  0  0
  161.7880  211.2520  149.5170 C   0  0  1  0  0  3  0  0  0  0  0  0
  161.5720  212.4600  150.1830 O   0  0  0  0  0  1  0  0  0  0  0  0
  162.4410  211.5090  148.1590 C   0  0  2  0  0  3  0  0  0  0  0  0
  163.6460  212.2030  148.3120 O   0  0  0  0  0  1  0  0  0  0  0  0
  159.1460  213.4470  145.4910 C   0  0  0  0  0  3  0  0  0  0  0  0
  160.3570  213.7980  144.6830 C   0  0  0  0  0  2  0  0  0  0  0  0
  161.4780  212.7880  144.8180 C   0  0  2  0  0  3  0  0  0  0  0  0
  160.1950  212.2190  147.4640 C   0  0  0  0  0  3  0  0  0  0  0  0
  162.1540  213.0490  146.1480 C   0  0  0  0  0  2  0  0  0  0  0  0
  159.0950  212.8070  146.6660 C   0  0  0  0  0  3  0  0  0  0  0  0
  161.5190  212.2660  147.2480 C   0  0  0  0  0  0  0  0  0  0  0  0
  162.4510  212.9530  143.6950 C   0  0  0  0  0  0  0  0  0  0  0  0
  163.5470  213.8500  143.8440 N   0  0  0  0  0  1  0  0  0  0  0  0
  162.3310  212.2770  142.6360 O   0  0  0  0  0  0  0  0  0  0  0  0
  1 10  1  6  0  0  0
  1  4  1  0  0  0  0
  1  9  1  0  0  0  0
  2  3  1  0  0  0  0
  2  7  1  1  0  0  0
  4  8  1  0  0  0  0
  5  2  1  0  0  0  0
  6  2  1  0  0  0  0
  6  3  1  1  0  0  0
  8  5  1  0  0  0  0
  9 11  1  6  0  0  0
  9  6  1  0  0  0  0
 11 12  1  0  0  0  0
 13 14  1  6  0  0  0
 13 12  1  0  0  0  0
 14 15  2  0  0  0  0
 16 13  1  0  0  0  0
 17 20  1  6  0  0  0
 17 22  1  0  0  0  0
 17 18  1  0  0  0  0
 18 16  1  1  0  0  0
 21 22  1  0  0  0  0
 22 19  1  0  0  0  0
 22 18  1  0  0  0  0
 23 24  1  0  0  0  0
 23 25  1  0  0  0  0
 24 20  1  0  0  0  0
 25 17  1  0  0  0  0
 26  4  1  0  0  0  0
 27 28  1  1  0  0  0
 27 26  1  0  0  0  0
 29 30  1  1  0  0  0
 29 27  1  0  0  0  0
 31 36  2  0  0  0  0
 32 33  1  0  0  0  0
 32 31  1  0  0  0  0
 33 38  1  6  0  0  0
 33 35  1  0  0  0  0
 35 37  1  0  0  0  0
 36 34  1  0  0  0  0
 37 34  2  0  0  0  0
 37 29  1  0  0  0  0
 38 39  1  0  0  0  0
 40 38  2  0  0  0  0
M  END
>  <MODEL>
6

>  <REMARK>
 VINA RESULT:      -6.6      4.855      9.251
  Name = 
  11 active torsions:
  status: ('A' for Active; 'I' for Inactive)
    1  A    between atoms: C_4  and  C_6
    2  A    between atoms: C_4  and  C_35
    3  A    between atoms: C_5  and  C_36
    4  A    between atoms: C_6  and  C_36
    5  A    between atoms: C_8  and  C_19
    6  A    between atoms: C_8  and  C_22
    7  A    between atoms: C_9  and  O_21
    8  A    between atoms: C_10  and  C_12
    9  A    between atoms: C_19  and  N_20
   10  A    between atoms: O_21  and  C_36
   11  A    between atoms: C_22  and  C_34
                            x       y       z     vdW  Elec       q    Type
                         _______ _______ _______ _____ _____    ______ ____

>  <TORSDO>
F 11

$$$$
=
 OpenBabel11072410493D

 40 44  0  0  1  0  0  0  0  0999 V2000
  159.4390  210.5010  154.5930 C   0  0  1  0  0  3  0  0  0  0  0  0
  162.1660  210.6170  156.1750 C   0  0  2  0  0  0  0  0  0  0  0  0
  162.3620  209.2340  156.2890 O   0  0  0  0  0  0  0  0  0  0  0  0
  160.0480  211.8180  154.8710 N   0  0  0  0  0  0  0  0  0  0  0  0
  161.0480  211.1650  157.0600 C   0  0  0  0  0  2  0  0  0  0  0  0
  161.8610  209.6980  155.0480 C   0  0  1  0  0  3  0  0  0  0  0  0
  163.3720  211.3110  156.1000 O   0  0  0  0  0  1  0  0  0  0  0  0
  160.1640  212.1610  156.2980 C   0  0  0  0  0  2  0  0  0  0  0  0
  160.3750  209.3290  154.9510 C   0  0  2  0  0  3  0  0  0  0  0  0
  158.0920  210.3140  155.2890 C   0  0  0  0  0  1  0  0  0  0  0  0
  160.2010  208.1860  153.9630 C   0  0  0  0  0  2  0  0  0  0  0  0
  161.0140  208.4130  152.6900 C   0  0  0  0  0  2  0  0  0  0  0  0
  160.9300  207.2420  151.7010 C   0  0  2  0  0  3  0  0  0  0  0  0
  162.1190  206.3360  151.7960 C   0  0  0  0  0  3  0  0  0  0  0  0
  161.9720  205.0310  152.0170 C   0  0  0  0  0  2  0  0  0  0  0  0
  160.7900  207.7080  150.3900 O   0  0  0  0  0  0  0  0  0  0  0  0
  161.8240  206.8820  148.3700 C   0  0  1  0  0  0  0  0  0  0  0  0
  162.0180  207.4440  149.7770 C   0  0  1  0  0  3  0  0  0  0  0  0
  161.2070  209.2720  148.3170 F   0  0  0  0  0  0  0  0  0  0  0  0
  160.4560  206.5620  147.8290 C   0  0  0  0  0  2  0  0  0  0  0  0
  163.5130  208.6690  148.2680 F   0  0  0  0  0  0  0  0  0  0  0  0
  162.1990  208.3340  148.5450 C   0  0  0  0  0  0  0  0  0  0  0  0
  162.1920  205.0690  147.1430 C   0  0  0  0  0  2  0  0  0  0  0  0
  160.7970  205.5510  146.7740 C   0  0  0  0  0  2  0  0  0  0  0  0
  162.8510  206.0590  147.8960 O   0  0  0  0  0  0  0  0  0  0  0  0
  159.4220  212.8880  154.0860 C   0  0  0  0  0  2  0  0  0  0  0  0
  159.7180  212.8070  152.5860 C   0  0  1  0  0  3  0  0  0  0  0  0
  159.1330  211.6510  152.0670 O   0  0  0  0  0  1  0  0  0  0  0  0
  159.1560  214.0430  151.8840 C   0  0  2  0  0  3  0  0  0  0  0  0
  157.9090  214.3910  152.4150 O   0  0  0  0  0  1  0  0  0  0  0  0
  158.3610  212.9490  147.4220 C   0  0  0  0  0  3  0  0  0  0  0  0
  159.8210  213.2740  147.3410 C   0  0  0  0  0  2  0  0  0  0  0  0
  160.5690  212.9840  148.6270 C   0  0  2  0  0  3  0  0  0  0  0  0
  157.8830  213.3910  149.8880 C   0  0  0  0  0  3  0  0  0  0  0  0
  160.2590  214.1140  149.5870 C   0  0  0  0  0  2  0  0  0  0  0  0
  157.5570  213.0270  148.4900 C   0  0  0  0  0  3  0  0  0  0  0  0
  159.0440  213.8210  150.4040 C   0  0  0  0  0  0  0  0  0  0  0  0
  162.0380  212.9150  148.3570 C   0  0  0  0  0  0  0  0  0  0  0  0
  162.7080  214.0570  147.8340 N   0  0  0  0  0  1  0  0  0  0  0  0
  162.6920  211.8690  148.6260 O   0  0  0  0  0  0  0  0  0  0  0  0
  1  4  1  0  0  0  0
  1  9  1  0  0  0  0
  1 10  1  1  0  0  0
  2  7  1  6  0  0  0
  2  3  1  0  0  0  0
  2  5  1  0  0  0  0
  4  8  1  0  0  0  0
  6  2  1  0  0  0  0
  6  3  1  1  0  0  0
  8  5  1  0  0  0  0
  9 11  1  6  0  0  0
  9  6  1  0  0  0  0
 12 11  1  0  0  0  0
 13 14  1  6  0  0  0
 13 12  1  0  0  0  0
 14 15  2  0  0  0  0
 16 13  1  0  0  0  0
 17 20  1  6  0  0  0
 17 22  1  0  0  0  0
 17 18  1  0  0  0  0
 18 16  1  1  0  0  0
 19 22  1  0  0  0  0
 21 22  1  0  0  0  0
 22 18  1  0  0  0  0
 23 25  1  0  0  0  0
 24 23  1  0  0  0  0
 24 20  1  0  0  0  0
 25 17  1  0  0  0  0
 26  4  1  0  0  0  0
 27 28  1  6  0  0  0
 27 26  1  0  0  0  0
 29 30  1  1  0  0  0
 29 27  1  0  0  0  0
 31 36  2  0  0  0  0
 32 31  1  0  0  0  0
 32 33  1  0  0  0  0
 33 38  1  6  0  0  0
 33 35  1  0  0  0  0
 34 37  2  0  0  0  0
 35 37  1  0  0  0  0
 36 34  1  0  0  0  0
 37 29  1  0  0  0  0
 38 40  2  0  0  0  0
 39 38  1  0  0  0  0
M  END
>  <MODEL>
7

>  <REMARK>
 VINA RESULT:      -6.0      3.922      8.749
  Name = 
  11 active torsions:
  status: ('A' for Active; 'I' for Inactive)
    1  A    between atoms: C_4  and  C_6
    2  A    between atoms: C_4  and  C_35
    3  A    between atoms: C_5  and  C_36
    4  A    between atoms: C_6  and  C_36
    5  A    between atoms: C_8  and  C_19
    6  A    between atoms: C_8  and  C_22
    7  A    between atoms: C_9  and  O_21
    8  A    between atoms: C_10  and  C_12
    9  A    between atoms: C_19  and  N_20
   10  A    between atoms: O_21  and  C_36
   11  A    between atoms: C_22  and  C_34
                            x       y       z     vdW  Elec       q    Type
                         _______ _______ _______ _____ _____    ______ ____

>  <TORSDO>
F 11

$$$$
=
 OpenBabel11072410493D

 40 44  0  0  1  0  0  0  0  0999 V2000
  160.9290  209.3450  153.3120 C   0  0  1  0  0  3  0  0  0  0  0  0
  160.5780  207.0570  155.4540 C   0  0  2  0  0  0  0  0  0  0  0  0
  160.5060  205.9840  154.5550 O   0  0  0  0  0  0  0  0  0  0  0  0
  160.9620  209.6980  154.7460 N   0  0  0  0  0  0  0  0  0  0  0  0
  159.3370  207.9480  155.4630 C   0  0  0  0  0  2  0  0  0  0  0  0
  161.4570  206.9910  154.2580 C   0  0  1  0  0  3  0  0  0  0  0  0
  161.1520  206.6840  156.6680 O   0  0  0  0  0  1  0  0  0  0  0  0
  159.7140  209.4360  155.4800 C   0  0  0  0  0  2  0  0  0  0  0  0
  160.9380  207.8210  153.0770 C   0  0  2  0  0  3  0  0  0  0  0  0
  159.7460  209.9720  152.5760 C   0  0  0  0  0  1  0  0  0  0  0  0
  161.7360  207.4780  151.8290 C   0  0  0  0  0  2  0  0  0  0  0  0
  160.8260  207.2690  150.6200 C   0  0  0  0  0  2  0  0  0  0  0  0
  161.5520  206.6540  149.4140 C   0  0  2  0  0  3  0  0  0  0  0  0
  160.7050  206.6680  148.1790 C   0  0  0  0  0  3  0  0  0  0  0  0
  161.0600  205.9800  147.0950 C   0  0  0  0  0  2  0  0  0  0  0  0
  161.9640  205.3480  149.6950 O   0  0  0  0  0  0  0  0  0  0  0  0
  160.8560  203.2270  150.0210 C   0  0  1  0  0  0  0  0  0  0  0  0
  160.8530  204.7330  150.2780 C   0  0  1  0  0  3  0  0  0  0  0  0
  162.6540  203.7180  151.6400 F   0  0  0  0  0  0  0  0  0  0  0  0
  161.8880  202.5790  149.1370 C   0  0  0  0  0  2  0  0  0  0  0  0
  160.4000  203.6070  152.4080 F   0  0  0  0  0  0  0  0  0  0  0  0
  161.2970  203.7530  151.3660 C   0  0  0  0  0  0  0  0  0  0  0  0
  159.7020  201.6220  149.0120 C   0  0  0  0  0  2  0  0  0  0  0  0
  161.1680  201.3290  148.7280 C   0  0  0  0  0  2  0  0  0  0  0  0
  159.6020  202.6090  150.0100 O   0  0  0  0  0  0  0  0  0  0  0  0
  161.4660  211.0600  154.9640 C   0  0  0  0  0  2  0  0  0  0  0  0
  161.0430  211.6660  156.3040 C   0  0  1  0  0  3  0  0  0  0  0  0
  162.1600  211.7560  157.1370 O   0  0  0  0  0  1  0  0  0  0  0  0
  160.4450  213.0540  156.0740 C   0  0  2  0  0  3  0  0  0  0  0  0
  160.4460  213.7970  157.2600 O   0  0  0  0  0  1  0  0  0  0  0  0
  156.1010  212.1930  154.6160 C   0  0  0  0  0  3  0  0  0  0  0  0
  156.5570  213.1020  153.5160 C   0  0  0  0  0  2  0  0  0  0  0  0
  158.0460  213.0180  153.2510 C   0  0  2  0  0  3  0  0  0  0  0  0
  158.1660  212.1400  156.1120 C   0  0  0  0  0  3  0  0  0  0  0  0
  158.7360  213.8120  154.3410 C   0  0  0  0  0  2  0  0  0  0  0  0
  156.7770  211.8190  155.7100 C   0  0  0  0  0  3  0  0  0  0  0  0
  159.0520  212.9580  155.5240 C   0  0  0  0  0  0  0  0  0  0  0  0
  158.3570  213.5940  151.9070 C   0  0  0  0  0  0  0  0  0  0  0  0
  157.2940  214.0440  151.0740 N   0  0  0  0  0  1  0  0  0  0  0  0
  159.5540  213.7210  151.5240 O   0  0  0  0  0  0  0  0  0  0  0  0
  1 10  1  1  0  0  0
  1  4  1  0  0  0  0
  2  5  1  0  0  0  0
  2  7  1  1  0  0  0
  3  2  1  0  0  0  0
  4 26  1  0  0  0  0
  4  8  1  0  0  0  0
  5  8  1  0  0  0  0
  6  3  1  6  0  0  0
  6  2  1  0  0  0  0
  9 11  1  6  0  0  0
  9  1  1  0  0  0  0
  9  6  1  0  0  0  0
 12 11  1  0  0  0  0
 13 14  1  6  0  0  0
 13 16  1  0  0  0  0
 13 12  1  0  0  0  0
 15 14  2  0  0  0  0
 17 20  1  6  0  0  0
 17 18  1  0  0  0  0
 17 22  1  0  0  0  0
 18 16  1  6  0  0  0
 18 22  1  0  0  0  0
 22 19  1  0  0  0  0
 22 21  1  0  0  0  0
 23 25  1  0  0  0  0
 24 23  1  0  0  0  0
 24 20  1  0  0  0  0
 25 17  1  0  0  0  0
 26 27  1  0  0  0  0
 27 28  1  1  0  0  0
 29 27  1  0  0  0  0
 29 30  1  1  0  0  0
 31 36  2  0  0  0  0
 32 31  1  0  0  0  0
 33 38  1  6  0  0  0
 33 32  1  0  0  0  0
 33 35  1  0  0  0  0
 35 37  1  0  0  0  0
 36 34  1  0  0  0  0
 37 29  1  0  0  0  0
 37 34  2  0  0  0  0
 39 38  1  0  0  0  0
 40 38  2  0  0  0  0
M  END
>  <MODEL>
8

>  <REMARK>
 VINA RESULT:      -6.0      3.397      9.941
  Name = 
  11 active torsions:
  status: ('A' for Active; 'I' for Inactive)
    1  A    between atoms: C_4  and  C_6
    2  A    between atoms: C_4  and  C_35
    3  A    between atoms: C_5  and  C_36
    4  A    between atoms: C_6  and  C_36
    5  A    between atoms: C_8  and  C_19
    6  A    between atoms: C_8  and  C_22
    7  A    between atoms: C_9  and  O_21
    8  A    between atoms: C_10  and  C_12
    9  A    between atoms: C_19  and  N_20
   10  A    between atoms: O_21  and  C_36
   11  A    between atoms: C_22  and  C_34
                            x       y       z     vdW  Elec       q    Type
                         _______ _______ _______ _____ _____    ______ ____

>  <TORSDO>
F 11

$$$$
=
 OpenBabel11072410493D

 40 44  0  0  1  0  0  0  0  0999 V2000
  160.7630  209.7080  153.3310 C   0  0  1  0  0  3  0  0  0  0  0  0
  160.4720  207.4030  155.4640 C   0  0  2  0  0  0  0  0  0  0  0  0
  160.4700  206.3290  154.5630 O   0  0  0  0  0  0  0  0  0  0  0  0
  160.7490  210.0600  154.7650 N   0  0  0  0  0  0  0  0  0  0  0  0
  159.1910  208.2350  155.4470 C   0  0  0  0  0  2  0  0  0  0  0  0
  161.3780  207.3790  154.2870 C   0  0  1  0  0  3  0  0  0  0  0  0
  161.0370  207.0550  156.6890 O   0  0  0  0  0  1  0  0  0  0  0  0
  159.4980  209.7390  155.4720 C   0  0  0  0  0  2  0  0  0  0  0  0
  160.8480  208.1860  153.0960 C   0  0  2  0  0  3  0  0  0  0  0  0
  159.5680  210.2800  152.5700 C   0  0  0  0  0  1  0  0  0  0  0  0
  161.6860  207.8820  151.8640 C   0  0  0  0  0  2  0  0  0  0  0  0
  162.0700  209.1560  151.1150 C   0  0  0  0  0  2  0  0  0  0  0  0
  162.6000  208.8900  149.6990 C   0  0  2  0  0  3  0  0  0  0  0  0
  161.8920  209.7120  148.6670 C   0  0  0  0  0  3  0  0  0  0  0  0
  161.9880  211.0410  148.6620 C   0  0  0  0  0  2  0  0  0  0  0  0
  162.5000  207.5330  149.3780 O   0  0  0  0  0  0  0  0  0  0  0  0
  161.1570  206.3640  147.7470 C   0  0  1  0  0  0  0  0  0  0  0  0
  161.1980  207.3670  148.8980 C   0  0  1  0  0  3  0  0  0  0  0  0
  161.5920  205.1060  149.8270 F   0  0  0  0  0  0  0  0  0  0  0  0
  162.4150  205.7670  147.1740 C   0  0  0  0  0  2  0  0  0  0  0  0
  159.3640  205.8000  149.3350 F   0  0  0  0  0  0  0  0  0  0  0  0
  160.7260  205.9300  149.1280 C   0  0  0  0  0  0  0  0  0  0  0  0
  160.6840  206.1990  145.5850 C   0  0  0  0  0  2  0  0  0  0  0  0
  161.9470  205.3800  145.8020 C   0  0  0  0  0  2  0  0  0  0  0  0
  160.1160  206.5330  146.8290 O   0  0  0  0  0  0  0  0  0  0  0  0
  161.1840  211.4430  154.9950 C   0  0  0  0  0  2  0  0  0  0  0  0
  160.5160  212.1080  156.2010 C   0  0  1  0  0  3  0  0  0  0  0  0
  161.4260  212.1560  157.2580 O   0  0  0  0  0  1  0  0  0  0  0  0
  160.0680  213.5200  155.8260 C   0  0  2  0  0  3  0  0  0  0  0  0
  160.1020  214.3640  156.9420 O   0  0  0  0  0  1  0  0  0  0  0  0
  155.7110  212.9580  154.2650 C   0  0  0  0  0  3  0  0  0  0  0  0
  156.2950  213.7030  153.1050 C   0  0  0  0  0  2  0  0  0  0  0  0
  157.7760  213.4460  152.9150 C   0  0  2  0  0  3  0  0  0  0  0  0
  157.7060  212.8470  155.8490 C   0  0  0  0  0  3  0  0  0  0  0  0
  158.5070  214.2710  153.9550 C   0  0  0  0  0  2  0  0  0  0  0  0
  156.3060  212.6280  155.4190 C   0  0  0  0  0  3  0  0  0  0  0  0
  158.6920  213.5100  155.2260 C   0  0  0  0  0  0  0  0  0  0  0  0
  158.1920  213.8520  151.5380 C   0  0  0  0  0  0  0  0  0  0  0  0
  157.2730  213.7120  150.4590 N   0  0  0  0  0  1  0  0  0  0  0  0
  159.3320  214.3540  151.3330 O   0  0  0  0  0  0  0  0  0  0  0  0
  1 10  1  1  0  0  0
  1  4  1  0  0  0  0
  2  7  1  1  0  0  0
  3  2  1  0  0  0  0
  4 26  1  0  0  0  0
  4  8  1  0  0  0  0
  5  2  1  0  0  0  0
  5  8  1  0  0  0  0
  6  3  1  6  0  0  0
  6  2  1  0  0  0  0
  9 11  1  6  0  0  0
  9  1  1  0  0  0  0
  9  6  1  0  0  0  0
 12 11  1  0  0  0  0
 13 14  1  6  0  0  0
 13 12  1  0  0  0  0
 15 14  2  0  0  0  0
 16 13  1  0  0  0  0
 17 20  1  6  0  0  0
 17 18  1  0  0  0  0
 17 22  1  0  0  0  0
 18 22  1  0  0  0  0
 18 16  1  1  0  0  0
 22 21  1  0  0  0  0
 22 19  1  0  0  0  0
 23 24  1  0  0  0  0
 23 25  1  0  0  0  0
 24 20  1  0  0  0  0
 25 17  1  0  0  0  0
 26 27  1  0  0  0  0
 27 28  1  1  0  0  0
 29 27  1  0  0  0  0
 29 30  1  1  0  0  0
 31 36  2  0  0  0  0
 32 31  1  0  0  0  0
 33 38  1  6  0  0  0
 33 32  1  0  0  0  0
 33 35  1  0  0  0  0
 35 37  1  0  0  0  0
 36 34  1  0  0  0  0
 37 29  1  0  0  0  0
 37 34  2  0  0  0  0
 39 38  1  0  0  0  0
 40 38  2  0  0  0  0
M  END
>  <MODEL>
9

>  <REMARK>
 VINA RESULT:      -5.9      3.569      9.770
  Name = 
  11 active torsions:
  status: ('A' for Active; 'I' for Inactive)
    1  A    between atoms: C_4  and  C_6
    2  A    between atoms: C_4  and  C_35
    3  A    between atoms: C_5  and  C_36
    4  A    between atoms: C_6  and  C_36
    5  A    between atoms: C_8  and  C_19
    6  A    between atoms: C_8  and  C_22
    7  A    between atoms: C_9  and  O_21
    8  A    between atoms: C_10  and  C_12
    9  A    between atoms: C_19  and  N_20
   10  A    between atoms: O_21  and  C_36
   11  A    between atoms: C_22  and  C_34
                            x       y       z     vdW  Elec       q    Type
                         _______ _______ _______ _____ _____    ______ ____

>  <TORSDO>
F 11

$$$$
