=
 OpenBabel11072413183D

 27 31  0  0  1  0  0  0  0  0999 V2000
  163.0800  210.9050  157.0200 O   0  0  0  0  0  0  0  0  0  0  0  0
  157.8100  212.5220  153.2520 C   0  0  0  0  0  1  0  0  0  0  0  0
  157.7990  213.7310  156.8270 C   0  0  0  0  0  3  0  0  0  0  0  0
  160.4550  211.8690  154.1600 O   0  0  0  0  0  0  0  0  0  0  0  0
  161.1750  207.6000  155.6550 C   0  0  0  0  0  2  0  0  0  0  0  0
  157.3920  213.4380  155.5250 C   0  0  0  0  0  3  0  0  0  0  0  0
  159.0740  213.3650  157.2600 C   0  0  0  0  0  3  0  0  0  0  0  0
  159.9520  212.6970  156.4010 C   0  0  0  0  0  0  0  0  0  0  0  0
  161.0940  209.9010  156.1350 C   0  0  2  0  0  3  0  0  0  0  0  0
  161.8660  211.0490  156.7110 C   0  0  0  0  0  0  0  0  0  0  0  0
  161.4160  208.5820  156.7740 C   0  0  0  0  0  2  0  0  0  0  0  0
  158.2640  212.7890  154.6450 C   0  0  0  0  0  0  0  0  0  0  0  0
  160.3950  210.4890  153.8270 C   0  0  0  0  0  2  0  0  0  0  0  0
  161.5390  208.2640  154.4000 N   0  0  2  0  0  0  0  0  0  0  0  0
  159.5570  212.4320  155.0690 C   0  0  0  0  0  0  0  0  0  0  0  0
  161.4170  209.7180  154.6690 C   0  0  2  0  0  3  0  0  0  0  0  0
  161.2420  212.3240  156.9050 N   0  0  0  0  0  2  0  0  0  0  0  0
  160.6970  207.7630  153.2950 C   0  0  1  0  0  3  0  0  0  0  0  0
  161.3150  208.1380  151.9570 C   0  0  0  0  0  2  0  0  0  0  0  0
  160.6630  206.2360  153.2640 C   0  0  0  0  0  2  0  0  0  0  0  0
  162.2710  207.0140  151.6090 C   0  0  1  0  0  3  0  0  0  0  0  0
  161.7900  205.7800  152.3550 C   0  0  0  0  0  2  0  0  0  0  0  0
  161.2920  205.9550  149.6280 N   0  0  0  0  0  2  0  0  0  0  0  0
  160.9290  206.5010  148.3300 C   0  0  0  0  0  2  0  0  0  0  0  0
  162.2820  208.1020  149.3110 C   0  0  0  0  0  2  0  0  0  0  0  0
  161.2530  207.9200  148.3040 N   0  0  0  0  0  2  0  0  0  0  0  0
  162.3680  206.8090  150.0950 C   0  0  1  0  0  3  0  0  0  0  0  0
  2 12  1  0  0  0  0
  3  7  1  0  0  0  0
  4 15  1  0  0  0  0
  5 11  1  0  0  0  0
  6  3  2  0  0  0  0
  8 17  1  0  0  0  0
  8  7  2  0  0  0  0
  9 10  1  0  0  0  0
  9 11  1  1  0  0  0
 10 17  1  0  0  0  0
 10  1  2  0  0  0  0
 12 15  2  0  0  0  0
 12  6  1  0  0  0  0
 13  4  1  0  0  0  0
 14 16  1  0  0  0  0
 14  5  1  1  0  0  0
 15  8  1  0  0  0  0
 16 13  1  6  0  0  0
 16  9  1  0  0  0  0
 18 19  1  6  0  0  0
 18 14  1  0  0  0  0
 20 18  1  0  0  0  0
 21 19  1  6  0  0  0
 21 22  1  0  0  0  0
 22 20  1  0  0  0  0
 23 27  1  0  0  0  0
 24 23  1  0  0  0  0
 26 24  1  0  0  0  0
 26 25  1  0  0  0  0
 27 25  1  6  0  0  0
 27 21  1  0  0  0  0
M  END
>  <MODEL>
1

>  <REMARK>
 VINA RESULT:      -6.3      0.000      0.000
  Name = 
  2 active torsions:
  status: ('A' for Active; 'I' for Inactive)
    1  A    between atoms: C_2  and  N_22
    2  A    between atoms: C_19  and  C_24
                            x       y       z     vdW  Elec       q    Type
                         _______ _______ _______ _____ _____    ______ ____

>  <TORSDO>
F 2

$$$$
=
 OpenBabel11072413183D

 27 31  0  0  1  0  0  0  0  0999 V2000
  161.9440  207.5430  154.8710 O   0  0  0  0  0  0  0  0  0  0  0  0
  160.1540  212.5860  150.8790 C   0  0  0  0  0  1  0  0  0  0  0  0
  158.0250  211.9790  153.9360 C   0  0  0  0  0  3  0  0  0  0  0  0
  161.6590  210.6180  152.3310 O   0  0  0  0  0  0  0  0  0  0  0  0
  161.1040  206.2340  151.1300 C   0  0  0  0  0  2  0  0  0  0  0  0
  158.4830  212.4790  152.7160 C   0  0  0  0  0  3  0  0  0  0  0  0
  158.7520  210.9910  154.6020 C   0  0  0  0  0  3  0  0  0  0  0  0
  159.9360  210.4890  154.0550 C   0  0  0  0  0  0  0  0  0  0  0  0
  160.8620  207.9060  152.7660 C   0  0  2  0  0  3  0  0  0  0  0  0
  161.1790  208.2720  154.1840 C   0  0  0  0  0  0  0  0  0  0  0  0
  160.6610  206.4330  152.5580 C   0  0  0  0  0  2  0  0  0  0  0  0
  159.6760  212.0050  152.1640 C   0  0  0  0  0  0  0  0  0  0  0  0
  161.7460  209.6780  151.2690 C   0  0  0  0  0  2  0  0  0  0  0  0
  162.1910  207.1820  150.8680 N   0  0  2  0  0  0  0  0  0  0  0  0
  160.4220  211.0210  152.8380 C   0  0  0  0  0  0  0  0  0  0  0  0
  162.0020  208.2810  151.8460 C   0  0  2  0  0  3  0  0  0  0  0  0
  160.6310  209.4590  154.7710 N   0  0  0  0  0  2  0  0  0  0  0  0
  162.1730  207.5990  149.4510 C   0  0  1  0  0  3  0  0  0  0  0  0
  162.9550  206.6060  148.6060 C   0  0  0  0  0  2  0  0  0  0  0  0
  160.7620  207.5410  148.8680 C   0  0  0  0  0  2  0  0  0  0  0  0
  161.9650  205.5310  148.2020 C   0  0  1  0  0  3  0  0  0  0  0  0
  160.5830  206.1600  148.2640 C   0  0  0  0  0  2  0  0  0  0  0  0
  161.6340  203.6700  146.6420 N   0  0  0  0  0  2  0  0  0  0  0  0
  161.2670  203.6520  145.2360 C   0  0  0  0  0  2  0  0  0  0  0  0
  161.8880  205.8370  145.6790 C   0  0  0  0  0  2  0  0  0  0  0  0
  161.1040  205.0210  144.7690 N   0  0  0  0  0  2  0  0  0  0  0  0
  162.3040  204.9440  146.8290 C   0  0  1  0  0  3  0  0  0  0  0  0
  2 12  1  0  0  0  0
  3  7  1  0  0  0  0
  4 15  1  0  0  0  0
  5 11  1  0  0  0  0
  6  3  2  0  0  0  0
  8  7  2  0  0  0  0
  8 17  1  0  0  0  0
  9 11  1  1  0  0  0
  9 10  1  0  0  0  0
 10 17  1  0  0  0  0
 10  1  2  0  0  0  0
 12  6  1  0  0  0  0
 12 15  2  0  0  0  0
 13  4  1  0  0  0  0
 14  5  1  6  0  0  0
 14 16  1  0  0  0  0
 15  8  1  0  0  0  0
 16 13  1  6  0  0  0
 16  9  1  0  0  0  0
 18 19  1  6  0  0  0
 18 14  1  0  0  0  0
 20 18  1  0  0  0  0
 21 22  1  6  0  0  0
 21 19  1  0  0  0  0
 22 20  1  0  0  0  0
 23 27  1  0  0  0  0
 24 23  1  0  0  0  0
 26 24  1  0  0  0  0
 26 25  1  0  0  0  0
 27 25  1  6  0  0  0
 27 21  1  0  0  0  0
M  END
>  <MODEL>
2

>  <REMARK>
 VINA RESULT:      -6.2      2.230      3.800
  Name = 
  2 active torsions:
  status: ('A' for Active; 'I' for Inactive)
    1  A    between atoms: C_2  and  N_22
    2  A    between atoms: C_19  and  C_24
                            x       y       z     vdW  Elec       q    Type
                         _______ _______ _______ _____ _____    ______ ____

>  <TORSDO>
F 2

$$$$
=
 OpenBabel11072413183D

 27 31  0  0  1  0  0  0  0  0999 V2000
  160.4050  203.5890  152.2080 O   0  0  0  0  0  0  0  0  0  0  0  0
  160.8270  207.0240  146.4990 C   0  0  0  0  0  1  0  0  0  0  0  0
  162.3620  203.5770  146.5440 C   0  0  0  0  0  3  0  0  0  0  0  0
  159.9590  205.9670  149.0240 O   0  0  0  0  0  0  0  0  0  0  0  0
  162.4240  207.0630  152.7250 C   0  0  0  0  0  2  0  0  0  0  0  0
  161.9990  204.8620  146.1390 C   0  0  0  0  0  3  0  0  0  0  0  0
  161.9650  203.1010  147.7950 C   0  0  0  0  0  3  0  0  0  0  0  0
  161.2100  203.9030  148.6550 C   0  0  0  0  0  0  0  0  0  0  0  0
  161.6540  205.3950  151.2560 C   0  0  2  0  0  3  0  0  0  0  0  0
  160.9410  204.0800  151.1790 C   0  0  0  0  0  0  0  0  0  0  0  0
  162.4560  205.5700  152.5130 C   0  0  0  0  0  2  0  0  0  0  0  0
  161.2260  205.6710  146.9760 C   0  0  0  0  0  0  0  0  0  0  0  0
  160.4640  207.0320  149.8180 C   0  0  0  0  0  2  0  0  0  0  0  0
  161.1280  207.5500  152.2420 N   0  0  2  0  0  0  0  0  0  0  0  0
  160.8080  205.1920  148.2310 C   0  0  0  0  0  0  0  0  0  0  0  0
  160.6680  206.5420  151.2550 C   0  0  2  0  0  3  0  0  0  0  0  0
  160.8480  203.3720  149.9360 N   0  0  0  0  0  2  0  0  0  0  0  0
  161.2640  208.9220  151.7130 C   0  0  1  0  0  3  0  0  0  0  0  0
  160.1290  209.7930  152.2280 C   0  0  0  0  0  2  0  0  0  0  0  0
  162.5200  209.6070  152.2500 C   0  0  0  0  0  2  0  0  0  0  0  0
  160.6050  210.3600  153.5510 C   0  0  1  0  0  3  0  0  0  0  0  0
  162.1240  210.3410  153.5180 C   0  0  0  0  0  2  0  0  0  0  0  0
  159.9230  212.4990  152.5690 N   0  0  0  0  0  2  0  0  0  0  0  0
  158.6940  213.2650  152.6980 C   0  0  0  0  0  2  0  0  0  0  0  0
  158.6310  211.7120  154.4130 C   0  0  0  0  0  2  0  0  0  0  0  0
  157.7860  212.5600  153.5920 N   0  0  0  0  0  2  0  0  0  0  0  0
  160.0200  211.7510  153.8090 C   0  0  1  0  0  3  0  0  0  0  0  0
  2 12  1  0  0  0  0
  3  7  1  0  0  0  0
  4 13  1  0  0  0  0
  6  3  2  0  0  0  0
  6 12  1  0  0  0  0
  7  8  2  0  0  0  0
  8 17  1  0  0  0  0
  9 11  1  1  0  0  0
 10  9  1  0  0  0  0
 10  1  2  0  0  0  0
 11  5  1  0  0  0  0
 12 15  2  0  0  0  0
 14  5  1  6  0  0  0
 15  8  1  0  0  0  0
 15  4  1  0  0  0  0
 16 13  1  6  0  0  0
 16  9  1  0  0  0  0
 16 14  1  0  0  0  0
 17 10  1  0  0  0  0
 18 19  1  1  0  0  0
 18 14  1  0  0  0  0
 18 20  1  0  0  0  0
 20 22  1  0  0  0  0
 21 19  1  6  0  0  0
 21 27  1  0  0  0  0
 22 21  1  0  0  0  0
 23 24  1  0  0  0  0
 23 27  1  0  0  0  0
 24 26  1  0  0  0  0
 26 25  1  0  0  0  0
 27 25  1  6  0  0  0
M  END
>  <MODEL>
3

>  <REMARK>
 VINA RESULT:      -6.1      3.323      8.382
  Name = 
  2 active torsions:
  status: ('A' for Active; 'I' for Inactive)
    1  A    between atoms: C_2  and  N_22
    2  A    between atoms: C_19  and  C_24
                            x       y       z     vdW  Elec       q    Type
                         _______ _______ _______ _____ _____    ______ ____

>  <TORSDO>
F 2

$$$$
=
 OpenBabel11072413183D

 27 31  0  0  1  0  0  0  0  0999 V2000
  162.3070  207.9610  155.5320 O   0  0  0  0  0  0  0  0  0  0  0  0
  158.5950  212.1890  151.9370 C   0  0  0  0  0  1  0  0  0  0  0  0
  157.4380  211.4540  155.4540 C   0  0  0  0  0  3  0  0  0  0  0  0
  160.7830  210.6860  153.0340 O   0  0  0  0  0  0  0  0  0  0  0  0
  160.8870  206.1880  152.1780 C   0  0  0  0  0  2  0  0  0  0  0  0
  157.4740  211.9240  154.1410 C   0  0  0  0  0  3  0  0  0  0  0  0
  158.4940  210.6890  155.9510 C   0  0  0  0  0  3  0  0  0  0  0  0
  159.5900  210.3790  155.1420 C   0  0  0  0  0  0  0  0  0  0  0  0
  160.7000  207.9200  153.7580 C   0  0  2  0  0  3  0  0  0  0  0  0
  161.2640  208.4650  155.0350 C   0  0  0  0  0  0  0  0  0  0  0  0
  160.7680  206.4240  153.6630 C   0  0  0  0  0  2  0  0  0  0  0  0
  158.5720  211.6430  153.3230 C   0  0  0  0  0  0  0  0  0  0  0  0
  160.8080  209.6900  152.0210 C   0  0  0  0  0  2  0  0  0  0  0  0
  161.6560  207.3020  151.6140 N   0  0  2  0  0  0  0  0  0  0  0  0
  159.6480  210.8860  153.8220 C   0  0  0  0  0  0  0  0  0  0  0  0
  161.4810  208.4270  152.5660 C   0  0  2  0  0  3  0  0  0  0  0  0
  160.6370  209.5700  155.6960 N   0  0  0  0  0  2  0  0  0  0  0  0
  161.2110  207.5810  150.2330 C   0  0  1  0  0  3  0  0  0  0  0  0
  162.3200  207.2370  149.2510 C   0  0  0  0  0  2  0  0  0  0  0  0
  160.0620  206.6640  149.8190 C   0  0  0  0  0  2  0  0  0  0  0  0
  162.1370  205.7720  148.9100 C   0  0  1  0  0  3  0  0  0  0  0  0
  160.6760  205.4390  149.1690 C   0  0  0  0  0  2  0  0  0  0  0  0
  162.2550  204.1000  147.1220 N   0  0  0  0  0  2  0  0  0  0  0  0
  161.8760  204.1670  145.7200 C   0  0  0  0  0  2  0  0  0  0  0  0
  161.9320  206.3640  146.4460 C   0  0  0  0  0  2  0  0  0  0  0  0
  161.3620  205.4980  145.4310 N   0  0  0  0  0  2  0  0  0  0  0  0
  162.5840  205.4670  147.4780 C   0  0  1  0  0  3  0  0  0  0  0  0
  2 12  1  0  0  0  0
  3  7  1  0  0  0  0
  4 15  1  0  0  0  0
  5 11  1  0  0  0  0
  6  3  2  0  0  0  0
  8 17  1  0  0  0  0
  8  7  2  0  0  0  0
  9 11  1  1  0  0  0
  9 10  1  0  0  0  0
 10  1  2  0  0  0  0
 10 17  1  0  0  0  0
 12 15  2  0  0  0  0
 12  6  1  0  0  0  0
 13  4  1  0  0  0  0
 14  5  1  1  0  0  0
 14 16  1  0  0  0  0
 15  8  1  0  0  0  0
 16 13  1  6  0  0  0
 16  9  1  0  0  0  0
 18 19  1  6  0  0  0
 18 14  1  0  0  0  0
 20 18  1  0  0  0  0
 21 22  1  6  0  0  0
 21 19  1  0  0  0  0
 22 20  1  0  0  0  0
 23 27  1  0  0  0  0
 24 23  1  0  0  0  0
 26 24  1  0  0  0  0
 26 25  1  0  0  0  0
 27 25  1  6  0  0  0
 27 21  1  0  0  0  0
M  END
>  <MODEL>
4

>  <REMARK>
 VINA RESULT:      -6.1      1.974      2.968
  Name = 
  2 active torsions:
  status: ('A' for Active; 'I' for Inactive)
    1  A    between atoms: C_2  and  N_22
    2  A    between atoms: C_19  and  C_24
                            x       y       z     vdW  Elec       q    Type
                         _______ _______ _______ _____ _____    ______ ____

>  <TORSDO>
F 2

$$$$
=
 OpenBabel11072413183D

 27 31  0  0  1  0  0  0  0  0999 V2000
  156.4140  212.5730  145.8820 O   0  0  0  0  0  0  0  0  0  0  0  0
  162.9340  212.5930  147.3220 C   0  0  0  0  0  1  0  0  0  0  0  0
  160.6500  214.4530  149.6820 C   0  0  0  0  0  3  0  0  0  0  0  0
  160.3160  211.8620  146.3940 O   0  0  0  0  0  0  0  0  0  0  0  0
  158.5770  214.2550  142.8970 C   0  0  0  0  0  2  0  0  0  0  0  0
  161.7980  213.9630  149.0570 C   0  0  0  0  0  3  0  0  0  0  0  0
  159.3890  214.1190  149.1860 C   0  0  0  0  0  3  0  0  0  0  0  0
  159.2610  213.3010  148.0600 C   0  0  0  0  0  0  0  0  0  0  0  0
  158.4370  213.6320  145.1610 C   0  0  2  0  0  3  0  0  0  0  0  0
  157.5360  213.0470  146.2060 C   0  0  0  0  0  0  0  0  0  0  0  0
  157.7080  214.4280  144.1180 C   0  0  0  0  0  2  0  0  0  0  0  0
  161.6890  213.1260  147.9430 C   0  0  0  0  0  0  0  0  0  0  0  0
  160.5110  212.2720  145.0470 C   0  0  0  0  0  2  0  0  0  0  0  0
  159.1630  212.9130  142.9590 N   0  0  2  0  0  0  0  0  0  0  0  0
  160.4210  212.7720  147.4470 C   0  0  0  0  0  0  0  0  0  0  0  0
  159.1510  212.5400  144.3950 C   0  0  2  0  0  3  0  0  0  0  0  0
  157.9420  213.0080  147.5800 N   0  0  0  0  0  2  0  0  0  0  0  0
  160.4980  212.9100  142.3270 C   0  0  1  0  0  3  0  0  0  0  0  0
  160.8030  211.5310  141.7630 C   0  0  0  0  0  2  0  0  0  0  0  0
  160.5390  213.8210  141.1010 C   0  0  0  0  0  2  0  0  0  0  0  0
  160.2430  211.5220  140.3550 C   0  0  1  0  0  3  0  0  0  0  0  0
  160.1790  212.9700  139.8970 C   0  0  0  0  0  2  0  0  0  0  0  0
  161.7080  209.5650  140.1810 N   0  0  0  0  0  2  0  0  0  0  0  0
  161.6670  208.4120  139.2960 C   0  0  0  0  0  2  0  0  0  0  0  0
  160.2450  209.9690  138.3420 C   0  0  0  0  0  2  0  0  0  0  0  0
  160.5330  208.5470  138.3930 N   0  0  0  0  0  2  0  0  0  0  0  0
  161.0700  210.6280  139.4270 C   0  0  1  0  0  3  0  0  0  0  0  0
  1 10  2  0  0  0  0
  2 12  1  0  0  0  0
  4 15  1  0  0  0  0
  5 11  1  0  0  0  0
  6  3  2  0  0  0  0
  7  3  1  0  0  0  0
  8  7  2  0  0  0  0
  9 11  1  6  0  0  0
  9 10  1  0  0  0  0
 10 17  1  0  0  0  0
 12  6  1  0  0  0  0
 13  4  1  0  0  0  0
 14  5  1  1  0  0  0
 14 16  1  0  0  0  0
 15 12  2  0  0  0  0
 15  8  1  0  0  0  0
 16 13  1  1  0  0  0
 16  9  1  0  0  0  0
 17  8  1  0  0  0  0
 18 20  1  6  0  0  0
 18 14  1  0  0  0  0
 19 18  1  0  0  0  0
 21 22  1  6  0  0  0
 21 19  1  0  0  0  0
 22 20  1  0  0  0  0
 24 23  1  0  0  0  0
 25 26  1  0  0  0  0
 26 24  1  0  0  0  0
 27 25  1  6  0  0  0
 27 23  1  0  0  0  0
 27 21  1  0  0  0  0
M  END
>  <MODEL>
5

>  <REMARK>
 VINA RESULT:      -5.0      8.002     10.873
  Name = 
  2 active torsions:
  status: ('A' for Active; 'I' for Inactive)
    1  A    between atoms: C_2  and  N_22
    2  A    between atoms: C_19  and  C_24
                            x       y       z     vdW  Elec       q    Type
                         _______ _______ _______ _____ _____    ______ ____

>  <TORSDO>
F 2

$$$$
=
 OpenBabel11072413183D

 27 31  0  0  1  0  0  0  0  0999 V2000
  161.7390  208.7870  156.7700 O   0  0  0  0  0  0  0  0  0  0  0  0
  160.5150  212.0080  151.0510 C   0  0  0  0  0  1  0  0  0  0  0  0
  158.3060  212.8410  153.9960 C   0  0  0  0  0  3  0  0  0  0  0  0
  161.7970  210.6360  153.2250 O   0  0  0  0  0  0  0  0  0  0  0  0
  160.8050  206.2020  153.7940 C   0  0  0  0  0  2  0  0  0  0  0  0
  158.8250  212.7810  152.7020 C   0  0  0  0  0  3  0  0  0  0  0  0
  158.9220  212.1300  155.0280 C   0  0  0  0  0  3  0  0  0  0  0  0
  160.0530  211.3490  154.7780 C   0  0  0  0  0  0  0  0  0  0  0  0
  160.7210  208.3950  154.6390 C   0  0  2  0  0  3  0  0  0  0  0  0
  161.0600  209.2560  155.8170 C   0  0  0  0  0  0  0  0  0  0  0  0
  160.3710  206.9830  155.0090 C   0  0  0  0  0  2  0  0  0  0  0  0
  159.9680  212.0220  152.4370 C   0  0  0  0  0  0  0  0  0  0  0  0
  161.7960  209.3520  152.6170 C   0  0  0  0  0  2  0  0  0  0  0  0
  161.9860  206.8690  153.2370 N   0  0  2  0  0  0  0  0  0  0  0  0
  160.6030  211.3170  153.4750 C   0  0  0  0  0  0  0  0  0  0  0  0
  161.9020  208.2750  153.7010 C   0  0  2  0  0  3  0  0  0  0  0  0
  160.6320  210.6220  155.8700 N   0  0  0  0  0  2  0  0  0  0  0  0
  162.0240  206.6990  151.7710 C   0  0  1  0  0  3  0  0  0  0  0  0
  162.6290  205.3490  151.4190 C   0  0  0  0  0  2  0  0  0  0  0  0
  160.6180  206.6320  151.1780 C   0  0  0  0  0  2  0  0  0  0  0  0
  161.4760  204.3650  151.4060 C   0  0  1  0  0  3  0  0  0  0  0  0
  160.2140  205.1700  151.1440 C   0  0  0  0  0  2  0  0  0  0  0  0
  161.0880  202.0130  150.8390 N   0  0  0  0  0  2  0  0  0  0  0  0
  160.5830  201.3890  149.6270 C   0  0  0  0  0  2  0  0  0  0  0  0
  161.1300  203.5550  149.0210 C   0  0  0  0  0  2  0  0  0  0  0  0
  160.3020  202.4250  148.6420 N   0  0  0  0  0  2  0  0  0  0  0  0
  161.7060  203.2450  150.3870 C   0  0  1  0  0  3  0  0  0  0  0  0
  2 12  1  0  0  0  0
  3  7  1  0  0  0  0
  4 15  1  0  0  0  0
  5 11  1  0  0  0  0
  6  3  2  0  0  0  0
  8  7  2  0  0  0  0
  8 17  1  0  0  0  0
  9 11  1  1  0  0  0
  9 10  1  0  0  0  0
 10 17  1  0  0  0  0
 10  1  2  0  0  0  0
 12  6  1  0  0  0  0
 12 15  2  0  0  0  0
 13  4  1  0  0  0  0
 14 16  1  0  0  0  0
 14  5  1  6  0  0  0
 15  8  1  0  0  0  0
 16 13  1  6  0  0  0
 16  9  1  0  0  0  0
 18 20  1  1  0  0  0
 18 14  1  0  0  0  0
 19 18  1  0  0  0  0
 21 22  1  6  0  0  0
 21 19  1  0  0  0  0
 22 20  1  0  0  0  0
 24 23  1  0  0  0  0
 26 25  1  0  0  0  0
 26 24  1  0  0  0  0
 27 25  1  6  0  0  0
 27 23  1  0  0  0  0
 27 21  1  0  0  0  0
M  END
>  <MODEL>
6

>  <REMARK>
 VINA RESULT:      -4.8      2.252      3.026
  Name = 
  2 active torsions:
  status: ('A' for Active; 'I' for Inactive)
    1  A    between atoms: C_2  and  N_22
    2  A    between atoms: C_19  and  C_24
                            x       y       z     vdW  Elec       q    Type
                         _______ _______ _______ _____ _____    ______ ____

>  <TORSDO>
F 2

$$$$
=
 OpenBabel11072413183D

 27 31  0  0  1  0  0  0  0  0999 V2000
  160.8440  211.8290  153.9370 O   0  0  0  0  0  0  0  0  0  0  0  0
  161.1400  212.2000  147.2770 C   0  0  0  0  0  1  0  0  0  0  0  0
  158.2660  213.9680  148.9680 C   0  0  0  0  0  3  0  0  0  0  0  0
  161.8160  212.0090  150.0620 O   0  0  0  0  0  0  0  0  0  0  0  0
  160.6680  208.1520  152.2480 C   0  0  0  0  0  2  0  0  0  0  0  0
  159.0940  213.4210  147.9880 C   0  0  0  0  0  3  0  0  0  0  0  0
  158.5930  213.8250  150.3180 C   0  0  0  0  0  3  0  0  0  0  0  0
  159.7430  213.1290  150.7010 C   0  0  0  0  0  0  0  0  0  0  0  0
  160.3950  210.4760  152.0140 C   0  0  2  0  0  3  0  0  0  0  0  0
  160.4330  211.7820  152.7470 C   0  0  0  0  0  0  0  0  0  0  0  0
  159.9490  209.3240  152.8670 C   0  0  0  0  0  2  0  0  0  0  0  0
  160.2600  212.7410  148.3510 C   0  0  0  0  0  0  0  0  0  0  0  0
  161.9570  210.5950  150.0890 C   0  0  0  0  0  2  0  0  0  0  0  0
  161.9580  208.6380  151.7490 N   0  0  2  0  0  0  0  0  0  0  0  0
  160.6040  212.6070  149.7080 C   0  0  0  0  0  0  0  0  0  0  0  0
  161.7740  210.0930  151.5240 C   0  0  2  0  0  3  0  0  0  0  0  0
  160.0190  212.9930  152.1010 N   0  0  0  0  0  2  0  0  0  0  0  0
  162.3650  207.8710  150.5540 C   0  0  1  0  0  3  0  0  0  0  0  0
  162.7120  206.4430  150.9460 C   0  0  0  0  0  2  0  0  0  0  0  0
  161.2060  207.7060  149.5730 C   0  0  0  0  0  2  0  0  0  0  0  0
  161.4130  205.6650  150.8840 C   0  0  1  0  0  3  0  0  0  0  0  0
  160.4990  206.4110  149.9270 C   0  0  0  0  0  2  0  0  0  0  0  0
  160.9230  203.3130  151.3660 N   0  0  0  0  0  2  0  0  0  0  0  0
  160.4770  202.2300  150.5040 C   0  0  0  0  0  2  0  0  0  0  0  0
  161.2060  203.8950  149.0710 C   0  0  0  0  0  2  0  0  0  0  0  0
  160.3410  202.7320  149.1440 N   0  0  0  0  0  2  0  0  0  0  0  0
  161.6510  204.2060  150.4850 C   0  0  1  0  0  3  0  0  0  0  0  0
  2 12  1  0  0  0  0
  3  7  1  0  0  0  0
  4 13  1  0  0  0  0
  5 11  1  0  0  0  0
  6 12  1  0  0  0  0
  6  3  2  0  0  0  0
  7  8  2  0  0  0  0
  8 17  1  0  0  0  0
  9 10  1  0  0  0  0
  9 11  1  1  0  0  0
 10  1  2  0  0  0  0
 12 15  2  0  0  0  0
 14  5  1  6  0  0  0
 15  4  1  0  0  0  0
 15  8  1  0  0  0  0
 16 13  1  6  0  0  0
 16 14  1  0  0  0  0
 16  9  1  0  0  0  0
 17 10  1  0  0  0  0
 18 20  1  6  0  0  0
 18 19  1  0  0  0  0
 18 14  1  0  0  0  0
 20 22  1  0  0  0  0
 21 22  1  6  0  0  0
 21 19  1  0  0  0  0
 24 23  1  0  0  0  0
 25 26  1  0  0  0  0
 26 24  1  0  0  0  0
 27 25  1  6  0  0  0
 27 21  1  0  0  0  0
 27 23  1  0  0  0  0
M  END
>  <MODEL>
7

>  <REMARK>
 VINA RESULT:      -4.7      3.189      4.769
  Name = 
  2 active torsions:
  status: ('A' for Active; 'I' for Inactive)
    1  A    between atoms: C_2  and  N_22
    2  A    between atoms: C_19  and  C_24
                            x       y       z     vdW  Elec       q    Type
                         _______ _______ _______ _____ _____    ______ ____

>  <TORSDO>
F 2

$$$$
=
 OpenBabel11072413183D

 27 31  0  0  1  0  0  0  0  0999 V2000
  162.4620  211.2270  150.0250 O   0  0  0  0  0  0  0  0  0  0  0  0
  161.2130  205.6780  153.5220 C   0  0  0  0  0  1  0  0  0  0  0  0
  160.5290  205.5580  149.8120 C   0  0  0  0  0  3  0  0  0  0  0  0
  162.3190  208.1570  152.5840 O   0  0  0  0  0  0  0  0  0  0  0  0
  159.6880  211.8920  152.9020 C   0  0  0  0  0  2  0  0  0  0  0  0
  160.5780  205.2150  151.1640 C   0  0  0  0  0  3  0  0  0  0  0  0
  161.0340  206.7880  149.3860 C   0  0  0  0  0  3  0  0  0  0  0  0
  161.5850  207.6880  150.3030 C   0  0  0  0  0  0  0  0  0  0  0  0
  160.8180  210.3520  151.5300 C   0  0  2  0  0  3  0  0  0  0  0  0
  161.8190  210.2190  150.4230 C   0  0  0  0  0  0  0  0  0  0  0  0
  160.0050  211.6110  151.4540 C   0  0  0  0  0  2  0  0  0  0  0  0
  161.1450  206.0920  152.0930 C   0  0  0  0  0  0  0  0  0  0  0  0
  161.5830  208.9960  153.4630 C   0  0  0  0  0  2  0  0  0  0  0  0
  160.8300  211.4380  153.7000 N   0  0  2  0  0  0  0  0  0  0  0  0
  161.6710  207.3260  151.6680 C   0  0  0  0  0  0  0  0  0  0  0  0
  161.5070  210.4090  152.8750 C   0  0  2  0  0  3  0  0  0  0  0  0
  162.0680  208.9460  149.8140 N   0  0  0  0  0  2  0  0  0  0  0  0
  160.3730  210.9720  155.0250 C   0  0  1  0  0  3  0  0  0  0  0  0
  159.9620  212.1590  155.8810 C   0  0  0  0  0  2  0  0  0  0  0  0
  159.0950  210.1430  154.9170 C   0  0  0  0  0  2  0  0  0  0  0  0
  158.5000  212.4110  155.5730 C   0  0  1  0  0  3  0  0  0  0  0  0
  157.9250  211.0990  155.0630 C   0  0  0  0  0  2  0  0  0  0  0  0
  157.3090  214.3230  156.5370 N   0  0  0  0  0  2  0  0  0  0  0  0
  156.0190  214.4140  157.2010 C   0  0  0  0  0  2  0  0  0  0  0  0
  156.5310  212.1580  157.1630 C   0  0  0  0  0  2  0  0  0  0  0  0
  155.4220  213.0880  157.2610 N   0  0  0  0  0  2  0  0  0  0  0  0
  157.7570  212.9670  156.7910 C   0  0  1  0  0  3  0  0  0  0  0  0
  1 10  2  0  0  0  0
  3  6  1  0  0  0  0
  4 13  1  0  0  0  0
  6 12  2  0  0  0  0
  7  3  2  0  0  0  0
  7  8  1  0  0  0  0
  8 15  2  0  0  0  0
  9 11  1  6  0  0  0
  9 16  1  0  0  0  0
 10  9  1  0  0  0  0
 11  5  1  0  0  0  0
 12  2  1  0  0  0  0
 14  5  1  6  0  0  0
 14 18  1  0  0  0  0
 15 12  1  0  0  0  0
 15  4  1  0  0  0  0
 16 13  1  1  0  0  0
 16 14  1  0  0  0  0
 17  8  1  0  0  0  0
 17 10  1  0  0  0  0
 18 20  1  6  0  0  0
 18 19  1  0  0  0  0
 20 22  1  0  0  0  0
 21 22  1  1  0  0  0
 21 19  1  0  0  0  0
 21 27  1  0  0  0  0
 23 27  1  0  0  0  0
 23 24  1  0  0  0  0
 24 26  1  0  0  0  0
 25 26  1  0  0  0  0
 27 25  1  6  0  0  0
M  END
>  <MODEL>
8

>  <REMARK>
 VINA RESULT:      -4.4      2.473      7.855
  Name = 
  2 active torsions:
  status: ('A' for Active; 'I' for Inactive)
    1  A    between atoms: C_2  and  N_22
    2  A    between atoms: C_19  and  C_24
                            x       y       z     vdW  Elec       q    Type
                         _______ _______ _______ _____ _____    ______ ____

>  <TORSDO>
F 2

$$$$
=
 OpenBabel11072413183D

 27 31  0  0  1  0  0  0  0  0999 V2000
  159.5010  201.9060  149.9170 O   0  0  0  0  0  0  0  0  0  0  0  0
  162.0150  207.3280  146.9400 C   0  0  0  0  0  1  0  0  0  0  0  0
  162.7380  203.9930  145.3260 C   0  0  0  0  0  3  0  0  0  0  0  0
  160.3550  205.5190  148.4300 O   0  0  0  0  0  0  0  0  0  0  0  0
  162.0120  203.9100  152.3850 C   0  0  0  0  0  2  0  0  0  0  0  0
  162.7610  205.3570  145.6210 C   0  0  0  0  0  3  0  0  0  0  0  0
  161.9560  203.1270  146.0920 C   0  0  0  0  0  3  0  0  0  0  0  0
  161.1990  203.6100  147.1620 C   0  0  0  0  0  0  0  0  0  0  0  0
  161.2950  203.4680  150.1890 C   0  0  2  0  0  3  0  0  0  0  0  0
  160.3630  202.6370  149.3600 C   0  0  0  0  0  0  0  0  0  0  0  0
  161.7830  202.7700  151.4250 C   0  0  0  0  0  2  0  0  0  0  0  0
  161.9930  205.8620  146.6740 C   0  0  0  0  0  0  0  0  0  0  0  0
  160.8610  205.8650  149.7110 C   0  0  0  0  0  2  0  0  0  0  0  0
  161.0050  204.9370  152.1000 N   0  0  2  0  0  0  0  0  0  0  0  0
  161.1910  204.9970  147.4400 C   0  0  0  0  0  0  0  0  0  0  0  0
  160.6010  204.7150  150.6900 C   0  0  2  0  0  3  0  0  0  0  0  0
  160.4320  202.6720  147.9290 N   0  0  0  0  0  2  0  0  0  0  0  0
  161.5500  206.2790  152.3870 C   0  0  1  0  0  3  0  0  0  0  0  0
  160.4550  207.1770  152.9410 C   0  0  0  0  0  2  0  0  0  0  0  0
  162.5850  206.2350  153.5100 C   0  0  0  0  0  2  0  0  0  0  0  0
  160.4560  206.9620  154.4410 C   0  0  1  0  0  3  0  0  0  0  0  0
  161.8440  206.4670  154.8140 C   0  0  0  0  0  2  0  0  0  0  0  0
  160.4560  208.1580  156.5790 N   0  0  0  0  0  2  0  0  0  0  0  0
  160.8460  209.5180  156.9180 C   0  0  0  0  0  2  0  0  0  0  0  0
  160.6500  209.4920  154.6120 C   0  0  0  0  0  2  0  0  0  0  0  0
  161.2820  210.2010  155.7080 N   0  0  0  0  0  2  0  0  0  0  0  0
  160.0420  208.2310  155.1910 C   0  0  1  0  0  3  0  0  0  0  0  0
  3  6  2  0  0  0  0
  3  7  1  0  0  0  0
  4 13  1  0  0  0  0
  6 12  1  0  0  0  0
  7  8  2  0  0  0  0
  8 15  1  0  0  0  0
  8 17  1  0  0  0  0
  9 16  1  0  0  0  0
  9 11  1  1  0  0  0
 10  1  2  0  0  0  0
 10  9  1  0  0  0  0
 11  5  1  0  0  0  0
 12  2  1  0  0  0  0
 12 15  2  0  0  0  0
 14  5  1  6  0  0  0
 14 18  1  0  0  0  0
 15  4  1  0  0  0  0
 16 13  1  6  0  0  0
 16 14  1  0  0  0  0
 17 10  1  0  0  0  0
 18 19  1  1  0  0  0
 18 20  1  0  0  0  0
 20 22  1  0  0  0  0
 21 19  1  6  0  0  0
 21 22  1  0  0  0  0
 21 27  1  0  0  0  0
 23 24  1  0  0  0  0
 25 26  1  0  0  0  0
 26 24  1  0  0  0  0
 27 25  1  6  0  0  0
 27 23  1  0  0  0  0
M  END
>  <MODEL>
9

>  <REMARK>
 VINA RESULT:      -4.3      3.763      9.124
  Name = 
  2 active torsions:
  status: ('A' for Active; 'I' for Inactive)
    1  A    between atoms: C_2  and  N_22
    2  A    between atoms: C_19  and  C_24
                            x       y       z     vdW  Elec       q    Type
                         _______ _______ _______ _____ _____    ______ ____

>  <TORSDO>
F 2

$$$$
