=
 OpenBabel11072414513D

 47 52  0  0  1  0  0  0  0  0999 V2000
  161.4460  205.9090  154.9360 C   0  0  0  0  0  3  0  0  0  0  0  0
  161.4130  209.2790  153.2010 C   0  0  2  0  0  3  0  0  0  0  0  0
  159.7730  210.0390  155.9450 C   0  0  0  0  0  2  0  0  0  0  0  0
  161.1750  207.8160  152.7470 C   0  0  2  0  0  3  0  0  0  0  0  0
  161.6990  206.7680  155.8840 N   0  0  0  0  0  0  0  0  0  0  0  0
  162.0460  208.5710  150.5120 C   0  0  2  0  0  3  0  0  0  0  0  0
  160.9940  207.7140  151.2280 C   0  0  1  0  0  3  0  0  0  0  0  0
  160.1880  205.9040  154.1040 C   0  0  0  0  0  2  0  0  0  0  0  0
  159.8060  207.5350  157.2610 N   0  0  0  0  0  1  0  0  0  0  0  0
  160.8420  209.0160  155.6700 C   0  0  0  0  0  0  0  0  0  0  0  0
  160.9980  206.1280  149.2430 C   0  0  1  0  0  3  0  0  0  0  0  0
  161.2330  204.6720  148.8720 C   0  0  0  0  0  1  0  0  0  0  0  0
  160.8070  207.8180  156.2820 C   0  0  0  0  0  0  0  0  0  0  0  0
  160.2990  211.4520  155.9000 C   0  0  0  0  0  0  0  0  0  0  0  0
  163.6180  211.0610  154.7950 O   0  0  0  0  0  0  0  0  0  0  0  0
  161.1150  206.2540  150.7700 C   0  0  0  0  0  2  0  0  0  0  0  0
  159.9350  207.2520  153.4380 C   0  0  0  0  0  2  0  0  0  0  0  0
  161.9460  209.9050  150.9290 O   0  0  0  0  0  0  0  0  0  0  0  0
  162.4260  209.9260  152.2450 C   0  0  0  0  0  2  0  0  0  0  0  0
  161.5020  211.7330  155.4920 N   0  0  0  0  0  0  0  0  0  0  0  0
  161.9210  209.3580  154.6640 C   0  0  2  0  0  3  0  0  0  0  0  0
  161.8040  208.4940  149.0190 C   0  0  0  0  0  2  0  0  0  0  0  0
  162.0030  207.0540  148.5340 C   0  0  2  0  0  3  0  0  0  0  0  0
  162.4120  210.7470  154.9960 C   0  0  0  0  0  0  0  0  0  0  0  0
  160.8280  207.6490  146.5150 O   0  0  0  0  0  1  0  0  0  0  0  0
  161.9430  206.9570  146.9930 C   0  0  2  0  0  3  0  0  0  0  0  0
  161.0210  205.2440  145.3290 C   0  0  0  0  0  2  0  0  0  0  0  0
  161.9360  205.5080  146.4820 C   0  0  1  0  0  3  0  0  0  0  0  0
  163.0310  203.9760  145.1620 N   0  0  0  0  0  2  0  0  0  0  0  0
  161.5940  203.9350  144.8430 C   0  0  1  0  0  3  0  0  0  0  0  0
  163.2470  205.0540  146.0550 N   0  0  0  0  0  2  0  0  0  0  0  0
  161.4480  202.3720  146.8370 C   0  0  0  0  0  3  0  0  0  0  0  0
  160.3100  199.3890  145.5620 O   0  0  0  0  0  0  0  0  0  0  0  0
  161.2050  201.0780  147.0270 C   0  0  0  0  0  3  0  0  0  0  0  0
  160.9610  202.8300  145.5690 N   0  0  0  0  0  0  0  0  0  0  0  0
  160.2840  201.7240  144.8970 C   0  0  0  0  0  2  0  0  0  0  0  0
  160.5330  200.6010  145.8330 C   0  0  0  0  0  0  0  0  0  0  0  0
  159.4130  212.5610  156.3440 C   0  0  0  0  0  2  0  0  0  0  0  0
  157.2220  213.6210  155.7020 C   0  0  0  0  0  0  0  0  0  0  0  0
  158.2510  212.6500  155.4660 N   0  0  0  0  0  2  0  0  0  0  0  0
  157.3610  214.4530  156.6420 O   0  0  0  0  0  0  0  0  0  0  0  0
  154.8850  214.4400  155.5710 C   0  0  0  0  0  1  0  0  0  0  0  0
  155.9920  213.6860  154.8280 C   0  0  2  0  0  0  0  0  0  0  0  0
  155.4900  212.2930  154.4280 C   0  0  0  0  0  2  0  0  0  0  0  0
  155.8760  211.2090  155.4290 C   0  0  0  0  0  1  0  0  0  0  0  0
  156.3660  214.4530  153.5560 C   0  0  0  0  0  2  0  0  0  0  0  0
  155.5060  214.1510  152.4920 O   0  0  0  0  0  1  0  0  0  0  0  0
  1  5  2  0  0  0  0
  2 19  1  6  0  0  0
  2 21  1  0  0  0  0
  4  2  1  0  0  0  0
  4 17  1  1  0  0  0
  5 13  1  0  0  0  0
  6 22  1  6  0  0  0
  6 18  1  0  0  0  0
  6  7  1  0  0  0  0
  7 16  1  6  0  0  0
  7  4  1  0  0  0  0
  8  1  1  0  0  0  0
 10  3  1  0  0  0  0
 10 13  2  0  0  0  0
 11 12  1  1  0  0  0
 11 16  1  0  0  0  0
 13  9  1  0  0  0  0
 14  3  1  0  0  0  0
 14 38  1  0  0  0  0
 15 24  2  0  0  0  0
 17  8  1  0  0  0  0
 18 19  1  0  0  0  0
 20 14  2  0  0  0  0
 21 24  1  1  0  0  0
 21 10  1  0  0  0  0
 23 26  1  6  0  0  0
 23 22  1  0  0  0  0
 23 11  1  0  0  0  0
 24 20  1  0  0  0  0
 26 25  1  1  0  0  0
 27 28  1  0  0  0  0
 28 26  1  6  0  0  0
 29 31  1  0  0  0  0
 30 29  1  0  0  0  0
 30 27  1  1  0  0  0
 30 35  1  0  0  0  0
 31 28  1  0  0  0  0
 32 34  2  0  0  0  0
 33 37  2  0  0  0  0
 35 32  1  0  0  0  0
 36 35  1  0  0  0  0
 36 37  1  0  0  0  0
 37 34  1  0  0  0  0
 39 41  2  0  0  0  0
 40 39  1  0  0  0  0
 40 38  1  0  0  0  0
 43 42  1  1  0  0  0
 43 39  1  0  0  0  0
 44 43  1  0  0  0  0
 44 45  1  0  0  0  0
 46 43  1  0  0  0  0
 47 46  1  0  0  0  0
M  END
>  <MODEL>
1

>  <REMARK>
 VINA RESULT:      -3.4      0.000      0.000
  Name = 
  8 active torsions:
  status: ('A' for Active; 'I' for Inactive)
    1  A    between atoms: C_8  and  C_33
    2  A    between atoms: C_10  and  C_33
    3  A    between atoms: C_16  and  C_24
    4  A    between atoms: C_16  and  C_39
    5  A    between atoms: C_20  and  C_40
    6  A    between atoms: N_30  and  C_44
    7  A    between atoms: C_33  and  C_43
    8  A    between atoms: C_40  and  N_41
                            x       y       z     vdW  Elec       q    Type
                         _______ _______ _______ _____ _____    ______ ____

>  <TORSDO>
F 8

$$$$
=
 OpenBabel11072414513D

 47 52  0  0  1  0  0  0  0  0999 V2000
  162.7930  210.0250  149.8960 C   0  0  0  0  0  3  0  0  0  0  0  0
  161.0620  207.7180  152.3560 C   0  0  2  0  0  3  0  0  0  0  0  0
  161.0460  205.8090  149.6820 C   0  0  0  0  0  2  0  0  0  0  0  0
  160.9560  209.2270  152.0150 C   0  0  2  0  0  3  0  0  0  0  0  0
  163.3150  208.8530  149.6700 N   0  0  0  0  0  0  0  0  0  0  0  0
  160.2790  209.5260  154.4190 C   0  0  2  0  0  3  0  0  0  0  0  0
  160.0100  209.9620  152.9720 C   0  0  1  0  0  3  0  0  0  0  0  0
  161.3250  210.3450  149.7600 C   0  0  0  0  0  2  0  0  0  0  0  0
  162.3540  207.5120  147.8400 N   0  0  0  0  0  1  0  0  0  0  0  0
  161.9950  206.8850  150.1370 C   0  0  0  0  0  0  0  0  0  0  0  0
  159.2980  212.2420  153.8370 C   0  0  1  0  0  3  0  0  0  0  0  0
  159.6180  213.7240  153.7170 C   0  0  0  0  0  1  0  0  0  0  0  0
  162.5710  207.7060  149.2390 C   0  0  0  0  0  0  0  0  0  0  0  0
  161.1280  204.5680  150.5360 C   0  0  0  0  0  0  0  0  0  0  0  0
  163.3050  205.4980  153.1390 O   0  0  0  0  0  0  0  0  0  0  0  0
  160.1910  211.4810  152.8460 C   0  0  0  0  0  2  0  0  0  0  0  0
  160.4530  209.4030  150.5830 C   0  0  0  0  0  2  0  0  0  0  0  0
  160.1200  208.1390  154.5410 O   0  0  0  0  0  0  0  0  0  0  0  0
  161.2170  207.5740  153.8780 C   0  0  0  0  0  2  0  0  0  0  0  0
  161.8160  204.5260  151.6380 N   0  0  0  0  0  0  0  0  0  0  0  0
  162.2470  207.0390  151.6220 C   0  0  2  0  0  3  0  0  0  0  0  0
  159.2930  210.2250  155.3300 C   0  0  0  0  0  2  0  0  0  0  0  0
  159.5180  211.7390  155.2760 C   0  0  2  0  0  3  0  0  0  0  0  0
  162.5090  205.6580  152.1740 C   0  0  0  0  0  0  0  0  0  0  0  0
  158.1590  211.5750  157.2600 O   0  0  0  0  0  1  0  0  0  0  0  0
  158.6570  212.4830  156.3230 C   0  0  2  0  0  3  0  0  0  0  0  0
  156.4110  212.4750  155.0960 C   0  0  0  0  0  2  0  0  0  0  0  0
  157.5110  213.2910  155.6940 C   0  0  1  0  0  3  0  0  0  0  0  0
  155.5750  214.4530  156.1260 N   0  0  0  0  0  2  0  0  0  0  0  0
  155.3320  213.5260  155.0070 C   0  0  1  0  0  3  0  0  0  0  0  0
  156.8680  214.1850  156.6380 N   0  0  0  0  0  2  0  0  0  0  0  0
  154.4180  214.2480  152.7520 C   0  0  0  0  0  3  0  0  0  0  0  0
  157.1550  214.3910  150.6750 O   0  0  0  0  0  0  0  0  0  0  0  0
  154.8990  214.3760  151.5180 C   0  0  0  0  0  3  0  0  0  0  0  0
  155.4590  214.2460  153.7370 N   0  0  0  0  0  0  0  0  0  0  0  0
  156.7410  214.4520  153.0670 C   0  0  0  0  0  2  0  0  0  0  0  0
  156.3420  214.4520  151.6390 C   0  0  0  0  0  0  0  0  0  0  0  0
  160.3990  203.3480  150.0960 C   0  0  0  0  0  2  0  0  0  0  0  0
  160.2680  201.8430  148.0820 C   0  0  0  0  0  0  0  0  0  0  0  0
  160.7030  203.0640  148.6970 N   0  0  0  0  0  2  0  0  0  0  0  0
  159.5540  201.0380  148.7430 O   0  0  0  0  0  0  0  0  0  0  0  0
  159.3380  201.4560  145.8160 C   0  0  0  0  0  1  0  0  0  0  0  0
  160.6220  201.5210  146.6490 C   0  0  2  0  0  0  0  0  0  0  0  0
  161.3870  200.1970  146.5250 C   0  0  0  0  0  2  0  0  0  0  0  0
  160.8350  199.2890  145.4310 C   0  0  0  0  0  1  0  0  0  0  0  0
  161.5140  202.6500  146.1240 C   0  0  0  0  0  2  0  0  0  0  0  0
  160.9760  203.2500  144.9790 O   0  0  0  0  0  1  0  0  0  0  0  0
  2 19  1  1  0  0  0
  3 10  1  0  0  0  0
  3 14  1  0  0  0  0
  4 17  1  6  0  0  0
  4  2  1  0  0  0  0
  4  7  1  0  0  0  0
  5  1  2  0  0  0  0
  6 18  1  0  0  0  0
  6 22  1  1  0  0  0
  7 16  1  1  0  0  0
  7  6  1  0  0  0  0
  8  1  1  0  0  0  0
  8 17  1  0  0  0  0
  9 13  1  0  0  0  0
 11 12  1  1  0  0  0
 11 23  1  0  0  0  0
 13  5  1  0  0  0  0
 13 10  2  0  0  0  0
 14 20  2  0  0  0  0
 16 11  1  0  0  0  0
 19 18  1  0  0  0  0
 20 24  1  0  0  0  0
 21 10  1  6  0  0  0
 21 24  1  0  0  0  0
 21  2  1  0  0  0  0
 23 22  1  0  0  0  0
 23 26  1  1  0  0  0
 24 15  2  0  0  0  0
 26 25  1  1  0  0  0
 27 28  1  0  0  0  0
 28 26  1  1  0  0  0
 28 31  1  0  0  0  0
 29 31  1  0  0  0  0
 30 35  1  6  0  0  0
 30 27  1  0  0  0  0
 30 29  1  0  0  0  0
 32 35  1  0  0  0  0
 33 37  2  0  0  0  0
 34 37  1  0  0  0  0
 34 32  2  0  0  0  0
 36 35  1  0  0  0  0
 37 36  1  0  0  0  0
 38 14  1  0  0  0  0
 39 40  1  0  0  0  0
 39 41  2  0  0  0  0
 40 38  1  0  0  0  0
 43 42  1  6  0  0  0
 43 39  1  0  0  0  0
 44 43  1  0  0  0  0
 45 44  1  0  0  0  0
 46 43  1  0  0  0  0
 47 46  1  0  0  0  0
M  END
>  <MODEL>
2

>  <REMARK>
 VINA RESULT:      -1.9      2.574     11.270
  Name = 
  8 active torsions:
  status: ('A' for Active; 'I' for Inactive)
    1  A    between atoms: C_8  and  C_33
    2  A    between atoms: C_10  and  C_33
    3  A    between atoms: C_16  and  C_24
    4  A    between atoms: C_16  and  C_39
    5  A    between atoms: C_20  and  C_40
    6  A    between atoms: N_30  and  C_44
    7  A    between atoms: C_33  and  C_43
    8  A    between atoms: C_40  and  N_41
                            x       y       z     vdW  Elec       q    Type
                         _______ _______ _______ _____ _____    ______ ____

>  <TORSDO>
F 8

$$$$
=
 OpenBabel11072414513D

 47 52  0  0  1  0  0  0  0  0999 V2000
  162.6730  208.9880  148.8140 C   0  0  0  0  0  3  0  0  0  0  0  0
  161.2720  207.2230  151.8620 C   0  0  2  0  0  3  0  0  0  0  0  0
  160.6660  204.9540  149.5650 C   0  0  0  0  0  2  0  0  0  0  0  0
  161.1980  208.6700  151.3090 C   0  0  2  0  0  3  0  0  0  0  0  0
  163.0750  207.7550  148.6930 N   0  0  0  0  0  0  0  0  0  0  0  0
  160.9780  209.3730  153.7140 C   0  0  2  0  0  3  0  0  0  0  0  0
  160.4830  209.6150  152.2810 C   0  0  1  0  0  3  0  0  0  0  0  0
  161.2260  209.4110  148.8750 C   0  0  0  0  0  2  0  0  0  0  0  0
  161.7250  206.2510  147.2850 N   0  0  0  0  0  1  0  0  0  0  0  0
  161.7440  205.9980  149.6790 C   0  0  0  0  0  0  0  0  0  0  0  0
  160.0750  212.0500  152.8800 C   0  0  1  0  0  3  0  0  0  0  0  0
  160.4560  213.4650  152.4750 C   0  0  0  0  0  1  0  0  0  0  0  0
  162.1990  206.6260  148.5790 C   0  0  0  0  0  0  0  0  0  0  0  0
  160.8240  203.8480  150.5790 C   0  0  0  0  0  0  0  0  0  0  0  0
  163.4810  204.9550  152.6030 O   0  0  0  0  0  0  0  0  0  0  0  0
  160.7290  211.0780  151.8880 C   0  0  0  0  0  2  0  0  0  0  0  0
  160.4590  208.6780  149.9710 C   0  0  0  0  0  2  0  0  0  0  0  0
  160.7620  208.0380  154.0790 O   0  0  0  0  0  0  0  0  0  0  0  0
  161.6870  207.2900  153.3400 C   0  0  0  0  0  2  0  0  0  0  0  0
  161.6940  203.9070  151.5440 N   0  0  0  0  0  0  0  0  0  0  0  0
  162.2650  206.3440  151.0580 C   0  0  2  0  0  3  0  0  0  0  0  0
  160.2140  210.2800  154.6540 C   0  0  0  0  0  2  0  0  0  0  0  0
  160.5160  211.7460  154.3240 C   0  0  2  0  0  3  0  0  0  0  0  0
  162.5370  205.0410  151.7700 C   0  0  0  0  0  0  0  0  0  0  0  0
  160.2820  212.3160  156.6540 O   0  0  0  0  0  1  0  0  0  0  0  0
  159.9020  212.7050  155.3680 C   0  0  2  0  0  3  0  0  0  0  0  0
  157.6720  213.1610  156.5390 C   0  0  0  0  0  2  0  0  0  0  0  0
  158.3720  212.8040  155.2670 C   0  0  1  0  0  3  0  0  0  0  0  0
  156.6140  214.1500  154.6470 N   0  0  0  0  0  2  0  0  0  0  0  0
  156.3370  213.5930  155.9830 C   0  0  1  0  0  3  0  0  0  0  0  0
  157.9340  213.7830  154.2890 N   0  0  0  0  0  2  0  0  0  0  0  0
  155.0500  211.6510  156.9900 C   0  0  0  0  0  3  0  0  0  0  0  0
  155.2060  209.1490  154.6370 O   0  0  0  0  0  0  0  0  0  0  0  0
  154.8310  210.3770  156.6740 C   0  0  0  0  0  3  0  0  0  0  0  0
  155.4630  212.4230  155.8550 N   0  0  0  0  0  0  0  0  0  0  0  0
  155.4550  211.5640  154.6740 C   0  0  0  0  0  2  0  0  0  0  0  0
  155.1190  210.2440  155.2580 C   0  0  0  0  0  0  0  0  0  0  0  0
  159.9570  202.6440  150.4660 C   0  0  0  0  0  2  0  0  0  0  0  0
  160.9470  201.5300  148.4380 C   0  0  0  0  0  0  0  0  0  0  0  0
  159.8650  202.2270  149.0700 N   0  0  0  0  0  2  0  0  0  0  0  0
  161.9620  201.2140  149.1200 O   0  0  0  0  0  0  0  0  0  0  0  0
  159.4120  201.0500  146.5510 C   0  0  0  0  0  1  0  0  0  0  0  0
  160.8800  201.1390  146.9810 C   0  0  2  0  0  0  0  0  0  0  0  0
  161.5810  199.8030  146.7050 C   0  0  0  0  0  2  0  0  0  0  0  0
  161.0070  199.0640  145.5020 C   0  0  0  0  0  1  0  0  0  0  0  0
  161.5820  202.2330  146.1720 C   0  0  0  0  0  2  0  0  0  0  0  0
  160.7150  202.8450  145.2580 O   0  0  0  0  0  1  0  0  0  0  0  0
  1  8  1  0  0  0  0
  2 19  1  1  0  0  0
  3 10  1  0  0  0  0
  3 14  1  0  0  0  0
  4 17  1  6  0  0  0
  4  2  1  0  0  0  0
  4  7  1  0  0  0  0
  5  1  2  0  0  0  0
  6 18  1  0  0  0  0
  6 22  1  1  0  0  0
  7 16  1  6  0  0  0
  7  6  1  0  0  0  0
  8 17  1  0  0  0  0
  9 13  1  0  0  0  0
 11 12  1  6  0  0  0
 11 23  1  0  0  0  0
 13  5  1  0  0  0  0
 13 10  2  0  0  0  0
 14 20  2  0  0  0  0
 16 11  1  0  0  0  0
 19 18  1  0  0  0  0
 20 24  1  0  0  0  0
 21 10  1  6  0  0  0
 21 24  1  0  0  0  0
 21  2  1  0  0  0  0
 23 22  1  0  0  0  0
 23 26  1  1  0  0  0
 24 15  2  0  0  0  0
 26 25  1  1  0  0  0
 28 26  1  1  0  0  0
 28 27  1  0  0  0  0
 29 30  1  0  0  0  0
 30 35  1  6  0  0  0
 30 27  1  0  0  0  0
 31 29  1  0  0  0  0
 31 28  1  0  0  0  0
 33 37  2  0  0  0  0
 34 32  2  0  0  0  0
 35 32  1  0  0  0  0
 36 37  1  0  0  0  0
 36 35  1  0  0  0  0
 37 34  1  0  0  0  0
 38 14  1  0  0  0  0
 39 40  1  0  0  0  0
 39 41  2  0  0  0  0
 40 38  1  0  0  0  0
 43 42  1  6  0  0  0
 43 39  1  0  0  0  0
 44 43  1  0  0  0  0
 45 44  1  0  0  0  0
 46 43  1  0  0  0  0
 47 46  1  0  0  0  0
M  END
>  <MODEL>
3

>  <REMARK>
 VINA RESULT:      -1.5      2.628     11.102
  Name = 
  8 active torsions:
  status: ('A' for Active; 'I' for Inactive)
    1  A    between atoms: C_8  and  C_33
    2  A    between atoms: C_10  and  C_33
    3  A    between atoms: C_16  and  C_24
    4  A    between atoms: C_16  and  C_39
    5  A    between atoms: C_20  and  C_40
    6  A    between atoms: N_30  and  C_44
    7  A    between atoms: C_33  and  C_43
    8  A    between atoms: C_40  and  N_41
                            x       y       z     vdW  Elec       q    Type
                         _______ _______ _______ _____ _____    ______ ____

>  <TORSDO>
F 8

$$$$
=
 OpenBabel11072414513D

 47 52  0  0  1  0  0  0  0  0999 V2000
  162.0260  205.7580  153.5140 C   0  0  0  0  0  3  0  0  0  0  0  0
  161.2100  208.3600  150.8810 C   0  0  2  0  0  3  0  0  0  0  0  0
  159.4100  209.5000  153.3810 C   0  0  0  0  0  2  0  0  0  0  0  0
  161.3310  206.8140  150.8870 C   0  0  2  0  0  3  0  0  0  0  0  0
  162.0580  206.8930  154.1530 N   0  0  0  0  0  0  0  0  0  0  0  0
  162.0190  207.0510  148.4790 C   0  0  2  0  0  3  0  0  0  0  0  0
  161.1950  206.2270  149.4770 C   0  0  1  0  0  3  0  0  0  0  0  0
  160.8130  205.2170  152.7980 C   0  0  0  0  0  2  0  0  0  0  0  0
  160.0240  207.5770  155.3630 N   0  0  0  0  0  1  0  0  0  0  0  0
  160.6940  208.7160  153.3500 C   0  0  0  0  0  0  0  0  0  0  0  0
  161.5940  204.1690  148.0410 C   0  0  1  0  0  3  0  0  0  0  0  0
  162.1720  202.7640  148.0950 C   0  0  0  0  0  1  0  0  0  0  0  0
  160.9390  207.7790  154.2840 C   0  0  0  0  0  0  0  0  0  0  0  0
  159.5860  210.9180  152.8960 C   0  0  0  0  0  0  0  0  0  0  0  0
  162.9130  210.9900  151.7500 O   0  0  0  0  0  0  0  0  0  0  0  0
  161.6630  204.7650  149.4550 C   0  0  0  0  0  2  0  0  0  0  0  0
  160.2530  206.2110  151.7860 C   0  0  0  0  0  2  0  0  0  0  0  0
  161.6010  208.3880  148.4960 O   0  0  0  0  0  0  0  0  0  0  0  0
  162.0500  208.9080  149.7170 C   0  0  0  0  0  2  0  0  0  0  0  0
  160.6910  211.3340  152.3500 N   0  0  0  0  0  0  0  0  0  0  0  0
  161.6710  208.9830  152.2240 C   0  0  2  0  0  3  0  0  0  0  0  0
  161.8170  206.4810  147.0910 C   0  0  0  0  0  2  0  0  0  0  0  0
  162.3570  205.0480  147.0330 C   0  0  2  0  0  3  0  0  0  0  0  0
  161.8150  210.4820  152.1070 C   0  0  0  0  0  0  0  0  0  0  0  0
  161.9830  205.4960  144.6950 O   0  0  0  0  0  1  0  0  0  0  0  0
  162.3370  204.4870  145.5930 C   0  0  2  0  0  3  0  0  0  0  0  0
  160.4560  203.0490  146.5640 C   0  0  0  0  0  2  0  0  0  0  0  0
  161.4080  203.2740  145.4330 C   0  0  1  0  0  3  0  0  0  0  0  0
  159.4690  202.5080  144.4640 N   0  0  0  0  0  2  0  0  0  0  0  0
  159.4700  202.1280  145.8880 C   0  0  1  0  0  3  0  0  0  0  0  0
  160.5890  203.3450  144.2380 N   0  0  0  0  0  2  0  0  0  0  0  0
  160.8280  200.3350  147.0630 C   0  0  0  0  0  3  0  0  0  0  0  0
  161.8350  198.1900  144.5710 O   0  0  0  0  0  0  0  0  0  0  0  0
  161.5850  199.3050  146.6910 C   0  0  0  0  0  3  0  0  0  0  0  0
  159.9270  200.7420  146.0250 N   0  0  0  0  0  0  0  0  0  0  0  0
  160.0840  199.8420  144.8860 C   0  0  0  0  0  2  0  0  0  0  0  0
  161.2110  198.9850  145.3260 C   0  0  0  0  0  0  0  0  0  0  0  0
  158.4580  211.8740  153.0530 C   0  0  0  0  0  2  0  0  0  0  0  0
  156.7930  212.5500  154.8160 C   0  0  0  0  0  0  0  0  0  0  0  0
  158.0130  211.8940  154.4430 N   0  0  0  0  0  2  0  0  0  0  0  0
  156.0630  213.0550  153.9190 O   0  0  0  0  0  0  0  0  0  0  0  0
  157.5850  212.5430  157.1660 C   0  0  0  0  0  1  0  0  0  0  0  0
  156.3530  212.6180  156.2590 C   0  0  2  0  0  0  0  0  0  0  0  0
  155.3750  211.4920  156.6210 C   0  0  0  0  0  2  0  0  0  0  0  0
  155.3840  210.3470  155.6130 C   0  0  0  0  0  1  0  0  0  0  0  0
  155.6470  213.9610  156.4680 C   0  0  0  0  0  2  0  0  0  0  0  0
  154.3250  213.7940  156.8990 O   0  0  0  0  0  1  0  0  0  0  0  0
  1  5  2  0  0  0  0
  2 19  1  6  0  0  0
  2  4  1  0  0  0  0
  2 21  1  0  0  0  0
  4 17  1  1  0  0  0
  5 13  1  0  0  0  0
  6 22  1  6  0  0  0
  6 18  1  0  0  0  0
  6  7  1  0  0  0  0
  7 16  1  1  0  0  0
  7  4  1  0  0  0  0
  8  1  1  0  0  0  0
 10  3  1  0  0  0  0
 10 13  2  0  0  0  0
 11 12  1  1  0  0  0
 11 16  1  0  0  0  0
 13  9  1  0  0  0  0
 14 38  1  0  0  0  0
 14  3  1  0  0  0  0
 15 24  2  0  0  0  0
 17  8  1  0  0  0  0
 18 19  1  0  0  0  0
 20 14  2  0  0  0  0
 21 24  1  6  0  0  0
 21 10  1  0  0  0  0
 23 26  1  6  0  0  0
 23 22  1  0  0  0  0
 23 11  1  0  0  0  0
 24 20  1  0  0  0  0
 26 25  1  6  0  0  0
 28 26  1  1  0  0  0
 28 27  1  0  0  0  0
 29 30  1  0  0  0  0
 30 35  1  6  0  0  0
 30 27  1  0  0  0  0
 31 29  1  0  0  0  0
 31 28  1  0  0  0  0
 33 37  2  0  0  0  0
 34 32  2  0  0  0  0
 35 32  1  0  0  0  0
 36 37  1  0  0  0  0
 36 35  1  0  0  0  0
 37 34  1  0  0  0  0
 38 40  1  0  0  0  0
 39 43  1  0  0  0  0
 40 39  1  0  0  0  0
 41 39  2  0  0  0  0
 43 46  1  0  0  0  0
 43 44  1  0  0  0  0
 43 42  1  1  0  0  0
 45 44  1  0  0  0  0
 46 47  1  0  0  0  0
M  END
>  <MODEL>
4

>  <REMARK>
 VINA RESULT:      -0.9      1.815      2.604
  Name = 
  8 active torsions:
  status: ('A' for Active; 'I' for Inactive)
    1  A    between atoms: C_8  and  C_33
    2  A    between atoms: C_10  and  C_33
    3  A    between atoms: C_16  and  C_24
    4  A    between atoms: C_16  and  C_39
    5  A    between atoms: C_20  and  C_40
    6  A    between atoms: N_30  and  C_44
    7  A    between atoms: C_33  and  C_43
    8  A    between atoms: C_40  and  N_41
                            x       y       z     vdW  Elec       q    Type
                         _______ _______ _______ _____ _____    ______ ____

>  <TORSDO>
F 8

$$$$
