=
 OpenBabel11072413193D

 44 46  0  0  1  0  0  0  0  0999 V2000
  161.0290  208.1080  153.7940 C   0  0  2  0  0  3  0  0  0  0  0  0
  160.7070  206.9350  154.6660 C   0  0  0  0  0  0  0  0  0  0  0  0
  160.8550  205.7580  154.2460 O   0  0  0  0  0  0  0  0  0  0  0  0
  160.2180  207.1510  155.9840 N   0  0  0  0  0  1  0  0  0  0  0  0
  160.5960  209.4360  154.4290 C   0  0  0  0  0  2  0  0  0  0  0  0
  161.7280  210.2820  155.0090 C   0  0  0  0  0  2  0  0  0  0  0  0
  160.9360  211.9290  156.6230 N   0  0  0  0  0  0  0  0  0  0  0  0
  162.3650  211.5980  156.9070 C   0  0  0  0  0  2  0  0  0  0  0  0
  159.8500  212.8520  156.5240 C   0  0  0  0  0  0  0  0  0  0  0  0
  160.0290  214.0330  156.9250 O   0  0  0  0  0  0  0  0  0  0  0  0
  161.5460  210.5740  156.4840 C   0  0  2  0  0  3  0  0  0  0  0  0
  158.5420  212.4120  155.9600 C   0  0  0  0  0  0  0  0  0  0  0  0
  156.0130  211.5550  155.0540 C   0  0  0  0  0  3  0  0  0  0  0  0
  156.3100  211.5300  156.4150 C   0  0  0  0  0  3  0  0  0  0  0  0
  157.5630  211.9540  156.8610 C   0  0  0  0  0  3  0  0  0  0  0  0
  156.9660  212.0010  154.1400 C   0  0  0  0  0  3  0  0  0  0  0  0
  158.2270  212.4330  154.5720 C   0  0  0  0  0  0  0  0  0  0  0  0
  159.3810  212.9670  153.2950 S   0  0  0  0  0  0  0  0  0  0  0  0
  158.0660  213.6920  152.2700 C   0  0  0  0  0  2  0  0  0  0  0  0
  158.5090  213.7570  150.8210 C   0  0  0  0  0  2  0  0  0  0  0  0
  159.9610  213.7180  150.7660 N   0  0  0  0  0  2  0  0  0  0  0  0
  161.4010  212.4630  149.2190 C   0  0  0  0  0  3  0  0  0  0  0  0
  161.7560  212.1870  148.0090 N   0  0  0  0  0  2  0  0  0  0  0  0
  160.3270  213.3700  149.4580 N   0  0  0  0  0  2  0  0  0  0  0  0
  160.5780  207.8800  152.3410 C   0  0  0  0  0  2  0  0  0  0  0  0
  162.4440  209.2340  151.3130 C   0  0  0  0  0  1  0  0  0  0  0  0
  162.6670  206.8010  151.6280 C   0  0  0  0  0  1  0  0  0  0  0  0
  161.6900  207.9110  151.2860 C   0  0  0  0  0  0  0  0  0  0  0  0
  161.8510  207.5440  148.8280 C   0  0  0  0  0  3  0  0  0  0  0  0
  161.1040  207.6550  149.9270 C   0  0  0  0  0  3  0  0  0  0  0  0
  161.2080  207.2480  147.5170 C   0  0  0  0  0  2  0  0  0  0  0  0
  162.1340  206.4040  146.6530 C   0  0  0  0  0  2  0  0  0  0  0  0
  161.4060  205.2900  146.0490 N   0  0  0  0  0  0  0  0  0  0  0  0
  160.3000  205.5100  145.1690 C   0  0  0  0  0  3  0  0  0  0  0  0
  159.9180  206.6740  144.8860 O   0  0  0  0  0  0  0  0  0  0  0  0
  161.9040  203.6670  146.3950 S   0  0  0  0  0  0  0  0  0  0  0  0
  161.3460  202.7280  145.3600 O   0  0  0  0  0  0  0  0  0  0  0  0
  163.4080  203.5950  146.3590 O   0  0  0  0  0  0  0  0  0  0  0  0
  160.8570  201.8640  148.1690 C   0  0  0  0  0  3  0  0  0  0  0  0
  161.3280  204.0740  149.0460 C   0  0  0  0  0  3  0  0  0  0  0  0
  160.3990  201.4630  149.4290 C   0  0  0  0  0  3  0  0  0  0  0  0
  161.3220  203.1710  147.9750 C   0  0  0  0  0  0  0  0  0  0  0  0
  160.4070  202.3680  150.4980 C   0  0  0  0  0  3  0  0  0  0  0  0
  160.8710  203.6730  150.3060 C   0  0  0  0  0  3  0  0  0  0  0  0
  1 25  1  6  0  0  0
  1  5  1  0  0  0  0
  1  2  1  0  0  0  0
  2  4  1  0  0  0  0
  3  2  2  0  0  0  0
  5  6  1  0  0  0  0
  7  8  1  0  0  0  0
  9  7  1  0  0  0  0
  9 10  2  0  0  0  0
 11  6  1  6  0  0  0
 11  7  1  0  0  0  0
 11  8  1  0  0  0  0
 12  9  1  0  0  0  0
 12 15  1  0  0  0  0
 13 14  1  0  0  0  0
 14 15  2  0  0  0  0
 16 17  1  0  0  0  0
 16 13  2  0  0  0  0
 17 12  2  0  0  0  0
 18 17  1  0  0  0  0
 19 18  1  0  0  0  0
 20 19  1  0  0  0  0
 21 20  1  0  0  0  0
 22 24  1  0  0  0  0
 23 22  2  0  0  0  0
 24 21  1  0  0  0  0
 28 26  1  0  0  0  0
 28 27  1  0  0  0  0
 28 25  1  0  0  0  0
 29 30  2  0  0  0  0
 30 28  1  0  0  0  0
 31 29  1  0  0  0  0
 32 31  1  0  0  0  0
 33 36  1  0  0  0  0
 33 32  1  0  0  0  0
 34 33  1  0  0  0  0
 35 34  2  0  0  0  0
 36 42  1  0  0  0  0
 37 36  2  0  0  0  0
 38 36  2  0  0  0  0
 39 41  1  0  0  0  0
 40 44  2  0  0  0  0
 41 43  2  0  0  0  0
 42 39  2  0  0  0  0
 42 40  1  0  0  0  0
 44 43  1  0  0  0  0
M  END
>  <MODEL>
1

>  <REMARK>
 VINA RESULT:      -6.3      0.000      0.000
  Name = 
  18 active torsions:
  status: ('A' for Active; 'I' for Inactive)
    1  A    between atoms: C_1  and  C_30
    2  A    between atoms: S_3  and  N_10
    3  A    between atoms: S_3  and  C_22
    4  A    between atoms: N_5  and  N_17
    5  A    between atoms: N_5  and  C_19
    6  A    between atoms: N_10  and  C_20
    7  A    between atoms: C_16  and  C_20
    8  A    between atoms: C_16  and  C_34
    9  A    between atoms: C_18  and  C_28
   10  A    between atoms: C_19  and  C_25
   11  A    between atoms: C_25  and  S_37
   12  A    between atoms: C_26  and  S_37
   13  A    between atoms: C_28  and  C_31
   14  A    between atoms: C_28  and  C_43
   15  A    between atoms: C_31  and  C_35
   16  A    between atoms: C_32  and  C_38
   17  A    between atoms: C_32  and  C_43
   18  A    between atoms: C_35  and  C_39
                            x       y       z     vdW  Elec       q    Type
                         _______ _______ _______ _____ _____    ______ ____

>  <TORSDO>
F 18

$$$$
=
 OpenBabel11072413193D

 44 46  0  0  1  0  0  0  0  0999 V2000
  160.8590  204.4760  150.5560 C   0  0  2  0  0  3  0  0  0  0  0  0
  160.8270  202.9840  150.6650 C   0  0  0  0  0  0  0  0  0  0  0  0
  160.1230  202.2940  149.8830 O   0  0  0  0  0  0  0  0  0  0  0  0
  161.5950  202.3360  151.6720 N   0  0  0  0  0  1  0  0  0  0  0  0
  160.8590  204.9490  149.0970 C   0  0  0  0  0  2  0  0  0  0  0  0
  160.4430  206.4030  148.8810 C   0  0  0  0  0  2  0  0  0  0  0  0
  162.2840  206.1320  147.3060 N   0  0  0  0  0  0  0  0  0  0  0  0
  162.5570  207.2990  148.1980 C   0  0  0  0  0  2  0  0  0  0  0  0
  162.7000  204.9740  146.5800 C   0  0  0  0  0  0  0  0  0  0  0  0
  163.9320  204.7220  146.5080 O   0  0  0  0  0  0  0  0  0  0  0  0
  161.2530  207.0920  147.8020 C   0  0  2  0  0  3  0  0  0  0  0  0
  161.6860  204.0960  145.9290 C   0  0  0  0  0  0  0  0  0  0  0  0
  159.8080  202.3130  144.8120 C   0  0  0  0  0  3  0  0  0  0  0  0
  160.6320  201.8940  145.8550 C   0  0  0  0  0  3  0  0  0  0  0  0
  161.5610  202.7780  146.4050 C   0  0  0  0  0  3  0  0  0  0  0  0
  159.9140  203.6130  144.3190 C   0  0  0  0  0  3  0  0  0  0  0  0
  160.8400  204.5130  144.8630 C   0  0  0  0  0  0  0  0  0  0  0  0
  160.8980  206.1580  144.1290 S   0  0  0  0  0  0  0  0  0  0  0  0
  161.8720  205.5940  142.7010 C   0  0  0  0  0  2  0  0  0  0  0  0
  161.6870  206.5440  141.5330 C   0  0  0  0  0  2  0  0  0  0  0  0
  162.6750  206.2390  140.5120 N   0  0  0  0  0  2  0  0  0  0  0  0
  161.2580  207.8640  139.3310 C   0  0  0  0  0  3  0  0  0  0  0  0
  160.8470  208.3780  138.2210 N   0  0  0  0  0  2  0  0  0  0  0  0
  162.2520  206.8420  139.3180 N   0  0  0  0  0  2  0  0  0  0  0  0
  161.9380  205.0930  151.4630 C   0  0  0  0  0  2  0  0  0  0  0  0
  160.4320  204.9940  153.4850 C   0  0  0  0  0  1  0  0  0  0  0  0
  162.6220  206.1180  153.5880 C   0  0  0  0  0  1  0  0  0  0  0  0
  161.4240  205.8400  152.6980 C   0  0  0  0  0  0  0  0  0  0  0  0
  161.4570  208.3030  152.3320 C   0  0  0  0  0  3  0  0  0  0  0  0
  160.8040  207.1420  152.2780 C   0  0  0  0  0  3  0  0  0  0  0  0
  160.7970  209.5530  151.8610 C   0  0  0  0  0  2  0  0  0  0  0  0
  161.3260  210.7540  152.6330 C   0  0  0  0  0  2  0  0  0  0  0  0
  160.2290  211.6160  153.0630 N   0  0  0  0  0  0  0  0  0  0  0  0
  159.6770  212.6130  152.1980 C   0  0  0  0  0  3  0  0  0  0  0  0
  160.1220  212.7790  151.0330 O   0  0  0  0  0  0  0  0  0  0  0  0
  159.5680  211.4150  154.6520 S   0  0  0  0  0  0  0  0  0  0  0  0
  159.8080  212.6560  155.4690 O   0  0  0  0  0  0  0  0  0  0  0  0
  158.0840  211.1830  154.5430 O   0  0  0  0  0  0  0  0  0  0  0  0
  161.5710  210.2160  156.0810 C   0  0  0  0  0  3  0  0  0  0  0  0
  159.6850  208.8090  155.5000 C   0  0  0  0  0  3  0  0  0  0  0  0
  162.1750  209.1360  156.7340 C   0  0  0  0  0  3  0  0  0  0  0  0
  160.3260  210.0550  155.4630 C   0  0  0  0  0  0  0  0  0  0  0  0
  161.5330  207.8920  156.7710 C   0  0  0  0  0  3  0  0  0  0  0  0
  160.2880  207.7280  156.1540 C   0  0  0  0  0  3  0  0  0  0  0  0
  1  5  1  6  0  0  0
  1  2  1  0  0  0  0
  1 25  1  0  0  0  0
  2  4  1  0  0  0  0
  3  2  2  0  0  0  0
  6  5  1  0  0  0  0
  7 11  1  0  0  0  0
  7  8  1  0  0  0  0
  9  7  1  0  0  0  0
 10  9  2  0  0  0  0
 11  8  1  0  0  0  0
 11  6  1  1  0  0  0
 12 15  1  0  0  0  0
 12  9  1  0  0  0  0
 13 14  1  0  0  0  0
 14 15  2  0  0  0  0
 16 13  2  0  0  0  0
 16 17  1  0  0  0  0
 17 12  2  0  0  0  0
 18 17  1  0  0  0  0
 19 18  1  0  0  0  0
 20 19  1  0  0  0  0
 21 20  1  0  0  0  0
 23 22  2  0  0  0  0
 24 22  1  0  0  0  0
 24 21  1  0  0  0  0
 25 28  1  0  0  0  0
 28 26  1  0  0  0  0
 28 27  1  0  0  0  0
 30 29  2  0  0  0  0
 30 28  1  0  0  0  0
 31 29  1  0  0  0  0
 31 32  1  0  0  0  0
 32 33  1  0  0  0  0
 33 36  1  0  0  0  0
 34 33  1  0  0  0  0
 35 34  2  0  0  0  0
 36 42  1  0  0  0  0
 36 37  2  0  0  0  0
 38 36  2  0  0  0  0
 39 41  1  0  0  0  0
 40 44  2  0  0  0  0
 41 43  2  0  0  0  0
 42 40  1  0  0  0  0
 42 39  2  0  0  0  0
 44 43  1  0  0  0  0
M  END
>  <MODEL>
2

>  <REMARK>
 VINA RESULT:      -6.0      3.210     10.133
  Name = 
  18 active torsions:
  status: ('A' for Active; 'I' for Inactive)
    1  A    between atoms: C_1  and  C_30
    2  A    between atoms: S_3  and  N_10
    3  A    between atoms: S_3  and  C_22
    4  A    between atoms: N_5  and  N_17
    5  A    between atoms: N_5  and  C_19
    6  A    between atoms: N_10  and  C_20
    7  A    between atoms: C_16  and  C_20
    8  A    between atoms: C_16  and  C_34
    9  A    between atoms: C_18  and  C_28
   10  A    between atoms: C_19  and  C_25
   11  A    between atoms: C_25  and  S_37
   12  A    between atoms: C_26  and  S_37
   13  A    between atoms: C_28  and  C_31
   14  A    between atoms: C_28  and  C_43
   15  A    between atoms: C_31  and  C_35
   16  A    between atoms: C_32  and  C_38
   17  A    between atoms: C_32  and  C_43
   18  A    between atoms: C_35  and  C_39
                            x       y       z     vdW  Elec       q    Type
                         _______ _______ _______ _____ _____    ______ ____

>  <TORSDO>
F 18

$$$$
=
 OpenBabel11072413193D

 44 46  0  0  1  0  0  0  0  0999 V2000
  161.3380  207.7790  151.4070 C   0  0  2  0  0  3  0  0  0  0  0  0
  161.8580  206.7010  152.3070 C   0  0  0  0  0  0  0  0  0  0  0  0
  162.9590  206.1390  152.0720 O   0  0  0  0  0  0  0  0  0  0  0  0
  161.0930  206.3000  153.4370 N   0  0  0  0  0  1  0  0  0  0  0  0
  160.4410  208.7730  152.1540 C   0  0  0  0  0  2  0  0  0  0  0  0
  161.1710  209.9310  152.8320 C   0  0  0  0  0  2  0  0  0  0  0  0
  160.9670  211.0370  154.9950 N   0  0  0  0  0  0  0  0  0  0  0  0
  162.3480  210.4850  154.8440 C   0  0  0  0  0  2  0  0  0  0  0  0
  160.0530  212.0490  155.4190 C   0  0  0  0  0  0  0  0  0  0  0  0
  160.4970  213.0100  156.1020 O   0  0  0  0  0  0  0  0  0  0  0  0
  161.3060  209.7440  154.3290 C   0  0  2  0  0  3  0  0  0  0  0  0
  158.6100  211.9540  155.0550 C   0  0  0  0  0  0  0  0  0  0  0  0
  155.8650  211.6520  154.4850 C   0  0  0  0  0  3  0  0  0  0  0  0
  156.4830  210.8070  155.4040 C   0  0  0  0  0  3  0  0  0  0  0  0
  157.8420  210.9580  155.6840 C   0  0  0  0  0  3  0  0  0  0  0  0
  156.6050  212.6460  153.8440 C   0  0  0  0  0  3  0  0  0  0  0  0
  157.9690  212.8120  154.1170 C   0  0  0  0  0  0  0  0  0  0  0  0
  158.8220  214.1160  153.2120 S   0  0  0  0  0  0  0  0  0  0  0  0
  159.4000  212.9770  151.9180 C   0  0  0  0  0  2  0  0  0  0  0  0
  159.2160  213.6030  150.5500 C   0  0  0  0  0  2  0  0  0  0  0  0
  160.5070  214.0570  150.0580 N   0  0  0  0  0  2  0  0  0  0  0  0
  161.9900  213.4370  148.1990 C   0  0  0  0  0  3  0  0  0  0  0  0
  162.3740  212.5650  147.3290 N   0  0  0  0  0  2  0  0  0  0  0  0
  160.9690  213.1060  149.1370 N   0  0  0  0  0  2  0  0  0  0  0  0
  160.7620  207.2040  150.1010 C   0  0  0  0  0  2  0  0  0  0  0  0
  161.7780  209.0800  148.7510 C   0  0  0  0  0  1  0  0  0  0  0  0
  162.8510  206.8640  148.8520 C   0  0  0  0  0  1  0  0  0  0  0  0
  161.5130  207.5820  148.8190 C   0  0  0  0  0  0  0  0  0  0  0  0
  161.1660  206.1640  146.8010 C   0  0  0  0  0  3  0  0  0  0  0  0
  160.7320  207.1200  147.6220 C   0  0  0  0  0  3  0  0  0  0  0  0
  160.3220  205.7240  145.6550 C   0  0  0  0  0  2  0  0  0  0  0  0
  161.0370  204.6440  144.8550 C   0  0  0  0  0  2  0  0  0  0  0  0
  161.7100  203.7020  145.7460 N   0  0  0  0  0  0  0  0  0  0  0  0
  163.0850  203.8650  146.1060 C   0  0  0  0  0  3  0  0  0  0  0  0
  163.7600  204.8300  145.6640 O   0  0  0  0  0  0  0  0  0  0  0  0
  160.8190  202.3670  146.3950 S   0  0  0  0  0  0  0  0  0  0  0  0
  159.3790  202.4520  145.9650 O   0  0  0  0  0  0  0  0  0  0  0  0
  161.4070  201.0810  145.8750 O   0  0  0  0  0  0  0  0  0  0  0  0
  160.8990  203.6020  148.8370 C   0  0  0  0  0  3  0  0  0  0  0  0
  160.9080  201.1780  148.8660 C   0  0  0  0  0  3  0  0  0  0  0  0
  160.9440  203.6170  150.2350 C   0  0  0  0  0  3  0  0  0  0  0  0
  160.8820  202.3820  148.1490 C   0  0  0  0  0  0  0  0  0  0  0  0
  160.9690  202.4130  150.9490 C   0  0  0  0  0  3  0  0  0  0  0  0
  160.9510  201.1940  150.2650 C   0  0  0  0  0  3  0  0  0  0  0  0
  1 25  1  6  0  0  0
  1  5  1  0  0  0  0
  1  2  1  0  0  0  0
  2  4  1  0  0  0  0
  3  2  2  0  0  0  0
  5  6  1  0  0  0  0
  7  9  1  0  0  0  0
  8  7  1  0  0  0  0
  9 10  2  0  0  0  0
 11  6  1  6  0  0  0
 11  8  1  0  0  0  0
 11  7  1  0  0  0  0
 12  9  1  0  0  0  0
 12 15  1  0  0  0  0
 13 14  1  0  0  0  0
 14 15  2  0  0  0  0
 16 17  1  0  0  0  0
 16 13  2  0  0  0  0
 17 12  2  0  0  0  0
 18 17  1  0  0  0  0
 19 18  1  0  0  0  0
 20 19  1  0  0  0  0
 21 20  1  0  0  0  0
 22 24  1  0  0  0  0
 23 22  2  0  0  0  0
 24 21  1  0  0  0  0
 26 28  1  0  0  0  0
 28 27  1  0  0  0  0
 28 25  1  0  0  0  0
 29 30  2  0  0  0  0
 30 28  1  0  0  0  0
 31 29  1  0  0  0  0
 32 31  1  0  0  0  0
 32 33  1  0  0  0  0
 33 34  1  0  0  0  0
 33 36  1  0  0  0  0
 35 34  2  0  0  0  0
 36 42  1  0  0  0  0
 37 36  2  0  0  0  0
 38 36  2  0  0  0  0
 39 41  1  0  0  0  0
 40 44  2  0  0  0  0
 41 43  2  0  0  0  0
 42 39  2  0  0  0  0
 42 40  1  0  0  0  0
 44 43  1  0  0  0  0
M  END
>  <MODEL>
3

>  <REMARK>
 VINA RESULT:      -5.8      1.509      2.151
  Name = 
  18 active torsions:
  status: ('A' for Active; 'I' for Inactive)
    1  A    between atoms: C_1  and  C_30
    2  A    between atoms: S_3  and  N_10
    3  A    between atoms: S_3  and  C_22
    4  A    between atoms: N_5  and  N_17
    5  A    between atoms: N_5  and  C_19
    6  A    between atoms: N_10  and  C_20
    7  A    between atoms: C_16  and  C_20
    8  A    between atoms: C_16  and  C_34
    9  A    between atoms: C_18  and  C_28
   10  A    between atoms: C_19  and  C_25
   11  A    between atoms: C_25  and  S_37
   12  A    between atoms: C_26  and  S_37
   13  A    between atoms: C_28  and  C_31
   14  A    between atoms: C_28  and  C_43
   15  A    between atoms: C_31  and  C_35
   16  A    between atoms: C_32  and  C_38
   17  A    between atoms: C_32  and  C_43
   18  A    between atoms: C_35  and  C_39
                            x       y       z     vdW  Elec       q    Type
                         _______ _______ _______ _____ _____    ______ ____

>  <TORSDO>
F 18

$$$$
=
 OpenBabel11072413193D

 44 46  0  0  1  0  0  0  0  0999 V2000
  161.3850  206.8320  148.5260 C   0  0  2  0  0  3  0  0  0  0  0  0
  161.7990  205.8770  147.4500 C   0  0  0  0  0  0  0  0  0  0  0  0
  162.2670  206.2960  146.3600 O   0  0  0  0  0  0  0  0  0  0  0  0
  161.6540  204.4770  147.6580 N   0  0  0  0  0  1  0  0  0  0  0  0
  161.1470  208.2460  147.9830 C   0  0  0  0  0  2  0  0  0  0  0  0
  162.1530  209.3000  148.4410 C   0  0  0  0  0  2  0  0  0  0  0  0
  161.8500  211.6120  149.1540 N   0  0  0  0  0  0  0  0  0  0  0  0
  162.6220  210.8650  150.1940 C   0  0  0  0  0  2  0  0  0  0  0  0
  161.5870  212.7790  148.3740 C   0  0  0  0  0  0  0  0  0  0  0  0
  162.2140  213.8370  148.6480 O   0  0  0  0  0  0  0  0  0  0  0  0
  161.6130  210.1900  149.5410 C   0  0  2  0  0  3  0  0  0  0  0  0
  160.5890  212.7310  147.2680 C   0  0  0  0  0  0  0  0  0  0  0  0
  158.5790  212.6220  145.2930 C   0  0  0  0  0  3  0  0  0  0  0  0
  158.2480  212.4420  146.6340 C   0  0  0  0  0  3  0  0  0  0  0  0
  159.2450  212.4960  147.6090 C   0  0  0  0  0  3  0  0  0  0  0  0
  159.9040  212.8530  144.9260 C   0  0  0  0  0  3  0  0  0  0  0  0
  160.9160  212.9130  145.8930 C   0  0  0  0  0  0  0  0  0  0  0  0
  162.5920  213.1960  145.2960 S   0  0  0  0  0  0  0  0  0  0  0  0
  162.0330  213.5680  143.6060 C   0  0  0  0  0  2  0  0  0  0  0  0
  163.1670  214.1740  142.8020 C   0  0  0  0  0  2  0  0  0  0  0  0
  163.0770  213.7060  141.4290 N   0  0  0  0  0  2  0  0  0  0  0  0
  162.3520  211.4710  140.7070 C   0  0  0  0  0  3  0  0  0  0  0  0
  161.4290  210.5720  140.6380 N   0  0  0  0  0  2  0  0  0  0  0  0
  162.1020  212.6990  141.3850 N   0  0  0  0  0  2  0  0  0  0  0  0
  162.2970  206.7310  149.7610 C   0  0  0  0  0  2  0  0  0  0  0  0
  160.6960  205.1210  150.8630 C   0  0  0  0  0  1  0  0  0  0  0  0
  162.6960  205.9340  152.0510 C   0  0  0  0  0  1  0  0  0  0  0  0
  161.6070  206.3240  151.0670 C   0  0  0  0  0  0  0  0  0  0  0  0
  161.2620  208.2120  152.6550 C   0  0  0  0  0  3  0  0  0  0  0  0
  160.8380  207.4920  151.6170 C   0  0  0  0  0  3  0  0  0  0  0  0
  160.4710  209.3840  153.1240 C   0  0  0  0  0  2  0  0  0  0  0  0
  160.3120  209.3440  154.6370 C   0  0  0  0  0  2  0  0  0  0  0  0
  160.3800  210.6910  155.2000 N   0  0  0  0  0  0  0  0  0  0  0  0
  161.6010  211.2210  155.7260 C   0  0  0  0  0  3  0  0  0  0  0  0
  162.6580  210.5400  155.7210 O   0  0  0  0  0  0  0  0  0  0  0  0
  158.9550  211.6750  155.2140 S   0  0  0  0  0  0  0  0  0  0  0  0
  157.7410  210.8180  155.4500 O   0  0  0  0  0  0  0  0  0  0  0  0
  159.0630  212.6840  156.3270 O   0  0  0  0  0  0  0  0  0  0  0  0
  159.8410  212.5660  152.7820 C   0  0  0  0  0  3  0  0  0  0  0  0
  157.5430  213.0960  153.3400 C   0  0  0  0  0  3  0  0  0  0  0  0
  159.6930  213.2200  151.5540 C   0  0  0  0  0  3  0  0  0  0  0  0
  158.7670  212.5030  153.6780 C   0  0  0  0  0  0  0  0  0  0  0  0
  158.4690  213.8110  151.2180 C   0  0  0  0  0  3  0  0  0  0  0  0
  157.3940  213.7490  152.1110 C   0  0  0  0  0  3  0  0  0  0  0  0
  1  5  1  6  0  0  0
  1 25  1  0  0  0  0
  2  4  1  0  0  0  0
  2  1  1  0  0  0  0
  3  2  2  0  0  0  0
  5  6  1  0  0  0  0
  7 11  1  0  0  0  0
  7  8  1  0  0  0  0
  9 10  2  0  0  0  0
  9  7  1  0  0  0  0
 11  6  1  6  0  0  0
 11  8  1  0  0  0  0
 12 15  1  0  0  0  0
 12  9  1  0  0  0  0
 13 14  1  0  0  0  0
 14 15  2  0  0  0  0
 16 13  2  0  0  0  0
 16 17  1  0  0  0  0
 17 12  2  0  0  0  0
 18 17  1  0  0  0  0
 19 18  1  0  0  0  0
 20 19  1  0  0  0  0
 21 20  1  0  0  0  0
 22 24  1  0  0  0  0
 23 22  2  0  0  0  0
 24 21  1  0  0  0  0
 25 28  1  0  0  0  0
 26 28  1  0  0  0  0
 28 30  1  0  0  0  0
 28 27  1  0  0  0  0
 29 31  1  0  0  0  0
 30 29  2  0  0  0  0
 31 32  1  0  0  0  0
 32 33  1  0  0  0  0
 33 36  1  0  0  0  0
 33 34  1  0  0  0  0
 35 34  2  0  0  0  0
 36 37  2  0  0  0  0
 36 38  2  0  0  0  0
 39 42  1  0  0  0  0
 40 42  2  0  0  0  0
 41 39  2  0  0  0  0
 42 36  1  0  0  0  0
 43 41  1  0  0  0  0
 43 44  2  0  0  0  0
 44 40  1  0  0  0  0
M  END
>  <MODEL>
4

>  <REMARK>
 VINA RESULT:      -5.3      3.750      9.013
  Name = 
  18 active torsions:
  status: ('A' for Active; 'I' for Inactive)
    1  A    between atoms: C_1  and  C_30
    2  A    between atoms: S_3  and  N_10
    3  A    between atoms: S_3  and  C_22
    4  A    between atoms: N_5  and  N_17
    5  A    between atoms: N_5  and  C_19
    6  A    between atoms: N_10  and  C_20
    7  A    between atoms: C_16  and  C_20
    8  A    between atoms: C_16  and  C_34
    9  A    between atoms: C_18  and  C_28
   10  A    between atoms: C_19  and  C_25
   11  A    between atoms: C_25  and  S_37
   12  A    between atoms: C_26  and  S_37
   13  A    between atoms: C_28  and  C_31
   14  A    between atoms: C_28  and  C_43
   15  A    between atoms: C_31  and  C_35
   16  A    between atoms: C_32  and  C_38
   17  A    between atoms: C_32  and  C_43
   18  A    between atoms: C_35  and  C_39
                            x       y       z     vdW  Elec       q    Type
                         _______ _______ _______ _____ _____    ______ ____

>  <TORSDO>
F 18

$$$$
=
 OpenBabel11072413193D

 44 46  0  0  1  0  0  0  0  0999 V2000
  161.2620  203.3070  146.2320 C   0  0  2  0  0  3  0  0  0  0  0  0
  160.9190  201.8570  146.3770 C   0  0  0  0  0  0  0  0  0  0  0  0
  161.2140  201.2260  147.4250 O   0  0  0  0  0  0  0  0  0  0  0  0
  160.2590  201.1800  145.3140 N   0  0  0  0  0  1  0  0  0  0  0  0
  160.8230  204.1300  147.4490 C   0  0  0  0  0  2  0  0  0  0  0  0
  161.4820  203.7430  148.7720 C   0  0  0  0  0  2  0  0  0  0  0  0
  161.2900  204.6450  151.0290 N   0  0  0  0  0  0  0  0  0  0  0  0
  160.9900  203.1810  151.0480 C   0  0  0  0  0  2  0  0  0  0  0  0
  161.8720  205.8210  151.5930 C   0  0  0  0  0  0  0  0  0  0  0  0
  162.3670  205.7490  152.7490 O   0  0  0  0  0  0  0  0  0  0  0  0
  160.5560  203.9060  149.9590 C   0  0  2  0  0  3  0  0  0  0  0  0
  161.8840  207.0950  150.8190 C   0  0  0  0  0  0  0  0  0  0  0  0
  161.9430  209.4130  149.2140 C   0  0  0  0  0  3  0  0  0  0  0  0
  162.2760  208.1770  148.6650 C   0  0  0  0  0  3  0  0  0  0  0  0
  162.2470  207.0310  149.4620 C   0  0  0  0  0  3  0  0  0  0  0  0
  161.5820  209.5050  150.5580 C   0  0  0  0  0  3  0  0  0  0  0  0
  161.5450  208.3640  151.3700 C   0  0  0  0  0  0  0  0  0  0  0  0
  161.0840  208.6110  153.0940 S   0  0  0  0  0  0  0  0  0  0  0  0
  161.6530  210.3380  153.1010 C   0  0  0  0  0  2  0  0  0  0  0  0
  161.1850  211.0370  154.3630 C   0  0  0  0  0  2  0  0  0  0  0  0
  159.9020  211.6710  154.1080 N   0  0  0  0  0  2  0  0  0  0  0  0
  158.9660  213.1600  152.3900 C   0  0  0  0  0  3  0  0  0  0  0  0
  158.9960  213.6230  151.1870 N   0  0  0  0  0  2  0  0  0  0  0  0
  159.9490  212.2200  152.8180 N   0  0  0  0  0  2  0  0  0  0  0  0
  160.8380  203.8590  144.8590 C   0  0  0  0  0  2  0  0  0  0  0  0
  160.4160  206.3040  145.3250 C   0  0  0  0  0  1  0  0  0  0  0  0
  162.7060  205.4470  145.0220 C   0  0  0  0  0  1  0  0  0  0  0  0
  161.2680  205.2990  144.5600 C   0  0  0  0  0  0  0  0  0  0  0  0
  161.9900  206.4170  142.4550 C   0  0  0  0  0  3  0  0  0  0  0  0
  161.1940  205.5510  143.0810 C   0  0  0  0  0  3  0  0  0  0  0  0
  161.8920  206.5880  140.9780 C   0  0  0  0  0  2  0  0  0  0  0  0
  162.3780  207.9730  140.5720 C   0  0  0  0  0  2  0  0  0  0  0  0
  161.8980  208.3180  139.2360 N   0  0  0  0  0  0  0  0  0  0  0  0
  161.8910  207.3600  138.1740 C   0  0  0  0  0  3  0  0  0  0  0  0
  162.2990  206.1840  138.3580 O   0  0  0  0  0  0  0  0  0  0  0  0
  161.3090  209.9190  138.9360 S   0  0  0  0  0  0  0  0  0  0  0  0
  162.1420  210.5820  137.8720 O   0  0  0  0  0  0  0  0  0  0  0  0
  159.8830  209.8380  138.4580 O   0  0  0  0  0  0  0  0  0  0  0  0
  162.5280  211.6630  140.6580 C   0  0  0  0  0  3  0  0  0  0  0  0
  160.3230  210.8910  141.3040 C   0  0  0  0  0  3  0  0  0  0  0  0
  162.5950  212.4410  141.8190 C   0  0  0  0  0  3  0  0  0  0  0  0
  161.3920  210.8860  140.3980 C   0  0  0  0  0  0  0  0  0  0  0  0
  161.5260  212.4440  142.7230 C   0  0  0  0  0  3  0  0  0  0  0  0
  160.3900  211.6690  142.4650 C   0  0  0  0  0  3  0  0  0  0  0  0
  1 25  1  6  0  0  0
  1  2  1  0  0  0  0
  1  5  1  0  0  0  0
  2  3  2  0  0  0  0
  4  2  1  0  0  0  0
  5  6  1  0  0  0  0
  7  8  1  0  0  0  0
  7  9  1  0  0  0  0
  9 10  2  0  0  0  0
 11  6  1  6  0  0  0
 11  7  1  0  0  0  0
 11  8  1  0  0  0  0
 12 17  1  0  0  0  0
 12  9  1  0  0  0  0
 13 16  1  0  0  0  0
 14 13  2  0  0  0  0
 14 15  1  0  0  0  0
 15 12  2  0  0  0  0
 16 17  2  0  0  0  0
 17 18  1  0  0  0  0
 18 19  1  0  0  0  0
 19 20  1  0  0  0  0
 21 20  1  0  0  0  0
 22 24  1  0  0  0  0
 23 22  2  0  0  0  0
 24 21  1  0  0  0  0
 28 25  1  0  0  0  0
 28 27  1  0  0  0  0
 28 26  1  0  0  0  0
 29 30  2  0  0  0  0
 30 28  1  0  0  0  0
 31 29  1  0  0  0  0
 32 31  1  0  0  0  0
 33 32  1  0  0  0  0
 34 35  2  0  0  0  0
 34 33  1  0  0  0  0
 36 33  1  0  0  0  0
 36 42  1  0  0  0  0
 37 36  2  0  0  0  0
 38 36  2  0  0  0  0
 39 41  1  0  0  0  0
 40 44  2  0  0  0  0
 41 43  2  0  0  0  0
 42 39  2  0  0  0  0
 42 40  1  0  0  0  0
 44 43  1  0  0  0  0
M  END
>  <MODEL>
5

>  <REMARK>
 VINA RESULT:      -5.0      4.454      8.655
  Name = 
  18 active torsions:
  status: ('A' for Active; 'I' for Inactive)
    1  A    between atoms: C_1  and  C_30
    2  A    between atoms: S_3  and  N_10
    3  A    between atoms: S_3  and  C_22
    4  A    between atoms: N_5  and  N_17
    5  A    between atoms: N_5  and  C_19
    6  A    between atoms: N_10  and  C_20
    7  A    between atoms: C_16  and  C_20
    8  A    between atoms: C_16  and  C_34
    9  A    between atoms: C_18  and  C_28
   10  A    between atoms: C_19  and  C_25
   11  A    between atoms: C_25  and  S_37
   12  A    between atoms: C_26  and  S_37
   13  A    between atoms: C_28  and  C_31
   14  A    between atoms: C_28  and  C_43
   15  A    between atoms: C_31  and  C_35
   16  A    between atoms: C_32  and  C_38
   17  A    between atoms: C_32  and  C_43
   18  A    between atoms: C_35  and  C_39
                            x       y       z     vdW  Elec       q    Type
                         _______ _______ _______ _____ _____    ______ ____

>  <TORSDO>
F 18

$$$$
=
 OpenBabel11072413193D

 44 46  0  0  1  0  0  0  0  0999 V2000
  161.3730  207.9060  151.9710 C   0  0  2  0  0  3  0  0  0  0  0  0
  161.6940  206.7540  152.8710 C   0  0  0  0  0  0  0  0  0  0  0  0
  162.7610  206.1030  152.7310 O   0  0  0  0  0  0  0  0  0  0  0  0
  160.7760  206.3840  153.8930 N   0  0  0  0  0  1  0  0  0  0  0  0
  160.4630  208.9360  152.6510 C   0  0  0  0  0  2  0  0  0  0  0  0
  161.1850  210.0880  153.3480 C   0  0  0  0  0  2  0  0  0  0  0  0
  160.8210  211.2140  155.4800 N   0  0  0  0  0  0  0  0  0  0  0  0
  162.2240  210.7030  155.4170 C   0  0  0  0  0  2  0  0  0  0  0  0
  159.8530  212.2020  155.8350 C   0  0  0  0  0  0  0  0  0  0  0  0
  160.2260  213.1850  156.5290 O   0  0  0  0  0  0  0  0  0  0  0  0
  161.2370  209.9240  154.8530 C   0  0  2  0  0  3  0  0  0  0  0  0
  158.4380  212.0580  155.3880 C   0  0  0  0  0  0  0  0  0  0  0  0
  155.7490  211.6480  154.6440 C   0  0  0  0  0  3  0  0  0  0  0  0
  156.3880  210.7340  155.4800 C   0  0  0  0  0  3  0  0  0  0  0  0
  157.7190  210.9400  155.8460 C   0  0  0  0  0  3  0  0  0  0  0  0
  156.4390  212.7640  154.1740 C   0  0  0  0  0  3  0  0  0  0  0  0
  157.7740  212.9860  154.5350 C   0  0  0  0  0  0  0  0  0  0  0  0
  158.5670  214.4510  153.8480 S   0  0  0  0  0  0  0  0  0  0  0  0
  158.9850  213.6150  152.2880 C   0  0  0  0  0  2  0  0  0  0  0  0
  158.2870  214.2960  151.1260 C   0  0  0  0  0  2  0  0  0  0  0  0
  158.0200  213.3130  150.0900 N   0  0  0  0  0  2  0  0  0  0  0  0
  157.1490  213.3930  147.7930 C   0  0  0  0  0  3  0  0  0  0  0  0
  157.0190  214.0260  146.6760 N   0  0  0  0  0  2  0  0  0  0  0  0
  157.8280  214.0060  148.8860 N   0  0  0  0  0  2  0  0  0  0  0  0
  160.9280  207.4350  150.5760 C   0  0  0  0  0  2  0  0  0  0  0  0
  161.6740  209.3680  149.1340 C   0  0  0  0  0  1  0  0  0  0  0  0
  163.2560  207.6030  149.8080 C   0  0  0  0  0  1  0  0  0  0  0  0
  161.8170  207.8770  149.4080 C   0  0  0  0  0  0  0  0  0  0  0  0
  161.7660  205.7750  148.0730 C   0  0  0  0  0  3  0  0  0  0  0  0
  161.4810  207.0720  148.1850 C   0  0  0  0  0  3  0  0  0  0  0  0
  161.3670  205.0260  146.8480 C   0  0  0  0  0  2  0  0  0  0  0  0
  161.9950  203.6390  146.8480 C   0  0  0  0  0  2  0  0  0  0  0  0
  160.9830  202.6140  146.6000 N   0  0  0  0  0  0  0  0  0  0  0  0
  160.2730  202.5490  145.3610 C   0  0  0  0  0  3  0  0  0  0  0  0
  160.4970  203.3770  144.4400 O   0  0  0  0  0  0  0  0  0  0  0  0
  160.6500  201.4400  147.8300 S   0  0  0  0  0  0  0  0  0  0  0  0
  159.2300  200.9570  147.7060 O   0  0  0  0  0  0  0  0  0  0  0  0
  161.5800  200.2690  147.6580 O   0  0  0  0  0  0  0  0  0  0  0  0
  160.2580  203.3650  149.7370 C   0  0  0  0  0  3  0  0  0  0  0  0
  161.6410  201.4840  150.3870 C   0  0  0  0  0  3  0  0  0  0  0  0
  160.4240  203.9250  151.0080 C   0  0  0  0  0  3  0  0  0  0  0  0
  160.8670  202.1430  149.4230 C   0  0  0  0  0  0  0  0  0  0  0  0
  161.1980  203.2640  151.9700 C   0  0  0  0  0  3  0  0  0  0  0  0
  161.8060  202.0430  151.6590 C   0  0  0  0  0  3  0  0  0  0  0  0
  1 25  1  6  0  0  0
  1  5  1  0  0  0  0
  1  2  1  0  0  0  0
  2  4  1  0  0  0  0
  3  2  2  0  0  0  0
  5  6  1  0  0  0  0
  7  9  1  0  0  0  0
  8  7  1  0  0  0  0
  9 10  2  0  0  0  0
 11  6  1  6  0  0  0
 11  8  1  0  0  0  0
 11  7  1  0  0  0  0
 12  9  1  0  0  0  0
 12 15  1  0  0  0  0
 13 14  1  0  0  0  0
 14 15  2  0  0  0  0
 16 17  1  0  0  0  0
 16 13  2  0  0  0  0
 17 12  2  0  0  0  0
 18 17  1  0  0  0  0
 19 18  1  0  0  0  0
 20 19  1  0  0  0  0
 21 20  1  0  0  0  0
 22 24  1  0  0  0  0
 23 22  2  0  0  0  0
 24 21  1  0  0  0  0
 26 28  1  0  0  0  0
 28 27  1  0  0  0  0
 28 25  1  0  0  0  0
 29 30  2  0  0  0  0
 30 28  1  0  0  0  0
 31 29  1  0  0  0  0
 32 31  1  0  0  0  0
 33 32  1  0  0  0  0
 33 36  1  0  0  0  0
 34 33  1  0  0  0  0
 35 34  2  0  0  0  0
 36 42  1  0  0  0  0
 37 36  2  0  0  0  0
 38 36  2  0  0  0  0
 39 41  1  0  0  0  0
 40 44  2  0  0  0  0
 41 43  2  0  0  0  0
 42 39  2  0  0  0  0
 42 40  1  0  0  0  0
 44 43  1  0  0  0  0
M  END
>  <MODEL>
6

>  <REMARK>
 VINA RESULT:      -4.8      1.849      2.349
  Name = 
  18 active torsions:
  status: ('A' for Active; 'I' for Inactive)
    1  A    between atoms: C_1  and  C_30
    2  A    between atoms: S_3  and  N_10
    3  A    between atoms: S_3  and  C_22
    4  A    between atoms: N_5  and  N_17
    5  A    between atoms: N_5  and  C_19
    6  A    between atoms: N_10  and  C_20
    7  A    between atoms: C_16  and  C_20
    8  A    between atoms: C_16  and  C_34
    9  A    between atoms: C_18  and  C_28
   10  A    between atoms: C_19  and  C_25
   11  A    between atoms: C_25  and  S_37
   12  A    between atoms: C_26  and  S_37
   13  A    between atoms: C_28  and  C_31
   14  A    between atoms: C_28  and  C_43
   15  A    between atoms: C_31  and  C_35
   16  A    between atoms: C_32  and  C_38
   17  A    between atoms: C_32  and  C_43
   18  A    between atoms: C_35  and  C_39
                            x       y       z     vdW  Elec       q    Type
                         _______ _______ _______ _____ _____    ______ ____

>  <TORSDO>
F 18

$$$$
=
 OpenBabel11072413193D

 44 46  0  0  1  0  0  0  0  0999 V2000
  159.8870  211.4640  153.2110 C   0  0  2  0  0  3  0  0  0  0  0  0
  159.1350  212.4860  154.0050 C   0  0  0  0  0  0  0  0  0  0  0  0
  159.6740  213.0680  154.9820 O   0  0  0  0  0  0  0  0  0  0  0  0
  157.7920  212.7970  153.6580 N   0  0  0  0  0  1  0  0  0  0  0  0
  159.5790  211.5570  151.7110 C   0  0  0  0  0  2  0  0  0  0  0  0
  159.2360  212.9550  151.1990 C   0  0  0  0  0  2  0  0  0  0  0  0
  160.5550  212.9780  149.1490 N   0  0  0  0  0  0  0  0  0  0  0  0
  161.4560  212.7550  150.3210 C   0  0  0  0  0  2  0  0  0  0  0  0
  160.1510  212.7260  147.8020 C   0  0  0  0  0  0  0  0  0  0  0  0
  160.8940  212.0120  147.0770 O   0  0  0  0  0  0  0  0  0  0  0  0
  160.3960  213.6200  150.4880 C   0  0  2  0  0  3  0  0  0  0  0  0
  158.8790  213.3030  147.2830 C   0  0  0  0  0  0  0  0  0  0  0  0
  156.3990  214.3570  146.4510 C   0  0  0  0  0  3  0  0  0  0  0  0
  156.5110  213.7380  147.6950 C   0  0  0  0  0  3  0  0  0  0  0  0
  157.7400  213.2170  148.1030 C   0  0  0  0  0  3  0  0  0  0  0  0
  157.5120  214.4530  145.6170 C   0  0  0  0  0  3  0  0  0  0  0  0
  158.7520  213.9370  146.0140 C   0  0  0  0  0  0  0  0  0  0  0  0
  160.1110  214.1030  144.8430 S   0  0  0  0  0  0  0  0  0  0  0  0
  159.0430  213.7810  143.4070 C   0  0  0  0  0  2  0  0  0  0  0  0
  159.4680  212.4990  142.7160 C   0  0  0  0  0  2  0  0  0  0  0  0
  160.8280  212.1750  143.1110 N   0  0  0  0  0  2  0  0  0  0  0  0
  161.1970  211.1880  140.8900 C   0  0  0  0  0  3  0  0  0  0  0  0
  161.9360  211.0620  139.8400 N   0  0  0  0  0  2  0  0  0  0  0  0
  161.5950  212.0640  141.9420 N   0  0  0  0  0  2  0  0  0  0  0  0
  159.7760  210.0610  153.8340 C   0  0  0  0  0  2  0  0  0  0  0  0
  162.1970  210.4820  154.4130 C   0  0  0  0  0  1  0  0  0  0  0  0
  160.8480  208.8660  155.6930 C   0  0  0  0  0  1  0  0  0  0  0  0
  161.0930  209.4380  154.3090 C   0  0  0  0  0  0  0  0  0  0  0  0
  161.4970  208.4660  152.0510 C   0  0  0  0  0  3  0  0  0  0  0  0
  161.4910  208.3280  153.3770 C   0  0  0  0  0  3  0  0  0  0  0  0
  161.9430  207.3380  151.1850 C   0  0  0  0  0  2  0  0  0  0  0  0
  160.9090  207.0600  150.1040 C   0  0  0  0  0  2  0  0  0  0  0  0
  161.5020  207.1900  148.7750 N   0  0  0  0  0  0  0  0  0  0  0  0
  162.1670  208.3880  148.3670 C   0  0  0  0  0  3  0  0  0  0  0  0
  162.2620  209.3740  149.1430 O   0  0  0  0  0  0  0  0  0  0  0  0
  161.4130  205.8540  147.6760 S   0  0  0  0  0  0  0  0  0  0  0  0
  160.2530  206.0390  146.7360 O   0  0  0  0  0  0  0  0  0  0  0  0
  162.6860  205.7920  146.8730 O   0  0  0  0  0  0  0  0  0  0  0  0
  160.9110  204.3780  149.9260 C   0  0  0  0  0  3  0  0  0  0  0  0
  161.2850  203.1220  147.8870 C   0  0  0  0  0  3  0  0  0  0  0  0
  160.7260  203.1820  150.6280 C   0  0  0  0  0  3  0  0  0  0  0  0
  161.1910  204.3510  148.5540 C   0  0  0  0  0  0  0  0  0  0  0  0
  160.8200  201.9550  149.9590 C   0  0  0  0  0  3  0  0  0  0  0  0
  161.0990  201.9250  148.5890 C   0  0  0  0  0  3  0  0  0  0  0  0
  1  5  1  6  0  0  0
  1 25  1  0  0  0  0
  1  2  1  0  0  0  0
  2  3  2  0  0  0  0
  4  2  1  0  0  0  0
  6  5  1  0  0  0  0
  7  8  1  0  0  0  0
  7 11  1  0  0  0  0
  8 11  1  0  0  0  0
  9  7  1  0  0  0  0
 10  9  2  0  0  0  0
 11  6  1  1  0  0  0
 12  9  1  0  0  0  0
 12 15  1  0  0  0  0
 13 14  1  0  0  0  0
 14 15  2  0  0  0  0
 16 17  1  0  0  0  0
 16 13  2  0  0  0  0
 17 12  2  0  0  0  0
 18 17  1  0  0  0  0
 19 18  1  0  0  0  0
 20 21  1  0  0  0  0
 20 19  1  0  0  0  0
 22 24  1  0  0  0  0
 23 22  2  0  0  0  0
 24 21  1  0  0  0  0
 25 28  1  0  0  0  0
 28 26  1  0  0  0  0
 28 27  1  0  0  0  0
 29 30  2  0  0  0  0
 30 28  1  0  0  0  0
 31 29  1  0  0  0  0
 32 31  1  0  0  0  0
 33 32  1  0  0  0  0
 34 33  1  0  0  0  0
 34 35  2  0  0  0  0
 36 42  1  0  0  0  0
 36 33  1  0  0  0  0
 37 36  2  0  0  0  0
 38 36  2  0  0  0  0
 39 41  1  0  0  0  0
 40 42  1  0  0  0  0
 40 44  2  0  0  0  0
 42 39  2  0  0  0  0
 43 41  2  0  0  0  0
 44 43  1  0  0  0  0
M  END
>  <MODEL>
7

>  <REMARK>
 VINA RESULT:      -4.7      3.665      6.194
  Name = 
  18 active torsions:
  status: ('A' for Active; 'I' for Inactive)
    1  A    between atoms: C_1  and  C_30
    2  A    between atoms: S_3  and  N_10
    3  A    between atoms: S_3  and  C_22
    4  A    between atoms: N_5  and  N_17
    5  A    between atoms: N_5  and  C_19
    6  A    between atoms: N_10  and  C_20
    7  A    between atoms: C_16  and  C_20
    8  A    between atoms: C_16  and  C_34
    9  A    between atoms: C_18  and  C_28
   10  A    between atoms: C_19  and  C_25
   11  A    between atoms: C_25  and  S_37
   12  A    between atoms: C_26  and  S_37
   13  A    between atoms: C_28  and  C_31
   14  A    between atoms: C_28  and  C_43
   15  A    between atoms: C_31  and  C_35
   16  A    between atoms: C_32  and  C_38
   17  A    between atoms: C_32  and  C_43
   18  A    between atoms: C_35  and  C_39
                            x       y       z     vdW  Elec       q    Type
                         _______ _______ _______ _____ _____    ______ ____

>  <TORSDO>
F 18

$$$$
=
 OpenBabel11072413193D

 44 46  0  0  1  0  0  0  0  0999 V2000
  161.3320  206.6840  148.4440 C   0  0  2  0  0  3  0  0  0  0  0  0
  161.9330  205.8200  147.3800 C   0  0  0  0  0  0  0  0  0  0  0  0
  162.3180  206.3140  146.2880 O   0  0  0  0  0  0  0  0  0  0  0  0
  162.0650  204.4210  147.6010 N   0  0  0  0  0  1  0  0  0  0  0  0
  161.0470  208.1050  147.9430 C   0  0  0  0  0  2  0  0  0  0  0  0
  162.1160  209.1430  148.2810 C   0  0  0  0  0  2  0  0  0  0  0  0
  162.0160  211.5020  148.8890 N   0  0  0  0  0  0  0  0  0  0  0  0
  162.7350  210.7420  149.9550 C   0  0  0  0  0  2  0  0  0  0  0  0
  161.8410  212.6510  148.0580 C   0  0  0  0  0  0  0  0  0  0  0  0
  162.5580  213.6640  148.2770 O   0  0  0  0  0  0  0  0  0  0  0  0
  161.6650  210.1240  149.3440 C   0  0  2  0  0  3  0  0  0  0  0  0
  160.8300  212.6360  146.9630 C   0  0  0  0  0  0  0  0  0  0  0  0
  158.7950  212.5770  145.0120 C   0  0  0  0  0  3  0  0  0  0  0  0
  158.4940  212.2900  146.3410 C   0  0  0  0  0  3  0  0  0  0  0  0
  159.5030  212.3190  147.3050 C   0  0  0  0  0  3  0  0  0  0  0  0
  160.1030  212.8920  144.6450 C   0  0  0  0  0  3  0  0  0  0  0  0
  161.1260  212.9290  145.6010 C   0  0  0  0  0  0  0  0  0  0  0  0
  162.7790  213.3280  145.0050 S   0  0  0  0  0  0  0  0  0  0  0  0
  162.2130  213.5520  143.2910 C   0  0  0  0  0  2  0  0  0  0  0  0
  162.7170  212.4170  142.4210 C   0  0  0  0  0  2  0  0  0  0  0  0
  161.7850  212.2090  141.3250 N   0  0  0  0  0  2  0  0  0  0  0  0
  161.2340  210.2510  139.9460 C   0  0  0  0  0  3  0  0  0  0  0  0
  161.6120  209.1670  139.3560 N   0  0  0  0  0  2  0  0  0  0  0  0
  162.1860  211.0540  140.6390 N   0  0  0  0  0  2  0  0  0  0  0  0
  162.1060  206.5810  149.7690 C   0  0  0  0  0  2  0  0  0  0  0  0
  160.0960  205.1970  150.4120 C   0  0  0  0  0  1  0  0  0  0  0  0
  162.3390  204.6520  151.2730 C   0  0  0  0  0  1  0  0  0  0  0  0
  161.4140  205.7930  150.8870 C   0  0  0  0  0  0  0  0  0  0  0  0
  161.3840  206.2700  153.3310 C   0  0  0  0  0  3  0  0  0  0  0  0
  161.2020  206.6840  152.0770 C   0  0  0  0  0  3  0  0  0  0  0  0
  161.1960  207.2190  154.4640 C   0  0  0  0  0  2  0  0  0  0  0  0
  160.4540  208.4630  153.9960 C   0  0  0  0  0  2  0  0  0  0  0  0
  160.9430  209.6490  154.6940 N   0  0  0  0  0  0  0  0  0  0  0  0
  161.9450  210.4940  154.1220 C   0  0  0  0  0  3  0  0  0  0  0  0
  162.4400  210.2400  152.9930 O   0  0  0  0  0  0  0  0  0  0  0  0
  160.2800  210.0520  156.2430 S   0  0  0  0  0  0  0  0  0  0  0  0
  159.7440  208.8150  156.9100 O   0  0  0  0  0  0  0  0  0  0  0  0
  161.3660  210.6390  157.1060 O   0  0  0  0  0  0  0  0  0  0  0  0
  157.7400  210.7950  155.5450 C   0  0  0  0  0  3  0  0  0  0  0  0
  159.1500  212.5430  156.4560 C   0  0  0  0  0  3  0  0  0  0  0  0
  156.6920  211.7120  155.4100 C   0  0  0  0  0  3  0  0  0  0  0  0
  158.9710  211.2080  156.0680 C   0  0  0  0  0  0  0  0  0  0  0  0
  156.8730  213.0450  155.7990 C   0  0  0  0  0  3  0  0  0  0  0  0
  158.1020  213.4600  156.3230 C   0  0  0  0  0  3  0  0  0  0  0  0
  1  5  1  6  0  0  0
  1 25  1  0  0  0  0
  2  4  1  0  0  0  0
  2  1  1  0  0  0  0
  3  2  2  0  0  0  0
  5  6  1  0  0  0  0
  7 11  1  0  0  0  0
  7  8  1  0  0  0  0
  9 10  2  0  0  0  0
  9  7  1  0  0  0  0
 11  6  1  6  0  0  0
 11  8  1  0  0  0  0
 12 15  1  0  0  0  0
 12  9  1  0  0  0  0
 13 14  1  0  0  0  0
 14 15  2  0  0  0  0
 16 13  2  0  0  0  0
 16 17  1  0  0  0  0
 17 12  2  0  0  0  0
 18 17  1  0  0  0  0
 19 18  1  0  0  0  0
 20 19  1  0  0  0  0
 21 20  1  0  0  0  0
 22 24  1  0  0  0  0
 23 22  2  0  0  0  0
 24 21  1  0  0  0  0
 25 28  1  0  0  0  0
 26 28  1  0  0  0  0
 28 27  1  0  0  0  0
 28 30  1  0  0  0  0
 29 31  1  0  0  0  0
 30 29  2  0  0  0  0
 32 31  1  0  0  0  0
 32 33  1  0  0  0  0
 33 36  1  0  0  0  0
 34 33  1  0  0  0  0
 35 34  2  0  0  0  0
 36 37  2  0  0  0  0
 36 38  2  0  0  0  0
 39 42  1  0  0  0  0
 41 39  2  0  0  0  0
 41 43  1  0  0  0  0
 42 36  1  0  0  0  0
 42 40  2  0  0  0  0
 43 44  2  0  0  0  0
 44 40  1  0  0  0  0
M  END
>  <MODEL>
8

>  <REMARK>
 VINA RESULT:      -4.4      3.913      9.125
  Name = 
  18 active torsions:
  status: ('A' for Active; 'I' for Inactive)
    1  A    between atoms: C_1  and  C_30
    2  A    between atoms: S_3  and  N_10
    3  A    between atoms: S_3  and  C_22
    4  A    between atoms: N_5  and  N_17
    5  A    between atoms: N_5  and  C_19
    6  A    between atoms: N_10  and  C_20
    7  A    between atoms: C_16  and  C_20
    8  A    between atoms: C_16  and  C_34
    9  A    between atoms: C_18  and  C_28
   10  A    between atoms: C_19  and  C_25
   11  A    between atoms: C_25  and  S_37
   12  A    between atoms: C_26  and  S_37
   13  A    between atoms: C_28  and  C_31
   14  A    between atoms: C_28  and  C_43
   15  A    between atoms: C_31  and  C_35
   16  A    between atoms: C_32  and  C_38
   17  A    between atoms: C_32  and  C_43
   18  A    between atoms: C_35  and  C_39
                            x       y       z     vdW  Elec       q    Type
                         _______ _______ _______ _____ _____    ______ ____

>  <TORSDO>
F 18

$$$$
=
 OpenBabel11072413193D

 44 46  0  0  1  0  0  0  0  0999 V2000
  160.7790  204.4330  150.2380 C   0  0  2  0  0  3  0  0  0  0  0  0
  160.8860  202.9410  150.1940 C   0  0  0  0  0  0  0  0  0  0  0  0
  161.8610  202.3480  150.7240 O   0  0  0  0  0  0  0  0  0  0  0  0
  159.8780  202.1830  149.5370 N   0  0  0  0  0  1  0  0  0  0  0  0
  160.4880  205.0330  148.8570 C   0  0  0  0  0  2  0  0  0  0  0  0
  160.4140  206.5580  148.8080 C   0  0  0  0  0  2  0  0  0  0  0  0
  162.3240  206.1370  147.3530 N   0  0  0  0  0  0  0  0  0  0  0  0
  162.5900  207.3470  148.1890 C   0  0  0  0  0  2  0  0  0  0  0  0
  162.7380  204.9250  146.7200 C   0  0  0  0  0  0  0  0  0  0  0  0
  163.9630  204.6320  146.7290 O   0  0  0  0  0  0  0  0  0  0  0  0
  161.3020  207.1560  147.7370 C   0  0  2  0  0  3  0  0  0  0  0  0
  161.7310  204.0410  146.0660 C   0  0  0  0  0  0  0  0  0  0  0  0
  159.8750  202.2430  144.9380 C   0  0  0  0  0  3  0  0  0  0  0  0
  160.7620  201.8040  145.9180 C   0  0  0  0  0  3  0  0  0  0  0  0
  161.6800  202.6960  146.4750 C   0  0  0  0  0  3  0  0  0  0  0  0
  159.9060  203.5710  144.5120 C   0  0  0  0  0  3  0  0  0  0  0  0
  160.8190  204.4790  145.0630 C   0  0  0  0  0  0  0  0  0  0  0  0
  160.7780  206.1610  144.4190 S   0  0  0  0  0  0  0  0  0  0  0  0
  162.0260  205.8080  143.1440 C   0  0  0  0  0  2  0  0  0  0  0  0
  161.4980  206.1930  141.7750 C   0  0  0  0  0  2  0  0  0  0  0  0
  162.6090  206.6180  140.9400 N   0  0  0  0  0  2  0  0  0  0  0  0
  162.3310  208.2770  139.1470 C   0  0  0  0  0  3  0  0  0  0  0  0
  161.8070  208.6120  138.0170 N   0  0  0  0  0  2  0  0  0  0  0  0
  162.0870  206.9810  139.6900 N   0  0  0  0  0  2  0  0  0  0  0  0
  161.9480  205.0670  151.0120 C   0  0  0  0  0  2  0  0  0  0  0  0
  160.8240  204.6130  153.2260 C   0  0  0  0  0  1  0  0  0  0  0  0
  162.9150  205.9090  153.1080 C   0  0  0  0  0  1  0  0  0  0  0  0
  161.6040  205.6250  152.3980 C   0  0  0  0  0  0  0  0  0  0  0  0
  161.3470  208.0970  152.5500 C   0  0  0  0  0  3  0  0  0  0  0  0
  160.8320  206.9050  152.2500 C   0  0  0  0  0  3  0  0  0  0  0  0
  160.5410  209.3330  152.3400 C   0  0  0  0  0  2  0  0  0  0  0  0
  160.9140  210.3890  153.3700 C   0  0  0  0  0  2  0  0  0  0  0  0
  159.7830  210.6730  154.2520 N   0  0  0  0  0  0  0  0  0  0  0  0
  159.3390  209.7250  155.2260 C   0  0  0  0  0  3  0  0  0  0  0  0
  159.9090  208.6120  155.3550 O   0  0  0  0  0  0  0  0  0  0  0  0
  158.9750  212.2000  154.1250 S   0  0  0  0  0  0  0  0  0  0  0  0
  157.5530  212.0700  154.6000 O   0  0  0  0  0  0  0  0  0  0  0  0
  159.6870  213.2080  154.9900 O   0  0  0  0  0  0  0  0  0  0  0  0
  157.7490  212.8560  151.7680 C   0  0  0  0  0  3  0  0  0  0  0  0
  160.1610  213.0930  151.8180 C   0  0  0  0  0  3  0  0  0  0  0  0
  157.7340  213.3000  150.4410 C   0  0  0  0  0  3  0  0  0  0  0  0
  158.9620  212.7510  152.4590 C   0  0  0  0  0  0  0  0  0  0  0  0
  158.9330  213.6420  149.8030 C   0  0  0  0  0  3  0  0  0  0  0  0
  160.1460  213.5380  150.4910 C   0  0  0  0  0  3  0  0  0  0  0  0
  1  5  1  6  0  0  0
  1 25  1  0  0  0  0
  2  1  1  0  0  0  0
  2  3  2  0  0  0  0
  4  2  1  0  0  0  0
  6  5  1  0  0  0  0
  7 11  1  0  0  0  0
  7  8  1  0  0  0  0
  9 10  2  0  0  0  0
  9  7  1  0  0  0  0
 11  8  1  0  0  0  0
 11  6  1  1  0  0  0
 12 15  1  0  0  0  0
 12  9  1  0  0  0  0
 13 14  1  0  0  0  0
 14 15  2  0  0  0  0
 16 13  2  0  0  0  0
 16 17  1  0  0  0  0
 17 12  2  0  0  0  0
 18 17  1  0  0  0  0
 19 18  1  0  0  0  0
 20 19  1  0  0  0  0
 21 20  1  0  0  0  0
 22 24  1  0  0  0  0
 23 22  2  0  0  0  0
 24 21  1  0  0  0  0
 25 28  1  0  0  0  0
 28 27  1  0  0  0  0
 28 26  1  0  0  0  0
 30 28  1  0  0  0  0
 30 29  2  0  0  0  0
 31 29  1  0  0  0  0
 31 32  1  0  0  0  0
 32 33  1  0  0  0  0
 33 34  1  0  0  0  0
 34 35  2  0  0  0  0
 36 33  1  0  0  0  0
 36 37  2  0  0  0  0
 36 38  2  0  0  0  0
 39 42  1  0  0  0  0
 40 42  2  0  0  0  0
 41 39  2  0  0  0  0
 42 36  1  0  0  0  0
 43 41  1  0  0  0  0
 43 44  2  0  0  0  0
 44 40  1  0  0  0  0
M  END
>  <MODEL>
9

>  <REMARK>
 VINA RESULT:      -3.9      3.002     10.419
  Name = 
  18 active torsions:
  status: ('A' for Active; 'I' for Inactive)
    1  A    between atoms: C_1  and  C_30
    2  A    between atoms: S_3  and  N_10
    3  A    between atoms: S_3  and  C_22
    4  A    between atoms: N_5  and  N_17
    5  A    between atoms: N_5  and  C_19
    6  A    between atoms: N_10  and  C_20
    7  A    between atoms: C_16  and  C_20
    8  A    between atoms: C_16  and  C_34
    9  A    between atoms: C_18  and  C_28
   10  A    between atoms: C_19  and  C_25
   11  A    between atoms: C_25  and  S_37
   12  A    between atoms: C_26  and  S_37
   13  A    between atoms: C_28  and  C_31
   14  A    between atoms: C_28  and  C_43
   15  A    between atoms: C_31  and  C_35
   16  A    between atoms: C_32  and  C_38
   17  A    between atoms: C_32  and  C_43
   18  A    between atoms: C_35  and  C_39
                            x       y       z     vdW  Elec       q    Type
                         _______ _______ _______ _____ _____    ______ ____

>  <TORSDO>
F 18

$$$$
