=
 OpenBabel11072411333D

 52 56  0  0  1  0  0  0  0  0999 V2000
  161.0730  203.6510  148.8620 C   0  0  1  0  0  3  0  0  0  0  0  0
  160.4680  205.1720  146.8760 C   0  0  0  0  0  2  0  0  0  0  0  0
  162.1660  205.2680  145.0140 C   0  0  0  0  0  2  0  0  0  0  0  0
  163.0880  204.3870  145.8070 C   0  0  0  0  0  3  0  0  0  0  0  0
  161.2920  206.0940  145.9590 C   0  0  2  0  0  3  0  0  0  0  0  0
  161.2100  203.9030  147.3590 C   0  0  1  0  0  3  0  0  0  0  0  0
  162.6440  203.7710  146.9080 C   0  0  0  0  0  3  0  0  0  0  0  0
  161.6920  207.6170  147.9570 C   0  0  0  0  0  0  0  0  0  0  0  0
  162.5990  208.4540  148.6780 N   0  0  0  0  0  2  0  0  0  0  0  0
  160.5180  207.4330  148.3830 O   0  0  0  0  0  0  0  0  0  0  0  0
  162.1320  206.9880  146.7520 N   0  0  0  0  0  2  0  0  0  0  0  0
  162.2640  209.0510  149.9640 C   0  0  0  0  0  2  0  0  0  0  0  0
  161.6720  210.4350  149.7460 C   0  0  0  0  0  2  0  0  0  0  0  0
  162.1970  211.0490  148.4580 C   0  0  0  0  0  2  0  0  0  0  0  0
  162.7210  213.1910  147.2250 C   0  0  0  0  0  2  0  0  0  0  0  0
  159.9480  213.1650  147.8350 C   0  0  0  0  0  2  0  0  0  0  0  0
  162.2800  212.5700  148.5540 C   0  0  1  0  0  3  0  0  0  0  0  0
  161.5420  213.2170  146.2310 C   0  0  1  0  0  3  0  0  0  0  0  0
  160.4650  213.9390  146.7790 O   0  0  0  0  0  0  0  0  0  0  0  0
  160.9380  213.1520  149.0060 C   0  0  0  0  0  2  0  0  0  0  0  0
  161.8610  213.7390  144.8160 C   0  0  0  0  0  3  0  0  0  0  0  0
  163.1610  213.1470  144.2980 C   0  0  0  0  0  2  0  0  0  0  0  0
  161.8380  212.6690  143.7300 C   0  0  0  0  0  2  0  0  0  0  0  0
  160.0770  201.7510  150.2300 C   0  0  0  0  0  1  0  0  0  0  0  0
  161.1560  202.1640  149.2440 C   0  0  0  0  0  3  0  0  0  0  0  0
  161.0630  201.3030  148.0010 C   0  0  0  0  0  1  0  0  0  0  0  0
  161.9860  204.4440  149.5730 O   0  0  0  0  0  0  0  0  0  0  0  0
  161.2150  205.2080  150.4570 C   0  0  0  0  0  2  0  0  0  0  0  0
  161.7890  205.1470  151.8680 C   0  0  2  0  0  3  0  0  0  0  0  0
  161.5760  203.8740  152.3980 O   0  0  0  0  0  1  0  0  0  0  0  0
  161.1370  206.0190  154.0890 C   0  0  0  0  0  3  0  0  0  0  0  0
  161.1730  206.1840  152.7570 C   0  0  0  0  0  0  0  0  0  0  0  0
  160.5980  207.4030  152.1510 C   0  0  0  0  0  3  0  0  0  0  0  0
  160.4180  207.0110  154.9640 C   0  0  0  0  0  2  0  0  0  0  0  0
  160.2570  208.4460  152.9150 C   0  0  0  0  0  3  0  0  0  0  0  0
  160.5190  208.4380  154.4010 C   0  0  2  0  0  3  0  0  0  0  0  0
  161.8430  208.9940  154.6730 N   0  0  0  0  0  2  0  0  0  0  0  0
  160.9490  209.7800  156.6530 F   0  0  0  0  0  0  0  0  0  0  0  0
  161.7420  210.1410  155.5800 C   0  0  0  0  0  0  0  0  0  0  0  0
  162.9970  210.4720  156.0690 F   0  0  0  0  0  0  0  0  0  0  0  0
  161.1270  211.3590  154.8550 C   0  0  2  0  0  3  0  0  0  0  0  0
  159.9350  212.0090  155.5090 C   0  0  0  0  0  0  0  0  0  0  0  0
  157.5970  213.3190  156.4350 C   0  0  0  0  0  3  0  0  0  0  0  0
  157.5190  212.0760  155.9410 C   0  0  0  0  0  0  0  0  0  0  0  0
  160.0890  213.2070  156.4120 C   0  0  0  0  0  2  0  0  0  0  0  0
  158.8660  214.1170  156.3070 C   0  0  0  0  0  2  0  0  0  0  0  0
  158.7260  211.4550  155.3490 C   0  0  0  0  0  3  0  0  0  0  0  0
  155.5000  211.3790  157.1120 O   0  0  0  0  0  0  0  0  0  0  0  0
  156.2880  211.3400  155.9840 N   0  0  0  0  0  0  0  0  0  0  0  0
  155.9590  210.5950  155.0350 O   0  0  0  0  0  0  0  0  0  0  0  0
  160.2020  212.2630  152.9600 C   0  0  0  0  0  1  0  0  0  0  0  0
  161.0300  211.2390  153.4490 O   0  0  0  0  0  0  0  0  0  0  0  0
  1 25  1  6  0  0  0
  1 27  1  0  0  0  0
  2  6  1  0  0  0  0
  3  4  1  0  0  0  0
  3  5  1  0  0  0  0
  4  7  2  0  0  0  0
  5 11  1  1  0  0  0
  5  2  1  0  0  0  0
  6  1  1  1  0  0  0
  7  6  1  0  0  0  0
  8 10  2  0  0  0  0
  8  9  1  0  0  0  0
  9 12  1  0  0  0  0
 11  8  1  0  0  0  0
 13 12  1  0  0  0  0
 14 13  1  0  0  0  0
 15 17  1  0  0  0  0
 16 20  1  0  0  0  0
 17 14  1  6  0  0  0
 17 20  1  0  0  0  0
 18 21  1  6  0  0  0
 18 19  1  0  0  0  0
 18 15  1  0  0  0  0
 19 16  1  0  0  0  0
 22 21  1  0  0  0  0
 23 22  1  0  0  0  0
 23 21  1  0  0  0  0
 25 24  1  0  0  0  0
 26 25  1  0  0  0  0
 27 28  1  0  0  0  0
 28 29  1  0  0  0  0
 29 30  1  1  0  0  0
 29 32  1  0  0  0  0
 31 34  1  0  0  0  0
 32 31  2  0  0  0  0
 33 32  1  0  0  0  0
 33 35  2  0  0  0  0
 35 36  1  0  0  0  0
 36 37  1  6  0  0  0
 36 34  1  0  0  0  0
 37 39  1  0  0  0  0
 39 40  1  0  0  0  0
 39 38  1  0  0  0  0
 41 52  1  6  0  0  0
 41 42  1  0  0  0  0
 41 39  1  0  0  0  0
 42 45  1  0  0  0  0
 44 49  1  0  0  0  0
 44 43  2  0  0  0  0
 46 45  1  0  0  0  0
 46 43  1  0  0  0  0
 47 42  2  0  0  0  0
 47 44  1  0  0  0  0
 49 48  2  0  0  0  0
 50 49  2  0  0  0  0
 51 52  1  0  0  0  0
M  END
>  <MODEL>
1

>  <REMARK>
 VINA RESULT:      -6.6      0.000      0.000
  Name = 
  18 active torsions:
  status: ('A' for Active; 'I' for Inactive)
    1  A    between atoms: C_1  and  C_36
    2  A    between atoms: C_2  and  O_14
    3  A    between atoms: C_2  and  C_19
    4  A    between atoms: C_3  and  C_9
    5  A    between atoms: C_4  and  C_30
    6  A    between atoms: C_4  and  C_31
    7  A    between atoms: C_5  and  O_14
    8  A    between atoms: C_5  and  C_43
    9  A    between atoms: C_5  and  C_49
   10  A    between atoms: C_9  and  O_23
   11  A    between atoms: C_9  and  C_28
   12  A    between atoms: N_12  and  C_31
   13  A    between atoms: C_16  and  C_19
   14  A    between atoms: N_17  and  C_38
   15  A    between atoms: N_18  and  C_42
   16  A    between atoms: N_21  and  C_28
   17  A    between atoms: N_21  and  C_52
   18  A    between atoms: C_26  and  C_30
                            x       y       z     vdW  Elec       q    Type
                         _______ _______ _______ _____ _____    ______ ____

>  <TORSDO>
F 18

$$$$
=
 OpenBabel11072411333D

 52 56  0  0  1  0  0  0  0  0999 V2000
  158.3480  214.3000  148.9720 C   0  0  1  0  0  3  0  0  0  0  0  0
  160.8840  213.9340  149.2160 C   0  0  0  0  0  2  0  0  0  0  0  0
  162.0960  213.2340  147.1170 C   0  0  0  0  0  2  0  0  0  0  0  0
  160.7890  213.1760  146.3810 C   0  0  0  0  0  3  0  0  0  0  0  0
  161.8720  212.9270  148.6000 C   0  0  2  0  0  3  0  0  0  0  0  0
  159.7170  214.3500  148.2890 C   0  0  1  0  0  3  0  0  0  0  0  0
  159.6810  213.6780  146.9380 C   0  0  0  0  0  3  0  0  0  0  0  0
  162.1790  210.4040  148.5260 C   0  0  0  0  0  0  0  0  0  0  0  0
  161.6090  209.1090  148.7300 N   0  0  0  0  0  2  0  0  0  0  0  0
  163.3810  210.5210  148.1560 O   0  0  0  0  0  0  0  0  0  0  0  0
  161.3760  211.5620  148.7520 N   0  0  0  0  0  2  0  0  0  0  0  0
  162.3860  207.8820  148.6190 C   0  0  0  0  0  2  0  0  0  0  0  0
  161.4490  206.6860  148.5660 C   0  0  0  0  0  2  0  0  0  0  0  0
  161.2040  206.2570  147.1290 C   0  0  0  0  0  2  0  0  0  0  0  0
  162.1670  203.9380  147.4100 C   0  0  0  0  0  2  0  0  0  0  0  0
  160.9560  204.0990  144.8470 C   0  0  0  0  0  2  0  0  0  0  0  0
  162.2600  205.2640  146.6500 C   0  0  1  0  0  3  0  0  0  0  0  0
  160.9900  203.0980  146.8740 C   0  0  1  0  0  3  0  0  0  0  0  0
  161.1500  202.8650  145.4960 O   0  0  0  0  0  0  0  0  0  0  0  0
  162.1340  205.0350  145.1410 C   0  0  0  0  0  2  0  0  0  0  0  0
  160.7200  201.7670  147.6060 C   0  0  0  0  0  3  0  0  0  0  0  0
  161.5750  201.6510  148.8560 C   0  0  0  0  0  2  0  0  0  0  0  0
  160.0880  201.9230  148.9850 C   0  0  0  0  0  2  0  0  0  0  0  0
  157.1260  212.5740  147.5580 C   0  0  0  0  0  1  0  0  0  0  0  0
  157.1880  214.0260  148.0010 C   0  0  0  0  0  3  0  0  0  0  0  0
  155.8720  214.4160  148.6410 C   0  0  0  0  0  1  0  0  0  0  0  0
  158.3760  213.4020  150.0490 O   0  0  0  0  0  0  0  0  0  0  0  0
  158.0600  214.1620  151.1830 C   0  0  0  0  0  2  0  0  0  0  0  0
  156.8930  213.5420  151.9430 C   0  0  2  0  0  3  0  0  0  0  0  0
  155.8360  214.4520  151.9860 O   0  0  0  0  0  1  0  0  0  0  0  0
  157.5380  211.8650  153.6430 C   0  0  0  0  0  3  0  0  0  0  0  0
  157.2900  213.1470  153.3330 C   0  0  0  0  0  0  0  0  0  0  0  0
  157.4070  214.1910  154.3720 C   0  0  0  0  0  3  0  0  0  0  0  0
  157.8260  211.4630  155.0640 C   0  0  0  0  0  2  0  0  0  0  0  0
  157.9810  213.9180  155.5480 C   0  0  0  0  0  3  0  0  0  0  0  0
  158.5890  212.5640  155.8180 C   0  0  2  0  0  3  0  0  0  0  0  0
  159.9960  212.5660  155.4200 N   0  0  0  0  0  2  0  0  0  0  0  0
  161.8490  211.4300  156.2070 F   0  0  0  0  0  0  0  0  0  0  0  0
  160.5970  211.2480  155.6480 C   0  0  0  0  0  0  0  0  0  0  0  0
  159.8290  210.5250  156.5470 F   0  0  0  0  0  0  0  0  0  0  0  0
  160.7200  210.4680  154.3200 C   0  0  2  0  0  3  0  0  0  0  0  0
  160.8890  208.9730  154.4240 C   0  0  0  0  0  0  0  0  0  0  0  0
  160.8980  206.1390  154.5030 C   0  0  0  0  0  3  0  0  0  0  0  0
  161.1220  206.7790  153.3480 C   0  0  0  0  0  0  0  0  0  0  0  0
  161.0390  208.2900  155.7590 C   0  0  0  0  0  2  0  0  0  0  0  0
  160.4240  206.8910  155.7170 C   0  0  0  0  0  2  0  0  0  0  0  0
  160.9920  208.2530  153.2990 C   0  0  0  0  0  3  0  0  0  0  0  0
  160.5220  205.4680  151.3840 O   0  0  0  0  0  0  0  0  0  0  0  0
  161.4920  206.0580  152.1630 N   0  0  0  0  0  0  0  0  0  0  0  0
  162.6960  205.8890  151.8720 O   0  0  0  0  0  0  0  0  0  0  0  0
  161.0870  210.6640  152.0640 C   0  0  0  0  0  1  0  0  0  0  0  0
  161.5260  211.0800  153.3320 O   0  0  0  0  0  0  0  0  0  0  0  0
  1 25  1  6  0  0  0
  1 27  1  0  0  0  0
  3  5  1  0  0  0  0
  4  7  2  0  0  0  0
  4  3  1  0  0  0  0
  5 11  1  6  0  0  0
  5  2  1  0  0  0  0
  6  1  1  1  0  0  0
  6  2  1  0  0  0  0
  7  6  1  0  0  0  0
  8  9  1  0  0  0  0
  8 11  1  0  0  0  0
 10  8  2  0  0  0  0
 12  9  1  0  0  0  0
 13 12  1  0  0  0  0
 14 13  1  0  0  0  0
 16 20  1  0  0  0  0
 16 19  1  0  0  0  0
 17 14  1  1  0  0  0
 17 15  1  0  0  0  0
 18 15  1  0  0  0  0
 18 21  1  1  0  0  0
 19 18  1  0  0  0  0
 20 17  1  0  0  0  0
 21 22  1  0  0  0  0
 21 23  1  0  0  0  0
 22 23  1  0  0  0  0
 24 25  1  0  0  0  0
 25 26  1  0  0  0  0
 27 28  1  0  0  0  0
 28 29  1  0  0  0  0
 29 30  1  1  0  0  0
 29 32  1  0  0  0  0
 31 34  1  0  0  0  0
 32 31  2  0  0  0  0
 32 33  1  0  0  0  0
 33 35  2  0  0  0  0
 34 36  1  0  0  0  0
 35 36  1  0  0  0  0
 36 37  1  6  0  0  0
 37 39  1  0  0  0  0
 39 38  1  0  0  0  0
 39 40  1  0  0  0  0
 41 52  1  1  0  0  0
 41 42  1  0  0  0  0
 41 39  1  0  0  0  0
 42 45  1  0  0  0  0
 43 46  1  0  0  0  0
 44 43  2  0  0  0  0
 46 45  1  0  0  0  0
 47 44  1  0  0  0  0
 47 42  2  0  0  0  0
 48 49  2  0  0  0  0
 49 44  1  0  0  0  0
 50 49  2  0  0  0  0
 51 52  1  0  0  0  0
M  END
>  <MODEL>
2

>  <REMARK>
 VINA RESULT:      -6.3      2.195      8.093
  Name = 
  18 active torsions:
  status: ('A' for Active; 'I' for Inactive)
    1  A    between atoms: C_1  and  C_36
    2  A    between atoms: C_2  and  O_14
    3  A    between atoms: C_2  and  C_19
    4  A    between atoms: C_3  and  C_9
    5  A    between atoms: C_4  and  C_30
    6  A    between atoms: C_4  and  C_31
    7  A    between atoms: C_5  and  O_14
    8  A    between atoms: C_5  and  C_43
    9  A    between atoms: C_5  and  C_49
   10  A    between atoms: C_9  and  O_23
   11  A    between atoms: C_9  and  C_28
   12  A    between atoms: N_12  and  C_31
   13  A    between atoms: C_16  and  C_19
   14  A    between atoms: N_17  and  C_38
   15  A    between atoms: N_18  and  C_42
   16  A    between atoms: N_21  and  C_28
   17  A    between atoms: N_21  and  C_52
   18  A    between atoms: C_26  and  C_30
                            x       y       z     vdW  Elec       q    Type
                         _______ _______ _______ _____ _____    ______ ____

>  <TORSDO>
F 18

$$$$
=
 OpenBabel11072411333D

 52 56  0  0  1  0  0  0  0  0999 V2000
  162.0500  209.5240  150.1670 C   0  0  1  0  0  3  0  0  0  0  0  0
  160.5060  209.6340  152.2240 C   0  0  0  0  0  2  0  0  0  0  0  0
  161.5800  210.4480  154.3560 C   0  0  0  0  0  2  0  0  0  0  0  0
  162.9090  210.5190  153.6610 C   0  0  0  0  0  3  0  0  0  0  0  0
  160.7180  209.3540  153.7230 C   0  0  2  0  0  3  0  0  0  0  0  0
  161.7360  210.2230  151.4920 C   0  0  1  0  0  3  0  0  0  0  0  0
  162.9780  210.3930  152.3320 C   0  0  0  0  0  3  0  0  0  0  0  0
  160.8820  206.8500  153.3060 C   0  0  0  0  0  0  0  0  0  0  0  0
  161.5890  205.6290  153.5350 N   0  0  0  0  0  2  0  0  0  0  0  0
  159.8570  206.8650  152.5690 O   0  0  0  0  0  0  0  0  0  0  0  0
  161.3520  208.0520  153.9170 N   0  0  0  0  0  2  0  0  0  0  0  0
  161.2370  204.3800  152.8720 C   0  0  0  0  0  2  0  0  0  0  0  0
  161.9830  204.2750  151.5510 C   0  0  0  0  0  2  0  0  0  0  0  0
  161.7550  202.9150  150.9110 C   0  0  0  0  0  2  0  0  0  0  0  0
  160.6020  203.9190  148.9000 C   0  0  0  0  0  2  0  0  0  0  0  0
  161.1860  201.1990  148.3310 C   0  0  0  0  0  2  0  0  0  0  0  0
  160.4990  202.9050  150.0430 C   0  0  1  0  0  3  0  0  0  0  0  0
  161.5050  203.3680  147.7770 C   0  0  1  0  0  3  0  0  0  0  0  0
  160.9970  202.1440  147.3050 O   0  0  0  0  0  0  0  0  0  0  0  0
  160.2370  201.4980  149.4980 C   0  0  0  0  0  2  0  0  0  0  0  0
  161.7710  204.3210  146.5940 C   0  0  0  0  0  3  0  0  0  0  0  0
  162.7100  205.4430  147.0000 C   0  0  0  0  0  2  0  0  0  0  0  0
  163.2140  204.3290  146.1030 C   0  0  0  0  0  2  0  0  0  0  0  0
  161.1270  207.5600  148.8400 C   0  0  0  0  0  1  0  0  0  0  0  0
  161.7020  208.0260  150.1660 C   0  0  0  0  0  3  0  0  0  0  0  0
  162.9310  207.2080  150.5010 C   0  0  0  0  0  1  0  0  0  0  0  0
  161.4580  210.2180  149.1010 O   0  0  0  0  0  0  0  0  0  0  0  0
  161.9390  211.5300  149.1890 C   0  0  0  0  0  2  0  0  0  0  0  0
  162.7540  211.8920  147.9540 C   0  0  2  0  0  3  0  0  0  0  0  0
  163.8490  212.6700  148.3340 O   0  0  0  0  0  1  0  0  0  0  0  0
  162.5000  213.4230  146.0270 C   0  0  0  0  0  3  0  0  0  0  0  0
  161.9260  212.6280  146.9450 C   0  0  0  0  0  0  0  0  0  0  0  0
  160.4570  212.4720  146.9680 C   0  0  0  0  0  3  0  0  0  0  0  0
  161.6550  214.2440  145.0910 C   0  0  0  0  0  2  0  0  0  0  0  0
  159.7100  212.9180  145.9520 C   0  0  0  0  0  3  0  0  0  0  0  0
  160.3500  213.5200  144.7250 C   0  0  2  0  0  3  0  0  0  0  0  0
  160.6140  212.4720  143.7400 N   0  0  0  0  0  2  0  0  0  0  0  0
  161.0180  214.4330  142.5880 F   0  0  0  0  0  0  0  0  0  0  0  0
  161.0740  213.0560  142.4770 C   0  0  0  0  0  0  0  0  0  0  0  0
  162.3920  212.6990  142.2410 F   0  0  0  0  0  0  0  0  0  0  0  0
  160.1870  212.5850  141.3030 C   0  0  2  0  0  3  0  0  0  0  0  0
  160.8840  211.8900  140.1610 C   0  0  0  0  0  0  0  0  0  0  0  0
  162.4340  210.5110  138.2290 C   0  0  0  0  0  3  0  0  0  0  0  0
  161.6650  209.8270  139.0860 C   0  0  0  0  0  0  0  0  0  0  0  0
  161.4090  212.6600  138.9760 C   0  0  0  0  0  2  0  0  0  0  0  0
  162.6610  211.9880  138.4130 C   0  0  0  0  0  2  0  0  0  0  0  0
  160.9600  210.5530  140.1650 C   0  0  0  0  0  3  0  0  0  0  0  0
  161.1510  207.8490  137.7600 O   0  0  0  0  0  0  0  0  0  0  0  0
  161.5130  208.4050  138.9670 N   0  0  0  0  0  0  0  0  0  0  0  0
  161.6260  207.6660  139.9690 O   0  0  0  0  0  0  0  0  0  0  0  0
  158.0800  212.7690  140.4140 C   0  0  0  0  0  1  0  0  0  0  0  0
  159.1770  213.4940  140.9060 O   0  0  0  0  0  0  0  0  0  0  0  0
  1 27  1  6  0  0  0
  2  5  1  0  0  0  0
  4  3  1  0  0  0  0
  5 11  1  6  0  0  0
  5  3  1  0  0  0  0
  6  1  1  6  0  0  0
  6  2  1  0  0  0  0
  6  7  1  0  0  0  0
  7  4  2  0  0  0  0
  8  9  1  0  0  0  0
  8 11  1  0  0  0  0
 10  8  2  0  0  0  0
 12  9  1  0  0  0  0
 13 12  1  0  0  0  0
 14 13  1  0  0  0  0
 15 17  1  0  0  0  0
 16 20  1  0  0  0  0
 17 14  1  6  0  0  0
 18 21  1  6  0  0  0
 18 15  1  0  0  0  0
 19 18  1  0  0  0  0
 19 16  1  0  0  0  0
 20 17  1  0  0  0  0
 21 22  1  0  0  0  0
 23 21  1  0  0  0  0
 23 22  1  0  0  0  0
 24 25  1  0  0  0  0
 25  1  1  0  0  0  0
 25 26  1  0  0  0  0
 27 28  1  0  0  0  0
 29 30  1  1  0  0  0
 29 28  1  0  0  0  0
 31 32  2  0  0  0  0
 32 33  1  0  0  0  0
 32 29  1  0  0  0  0
 34 31  1  0  0  0  0
 35 33  2  0  0  0  0
 36 37  1  6  0  0  0
 36 34  1  0  0  0  0
 36 35  1  0  0  0  0
 39 38  1  0  0  0  0
 39 37  1  0  0  0  0
 40 39  1  0  0  0  0
 41 52  1  6  0  0  0
 41 39  1  0  0  0  0
 42 47  2  0  0  0  0
 42 41  1  0  0  0  0
 43 46  1  0  0  0  0
 43 44  2  0  0  0  0
 44 47  1  0  0  0  0
 45 42  1  0  0  0  0
 46 45  1  0  0  0  0
 48 49  2  0  0  0  0
 49 44  1  0  0  0  0
 49 50  2  0  0  0  0
 51 52  1  0  0  0  0
M  END
>  <MODEL>
3

>  <REMARK>
 VINA RESULT:      -6.3      4.441     11.364
  Name = 
  18 active torsions:
  status: ('A' for Active; 'I' for Inactive)
    1  A    between atoms: C_1  and  C_36
    2  A    between atoms: C_2  and  O_14
    3  A    between atoms: C_2  and  C_19
    4  A    between atoms: C_3  and  C_9
    5  A    between atoms: C_4  and  C_30
    6  A    between atoms: C_4  and  C_31
    7  A    between atoms: C_5  and  O_14
    8  A    between atoms: C_5  and  C_43
    9  A    between atoms: C_5  and  C_49
   10  A    between atoms: C_9  and  O_23
   11  A    between atoms: C_9  and  C_28
   12  A    between atoms: N_12  and  C_31
   13  A    between atoms: C_16  and  C_19
   14  A    between atoms: N_17  and  C_38
   15  A    between atoms: N_18  and  C_42
   16  A    between atoms: N_21  and  C_28
   17  A    between atoms: N_21  and  C_52
   18  A    between atoms: C_26  and  C_30
                            x       y       z     vdW  Elec       q    Type
                         _______ _______ _______ _____ _____    ______ ____

>  <TORSDO>
F 18

$$$$
=
 OpenBabel11072411333D

 52 56  0  0  1  0  0  0  0  0999 V2000
  161.5890  209.2740  149.9090 C   0  0  1  0  0  3  0  0  0  0  0  0
  162.5940  207.2080  151.0690 C   0  0  0  0  0  2  0  0  0  0  0  0
  161.4730  205.0090  150.5510 C   0  0  0  0  0  2  0  0  0  0  0  0
  160.4420  205.7270  149.7290 C   0  0  0  0  0  3  0  0  0  0  0  0
  161.9830  205.9260  151.6640 C   0  0  2  0  0  3  0  0  0  0  0  0
  161.8510  207.7690  149.8320 C   0  0  1  0  0  3  0  0  0  0  0  0
  160.6120  207.0150  149.4150 C   0  0  0  0  0  3  0  0  0  0  0  0
  161.0790  206.5560  153.9560 C   0  0  0  0  0  0  0  0  0  0  0  0
  159.9460  206.8930  154.7600 N   0  0  0  0  0  2  0  0  0  0  0  0
  162.2360  206.5310  154.4630 O   0  0  0  0  0  0  0  0  0  0  0  0
  160.8890  206.2540  152.5740 N   0  0  0  0  0  2  0  0  0  0  0  0
  160.0650  207.3110  156.1500 C   0  0  0  0  0  2  0  0  0  0  0  0
  160.3820  208.7960  156.2120 C   0  0  0  0  0  2  0  0  0  0  0  0
  159.1890  209.6210  155.7570 C   0  0  0  0  0  2  0  0  0  0  0  0
  158.4290  211.6250  154.4180 C   0  0  0  0  0  2  0  0  0  0  0  0
  160.3370  212.4990  156.3310 C   0  0  0  0  0  2  0  0  0  0  0  0
  159.5970  210.6920  154.7490 C   0  0  1  0  0  3  0  0  0  0  0  0
  158.2150  212.6390  155.5610 C   0  0  1  0  0  3  0  0  0  0  0  0
  159.3920  213.3810  155.7740 O   0  0  0  0  0  0  0  0  0  0  0  0
  160.7960  211.4890  155.2710 C   0  0  0  0  0  2  0  0  0  0  0  0
  157.0120  213.5900  155.4050 C   0  0  0  0  0  3  0  0  0  0  0  0
  155.8540  212.8940  154.7120 C   0  0  0  0  0  2  0  0  0  0  0  0
  155.7770  213.1800  156.1990 C   0  0  0  0  0  2  0  0  0  0  0  0
  163.0460  210.3610  151.6890 C   0  0  0  0  0  1  0  0  0  0  0  0
  161.6640  209.8380  151.3380 C   0  0  0  0  0  3  0  0  0  0  0  0
  160.6440  210.9430  151.5140 C   0  0  0  0  0  1  0  0  0  0  0  0
  162.4240  209.9590  149.0140 O   0  0  0  0  0  0  0  0  0  0  0  0
  161.5770  210.7810  148.2600 C   0  0  0  0  0  2  0  0  0  0  0  0
  162.2870  212.0700  147.8620 C   0  0  2  0  0  3  0  0  0  0  0  0
  162.2670  212.9580  148.9390 O   0  0  0  0  0  1  0  0  0  0  0  0
  162.3120  213.6010  145.9200 C   0  0  0  0  0  3  0  0  0  0  0  0
  161.6480  212.7010  146.6630 C   0  0  0  0  0  0  0  0  0  0  0  0
  160.2670  212.3220  146.2990 C   0  0  0  0  0  3  0  0  0  0  0  0
  161.6250  214.3120  144.7850 C   0  0  0  0  0  2  0  0  0  0  0  0
  159.7530  212.6790  145.1170 C   0  0  0  0  0  3  0  0  0  0  0  0
  160.5900  213.4080  144.0960 C   0  0  2  0  0  3  0  0  0  0  0  0
  161.2630  212.4430  143.2270 N   0  0  0  0  0  2  0  0  0  0  0  0
  160.8060  214.2010  141.7980 F   0  0  0  0  0  0  0  0  0  0  0  0
  161.5450  213.0390  141.9180 C   0  0  0  0  0  0  0  0  0  0  0  0
  162.8870  213.3750  141.8290 F   0  0  0  0  0  0  0  0  0  0  0  0
  161.1770  212.0600  140.7820 C   0  0  2  0  0  3  0  0  0  0  0  0
  159.7240  211.9980  140.3820 C   0  0  0  0  0  0  0  0  0  0  0  0
  157.0850  212.0220  139.3450 C   0  0  0  0  0  3  0  0  0  0  0  0
  157.9420  211.0590  138.9790 C   0  0  0  0  0  0  0  0  0  0  0  0
  158.6790  212.8200  141.0920 C   0  0  0  0  0  2  0  0  0  0  0  0
  157.5630  213.2170  140.1260 C   0  0  0  0  0  2  0  0  0  0  0  0
  159.3490  211.1310  139.4320 C   0  0  0  0  0  3  0  0  0  0  0  0
  158.4120  208.9870  137.7860 O   0  0  0  0  0  0  0  0  0  0  0  0
  157.5120  209.9590  138.1640 N   0  0  0  0  0  0  0  0  0  0  0  0
  156.3430  209.9140  137.7220 O   0  0  0  0  0  0  0  0  0  0  0  0
  162.8950  210.8020  139.9280 C   0  0  0  0  0  1  0  0  0  0  0  0
  161.8230  210.8020  140.8350 O   0  0  0  0  0  0  0  0  0  0  0  0
  1 27  1  6  0  0  0
  1 25  1  0  0  0  0
  2  5  1  0  0  0  0
  3  5  1  0  0  0  0
  4  3  1  0  0  0  0
  5 11  1  1  0  0  0
  6  1  1  1  0  0  0
  6  2  1  0  0  0  0
  7  4  2  0  0  0  0
  7  6  1  0  0  0  0
  8 10  2  0  0  0  0
  8  9  1  0  0  0  0
  9 12  1  0  0  0  0
 11  8  1  0  0  0  0
 12 13  1  0  0  0  0
 14 13  1  0  0  0  0
 15 17  1  0  0  0  0
 15 18  1  0  0  0  0
 17 20  1  0  0  0  0
 17 14  1  1  0  0  0
 18 21  1  6  0  0  0
 18 19  1  0  0  0  0
 19 16  1  0  0  0  0
 20 16  1  0  0  0  0
 21 23  1  0  0  0  0
 22 21  1  0  0  0  0
 22 23  1  0  0  0  0
 25 26  1  0  0  0  0
 25 24  1  0  0  0  0
 28 27  1  0  0  0  0
 29 28  1  0  0  0  0
 29 30  1  1  0  0  0
 31 32  2  0  0  0  0
 32 29  1  0  0  0  0
 33 32  1  0  0  0  0
 34 31  1  0  0  0  0
 35 33  2  0  0  0  0
 36 37  1  1  0  0  0
 36 34  1  0  0  0  0
 36 35  1  0  0  0  0
 38 39  1  0  0  0  0
 39 37  1  0  0  0  0
 40 39  1  0  0  0  0
 41 52  1  1  0  0  0
 41 39  1  0  0  0  0
 42 41  1  0  0  0  0
 42 45  1  0  0  0  0
 43 46  1  0  0  0  0
 44 43  2  0  0  0  0
 44 47  1  0  0  0  0
 46 45  1  0  0  0  0
 47 42  2  0  0  0  0
 48 49  2  0  0  0  0
 49 44  1  0  0  0  0
 50 49  2  0  0  0  0
 51 52  1  0  0  0  0
M  END
>  <MODEL>
4

>  <REMARK>
 VINA RESULT:      -5.9      4.772     11.120
  Name = 
  18 active torsions:
  status: ('A' for Active; 'I' for Inactive)
    1  A    between atoms: C_1  and  C_36
    2  A    between atoms: C_2  and  O_14
    3  A    between atoms: C_2  and  C_19
    4  A    between atoms: C_3  and  C_9
    5  A    between atoms: C_4  and  C_30
    6  A    between atoms: C_4  and  C_31
    7  A    between atoms: C_5  and  O_14
    8  A    between atoms: C_5  and  C_43
    9  A    between atoms: C_5  and  C_49
   10  A    between atoms: C_9  and  O_23
   11  A    between atoms: C_9  and  C_28
   12  A    between atoms: N_12  and  C_31
   13  A    between atoms: C_16  and  C_19
   14  A    between atoms: N_17  and  C_38
   15  A    between atoms: N_18  and  C_42
   16  A    between atoms: N_21  and  C_28
   17  A    between atoms: N_21  and  C_52
   18  A    between atoms: C_26  and  C_30
                            x       y       z     vdW  Elec       q    Type
                         _______ _______ _______ _____ _____    ______ ____

>  <TORSDO>
F 18

$$$$
=
 OpenBabel11072411333D

 52 56  0  0  1  0  0  0  0  0999 V2000
  161.0520  203.1910  148.4020 C   0  0  1  0  0  3  0  0  0  0  0  0
  160.7060  205.1330  146.7480 C   0  0  0  0  0  2  0  0  0  0  0  0
  162.6650  205.6540  145.2470 C   0  0  0  0  0  2  0  0  0  0  0  0
  163.4840  204.6120  145.9520 C   0  0  0  0  0  3  0  0  0  0  0  0
  161.6290  206.2400  146.2080 C   0  0  2  0  0  3  0  0  0  0  0  0
  161.4090  203.7850  147.0370 C   0  0  1  0  0  3  0  0  0  0  0  0
  162.8990  203.7580  146.7990 C   0  0  0  0  0  3  0  0  0  0  0  0
  161.7560  208.0520  147.9880 C   0  0  0  0  0  0  0  0  0  0  0  0
  162.4840  208.6370  149.0710 N   0  0  0  0  0  2  0  0  0  0  0  0
  160.6380  208.5270  147.6420 O   0  0  0  0  0  0  0  0  0  0  0  0
  162.3060  206.9250  147.3060 N   0  0  0  0  0  2  0  0  0  0  0  0
  161.9500  209.7230  149.8820 C   0  0  0  0  0  2  0  0  0  0  0  0
  162.6030  211.0330  149.4740 C   0  0  0  0  0  2  0  0  0  0  0  0
  161.9640  211.5810  148.2070 C   0  0  0  0  0  2  0  0  0  0  0  0
  162.4780  213.6260  146.8140 C   0  0  0  0  0  2  0  0  0  0  0  0
  159.6840  213.5650  147.3170 C   0  0  0  0  0  2  0  0  0  0  0  0
  162.0010  213.1070  148.1740 C   0  0  1  0  0  3  0  0  0  0  0  0
  161.3400  213.5300  145.7770 C   0  0  1  0  0  3  0  0  0  0  0  0
  160.2220  214.2620  146.2180 O   0  0  0  0  0  0  0  0  0  0  0  0
  160.6250  213.6830  148.5220 C   0  0  0  0  0  2  0  0  0  0  0  0
  161.7030  213.9380  144.3350 C   0  0  0  0  0  3  0  0  0  0  0  0
  162.7460  213.0010  143.7500 C   0  0  0  0  0  2  0  0  0  0  0  0
  161.3090  212.9170  143.2730 C   0  0  0  0  0  2  0  0  0  0  0  0
  160.7190  201.0730  149.7720 C   0  0  0  0  0  1  0  0  0  0  0  0
  161.2470  201.6680  148.4770 C   0  0  0  0  0  3  0  0  0  0  0  0
  160.5680  200.9990  147.3000 C   0  0  0  0  0  1  0  0  0  0  0  0
  161.7320  203.8740  149.4210 O   0  0  0  0  0  0  0  0  0  0  0  0
  160.7370  204.3920  150.2590 C   0  0  0  0  0  2  0  0  0  0  0  0
  161.1720  204.3330  151.7180 C   0  0  2  0  0  3  0  0  0  0  0  0
  160.2340  203.6020  152.4500 O   0  0  0  0  0  1  0  0  0  0  0  0
  160.8410  206.7840  151.6680 C   0  0  0  0  0  3  0  0  0  0  0  0
  161.3250  205.7040  152.3030 C   0  0  0  0  0  0  0  0  0  0  0  0
  162.0200  205.8610  153.5970 C   0  0  0  0  0  3  0  0  0  0  0  0
  161.0970  208.1660  152.2060 C   0  0  0  0  0  2  0  0  0  0  0  0
  161.9700  207.0220  154.2590 C   0  0  0  0  0  3  0  0  0  0  0  0
  161.1430  208.1740  153.7420 C   0  0  2  0  0  3  0  0  0  0  0  0
  159.7890  208.0950  154.2880 N   0  0  0  0  0  2  0  0  0  0  0  0
  158.7410  207.5240  156.2670 F   0  0  0  0  0  0  0  0  0  0  0  0
  159.8140  208.2240  155.7480 C   0  0  0  0  0  0  0  0  0  0  0  0
  160.9760  207.6620  156.2540 F   0  0  0  0  0  0  0  0  0  0  0  0
  159.7280  209.7090  156.1660 C   0  0  2  0  0  3  0  0  0  0  0  0
  158.7970  210.5870  155.3680 C   0  0  0  0  0  0  0  0  0  0  0  0
  157.2270  212.4920  153.9740 C   0  0  0  0  0  3  0  0  0  0  0  0
  158.3900  212.0720  153.4570 C   0  0  0  0  0  0  0  0  0  0  0  0
  157.3450  210.7390  155.7460 C   0  0  0  0  0  2  0  0  0  0  0  0
  156.8420  212.1370  155.3840 C   0  0  0  0  0  2  0  0  0  0  0  0
  159.2540  211.1730  154.2540 C   0  0  0  0  0  3  0  0  0  0  0  0
  160.1150  212.8240  151.9090 O   0  0  0  0  0  0  0  0  0  0  0  0
  158.8030  212.4760  152.1430 N   0  0  0  0  0  0  0  0  0  0  0  0
  157.9660  212.5940  151.2220 O   0  0  0  0  0  0  0  0  0  0  0  0
  160.7120  211.5880  157.0390 C   0  0  0  0  0  1  0  0  0  0  0  0
  160.9610  210.3160  156.5000 O   0  0  0  0  0  0  0  0  0  0  0  0
  1 25  1  6  0  0  0
  1 27  1  0  0  0  0
  2  6  1  0  0  0  0
  3  4  1  0  0  0  0
  3  5  1  0  0  0  0
  4  7  2  0  0  0  0
  5  2  1  0  0  0  0
  5 11  1  1  0  0  0
  6  1  1  1  0  0  0
  7  6  1  0  0  0  0
  8  9  1  0  0  0  0
  9 12  1  0  0  0  0
 10  8  2  0  0  0  0
 11  8  1  0  0  0  0
 13 12  1  0  0  0  0
 14 13  1  0  0  0  0
 15 17  1  0  0  0  0
 16 20  1  0  0  0  0
 17 14  1  6  0  0  0
 17 20  1  0  0  0  0
 18 21  1  6  0  0  0
 18 19  1  0  0  0  0
 18 15  1  0  0  0  0
 19 16  1  0  0  0  0
 22 21  1  0  0  0  0
 23 22  1  0  0  0  0
 23 21  1  0  0  0  0
 25 24  1  0  0  0  0
 26 25  1  0  0  0  0
 27 28  1  0  0  0  0
 28 29  1  0  0  0  0
 29 32  1  0  0  0  0
 29 30  1  1  0  0  0
 31 34  1  0  0  0  0
 31 32  2  0  0  0  0
 32 33  1  0  0  0  0
 33 35  2  0  0  0  0
 34 36  1  0  0  0  0
 36 35  1  0  0  0  0
 36 37  1  1  0  0  0
 37 39  1  0  0  0  0
 39 41  1  0  0  0  0
 39 40  1  0  0  0  0
 39 38  1  0  0  0  0
 41 52  1  6  0  0  0
 42 45  1  0  0  0  0
 42 41  1  0  0  0  0
 43 46  1  0  0  0  0
 44 43  2  0  0  0  0
 44 47  1  0  0  0  0
 46 45  1  0  0  0  0
 47 42  2  0  0  0  0
 48 49  2  0  0  0  0
 49 44  1  0  0  0  0
 50 49  2  0  0  0  0
 52 51  1  0  0  0  0
M  END
>  <MODEL>
5

>  <REMARK>
 VINA RESULT:      -5.6      1.745      2.209
  Name = 
  18 active torsions:
  status: ('A' for Active; 'I' for Inactive)
    1  A    between atoms: C_1  and  C_36
    2  A    between atoms: C_2  and  O_14
    3  A    between atoms: C_2  and  C_19
    4  A    between atoms: C_3  and  C_9
    5  A    between atoms: C_4  and  C_30
    6  A    between atoms: C_4  and  C_31
    7  A    between atoms: C_5  and  O_14
    8  A    between atoms: C_5  and  C_43
    9  A    between atoms: C_5  and  C_49
   10  A    between atoms: C_9  and  O_23
   11  A    between atoms: C_9  and  C_28
   12  A    between atoms: N_12  and  C_31
   13  A    between atoms: C_16  and  C_19
   14  A    between atoms: N_17  and  C_38
   15  A    between atoms: N_18  and  C_42
   16  A    between atoms: N_21  and  C_28
   17  A    between atoms: N_21  and  C_52
   18  A    between atoms: C_26  and  C_30
                            x       y       z     vdW  Elec       q    Type
                         _______ _______ _______ _____ _____    ______ ____

>  <TORSDO>
F 18

$$$$
=
 OpenBabel11072411333D

 52 56  0  0  1  0  0  0  0  0999 V2000
  162.0440  210.5330  149.5750 C   0  0  1  0  0  3  0  0  0  0  0  0
  162.9450  212.6100  148.3500 C   0  0  0  0  0  2  0  0  0  0  0  0
  161.2700  214.4500  147.9390 C   0  0  0  0  0  2  0  0  0  0  0  0
  160.1840  213.5950  148.5270 C   0  0  0  0  0  3  0  0  0  0  0  0
  162.3440  213.5650  147.3040 C   0  0  2  0  0  3  0  0  0  0  0  0
  161.9300  212.0460  149.3740 C   0  0  1  0  0  3  0  0  0  0  0  0
  160.4950  212.4680  149.1750 C   0  0  0  0  0  3  0  0  0  0  0  0
  161.9080  213.1980  144.8250 C   0  0  0  0  0  0  0  0  0  0  0  0
  161.3310  212.3780  143.8060 N   0  0  0  0  0  2  0  0  0  0  0  0
  162.5370  214.2490  144.5180 O   0  0  0  0  0  0  0  0  0  0  0  0
  161.7680  212.8120  146.1920 N   0  0  0  0  0  2  0  0  0  0  0  0
  161.5130  212.6450  142.3860 C   0  0  0  0  0  2  0  0  0  0  0  0
  160.9380  214.0100  142.0450 C   0  0  0  0  0  2  0  0  0  0  0  0
  159.4890  213.8890  141.6000 C   0  0  0  0  0  2  0  0  0  0  0  0
  160.2740  213.2450  139.2870 C   0  0  0  0  0  2  0  0  0  0  0  0
  157.5660  212.4410  139.5680 C   0  0  0  0  0  2  0  0  0  0  0  0
  159.3370  214.1410  140.1020 C   0  0  1  0  0  3  0  0  0  0  0  0
  159.7080  211.8130  139.2060 C   0  0  1  0  0  3  0  0  0  0  0  0
  158.4240  211.8330  138.6310 O   0  0  0  0  0  0  0  0  0  0  0  0
  157.8820  213.9380  139.6710 C   0  0  0  0  0  2  0  0  0  0  0  0
  160.5920  210.7750  138.4850 C   0  0  0  0  0  3  0  0  0  0  0  0
  161.6730  210.2450  139.4110 C   0  0  0  0  0  2  0  0  0  0  0  0
  160.4940  209.3630  139.0500 C   0  0  0  0  0  2  0  0  0  0  0  0
  162.9440  208.4200  148.4800 C   0  0  0  0  0  1  0  0  0  0  0  0
  162.2490  209.7540  148.2650 C   0  0  0  0  0  3  0  0  0  0  0  0
  160.9160  209.5260  147.5840 C   0  0  0  0  0  1  0  0  0  0  0  0
  163.0250  210.2440  150.5360 O   0  0  0  0  0  0  0  0  0  0  0  0
  162.3500  210.1910  151.7620 C   0  0  0  0  0  2  0  0  0  0  0  0
  161.1550  209.2490  151.6820 C   0  0  2  0  0  3  0  0  0  0  0  0
  160.0940  209.7860  152.4130 O   0  0  0  0  0  1  0  0  0  0  0  0
  160.7840  207.3220  153.1890 C   0  0  0  0  0  3  0  0  0  0  0  0
  161.4950  207.8840  152.1990 C   0  0  0  0  0  0  0  0  0  0  0  0
  162.6330  207.1520  151.6040 C   0  0  0  0  0  3  0  0  0  0  0  0
  161.2010  206.0010  153.7760 C   0  0  0  0  0  2  0  0  0  0  0  0
  162.8190  205.8540  151.8680 C   0  0  0  0  0  3  0  0  0  0  0  0
  161.8360  205.0870  152.7160 C   0  0  2  0  0  3  0  0  0  0  0  0
  160.7990  204.5040  151.8660 N   0  0  0  0  0  2  0  0  0  0  0  0
  162.3600  202.8110  152.0600 F   0  0  0  0  0  0  0  0  0  0  0  0
  161.0880  203.0920  151.5960 C   0  0  0  0  0  0  0  0  0  0  0  0
  160.1940  202.2850  152.2820 F   0  0  0  0  0  0  0  0  0  0  0  0
  161.0010  202.7970  150.0820 C   0  0  2  0  0  3  0  0  0  0  0  0
  160.8020  203.9810  149.1690 C   0  0  0  0  0  0  0  0  0  0  0  0
  160.7490  206.2700  147.4970 C   0  0  0  0  0  3  0  0  0  0  0  0
  161.1990  205.1010  147.0220 C   0  0  0  0  0  0  0  0  0  0  0  0
  159.9400  205.1490  149.5750 C   0  0  0  0  0  2  0  0  0  0  0  0
  160.4750  206.4460  148.9670 C   0  0  0  0  0  2  0  0  0  0  0  0
  161.3360  203.9500  147.9410 C   0  0  0  0  0  3  0  0  0  0  0  0
  161.0360  205.8270  144.7020 O   0  0  0  0  0  0  0  0  0  0  0  0
  161.5430  204.9510  145.6360 N   0  0  0  0  0  0  0  0  0  0  0  0
  162.2350  203.9830  145.2540 O   0  0  0  0  0  0  0  0  0  0  0  0
  161.0980  200.7070  149.1430 C   0  0  0  0  0  1  0  0  0  0  0  0
  160.2450  201.6540  149.7320 O   0  0  0  0  0  0  0  0  0  0  0  0
  1 25  1  6  0  0  0
  1 27  1  0  0  0  0
  2  6  1  0  0  0  0
  3  4  1  0  0  0  0
  4  7  2  0  0  0  0
  5 11  1  6  0  0  0
  5  3  1  0  0  0  0
  5  2  1  0  0  0  0
  6  1  1  6  0  0  0
  7  6  1  0  0  0  0
  8 11  1  0  0  0  0
  9  8  1  0  0  0  0
 10  8  2  0  0  0  0
 12  9  1  0  0  0  0
 13 12  1  0  0  0  0
 14 13  1  0  0  0  0
 15 17  1  0  0  0  0
 16 20  1  0  0  0  0
 17 14  1  1  0  0  0
 18 21  1  6  0  0  0
 18 15  1  0  0  0  0
 19 18  1  0  0  0  0
 19 16  1  0  0  0  0
 20 17  1  0  0  0  0
 21 23  1  0  0  0  0
 21 22  1  0  0  0  0
 23 22  1  0  0  0  0
 25 24  1  0  0  0  0
 26 25  1  0  0  0  0
 27 28  1  0  0  0  0
 29 28  1  0  0  0  0
 29 32  1  0  0  0  0
 29 30  1  1  0  0  0
 31 34  1  0  0  0  0
 32 31  2  0  0  0  0
 33 35  2  0  0  0  0
 33 32  1  0  0  0  0
 35 36  1  0  0  0  0
 36 37  1  6  0  0  0
 36 34  1  0  0  0  0
 39 37  1  0  0  0  0
 39 38  1  0  0  0  0
 39 40  1  0  0  0  0
 41 52  1  1  0  0  0
 41 39  1  0  0  0  0
 42 45  1  0  0  0  0
 42 41  1  0  0  0  0
 43 46  1  0  0  0  0
 44 43  2  0  0  0  0
 44 47  1  0  0  0  0
 46 45  1  0  0  0  0
 47 42  2  0  0  0  0
 48 49  2  0  0  0  0
 49 44  1  0  0  0  0
 50 49  2  0  0  0  0
 51 52  1  0  0  0  0
M  END
>  <MODEL>
6

>  <REMARK>
 VINA RESULT:      -5.3      3.726      8.476
  Name = 
  18 active torsions:
  status: ('A' for Active; 'I' for Inactive)
    1  A    between atoms: C_1  and  C_36
    2  A    between atoms: C_2  and  O_14
    3  A    between atoms: C_2  and  C_19
    4  A    between atoms: C_3  and  C_9
    5  A    between atoms: C_4  and  C_30
    6  A    between atoms: C_4  and  C_31
    7  A    between atoms: C_5  and  O_14
    8  A    between atoms: C_5  and  C_43
    9  A    between atoms: C_5  and  C_49
   10  A    between atoms: C_9  and  O_23
   11  A    between atoms: C_9  and  C_28
   12  A    between atoms: N_12  and  C_31
   13  A    between atoms: C_16  and  C_19
   14  A    between atoms: N_17  and  C_38
   15  A    between atoms: N_18  and  C_42
   16  A    between atoms: N_21  and  C_28
   17  A    between atoms: N_21  and  C_52
   18  A    between atoms: C_26  and  C_30
                            x       y       z     vdW  Elec       q    Type
                         _______ _______ _______ _____ _____    ______ ____

>  <TORSDO>
F 18

$$$$
=
 OpenBabel11072411333D

 52 56  0  0  1  0  0  0  0  0999 V2000
  161.5810  209.3120  149.8040 C   0  0  1  0  0  3  0  0  0  0  0  0
  162.8090  211.1720  148.5160 C   0  0  0  0  0  2  0  0  0  0  0  0
  161.9310  213.5100  148.8680 C   0  0  0  0  0  2  0  0  0  0  0  0
  160.8240  212.9660  149.7250 C   0  0  0  0  0  3  0  0  0  0  0  0
  162.3440  212.4670  147.8270 C   0  0  2  0  0  3  0  0  0  0  0  0
  162.0050  210.7820  149.7800 C   0  0  1  0  0  3  0  0  0  0  0  0
  160.8530  211.6920  150.1290 C   0  0  0  0  0  3  0  0  0  0  0  0
  161.0370  212.8660  145.6820 C   0  0  0  0  0  0  0  0  0  0  0  0
  159.9240  212.5100  144.8580 N   0  0  0  0  0  2  0  0  0  0  0  0
  161.8480  213.7590  145.3080 O   0  0  0  0  0  0  0  0  0  0  0  0
  161.2240  212.1960  146.9290 N   0  0  0  0  0  2  0  0  0  0  0  0
  159.7180  213.0710  143.5300 C   0  0  0  0  0  2  0  0  0  0  0  0
  159.7170  211.9550  142.4980 C   0  0  0  0  0  2  0  0  0  0  0  0
  159.3200  212.4870  141.1300 C   0  0  0  0  0  2  0  0  0  0  0  0
  159.0580  210.6750  139.3890 C   0  0  0  0  0  2  0  0  0  0  0  0
  159.3700  213.1620  138.0530 C   0  0  0  0  0  2  0  0  0  0  0  0
  160.0010  211.7120  140.0060 C   0  0  1  0  0  3  0  0  0  0  0  0
  158.0530  211.3640  138.4420 C   0  0  1  0  0  3  0  0  0  0  0  0
  158.7420  212.0640  137.4340 O   0  0  0  0  0  0  0  0  0  0  0  0
  160.5260  212.6730  138.9350 C   0  0  0  0  0  2  0  0  0  0  0  0
  156.9820  210.4520  137.8120 C   0  0  0  0  0  3  0  0  0  0  0  0
  156.3240  209.5780  138.8660 C   0  0  0  0  0  2  0  0  0  0  0  0
  155.5580  210.7440  138.2710 C   0  0  0  0  0  2  0  0  0  0  0  0
  163.3700  207.6780  149.0270 C   0  0  0  0  0  1  0  0  0  0  0  0
  162.1490  208.4910  148.6340 C   0  0  0  0  0  3  0  0  0  0  0  0
  161.0820  207.5680  148.0820 C   0  0  0  0  0  1  0  0  0  0  0  0
  161.8710  208.7440  151.0530 O   0  0  0  0  0  0  0  0  0  0  0  0
  160.6460  208.2870  151.5550 C   0  0  0  0  0  2  0  0  0  0  0  0
  160.8540  207.4340  152.8000 C   0  0  2  0  0  3  0  0  0  0  0  0
  161.9020  207.9650  153.5530 O   0  0  0  0  0  1  0  0  0  0  0  0
  160.4620  205.0000  153.0120 C   0  0  0  0  0  3  0  0  0  0  0  0
  161.1460  206.0070  152.4460 C   0  0  0  0  0  0  0  0  0  0  0  0
  162.2050  205.7130  151.4590 C   0  0  0  0  0  3  0  0  0  0  0  0
  160.8370  203.5690  152.7360 C   0  0  0  0  0  2  0  0  0  0  0  0
  162.3340  204.4840  150.9460 C   0  0  0  0  0  3  0  0  0  0  0  0
  161.3590  203.3890  151.3010 C   0  0  2  0  0  3  0  0  0  0  0  0
  160.2440  203.3930  150.3550 N   0  0  0  0  0  2  0  0  0  0  0  0
  160.1940  201.0960  150.5990 F   0  0  0  0  0  0  0  0  0  0  0  0
  160.1570  202.1070  149.6570 C   0  0  0  0  0  0  0  0  0  0  0  0
  158.9520  202.0160  148.9780 F   0  0  0  0  0  0  0  0  0  0  0  0
  161.3290  201.9450  148.6630 C   0  0  2  0  0  3  0  0  0  0  0  0
  161.0850  202.3940  147.2450 C   0  0  0  0  0  0  0  0  0  0  0  0
  160.3660  203.4060  144.6960 C   0  0  0  0  0  3  0  0  0  0  0  0
  161.0620  204.1690  145.5490 C   0  0  0  0  0  0  0  0  0  0  0  0
  160.6730  201.4180  146.1720 C   0  0  0  0  0  2  0  0  0  0  0  0
  159.7680  202.1010  145.1460 C   0  0  0  0  0  2  0  0  0  0  0  0
  161.3220  203.6710  146.9190 C   0  0  0  0  0  3  0  0  0  0  0  0
  160.8260  206.2490  144.3030 O   0  0  0  0  0  0  0  0  0  0  0  0
  161.5640  205.4530  145.1510 N   0  0  0  0  0  0  0  0  0  0  0  0
  162.7040  205.8270  145.5030 O   0  0  0  0  0  0  0  0  0  0  0  0
  161.5800  199.8270  147.8190 C   0  0  0  0  0  1  0  0  0  0  0  0
  162.0560  200.7370  148.7780 O   0  0  0  0  0  0  0  0  0  0  0  0
  1 25  1  6  0  0  0
  1 27  1  0  0  0  0
  2  6  1  0  0  0  0
  3  4  1  0  0  0  0
  4  7  2  0  0  0  0
  5 11  1  6  0  0  0
  5  2  1  0  0  0  0
  5  3  1  0  0  0  0
  6  1  1  6  0  0  0
  6  7  1  0  0  0  0
  8 11  1  0  0  0  0
  9  8  1  0  0  0  0
 10  8  2  0  0  0  0
 12  9  1  0  0  0  0
 13 12  1  0  0  0  0
 14 13  1  0  0  0  0
 15 17  1  0  0  0  0
 16 20  1  0  0  0  0
 17 14  1  1  0  0  0
 18 21  1  6  0  0  0
 18 15  1  0  0  0  0
 19 16  1  0  0  0  0
 19 18  1  0  0  0  0
 20 17  1  0  0  0  0
 21 23  1  0  0  0  0
 21 22  1  0  0  0  0
 23 22  1  0  0  0  0
 25 24  1  0  0  0  0
 26 25  1  0  0  0  0
 27 28  1  0  0  0  0
 28 29  1  0  0  0  0
 29 30  1  6  0  0  0
 32 29  1  0  0  0  0
 32 31  2  0  0  0  0
 33 32  1  0  0  0  0
 34 31  1  0  0  0  0
 35 36  1  0  0  0  0
 35 33  2  0  0  0  0
 36 37  1  6  0  0  0
 36 34  1  0  0  0  0
 39 37  1  0  0  0  0
 39 38  1  0  0  0  0
 40 39  1  0  0  0  0
 41 52  1  6  0  0  0
 41 39  1  0  0  0  0
 42 41  1  0  0  0  0
 43 46  1  0  0  0  0
 43 44  2  0  0  0  0
 44 47  1  0  0  0  0
 45 42  1  0  0  0  0
 46 45  1  0  0  0  0
 47 42  2  0  0  0  0
 48 49  2  0  0  0  0
 49 50  2  0  0  0  0
 49 44  1  0  0  0  0
 51 52  1  0  0  0  0
M  END
>  <MODEL>
7

>  <REMARK>
 VINA RESULT:      -5.2      4.243      9.260
  Name = 
  18 active torsions:
  status: ('A' for Active; 'I' for Inactive)
    1  A    between atoms: C_1  and  C_36
    2  A    between atoms: C_2  and  O_14
    3  A    between atoms: C_2  and  C_19
    4  A    between atoms: C_3  and  C_9
    5  A    between atoms: C_4  and  C_30
    6  A    between atoms: C_4  and  C_31
    7  A    between atoms: C_5  and  O_14
    8  A    between atoms: C_5  and  C_43
    9  A    between atoms: C_5  and  C_49
   10  A    between atoms: C_9  and  O_23
   11  A    between atoms: C_9  and  C_28
   12  A    between atoms: N_12  and  C_31
   13  A    between atoms: C_16  and  C_19
   14  A    between atoms: N_17  and  C_38
   15  A    between atoms: N_18  and  C_42
   16  A    between atoms: N_21  and  C_28
   17  A    between atoms: N_21  and  C_52
   18  A    between atoms: C_26  and  C_30
                            x       y       z     vdW  Elec       q    Type
                         _______ _______ _______ _____ _____    ______ ____

>  <TORSDO>
F 18

$$$$
=
 OpenBabel11072411333D

 52 56  0  0  1  0  0  0  0  0999 V2000
  161.5880  210.2410  149.8090 C   0  0  1  0  0  3  0  0  0  0  0  0
  162.8770  211.9600  148.3920 C   0  0  0  0  0  2  0  0  0  0  0  0
  161.8930  214.2810  148.3240 C   0  0  0  0  0  2  0  0  0  0  0  0
  160.7250  213.8110  149.1420 C   0  0  0  0  0  3  0  0  0  0  0  0
  162.4410  213.1240  147.4850 C   0  0  2  0  0  3  0  0  0  0  0  0
  161.9640  211.7120  149.6170 C   0  0  1  0  0  3  0  0  0  0  0  0
  160.7540  212.6070  149.7240 C   0  0  0  0  0  3  0  0  0  0  0  0
  161.4090  213.0770  145.1620 C   0  0  0  0  0  0  0  0  0  0  0  0
  160.3880  212.5660  144.3010 N   0  0  0  0  0  2  0  0  0  0  0  0
  162.2860  213.8660  144.7120 O   0  0  0  0  0  0  0  0  0  0  0  0
  161.4260  212.6810  146.5330 N   0  0  0  0  0  2  0  0  0  0  0  0
  160.3570  212.8390  142.8700 C   0  0  0  0  0  2  0  0  0  0  0  0
  161.2480  211.8470  142.1410 C   0  0  0  0  0  2  0  0  0  0  0  0
  161.2120  212.0920  140.6410 C   0  0  0  0  0  2  0  0  0  0  0  0
  162.7290  210.4050  139.5300 C   0  0  0  0  0  2  0  0  0  0  0  0
  162.0080  212.3630  137.6040 C   0  0  0  0  0  2  0  0  0  0  0  0
  162.5760  211.8540  139.9990 C   0  0  1  0  0  3  0  0  0  0  0  0
  161.9570  210.1850  138.2120 C   0  0  1  0  0  3  0  0  0  0  0  0
  162.4250  211.0730  137.2260 O   0  0  0  0  0  0  0  0  0  0  0  0
  162.7960  212.8260  138.8350 C   0  0  0  0  0  2  0  0  0  0  0  0
  161.9500  208.7440  137.6640 C   0  0  0  0  0  3  0  0  0  0  0  0
  161.4630  207.7640  138.7180 C   0  0  0  0  0  2  0  0  0  0  0  0
  160.5640  208.1200  137.5500 C   0  0  0  0  0  2  0  0  0  0  0  0
  162.3410  207.8910  149.1890 C   0  0  0  0  0  1  0  0  0  0  0  0
  162.1380  209.3180  148.7090 C   0  0  0  0  0  3  0  0  0  0  0  0
  161.2060  209.3220  147.5150 C   0  0  0  0  0  1  0  0  0  0  0  0
  161.9410  209.8150  151.0980 O   0  0  0  0  0  0  0  0  0  0  0  0
  160.7330  209.5210  151.7440 C   0  0  0  0  0  2  0  0  0  0  0  0
  160.9860  208.8290  153.0780 C   0  0  2  0  0  3  0  0  0  0  0  0
  161.9940  209.5060  153.7660 O   0  0  0  0  0  1  0  0  0  0  0  0
  160.5190  206.4030  153.2100 C   0  0  0  0  0  3  0  0  0  0  0  0
  161.3680  207.3920  152.8880 C   0  0  0  0  0  0  0  0  0  0  0  0
  162.7000  207.0690  152.3370 C   0  0  0  0  0  3  0  0  0  0  0  0
  160.9520  204.9640  153.1210 C   0  0  0  0  0  2  0  0  0  0  0  0
  162.9860  205.8250  151.9350 C   0  0  0  0  0  3  0  0  0  0  0  0
  161.9370  204.7410  151.9620 C   0  0  2  0  0  3  0  0  0  0  0  0
  161.2190  204.7170  150.6880 N   0  0  0  0  0  2  0  0  0  0  0  0
  160.3410  202.8510  151.7310 F   0  0  0  0  0  0  0  0  0  0  0  0
  160.5650  203.4200  150.4910 C   0  0  0  0  0  0  0  0  0  0  0  0
  159.3360  203.5980  149.8750 F   0  0  0  0  0  0  0  0  0  0  0  0
  161.4490  202.4870  149.6340 C   0  0  2  0  0  3  0  0  0  0  0  0
  161.3370  202.6310  148.1380 C   0  0  0  0  0  0  0  0  0  0  0  0
  160.8260  203.0240  145.3760 C   0  0  0  0  0  3  0  0  0  0  0  0
  161.2230  204.0520  146.1400 C   0  0  0  0  0  0  0  0  0  0  0  0
  161.2910  201.4250  147.2340 C   0  0  0  0  0  2  0  0  0  0  0  0
  160.4350  201.7120  146.0010 C   0  0  0  0  0  2  0  0  0  0  0  0
  161.3660  203.8570  147.6000 C   0  0  0  0  0  3  0  0  0  0  0  0
  162.3590  206.2060  146.2090 O   0  0  0  0  0  0  0  0  0  0  0  0
  161.5170  205.3310  145.5600 N   0  0  0  0  0  0  0  0  0  0  0  0
  160.9520  205.6960  144.5050 O   0  0  0  0  0  0  0  0  0  0  0  0
  160.2420  200.6020  150.1370 C   0  0  0  0  0  1  0  0  0  0  0  0
  161.5340  201.1500  150.0890 O   0  0  0  0  0  0  0  0  0  0  0  0
  1 25  1  6  0  0  0
  1 27  1  0  0  0  0
  2  6  1  0  0  0  0
  3  4  1  0  0  0  0
  4  7  2  0  0  0  0
  5 11  1  6  0  0  0
  5  3  1  0  0  0  0
  5  2  1  0  0  0  0
  6  7  1  0  0  0  0
  6  1  1  6  0  0  0
  8 11  1  0  0  0  0
  9  8  1  0  0  0  0
 10  8  2  0  0  0  0
 12  9  1  0  0  0  0
 13 12  1  0  0  0  0
 14 13  1  0  0  0  0
 15 17  1  0  0  0  0
 16 20  1  0  0  0  0
 17 14  1  6  0  0  0
 18 21  1  6  0  0  0
 18 15  1  0  0  0  0
 19 16  1  0  0  0  0
 19 18  1  0  0  0  0
 20 17  1  0  0  0  0
 21 22  1  0  0  0  0
 23 21  1  0  0  0  0
 23 22  1  0  0  0  0
 25 24  1  0  0  0  0
 26 25  1  0  0  0  0
 27 28  1  0  0  0  0
 28 29  1  0  0  0  0
 29 30  1  6  0  0  0
 32 29  1  0  0  0  0
 32 31  2  0  0  0  0
 33 32  1  0  0  0  0
 34 31  1  0  0  0  0
 35 36  1  0  0  0  0
 35 33  2  0  0  0  0
 36 37  1  6  0  0  0
 36 34  1  0  0  0  0
 39 37  1  0  0  0  0
 39 38  1  0  0  0  0
 40 39  1  0  0  0  0
 41 52  1  6  0  0  0
 41 39  1  0  0  0  0
 42 41  1  0  0  0  0
 43 46  1  0  0  0  0
 43 44  2  0  0  0  0
 44 47  1  0  0  0  0
 45 42  1  0  0  0  0
 46 45  1  0  0  0  0
 47 42  2  0  0  0  0
 49 44  1  0  0  0  0
 49 48  2  0  0  0  0
 50 49  2  0  0  0  0
 52 51  1  0  0  0  0
M  END
>  <MODEL>
8

>  <REMARK>
 VINA RESULT:      -5.2      3.845      9.041
  Name = 
  18 active torsions:
  status: ('A' for Active; 'I' for Inactive)
    1  A    between atoms: C_1  and  C_36
    2  A    between atoms: C_2  and  O_14
    3  A    between atoms: C_2  and  C_19
    4  A    between atoms: C_3  and  C_9
    5  A    between atoms: C_4  and  C_30
    6  A    between atoms: C_4  and  C_31
    7  A    between atoms: C_5  and  O_14
    8  A    between atoms: C_5  and  C_43
    9  A    between atoms: C_5  and  C_49
   10  A    between atoms: C_9  and  O_23
   11  A    between atoms: C_9  and  C_28
   12  A    between atoms: N_12  and  C_31
   13  A    between atoms: C_16  and  C_19
   14  A    between atoms: N_17  and  C_38
   15  A    between atoms: N_18  and  C_42
   16  A    between atoms: N_21  and  C_28
   17  A    between atoms: N_21  and  C_52
   18  A    between atoms: C_26  and  C_30
                            x       y       z     vdW  Elec       q    Type
                         _______ _______ _______ _____ _____    ______ ____

>  <TORSDO>
F 18

$$$$
=
 OpenBabel11072411333D

 52 56  0  0  1  0  0  0  0  0999 V2000
  160.5570  211.3560  155.0830 C   0  0  1  0  0  3  0  0  0  0  0  0
  159.0420  213.4300  155.2530 C   0  0  0  0  0  2  0  0  0  0  0  0
  156.5610  212.9800  155.2120 C   0  0  0  0  0  2  0  0  0  0  0  0
  156.8290  211.5190  154.9920 C   0  0  0  0  0  3  0  0  0  0  0  0
  157.6960  213.8130  154.6130 C   0  0  2  0  0  3  0  0  0  0  0  0
  159.2150  211.9210  155.5520 C   0  0  1  0  0  3  0  0  0  0  0  0
  158.0680  211.0350  155.1310 C   0  0  0  0  0  3  0  0  0  0  0  0
  156.6610  213.9460  152.2940 C   0  0  0  0  0  0  0  0  0  0  0  0
  156.8130  213.7440  150.8870 N   0  0  0  0  0  2  0  0  0  0  0  0
  155.5840  214.4140  152.7580 O   0  0  0  0  0  0  0  0  0  0  0  0
  157.7420  213.6180  153.1660 N   0  0  0  0  0  2  0  0  0  0  0  0
  155.8000  214.1460  149.9210 C   0  0  0  0  0  2  0  0  0  0  0  0
  156.4590  214.4520  148.5860 C   0  0  0  0  0  2  0  0  0  0  0  0
  157.6090  213.4930  148.3210 C   0  0  0  0  0  2  0  0  0  0  0  0
  160.0830  213.9990  148.3970 C   0  0  0  0  0  2  0  0  0  0  0  0
  159.5840  212.3110  146.1690 C   0  0  0  0  0  2  0  0  0  0  0  0
  158.7750  214.1920  147.6260 C   0  0  1  0  0  3  0  0  0  0  0  0
  160.6480  212.5860  148.1460 C   0  0  1  0  0  3  0  0  0  0  0  0
  160.8560  212.3870  146.7680 O   0  0  0  0  0  0  0  0  0  0  0  0
  158.9160  213.6910  146.1850 C   0  0  0  0  0  2  0  0  0  0  0  0
  161.9240  212.2180  148.9300 C   0  0  0  0  0  3  0  0  0  0  0  0
  162.3910  210.8150  148.5800 C   0  0  0  0  0  2  0  0  0  0  0  0
  163.1600  212.0150  148.0620 C   0  0  0  0  0  2  0  0  0  0  0  0
  161.6860  212.1160  157.2330 C   0  0  0  0  0  1  0  0  0  0  0  0
  161.5020  210.9830  156.2380 C   0  0  0  0  0  3  0  0  0  0  0  0
  160.9830  209.7570  156.9580 C   0  0  0  0  0  1  0  0  0  0  0  0
  160.3510  210.2950  154.1890 O   0  0  0  0  0  0  0  0  0  0  0  0
  161.4950  210.2510  153.3830 C   0  0  0  0  0  2  0  0  0  0  0  0
  161.1870  209.5990  152.0400 C   0  0  2  0  0  3  0  0  0  0  0  0
  159.8060  209.5750  151.8440 O   0  0  0  0  0  1  0  0  0  0  0  0
  161.9210  207.4750  153.0760 C   0  0  0  0  0  3  0  0  0  0  0  0
  161.7410  208.2080  151.9660 C   0  0  0  0  0  0  0  0  0  0  0  0
  162.0920  207.6430  150.6460 C   0  0  0  0  0  3  0  0  0  0  0  0
  162.5800  206.1240  153.0030 C   0  0  0  0  0  2  0  0  0  0  0  0
  162.3610  206.3400  150.5150 C   0  0  0  0  0  3  0  0  0  0  0  0
  162.2410  205.4010  151.6900 C   0  0  2  0  0  3  0  0  0  0  0  0
  160.8860  204.8560  151.7500 N   0  0  0  0  0  2  0  0  0  0  0  0
  159.1260  204.0090  150.5140 F   0  0  0  0  0  0  0  0  0  0  0  0
  160.4230  204.4780  150.4120 C   0  0  0  0  0  0  0  0  0  0  0  0
  160.4120  205.5880  149.5820 F   0  0  0  0  0  0  0  0  0  0  0  0
  161.3330  203.3840  149.8080 C   0  0  2  0  0  3  0  0  0  0  0  0
  161.3310  203.2510  148.3070 C   0  0  0  0  0  0  0  0  0  0  0  0
  161.0010  203.0530  145.4970 C   0  0  0  0  0  3  0  0  0  0  0  0
  161.0780  204.2560  146.0820 C   0  0  0  0  0  0  0  0  0  0  0  0
  161.6470  201.9390  147.6350 C   0  0  0  0  0  2  0  0  0  0  0  0
  160.8660  201.8050  146.3270 C   0  0  0  0  0  2  0  0  0  0  0  0
  161.1260  204.3420  147.5580 C   0  0  0  0  0  3  0  0  0  0  0  0
  162.1500  205.6590  144.4030 O   0  0  0  0  0  0  0  0  0  0  0  0
  161.1220  205.4570  145.2970 N   0  0  0  0  0  0  0  0  0  0  0  0
  160.2770  206.3620  145.4720 O   0  0  0  0  0  0  0  0  0  0  0  0
  160.2110  201.4090  150.1290 C   0  0  0  0  0  1  0  0  0  0  0  0
  161.3410  202.1530  150.5050 O   0  0  0  0  0  0  0  0  0  0  0  0
  1 27  1  1  0  0  0
  1 25  1  0  0  0  0
  2  6  1  0  0  0  0
  4  7  2  0  0  0  0
  4  3  1  0  0  0  0
  5 11  1  6  0  0  0
  5  3  1  0  0  0  0
  5  2  1  0  0  0  0
  6  1  1  6  0  0  0
  7  6  1  0  0  0  0
  8 10  2  0  0  0  0
  8 11  1  0  0  0  0
  9  8  1  0  0  0  0
 12  9  1  0  0  0  0
 13 12  1  0  0  0  0
 14 13  1  0  0  0  0
 16 20  1  0  0  0  0
 16 19  1  0  0  0  0
 17 14  1  1  0  0  0
 17 15  1  0  0  0  0
 18 15  1  0  0  0  0
 18 21  1  1  0  0  0
 19 18  1  0  0  0  0
 20 17  1  0  0  0  0
 22 21  1  0  0  0  0
 23 22  1  0  0  0  0
 23 21  1  0  0  0  0
 25 26  1  0  0  0  0
 25 24  1  0  0  0  0
 28 27  1  0  0  0  0
 29 30  1  1  0  0  0
 29 28  1  0  0  0  0
 32 29  1  0  0  0  0
 32 31  2  0  0  0  0
 33 32  1  0  0  0  0
 34 31  1  0  0  0  0
 35 33  2  0  0  0  0
 35 36  1  0  0  0  0
 36 37  1  1  0  0  0
 36 34  1  0  0  0  0
 39 38  1  0  0  0  0
 39 37  1  0  0  0  0
 40 39  1  0  0  0  0
 41 39  1  0  0  0  0
 41 52  1  1  0  0  0
 42 41  1  0  0  0  0
 43 44  2  0  0  0  0
 43 46  1  0  0  0  0
 44 47  1  0  0  0  0
 45 42  1  0  0  0  0
 46 45  1  0  0  0  0
 47 42  2  0  0  0  0
 48 49  2  0  0  0  0
 49 50  2  0  0  0  0
 49 44  1  0  0  0  0
 51 52  1  0  0  0  0
M  END
>  <MODEL>
9

>  <REMARK>
 VINA RESULT:      -5.2      2.815      9.272
  Name = 
  18 active torsions:
  status: ('A' for Active; 'I' for Inactive)
    1  A    between atoms: C_1  and  C_36
    2  A    between atoms: C_2  and  O_14
    3  A    between atoms: C_2  and  C_19
    4  A    between atoms: C_3  and  C_9
    5  A    between atoms: C_4  and  C_30
    6  A    between atoms: C_4  and  C_31
    7  A    between atoms: C_5  and  O_14
    8  A    between atoms: C_5  and  C_43
    9  A    between atoms: C_5  and  C_49
   10  A    between atoms: C_9  and  O_23
   11  A    between atoms: C_9  and  C_28
   12  A    between atoms: N_12  and  C_31
   13  A    between atoms: C_16  and  C_19
   14  A    between atoms: N_17  and  C_38
   15  A    between atoms: N_18  and  C_42
   16  A    between atoms: N_21  and  C_28
   17  A    between atoms: N_21  and  C_52
   18  A    between atoms: C_26  and  C_30
                            x       y       z     vdW  Elec       q    Type
                         _______ _______ _______ _____ _____    ______ ____

>  <TORSDO>
F 18

$$$$
