=
 OpenBabel11072415013D

 39 43  0  0  1  0  0  0  0  0999 V2000
  160.7210  207.7240  155.9210 C   0  0  1  0  0  3  0  0  0  0  0  0
  160.3560  206.8480  154.8130 N   0  0  0  0  0  2  0  0  0  0  0  0
  161.0390  208.0520  152.8090 C   0  0  0  0  0  0  0  0  0  0  0  0
  161.2820  209.7900  154.6090 C   0  0  2  0  0  3  0  0  0  0  0  0
  160.9810  209.3340  153.2080 C   0  0  0  0  0  3  0  0  0  0  0  0
  160.3240  209.1660  155.6180 C   0  0  0  0  0  2  0  0  0  0  0  0
  160.0380  207.2840  157.1230 N   0  0  0  0  0  1  0  0  0  0  0  0
  161.3900  206.9520  153.7920 C   0  0  2  0  0  3  0  0  0  0  0  0
  161.5820  205.5960  153.1300 C   0  0  0  0  0  1  0  0  0  0  0  0
  160.7330  207.7530  151.3700 C   0  0  0  0  0  2  0  0  0  0  0  0
  162.2490  209.4920  150.3810 C   0  0  0  0  0  1  0  0  0  0  0  0
  161.9490  208.0050  150.4840 C   0  0  2  0  0  3  0  0  0  0  0  0
  162.7510  207.4320  148.2550 C   0  0  0  0  0  2  0  0  0  0  0  0
  161.7410  207.4100  149.1250 C   0  0  0  0  0  0  0  0  0  0  0  0
  160.5070  206.6040  148.8250 C   0  0  0  0  0  2  0  0  0  0  0  0
  160.8090  205.1410  148.7550 C   0  0  0  0  0  0  0  0  0  0  0  0
  161.2930  203.1370  147.5060 C   0  0  0  0  0  0  0  0  0  0  0  0
  161.1460  203.0220  149.8650 N   0  0  0  0  0  0  0  0  0  0  0  0
  160.7470  206.2760  145.8020 C   0  0  0  0  0  1  0  0  0  0  0  0
  160.8810  204.3650  149.9310 C   0  0  0  0  0  3  0  0  0  0  0  0
  161.2730  203.8530  145.5040 C   0  0  0  0  0  3  0  0  0  0  0  0
  161.4530  202.7200  146.2390 N   0  0  0  0  0  0  0  0  0  0  0  0
  161.0290  204.4710  147.5440 C   0  0  0  0  0  0  0  0  0  0  0  0
  161.0230  204.9320  146.2810 N   0  0  0  0  0  0  0  0  0  0  0  0
  161.3520  202.3810  148.6730 C   0  0  0  0  0  0  0  0  0  0  0  0
  161.2890  200.2320  147.4780 C   0  0  0  0  0  1  0  0  0  0  0  0
  161.6140  201.0120  148.6180 O   0  0  0  0  0  0  0  0  0  0  0  0
  161.1730  211.1780  154.6710 O   0  0  0  0  0  0  0  0  0  0  0  0
  160.1130  211.4190  155.5500 C   0  0  0  0  0  2  0  0  0  0  0  0
  159.8080  212.9080  155.5960 C   0  0  0  0  0  2  0  0  0  0  0  0
  158.0330  213.1030  153.4630 P   0  0  2  0  0  0  0  0  0  0  0  0
  159.0100  212.2190  152.4030 O   0  0  0  0  0  0  0  0  0  0  0  0
  156.7660  213.6880  152.8770 O   0  0  0  0  0  1  0  0  0  0  0  0
  158.3620  213.2080  155.2170 C   0  0  1  0  0  0  0  0  0  0  0  0
  157.6310  212.0330  154.8860 N   0  0  1  0  0  0  0  0  0  0  0  0
  157.6330  214.3480  155.9380 C   0  0  0  0  0  1  0  0  0  0  0  0
  156.1940  212.1370  155.1430 C   0  0  0  0  0  3  0  0  0  0  0  0
  155.8180  211.2010  156.2770 C   0  0  0  0  0  2  0  0  0  0  0  0
  155.5350  210.8040  154.8440 C   0  0  0  0  0  2  0  0  0  0  0  0
  1  7  1  1  0  0  0
  2  1  1  0  0  0  0
  3  5  2  0  0  0  0
  3  8  1  0  0  0  0
  4 28  1  6  0  0  0
  4  6  1  0  0  0  0
  5  4  1  0  0  0  0
  6  1  1  0  0  0  0
  8  9  1  6  0  0  0
  8  2  1  0  0  0  0
 10  3  1  0  0  0  0
 12 11  1  6  0  0  0
 12 10  1  0  0  0  0
 13 14  2  0  0  0  0
 14 12  1  0  0  0  0
 15 14  1  0  0  0  0
 16 15  1  0  0  0  0
 16 20  2  0  0  0  0
 17 23  2  0  0  0  0
 17 25  1  0  0  0  0
 18 20  1  0  0  0  0
 19 24  1  0  0  0  0
 21 22  2  0  0  0  0
 21 24  1  0  0  0  0
 22 17  1  0  0  0  0
 23 16  1  0  0  0  0
 24 23  1  0  0  0  0
 25 18  2  0  0  0  0
 26 27  1  0  0  0  0
 27 25  1  0  0  0  0
 28 29  1  0  0  0  0
 29 30  1  0  0  0  0
 31 32  2  6  0  0  0
 31 35  1  0  0  0  0
 31 34  1  0  0  0  0
 33 31  1  0  0  0  0
 34 30  1  0  0  0  0
 34 36  1  1  0  0  0
 35 37  1  1  0  0  0
 35 34  1  0  0  0  0
 37 38  1  0  0  0  0
 39 37  1  0  0  0  0
 39 38  1  0  0  0  0
M  END
>  <MODEL>
1

>  <REMARK>
 VINA RESULT:      -8.2      0.000      0.000
  Name = 
  11 active torsions:
  status: ('A' for Active; 'I' for Inactive)
    1  A    between atoms: C_3  and  C_11
    2  A    between atoms: C_5  and  C_7
    3  A    between atoms: C_7  and  C_34
    4  A    between atoms: C_10  and  O_26
    5  A    between atoms: C_11  and  C_37
    6  A    between atoms: O_16  and  C_38
    7  A    between atoms: C_22  and  O_26
    8  A    between atoms: C_22  and  C_27
    9  A    between atoms: C_27  and  C_30
   10  A    between atoms: N_31  and  C_32
   11  A    between atoms: C_34  and  C_37
                            x       y       z     vdW  Elec       q    Type
                         _______ _______ _______ _____ _____    ______ ____

>  <TORSDO>
F 11

$$$$
=
 OpenBabel11072415013D

 39 43  0  0  1  0  0  0  0  0999 V2000
  161.6110  212.2720  148.2910 C   0  0  1  0  0  3  0  0  0  0  0  0
  162.4840  211.1350  148.5610 N   0  0  0  0  0  2  0  0  0  0  0  0
  161.6020  210.1360  150.5990 C   0  0  0  0  0  0  0  0  0  0  0  0
  160.3460  212.3100  150.4600 C   0  0  2  0  0  3  0  0  0  0  0  0
  161.0100  211.1810  151.2010 C   0  0  0  0  0  3  0  0  0  0  0  0
  161.3380  213.0540  149.5720 C   0  0  0  0  0  2  0  0  0  0  0  0
  162.2510  213.1470  147.3250 N   0  0  0  0  0  1  0  0  0  0  0  0
  161.6670  210.0490  149.0870 C   0  0  2  0  0  3  0  0  0  0  0  0
  162.2110  208.7210  148.5860 C   0  0  0  0  0  1  0  0  0  0  0  0
  162.2020  209.0740  151.4750 C   0  0  0  0  0  2  0  0  0  0  0  0
  160.8120  208.0500  153.2960 C   0  0  0  0  0  1  0  0  0  0  0  0
  161.1760  208.0000  151.8210 C   0  0  2  0  0  3  0  0  0  0  0  0
  162.9950  206.4010  151.5520 C   0  0  0  0  0  2  0  0  0  0  0  0
  161.6890  206.6430  151.4470 C   0  0  0  0  0  0  0  0  0  0  0  0
  160.7320  205.5120  151.1830 C   0  0  0  0  0  2  0  0  0  0  0  0
  160.9030  204.9590  149.8040 C   0  0  0  0  0  0  0  0  0  0  0  0
  161.1460  203.1060  148.2820 C   0  0  0  0  0  0  0  0  0  0  0  0
  161.1700  205.3130  147.4290 N   0  0  0  0  0  0  0  0  0  0  0  0
  160.8000  202.5320  151.8330 C   0  0  0  0  0  1  0  0  0  0  0  0
  161.0010  205.8200  148.6900 C   0  0  0  0  0  3  0  0  0  0  0  0
  161.0730  201.4410  149.6030 C   0  0  0  0  0  3  0  0  0  0  0  0
  161.2060  201.7630  148.2860 N   0  0  0  0  0  0  0  0  0  0  0  0
  160.9800  203.5840  149.5450 C   0  0  0  0  0  0  0  0  0  0  0  0
  160.9250  202.5350  150.3850 N   0  0  0  0  0  0  0  0  0  0  0  0
  161.2500  203.9660  147.1930 C   0  0  0  0  0  0  0  0  0  0  0  0
  160.8580  204.0890  144.7680 C   0  0  0  0  0  1  0  0  0  0  0  0
  161.4300  203.4620  145.9050 O   0  0  0  0  0  0  0  0  0  0  0  0
  159.7950  213.2000  151.3800 O   0  0  0  0  0  0  0  0  0  0  0  0
  159.6150  212.4490  152.5450 C   0  0  0  0  0  2  0  0  0  0  0  0
  158.8690  213.2750  153.5820 C   0  0  0  0  0  2  0  0  0  0  0  0
  158.0300  211.7690  155.7660 P   0  0  2  0  0  0  0  0  0  0  0  0
  156.9540  210.8260  154.8640 O   0  0  0  0  0  0  0  0  0  0  0  0
  158.0390  211.5320  157.2610 O   0  0  0  0  0  1  0  0  0  0  0  0
  159.2240  212.8620  155.0070 C   0  0  1  0  0  0  0  0  0  0  0  0
  159.7050  211.5250  155.0820 N   0  0  1  0  0  0  0  0  0  0  0  0
  159.8210  213.9120  155.9500 C   0  0  0  0  0  1  0  0  0  0  0  0
  160.6230  211.2880  156.1960 C   0  0  0  0  0  3  0  0  0  0  0  0
  161.9880  210.9080  155.6520 C   0  0  0  0  0  2  0  0  0  0  0  0
  161.0610  209.8360  156.1830 C   0  0  0  0  0  2  0  0  0  0  0  0
  1  7  1  6  0  0  0
  1  2  1  0  0  0  0
  1  6  1  0  0  0  0
  2  8  1  0  0  0  0
  3  5  2  0  0  0  0
  3 10  1  0  0  0  0
  4  5  1  0  0  0  0
  4 28  1  1  0  0  0
  6  4  1  0  0  0  0
  8  9  1  1  0  0  0
  8  3  1  0  0  0  0
 10 12  1  0  0  0  0
 12 11  1  1  0  0  0
 14 13  2  0  0  0  0
 14 12  1  0  0  0  0
 15 14  1  0  0  0  0
 16 15  1  0  0  0  0
 17 22  1  0  0  0  0
 17 23  2  0  0  0  0
 18 20  1  0  0  0  0
 20 16  2  0  0  0  0
 21 24  1  0  0  0  0
 22 21  2  0  0  0  0
 23 16  1  0  0  0  0
 23 24  1  0  0  0  0
 24 19  1  0  0  0  0
 25 18  2  0  0  0  0
 25 17  1  0  0  0  0
 26 27  1  0  0  0  0
 27 25  1  0  0  0  0
 28 29  1  0  0  0  0
 29 30  1  0  0  0  0
 30 34  1  0  0  0  0
 31 32  2  6  0  0  0
 31 33  1  0  0  0  0
 34 35  1  0  0  0  0
 34 31  1  0  0  0  0
 34 36  1  1  0  0  0
 35 31  1  0  0  0  0
 35 37  1  1  0  0  0
 38 39  1  0  0  0  0
 38 37  1  0  0  0  0
 39 37  1  0  0  0  0
M  END
>  <MODEL>
2

>  <REMARK>
 VINA RESULT:      -7.4      2.633      4.588
  Name = 
  11 active torsions:
  status: ('A' for Active; 'I' for Inactive)
    1  A    between atoms: C_3  and  C_11
    2  A    between atoms: C_5  and  C_7
    3  A    between atoms: C_7  and  C_34
    4  A    between atoms: C_10  and  O_26
    5  A    between atoms: C_11  and  C_37
    6  A    between atoms: O_16  and  C_38
    7  A    between atoms: C_22  and  O_26
    8  A    between atoms: C_22  and  C_27
    9  A    between atoms: C_27  and  C_30
   10  A    between atoms: N_31  and  C_32
   11  A    between atoms: C_34  and  C_37
                            x       y       z     vdW  Elec       q    Type
                         _______ _______ _______ _____ _____    ______ ____

>  <TORSDO>
F 11

$$$$
=
 OpenBabel11072415013D

 39 43  0  0  1  0  0  0  0  0999 V2000
  162.4010  210.8380  155.4960 C   0  0  1  0  0  3  0  0  0  0  0  0
  162.8270  210.0160  154.3690 N   0  0  0  0  0  2  0  0  0  0  0  0
  160.7630  209.3330  153.2730 C   0  0  0  0  0  0  0  0  0  0  0  0
  159.9400  210.3450  155.4230 C   0  0  2  0  0  3  0  0  0  0  0  0
  159.8750  209.3670  154.2810 C   0  0  0  0  0  3  0  0  0  0  0  0
  161.2290  210.1840  156.2220 C   0  0  0  0  0  2  0  0  0  0  0  0
  163.5090  210.9910  156.4220 N   0  0  0  0  0  1  0  0  0  0  0  0
  161.9390  210.2890  153.2460 C   0  0  2  0  0  3  0  0  0  0  0  0
  162.7320  210.2270  151.9510 C   0  0  0  0  0  1  0  0  0  0  0  0
  160.5530  208.3130  152.1910 C   0  0  0  0  0  2  0  0  0  0  0  0
  161.5690  206.9210  154.0150 C   0  0  0  0  0  1  0  0  0  0  0  0
  160.7860  206.8990  152.7120 C   0  0  2  0  0  3  0  0  0  0  0  0
  162.8230  206.0380  151.6890 C   0  0  0  0  0  2  0  0  0  0  0  0
  161.4910  206.0690  151.6830 C   0  0  0  0  0  0  0  0  0  0  0  0
  160.7190  205.1150  150.8130 C   0  0  0  0  0  2  0  0  0  0  0  0
  161.0840  205.2680  149.3710 C   0  0  0  0  0  0  0  0  0  0  0  0
  161.4890  204.3470  147.1810 C   0  0  0  0  0  0  0  0  0  0  0  0
  161.7380  206.6760  147.5200 N   0  0  0  0  0  0  0  0  0  0  0  0
  160.5610  202.1980  149.9340 C   0  0  0  0  0  1  0  0  0  0  0  0
  161.3920  206.5380  148.8380 C   0  0  0  0  0  3  0  0  0  0  0  0
  161.1380  202.2750  147.5050 C   0  0  0  0  0  3  0  0  0  0  0  0
  161.4920  203.1660  146.5380 N   0  0  0  0  0  0  0  0  0  0  0  0
  161.1440  204.1830  148.4870 C   0  0  0  0  0  0  0  0  0  0  0  0
  160.9130  202.8740  148.6970 N   0  0  0  0  0  0  0  0  0  0  0  0
  161.7990  205.6040  146.6700 C   0  0  0  0  0  0  0  0  0  0  0  0
  161.2840  205.3970  144.2730 C   0  0  0  0  0  1  0  0  0  0  0  0
  162.1600  205.7550  145.3310 O   0  0  0  0  0  0  0  0  0  0  0  0
  158.8480  210.1370  156.2640 O   0  0  0  0  0  0  0  0  0  0  0  0
  158.3530  211.4160  156.5350 C   0  0  0  0  0  2  0  0  0  0  0  0
  157.1090  211.6760  155.7000 C   0  0  0  0  0  2  0  0  0  0  0  0
  158.1170  213.1230  153.5480 P   0  0  2  0  0  0  0  0  0  0  0  0
  158.4860  211.7490  152.6330 O   0  0  0  0  0  0  0  0  0  0  0  0
  158.5310  214.4530  152.9570 O   0  0  0  0  0  1  0  0  0  0  0  0
  157.1380  213.0520  155.0420 C   0  0  1  0  0  0  0  0  0  0  0  0
  156.3210  213.1150  153.8780 N   0  0  1  0  0  0  0  0  0  0  0  0
  157.2420  214.2930  155.9350 C   0  0  0  0  0  1  0  0  0  0  0  0
  155.8000  214.4520  153.5930 C   0  0  0  0  0  3  0  0  0  0  0  0
  154.2840  214.3990  153.5390 C   0  0  0  0  0  2  0  0  0  0  0  0
  155.0850  214.4350  152.2550 C   0  0  0  0  0  2  0  0  0  0  0  0
  1  6  1  0  0  0  0
  1  7  1  1  0  0  0
  2  1  1  0  0  0  0
  3  5  2  0  0  0  0
  4  6  1  0  0  0  0
  4 28  1  1  0  0  0
  5  4  1  0  0  0  0
  8  9  1  6  0  0  0
  8  3  1  0  0  0  0
  8  2  1  0  0  0  0
 10 12  1  0  0  0  0
 10  3  1  0  0  0  0
 12 11  1  1  0  0  0
 14 13  2  0  0  0  0
 14 12  1  0  0  0  0
 15 14  1  0  0  0  0
 16 15  1  0  0  0  0
 17 23  2  0  0  0  0
 18 20  1  0  0  0  0
 20 16  2  0  0  0  0
 21 24  1  0  0  0  0
 22 17  1  0  0  0  0
 22 21  2  0  0  0  0
 23 24  1  0  0  0  0
 23 16  1  0  0  0  0
 24 19  1  0  0  0  0
 25 17  1  0  0  0  0
 25 18  2  0  0  0  0
 26 27  1  0  0  0  0
 27 25  1  0  0  0  0
 28 29  1  0  0  0  0
 30 29  1  0  0  0  0
 31 32  2  6  0  0  0
 31 35  1  0  0  0  0
 31 34  1  0  0  0  0
 33 31  1  0  0  0  0
 34 30  1  0  0  0  0
 34 36  1  1  0  0  0
 35 37  1  1  0  0  0
 35 34  1  0  0  0  0
 38 37  1  0  0  0  0
 39 38  1  0  0  0  0
 39 37  1  0  0  0  0
M  END
>  <MODEL>
3

>  <REMARK>
 VINA RESULT:      -7.3      2.126      3.210
  Name = 
  11 active torsions:
  status: ('A' for Active; 'I' for Inactive)
    1  A    between atoms: C_3  and  C_11
    2  A    between atoms: C_5  and  C_7
    3  A    between atoms: C_7  and  C_34
    4  A    between atoms: C_10  and  O_26
    5  A    between atoms: C_11  and  C_37
    6  A    between atoms: O_16  and  C_38
    7  A    between atoms: C_22  and  O_26
    8  A    between atoms: C_22  and  C_27
    9  A    between atoms: C_27  and  C_30
   10  A    between atoms: N_31  and  C_32
   11  A    between atoms: C_34  and  C_37
                            x       y       z     vdW  Elec       q    Type
                         _______ _______ _______ _____ _____    ______ ____

>  <TORSDO>
F 11

$$$$
=
 OpenBabel11072415013D

 39 43  0  0  1  0  0  0  0  0999 V2000
  159.8480  211.3410  155.6060 C   0  0  1  0  0  3  0  0  0  0  0  0
  160.0460  209.8970  155.5500 N   0  0  0  0  0  2  0  0  0  0  0  0
  160.4110  209.4040  153.1940 C   0  0  0  0  0  0  0  0  0  0  0  0
  159.6400  211.7960  153.1450 C   0  0  2  0  0  3  0  0  0  0  0  0
  159.7560  210.4050  152.5830 C   0  0  0  0  0  3  0  0  0  0  0  0
  158.9150  211.7970  154.4870 C   0  0  0  0  0  2  0  0  0  0  0  0
  159.2630  211.6940  156.8870 N   0  0  0  0  0  1  0  0  0  0  0  0
  161.0640  209.6170  154.5450 C   0  0  2  0  0  3  0  0  0  0  0  0
  161.9060  208.4340  154.9970 C   0  0  0  0  0  1  0  0  0  0  0  0
  160.4610  208.0740  152.4970 C   0  0  0  0  0  2  0  0  0  0  0  0
  162.3960  208.6570  151.0090 C   0  0  0  0  0  1  0  0  0  0  0  0
  161.8860  207.7180  152.0900 C   0  0  2  0  0  3  0  0  0  0  0  0
  163.0320  205.5710  151.9630 C   0  0  0  0  0  2  0  0  0  0  0  0
  161.9620  206.2930  151.6330 C   0  0  0  0  0  0  0  0  0  0  0  0
  160.7620  205.6250  151.0180 C   0  0  0  0  0  2  0  0  0  0  0  0
  160.9770  205.3390  149.5660 C   0  0  0  0  0  0  0  0  0  0  0  0
  161.2440  203.8030  147.7280 C   0  0  0  0  0  0  0  0  0  0  0  0
  161.3450  206.1300  147.3130 N   0  0  0  0  0  0  0  0  0  0  0  0
  160.7450  202.5750  151.0900 C   0  0  0  0  0  1  0  0  0  0  0  0
  161.1360  206.3930  148.6410 C   0  0  0  0  0  3  0  0  0  0  0  0
  161.0850  201.9200  148.7030 C   0  0  0  0  0  3  0  0  0  0  0  0
  161.2770  202.4820  147.4770 N   0  0  0  0  0  0  0  0  0  0  0  0
  161.0370  204.0370  149.0520 C   0  0  0  0  0  0  0  0  0  0  0  0
  160.9280  202.8490  149.6740 N   0  0  0  0  0  0  0  0  0  0  0  0
  161.4080  204.8520  146.8280 C   0  0  0  0  0  0  0  0  0  0  0  0
  161.2760  205.5330  144.4670 C   0  0  0  0  0  1  0  0  0  0  0  0
  161.6290  204.5960  145.4740 O   0  0  0  0  0  0  0  0  0  0  0  0
  158.9390  212.5960  152.2440 O   0  0  0  0  0  0  0  0  0  0  0  0
  159.9210  213.1750  151.4350 C   0  0  0  0  0  2  0  0  0  0  0  0
  160.2300  212.2580  150.2620 C   0  0  0  0  0  2  0  0  0  0  0  0
  162.1300  211.9980  148.2460 P   0  0  2  0  0  0  0  0  0  0  0  0
  162.0810  210.3070  148.2440 O   0  0  0  0  0  1  0  0  0  0  0  0
  163.1520  212.6400  147.3340 O   0  0  0  0  0  0  0  0  0  0  0  0
  160.9380  212.9950  149.1300 C   0  0  1  0  0  0  0  0  0  0  0  0
  160.4570  212.6110  147.8470 N   0  0  1  0  0  0  0  0  0  0  0  0
  161.3600  214.4520  149.3500 C   0  0  0  0  0  1  0  0  0  0  0  0
  160.5860  213.6550  146.8290 C   0  0  0  0  0  3  0  0  0  0  0  0
  159.2030  214.0900  146.3790 C   0  0  0  0  0  2  0  0  0  0  0  0
  160.0170  213.1480  145.5180 C   0  0  0  0  0  2  0  0  0  0  0  0
  1  7  1  1  0  0  0
  2  1  1  0  0  0  0
  3  8  1  0  0  0  0
  4 28  1  6  0  0  0
  4  6  1  0  0  0  0
  5  4  1  0  0  0  0
  5  3  2  0  0  0  0
  6  1  1  0  0  0  0
  8  9  1  1  0  0  0
  8  2  1  0  0  0  0
 10  3  1  0  0  0  0
 12 11  1  6  0  0  0
 12 10  1  0  0  0  0
 14 13  2  0  0  0  0
 14 12  1  0  0  0  0
 15 14  1  0  0  0  0
 16 15  1  0  0  0  0
 17 23  2  0  0  0  0
 18 20  1  0  0  0  0
 20 16  2  0  0  0  0
 21 24  1  0  0  0  0
 22 17  1  0  0  0  0
 22 21  2  0  0  0  0
 23 16  1  0  0  0  0
 23 24  1  0  0  0  0
 24 19  1  0  0  0  0
 25 18  2  0  0  0  0
 25 17  1  0  0  0  0
 26 27  1  0  0  0  0
 27 25  1  0  0  0  0
 29 28  1  0  0  0  0
 30 29  1  0  0  0  0
 31 33  2  6  0  0  0
 31 34  1  0  0  0  0
 32 31  1  0  0  0  0
 34 36  1  1  0  0  0
 34 30  1  0  0  0  0
 35 37  1  6  0  0  0
 35 31  1  0  0  0  0
 35 34  1  0  0  0  0
 38 37  1  0  0  0  0
 39 38  1  0  0  0  0
 39 37  1  0  0  0  0
M  END
>  <MODEL>
4

>  <REMARK>
 VINA RESULT:      -7.0      3.393      5.019
  Name = 
  11 active torsions:
  status: ('A' for Active; 'I' for Inactive)
    1  A    between atoms: C_3  and  C_11
    2  A    between atoms: C_5  and  C_7
    3  A    between atoms: C_7  and  C_34
    4  A    between atoms: C_10  and  O_26
    5  A    between atoms: C_11  and  C_37
    6  A    between atoms: O_16  and  C_38
    7  A    between atoms: C_22  and  O_26
    8  A    between atoms: C_22  and  C_27
    9  A    between atoms: C_27  and  C_30
   10  A    between atoms: N_31  and  C_32
   11  A    between atoms: C_34  and  C_37
                            x       y       z     vdW  Elec       q    Type
                         _______ _______ _______ _____ _____    ______ ____

>  <TORSDO>
F 11

$$$$
=
 OpenBabel11072415013D

 39 43  0  0  1  0  0  0  0  0999 V2000
  161.4070  209.4370  151.4430 C   0  0  1  0  0  3  0  0  0  0  0  0
  161.8260  208.4430  150.4620 N   0  0  0  0  0  2  0  0  0  0  0  0
  161.3690  206.2940  151.5120 C   0  0  0  0  0  0  0  0  0  0  0  0
  161.0520  207.9150  153.4080 C   0  0  2  0  0  3  0  0  0  0  0  0
  161.4500  206.5880  152.8210 C   0  0  0  0  0  3  0  0  0  0  0  0
  161.8930  209.0520  152.8370 C   0  0  0  0  0  2  0  0  0  0  0  0
  161.9670  210.7280  151.0830 N   0  0  0  0  0  1  0  0  0  0  0  0
  160.8870  207.3290  150.5150 C   0  0  2  0  0  3  0  0  0  0  0  0
  160.6910  206.7680  149.1160 C   0  0  0  0  0  1  0  0  0  0  0  0
  161.7810  204.9160  151.0790 C   0  0  0  0  0  2  0  0  0  0  0  0
  160.4900  203.3160  152.5180 C   0  0  0  0  0  1  0  0  0  0  0  0
  160.6070  203.9450  151.1390 C   0  0  2  0  0  3  0  0  0  0  0  0
  159.7000  202.1000  149.8290 C   0  0  0  0  0  2  0  0  0  0  0  0
  160.7430  202.8890  150.0850 C   0  0  0  0  0  0  0  0  0  0  0  0
  161.9430  202.8680  149.1780 C   0  0  0  0  0  2  0  0  0  0  0  0
  161.5960  203.3240  147.7960 C   0  0  0  0  0  0  0  0  0  0  0  0
  160.8550  202.8820  145.5450 C   0  0  0  0  0  0  0  0  0  0  0  0
  161.3990  205.1000  146.1700 N   0  0  0  0  0  0  0  0  0  0  0  0
  161.1840  200.1890  147.9320 C   0  0  0  0  0  1  0  0  0  0  0  0
  161.7050  204.6850  147.4390 C   0  0  0  0  0  3  0  0  0  0  0  0
  160.5530  200.7780  145.5880 C   0  0  0  0  0  3  0  0  0  0  0  0
  160.4720  201.8590  144.7620 N   0  0  0  0  0  0  0  0  0  0  0  0
  161.1560  202.4450  146.7980 C   0  0  0  0  0  0  0  0  0  0  0  0
  160.9590  201.1140  146.8340 N   0  0  0  0  0  0  0  0  0  0  0  0
  160.9770  204.2260  145.2030 C   0  0  0  0  0  0  0  0  0  0  0  0
  161.3260  205.7750  143.3240 C   0  0  0  0  0  1  0  0  0  0  0  0
  160.6740  204.6590  143.9120 O   0  0  0  0  0  0  0  0  0  0  0  0
  161.2180  207.8700  154.7910 O   0  0  0  0  0  0  0  0  0  0  0  0
  161.0550  209.1920  155.2160 C   0  0  0  0  0  2  0  0  0  0  0  0
  159.6490  209.3890  155.7640 C   0  0  0  0  0  2  0  0  0  0  0  0
  159.1890  211.7990  154.4530 P   0  0  2  0  0  0  0  0  0  0  0  0
  158.8830  211.0730  152.9560 O   0  0  0  0  0  0  0  0  0  0  0  0
  159.2010  213.3130  154.4740 O   0  0  0  0  0  1  0  0  0  0  0  0
  159.3160  210.8630  155.9710 C   0  0  1  0  0  0  0  0  0  0  0  0
  157.9630  211.1650  155.6490 N   0  0  1  0  0  0  0  0  0  0  0  0
  159.9800  211.6120  157.1310 C   0  0  0  0  0  1  0  0  0  0  0  0
  157.4180  212.3020  156.3900 C   0  0  0  0  0  3  0  0  0  0  0  0
  156.2680  211.8300  157.2610 C   0  0  0  0  0  2  0  0  0  0  0  0
  155.9850  212.5420  155.9550 C   0  0  0  0  0  2  0  0  0  0  0  0
  1  7  1  6  0  0  0
  1  6  1  0  0  0  0
  2  8  1  0  0  0  0
  2  1  1  0  0  0  0
  3  5  2  0  0  0  0
  4 28  1  1  0  0  0
  5  4  1  0  0  0  0
  6  4  1  0  0  0  0
  8  9  1  6  0  0  0
  8  3  1  0  0  0  0
 10 12  1  0  0  0  0
 10  3  1  0  0  0  0
 12 11  1  1  0  0  0
 13 14  2  0  0  0  0
 14 12  1  0  0  0  0
 15 14  1  0  0  0  0
 16 15  1  0  0  0  0
 17 23  2  0  0  0  0
 18 20  1  0  0  0  0
 20 16  2  0  0  0  0
 21 24  1  0  0  0  0
 22 17  1  0  0  0  0
 22 21  2  0  0  0  0
 23 24  1  0  0  0  0
 23 16  1  0  0  0  0
 24 19  1  0  0  0  0
 25 17  1  0  0  0  0
 25 18  2  0  0  0  0
 26 27  1  0  0  0  0
 27 25  1  0  0  0  0
 28 29  1  0  0  0  0
 29 30  1  0  0  0  0
 30 34  1  0  0  0  0
 31 32  2  6  0  0  0
 31 33  1  0  0  0  0
 31 35  1  0  0  0  0
 31 34  1  0  0  0  0
 34 36  1  1  0  0  0
 35 34  1  0  0  0  0
 35 37  1  1  0  0  0
 37 38  1  0  0  0  0
 39 37  1  0  0  0  0
 39 38  1  0  0  0  0
M  END
>  <MODEL>
5

>  <REMARK>
 VINA RESULT:      -6.6      2.108      3.902
  Name = 
  11 active torsions:
  status: ('A' for Active; 'I' for Inactive)
    1  A    between atoms: C_3  and  C_11
    2  A    between atoms: C_5  and  C_7
    3  A    between atoms: C_7  and  C_34
    4  A    between atoms: C_10  and  O_26
    5  A    between atoms: C_11  and  C_37
    6  A    between atoms: O_16  and  C_38
    7  A    between atoms: C_22  and  O_26
    8  A    between atoms: C_22  and  C_27
    9  A    between atoms: C_27  and  C_30
   10  A    between atoms: N_31  and  C_32
   11  A    between atoms: C_34  and  C_37
                            x       y       z     vdW  Elec       q    Type
                         _______ _______ _______ _____ _____    ______ ____

>  <TORSDO>
F 11

$$$$
=
 OpenBabel11072415013D

 39 43  0  0  1  0  0  0  0  0999 V2000
  160.8130  203.6310  150.6540 C   0  0  1  0  0  3  0  0  0  0  0  0
  161.7060  204.2430  151.6310 N   0  0  0  0  0  2  0  0  0  0  0  0
  161.2650  206.6330  151.4760 C   0  0  0  0  0  0  0  0  0  0  0  0
  160.0400  205.7130  149.4820 C   0  0  2  0  0  3  0  0  0  0  0  0
  160.8300  206.7660  150.2120 C   0  0  0  0  0  3  0  0  0  0  0  0
  160.8310  204.4160  149.3460 C   0  0  0  0  0  2  0  0  0  0  0  0
  161.2450  202.2690  150.3990 N   0  0  0  0  0  1  0  0  0  0  0  0
  161.0040  205.3580  152.2540 C   0  0  2  0  0  3  0  0  0  0  0  0
  161.4090  205.4540  153.7160 C   0  0  0  0  0  1  0  0  0  0  0  0
  162.0220  207.7810  152.0790 C   0  0  0  0  0  2  0  0  0  0  0  0
  162.0620  210.1010  151.1210 C   0  0  0  0  0  1  0  0  0  0  0  0
  161.2560  209.0900  151.9220 C   0  0  2  0  0  3  0  0  0  0  0  0
  160.4670  208.8120  154.2100 C   0  0  0  0  0  2  0  0  0  0  0  0
  160.8880  209.6480  153.2620 C   0  0  0  0  0  0  0  0  0  0  0  0
  161.2050  211.0780  153.6060 C   0  0  0  0  0  2  0  0  0  0  0  0
  159.9760  211.9310  153.5970 C   0  0  0  0  0  0  0  0  0  0  0  0
  158.2840  213.2170  154.7330 C   0  0  0  0  0  0  0  0  0  0  0  0
  158.1940  213.0130  152.3770 N   0  0  0  0  0  0  0  0  0  0  0  0
  160.9030  211.5730  156.6020 C   0  0  0  0  0  1  0  0  0  0  0  0
  159.3270  212.2430  152.3830 C   0  0  0  0  0  3  0  0  0  0  0  0
  158.8710  213.0160  156.7660 C   0  0  0  0  0  3  0  0  0  0  0  0
  157.9220  213.5880  155.9730 N   0  0  0  0  0  0  0  0  0  0  0  0
  159.4080  212.4520  154.7670 C   0  0  0  0  0  0  0  0  0  0  0  0
  159.7900  212.3270  156.0500 N   0  0  0  0  0  0  0  0  0  0  0  0
  157.6470  213.5100  153.5300 C   0  0  0  0  0  0  0  0  0  0  0  0
  155.1950  213.7040  153.5090 C   0  0  0  0  0  1  0  0  0  0  0  0
  156.4890  214.2870  153.5110 O   0  0  0  0  0  0  0  0  0  0  0  0
  159.7120  206.1870  148.2130 O   0  0  0  0  0  0  0  0  0  0  0  0
  160.9380  206.4610  147.6010 C   0  0  0  0  0  2  0  0  0  0  0  0
  160.7510  206.5790  146.0970 C   0  0  0  0  0  2  0  0  0  0  0  0
  162.9460  204.8740  145.9700 P   0  0  2  0  0  0  0  0  0  0  0  0
  163.4780  205.2360  147.5340 O   0  0  0  0  0  1  0  0  0  0  0  0
  163.8300  203.9530  145.1570 O   0  0  0  0  0  0  0  0  0  0  0  0
  161.3510  205.3920  145.3500 C   0  0  1  0  0  0  0  0  0  0  0  0
  161.2620  204.1810  146.0930 N   0  0  1  0  0  0  0  0  0  0  0  0
  161.2060  205.3310  143.8260 C   0  0  0  0  0  1  0  0  0  0  0  0
  161.2020  202.9790  145.2600 C   0  0  0  0  0  3  0  0  0  0  0  0
  159.7820  202.4430  145.2520 C   0  0  0  0  0  2  0  0  0  0  0  0
  160.8310  201.7890  146.1250 C   0  0  0  0  0  2  0  0  0  0  0  0
  1  7  1  6  0  0  0
  1  2  1  0  0  0  0
  2  8  1  0  0  0  0
  3 10  1  0  0  0  0
  3  8  1  0  0  0  0
  4 28  1  6  0  0  0
  4  5  1  0  0  0  0
  5  3  2  0  0  0  0
  6  4  1  0  0  0  0
  6  1  1  0  0  0  0
  8  9  1  1  0  0  0
 12 11  1  1  0  0  0
 12 10  1  0  0  0  0
 12 14  1  0  0  0  0
 14 15  1  0  0  0  0
 14 13  2  0  0  0  0
 16 15  1  0  0  0  0
 16 23  1  0  0  0  0
 17 23  2  0  0  0  0
 17 22  1  0  0  0  0
 18 20  1  0  0  0  0
 18 25  2  0  0  0  0
 20 16  2  0  0  0  0
 22 21  2  0  0  0  0
 23 24  1  0  0  0  0
 24 19  1  0  0  0  0
 24 21  1  0  0  0  0
 25 17  1  0  0  0  0
 26 27  1  0  0  0  0
 27 25  1  0  0  0  0
 29 28  1  0  0  0  0
 30 29  1  0  0  0  0
 31 33  2  6  0  0  0
 31 35  1  0  0  0  0
 31 32  1  0  0  0  0
 34 36  1  6  0  0  0
 34 31  1  0  0  0  0
 34 35  1  0  0  0  0
 34 30  1  0  0  0  0
 35 37  1  6  0  0  0
 37 39  1  0  0  0  0
 38 37  1  0  0  0  0
 38 39  1  0  0  0  0
M  END
>  <MODEL>
6

>  <REMARK>
 VINA RESULT:      -6.6      2.989     10.377
  Name = 
  11 active torsions:
  status: ('A' for Active; 'I' for Inactive)
    1  A    between atoms: C_3  and  C_11
    2  A    between atoms: C_5  and  C_7
    3  A    between atoms: C_7  and  C_34
    4  A    between atoms: C_10  and  O_26
    5  A    between atoms: C_11  and  C_37
    6  A    between atoms: O_16  and  C_38
    7  A    between atoms: C_22  and  O_26
    8  A    between atoms: C_22  and  C_27
    9  A    between atoms: C_27  and  C_30
   10  A    between atoms: N_31  and  C_32
   11  A    between atoms: C_34  and  C_37
                            x       y       z     vdW  Elec       q    Type
                         _______ _______ _______ _____ _____    ______ ____

>  <TORSDO>
F 11

$$$$
=
 OpenBabel11072415013D

 39 43  0  0  1  0  0  0  0  0999 V2000
  162.2710  207.5510  149.3050 C   0  0  1  0  0  3  0  0  0  0  0  0
  161.8630  208.8080  149.9210 N   0  0  0  0  0  2  0  0  0  0  0  0
  161.1980  208.2100  152.1860 C   0  0  0  0  0  0  0  0  0  0  0  0
  161.4480  205.9690  151.0730 C   0  0  2  0  0  3  0  0  0  0  0  0
  160.8210  206.9280  152.0480 C   0  0  0  0  0  3  0  0  0  0  0  0
  161.2740  206.4440  149.6340 C   0  0  0  0  0  2  0  0  0  0  0  0
  162.3340  207.7240  147.8650 N   0  0  0  0  0  1  0  0  0  0  0  0
  162.2930  208.7920  151.3140 C   0  0  2  0  0  3  0  0  0  0  0  0
  162.7080  210.1940  151.7290 C   0  0  0  0  0  1  0  0  0  0  0  0
  160.4930  209.0390  153.2210 C   0  0  0  0  0  2  0  0  0  0  0  0
  160.0800  207.9240  155.4320 C   0  0  0  0  0  1  0  0  0  0  0  0
  161.0460  208.7680  154.6160 C   0  0  2  0  0  3  0  0  0  0  0  0
  162.2390  210.0480  156.3120 C   0  0  0  0  0  2  0  0  0  0  0  0
  161.3500  210.0550  155.3200 C   0  0  0  0  0  0  0  0  0  0  0  0
  160.8410  211.3620  154.7730 C   0  0  0  0  0  2  0  0  0  0  0  0
  159.4510  211.6510  155.2460 C   0  0  0  0  0  0  0  0  0  0  0  0
  157.2380  212.5370  154.8930 C   0  0  0  0  0  0  0  0  0  0  0  0
  157.7800  211.5780  156.9880 N   0  0  0  0  0  0  0  0  0  0  0  0
  159.7230  212.7110  152.2760 C   0  0  0  0  0  1  0  0  0  0  0  0
  159.0490  211.3020  156.5520 C   0  0  0  0  0  3  0  0  0  0  0  0
  157.3670  213.2560  152.8970 C   0  0  0  0  0  3  0  0  0  0  0  0
  156.5060  213.1510  153.9480 N   0  0  0  0  0  0  0  0  0  0  0  0
  158.4930  212.2760  154.4370 C   0  0  0  0  0  0  0  0  0  0  0  0
  158.5780  212.7220  153.1710 N   0  0  0  0  0  0  0  0  0  0  0  0
  156.8560  212.1960  156.1880 C   0  0  0  0  0  0  0  0  0  0  0  0
  155.1690  213.7960  156.9890 C   0  0  0  0  0  1  0  0  0  0  0  0
  155.5690  212.4790  156.6450 O   0  0  0  0  0  0  0  0  0  0  0  0
  160.8560  204.7160  151.2180 O   0  0  0  0  0  0  0  0  0  0  0  0
  161.4910  203.9050  150.2740 C   0  0  0  0  0  2  0  0  0  0  0  0
  160.7930  204.0350  148.9290 C   0  0  0  0  0  2  0  0  0  0  0  0
  161.2050  201.3560  148.3010 P   0  0  2  0  0  0  0  0  0  0  0  0
  160.0410  200.7900  149.3890 O   0  0  0  0  0  1  0  0  0  0  0  0
  162.0080  200.3020  147.5690 O   0  0  0  0  0  0  0  0  0  0  0  0
  161.3770  203.0870  147.8860 C   0  0  1  0  0  0  0  0  0  0  0  0
  160.3710  202.4530  147.1030 N   0  0  1  0  0  0  0  0  0  0  0  0
  162.7060  203.4560  147.2170 C   0  0  0  0  0  1  0  0  0  0  0  0
  160.8140  202.0820  145.7590 C   0  0  0  0  0  3  0  0  0  0  0  0
  159.9460  202.7850  144.7320 C   0  0  0  0  0  2  0  0  0  0  0  0
  159.7020  201.3270  145.0570 C   0  0  0  0  0  2  0  0  0  0  0  0
  1  7  1  6  0  0  0
  1  6  1  0  0  0  0
  1  2  1  0  0  0  0
  2  8  1  0  0  0  0
  3 10  1  0  0  0  0
  4 28  1  6  0  0  0
  4  5  1  0  0  0  0
  5  3  2  0  0  0  0
  6  4  1  0  0  0  0
  8  9  1  1  0  0  0
  8  3  1  0  0  0  0
 10 12  1  0  0  0  0
 12 14  1  0  0  0  0
 12 11  1  1  0  0  0
 14 13  2  0  0  0  0
 15 16  1  0  0  0  0
 15 14  1  0  0  0  0
 16 20  2  0  0  0  0
 17 25  1  0  0  0  0
 19 24  1  0  0  0  0
 20 18  1  0  0  0  0
 21 24  1  0  0  0  0
 21 22  2  0  0  0  0
 22 17  1  0  0  0  0
 23 17  2  0  0  0  0
 23 16  1  0  0  0  0
 24 23  1  0  0  0  0
 25 27  1  0  0  0  0
 25 18  2  0  0  0  0
 27 26  1  0  0  0  0
 29 28  1  0  0  0  0
 30 29  1  0  0  0  0
 31 33  2  6  0  0  0
 31 32  1  0  0  0  0
 34 36  1  6  0  0  0
 34 31  1  0  0  0  0
 34 30  1  0  0  0  0
 35 37  1  6  0  0  0
 35 34  1  0  0  0  0
 35 31  1  0  0  0  0
 38 39  1  0  0  0  0
 38 37  1  0  0  0  0
 39 37  1  0  0  0  0
M  END
>  <MODEL>
7

>  <REMARK>
 VINA RESULT:      -6.4      3.199     10.580
  Name = 
  11 active torsions:
  status: ('A' for Active; 'I' for Inactive)
    1  A    between atoms: C_3  and  C_11
    2  A    between atoms: C_5  and  C_7
    3  A    between atoms: C_7  and  C_34
    4  A    between atoms: C_10  and  O_26
    5  A    between atoms: C_11  and  C_37
    6  A    between atoms: O_16  and  C_38
    7  A    between atoms: C_22  and  O_26
    8  A    between atoms: C_22  and  C_27
    9  A    between atoms: C_27  and  C_30
   10  A    between atoms: N_31  and  C_32
   11  A    between atoms: C_34  and  C_37
                            x       y       z     vdW  Elec       q    Type
                         _______ _______ _______ _____ _____    ______ ____

>  <TORSDO>
F 11

$$$$
=
 OpenBabel11072415013D

 39 43  0  0  1  0  0  0  0  0999 V2000
  161.4320  210.1530  151.2950 C   0  0  1  0  0  3  0  0  0  0  0  0
  162.0450  209.0810  150.5190 N   0  0  0  0  0  2  0  0  0  0  0  0
  161.5320  207.0420  151.7480 C   0  0  0  0  0  0  0  0  0  0  0  0
  160.8470  208.8470  153.3590 C   0  0  2  0  0  3  0  0  0  0  0  0
  161.3930  207.4900  153.0070 C   0  0  0  0  0  3  0  0  0  0  0  0
  161.7120  209.9640  152.7830 C   0  0  0  0  0  2  0  0  0  0  0  0
  161.9790  211.4270  150.8650 N   0  0  0  0  0  1  0  0  0  0  0  0
  161.1630  207.9220  150.5690 C   0  0  2  0  0  3  0  0  0  0  0  0
  161.2150  207.1910  149.2370 C   0  0  0  0  0  1  0  0  0  0  0  0
  162.0710  205.6540  151.5550 C   0  0  0  0  0  2  0  0  0  0  0  0
  160.8310  203.9370  152.9020 C   0  0  0  0  0  1  0  0  0  0  0  0
  160.9480  204.6220  151.5500 C   0  0  2  0  0  3  0  0  0  0  0  0
  160.8120  202.3490  150.6830 C   0  0  0  0  0  2  0  0  0  0  0  0
  161.1660  203.6140  150.4630 C   0  0  0  0  0  0  0  0  0  0  0  0
  161.5560  204.0580  149.0790 C   0  0  0  0  0  2  0  0  0  0  0  0
  161.3100  202.9830  148.0680 C   0  0  0  0  0  0  0  0  0  0  0  0
  160.8210  202.2640  145.8200 C   0  0  0  0  0  0  0  0  0  0  0  0
  161.0890  200.6410  147.5210 N   0  0  0  0  0  0  0  0  0  0  0  0
  161.0940  205.7810  146.6040 C   0  0  0  0  0  1  0  0  0  0  0  0
  161.3260  201.6240  148.4450 C   0  0  0  0  0  3  0  0  0  0  0  0
  160.6760  204.1180  144.7890 C   0  0  0  0  0  3  0  0  0  0  0  0
  160.5840  202.7720  144.5980 N   0  0  0  0  0  0  0  0  0  0  0  0
  161.0510  203.2590  146.7190 C   0  0  0  0  0  0  0  0  0  0  0  0
  160.9680  204.4350  146.0710 N   0  0  0  0  0  0  0  0  0  0  0  0
  160.8300  200.9270  146.2070 C   0  0  0  0  0  0  0  0  0  0  0  0
  161.2040  198.6450  145.3680 C   0  0  0  0  0  1  0  0  0  0  0  0
  160.5830  199.9180  145.2770 O   0  0  0  0  0  0  0  0  0  0  0  0
  160.7960  208.9740  154.7460 O   0  0  0  0  0  0  0  0  0  0  0  0
  160.6560  210.3450  154.9780 C   0  0  0  0  0  2  0  0  0  0  0  0
  159.2850  210.6320  155.5700 C   0  0  0  0  0  2  0  0  0  0  0  0
  158.8070  212.6850  153.7540 P   0  0  2  0  0  0  0  0  0  0  0  0
  158.5820  211.6430  152.4410 O   0  0  0  0  0  0  0  0  0  0  0  0
  158.7740  214.1670  153.4480 O   0  0  0  0  0  1  0  0  0  0  0  0
  158.9010  212.1030  155.4420 C   0  0  1  0  0  0  0  0  0  0  0  0
  157.5540  212.2780  155.0190 N   0  0  1  0  0  0  0  0  0  0  0  0
  159.4970  213.1070  156.4340 C   0  0  0  0  0  1  0  0  0  0  0  0
  156.9470  213.5280  155.4780 C   0  0  0  0  0  3  0  0  0  0  0  0
  155.7130  213.2130  156.3040 C   0  0  0  0  0  2  0  0  0  0  0  0
  155.5660  213.6670  154.8680 C   0  0  0  0  0  2  0  0  0  0  0  0
  1  7  1  6  0  0  0
  1  6  1  0  0  0  0
  2  8  1  0  0  0  0
  2  1  1  0  0  0  0
  3  5  2  0  0  0  0
  4 28  1  1  0  0  0
  5  4  1  0  0  0  0
  6  4  1  0  0  0  0
  8  9  1  6  0  0  0
  8  3  1  0  0  0  0
 10  3  1  0  0  0  0
 12 10  1  0  0  0  0
 12 11  1  1  0  0  0
 14 13  2  0  0  0  0
 14 12  1  0  0  0  0
 15 14  1  0  0  0  0
 16 20  2  0  0  0  0
 16 15  1  0  0  0  0
 17 25  1  0  0  0  0
 17 23  2  0  0  0  0
 18 20  1  0  0  0  0
 21 24  1  0  0  0  0
 22 21  2  0  0  0  0
 22 17  1  0  0  0  0
 23 16  1  0  0  0  0
 24 19  1  0  0  0  0
 24 23  1  0  0  0  0
 25 18  2  0  0  0  0
 27 26  1  0  0  0  0
 27 25  1  0  0  0  0
 28 29  1  0  0  0  0
 29 30  1  0  0  0  0
 31 32  2  6  0  0  0
 31 35  1  0  0  0  0
 31 34  1  0  0  0  0
 33 31  1  0  0  0  0
 34 30  1  0  0  0  0
 34 36  1  1  0  0  0
 35 34  1  0  0  0  0
 35 37  1  1  0  0  0
 37 38  1  0  0  0  0
 39 37  1  0  0  0  0
 39 38  1  0  0  0  0
M  END
>  <MODEL>
8

>  <REMARK>
 VINA RESULT:      -6.3      1.986      3.156
  Name = 
  11 active torsions:
  status: ('A' for Active; 'I' for Inactive)
    1  A    between atoms: C_3  and  C_11
    2  A    between atoms: C_5  and  C_7
    3  A    between atoms: C_7  and  C_34
    4  A    between atoms: C_10  and  O_26
    5  A    between atoms: C_11  and  C_37
    6  A    between atoms: O_16  and  C_38
    7  A    between atoms: C_22  and  O_26
    8  A    between atoms: C_22  and  C_27
    9  A    between atoms: C_27  and  C_30
   10  A    between atoms: N_31  and  C_32
   11  A    between atoms: C_34  and  C_37
                            x       y       z     vdW  Elec       q    Type
                         _______ _______ _______ _____ _____    ______ ____

>  <TORSDO>
F 11

$$$$
=
 OpenBabel11072415013D

 39 43  0  0  1  0  0  0  0  0999 V2000
  161.0010  207.5950  154.3440 C   0  0  1  0  0  3  0  0  0  0  0  0
  161.1960  206.6400  153.2590 N   0  0  0  0  0  2  0  0  0  0  0  0
  161.9440  207.9810  151.3690 C   0  0  0  0  0  0  0  0  0  0  0  0
  161.2070  209.7220  153.0260 C   0  0  2  0  0  3  0  0  0  0  0  0
  161.4050  209.1830  151.6360 C   0  0  0  0  0  3  0  0  0  0  0  0
  160.2700  208.8360  153.8400 C   0  0  0  0  0  2  0  0  0  0  0  0
  160.2140  206.9710  155.3930 N   0  0  0  0  0  1  0  0  0  0  0  0
  162.3650  207.0550  152.4930 C   0  0  2  0  0  3  0  0  0  0  0  0
  163.1120  205.8240  152.0070 C   0  0  0  0  0  1  0  0  0  0  0  0
  162.1000  207.5900  149.9270 C   0  0  0  0  0  2  0  0  0  0  0  0
  160.0700  206.1940  150.4050 C   0  0  0  0  0  1  0  0  0  0  0  0
  160.7990  207.0280  149.3640 C   0  0  2  0  0  3  0  0  0  0  0  0
  160.4780  206.5830  146.9890 C   0  0  0  0  0  2  0  0  0  0  0  0
  161.0660  206.2210  148.1300 C   0  0  0  0  0  0  0  0  0  0  0  0
  162.1450  205.1730  148.1220 C   0  0  0  0  0  2  0  0  0  0  0  0
  161.6760  203.9060  147.4800 C   0  0  0  0  0  0  0  0  0  0  0  0
  160.8310  201.6530  147.6120 C   0  0  0  0  0  0  0  0  0  0  0  0
  161.2390  202.6120  145.4870 N   0  0  0  0  0  0  0  0  0  0  0  0
  161.5180  203.5360  150.6190 C   0  0  0  0  0  1  0  0  0  0  0  0
  161.6570  203.7770  146.0750 C   0  0  0  0  0  3  0  0  0  0  0  0
  160.6970  201.3580  149.7130 C   0  0  0  0  0  3  0  0  0  0  0  0
  160.4800  200.7300  148.5240 N   0  0  0  0  0  0  0  0  0  0  0  0
  161.2440  202.7980  148.2200 C   0  0  0  0  0  0  0  0  0  0  0  0
  161.1540  202.6210  149.5500 N   0  0  0  0  0  0  0  0  0  0  0  0
  160.8260  201.5350  146.2250 C   0  0  0  0  0  0  0  0  0  0  0  0
  161.2060  199.1760  145.6380 C   0  0  0  0  0  1  0  0  0  0  0  0
  160.4100  200.3510  145.6160 O   0  0  0  0  0  0  0  0  0  0  0  0
  160.6700  211.0060  152.9460 O   0  0  0  0  0  0  0  0  0  0  0  0
  159.9600  211.1760  154.1380 C   0  0  0  0  0  2  0  0  0  0  0  0
  159.7970  212.6580  154.4360 C   0  0  0  0  0  2  0  0  0  0  0  0
  157.5540  213.3780  152.9550 P   0  0  2  0  0  0  0  0  0  0  0  0
  158.1520  212.7490  151.5040 O   0  0  0  0  0  0  0  0  0  0  0  0
  156.2290  214.1060  152.8750 O   0  0  0  0  0  1  0  0  0  0  0  0
  158.3300  213.0640  154.5350 C   0  0  1  0  0  0  0  0  0  0  0  0
  157.4480  212.0120  154.1610 N   0  0  1  0  0  0  0  0  0  0  0  0
  157.9040  214.0160  155.6580 C   0  0  0  0  0  1  0  0  0  0  0  0
  156.1380  212.0780  154.8110 C   0  0  0  0  0  3  0  0  0  0  0  0
  156.0930  211.0790  155.9530 C   0  0  0  0  0  2  0  0  0  0  0  0
  155.4250  210.7510  154.6350 C   0  0  0  0  0  2  0  0  0  0  0  0
  1  7  1  1  0  0  0
  2  1  1  0  0  0  0
  3  5  2  0  0  0  0
  3  8  1  0  0  0  0
  4 28  1  6  0  0  0
  4  6  1  0  0  0  0
  5  4  1  0  0  0  0
  6  1  1  0  0  0  0
  8  9  1  6  0  0  0
  8  2  1  0  0  0  0
 10  3  1  0  0  0  0
 12 10  1  0  0  0  0
 12 11  1  1  0  0  0
 13 14  2  0  0  0  0
 14 12  1  0  0  0  0
 15 14  1  0  0  0  0
 16 15  1  0  0  0  0
 16 23  1  0  0  0  0
 17 23  2  0  0  0  0
 17 22  1  0  0  0  0
 18 20  1  0  0  0  0
 18 25  2  0  0  0  0
 20 16  2  0  0  0  0
 22 21  2  0  0  0  0
 23 24  1  0  0  0  0
 24 21  1  0  0  0  0
 24 19  1  0  0  0  0
 25 17  1  0  0  0  0
 27 26  1  0  0  0  0
 27 25  1  0  0  0  0
 28 29  1  0  0  0  0
 29 30  1  0  0  0  0
 30 34  1  0  0  0  0
 31 32  2  6  0  0  0
 31 35  1  0  0  0  0
 31 34  1  0  0  0  0
 33 31  1  0  0  0  0
 34 36  1  1  0  0  0
 35 34  1  0  0  0  0
 35 37  1  1  0  0  0
 37 38  1  0  0  0  0
 39 37  1  0  0  0  0
 39 38  1  0  0  0  0
M  END
>  <MODEL>
9

>  <REMARK>
 VINA RESULT:      -6.2      1.339      2.404
  Name = 
  11 active torsions:
  status: ('A' for Active; 'I' for Inactive)
    1  A    between atoms: C_3  and  C_11
    2  A    between atoms: C_5  and  C_7
    3  A    between atoms: C_7  and  C_34
    4  A    between atoms: C_10  and  O_26
    5  A    between atoms: C_11  and  C_37
    6  A    between atoms: O_16  and  C_38
    7  A    between atoms: C_22  and  O_26
    8  A    between atoms: C_22  and  C_27
    9  A    between atoms: C_27  and  C_30
   10  A    between atoms: N_31  and  C_32
   11  A    between atoms: C_34  and  C_37
                            x       y       z     vdW  Elec       q    Type
                         _______ _______ _______ _____ _____    ______ ____

>  <TORSDO>
F 11

$$$$
