=
 OpenBabel11072410303D

 32 34  0  0  1  0  0  0  0  0999 V2000
  161.3180  207.7050  148.7240 N   0  0  0  0  0  0  0  0  0  0  0  0
  161.6390  208.4820  149.8820 C   0  0  0  0  0  0  0  0  0  0  0  0
  162.0930  209.6460  149.7210 O   0  0  0  0  0  0  0  0  0  0  0  0
  161.3120  203.3650  146.4920 C   0  0  0  0  0  3  0  0  0  0  0  0
  161.3420  205.4030  145.2110 C   0  0  0  0  0  0  0  0  0  0  0  0
  161.3780  206.0760  143.9580 N   0  0  0  0  0  1  0  0  0  0  0  0
  161.3460  204.0090  145.2540 C   0  0  0  0  0  3  0  0  0  0  0  0
  161.2750  204.1150  147.6690 C   0  0  0  0  0  0  0  0  0  0  0  0
  161.2000  206.3100  148.7730 N   0  0  0  0  0  0  0  0  0  0  0  0
  161.3000  206.1220  146.3650 N   0  0  0  0  0  0  0  0  0  0  0  0
  161.2610  205.5180  147.5860 C   0  0  0  0  0  0  0  0  0  0  0  0
  161.2550  203.4090  148.9850 C   0  0  0  0  0  2  0  0  0  0  0  0
  160.2840  202.2430  148.9470 C   0  0  0  0  0  2  0  0  0  0  0  0
  161.4970  200.2010  148.1080 N   0  0  0  0  0  1  0  0  0  0  0  0
  161.0140  200.9730  149.2010 C   0  0  0  0  0  0  0  0  0  0  0  0
  161.2300  200.5930  150.3810 O   0  0  0  0  0  0  0  0  0  0  0  0
  161.4130  206.0980  152.8070 C   0  0  0  0  0  3  0  0  0  0  0  0
  161.0190  208.3490  153.6240 C   0  0  0  0  0  0  0  0  0  0  0  0
  161.4400  207.9660  151.2520 C   0  0  0  0  0  0  0  0  0  0  0  0
  161.1710  208.8370  152.3190 C   0  0  0  0  0  3  0  0  0  0  0  0
  161.5700  206.5940  151.5100 C   0  0  0  0  0  3  0  0  0  0  0  0
  161.1370  206.9740  153.8600 C   0  0  0  0  0  3  0  0  0  0  0  0
  161.6040  209.4110  155.6580 O   0  0  0  0  0  0  0  0  0  0  0  0
  160.7510  209.2700  154.7390 C   0  0  0  0  0  0  0  0  0  0  0  0
  159.5430  209.9840  154.7730 O   0  0  0  0  0  0  0  0  0  0  0  0
  158.2350  212.8110  152.6490 C   0  0  0  0  0  2  0  0  0  0  0  0
  157.9200  213.1760  155.1260 C   0  0  0  0  0  3  0  0  0  0  0  0
  160.6520  211.8570  154.0610 O   0  0  0  0  0  1  0  0  0  0  0  0
  159.3870  211.3330  154.3260 C   0  0  1  0  0  0  0  0  0  0  0  0
  157.5860  213.4870  153.7690 N   0  0  0  0  0  2  0  0  0  0  0  0
  158.5590  211.3680  153.0300 C   0  0  0  0  0  2  0  0  0  0  0  0
  158.7440  212.1650  155.4100 C   0  0  0  0  0  3  0  0  0  0  0  0
  1  9  2  0  0  0  0
  1  2  1  0  0  0  0
  2 19  1  0  0  0  0
  3  2  2  0  0  0  0
  4  8  2  0  0  0  0
  5  7  2  0  0  0  0
  5 10  1  0  0  0  0
  6  5  1  0  0  0  0
  7  4  1  0  0  0  0
  8 12  1  0  0  0  0
 10 11  2  0  0  0  0
 11  8  1  0  0  0  0
 11  9  1  0  0  0  0
 13 12  1  0  0  0  0
 13 15  1  0  0  0  0
 14 15  1  0  0  0  0
 15 16  2  0  0  0  0
 17 22  1  0  0  0  0
 18 22  2  0  0  0  0
 18 24  1  0  0  0  0
 19 21  1  0  0  0  0
 19 20  2  0  0  0  0
 20 18  1  0  0  0  0
 21 17  2  0  0  0  0
 24 25  1  0  0  0  0
 24 23  2  0  0  0  0
 26 31  1  0  0  0  0
 26 30  1  0  0  0  0
 27 32  2  0  0  0  0
 29 28  1  6  0  0  0
 29 25  1  0  0  0  0
 29 32  1  0  0  0  0
 30 27  1  0  0  0  0
 31 29  1  0  0  0  0
M  END
>  <MODEL>
1

>  <REMARK>
 VINA RESULT:      -8.7      0.000      0.000
  Name = 
  8 active torsions:
  status: ('A' for Active; 'I' for Inactive)
    1  A    between atoms: O_4  and  C_21
    2  A    between atoms: O_4  and  C_23
    3  A    between atoms: N_6  and  N_24
    4  A    between atoms: C_7  and  C_17
    5  A    between atoms: C_10  and  C_15
    6  A    between atoms: C_14  and  C_21
    7  A    between atoms: C_17  and  C_18
    8  A    between atoms: C_18  and  C_20
                            x       y       z     vdW  Elec       q    Type
                         _______ _______ _______ _____ _____    ______ ____

>  <TORSDO>
F 8

$$$$
=
 OpenBabel11072410303D

 32 34  0  0  1  0  0  0  0  0999 V2000
  161.4980  205.1820  152.0830 N   0  0  0  0  0  2  0  0  0  0  0  0
  161.1950  206.3060  152.9160 C   0  0  0  0  0  0  0  0  0  0  0  0
  160.8050  206.0950  154.0950 O   0  0  0  0  0  0  0  0  0  0  0  0
  160.9650  203.1760  147.6660 C   0  0  0  0  0  3  0  0  0  0  0  0
  160.8810  201.8140  149.6500 C   0  0  0  0  0  0  0  0  0  0  0  0
  160.7180  200.5470  150.2730 N   0  0  0  0  0  1  0  0  0  0  0  0
  160.8050  201.9240  148.2610 C   0  0  0  0  0  3  0  0  0  0  0  0
  161.2000  204.3020  148.4580 C   0  0  0  0  0  0  0  0  0  0  0  0
  161.5430  205.2810  150.6860 N   0  0  0  0  0  2  0  0  0  0  0  0
  161.1160  202.9180  150.4090 N   0  0  0  0  0  0  0  0  0  0  0  0
  161.2810  204.1510  149.8530 C   0  0  0  0  0  0  0  0  0  0  0  0
  161.3530  205.6360  147.8050 C   0  0  0  0  0  2  0  0  0  0  0  0
  162.1830  205.5150  146.5400 C   0  0  0  0  0  2  0  0  0  0  0  0
  160.0720  206.2130  145.3550 N   0  0  0  0  0  1  0  0  0  0  0  0
  161.2880  205.4750  145.3530 C   0  0  0  0  0  0  0  0  0  0  0  0
  161.6180  204.8120  144.3360 O   0  0  0  0  0  0  0  0  0  0  0  0
  162.3040  209.2900  150.8780 C   0  0  0  0  0  3  0  0  0  0  0  0
  160.7120  210.0520  152.5430 C   0  0  0  0  0  0  0  0  0  0  0  0
  161.3390  207.6970  152.4380 C   0  0  0  0  0  0  0  0  0  0  0  0
  160.6020  208.7380  153.0210 C   0  0  0  0  0  3  0  0  0  0  0  0
  162.1830  207.9830  151.3560 C   0  0  0  0  0  3  0  0  0  0  0  0
  161.5720  210.3210  151.4710 C   0  0  0  0  0  3  0  0  0  0  0  0
  158.7570  211.3730  152.7360 O   0  0  0  0  0  0  0  0  0  0  0  0
  159.9260  211.1360  153.1500 C   0  0  0  0  0  0  0  0  0  0  0  0
  160.4830  211.9020  154.1850 O   0  0  0  0  0  0  0  0  0  0  0  0
  159.8370  209.8200  157.2610 C   0  0  0  0  0  2  0  0  0  0  0  0
  162.2460  209.7940  156.5080 C   0  0  0  0  0  3  0  0  0  0  0  0
  160.5820  212.5430  156.3810 O   0  0  0  0  0  1  0  0  0  0  0  0
  160.6630  211.4430  155.5270 C   0  0  1  0  0  0  0  0  0  0  0  0
  161.1690  209.2230  157.2610 N   0  0  0  0  0  2  0  0  0  0  0  0
  159.5490  210.4500  155.8990 C   0  0  0  0  0  2  0  0  0  0  0  0
  162.0290  210.8190  155.6810 C   0  0  0  0  0  3  0  0  0  0  0  0
  1  2  1  0  0  0  0
  2  3  2  0  0  0  0
  4  7  1  0  0  0  0
  4  8  2  0  0  0  0
  5  6  1  0  0  0  0
  5 10  1  0  0  0  0
  7  5  2  0  0  0  0
  8 11  1  0  0  0  0
  9  1  1  0  0  0  0
 11 10  2  0  0  0  0
 11  9  1  0  0  0  0
 12  8  1  0  0  0  0
 13 12  1  0  0  0  0
 15 14  1  0  0  0  0
 15 13  1  0  0  0  0
 16 15  2  0  0  0  0
 17 21  2  0  0  0  0
 17 22  1  0  0  0  0
 18 20  1  0  0  0  0
 18 24  1  0  0  0  0
 19  2  1  0  0  0  0
 19 20  2  0  0  0  0
 21 19  1  0  0  0  0
 22 18  2  0  0  0  0
 23 24  2  0  0  0  0
 24 25  1  0  0  0  0
 25 29  1  0  0  0  0
 26 30  1  0  0  0  0
 27 30  1  0  0  0  0
 29 32  1  0  0  0  0
 29 31  1  0  0  0  0
 29 28  1  1  0  0  0
 31 26  1  0  0  0  0
 32 27  2  0  0  0  0
M  END
>  <MODEL>
2

>  <REMARK>
 VINA RESULT:      -8.4      2.511      4.321
  Name = 
  8 active torsions:
  status: ('A' for Active; 'I' for Inactive)
    1  A    between atoms: O_4  and  C_21
    2  A    between atoms: O_4  and  C_23
    3  A    between atoms: N_6  and  N_24
    4  A    between atoms: C_7  and  C_17
    5  A    between atoms: C_10  and  C_15
    6  A    between atoms: C_14  and  C_21
    7  A    between atoms: C_17  and  C_18
    8  A    between atoms: C_18  and  C_20
                            x       y       z     vdW  Elec       q    Type
                         _______ _______ _______ _____ _____    ______ ____

>  <TORSDO>
F 8

$$$$
=
 OpenBabel11072410303D

 32 34  0  0  1  0  0  0  0  0999 V2000
  161.7700  210.3460  152.4490 N   0  0  0  0  0  2  0  0  0  0  0  0
  161.8380  209.3820  151.3930 C   0  0  0  0  0  0  0  0  0  0  0  0
  162.1020  209.7820  150.2280 O   0  0  0  0  0  0  0  0  0  0  0  0
  158.0780  211.1730  155.5320 C   0  0  0  0  0  3  0  0  0  0  0  0
  158.4100  212.5840  153.6100 C   0  0  0  0  0  0  0  0  0  0  0  0
  158.0110  213.6810  152.7970 N   0  0  0  0  0  1  0  0  0  0  0  0
  157.6730  212.2540  154.7470 C   0  0  0  0  0  3  0  0  0  0  0  0
  159.2100  210.4360  155.1770 C   0  0  0  0  0  0  0  0  0  0  0  0
  161.1080  210.0830  153.6560 N   0  0  0  0  0  2  0  0  0  0  0  0
  159.5140  211.8610  153.2780 N   0  0  0  0  0  0  0  0  0  0  0  0
  159.9330  210.8050  154.0300 C   0  0  0  0  0  0  0  0  0  0  0  0
  159.6190  209.2730  156.0200 C   0  0  0  0  0  2  0  0  0  0  0  0
  160.4710  209.7370  157.1860 C   0  0  0  0  0  2  0  0  0  0  0  0
  162.8630  210.4170  156.7790 N   0  0  0  0  0  1  0  0  0  0  0  0
  161.8950  209.3870  156.9400 C   0  0  0  0  0  0  0  0  0  0  0  0
  162.2510  208.1800  156.9030 O   0  0  0  0  0  0  0  0  0  0  0  0
  161.3310  206.0920  153.1840 C   0  0  0  0  0  3  0  0  0  0  0  0
  161.1830  205.6920  150.7960 C   0  0  0  0  0  0  0  0  0  0  0  0
  161.6230  207.9400  151.6340 C   0  0  0  0  0  0  0  0  0  0  0  0
  161.4230  207.0540  150.5650 C   0  0  0  0  0  3  0  0  0  0  0  0
  161.5640  207.4490  152.9450 C   0  0  0  0  0  3  0  0  0  0  0  0
  161.1430  205.2170  152.1120 C   0  0  0  0  0  3  0  0  0  0  0  0
  161.2140  203.5420  149.8040 O   0  0  0  0  0  0  0  0  0  0  0  0
  160.9620  204.7710  149.6700 C   0  0  0  0  0  0  0  0  0  0  0  0
  160.4720  205.2690  148.4530 O   0  0  0  0  0  0  0  0  0  0  0  0
  162.2730  204.1460  145.3370 C   0  0  0  0  0  2  0  0  0  0  0  0
  160.6070  205.9990  144.9320 C   0  0  0  0  0  3  0  0  0  0  0  0
  162.4330  206.0680  147.5790 O   0  0  0  0  0  1  0  0  0  0  0  0
  161.2490  205.4010  147.2600 C   0  0  1  0  0  0  0  0  0  0  0  0
  161.4260  204.9300  144.4430 N   0  0  0  0  0  2  0  0  0  0  0  0
  161.6030  204.0120  146.7030 C   0  0  0  0  0  2  0  0  0  0  0  0
  160.4970  206.2250  146.2430 C   0  0  0  0  0  3  0  0  0  0  0  0
  1  9  1  0  0  0  0
  2 19  1  0  0  0  0
  2  1  1  0  0  0  0
  3  2  2  0  0  0  0
  5  7  2  0  0  0  0
  6  5  1  0  0  0  0
  7  4  1  0  0  0  0
  8  4  2  0  0  0  0
  8 12  1  0  0  0  0
  9 11  1  0  0  0  0
 10  5  1  0  0  0  0
 10 11  2  0  0  0  0
 11  8  1  0  0  0  0
 12 13  1  0  0  0  0
 14 15  1  0  0  0  0
 15 13  1  0  0  0  0
 16 15  2  0  0  0  0
 18 22  1  0  0  0  0
 19 21  2  0  0  0  0
 20 18  2  0  0  0  0
 20 19  1  0  0  0  0
 21 17  1  0  0  0  0
 22 17  2  0  0  0  0
 24 23  2  0  0  0  0
 24 18  1  0  0  0  0
 25 24  1  0  0  0  0
 26 31  1  0  0  0  0
 27 32  2  0  0  0  0
 29 28  1  1  0  0  0
 29 25  1  0  0  0  0
 30 27  1  0  0  0  0
 30 26  1  0  0  0  0
 31 29  1  0  0  0  0
 32 29  1  0  0  0  0
M  END
>  <MODEL>
3

>  <REMARK>
 VINA RESULT:      -8.4      2.437      9.065
  Name = 
  8 active torsions:
  status: ('A' for Active; 'I' for Inactive)
    1  A    between atoms: O_4  and  C_21
    2  A    between atoms: O_4  and  C_23
    3  A    between atoms: N_6  and  N_24
    4  A    between atoms: C_7  and  C_17
    5  A    between atoms: C_10  and  C_15
    6  A    between atoms: C_14  and  C_21
    7  A    between atoms: C_17  and  C_18
    8  A    between atoms: C_18  and  C_20
                            x       y       z     vdW  Elec       q    Type
                         _______ _______ _______ _____ _____    ______ ____

>  <TORSDO>
F 8

$$$$
=
 OpenBabel11072410303D

 32 34  0  0  1  0  0  0  0  0999 V2000
  161.5380  205.6250  152.2780 N   0  0  0  0  0  2  0  0  0  0  0  0
  161.1290  206.7120  153.1150 C   0  0  0  0  0  0  0  0  0  0  0  0
  160.7900  206.4640  154.3030 O   0  0  0  0  0  0  0  0  0  0  0  0
  160.9650  203.5900  147.8800 C   0  0  0  0  0  3  0  0  0  0  0  0
  160.9850  202.2310  149.8660 C   0  0  0  0  0  0  0  0  0  0  0  0
  160.8870  200.9600  150.4950 N   0  0  0  0  0  1  0  0  0  0  0  0
  160.8680  202.3340  148.4800 C   0  0  0  0  0  3  0  0  0  0  0  0
  161.1780  204.7260  148.6630 C   0  0  0  0  0  0  0  0  0  0  0  0
  161.5420  205.7230  150.8800 N   0  0  0  0  0  2  0  0  0  0  0  0
  161.1980  203.3450  150.6180 N   0  0  0  0  0  0  0  0  0  0  0  0
  161.3010  204.5820  150.0560 C   0  0  0  0  0  0  0  0  0  0  0  0
  161.2630  206.0630  148.0040 C   0  0  0  0  0  2  0  0  0  0  0  0
  162.0850  205.9760  146.7320 C   0  0  0  0  0  2  0  0  0  0  0  0
  161.5940  205.0740  144.4310 N   0  0  0  0  0  1  0  0  0  0  0  0
  161.1820  205.8380  145.5580 C   0  0  0  0  0  0  0  0  0  0  0  0
  160.0430  206.3720  145.5720 O   0  0  0  0  0  0  0  0  0  0  0  0
  160.6980  210.4670  153.0490 C   0  0  0  0  0  3  0  0  0  0  0  0
  161.5590  209.7600  150.8940 C   0  0  0  0  0  0  0  0  0  0  0  0
  161.1080  208.1080  152.6320 C   0  0  0  0  0  0  0  0  0  0  0  0
  161.5460  208.4300  151.3390 C   0  0  0  0  0  3  0  0  0  0  0  0
  160.6940  209.1400  153.4860 C   0  0  0  0  0  3  0  0  0  0  0  0
  161.1280  210.7750  151.7560 C   0  0  0  0  0  3  0  0  0  0  0  0
  161.9960  209.2160  148.6310 O   0  0  0  0  0  0  0  0  0  0  0  0
  162.0330  210.0900  149.5410 C   0  0  0  0  0  0  0  0  0  0  0  0
  162.5260  211.3760  149.2740 O   0  0  0  0  0  0  0  0  0  0  0  0
  162.0150  214.3720  147.0430 C   0  0  0  0  0  2  0  0  0  0  0  0
  160.6130  212.3760  146.3950 C   0  0  0  0  0  3  0  0  0  0  0  0
  161.0130  213.0800  149.5070 O   0  0  0  0  0  1  0  0  0  0  0  0
  161.8000  212.3940  148.5810 C   0  0  1  0  0  0  0  0  0  0  0  0
  161.2070  213.6390  146.0730 N   0  0  0  0  0  2  0  0  0  0  0  0
  162.7760  213.3910  147.9330 C   0  0  0  0  0  2  0  0  0  0  0  0
  160.8890  211.7700  147.5510 C   0  0  0  0  0  3  0  0  0  0  0  0
  1  2  1  0  0  0  0
  2  3  2  0  0  0  0
  4  7  1  0  0  0  0
  4  8  2  0  0  0  0
  5  6  1  0  0  0  0
  5 10  1  0  0  0  0
  7  5  2  0  0  0  0
  8 11  1  0  0  0  0
  9  1  1  0  0  0  0
 11 10  2  0  0  0  0
 11  9  1  0  0  0  0
 12  8  1  0  0  0  0
 13 12  1  0  0  0  0
 14 15  1  0  0  0  0
 15 16  2  0  0  0  0
 15 13  1  0  0  0  0
 17 21  1  0  0  0  0
 18 20  2  0  0  0  0
 18 22  1  0  0  0  0
 19  2  1  0  0  0  0
 19 21  2  0  0  0  0
 20 19  1  0  0  0  0
 22 17  2  0  0  0  0
 23 24  2  0  0  0  0
 24 18  1  0  0  0  0
 25 24  1  0  0  0  0
 26 31  1  0  0  0  0
 27 32  2  0  0  0  0
 29 25  1  0  0  0  0
 29 28  1  1  0  0  0
 30 27  1  0  0  0  0
 30 26  1  0  0  0  0
 31 29  1  0  0  0  0
 32 29  1  0  0  0  0
M  END
>  <MODEL>
4

>  <REMARK>
 VINA RESULT:      -8.2      3.058      5.436
  Name = 
  8 active torsions:
  status: ('A' for Active; 'I' for Inactive)
    1  A    between atoms: O_4  and  C_21
    2  A    between atoms: O_4  and  C_23
    3  A    between atoms: N_6  and  N_24
    4  A    between atoms: C_7  and  C_17
    5  A    between atoms: C_10  and  C_15
    6  A    between atoms: C_14  and  C_21
    7  A    between atoms: C_17  and  C_18
    8  A    between atoms: C_18  and  C_20
                            x       y       z     vdW  Elec       q    Type
                         _______ _______ _______ _____ _____    ______ ____

>  <TORSDO>
F 8

$$$$
=
 OpenBabel11072410303D

 32 34  0  0  1  0  0  0  0  0999 V2000
  161.8920  210.0230  152.1790 N   0  0  0  0  0  2  0  0  0  0  0  0
  161.9290  208.9410  151.2440 C   0  0  0  0  0  0  0  0  0  0  0  0
  162.1980  209.1940  150.0390 O   0  0  0  0  0  0  0  0  0  0  0  0
  158.1560  211.1860  155.0950 C   0  0  0  0  0  3  0  0  0  0  0  0
  158.4600  212.3060  152.9870 C   0  0  0  0  0  0  0  0  0  0  0  0
  158.0340  213.2580  152.0200 N   0  0  0  0  0  1  0  0  0  0  0  0
  157.7240  212.1260  154.1580 C   0  0  0  0  0  3  0  0  0  0  0  0
  159.3110  210.4390  154.8560 C   0  0  0  0  0  0  0  0  0  0  0  0
  161.2290  209.9220  153.4100 N   0  0  0  0  0  2  0  0  0  0  0  0
  159.5870  211.5760  152.7680 N   0  0  0  0  0  0  0  0  0  0  0  0
  160.0310  210.6560  153.6700 C   0  0  0  0  0  0  0  0  0  0  0  0
  159.7480  209.4270  155.8640 C   0  0  0  0  0  2  0  0  0  0  0  0
  160.5920  210.0810  156.9410 C   0  0  0  0  0  2  0  0  0  0  0  0
  163.0530  210.5690  156.7100 N   0  0  0  0  0  1  0  0  0  0  0  0
  162.0010  209.6190  156.8260 C   0  0  0  0  0  0  0  0  0  0  0  0
  162.2680  208.3890  156.8600 O   0  0  0  0  0  0  0  0  0  0  0  0
  161.2100  205.9200  153.3990 C   0  0  0  0  0  3  0  0  0  0  0  0
  161.2990  205.2020  151.0830 C   0  0  0  0  0  0  0  0  0  0  0  0
  161.6750  207.5440  151.6520 C   0  0  0  0  0  0  0  0  0  0  0  0
  161.5760  206.5210  150.6970 C   0  0  0  0  0  3  0  0  0  0  0  0
  161.4790  207.2330  153.0050 C   0  0  0  0  0  3  0  0  0  0  0  0
  161.1220  204.9070  152.4400 C   0  0  0  0  0  3  0  0  0  0  0  0
  160.3610  203.1950  150.2460 O   0  0  0  0  0  0  0  0  0  0  0  0
  161.1830  204.1380  150.0740 C   0  0  0  0  0  0  0  0  0  0  0  0
  161.9910  204.1770  148.9280 O   0  0  0  0  0  0  0  0  0  0  0  0
  162.2240  205.6290  145.4560 C   0  0  0  0  0  2  0  0  0  0  0  0
  161.3010  203.2810  145.5130 C   0  0  0  0  0  3  0  0  0  0  0  0
  160.4150  205.3800  147.7820 O   0  0  0  0  0  1  0  0  0  0  0  0
  161.5380  204.5660  147.6290 C   0  0  1  0  0  0  0  0  0  0  0  0
  161.9000  204.3670  144.7970 N   0  0  0  0  0  2  0  0  0  0  0  0
  162.6320  205.3690  146.9050 C   0  0  0  0  0  2  0  0  0  0  0  0
  161.1370  203.3450  146.8360 C   0  0  0  0  0  3  0  0  0  0  0  0
  1  9  1  0  0  0  0
  2 19  1  0  0  0  0
  2  1  1  0  0  0  0
  3  2  2  0  0  0  0
  5  7  2  0  0  0  0
  6  5  1  0  0  0  0
  7  4  1  0  0  0  0
  8  4  2  0  0  0  0
  8 12  1  0  0  0  0
  9 11  1  0  0  0  0
 10  5  1  0  0  0  0
 10 11  2  0  0  0  0
 11  8  1  0  0  0  0
 12 13  1  0  0  0  0
 14 15  1  0  0  0  0
 15 16  2  0  0  0  0
 15 13  1  0  0  0  0
 18 22  1  0  0  0  0
 19 21  2  0  0  0  0
 20 18  2  0  0  0  0
 20 19  1  0  0  0  0
 21 17  1  0  0  0  0
 22 17  2  0  0  0  0
 24 23  2  0  0  0  0
 24 18  1  0  0  0  0
 25 24  1  0  0  0  0
 26 31  1  0  0  0  0
 27 32  2  0  0  0  0
 29 28  1  1  0  0  0
 29 25  1  0  0  0  0
 30 26  1  0  0  0  0
 30 27  1  0  0  0  0
 31 29  1  0  0  0  0
 32 29  1  0  0  0  0
M  END
>  <MODEL>
5

>  <REMARK>
 VINA RESULT:      -8.2      2.445      9.052
  Name = 
  8 active torsions:
  status: ('A' for Active; 'I' for Inactive)
    1  A    between atoms: O_4  and  C_21
    2  A    between atoms: O_4  and  C_23
    3  A    between atoms: N_6  and  N_24
    4  A    between atoms: C_7  and  C_17
    5  A    between atoms: C_10  and  C_15
    6  A    between atoms: C_14  and  C_21
    7  A    between atoms: C_17  and  C_18
    8  A    between atoms: C_18  and  C_20
                            x       y       z     vdW  Elec       q    Type
                         _______ _______ _______ _____ _____    ______ ____

>  <TORSDO>
F 8

$$$$
=
 OpenBabel11072410303D

 32 34  0  0  1  0  0  0  0  0999 V2000
  161.3750  205.2460  152.2020 N   0  0  0  0  0  2  0  0  0  0  0  0
  161.0790  206.3950  153.0030 C   0  0  0  0  0  0  0  0  0  0  0  0
  160.6470  206.2190  154.1730 O   0  0  0  0  0  0  0  0  0  0  0  0
  160.9820  203.1470  147.8140 C   0  0  0  0  0  3  0  0  0  0  0  0
  160.8300  201.8280  149.8220 C   0  0  0  0  0  0  0  0  0  0  0  0
  160.6450  200.5740  150.4670 N   0  0  0  0  0  1  0  0  0  0  0  0
  160.7990  201.9080  148.4300 C   0  0  0  0  0  3  0  0  0  0  0  0
  161.1930  204.2890  148.5890 C   0  0  0  0  0  0  0  0  0  0  0  0
  161.4660  205.3150  150.8050 N   0  0  0  0  0  2  0  0  0  0  0  0
  161.0420  202.9480  150.5650 N   0  0  0  0  0  0  0  0  0  0  0  0
  161.2280  204.1680  149.9890 C   0  0  0  0  0  0  0  0  0  0  0  0
  161.3700  205.6080  147.9130 C   0  0  0  0  0  2  0  0  0  0  0  0
  162.1040  205.4360  146.5960 C   0  0  0  0  0  2  0  0  0  0  0  0
  161.5880  205.4530  144.1300 N   0  0  0  0  0  1  0  0  0  0  0  0
  161.1850  205.7330  145.4650 C   0  0  0  0  0  0  0  0  0  0  0  0
  160.0400  206.2050  145.6890 O   0  0  0  0  0  0  0  0  0  0  0  0
  161.9580  209.2790  150.7230 C   0  0  0  0  0  3  0  0  0  0  0  0
  161.0650  210.1840  152.7900 C   0  0  0  0  0  0  0  0  0  0  0  0
  161.2780  207.7710  152.5030 C   0  0  0  0  0  0  0  0  0  0  0  0
  160.9090  208.8790  153.2800 C   0  0  0  0  0  3  0  0  0  0  0  0
  161.7930  207.9820  151.2160 C   0  0  0  0  0  3  0  0  0  0  0  0
  161.5960  210.3760  151.5090 C   0  0  0  0  0  3  0  0  0  0  0  0
  161.0260  211.4150  154.8120 O   0  0  0  0  0  0  0  0  0  0  0  0
  160.6640  211.3400  153.6050 C   0  0  0  0  0  0  0  0  0  0  0  0
  159.8790  212.3530  153.0330 O   0  0  0  0  0  0  0  0  0  0  0  0
  156.5000  211.8530  154.6290 C   0  0  0  0  0  2  0  0  0  0  0  0
  157.7570  213.8510  155.5230 C   0  0  0  0  0  3  0  0  0  0  0  0
  157.8560  213.2030  152.3750 O   0  0  0  0  0  1  0  0  0  0  0  0
  158.5630  212.7020  153.4690 C   0  0  1  0  0  0  0  0  0  0  0  0
  156.7200  212.8720  155.6520 N   0  0  0  0  0  2  0  0  0  0  0  0
  157.8320  211.4560  153.9970 C   0  0  0  0  0  2  0  0  0  0  0  0
  158.6370  213.7820  154.5220 C   0  0  0  0  0  3  0  0  0  0  0  0
  1  2  1  0  0  0  0
  2  3  2  0  0  0  0
  4  7  1  0  0  0  0
  4  8  2  0  0  0  0
  5  6  1  0  0  0  0
  5 10  1  0  0  0  0
  7  5  2  0  0  0  0
  8 11  1  0  0  0  0
  9  1  1  0  0  0  0
 11 10  2  0  0  0  0
 11  9  1  0  0  0  0
 12  8  1  0  0  0  0
 13 12  1  0  0  0  0
 14 15  1  0  0  0  0
 15 16  2  0  0  0  0
 15 13  1  0  0  0  0
 17 21  2  0  0  0  0
 17 22  1  0  0  0  0
 18 20  1  0  0  0  0
 18 24  1  0  0  0  0
 19  2  1  0  0  0  0
 19 20  2  0  0  0  0
 21 19  1  0  0  0  0
 22 18  2  0  0  0  0
 24 23  2  0  0  0  0
 25 29  1  0  0  0  0
 25 24  1  0  0  0  0
 26 30  1  0  0  0  0
 27 30  1  0  0  0  0
 29 28  1  6  0  0  0
 29 31  1  0  0  0  0
 29 32  1  0  0  0  0
 31 26  1  0  0  0  0
 32 27  2  0  0  0  0
M  END
>  <MODEL>
6

>  <REMARK>
 VINA RESULT:      -8.1      2.077      3.897
  Name = 
  8 active torsions:
  status: ('A' for Active; 'I' for Inactive)
    1  A    between atoms: O_4  and  C_21
    2  A    between atoms: O_4  and  C_23
    3  A    between atoms: N_6  and  N_24
    4  A    between atoms: C_7  and  C_17
    5  A    between atoms: C_10  and  C_15
    6  A    between atoms: C_14  and  C_21
    7  A    between atoms: C_17  and  C_18
    8  A    between atoms: C_18  and  C_20
                            x       y       z     vdW  Elec       q    Type
                         _______ _______ _______ _____ _____    ______ ____

>  <TORSDO>
F 8

$$$$
=
 OpenBabel11072410303D

 32 34  0  0  1  0  0  0  0  0999 V2000
  161.1910  210.7610  152.2030 N   0  0  0  0  0  2  0  0  0  0  0  0
  161.5950  209.7450  151.2790 C   0  0  0  0  0  0  0  0  0  0  0  0
  162.1000  210.0960  150.1800 O   0  0  0  0  0  0  0  0  0  0  0  0
  160.1490  210.4470  156.9600 C   0  0  0  0  0  3  0  0  0  0  0  0
  162.4210  210.7310  156.2190 C   0  0  0  0  0  0  0  0  0  0  0  0
  163.8050  210.8900  156.5060 N   0  0  0  0  0  1  0  0  0  0  0  0
  161.5030  210.6000  157.2610 C   0  0  0  0  0  3  0  0  0  0  0  0
  159.7250  210.4260  155.6300 C   0  0  0  0  0  0  0  0  0  0  0  0
  160.2790  210.5080  153.2370 N   0  0  0  0  0  2  0  0  0  0  0  0
  161.9960  210.7030  154.9270 N   0  0  0  0  0  0  0  0  0  0  0  0
  160.6810  210.5500  154.6070 C   0  0  0  0  0  0  0  0  0  0  0  0
  158.2700  210.2770  155.3280 C   0  0  0  0  0  2  0  0  0  0  0  0
  157.5700  211.6190  155.4180 C   0  0  0  0  0  2  0  0  0  0  0  0
  155.4390  210.2920  155.2010 N   0  0  0  0  0  1  0  0  0  0  0  0
  156.1660  211.4870  154.9450 C   0  0  0  0  0  0  0  0  0  0  0  0
  155.6100  212.4430  154.3430 O   0  0  0  0  0  0  0  0  0  0  0  0
  161.2450  206.5180  153.2170 C   0  0  0  0  0  3  0  0  0  0  0  0
  161.1230  206.0040  150.8490 C   0  0  0  0  0  0  0  0  0  0  0  0
  161.4500  208.3070  151.5840 C   0  0  0  0  0  0  0  0  0  0  0  0
  161.2970  207.3650  150.5570 C   0  0  0  0  0  3  0  0  0  0  0  0
  161.4110  207.8730  152.9170 C   0  0  0  0  0  3  0  0  0  0  0  0
  161.1030  205.5870  152.1850 C   0  0  0  0  0  3  0  0  0  0  0  0
  161.2450  203.8120  149.9600 O   0  0  0  0  0  0  0  0  0  0  0  0
  160.9500  205.0240  149.7660 C   0  0  0  0  0  0  0  0  0  0  0  0
  160.4590  205.4460  148.5210 O   0  0  0  0  0  0  0  0  0  0  0  0
  162.2360  204.0320  145.5110 C   0  0  0  0  0  2  0  0  0  0  0  0
  160.5540  205.8250  144.9440 C   0  0  0  0  0  3  0  0  0  0  0  0
  162.4050  206.1670  147.5510 O   0  0  0  0  0  1  0  0  0  0  0  0
  161.2230  205.4650  147.3120 C   0  0  1  0  0  0  0  0  0  0  0  0
  161.3750  204.7190  144.5530 N   0  0  0  0  0  2  0  0  0  0  0  0
  161.5810  204.0290  146.8910 C   0  0  0  0  0  2  0  0  0  0  0  0
  160.4550  206.1800  146.2270 C   0  0  0  0  0  3  0  0  0  0  0  0
  1  9  1  0  0  0  0
  2 19  1  0  0  0  0
  2  1  1  0  0  0  0
  3  2  2  0  0  0  0
  4  7  1  0  0  0  0
  5  6  1  0  0  0  0
  5  7  2  0  0  0  0
  8  4  2  0  0  0  0
  9 11  1  0  0  0  0
 10  5  1  0  0  0  0
 11 10  2  0  0  0  0
 11  8  1  0  0  0  0
 12 13  1  0  0  0  0
 12  8  1  0  0  0  0
 15 14  1  0  0  0  0
 15 13  1  0  0  0  0
 16 15  2  0  0  0  0
 18 22  1  0  0  0  0
 19 21  2  0  0  0  0
 20 18  2  0  0  0  0
 20 19  1  0  0  0  0
 21 17  1  0  0  0  0
 22 17  2  0  0  0  0
 24 23  2  0  0  0  0
 24 18  1  0  0  0  0
 25 24  1  0  0  0  0
 26 31  1  0  0  0  0
 27 32  2  0  0  0  0
 29 28  1  1  0  0  0
 29 25  1  0  0  0  0
 30 27  1  0  0  0  0
 30 26  1  0  0  0  0
 31 29  1  0  0  0  0
 32 29  1  0  0  0  0
M  END
>  <MODEL>
7

>  <REMARK>
 VINA RESULT:      -8.0      2.861      9.471
  Name = 
  8 active torsions:
  status: ('A' for Active; 'I' for Inactive)
    1  A    between atoms: O_4  and  C_21
    2  A    between atoms: O_4  and  C_23
    3  A    between atoms: N_6  and  N_24
    4  A    between atoms: C_7  and  C_17
    5  A    between atoms: C_10  and  C_15
    6  A    between atoms: C_14  and  C_21
    7  A    between atoms: C_17  and  C_18
    8  A    between atoms: C_18  and  C_20
                            x       y       z     vdW  Elec       q    Type
                         _______ _______ _______ _____ _____    ______ ____

>  <TORSDO>
F 8

$$$$
=
 OpenBabel11072410303D

 32 34  0  0  1  0  0  0  0  0999 V2000
  162.0910  209.7080  151.0310 N   0  0  0  0  0  2  0  0  0  0  0  0
  161.7890  208.4260  150.4730 C   0  0  0  0  0  0  0  0  0  0  0  0
  161.6980  208.3200  149.2200 O   0  0  0  0  0  0  0  0  0  0  0  0
  159.5320  212.1560  154.3890 C   0  0  0  0  0  3  0  0  0  0  0  0
  159.2940  212.6710  152.0500 C   0  0  0  0  0  0  0  0  0  0  0  0
  158.6900  213.4230  151.0050 N   0  0  0  0  0  1  0  0  0  0  0  0
  158.9310  212.9050  153.3770 C   0  0  0  0  0  3  0  0  0  0  0  0
  160.4850  211.1870  154.0710 C   0  0  0  0  0  0  0  0  0  0  0  0
  161.8220  210.0190  152.3710 N   0  0  0  0  0  2  0  0  0  0  0  0
  160.2280  211.7280  151.7540 N   0  0  0  0  0  0  0  0  0  0  0  0
  160.8330  210.9870  152.7240 C   0  0  0  0  0  0  0  0  0  0  0  0
  161.1070  210.3850  155.1670 C   0  0  0  0  0  2  0  0  0  0  0  0
  160.0380  209.6730  155.9750 C   0  0  0  0  0  2  0  0  0  0  0  0
  161.9040  208.1610  156.7340 N   0  0  0  0  0  1  0  0  0  0  0  0
  160.5330  208.3370  156.3990 C   0  0  0  0  0  0  0  0  0  0  0  0
  159.7360  207.3670  156.4890 O   0  0  0  0  0  0  0  0  0  0  0  0
  161.3190  206.2360  153.5180 C   0  0  0  0  0  3  0  0  0  0  0  0
  161.2040  204.8320  151.5430 C   0  0  0  0  0  0  0  0  0  0  0  0
  161.5960  207.2290  151.3170 C   0  0  0  0  0  0  0  0  0  0  0  0
  161.4230  205.9610  150.7410 C   0  0  0  0  0  3  0  0  0  0  0  0
  161.5310  207.3570  152.7120 C   0  0  0  0  0  3  0  0  0  0  0  0
  161.1580  204.9770  152.9340 C   0  0  0  0  0  3  0  0  0  0  0  0
  161.3680  202.4690  151.5520 O   0  0  0  0  0  0  0  0  0  0  0  0
  161.0100  203.5090  150.9310 C   0  0  0  0  0  0  0  0  0  0  0  0
  160.4310  203.4120  149.6560 O   0  0  0  0  0  0  0  0  0  0  0  0
  160.8260  201.6260  146.3600 C   0  0  0  0  0  2  0  0  0  0  0  0
  161.6380  204.0160  146.3210 C   0  0  0  0  0  3  0  0  0  0  0  0
  162.2190  202.1930  148.9060 O   0  0  0  0  0  1  0  0  0  0  0  0
  161.1060  202.9270  148.4940 C   0  0  1  0  0  0  0  0  0  0  0  0
  161.2050  202.8350  145.6350 N   0  0  0  0  0  2  0  0  0  0  0  0
  160.1770  202.0000  147.6910 C   0  0  0  0  0  2  0  0  0  0  0  0
  161.5850  204.0860  147.6530 C   0  0  0  0  0  3  0  0  0  0  0  0
  1  9  1  0  0  0  0
  2  1  1  0  0  0  0
  2 19  1  0  0  0  0
  3  2  2  0  0  0  0
  5  7  2  0  0  0  0
  6  5  1  0  0  0  0
  7  4  1  0  0  0  0
  8  4  2  0  0  0  0
  8 12  1  0  0  0  0
  9 11  1  0  0  0  0
 10  5  1  0  0  0  0
 10 11  2  0  0  0  0
 11  8  1  0  0  0  0
 12 13  1  0  0  0  0
 13 15  1  0  0  0  0
 15 16  2  0  0  0  0
 15 14  1  0  0  0  0
 18 22  2  0  0  0  0
 19 21  1  0  0  0  0
 20 19  2  0  0  0  0
 20 18  1  0  0  0  0
 21 17  2  0  0  0  0
 22 17  1  0  0  0  0
 24 18  1  0  0  0  0
 24 23  2  0  0  0  0
 25 24  1  0  0  0  0
 26 31  1  0  0  0  0
 27 32  2  0  0  0  0
 29 28  1  1  0  0  0
 29 25  1  0  0  0  0
 30 27  1  0  0  0  0
 30 26  1  0  0  0  0
 31 29  1  0  0  0  0
 32 29  1  0  0  0  0
M  END
>  <MODEL>
8

>  <REMARK>
 VINA RESULT:      -8.0      2.401      8.873
  Name = 
  8 active torsions:
  status: ('A' for Active; 'I' for Inactive)
    1  A    between atoms: O_4  and  C_21
    2  A    between atoms: O_4  and  C_23
    3  A    between atoms: N_6  and  N_24
    4  A    between atoms: C_7  and  C_17
    5  A    between atoms: C_10  and  C_15
    6  A    between atoms: C_14  and  C_21
    7  A    between atoms: C_17  and  C_18
    8  A    between atoms: C_18  and  C_20
                            x       y       z     vdW  Elec       q    Type
                         _______ _______ _______ _____ _____    ______ ____

>  <TORSDO>
F 8

$$$$
=
 OpenBabel11072410303D

 32 34  0  0  1  0  0  0  0  0999 V2000
  160.7980  209.5290  154.2500 N   0  0  0  0  0  2  0  0  0  0  0  0
  161.1940  208.1610  154.3910 C   0  0  0  0  0  0  0  0  0  0  0  0
  161.5140  207.7410  155.5350 O   0  0  0  0  0  0  0  0  0  0  0  0
  159.1910  213.0670  151.2970 C   0  0  0  0  0  3  0  0  0  0  0  0
  158.1190  212.6540  153.4130 C   0  0  0  0  0  0  0  0  0  0  0  0
  157.1250  212.9730  154.3780 N   0  0  0  0  0  1  0  0  0  0  0  0
  158.2080  213.3930  152.2330 C   0  0  0  0  0  3  0  0  0  0  0  0
  160.0710  212.0120  151.5460 C   0  0  0  0  0  0  0  0  0  0  0  0
  160.8160  210.1850  153.0120 N   0  0  0  0  0  2  0  0  0  0  0  0
  158.9800  211.6250  153.6410 N   0  0  0  0  0  0  0  0  0  0  0  0
  159.9440  211.2840  152.7410 C   0  0  0  0  0  0  0  0  0  0  0  0
  161.1260  211.6880  150.5400 C   0  0  0  0  0  2  0  0  0  0  0  0
  161.2010  212.7720  149.4820 C   0  0  0  0  0  2  0  0  0  0  0  0
  163.0720  212.2110  147.8900 N   0  0  0  0  0  1  0  0  0  0  0  0
  161.6840  212.1920  148.2000 C   0  0  0  0  0  0  0  0  0  0  0  0
  160.8700  211.6580  147.4030 O   0  0  0  0  0  0  0  0  0  0  0  0
  161.2070  204.9590  152.3820 C   0  0  0  0  0  3  0  0  0  0  0  0
  161.2170  206.8300  150.8370 C   0  0  0  0  0  0  0  0  0  0  0  0
  161.2260  207.2310  153.2430 C   0  0  0  0  0  0  0  0  0  0  0  0
  161.2230  207.7130  151.9260 C   0  0  0  0  0  3  0  0  0  0  0  0
  161.2070  205.8460  153.4610 C   0  0  0  0  0  3  0  0  0  0  0  0
  161.2130  205.4500  151.0740 C   0  0  0  0  0  3  0  0  0  0  0  0
  161.7100  208.4690  149.2000 O   0  0  0  0  0  0  0  0  0  0  0  0
  161.2000  207.3430  149.4590 C   0  0  0  0  0  0  0  0  0  0  0  0
  160.6140  206.5760  148.4400 O   0  0  0  0  0  0  0  0  0  0  0  0
  161.8760  203.6060  146.4910 C   0  0  0  0  0  2  0  0  0  0  0  0
  160.8070  205.3820  145.0520 C   0  0  0  0  0  3  0  0  0  0  0  0
  162.6840  206.2620  147.5100 O   0  0  0  0  0  1  0  0  0  0  0  0
  161.3440  205.8770  147.4300 C   0  0  1  0  0  0  0  0  0  0  0  0
  161.2580  204.0350  145.2410 N   0  0  0  0  0  2  0  0  0  0  0  0
  161.2540  204.3600  147.6650 C   0  0  0  0  0  2  0  0  0  0  0  0
  160.8230  206.2520  146.0630 C   0  0  0  0  0  3  0  0  0  0  0  0
  1  2  1  0  0  0  0
  2  3  2  0  0  0  0
  4  8  2  0  0  0  0
  4  7  1  0  0  0  0
  5 10  1  0  0  0  0
  5  6  1  0  0  0  0
  7  5  2  0  0  0  0
  8 11  1  0  0  0  0
  9  1  1  0  0  0  0
 11  9  1  0  0  0  0
 11 10  2  0  0  0  0
 12  8  1  0  0  0  0
 13 12  1  0  0  0  0
 14 15  1  0  0  0  0
 15 13  1  0  0  0  0
 16 15  2  0  0  0  0
 17 21  1  0  0  0  0
 18 22  1  0  0  0  0
 18 20  2  0  0  0  0
 19 21  2  0  0  0  0
 19  2  1  0  0  0  0
 20 19  1  0  0  0  0
 22 17  2  0  0  0  0
 23 24  2  0  0  0  0
 24 18  1  0  0  0  0
 25 24  1  0  0  0  0
 26 31  1  0  0  0  0
 27 30  1  0  0  0  0
 27 32  2  0  0  0  0
 29 28  1  1  0  0  0
 29 31  1  0  0  0  0
 29 25  1  0  0  0  0
 30 26  1  0  0  0  0
 32 29  1  0  0  0  0
M  END
>  <MODEL>
9

>  <REMARK>
 VINA RESULT:      -7.9      2.488      8.889
  Name = 
  8 active torsions:
  status: ('A' for Active; 'I' for Inactive)
    1  A    between atoms: O_4  and  C_21
    2  A    between atoms: O_4  and  C_23
    3  A    between atoms: N_6  and  N_24
    4  A    between atoms: C_7  and  C_17
    5  A    between atoms: C_10  and  C_15
    6  A    between atoms: C_14  and  C_21
    7  A    between atoms: C_17  and  C_18
    8  A    between atoms: C_18  and  C_20
                            x       y       z     vdW  Elec       q    Type
                         _______ _______ _______ _____ _____    ______ ____

>  <TORSDO>
F 8

$$$$
