=
 OpenBabel11072410463D

 38 40  0  0  1  0  0  0  0  0999 V2000
  160.5150  209.6160  152.5630 C   0  0  0  0  0  0  0  0  0  0  0  0
  160.9860  211.4210  150.9830 C   0  0  0  0  0  2  0  0  0  0  0  0
  160.3240  209.2680  153.8420 C   0  0  0  0  0  3  0  0  0  0  0  0
  160.1410  210.3090  154.9030 C   0  0  1  0  0  3  0  0  0  0  0  0
  160.4620  211.0510  152.1500 C   0  0  0  0  0  0  0  0  0  0  0  0
  160.0280  212.1130  153.1510 C   0  0  2  0  0  3  0  0  0  0  0  0
  159.3410  211.4670  154.3460 C   0  0  0  0  0  0  0  0  0  0  0  0
  158.0410  211.7140  154.6110 C   0  0  0  0  0  3  0  0  0  0  0  0
  159.3320  213.3320  152.5070 C   0  0  0  0  0  3  0  0  0  0  0  0
  158.8860  214.3440  153.5470 C   0  0  0  0  0  1  0  0  0  0  0  0
  158.1780  212.9530  151.5910 C   0  0  0  0  0  1  0  0  0  0  0  0
  156.0310  210.5400  155.0030 O   0  0  0  0  0  1  0  0  0  0  0  0
  157.1870  211.0120  155.6210 C   0  0  2  0  0  3  0  0  0  0  0  0
  155.6730  211.8460  157.2590 O   0  0  0  0  0  1  0  0  0  0  0  0
  156.8150  211.9320  156.7360 C   0  0  0  0  0  0  0  0  0  0  0  0
  157.6900  212.9280  157.1530 O   0  0  0  0  0  0  0  0  0  0  0  0
  159.7170  209.7140  156.2360 C   0  0  0  0  0  2  0  0  0  0  0  0
  162.0510  208.9420  156.6370 O   0  0  0  0  0  0  0  0  0  0  0  0
  160.6910  208.6680  156.6530 C   0  0  0  0  0  0  0  0  0  0  0  0
  160.2810  207.5530  157.0660 O   0  0  0  0  0  1  0  0  0  0  0  0
  160.7340  208.5260  151.5640 C   0  0  0  0  0  2  0  0  0  0  0  0
  162.1950  208.2450  151.4040 C   0  0  0  0  0  3  0  0  0  0  0  0
  162.7150  207.0510  151.4210 N   0  0  0  0  0  0  0  0  0  0  0  0
  161.8090  204.8720  150.6260 C   0  0  0  0  0  3  0  0  0  0  0  0
  162.0460  205.7980  151.6500 C   0  0  0  0  0  0  0  0  0  0  0  0
  160.6580  203.4440  152.1840 C   0  0  0  0  0  3  0  0  0  0  0  0
  160.8790  204.3570  153.1670 N   0  0  0  0  0  0  0  0  0  0  0  0
  161.5520  205.5160  152.9270 C   0  0  0  0  0  3  0  0  0  0  0  0
  161.1210  203.6900  150.8910 C   0  0  0  0  0  0  0  0  0  0  0  0
  160.8640  202.7660  149.8400 N   0  0  0  0  0  0  0  0  0  0  0  0
  161.2030  202.1480  148.5250 C   0  0  1  0  0  3  0  0  0  0  0  0
  160.0520  201.7190  149.1540 C   0  0  0  0  0  2  0  0  0  0  0  0
  160.8670  203.1310  147.4190 C   0  0  0  0  0  2  0  0  0  0  0  0
  161.9510  203.9860  147.2000 O   0  0  0  0  0  0  0  0  0  0  0  0
  160.4560  206.1980  146.3970 O   0  0  0  0  0  1  0  0  0  0  0  0
  160.8160  204.1260  144.8360 O   0  0  0  0  0  0  0  0  0  0  0  0
  161.5010  204.9670  145.8890 P   0  0  0  0  0  0  0  0  0  0  0  0
  162.8870  205.6710  145.2230 O   0  0  0  0  0  1  0  0  0  0  0  0
  1  3  2  0  0  0  0
  2  5  2  0  0  0  0
  3  4  1  0  0  0  0
  4 17  1  1  0  0  0
  5  1  1  0  0  0  0
  5  6  1  0  0  0  0
  6  9  1  6  0  0  0
  6  7  1  0  0  0  0
  7  8  2  0  0  0  0
  7  4  1  0  0  0  0
  8 13  1  0  0  0  0
  9 10  1  0  0  0  0
 11  9  1  0  0  0  0
 13 12  1  6  0  0  0
 13 15  1  0  0  0  0
 15 16  2  0  0  0  0
 15 14  1  0  0  0  0
 17 19  1  0  0  0  0
 18 19  2  0  0  0  0
 19 20  1  0  0  0  0
 21  1  1  0  0  0  0
 22 23  2  0  0  0  0
 22 21  1  0  0  0  0
 23 25  1  0  0  0  0
 24 29  2  0  0  0  0
 24 25  1  0  0  0  0
 25 28  2  0  0  0  0
 26 27  2  0  0  0  0
 28 27  1  0  0  0  0
 29 26  1  0  0  0  0
 30 29  1  0  0  0  0
 31 33  1  6  0  0  0
 31 32  1  0  0  0  0
 31 30  1  0  0  0  0
 32 30  1  0  0  0  0
 34 33  1  0  0  0  0
 36 37  2  0  0  0  0
 37 35  1  0  0  0  0
 37 34  1  0  0  0  0
 38 37  1  0  0  0  0
M  END
>  <MODEL>
1

>  <REMARK>
 VINA RESULT:      -6.6      0.000      0.000
  Name = 
  12 active torsions:
  status: ('A' for Active; 'I' for Inactive)
    1  A    between atoms: C_1  and  C_15
    2  A    between atoms: N_4  and  C_32
    3  A    between atoms: C_6  and  N_21
    4  A    between atoms: C_7  and  C_20
    5  A    between atoms: C_7  and  C_29
    6  A    between atoms: C_8  and  C_19
    7  A    between atoms: C_8  and  O_34
    8  A    between atoms: C_11  and  C_15
    9  A    between atoms: C_13  and  C_18
   10  A    between atoms: C_17  and  C_25
   11  A    between atoms: C_18  and  C_38
   12  A    between atoms: O_34  and  P_35
                            x       y       z     vdW  Elec       q    Type
                         _______ _______ _______ _____ _____    ______ ____

>  <TORSDO>
F 12

$$$$
=
 OpenBabel11072410463D

 38 40  0  0  1  0  0  0  0  0999 V2000
  161.4740  208.7580  152.2390 C   0  0  0  0  0  0  0  0  0  0  0  0
  161.2680  206.4270  152.9470 C   0  0  0  0  0  2  0  0  0  0  0  0
  161.0180  210.0110  152.3640 C   0  0  0  0  0  3  0  0  0  0  0  0
  160.0680  210.3780  153.4620 C   0  0  1  0  0  3  0  0  0  0  0  0
  161.1150  207.7150  153.2480 C   0  0  0  0  0  0  0  0  0  0  0  0
  160.3630  208.1100  154.5120 C   0  0  2  0  0  3  0  0  0  0  0  0
  160.4270  209.6160  154.7200 C   0  0  0  0  0  0  0  0  0  0  0  0
  161.0550  210.1370  155.7950 C   0  0  0  0  0  3  0  0  0  0  0  0
  160.6730  207.2120  155.7290 C   0  0  0  0  0  3  0  0  0  0  0  0
  159.4300  206.9260  156.5530 C   0  0  0  0  0  1  0  0  0  0  0  0
  161.7920  207.7510  156.6070 C   0  0  0  0  0  1  0  0  0  0  0  0
  162.5950  211.6920  156.6780 O   0  0  0  0  0  1  0  0  0  0  0  0
  161.3660  211.5820  156.0320 C   0  0  2  0  0  3  0  0  0  0  0  0
  159.3260  211.5440  157.2610 O   0  0  0  0  0  1  0  0  0  0  0  0
  160.3060  212.2260  156.8650 C   0  0  0  0  0  0  0  0  0  0  0  0
  160.3580  213.5860  157.1470 O   0  0  0  0  0  0  0  0  0  0  0  0
  159.8510  211.8790  153.5670 C   0  0  0  0  0  2  0  0  0  0  0  0
  157.3950  211.8790  153.9870 O   0  0  0  0  0  1  0  0  0  0  0  0
  158.4580  212.2150  153.1600 C   0  0  0  0  0  0  0  0  0  0  0  0
  158.2470  212.8460  152.0930 O   0  0  0  0  0  0  0  0  0  0  0  0
  162.3840  208.4520  151.0940 C   0  0  0  0  0  2  0  0  0  0  0  0
  162.0320  209.2890  149.9040 C   0  0  0  0  0  3  0  0  0  0  0  0
  161.7150  208.8030  148.7380 N   0  0  0  0  0  0  0  0  0  0  0  0
  161.3570  206.3830  149.2060 C   0  0  0  0  0  3  0  0  0  0  0  0
  161.6940  207.4240  148.3300 C   0  0  0  0  0  0  0  0  0  0  0  0
  161.7750  204.7800  147.4610 C   0  0  0  0  0  3  0  0  0  0  0  0
  162.1160  205.7960  146.6230 N   0  0  0  0  0  0  0  0  0  0  0  0
  162.0860  207.0960  147.0290 C   0  0  0  0  0  3  0  0  0  0  0  0
  161.3910  205.0600  148.7720 C   0  0  0  0  0  0  0  0  0  0  0  0
  161.0710  204.0070  149.6750 N   0  0  0  0  0  0  0  0  0  0  0  0
  161.2200  202.6030  150.1580 C   0  0  1  0  0  3  0  0  0  0  0  0
  160.3120  203.4100  150.8120 C   0  0  0  0  0  2  0  0  0  0  0  0
  160.5040  201.6740  149.1950 C   0  0  0  0  0  2  0  0  0  0  0  0
  161.4380  201.0200  148.3850 O   0  0  0  0  0  0  0  0  0  0  0  0
  161.4960  202.3580  145.9400 O   0  0  0  0  0  0  0  0  0  0  0  0
  159.3030  201.2750  146.8770 O   0  0  0  0  0  1  0  0  0  0  0  0
  160.8020  201.0840  146.8120 P   0  0  0  0  0  0  0  0  0  0  0  0
  161.1430  199.6310  146.0180 O   0  0  0  0  0  1  0  0  0  0  0  0
  1  3  2  0  0  0  0
  1  5  1  0  0  0  0
  2  5  2  0  0  0  0
  3  4  1  0  0  0  0
  4 17  1  1  0  0  0
  4  7  1  0  0  0  0
  5  6  1  0  0  0  0
  6  7  1  0  0  0  0
  6  9  1  1  0  0  0
  7  8  2  0  0  0  0
  8 13  1  0  0  0  0
  9 10  1  0  0  0  0
  9 11  1  0  0  0  0
 13 12  1  1  0  0  0
 13 15  1  0  0  0  0
 15 16  2  0  0  0  0
 15 14  1  0  0  0  0
 19 17  1  0  0  0  0
 19 18  1  0  0  0  0
 20 19  2  0  0  0  0
 21  1  1  0  0  0  0
 22 21  1  0  0  0  0
 23 22  2  0  0  0  0
 25 23  1  0  0  0  0
 25 24  2  0  0  0  0
 26 29  2  0  0  0  0
 27 28  2  0  0  0  0
 27 26  1  0  0  0  0
 28 25  1  0  0  0  0
 29 24  1  0  0  0  0
 29 30  1  0  0  0  0
 30 31  1  0  0  0  0
 30 32  1  0  0  0  0
 31 33  1  6  0  0  0
 31 32  1  0  0  0  0
 34 33  1  0  0  0  0
 35 37  2  0  0  0  0
 37 36  1  0  0  0  0
 37 34  1  0  0  0  0
 38 37  1  0  0  0  0
M  END
>  <MODEL>
2

>  <REMARK>
 VINA RESULT:      -5.9      2.433      4.480
  Name = 
  12 active torsions:
  status: ('A' for Active; 'I' for Inactive)
    1  A    between atoms: C_1  and  C_15
    2  A    between atoms: N_4  and  C_32
    3  A    between atoms: C_6  and  N_21
    4  A    between atoms: C_7  and  C_20
    5  A    between atoms: C_7  and  C_29
    6  A    between atoms: C_8  and  C_19
    7  A    between atoms: C_8  and  O_34
    8  A    between atoms: C_11  and  C_15
    9  A    between atoms: C_13  and  C_18
   10  A    between atoms: C_17  and  C_25
   11  A    between atoms: C_18  and  C_38
   12  A    between atoms: O_34  and  P_35
                            x       y       z     vdW  Elec       q    Type
                         _______ _______ _______ _____ _____    ______ ____

>  <TORSDO>
F 12

$$$$
=
 OpenBabel11072410463D

 38 40  0  0  1  0  0  0  0  0999 V2000
  161.1910  209.8370  152.9060 C   0  0  0  0  0  0  0  0  0  0  0  0
  161.3140  207.5690  153.8100 C   0  0  0  0  0  2  0  0  0  0  0  0
  160.4770  210.9660  152.8050 C   0  0  0  0  0  3  0  0  0  0  0  0
  159.2670  211.1880  153.6580 C   0  0  1  0  0  3  0  0  0  0  0  0
  160.8470  208.8100  153.9350 C   0  0  0  0  0  0  0  0  0  0  0  0
  159.7850  209.1140  154.9840 C   0  0  2  0  0  3  0  0  0  0  0  0
  159.5020  210.6080  155.0360 C   0  0  0  0  0  0  0  0  0  0  0  0
  159.7760  211.3240  156.1470 C   0  0  0  0  0  3  0  0  0  0  0  0
  160.0100  208.3870  156.3280 C   0  0  0  0  0  3  0  0  0  0  0  0
  161.4400  208.5320  156.8180 C   0  0  0  0  0  1  0  0  0  0  0  0
  159.5930  206.9240  156.3010 C   0  0  0  0  0  1  0  0  0  0  0  0
  160.7900  213.2370  157.0860 O   0  0  0  0  0  1  0  0  0  0  0  0
  159.7350  212.8140  156.2800 C   0  0  2  0  0  3  0  0  0  0  0  0
  158.3100  214.4530  157.2580 O   0  0  0  0  0  1  0  0  0  0  0  0
  158.4410  213.2600  156.8790 C   0  0  0  0  0  0  0  0  0  0  0  0
  157.4090  212.3530  157.0880 O   0  0  0  0  0  0  0  0  0  0  0  0
  158.7360  212.6090  153.5560 C   0  0  0  0  0  2  0  0  0  0  0  0
  159.9660  213.4460  151.5570 O   0  0  0  0  0  1  0  0  0  0  0  0
  158.7660  213.0570  152.1360 C   0  0  0  0  0  0  0  0  0  0  0  0
  157.7150  213.0360  151.4460 O   0  0  0  0  0  0  0  0  0  0  0  0
  162.3610  209.6620  151.9930 C   0  0  0  0  0  2  0  0  0  0  0  0
  162.1720  210.4530  150.7370 C   0  0  0  0  0  3  0  0  0  0  0  0
  161.9410  209.9240  149.5690 N   0  0  0  0  0  0  0  0  0  0  0  0
  161.5190  207.5390  150.1490 C   0  0  0  0  0  3  0  0  0  0  0  0
  161.8820  208.5290  149.2260 C   0  0  0  0  0  0  0  0  0  0  0  0
  161.8900  205.8460  148.4800 C   0  0  0  0  0  3  0  0  0  0  0  0
  162.2570  206.8130  147.5960 N   0  0  0  0  0  0  0  0  0  0  0  0
  162.2640  208.1300  147.9410 C   0  0  0  0  0  3  0  0  0  0  0  0
  161.5150  206.1970  149.7770 C   0  0  0  0  0  0  0  0  0  0  0  0
  161.1680  205.1960  150.7270 N   0  0  0  0  0  0  0  0  0  0  0  0
  161.5330  204.0850  151.6540 C   0  0  1  0  0  3  0  0  0  0  0  0
  160.1950  204.3980  151.5280 C   0  0  0  0  0  2  0  0  0  0  0  0
  161.8690  202.8530  150.8350 C   0  0  0  0  0  2  0  0  0  0  0  0
  160.7830  201.9730  150.8360 O   0  0  0  0  0  0  0  0  0  0  0  0
  160.9470  202.9050  148.2140 O   0  0  0  0  0  0  0  0  0  0  0  0
  159.0150  201.3230  149.0060 O   0  0  0  0  0  1  0  0  0  0  0  0
  160.4870  201.6120  149.2040 P   0  0  0  0  0  0  0  0  0  0  0  0
  161.3840  200.2460  148.7670 O   0  0  0  0  0  1  0  0  0  0  0  0
  1  5  1  0  0  0  0
  2  5  2  0  0  0  0
  3  1  2  0  0  0  0
  3  4  1  0  0  0  0
  4 17  1  1  0  0  0
  4  7  1  0  0  0  0
  5  6  1  0  0  0  0
  6  7  1  0  0  0  0
  6  9  1  1  0  0  0
  7  8  2  0  0  0  0
  8 13  1  0  0  0  0
  9 10  1  0  0  0  0
 11  9  1  0  0  0  0
 13 15  1  0  0  0  0
 13 12  1  1  0  0  0
 15 16  2  0  0  0  0
 15 14  1  0  0  0  0
 18 19  1  0  0  0  0
 19 17  1  0  0  0  0
 20 19  2  0  0  0  0
 21  1  1  0  0  0  0
 22 21  1  0  0  0  0
 23 22  2  0  0  0  0
 25 23  1  0  0  0  0
 25 24  2  0  0  0  0
 26 29  2  0  0  0  0
 27 28  2  0  0  0  0
 27 26  1  0  0  0  0
 28 25  1  0  0  0  0
 29 24  1  0  0  0  0
 29 30  1  0  0  0  0
 30 32  1  0  0  0  0
 30 31  1  0  0  0  0
 31 33  1  6  0  0  0
 32 31  1  0  0  0  0
 33 34  1  0  0  0  0
 35 37  2  0  0  0  0
 36 37  1  0  0  0  0
 37 34  1  0  0  0  0
 38 37  1  0  0  0  0
M  END
>  <MODEL>
3

>  <REMARK>
 VINA RESULT:      -5.6      2.564      4.496
  Name = 
  12 active torsions:
  status: ('A' for Active; 'I' for Inactive)
    1  A    between atoms: C_1  and  C_15
    2  A    between atoms: N_4  and  C_32
    3  A    between atoms: C_6  and  N_21
    4  A    between atoms: C_7  and  C_20
    5  A    between atoms: C_7  and  C_29
    6  A    between atoms: C_8  and  C_19
    7  A    between atoms: C_8  and  O_34
    8  A    between atoms: C_11  and  C_15
    9  A    between atoms: C_13  and  C_18
   10  A    between atoms: C_17  and  C_25
   11  A    between atoms: C_18  and  C_38
   12  A    between atoms: O_34  and  P_35
                            x       y       z     vdW  Elec       q    Type
                         _______ _______ _______ _____ _____    ______ ____

>  <TORSDO>
F 12

$$$$
=
 OpenBabel11072410463D

 38 40  0  0  1  0  0  0  0  0999 V2000
  161.7790  206.0910  150.3320 C   0  0  0  0  0  0  0  0  0  0  0  0
  161.9460  208.0010  148.8140 C   0  0  0  0  0  2  0  0  0  0  0  0
  161.1460  204.9500  150.6290 C   0  0  0  0  0  3  0  0  0  0  0  0
  160.1900  204.3250  149.6600 C   0  0  1  0  0  3  0  0  0  0  0  0
  161.6140  206.7240  148.9880 C   0  0  0  0  0  0  0  0  0  0  0  0
  160.8540  205.9870  147.8920 C   0  0  2  0  0  3  0  0  0  0  0  0
  160.7010  204.5160  148.2490 C   0  0  0  0  0  0  0  0  0  0  0  0
  161.2800  203.5590  147.4930 C   0  0  0  0  0  3  0  0  0  0  0  0
  161.3360  206.3240  146.4630 C   0  0  0  0  0  3  0  0  0  0  0  0
  160.2340  206.1360  145.4360 C   0  0  0  0  0  1  0  0  0  0  0  0
  162.5920  205.5680  146.0560 C   0  0  0  0  0  1  0  0  0  0  0  0
  162.6690  201.8150  148.2670 O   0  0  0  0  0  1  0  0  0  0  0  0
  161.3800  202.1020  147.8220 C   0  0  2  0  0  3  0  0  0  0  0  0
  160.4700  201.7750  145.6460 O   0  0  0  0  0  0  0  0  0  0  0  0
  161.0680  201.2630  146.6270 C   0  0  0  0  0  0  0  0  0  0  0  0
  161.3690  199.9060  146.6180 O   0  0  0  0  0  1  0  0  0  0  0  0
  159.7560  202.9320  150.0880 C   0  0  0  0  0  2  0  0  0  0  0  0
  160.4620  203.0550  152.4740 O   0  0  0  0  0  1  0  0  0  0  0  0
  160.5990  202.4680  151.2230 C   0  0  0  0  0  0  0  0  0  0  0  0
  161.4020  201.5120  151.0640 O   0  0  0  0  0  0  0  0  0  0  0  0
  162.6850  206.6830  151.3620 C   0  0  0  0  0  2  0  0  0  0  0  0
  162.3710  206.1310  152.7180 C   0  0  0  0  0  3  0  0  0  0  0  0
  161.7180  206.7830  153.6370 N   0  0  0  0  0  0  0  0  0  0  0  0
  161.1010  208.9350  154.7290 C   0  0  0  0  0  3  0  0  0  0  0  0
  161.2300  208.1350  153.5860 C   0  0  0  0  0  0  0  0  0  0  0  0
  160.1850  210.7090  153.3860 C   0  0  0  0  0  3  0  0  0  0  0  0
  160.2990  209.9190  152.2850 N   0  0  0  0  0  0  0  0  0  0  0  0
  160.8040  208.6570  152.3600 C   0  0  0  0  0  3  0  0  0  0  0  0
  160.5850  210.2250  154.6320 C   0  0  0  0  0  0  0  0  0  0  0  0
  160.4350  211.0210  155.8010 N   0  0  0  0  0  0  0  0  0  0  0  0
  159.6810  211.4290  157.0220 C   0  0  1  0  0  3  0  0  0  0  0  0
  160.8440  212.1120  156.7330 C   0  0  0  0  0  2  0  0  0  0  0  0
  158.4700  212.2430  156.6030 C   0  0  0  0  0  2  0  0  0  0  0  0
  157.2990  211.5590  156.9400 O   0  0  0  0  0  0  0  0  0  0  0  0
  155.2030  210.3680  155.5420 O   0  0  0  0  0  1  0  0  0  0  0  0
  157.1520  211.6190  154.3200 O   0  0  0  0  0  0  0  0  0  0  0  0
  156.3020  211.6540  155.5700 P   0  0  0  0  0  0  0  0  0  0  0  0
  155.4390  213.1070  155.6130 O   0  0  0  0  0  1  0  0  0  0  0  0
  1  3  2  0  0  0  0
  1 21  1  0  0  0  0
  2  5  2  0  0  0  0
  4 17  1  1  0  0  0
  4  3  1  0  0  0  0
  5  1  1  0  0  0  0
  6  9  1  6  0  0  0
  6  7  1  0  0  0  0
  6  5  1  0  0  0  0
  7  4  1  0  0  0  0
  8 13  1  0  0  0  0
  8  7  2  0  0  0  0
 10  9  1  0  0  0  0
 11  9  1  0  0  0  0
 13 12  1  6  0  0  0
 14 15  2  0  0  0  0
 15 13  1  0  0  0  0
 16 15  1  0  0  0  0
 17 19  1  0  0  0  0
 19 18  1  0  0  0  0
 20 19  2  0  0  0  0
 21 22  1  0  0  0  0
 22 23  2  0  0  0  0
 25 23  1  0  0  0  0
 25 24  2  0  0  0  0
 26 29  2  0  0  0  0
 27 28  2  0  0  0  0
 27 26  1  0  0  0  0
 28 25  1  0  0  0  0
 29 24  1  0  0  0  0
 29 30  1  0  0  0  0
 30 32  1  0  0  0  0
 30 31  1  0  0  0  0
 31 33  1  6  0  0  0
 32 31  1  0  0  0  0
 33 34  1  0  0  0  0
 35 37  1  0  0  0  0
 36 37  2  0  0  0  0
 37 38  1  0  0  0  0
 37 34  1  0  0  0  0
M  END
>  <MODEL>
4

>  <REMARK>
 VINA RESULT:      -5.5      3.304     10.036
  Name = 
  12 active torsions:
  status: ('A' for Active; 'I' for Inactive)
    1  A    between atoms: C_1  and  C_15
    2  A    between atoms: N_4  and  C_32
    3  A    between atoms: C_6  and  N_21
    4  A    between atoms: C_7  and  C_20
    5  A    between atoms: C_7  and  C_29
    6  A    between atoms: C_8  and  C_19
    7  A    between atoms: C_8  and  O_34
    8  A    between atoms: C_11  and  C_15
    9  A    between atoms: C_13  and  C_18
   10  A    between atoms: C_17  and  C_25
   11  A    between atoms: C_18  and  C_38
   12  A    between atoms: O_34  and  P_35
                            x       y       z     vdW  Elec       q    Type
                         _______ _______ _______ _____ _____    ______ ____

>  <TORSDO>
F 12

$$$$
=
 OpenBabel11072410463D

 38 40  0  0  1  0  0  0  0  0999 V2000
  161.7100  206.3250  151.3030 C   0  0  0  0  0  0  0  0  0  0  0  0
  161.7080  208.7680  151.2070 C   0  0  0  0  0  2  0  0  0  0  0  0
  161.2860  205.1820  150.7500 C   0  0  0  0  0  3  0  0  0  0  0  0
  160.6330  205.1770  149.4020 C   0  0  1  0  0  3  0  0  0  0  0  0
  161.6210  207.6130  150.5510 C   0  0  0  0  0  0  0  0  0  0  0  0
  161.2000  207.6080  149.0870 C   0  0  2  0  0  3  0  0  0  0  0  0
  161.2980  206.2030  148.5110 C   0  0  0  0  0  0  0  0  0  0  0  0
  162.1660  205.9250  147.5150 C   0  0  0  0  0  3  0  0  0  0  0  0
  161.8100  208.7600  148.2580 C   0  0  0  0  0  3  0  0  0  0  0  0
  163.3210  208.6500  148.1640 C   0  0  0  0  0  1  0  0  0  0  0  0
  161.3970  210.1400  148.7460 C   0  0  0  0  0  1  0  0  0  0  0  0
  163.8420  204.5560  146.5710 O   0  0  0  0  0  1  0  0  0  0  0  0
  162.5110  204.5680  146.9860 C   0  0  2  0  0  3  0  0  0  0  0  0
  161.4020  202.9920  145.5860 O   0  0  0  0  0  1  0  0  0  0  0  0
  161.6290  204.2050  145.8360 C   0  0  0  0  0  0  0  0  0  0  0  0
  161.1170  205.1890  145.0000 O   0  0  0  0  0  0  0  0  0  0  0  0
  160.4320  203.7720  148.8580 C   0  0  0  0  0  2  0  0  0  0  0  0
  161.2790  201.5990  149.7350 O   0  0  0  0  0  0  0  0  0  0  0  0
  160.5850  202.7800  149.9580 C   0  0  0  0  0  0  0  0  0  0  0  0
  160.1270  203.0320  151.1020 O   0  0  0  0  0  1  0  0  0  0  0  0
  162.3130  206.2630  152.6700 C   0  0  0  0  0  2  0  0  0  0  0  0
  161.3230  205.7300  153.6580 C   0  0  0  0  0  3  0  0  0  0  0  0
  160.7660  206.4460  154.5920 N   0  0  0  0  0  0  0  0  0  0  0  0
  160.5140  208.8810  154.1340 C   0  0  0  0  0  3  0  0  0  0  0  0
  161.0100  207.8270  154.9120 C   0  0  0  0  0  0  0  0  0  0  0  0
  161.6230  210.4630  155.5700 C   0  0  0  0  0  3  0  0  0  0  0  0
  162.1130  209.4320  156.3090 N   0  0  0  0  0  0  0  0  0  0  0  0
  161.8300  208.1360  156.0030 C   0  0  0  0  0  3  0  0  0  0  0  0
  160.8120  210.2010  154.4640 C   0  0  0  0  0  0  0  0  0  0  0  0
  160.3240  211.2650  153.6550 N   0  0  0  0  0  0  0  0  0  0  0  0
  159.5750  212.5440  153.4830 C   0  0  1  0  0  3  0  0  0  0  0  0
  160.0970  211.9530  152.3510 C   0  0  0  0  0  2  0  0  0  0  0  0
  158.0880  212.2610  153.5910 C   0  0  0  0  0  2  0  0  0  0  0  0
  157.3660  213.4440  153.4040 O   0  0  0  0  0  0  0  0  0  0  0  0
  155.9150  214.1960  155.6610 O   0  0  0  0  0  1  0  0  0  0  0  0
  155.7610  211.7840  154.6540 O   0  0  0  0  0  1  0  0  0  0  0  0
  155.9190  213.2370  154.2670 P   0  0  0  0  0  0  0  0  0  0  0  0
  154.6190  213.6950  153.2870 O   0  0  0  0  0  0  0  0  0  0  0  0
  1 21  1  0  0  0  0
  3  1  2  0  0  0  0
  4 17  1  6  0  0  0
  4  3  1  0  0  0  0
  5  2  2  0  0  0  0
  5  1  1  0  0  0  0
  6  9  1  6  0  0  0
  6  5  1  0  0  0  0
  7  6  1  0  0  0  0
  7  4  1  0  0  0  0
  8  7  2  0  0  0  0
  9 11  1  0  0  0  0
 10  9  1  0  0  0  0
 13 12  1  6  0  0  0
 13  8  1  0  0  0  0
 14 15  1  0  0  0  0
 15 13  1  0  0  0  0
 16 15  2  0  0  0  0
 17 19  1  0  0  0  0
 18 19  2  0  0  0  0
 19 20  1  0  0  0  0
 21 22  1  0  0  0  0
 22 23  2  0  0  0  0
 23 25  1  0  0  0  0
 24 29  2  0  0  0  0
 24 25  1  0  0  0  0
 25 28  2  0  0  0  0
 26 27  2  0  0  0  0
 28 27  1  0  0  0  0
 29 26  1  0  0  0  0
 30 29  1  0  0  0  0
 31 33  1  6  0  0  0
 31 30  1  0  0  0  0
 32 31  1  0  0  0  0
 32 30  1  0  0  0  0
 34 33  1  0  0  0  0
 34 37  1  0  0  0  0
 37 36  1  0  0  0  0
 37 35  1  0  0  0  0
 38 37  2  0  0  0  0
M  END
>  <MODEL>
5

>  <REMARK>
 VINA RESULT:      -5.3      3.301      9.421
  Name = 
  12 active torsions:
  status: ('A' for Active; 'I' for Inactive)
    1  A    between atoms: C_1  and  C_15
    2  A    between atoms: N_4  and  C_32
    3  A    between atoms: C_6  and  N_21
    4  A    between atoms: C_7  and  C_20
    5  A    between atoms: C_7  and  C_29
    6  A    between atoms: C_8  and  C_19
    7  A    between atoms: C_8  and  O_34
    8  A    between atoms: C_11  and  C_15
    9  A    between atoms: C_13  and  C_18
   10  A    between atoms: C_17  and  C_25
   11  A    between atoms: C_18  and  C_38
   12  A    between atoms: O_34  and  P_35
                            x       y       z     vdW  Elec       q    Type
                         _______ _______ _______ _____ _____    ______ ____

>  <TORSDO>
F 12

$$$$
=
 OpenBabel11072410463D

 38 40  0  0  1  0  0  0  0  0999 V2000
  160.8020  209.8720  153.0280 C   0  0  0  0  0  0  0  0  0  0  0  0
  160.9600  211.1730  150.9630 C   0  0  0  0  0  2  0  0  0  0  0  0
  160.6530  209.8960  154.3580 C   0  0  0  0  0  3  0  0  0  0  0  0
  160.2560  211.1560  155.0640 C   0  0  1  0  0  3  0  0  0  0  0  0
  160.4900  211.0800  152.2050 C   0  0  0  0  0  0  0  0  0  0  0  0
  159.8440  212.2950  152.8590 C   0  0  2  0  0  3  0  0  0  0  0  0
  159.2650  211.9230  154.2160 C   0  0  0  0  0  0  0  0  0  0  0  0
  157.9360  211.9940  154.4420 C   0  0  0  0  0  3  0  0  0  0  0  0
  158.9460  213.1130  151.9050 C   0  0  0  0  0  3  0  0  0  0  0  0
  159.7460  214.1230  151.1020 C   0  0  0  0  0  1  0  0  0  0  0  0
  157.7750  213.7850  152.6060 C   0  0  0  0  0  1  0  0  0  0  0  0
  156.1810  210.6320  155.2410 O   0  0  0  0  0  1  0  0  0  0  0  0
  157.2080  211.4830  155.6460 C   0  0  2  0  0  3  0  0  0  0  0  0
  155.3920  212.8020  156.4430 O   0  0  0  0  0  0  0  0  0  0  0  0
  156.6360  212.6100  156.4420 C   0  0  0  0  0  0  0  0  0  0  0  0
  157.4690  213.4900  157.1210 O   0  0  0  0  0  1  0  0  0  0  0  0
  159.9220  210.9210  156.5290 C   0  0  0  0  0  2  0  0  0  0  0  0
  160.0990  208.5410  157.2430 O   0  0  0  0  0  0  0  0  0  0  0  0
  160.7120  209.7700  157.0470 C   0  0  0  0  0  0  0  0  0  0  0  0
  161.9450  209.8970  157.2600 O   0  0  0  0  0  1  0  0  0  0  0  0
  161.2430  208.5930  152.3920 C   0  0  0  0  0  2  0  0  0  0  0  0
  161.2420  207.4810  153.3940 C   0  0  0  0  0  3  0  0  0  0  0  0
  161.2310  206.2170  153.0800 N   0  0  0  0  0  0  0  0  0  0  0  0
  160.8660  204.2750  151.5640 C   0  0  0  0  0  3  0  0  0  0  0  0
  161.1560  205.6310  151.7690 C   0  0  0  0  0  0  0  0  0  0  0  0
  161.1300  204.5780  149.1910 C   0  0  0  0  0  3  0  0  0  0  0  0
  161.4260  205.8880  149.4020 N   0  0  0  0  0  0  0  0  0  0  0  0
  161.4480  206.4230  150.6540 C   0  0  0  0  0  3  0  0  0  0  0  0
  160.8460  203.7470  150.2750 C   0  0  0  0  0  0  0  0  0  0  0  0
  160.5740  202.3650  150.0770 N   0  0  0  0  0  0  0  0  0  0  0  0
  161.0030  200.9820  149.7130 C   0  0  1  0  0  3  0  0  0  0  0  0
  159.6700  201.1800  150.0060 C   0  0  0  0  0  2  0  0  0  0  0  0
  161.2110  200.9120  148.2120 C   0  0  0  0  0  2  0  0  0  0  0  0
  160.0920  201.4310  147.5540 O   0  0  0  0  0  0  0  0  0  0  0  0
  161.1980  199.9690  145.4540 O   0  0  0  0  0  1  0  0  0  0  0  0
  161.4630  202.5690  145.6260 O   0  0  0  0  0  1  0  0  0  0  0  0
  160.4960  201.4410  145.9050 P   0  0  0  0  0  0  0  0  0  0  0  0
  159.0910  201.6760  144.9930 O   0  0  0  0  0  0  0  0  0  0  0  0
  1  3  2  0  0  0  0
  2  5  2  0  0  0  0
  3  4  1  0  0  0  0
  4 17  1  1  0  0  0
  5  6  1  0  0  0  0
  5  1  1  0  0  0  0
  6  9  1  6  0  0  0
  6  7  1  0  0  0  0
  7  8  2  0  0  0  0
  7  4  1  0  0  0  0
  8 13  1  0  0  0  0
  9 11  1  0  0  0  0
 10  9  1  0  0  0  0
 13 12  1  6  0  0  0
 13 15  1  0  0  0  0
 15 14  2  0  0  0  0
 15 16  1  0  0  0  0
 17 19  1  0  0  0  0
 19 18  2  0  0  0  0
 19 20  1  0  0  0  0
 21  1  1  0  0  0  0
 21 22  1  0  0  0  0
 23 22  2  0  0  0  0
 24 25  1  0  0  0  0
 25 23  1  0  0  0  0
 26 27  2  0  0  0  0
 26 29  1  0  0  0  0
 27 28  1  0  0  0  0
 28 25  2  0  0  0  0
 29 24  2  0  0  0  0
 30 29  1  0  0  0  0
 31 33  1  6  0  0  0
 31 32  1  0  0  0  0
 31 30  1  0  0  0  0
 32 30  1  0  0  0  0
 34 33  1  0  0  0  0
 35 37  1  0  0  0  0
 36 37  1  0  0  0  0
 37 34  1  0  0  0  0
 38 37  2  0  0  0  0
M  END
>  <MODEL>
6

>  <REMARK>
 VINA RESULT:      -5.0      1.596      2.216
  Name = 
  12 active torsions:
  status: ('A' for Active; 'I' for Inactive)
    1  A    between atoms: C_1  and  C_15
    2  A    between atoms: N_4  and  C_32
    3  A    between atoms: C_6  and  N_21
    4  A    between atoms: C_7  and  C_20
    5  A    between atoms: C_7  and  C_29
    6  A    between atoms: C_8  and  C_19
    7  A    between atoms: C_8  and  O_34
    8  A    between atoms: C_11  and  C_15
    9  A    between atoms: C_13  and  C_18
   10  A    between atoms: C_17  and  C_25
   11  A    between atoms: C_18  and  C_38
   12  A    between atoms: O_34  and  P_35
                            x       y       z     vdW  Elec       q    Type
                         _______ _______ _______ _____ _____    ______ ____

>  <TORSDO>
F 12

$$$$
=
 OpenBabel11072410463D

 38 40  0  0  1  0  0  0  0  0999 V2000
  160.2580  211.2940  152.9110 C   0  0  0  0  0  0  0  0  0  0  0  0
  159.8350  212.7390  150.9850 C   0  0  0  0  0  2  0  0  0  0  0  0
  160.3860  211.2090  154.2410 C   0  0  0  0  0  3  0  0  0  0  0  0
  160.0010  212.3550  155.1240 C   0  0  1  0  0  3  0  0  0  0  0  0
  159.6460  212.5030  152.2810 C   0  0  0  0  0  0  0  0  0  0  0  0
  159.0130  213.5750  153.1580 C   0  0  2  0  0  3  0  0  0  0  0  0
  158.7750  213.0410  154.5630 C   0  0  0  0  0  0  0  0  0  0  0  0
  157.5220  212.9210  155.0520 C   0  0  0  0  0  3  0  0  0  0  0  0
  157.8490  214.3300  152.4800 C   0  0  0  0  0  3  0  0  0  0  0  0
  156.6250  214.4050  153.3740 C   0  0  0  0  0  1  0  0  0  0  0  0
  157.4860  213.7750  151.1100 C   0  0  0  0  0  1  0  0  0  0  0  0
  157.0010  210.8690  156.0960 O   0  0  0  0  0  1  0  0  0  0  0  0
  157.1230  212.2390  156.3230 C   0  0  2  0  0  3  0  0  0  0  0  0
  155.6660  214.0190  156.9400 O   0  0  0  0  0  0  0  0  0  0  0  0
  155.8250  212.7760  156.8310 C   0  0  0  0  0  0  0  0  0  0  0  0
  154.8200  211.9130  157.2520 O   0  0  0  0  0  1  0  0  0  0  0  0
  160.0070  211.9810  156.5980 C   0  0  0  0  0  2  0  0  0  0  0  0
  160.7740  209.6370  156.9480 O   0  0  0  0  0  0  0  0  0  0  0  0
  161.0840  210.9870  156.8610 C   0  0  0  0  0  0  0  0  0  0  0  0
  162.2800  211.3630  156.9550 O   0  0  0  0  0  1  0  0  0  0  0  0
  160.7020  210.1290  152.0860 C   0  0  0  0  0  2  0  0  0  0  0  0
  161.8670  210.5070  151.2260 C   0  0  0  0  0  3  0  0  0  0  0  0
  162.3460  209.7560  150.2750 N   0  0  0  0  0  0  0  0  0  0  0  0
  161.8420  207.3780  150.8140 C   0  0  0  0  0  3  0  0  0  0  0  0
  161.9280  208.4330  149.8960 C   0  0  0  0  0  0  0  0  0  0  0  0
  161.1980  205.8870  149.0380 C   0  0  0  0  0  3  0  0  0  0  0  0
  161.3010  206.9140  148.1530 N   0  0  0  0  0  0  0  0  0  0  0  0
  161.6600  208.1670  148.5500 C   0  0  0  0  0  3  0  0  0  0  0  0
  161.4710  206.1040  150.3890 C   0  0  0  0  0  0  0  0  0  0  0  0
  161.4080  205.0330  151.3220 N   0  0  0  0  0  0  0  0  0  0  0  0
  161.7110  203.6290  151.7300 C   0  0  1  0  0  3  0  0  0  0  0  0
  160.9650  204.3990  152.5980 C   0  0  0  0  0  2  0  0  0  0  0  0
  160.8110  202.6870  150.9510 C   0  0  0  0  0  2  0  0  0  0  0  0
  161.5880  201.7500  150.2640 O   0  0  0  0  0  0  0  0  0  0  0  0
  161.4730  200.2180  147.9390 O   0  0  0  0  0  1  0  0  0  0  0  0
  161.0810  202.8070  147.9150 O   0  0  0  0  0  0  0  0  0  0  0  0
  160.8480  201.5660  148.7480 P   0  0  0  0  0  0  0  0  0  0  0  0
  159.1860  201.3480  148.9660 O   0  0  0  0  0  1  0  0  0  0  0  0
  1  3  2  0  0  0  0
  2  5  2  0  0  0  0
  3  4  1  0  0  0  0
  4 17  1  1  0  0  0
  5  1  1  0  0  0  0
  5  6  1  0  0  0  0
  6  9  1  6  0  0  0
  6  7  1  0  0  0  0
  7  8  2  0  0  0  0
  7  4  1  0  0  0  0
  8 13  1  0  0  0  0
  9 10  1  0  0  0  0
 11  9  1  0  0  0  0
 13 12  1  6  0  0  0
 13 15  1  0  0  0  0
 15 14  2  0  0  0  0
 15 16  1  0  0  0  0
 17 19  1  0  0  0  0
 19 18  2  0  0  0  0
 19 20  1  0  0  0  0
 21  1  1  0  0  0  0
 22 21  1  0  0  0  0
 23 22  2  0  0  0  0
 25 23  1  0  0  0  0
 25 24  2  0  0  0  0
 26 29  2  0  0  0  0
 27 28  2  0  0  0  0
 27 26  1  0  0  0  0
 28 25  1  0  0  0  0
 29 24  1  0  0  0  0
 29 30  1  0  0  0  0
 30 31  1  0  0  0  0
 30 32  1  0  0  0  0
 31 33  1  6  0  0  0
 31 32  1  0  0  0  0
 34 33  1  0  0  0  0
 35 37  1  0  0  0  0
 36 37  2  0  0  0  0
 37 38  1  0  0  0  0
 37 34  1  0  0  0  0
M  END
>  <MODEL>
7

>  <REMARK>
 VINA RESULT:      -4.7      2.097      3.181
  Name = 
  12 active torsions:
  status: ('A' for Active; 'I' for Inactive)
    1  A    between atoms: C_1  and  C_15
    2  A    between atoms: N_4  and  C_32
    3  A    between atoms: C_6  and  N_21
    4  A    between atoms: C_7  and  C_20
    5  A    between atoms: C_7  and  C_29
    6  A    between atoms: C_8  and  C_19
    7  A    between atoms: C_8  and  O_34
    8  A    between atoms: C_11  and  C_15
    9  A    between atoms: C_13  and  C_18
   10  A    between atoms: C_17  and  C_25
   11  A    between atoms: C_18  and  C_38
   12  A    between atoms: O_34  and  P_35
                            x       y       z     vdW  Elec       q    Type
                         _______ _______ _______ _____ _____    ______ ____

>  <TORSDO>
F 12

$$$$
=
 OpenBabel11072410463D

 38 40  0  0  1  0  0  0  0  0999 V2000
  161.3850  208.3800  151.6330 C   0  0  0  0  0  0  0  0  0  0  0  0
  162.1500  208.8110  149.3510 C   0  0  0  0  0  2  0  0  0  0  0  0
  161.2380  208.8600  152.8740 C   0  0  0  0  0  3  0  0  0  0  0  0
  161.4360  210.3150  153.1640 C   0  0  1  0  0  3  0  0  0  0  0  0
  161.6650  209.3010  150.4900 C   0  0  0  0  0  0  0  0  0  0  0  0
  161.6220  210.8080  150.7040 C   0  0  2  0  0  3  0  0  0  0  0  0
  160.9120  211.1400  152.0080 C   0  0  0  0  0  0  0  0  0  0  0  0
  159.7530  211.8310  152.0070 C   0  0  0  0  0  3  0  0  0  0  0  0
  161.2050  211.6050  149.4480 C   0  0  0  0  0  3  0  0  0  0  0  0
  162.3480  211.7370  148.4570 C   0  0  0  0  0  1  0  0  0  0  0  0
  160.6070  212.9670  149.7680 C   0  0  0  0  0  1  0  0  0  0  0  0
  157.8540  211.0860  153.1950 O   0  0  0  0  0  1  0  0  0  0  0  0
  158.8500  212.0610  153.1780 C   0  0  2  0  0  3  0  0  0  0  0  0
  158.6980  214.2830  152.3350 O   0  0  0  0  0  0  0  0  0  0  0  0
  158.2210  213.4140  153.1100 C   0  0  0  0  0  0  0  0  0  0  0  0
  157.1590  213.7420  153.9440 O   0  0  0  0  0  1  0  0  0  0  0  0
  161.0050  210.6920  154.5720 C   0  0  0  0  0  2  0  0  0  0  0  0
  161.6180  208.8540  156.1390 O   0  0  0  0  0  1  0  0  0  0  0  0
  161.9310  210.0780  155.5630 C   0  0  0  0  0  0  0  0  0  0  0  0
  163.0200  210.6420  155.8440 O   0  0  0  0  0  0  0  0  0  0  0  0
  161.2160  206.9100  151.4220 C   0  0  0  0  0  2  0  0  0  0  0  0
  162.3790  206.1590  151.9920 C   0  0  0  0  0  3  0  0  0  0  0  0
  162.5350  204.8700  151.8920 N   0  0  0  0  0  0  0  0  0  0  0  0
  161.6930  203.5750  149.9390 C   0  0  0  0  0  3  0  0  0  0  0  0
  161.6400  203.9140  151.2970 C   0  0  0  0  0  0  0  0  0  0  0  0
  159.7980  202.1190  150.2280 C   0  0  0  0  0  3  0  0  0  0  0  0
  159.7460  202.4670  151.5420 N   0  0  0  0  0  0  0  0  0  0  0  0
  160.6350  203.3450  152.0850 C   0  0  0  0  0  3  0  0  0  0  0  0
  160.7770  202.6730  149.4020 C   0  0  0  0  0  0  0  0  0  0  0  0
  160.8220  202.3530  148.0170 N   0  0  0  0  0  0  0  0  0  0  0  0
  161.5630  202.1910  146.7310 C   0  0  1  0  0  3  0  0  0  0  0  0
  160.1990  201.9840  146.7120 C   0  0  0  0  0  2  0  0  0  0  0  0
  161.8970  203.5650  146.1800 C   0  0  0  0  0  2  0  0  0  0  0  0
  161.1330  203.8160  145.0370 O   0  0  0  0  0  0  0  0  0  0  0  0
  161.5140  205.8340  143.1530 O   0  0  0  0  0  0  0  0  0  0  0  0
  162.3410  206.0720  145.6260 O   0  0  0  0  0  1  0  0  0  0  0  0
  161.2260  205.4920  144.7850 P   0  0  0  0  0  0  0  0  0  0  0  0
  159.7610  206.2030  145.2400 O   0  0  0  0  0  1  0  0  0  0  0  0
  1  3  2  0  0  0  0
  2  5  2  0  0  0  0
  3  4  1  0  0  0  0
  4 17  1  1  0  0  0
  5  6  1  0  0  0  0
  5  1  1  0  0  0  0
  6  9  1  6  0  0  0
  6  7  1  0  0  0  0
  7  4  1  0  0  0  0
  8  7  2  0  0  0  0
  8 13  1  0  0  0  0
  9 11  1  0  0  0  0
 10  9  1  0  0  0  0
 13 12  1  6  0  0  0
 14 15  2  0  0  0  0
 15 13  1  0  0  0  0
 15 16  1  0  0  0  0
 17 19  1  0  0  0  0
 19 20  2  0  0  0  0
 19 18  1  0  0  0  0
 21  1  1  0  0  0  0
 21 22  1  0  0  0  0
 23 22  2  0  0  0  0
 24 25  1  0  0  0  0
 25 23  1  0  0  0  0
 25 28  2  0  0  0  0
 26 27  2  0  0  0  0
 27 28  1  0  0  0  0
 29 24  2  0  0  0  0
 29 26  1  0  0  0  0
 30 29  1  0  0  0  0
 31 33  1  6  0  0  0
 31 30  1  0  0  0  0
 32 31  1  0  0  0  0
 32 30  1  0  0  0  0
 34 33  1  0  0  0  0
 35 37  2  0  0  0  0
 37 34  1  0  0  0  0
 37 38  1  0  0  0  0
 37 36  1  0  0  0  0
M  END
>  <MODEL>
8

>  <REMARK>
 VINA RESULT:      -4.7      1.822      2.958
  Name = 
  12 active torsions:
  status: ('A' for Active; 'I' for Inactive)
    1  A    between atoms: C_1  and  C_15
    2  A    between atoms: N_4  and  C_32
    3  A    between atoms: C_6  and  N_21
    4  A    between atoms: C_7  and  C_20
    5  A    between atoms: C_7  and  C_29
    6  A    between atoms: C_8  and  C_19
    7  A    between atoms: C_8  and  O_34
    8  A    between atoms: C_11  and  C_15
    9  A    between atoms: C_13  and  C_18
   10  A    between atoms: C_17  and  C_25
   11  A    between atoms: C_18  and  C_38
   12  A    between atoms: O_34  and  P_35
                            x       y       z     vdW  Elec       q    Type
                         _______ _______ _______ _____ _____    ______ ____

>  <TORSDO>
F 12

$$$$
=
 OpenBabel11072410463D

 38 40  0  0  1  0  0  0  0  0999 V2000
  161.0590  210.4140  152.8880 C   0  0  0  0  0  0  0  0  0  0  0  0
  161.3360  211.0840  150.5530 C   0  0  0  0  0  2  0  0  0  0  0  0
  160.7950  210.8050  154.1410 C   0  0  0  0  0  3  0  0  0  0  0  0
  160.2860  212.1840  154.4260 C   0  0  1  0  0  3  0  0  0  0  0  0
  160.7660  211.3170  151.7330 C   0  0  0  0  0  0  0  0  0  0  0  0
  160.0140  212.6210  151.9630 C   0  0  2  0  0  3  0  0  0  0  0  0
  159.3390  212.6120  153.3260 C   0  0  0  0  0  0  0  0  0  0  0  0
  157.9930  212.6570  153.4300 C   0  0  0  0  0  3  0  0  0  0  0  0
  159.1660  213.0750  150.7540 C   0  0  0  0  0  3  0  0  0  0  0  0
  159.7030  214.3530  150.1340 C   0  0  0  0  0  1  0  0  0  0  0  0
  157.6840  213.2070  151.0720 C   0  0  0  0  0  1  0  0  0  0  0  0
  156.5020  211.2500  154.6000 O   0  0  0  0  0  1  0  0  0  0  0  0
  157.1880  212.4610  154.6760 C   0  0  2  0  0  3  0  0  0  0  0  0
  155.5880  214.0270  153.8630 O   0  0  0  0  0  0  0  0  0  0  0  0
  156.2100  213.5750  154.8600 C   0  0  0  0  0  0  0  0  0  0  0  0
  156.0340  214.1630  156.1070 O   0  0  0  0  0  1  0  0  0  0  0  0
  159.8380  212.3530  155.8690 C   0  0  0  0  0  2  0  0  0  0  0  0
  161.3570  210.9480  157.2580 O   0  0  0  0  0  1  0  0  0  0  0  0
  160.1270  211.1080  156.6340 C   0  0  0  0  0  0  0  0  0  0  0  0
  159.2420  210.2230  156.7570 O   0  0  0  0  0  0  0  0  0  0  0  0
  161.6070  209.0390  152.6800 C   0  0  0  0  0  2  0  0  0  0  0  0
  161.2510  208.1520  153.8310 C   0  0  0  0  0  3  0  0  0  0  0  0
  161.1190  206.8590  153.7420 N   0  0  0  0  0  0  0  0  0  0  0  0
  161.4960  206.5670  151.2980 C   0  0  0  0  0  3  0  0  0  0  0  0
  161.2160  206.0380  152.5650 C   0  0  0  0  0  0  0  0  0  0  0  0
  161.2890  204.3710  150.3360 C   0  0  0  0  0  3  0  0  0  0  0  0
  161.0010  203.8700  151.5670 N   0  0  0  0  0  0  0  0  0  0  0  0
  160.9570  204.6680  152.6700 C   0  0  0  0  0  3  0  0  0  0  0  0
  161.5400  205.7350  150.1820 C   0  0  0  0  0  0  0  0  0  0  0  0
  161.8020  206.2830  148.8950 N   0  0  0  0  0  0  0  0  0  0  0  0
  161.3610  206.9860  147.6550 C   0  0  1  0  0  3  0  0  0  0  0  0
  162.6720  206.5610  147.7160 C   0  0  0  0  0  2  0  0  0  0  0  0
  160.5330  206.0300  146.8160 C   0  0  0  0  0  2  0  0  0  0  0  0
  160.9090  204.7120  147.0900 O   0  0  0  0  0  0  0  0  0  0  0  0
  160.8950  202.3940  145.5420 O   0  0  0  0  0  1  0  0  0  0  0  0
  162.8050  204.1760  145.3550 O   0  0  0  0  0  1  0  0  0  0  0  0
  161.3180  204.0320  145.5900 P   0  0  0  0  0  0  0  0  0  0  0  0
  160.4810  204.8460  144.3660 O   0  0  0  0  0  0  0  0  0  0  0  0
  1  3  2  0  0  0  0
  2  5  2  0  0  0  0
  3  4  1  0  0  0  0
  4 17  1  1  0  0  0
  5  6  1  0  0  0  0
  5  1  1  0  0  0  0
  6  9  1  6  0  0  0
  6  7  1  0  0  0  0
  7  8  2  0  0  0  0
  7  4  1  0  0  0  0
  8 13  1  0  0  0  0
  9 11  1  0  0  0  0
 10  9  1  0  0  0  0
 13 12  1  6  0  0  0
 13 15  1  0  0  0  0
 14 15  2  0  0  0  0
 15 16  1  0  0  0  0
 17 19  1  0  0  0  0
 19 20  2  0  0  0  0
 19 18  1  0  0  0  0
 21  1  1  0  0  0  0
 21 22  1  0  0  0  0
 23 22  2  0  0  0  0
 24 25  1  0  0  0  0
 25 28  2  0  0  0  0
 25 23  1  0  0  0  0
 26 27  2  0  0  0  0
 27 28  1  0  0  0  0
 29 26  1  0  0  0  0
 29 24  2  0  0  0  0
 30 29  1  0  0  0  0
 31 33  1  6  0  0  0
 31 32  1  0  0  0  0
 31 30  1  0  0  0  0
 32 30  1  0  0  0  0
 33 34  1  0  0  0  0
 35 37  1  0  0  0  0
 36 37  1  0  0  0  0
 37 34  1  0  0  0  0
 38 37  2  0  0  0  0
M  END
>  <MODEL>
9

>  <REMARK>
 VINA RESULT:      -4.6      1.870      2.481
  Name = 
  12 active torsions:
  status: ('A' for Active; 'I' for Inactive)
    1  A    between atoms: C_1  and  C_15
    2  A    between atoms: N_4  and  C_32
    3  A    between atoms: C_6  and  N_21
    4  A    between atoms: C_7  and  C_20
    5  A    between atoms: C_7  and  C_29
    6  A    between atoms: C_8  and  C_19
    7  A    between atoms: C_8  and  O_34
    8  A    between atoms: C_11  and  C_15
    9  A    between atoms: C_13  and  C_18
   10  A    between atoms: C_17  and  C_25
   11  A    between atoms: C_18  and  C_38
   12  A    between atoms: O_34  and  P_35
                            x       y       z     vdW  Elec       q    Type
                         _______ _______ _______ _____ _____    ______ ____

>  <TORSDO>
F 12

$$$$
