=
 OpenBabel11072410523D

 40 43  0  0  1  0  0  0  0  0999 V2000
  161.2240  210.8660  155.8190 C   0  0  0  0  0  0  0  0  0  0  0  0
  160.1190  209.0390  154.6280 N   0  0  0  0  0  0  0  0  0  0  0  0
  162.2520  210.8010  154.8320 N   0  0  0  0  0  2  0  0  0  0  0  0
  161.4140  211.5200  156.9150 N   0  0  0  0  0  2  0  0  0  0  0  0
  161.0290  209.0290  153.6910 C   0  0  0  0  0  0  0  0  0  0  0  0
  159.9320  210.1430  155.5760 C   0  0  2  0  0  3  0  0  0  0  0  0
  161.9850  210.1800  153.5380 C   0  0  0  0  0  2  0  0  0  0  0  0
  156.8810  212.3720  155.5350 C   0  0  0  0  0  2  0  0  0  0  0  0
  158.9010  211.0610  155.1000 N   0  0  0  0  0  0  0  0  0  0  0  0
  159.2240  211.9380  154.0130 C   0  0  0  0  0  3  0  0  0  0  0  0
  156.9360  212.8620  154.0900 C   0  0  0  0  0  2  0  0  0  0  0  0
  157.5350  211.0000  155.6260 C   0  0  0  0  0  2  0  0  0  0  0  0
  158.3330  212.8170  153.5360 C   0  0  0  0  0  0  0  0  0  0  0  0
  158.6570  213.6790  152.4350 N   0  0  0  0  0  2  0  0  0  0  0  0
  158.1950  214.0510  148.1970 C   0  0  0  0  0  2  0  0  0  0  0  0
  159.5570  213.6130  148.7360 C   0  0  2  0  0  3  0  0  0  0  0  0
  159.6800  213.9820  150.2140 C   0  0  0  0  0  2  0  0  0  0  0  0
  157.0760  213.3780  148.9870 C   0  0  0  0  0  2  0  0  0  0  0  0
  158.5460  213.3420  151.0170 C   0  0  2  0  0  3  0  0  0  0  0  0
  157.1790  213.7460  150.4640 C   0  0  0  0  0  2  0  0  0  0  0  0
  161.0470  213.2600  147.1400 C   0  0  0  0  0  1  0  0  0  0  0  0
  160.5710  214.2400  148.0120 O   0  0  0  0  0  0  0  0  0  0  0  0
  161.1170  207.9620  152.7930 O   0  0  0  0  0  0  0  0  0  0  0  0
  161.7130  208.0810  151.5050 C   0  0  0  0  0  2  0  0  0  0  0  0
  162.0720  206.7090  150.9430 C   0  0  0  0  0  2  0  0  0  0  0  0
  160.8580  205.7900  150.9000 C   0  0  0  0  0  2  0  0  0  0  0  0
  160.7330  204.1890  152.7440 C   0  0  0  0  0  2  0  0  0  0  0  0
  161.1580  204.4580  151.5110 C   0  0  0  0  0  0  0  0  0  0  0  0
  161.7820  203.3800  150.6800 C   0  0  0  0  0  2  0  0  0  0  0  0
  160.9410  202.1120  150.6980 C   0  0  0  0  0  2  0  0  0  0  0  0
  160.1730  201.9720  149.3970 C   0  0  0  0  0  2  0  0  0  0  0  0
  161.1490  201.7050  148.2520 C   0  0  0  0  0  2  0  0  0  0  0  0
  160.7110  201.0840  146.0070 C   0  0  0  0  0  1  0  0  0  0  0  0
  160.6720  202.1990  146.9520 N   0  0  0  0  0  0  0  0  0  0  0  0
  161.0950  205.1930  144.8330 N   0  0  0  0  0  2  0  0  0  0  0  0
  162.3530  205.6420  146.8990 C   0  0  0  0  0  2  0  0  0  0  0  0
  162.3390  205.7390  145.3700 C   0  0  0  0  0  2  0  0  0  0  0  0
  161.5070  203.3070  146.4570 C   0  0  2  0  0  3  0  0  0  0  0  0
  161.4620  204.5070  147.4120 C   0  0  0  0  0  2  0  0  0  0  0  0
  161.0760  203.7390  145.0320 C   0  0  0  0  0  2  0  0  0  0  0  0
  1  4  2  0  0  0  0
  2  6  1  0  0  0  0
  3  1  1  0  0  0  0
  5  2  2  0  0  0  0
  6  9  1  6  0  0  0
  6  1  1  0  0  0  0
  7  5  1  0  0  0  0
  7  3  1  0  0  0  0
  8 12  1  0  0  0  0
  9 12  1  0  0  0  0
 10  9  1  0  0  0  0
 11  8  1  0  0  0  0
 13 10  2  0  0  0  0
 13 11  1  0  0  0  0
 14 13  1  0  0  0  0
 15 16  1  0  0  0  0
 15 18  1  0  0  0  0
 16 22  1  6  0  0  0
 16 17  1  0  0  0  0
 17 19  1  0  0  0  0
 18 20  1  0  0  0  0
 19 14  1  1  0  0  0
 20 19  1  0  0  0  0
 21 22  1  0  0  0  0
 23  5  1  0  0  0  0
 24 23  1  0  0  0  0
 25 24  1  0  0  0  0
 26 25  1  0  0  0  0
 26 28  1  0  0  0  0
 28 27  2  0  0  0  0
 29 30  1  0  0  0  0
 29 28  1  0  0  0  0
 31 30  1  0  0  0  0
 32 31  1  0  0  0  0
 33 34  1  0  0  0  0
 34 32  1  0  0  0  0
 35 40  1  0  0  0  0
 35 37  1  0  0  0  0
 36 39  1  0  0  0  0
 37 36  1  0  0  0  0
 38 34  1  1  0  0  0
 38 39  1  0  0  0  0
 40 38  1  0  0  0  0
M  END
>  <MODEL>
1

>  <REMARK>
 VINA RESULT:      -7.1      0.000      0.000
  Name = 
  15 active torsions:
  status: ('A' for Active; 'I' for Inactive)
    1  A    between atoms: C_2  and  C_12
    2  A    between atoms: C_2  and  C_39
    3  A    between atoms: O_4  and  C_11
    4  A    between atoms: O_4  and  C_24
    5  A    between atoms: N_9  and  C_29
    6  A    between atoms: N_10  and  C_19
    7  A    between atoms: N_10  and  C_25
    8  A    between atoms: C_11  and  C_30
    9  A    between atoms: C_12  and  C_37
   10  A    between atoms: C_15  and  O_33
   11  A    between atoms: C_19  and  C_37
   12  A    between atoms: C_27  and  C_30
   13  A    between atoms: C_27  and  C_39
   14  A    between atoms: C_32  and  N_40
   15  A    between atoms: C_35  and  N_40
                            x       y       z     vdW  Elec       q    Type
                         _______ _______ _______ _____ _____    ______ ____

>  <TORSDO>
F 15

$$$$
=
 OpenBabel11072410523D

 40 43  0  0  1  0  0  0  0  0999 V2000
  161.6440  204.9180  147.4590 C   0  0  0  0  0  0  0  0  0  0  0  0
  160.4790  206.7260  148.6200 N   0  0  0  0  0  0  0  0  0  0  0  0
  162.7240  205.8290  147.2610 N   0  0  0  0  0  2  0  0  0  0  0  0
  161.5930  203.8140  146.7940 N   0  0  0  0  0  2  0  0  0  0  0  0
  161.4960  207.5350  148.4930 C   0  0  0  0  0  0  0  0  0  0  0  0
  160.5580  205.2730  148.4320 C   0  0  2  0  0  3  0  0  0  0  0  0
  162.8520  207.0080  148.1120 C   0  0  0  0  0  2  0  0  0  0  0  0
  161.4390  202.6070  150.9610 C   0  0  0  0  0  2  0  0  0  0  0  0
  160.7610  204.6000  149.7110 N   0  0  0  0  0  0  0  0  0  0  0  0
  161.0360  205.4040  150.8650 C   0  0  0  0  0  3  0  0  0  0  0  0
  161.1400  203.3640  152.2520 C   0  0  0  0  0  2  0  0  0  0  0  0
  160.5610  203.1540  149.8420 C   0  0  0  0  0  2  0  0  0  0  0  0
  161.2490  204.8530  152.0670 C   0  0  0  0  0  0  0  0  0  0  0  0
  161.5040  205.6650  153.2230 N   0  0  0  0  0  2  0  0  0  0  0  0
  160.7100  209.6280  154.6290 C   0  0  0  0  0  2  0  0  0  0  0  0
  160.5510  209.3500  153.1350 C   0  0  2  0  0  3  0  0  0  0  0  0
  161.3040  208.0760  152.7550 C   0  0  0  0  0  2  0  0  0  0  0  0
  160.1700  208.4540  155.4420 C   0  0  0  0  0  2  0  0  0  0  0  0
  160.7980  206.8940  153.5830 C   0  0  2  0  0  3  0  0  0  0  0  0
  160.9200  207.1750  155.0810 C   0  0  0  0  0  2  0  0  0  0  0  0
  162.4040  210.1280  152.2100 C   0  0  0  0  0  1  0  0  0  0  0  0
  161.0550  210.4270  152.4030 O   0  0  0  0  0  0  0  0  0  0  0  0
  161.3540  208.9040  148.7340 O   0  0  0  0  0  0  0  0  0  0  0  0
  162.4080  209.8410  148.5270 C   0  0  0  0  0  2  0  0  0  0  0  0
  161.9210  211.2670  148.7600 C   0  0  0  0  0  2  0  0  0  0  0  0
  162.8550  212.2860  148.1210 C   0  0  0  0  0  2  0  0  0  0  0  0
  161.2820  214.0850  148.6360 C   0  0  0  0  0  2  0  0  0  0  0  0
  162.1300  213.5440  147.7640 C   0  0  0  0  0  0  0  0  0  0  0  0
  162.4840  214.2770  146.5060 C   0  0  0  0  0  2  0  0  0  0  0  0
  161.7700  213.6840  145.3010 C   0  0  0  0  0  2  0  0  0  0  0  0
  162.7750  213.2840  144.2380 C   0  0  0  0  0  2  0  0  0  0  0  0
  162.0680  212.5000  143.1340 C   0  0  0  0  0  2  0  0  0  0  0  0
  161.4520  213.9280  141.3450 C   0  0  0  0  0  1  0  0  0  0  0  0
  162.4370  212.9390  141.7790 N   0  0  0  0  0  0  0  0  0  0  0  0
  160.6650  210.5270  139.6170 N   0  0  0  0  0  2  0  0  0  0  0  0
  162.7390  211.1050  138.4280 C   0  0  0  0  0  2  0  0  0  0  0  0
  161.7740  209.9870  138.8360 C   0  0  0  0  0  2  0  0  0  0  0  0
  162.4640  211.8080  140.8350 C   0  0  2  0  0  3  0  0  0  0  0  0
  162.6890  212.2910  139.3960 C   0  0  0  0  0  2  0  0  0  0  0  0
  161.1610  210.9750  140.9240 C   0  0  0  0  0  2  0  0  0  0  0  0
  1  6  1  0  0  0  0
  3  1  1  0  0  0  0
  3  7  1  0  0  0  0
  4  1  2  0  0  0  0
  5  2  2  0  0  0  0
  5 23  1  0  0  0  0
  6  2  1  0  0  0  0
  6  9  1  1  0  0  0
  7  5  1  0  0  0  0
  8 11  1  0  0  0  0
  9 12  1  0  0  0  0
  9 10  1  0  0  0  0
 10 13  2  0  0  0  0
 12  8  1  0  0  0  0
 13 11  1  0  0  0  0
 13 14  1  0  0  0  0
 15 18  1  0  0  0  0
 16 22  1  6  0  0  0
 16 15  1  0  0  0  0
 17 16  1  0  0  0  0
 17 19  1  0  0  0  0
 19 14  1  6  0  0  0
 19 20  1  0  0  0  0
 20 18  1  0  0  0  0
 21 22  1  0  0  0  0
 24 23  1  0  0  0  0
 24 25  1  0  0  0  0
 26 25  1  0  0  0  0
 28 26  1  0  0  0  0
 28 27  2  0  0  0  0
 29 28  1  0  0  0  0
 30 29  1  0  0  0  0
 31 30  1  0  0  0  0
 32 31  1  0  0  0  0
 33 34  1  0  0  0  0
 34 32  1  0  0  0  0
 35 40  1  0  0  0  0
 36 37  1  0  0  0  0
 36 39  1  0  0  0  0
 37 35  1  0  0  0  0
 38 40  1  0  0  0  0
 38 34  1  1  0  0  0
 39 38  1  0  0  0  0
M  END
>  <MODEL>
2

>  <REMARK>
 VINA RESULT:      -6.8      3.983      9.183
  Name = 
  15 active torsions:
  status: ('A' for Active; 'I' for Inactive)
    1  A    between atoms: C_2  and  C_12
    2  A    between atoms: C_2  and  C_39
    3  A    between atoms: O_4  and  C_11
    4  A    between atoms: O_4  and  C_24
    5  A    between atoms: N_9  and  C_29
    6  A    between atoms: N_10  and  C_19
    7  A    between atoms: N_10  and  C_25
    8  A    between atoms: C_11  and  C_30
    9  A    between atoms: C_12  and  C_37
   10  A    between atoms: C_15  and  O_33
   11  A    between atoms: C_19  and  C_37
   12  A    between atoms: C_27  and  C_30
   13  A    between atoms: C_27  and  C_39
   14  A    between atoms: C_32  and  N_40
   15  A    between atoms: C_35  and  N_40
                            x       y       z     vdW  Elec       q    Type
                         _______ _______ _______ _____ _____    ______ ____

>  <TORSDO>
F 15

$$$$
=
 OpenBabel11072410523D

 40 43  0  0  1  0  0  0  0  0999 V2000
  161.4510  203.6440  146.3220 C   0  0  0  0  0  0  0  0  0  0  0  0
  160.9330  205.6950  147.5470 N   0  0  0  0  0  0  0  0  0  0  0  0
  162.7040  204.2390  145.9850 N   0  0  0  0  0  2  0  0  0  0  0  0
  161.0410  202.5930  145.6960 N   0  0  0  0  0  2  0  0  0  0  0  0
  162.1070  206.2070  147.2920 C   0  0  0  0  0  0  0  0  0  0  0  0
  160.6080  204.2720  147.3920 C   0  0  2  0  0  3  0  0  0  0  0  0
  163.2280  205.3420  146.7860 C   0  0  0  0  0  2  0  0  0  0  0  0
  161.2290  201.4970  149.8800 C   0  0  0  0  0  2  0  0  0  0  0  0
  160.7650  203.5680  148.6610 N   0  0  0  0  0  0  0  0  0  0  0  0
  161.1720  204.3230  149.8100 C   0  0  0  0  0  3  0  0  0  0  0  0
  161.0650  202.2740  151.1840 C   0  0  0  0  0  2  0  0  0  0  0  0
  160.3920  202.1570  148.7920 C   0  0  0  0  0  2  0  0  0  0  0  0
  161.3520  203.7390  151.0020 C   0  0  0  0  0  0  0  0  0  0  0  0
  161.7410  204.5040  152.1530 N   0  0  0  0  0  2  0  0  0  0  0  0
  161.1040  208.3100  154.0020 C   0  0  0  0  0  2  0  0  0  0  0  0
  160.9770  208.2190  152.4810 C   0  0  2  0  0  3  0  0  0  0  0  0
  161.6760  206.9600  151.9700 C   0  0  0  0  0  2  0  0  0  0  0  0
  160.4820  207.0790  154.6550 C   0  0  0  0  0  2  0  0  0  0  0  0
  161.0870  205.7170  152.6400 C   0  0  2  0  0  3  0  0  0  0  0  0
  161.1770  205.8130  154.1630 C   0  0  0  0  0  2  0  0  0  0  0  0
  161.7530  210.2360  152.9520 C   0  0  0  0  0  1  0  0  0  0  0  0
  161.5550  209.3460  151.8960 O   0  0  0  0  0  0  0  0  0  0  0  0
  162.3550  207.5650  147.5090 O   0  0  0  0  0  0  0  0  0  0  0  0
  161.7290  208.3110  148.5490 C   0  0  0  0  0  2  0  0  0  0  0  0
  162.3460  209.7000  148.6700 C   0  0  0  0  0  2  0  0  0  0  0  0
  161.3410  210.7880  148.3180 C   0  0  0  0  0  2  0  0  0  0  0  0
  163.0980  212.4430  147.9250 C   0  0  0  0  0  2  0  0  0  0  0  0
  161.9290  212.1530  148.4930 C   0  0  0  0  0  0  0  0  0  0  0  0
  161.1280  213.2300  149.1580 C   0  0  0  0  0  2  0  0  0  0  0  0
  160.9920  214.4510  148.2610 C   0  0  0  0  0  2  0  0  0  0  0  0
  159.8270  214.2730  147.3050 C   0  0  0  0  0  2  0  0  0  0  0  0
  160.3130  214.4520  145.8680 C   0  0  0  0  0  2  0  0  0  0  0  0
  159.3880  212.2970  145.5190 C   0  0  0  0  0  1  0  0  0  0  0  0
  159.5970  213.6050  144.9010 N   0  0  0  0  0  0  0  0  0  0  0  0
  162.6450  212.5260  143.1180 N   0  0  0  0  0  2  0  0  0  0  0  0
  160.7660  212.0210  141.6120 C   0  0  0  0  0  2  0  0  0  0  0  0
  162.1890  212.5770  141.7320 C   0  0  0  0  0  2  0  0  0  0  0  0
  160.3600  213.4530  143.6500 C   0  0  2  0  0  3  0  0  0  0  0  0
  159.9840  212.1550  142.9220 C   0  0  0  0  0  2  0  0  0  0  0  0
  161.8860  213.4950  143.9170 C   0  0  0  0  0  2  0  0  0  0  0  0
  1  6  1  0  0  0  0
  3  1  1  0  0  0  0
  3  7  1  0  0  0  0
  4  1  2  0  0  0  0
  5 23  1  0  0  0  0
  5  2  2  0  0  0  0
  6  2  1  0  0  0  0
  6  9  1  1  0  0  0
  7  5  1  0  0  0  0
  8 11  1  0  0  0  0
  9 12  1  0  0  0  0
  9 10  1  0  0  0  0
 10 13  2  0  0  0  0
 12  8  1  0  0  0  0
 13 11  1  0  0  0  0
 13 14  1  0  0  0  0
 15 18  1  0  0  0  0
 16 22  1  6  0  0  0
 16 15  1  0  0  0  0
 17 16  1  0  0  0  0
 17 19  1  0  0  0  0
 19 14  1  6  0  0  0
 19 20  1  0  0  0  0
 20 18  1  0  0  0  0
 22 21  1  0  0  0  0
 23 24  1  0  0  0  0
 24 25  1  0  0  0  0
 26 28  1  0  0  0  0
 26 25  1  0  0  0  0
 27 28  2  0  0  0  0
 28 29  1  0  0  0  0
 30 29  1  0  0  0  0
 31 30  1  0  0  0  0
 32 31  1  0  0  0  0
 34 33  1  0  0  0  0
 34 32  1  0  0  0  0
 35 40  1  0  0  0  0
 36 37  1  0  0  0  0
 36 39  1  0  0  0  0
 37 35  1  0  0  0  0
 38 40  1  0  0  0  0
 38 34  1  1  0  0  0
 39 38  1  0  0  0  0
M  END
>  <MODEL>
3

>  <REMARK>
 VINA RESULT:      -6.6      3.628      9.547
  Name = 
  15 active torsions:
  status: ('A' for Active; 'I' for Inactive)
    1  A    between atoms: C_2  and  C_12
    2  A    between atoms: C_2  and  C_39
    3  A    between atoms: O_4  and  C_11
    4  A    between atoms: O_4  and  C_24
    5  A    between atoms: N_9  and  C_29
    6  A    between atoms: N_10  and  C_19
    7  A    between atoms: N_10  and  C_25
    8  A    between atoms: C_11  and  C_30
    9  A    between atoms: C_12  and  C_37
   10  A    between atoms: C_15  and  O_33
   11  A    between atoms: C_19  and  C_37
   12  A    between atoms: C_27  and  C_30
   13  A    between atoms: C_27  and  C_39
   14  A    between atoms: C_32  and  N_40
   15  A    between atoms: C_35  and  N_40
                            x       y       z     vdW  Elec       q    Type
                         _______ _______ _______ _____ _____    ______ ____

>  <TORSDO>
F 15

$$$$
=
 OpenBabel11072410523D

 40 43  0  0  1  0  0  0  0  0999 V2000
  161.2350  206.9670  153.3020 C   0  0  0  0  0  0  0  0  0  0  0  0
  160.4730  208.5930  151.6440 N   0  0  0  0  0  0  0  0  0  0  0  0
  162.3620  206.7330  152.4580 N   0  0  0  0  0  2  0  0  0  0  0  0
  160.9590  206.1500  154.2620 N   0  0  0  0  0  2  0  0  0  0  0  0
  161.5390  208.4240  150.9090 C   0  0  0  0  0  0  0  0  0  0  0  0
  160.3630  208.1600  153.0410 C   0  0  2  0  0  3  0  0  0  0  0  0
  162.7510  207.7300  151.4660 C   0  0  0  0  0  2  0  0  0  0  0  0
  162.3180  210.3850  155.3880 C   0  0  0  0  0  2  0  0  0  0  0  0
  160.6930  209.2560  153.9470 N   0  0  0  0  0  0  0  0  0  0  0  0
  159.9730  210.4880  153.8100 C   0  0  0  0  0  3  0  0  0  0  0  0
  161.2540  211.4360  155.6960 C   0  0  0  0  0  2  0  0  0  0  0  0
  161.6370  209.0650  155.0510 C   0  0  0  0  0  2  0  0  0  0  0  0
  160.2350  211.5410  154.5960 C   0  0  0  0  0  0  0  0  0  0  0  0
  159.4970  212.7660  154.4660 N   0  0  0  0  0  2  0  0  0  0  0  0
  157.9010  213.3980  150.5460 C   0  0  0  0  0  2  0  0  0  0  0  0
  157.2140  214.0910  151.7230 C   0  0  2  0  0  3  0  0  0  0  0  0
  157.5970  213.4040  153.0330 C   0  0  0  0  0  2  0  0  0  0  0  0
  159.4170  213.4440  150.7230 C   0  0  0  0  0  2  0  0  0  0  0  0
  159.1160  213.4120  153.2110 C   0  0  2  0  0  3  0  0  0  0  0  0
  159.8170  212.7530  152.0230 C   0  0  0  0  0  2  0  0  0  0  0  0
  155.3070  214.1560  152.8410 C   0  0  0  0  0  1  0  0  0  0  0  0
  155.8300  214.0350  151.5530 O   0  0  0  0  0  0  0  0  0  0  0  0
  161.5870  208.9060  149.5980 O   0  0  0  0  0  0  0  0  0  0  0  0
  162.2890  208.2390  148.5530 C   0  0  0  0  0  2  0  0  0  0  0  0
  161.4620  207.0870  147.9920 C   0  0  0  0  0  2  0  0  0  0  0  0
  162.3080  206.1670  147.1220 C   0  0  0  0  0  2  0  0  0  0  0  0
  160.4190  206.1490  145.5690 C   0  0  0  0  0  2  0  0  0  0  0  0
  161.4870  205.5180  146.0530 C   0  0  0  0  0  0  0  0  0  0  0  0
  161.9610  204.2470  145.4170 C   0  0  0  0  0  2  0  0  0  0  0  0
  160.7910  203.3850  144.9670 C   0  0  0  0  0  2  0  0  0  0  0  0
  160.8640  202.0170  145.6180 C   0  0  0  0  0  2  0  0  0  0  0  0
  160.2220  202.0750  147.0040 C   0  0  0  0  0  2  0  0  0  0  0  0
  161.3930  200.4030  148.2090 C   0  0  0  0  0  1  0  0  0  0  0  0
  161.1770  201.8440  148.0990 N   0  0  0  0  0  0  0  0  0  0  0  0
  161.5940  202.4130  151.7230 N   0  0  0  0  0  2  0  0  0  0  0  0
  160.4520  204.4100  150.8520 C   0  0  0  0  0  2  0  0  0  0  0  0
  160.5250  203.3740  151.9780 C   0  0  0  0  0  2  0  0  0  0  0  0
  160.6700  202.3750  149.3760 C   0  0  2  0  0  3  0  0  0  0  0  0
  161.0050  203.8640  149.5320 C   0  0  0  0  0  2  0  0  0  0  0  0
  161.2300  201.5710  150.5770 C   0  0  0  0  0  2  0  0  0  0  0  0
  1  4  2  0  0  0  0
  2  6  1  0  0  0  0
  3  1  1  0  0  0  0
  5  7  1  0  0  0  0
  5  2  2  0  0  0  0
  6  1  1  0  0  0  0
  6  9  1  1  0  0  0
  7  3  1  0  0  0  0
  8 11  1  0  0  0  0
  9 12  1  0  0  0  0
 10  9  1  0  0  0  0
 10 13  2  0  0  0  0
 12  8  1  0  0  0  0
 13 11  1  0  0  0  0
 14 13  1  0  0  0  0
 15 18  1  0  0  0  0
 15 16  1  0  0  0  0
 16 22  1  6  0  0  0
 16 17  1  0  0  0  0
 17 19  1  0  0  0  0
 18 20  1  0  0  0  0
 19 14  1  1  0  0  0
 20 19  1  0  0  0  0
 22 21  1  0  0  0  0
 23  5  1  0  0  0  0
 24 23  1  0  0  0  0
 25 24  1  0  0  0  0
 26 25  1  0  0  0  0
 27 28  2  0  0  0  0
 28 26  1  0  0  0  0
 29 28  1  0  0  0  0
 30 29  1  0  0  0  0
 30 31  1  0  0  0  0
 31 32  1  0  0  0  0
 32 34  1  0  0  0  0
 34 33  1  0  0  0  0
 35 37  1  0  0  0  0
 36 37  1  0  0  0  0
 38 34  1  6  0  0  0
 38 39  1  0  0  0  0
 38 40  1  0  0  0  0
 39 36  1  0  0  0  0
 40 35  1  0  0  0  0
M  END
>  <MODEL>
4

>  <REMARK>
 VINA RESULT:      -6.6      2.080      4.409
  Name = 
  15 active torsions:
  status: ('A' for Active; 'I' for Inactive)
    1  A    between atoms: C_2  and  C_12
    2  A    between atoms: C_2  and  C_39
    3  A    between atoms: O_4  and  C_11
    4  A    between atoms: O_4  and  C_24
    5  A    between atoms: N_9  and  C_29
    6  A    between atoms: N_10  and  C_19
    7  A    between atoms: N_10  and  C_25
    8  A    between atoms: C_11  and  C_30
    9  A    between atoms: C_12  and  C_37
   10  A    between atoms: C_15  and  O_33
   11  A    between atoms: C_19  and  C_37
   12  A    between atoms: C_27  and  C_30
   13  A    between atoms: C_27  and  C_39
   14  A    between atoms: C_32  and  N_40
   15  A    between atoms: C_35  and  N_40
                            x       y       z     vdW  Elec       q    Type
                         _______ _______ _______ _____ _____    ______ ____

>  <TORSDO>
F 15

$$$$
=
 OpenBabel11072410523D

 40 43  0  0  1  0  0  0  0  0999 V2000
  162.0080  209.9490  150.7300 C   0  0  0  0  0  0  0  0  0  0  0  0
  161.4730  209.1050  152.9610 N   0  0  0  0  0  0  0  0  0  0  0  0
  161.6300  208.6680  150.2260 N   0  0  0  0  0  2  0  0  0  0  0  0
  162.6600  210.7750  149.9850 N   0  0  0  0  0  2  0  0  0  0  0  0
  161.0660  207.9580  152.4880 C   0  0  0  0  0  0  0  0  0  0  0  0
  161.6580  210.3090  152.1440 C   0  0  2  0  0  3  0  0  0  0  0  0
  160.7740  207.7930  151.0220 C   0  0  0  0  0  2  0  0  0  0  0  0
  158.5340  212.0050  153.4250 C   0  0  0  0  0  2  0  0  0  0  0  0
  160.4660  211.1500  152.1890 N   0  0  0  0  0  0  0  0  0  0  0  0
  160.4130  212.2980  151.3330 C   0  0  0  0  0  3  0  0  0  0  0  0
  158.1600  212.8270  152.1950 C   0  0  0  0  0  2  0  0  0  0  0  0
  159.3000  210.7630  152.9870 C   0  0  0  0  0  2  0  0  0  0  0  0
  159.3570  213.1230  151.3340 C   0  0  0  0  0  0  0  0  0  0  0  0
  159.3020  214.2600  150.4600 N   0  0  0  0  0  2  0  0  0  0  0  0
  161.0790  213.1250  146.7360 C   0  0  0  0  0  2  0  0  0  0  0  0
  159.5610  213.3010  146.7850 C   0  0  2  0  0  3  0  0  0  0  0  0
  159.0720  213.2360  148.2310 C   0  0  0  0  0  2  0  0  0  0  0  0
  161.7600  214.2180  147.5560 C   0  0  0  0  0  2  0  0  0  0  0  0
  159.7690  214.3040  149.0750 C   0  0  2  0  0  3  0  0  0  0  0  0
  161.2890  214.1600  149.0060 C   0  0  0  0  0  2  0  0  0  0  0  0
  157.6410  212.7340  145.8440 C   0  0  0  0  0  1  0  0  0  0  0  0
  158.9500  212.2920  146.0390 O   0  0  0  0  0  0  0  0  0  0  0  0
  160.8670  206.8660  153.3360 O   0  0  0  0  0  0  0  0  0  0  0  0
  161.8610  205.8700  153.5640 C   0  0  0  0  0  2  0  0  0  0  0  0
  162.0550  205.0030  152.3240 C   0  0  0  0  0  2  0  0  0  0  0  0
  160.8110  204.1790  152.0200 C   0  0  0  0  0  2  0  0  0  0  0  0
  160.7340  204.6670  149.6250 C   0  0  0  0  0  2  0  0  0  0  0  0
  160.7770  203.7480  150.5880 C   0  0  0  0  0  0  0  0  0  0  0  0
  160.9600  202.3030  150.2400 C   0  0  0  0  0  2  0  0  0  0  0  0
  160.4240  201.9980  148.8490 C   0  0  0  0  0  2  0  0  0  0  0  0
  161.1230  200.7810  148.2720 C   0  0  0  0  0  2  0  0  0  0  0  0
  161.5660  201.0770  146.8400 C   0  0  0  0  0  2  0  0  0  0  0  0
  160.0460  201.3150  145.0360 C   0  0  0  0  0  1  0  0  0  0  0  0
  160.6860  202.0260  146.1420 N   0  0  0  0  0  0  0  0  0  0  0  0
  160.8350  205.5920  145.1960 N   0  0  0  0  0  2  0  0  0  0  0  0
  163.0210  205.0650  146.1930 C   0  0  0  0  0  2  0  0  0  0  0  0
  162.2760  205.7840  145.0640 C   0  0  0  0  0  2  0  0  0  0  0  0
  161.4410  203.1820  145.6260 C   0  0  2  0  0  3  0  0  0  0  0  0
  162.2220  203.8810  146.7460 C   0  0  0  0  0  2  0  0  0  0  0  0
  160.5020  204.1910  144.9160 C   0  0  0  0  0  2  0  0  0  0  0  0
  1  6  1  0  0  0  0
  3  1  1  0  0  0  0
  3  7  1  0  0  0  0
  4  1  2  0  0  0  0
  5  2  2  0  0  0  0
  5 23  1  0  0  0  0
  6  9  1  6  0  0  0
  6  2  1  0  0  0  0
  7  5  1  0  0  0  0
  9 12  1  0  0  0  0
 10 13  2  0  0  0  0
 10  9  1  0  0  0  0
 11  8  1  0  0  0  0
 12  8  1  0  0  0  0
 13 11  1  0  0  0  0
 14 13  1  0  0  0  0
 15 16  1  0  0  0  0
 15 18  1  0  0  0  0
 16 22  1  6  0  0  0
 16 17  1  0  0  0  0
 17 19  1  0  0  0  0
 18 20  1  0  0  0  0
 19 14  1  1  0  0  0
 20 19  1  0  0  0  0
 21 22  1  0  0  0  0
 23 24  1  0  0  0  0
 25 24  1  0  0  0  0
 26 25  1  0  0  0  0
 27 28  2  0  0  0  0
 28 26  1  0  0  0  0
 29 28  1  0  0  0  0
 30 29  1  0  0  0  0
 31 30  1  0  0  0  0
 32 31  1  0  0  0  0
 33 34  1  0  0  0  0
 34 32  1  0  0  0  0
 36 39  1  0  0  0  0
 37 35  1  0  0  0  0
 37 36  1  0  0  0  0
 38 34  1  1  0  0  0
 38 39  1  0  0  0  0
 40 35  1  0  0  0  0
 40 38  1  0  0  0  0
M  END
>  <MODEL>
5

>  <REMARK>
 VINA RESULT:      -6.5      1.836      2.895
  Name = 
  15 active torsions:
  status: ('A' for Active; 'I' for Inactive)
    1  A    between atoms: C_2  and  C_12
    2  A    between atoms: C_2  and  C_39
    3  A    between atoms: O_4  and  C_11
    4  A    between atoms: O_4  and  C_24
    5  A    between atoms: N_9  and  C_29
    6  A    between atoms: N_10  and  C_19
    7  A    between atoms: N_10  and  C_25
    8  A    between atoms: C_11  and  C_30
    9  A    between atoms: C_12  and  C_37
   10  A    between atoms: C_15  and  O_33
   11  A    between atoms: C_19  and  C_37
   12  A    between atoms: C_27  and  C_30
   13  A    between atoms: C_27  and  C_39
   14  A    between atoms: C_32  and  N_40
   15  A    between atoms: C_35  and  N_40
                            x       y       z     vdW  Elec       q    Type
                         _______ _______ _______ _____ _____    ______ ____

>  <TORSDO>
F 15

$$$$
=
 OpenBabel11072410523D

 40 43  0  0  1  0  0  0  0  0999 V2000
  160.2500  210.4390  154.9710 C   0  0  0  0  0  0  0  0  0  0  0  0
  161.2070  211.1430  152.8350 N   0  0  0  0  0  0  0  0  0  0  0  0
  159.0480  211.0990  154.5750 N   0  0  0  0  0  2  0  0  0  0  0  0
  160.4220  210.0800  156.1980 N   0  0  0  0  0  2  0  0  0  0  0  0
  160.0840  211.6870  152.4500 C   0  0  0  0  0  0  0  0  0  0  0  0
  161.3180  210.1930  153.9470 C   0  0  2  0  0  3  0  0  0  0  0  0
  158.7980  211.3780  153.1640 C   0  0  0  0  0  2  0  0  0  0  0  0
  160.7970  206.4510  153.8640 C   0  0  0  0  0  2  0  0  0  0  0  0
  161.2650  208.8180  153.4570 N   0  0  0  0  0  0  0  0  0  0  0  0
  161.0630  208.6070  152.0540 C   0  0  0  0  0  3  0  0  0  0  0  0
  161.1800  206.1660  152.4140 C   0  0  0  0  0  2  0  0  0  0  0  0
  161.5410  207.6890  154.3480 C   0  0  0  0  0  2  0  0  0  0  0  0
  160.9880  207.3730  151.5370 C   0  0  0  0  0  0  0  0  0  0  0  0
  160.8050  207.1680  150.1280 N   0  0  0  0  0  2  0  0  0  0  0  0
  161.4600  204.1450  147.1700 C   0  0  0  0  0  2  0  0  0  0  0  0
  162.1970  205.4750  147.0150 C   0  0  2  0  0  3  0  0  0  0  0  0
  161.5100  206.5560  147.8480 C   0  0  0  0  0  2  0  0  0  0  0  0
  161.4390  203.7250  148.6380 C   0  0  0  0  0  2  0  0  0  0  0  0
  161.4510  206.1370  149.3180 C   0  0  2  0  0  3  0  0  0  0  0  0
  160.7460  204.7910  149.4820 C   0  0  0  0  0  2  0  0  0  0  0  0
  160.8560  205.9980  145.3360 C   0  0  0  0  0  1  0  0  0  0  0  0
  162.2020  205.8520  145.6720 O   0  0  0  0  0  0  0  0  0  0  0  0
  160.0490  212.5490  151.3500 O   0  0  0  0  0  0  0  0  0  0  0  0
  160.8790  212.3770  150.2050 C   0  0  0  0  0  2  0  0  0  0  0  0
  160.4750  213.3380  149.0920 C   0  0  0  0  0  2  0  0  0  0  0  0
  160.7840  212.7610  147.7180 C   0  0  0  0  0  2  0  0  0  0  0  0
  163.2150  212.5270  147.8360 C   0  0  0  0  0  2  0  0  0  0  0  0
  162.1650  213.1210  147.2710 C   0  0  0  0  0  0  0  0  0  0  0  0
  162.3560  214.0140  146.0830 C   0  0  0  0  0  2  0  0  0  0  0  0
  162.7490  213.2150  144.8490 C   0  0  0  0  0  2  0  0  0  0  0  0
  161.9190  213.6490  143.6560 C   0  0  0  0  0  2  0  0  0  0  0  0
  162.4500  212.9760  142.3910 C   0  0  0  0  0  2  0  0  0  0  0  0
  160.4050  211.7830  142.2770 C   0  0  0  0  0  1  0  0  0  0  0  0
  161.3860  212.5200  141.4830 N   0  0  0  0  0  0  0  0  0  0  0  0
  160.8430  210.2010  138.6620 N   0  0  0  0  0  2  0  0  0  0  0  0
  162.8060  211.5550  138.0560 C   0  0  0  0  0  2  0  0  0  0  0  0
  162.1810  210.1560  138.0780 C   0  0  0  0  0  2  0  0  0  0  0  0
  161.9220  211.6550  140.4180 C   0  0  2  0  0  3  0  0  0  0  0  0
  162.2270  212.4600  139.1480 C   0  0  0  0  0  2  0  0  0  0  0  0
  160.9470  210.4950  140.0960 C   0  0  0  0  0  2  0  0  0  0  0  0
  1  4  2  0  0  0  0
  2  6  1  0  0  0  0
  3  1  1  0  0  0  0
  5  2  2  0  0  0  0
  5  7  1  0  0  0  0
  6  9  1  6  0  0  0
  6  1  1  0  0  0  0
  7  3  1  0  0  0  0
  8 12  1  0  0  0  0
  9 12  1  0  0  0  0
 10  9  1  0  0  0  0
 11  8  1  0  0  0  0
 13 10  2  0  0  0  0
 13 11  1  0  0  0  0
 14 13  1  0  0  0  0
 15 18  1  0  0  0  0
 16 22  1  6  0  0  0
 16 15  1  0  0  0  0
 16 17  1  0  0  0  0
 17 19  1  0  0  0  0
 18 20  1  0  0  0  0
 19 20  1  0  0  0  0
 19 14  1  1  0  0  0
 21 22  1  0  0  0  0
 23  5  1  0  0  0  0
 24 23  1  0  0  0  0
 25 24  1  0  0  0  0
 26 25  1  0  0  0  0
 28 26  1  0  0  0  0
 28 27  2  0  0  0  0
 29 28  1  0  0  0  0
 30 29  1  0  0  0  0
 31 30  1  0  0  0  0
 32 31  1  0  0  0  0
 34 33  1  0  0  0  0
 34 32  1  0  0  0  0
 35 40  1  0  0  0  0
 36 37  1  0  0  0  0
 36 39  1  0  0  0  0
 37 35  1  0  0  0  0
 38 34  1  1  0  0  0
 39 38  1  0  0  0  0
 40 38  1  0  0  0  0
M  END
>  <MODEL>
6

>  <REMARK>
 VINA RESULT:      -6.4      4.130      8.334
  Name = 
  15 active torsions:
  status: ('A' for Active; 'I' for Inactive)
    1  A    between atoms: C_2  and  C_12
    2  A    between atoms: C_2  and  C_39
    3  A    between atoms: O_4  and  C_11
    4  A    between atoms: O_4  and  C_24
    5  A    between atoms: N_9  and  C_29
    6  A    between atoms: N_10  and  C_19
    7  A    between atoms: N_10  and  C_25
    8  A    between atoms: C_11  and  C_30
    9  A    between atoms: C_12  and  C_37
   10  A    between atoms: C_15  and  O_33
   11  A    between atoms: C_19  and  C_37
   12  A    between atoms: C_27  and  C_30
   13  A    between atoms: C_27  and  C_39
   14  A    between atoms: C_32  and  N_40
   15  A    between atoms: C_35  and  N_40
                            x       y       z     vdW  Elec       q    Type
                         _______ _______ _______ _____ _____    ______ ____

>  <TORSDO>
F 15

$$$$
=
 OpenBabel11072410523D

 40 43  0  0  1  0  0  0  0  0999 V2000
  161.0950  212.9410  147.5660 C   0  0  0  0  0  0  0  0  0  0  0  0
  161.8430  212.2390  149.7840 N   0  0  0  0  0  0  0  0  0  0  0  0
  161.1860  211.5720  147.1730 N   0  0  0  0  0  2  0  0  0  0  0  0
  160.9850  213.8680  146.6750 N   0  0  0  0  0  2  0  0  0  0  0  0
  161.8610  210.9800  149.4390 C   0  0  0  0  0  0  0  0  0  0  0  0
  161.1550  213.2880  149.0240 C   0  0  2  0  0  3  0  0  0  0  0  0
  161.1700  210.5200  148.1850 C   0  0  0  0  0  2  0  0  0  0  0  0
  157.3880  213.3690  149.3080 C   0  0  0  0  0  2  0  0  0  0  0  0
  159.8180  213.5200  149.5610 N   0  0  0  0  0  0  0  0  0  0  0  0
  159.6570  213.5580  150.9850 C   0  0  0  0  0  3  0  0  0  0  0  0
  157.2440  213.9970  150.6920 C   0  0  0  0  0  2  0  0  0  0  0  0
  158.6930  213.8360  148.6770 C   0  0  0  0  0  2  0  0  0  0  0  0
  158.4560  213.7500  151.5480 C   0  0  0  0  0  0  0  0  0  0  0  0
  158.3050  213.8060  152.9740 N   0  0  0  0  0  2  0  0  0  0  0  0
  158.5050  211.3310  156.4590 C   0  0  0  0  0  2  0  0  0  0  0  0
  157.1280  211.7890  155.9810 C   0  0  2  0  0  3  0  0  0  0  0  0
  157.2680  212.9990  155.0580 C   0  0  0  0  0  2  0  0  0  0  0  0
  159.3810  210.9640  155.2640 C   0  0  0  0  0  2  0  0  0  0  0  0
  158.1690  212.6590  153.8700 C   0  0  2  0  0  3  0  0  0  0  0  0
  159.5390  212.1660  154.3380 C   0  0  0  0  0  2  0  0  0  0  0  0
  155.2380  212.7930  156.5410 C   0  0  0  0  0  1  0  0  0  0  0  0
  156.3400  212.1290  157.0810 O   0  0  0  0  0  0  0  0  0  0  0  0
  162.4980  210.0290  150.2390 O   0  0  0  0  0  0  0  0  0  0  0  0
  162.5420  210.1170  151.6610 C   0  0  0  0  0  2  0  0  0  0  0  0
  161.2010  209.7260  152.2710 C   0  0  0  0  0  2  0  0  0  0  0  0
  160.8310  208.2890  151.9300 C   0  0  0  0  0  2  0  0  0  0  0  0
  160.6260  207.5000  154.2350 C   0  0  0  0  0  2  0  0  0  0  0  0
  161.1930  207.3520  153.0390 C   0  0  0  0  0  0  0  0  0  0  0  0
  162.0550  206.1600  152.7580 C   0  0  0  0  0  2  0  0  0  0  0  0
  161.2170  204.9020  152.5800 C   0  0  0  0  0  2  0  0  0  0  0  0
  161.5050  204.2650  151.2340 C   0  0  0  0  0  2  0  0  0  0  0  0
  160.6610  204.9430  150.1560 C   0  0  0  0  0  2  0  0  0  0  0  0
  161.1360  206.9500  148.9890 C   0  0  0  0  0  1  0  0  0  0  0  0
  161.4620  205.5280  149.0700 N   0  0  0  0  0  0  0  0  0  0  0  0
  162.5070  204.6030  145.6520 N   0  0  0  0  0  2  0  0  0  0  0  0
  161.1930  202.7020  146.4960 C   0  0  0  0  0  2  0  0  0  0  0  0
  161.4830  203.6220  145.3050 C   0  0  0  0  0  2  0  0  0  0  0  0
  161.1810  204.8730  147.7810 C   0  0  2  0  0  3  0  0  0  0  0  0
  161.5120  203.3760  147.8330 C   0  0  0  0  0  2  0  0  0  0  0  0
  161.9600  205.5540  146.6270 C   0  0  0  0  0  2  0  0  0  0  0  0
  1  6  1  0  0  0  0
  3  1  1  0  0  0  0
  3  7  1  0  0  0  0
  4  1  2  0  0  0  0
  5  2  2  0  0  0  0
  5 23  1  0  0  0  0
  6  9  1  1  0  0  0
  6  2  1  0  0  0  0
  7  5  1  0  0  0  0
  8 11  1  0  0  0  0
  9 10  1  0  0  0  0
 10 13  2  0  0  0  0
 11 13  1  0  0  0  0
 12  8  1  0  0  0  0
 12  9  1  0  0  0  0
 13 14  1  0  0  0  0
 16 15  1  0  0  0  0
 16 22  1  1  0  0  0
 17 16  1  0  0  0  0
 18 15  1  0  0  0  0
 19 14  1  6  0  0  0
 19 20  1  0  0  0  0
 19 17  1  0  0  0  0
 20 18  1  0  0  0  0
 21 22  1  0  0  0  0
 23 24  1  0  0  0  0
 24 25  1  0  0  0  0
 26 25  1  0  0  0  0
 26 28  1  0  0  0  0
 28 27  2  0  0  0  0
 29 28  1  0  0  0  0
 30 29  1  0  0  0  0
 31 30  1  0  0  0  0
 32 31  1  0  0  0  0
 33 34  1  0  0  0  0
 34 32  1  0  0  0  0
 35 40  1  0  0  0  0
 36 39  1  0  0  0  0
 37 35  1  0  0  0  0
 37 36  1  0  0  0  0
 38 39  1  0  0  0  0
 38 34  1  1  0  0  0
 40 38  1  0  0  0  0
M  END
>  <MODEL>
7

>  <REMARK>
 VINA RESULT:      -6.3      2.535      5.541
  Name = 
  15 active torsions:
  status: ('A' for Active; 'I' for Inactive)
    1  A    between atoms: C_2  and  C_12
    2  A    between atoms: C_2  and  C_39
    3  A    between atoms: O_4  and  C_11
    4  A    between atoms: O_4  and  C_24
    5  A    between atoms: N_9  and  C_29
    6  A    between atoms: N_10  and  C_19
    7  A    between atoms: N_10  and  C_25
    8  A    between atoms: C_11  and  C_30
    9  A    between atoms: C_12  and  C_37
   10  A    between atoms: C_15  and  O_33
   11  A    between atoms: C_19  and  C_37
   12  A    between atoms: C_27  and  C_30
   13  A    between atoms: C_27  and  C_39
   14  A    between atoms: C_32  and  N_40
   15  A    between atoms: C_35  and  N_40
                            x       y       z     vdW  Elec       q    Type
                         _______ _______ _______ _____ _____    ______ ____

>  <TORSDO>
F 15

$$$$
=
 OpenBabel11072410523D

 40 43  0  0  1  0  0  0  0  0999 V2000
  161.9570  210.4650  149.5360 C   0  0  0  0  0  0  0  0  0  0  0  0
  162.4120  209.4460  151.7100 N   0  0  0  0  0  0  0  0  0  0  0  0
  161.6460  209.1550  149.0610 N   0  0  0  0  0  2  0  0  0  0  0  0
  162.1480  211.4310  148.7030 N   0  0  0  0  0  2  0  0  0  0  0  0
  162.0620  208.2610  151.2880 C   0  0  0  0  0  0  0  0  0  0  0  0
  162.0840  210.6940  151.0120 C   0  0  2  0  0  3  0  0  0  0  0  0
  161.2940  208.1000  150.0050 C   0  0  0  0  0  2  0  0  0  0  0  0
  158.8060  212.5620  151.2150 C   0  0  0  0  0  2  0  0  0  0  0  0
  160.8640  211.2830  151.5570 N   0  0  0  0  0  0  0  0  0  0  0  0
  160.2880  210.6880  152.7270 C   0  0  0  0  0  3  0  0  0  0  0  0
  158.4990  212.3900  152.7010 C   0  0  0  0  0  2  0  0  0  0  0  0
  160.3140  212.5240  151.0060 C   0  0  0  0  0  2  0  0  0  0  0  0
  159.1610  211.1660  153.2710 C   0  0  0  0  0  0  0  0  0  0  0  0
  158.6000  210.5770  154.4540 N   0  0  0  0  0  2  0  0  0  0  0  0
  161.7120  209.1880  157.0420 C   0  0  0  0  0  2  0  0  0  0  0  0
  161.3370  210.6690  157.0980 C   0  0  2  0  0  3  0  0  0  0  0  0
  160.5830  211.0680  155.8310 C   0  0  0  0  0  2  0  0  0  0  0  0
  160.4540  208.3330  156.9040 C   0  0  0  0  0  2  0  0  0  0  0  0
  159.3360  210.1990  155.6590 C   0  0  2  0  0  3  0  0  0  0  0  0
  159.6950  208.7130  155.6360 C   0  0  0  0  0  2  0  0  0  0  0  0
  163.4610  210.7480  156.4830 C   0  0  0  0  0  1  0  0  0  0  0  0
  162.4950  211.4390  157.2160 O   0  0  0  0  0  0  0  0  0  0  0  0
  162.3700  207.1190  152.0320 O   0  0  0  0  0  0  0  0  0  0  0  0
  161.9930  205.8050  151.6270 C   0  0  0  0  0  2  0  0  0  0  0  0
  161.3590  205.0410  152.7840 C   0  0  0  0  0  2  0  0  0  0  0  0
  160.4580  203.9200  152.2840 C   0  0  0  0  0  2  0  0  0  0  0  0
  162.2970  202.4360  151.6560 C   0  0  0  0  0  2  0  0  0  0  0  0
  161.1670  203.0450  151.3000 C   0  0  0  0  0  0  0  0  0  0  0  0
  160.5230  202.7240  149.9860 C   0  0  0  0  0  2  0  0  0  0  0  0
  160.4580  201.2210  149.7550 C   0  0  0  0  0  2  0  0  0  0  0  0
  160.0200  200.9260  148.3330 C   0  0  0  0  0  2  0  0  0  0  0  0
  161.0320  201.5180  147.3530 C   0  0  0  0  0  2  0  0  0  0  0  0
  160.0860  201.3810  145.1840 C   0  0  0  0  0  1  0  0  0  0  0  0
  160.4100  202.3000  146.2740 N   0  0  0  0  0  0  0  0  0  0  0  0
  160.9180  205.6230  144.7480 N   0  0  0  0  0  2  0  0  0  0  0  0
  162.7070  205.3640  146.4170 C   0  0  0  0  0  2  0  0  0  0  0  0
  162.3400  205.8320  145.0050 C   0  0  0  0  0  2  0  0  0  0  0  0
  161.3110  203.3590  145.7870 C   0  0  2  0  0  3  0  0  0  0  0  0
  161.7520  204.2830  146.9310 C   0  0  0  0  0  2  0  0  0  0  0  0
  160.6450  204.1840  144.6570 C   0  0  0  0  0  2  0  0  0  0  0  0
  1  6  1  0  0  0  0
  3  1  1  0  0  0  0
  3  7  1  0  0  0  0
  4  1  2  0  0  0  0
  5  2  2  0  0  0  0
  5 23  1  0  0  0  0
  6  9  1  1  0  0  0
  6  2  1  0  0  0  0
  7  5  1  0  0  0  0
  8 11  1  0  0  0  0
  9 10  1  0  0  0  0
 10 13  2  0  0  0  0
 11 13  1  0  0  0  0
 12  8  1  0  0  0  0
 12  9  1  0  0  0  0
 13 14  1  0  0  0  0
 15 16  1  0  0  0  0
 16 22  1  6  0  0  0
 17 16  1  0  0  0  0
 18 15  1  0  0  0  0
 19 14  1  6  0  0  0
 19 17  1  0  0  0  0
 20 19  1  0  0  0  0
 20 18  1  0  0  0  0
 21 22  1  0  0  0  0
 24 23  1  0  0  0  0
 24 25  1  0  0  0  0
 26 25  1  0  0  0  0
 28 27  2  0  0  0  0
 28 26  1  0  0  0  0
 29 28  1  0  0  0  0
 30 29  1  0  0  0  0
 31 30  1  0  0  0  0
 32 31  1  0  0  0  0
 33 34  1  0  0  0  0
 34 32  1  0  0  0  0
 35 37  1  0  0  0  0
 36 39  1  0  0  0  0
 37 36  1  0  0  0  0
 38 34  1  1  0  0  0
 38 39  1  0  0  0  0
 40 35  1  0  0  0  0
 40 38  1  0  0  0  0
M  END
>  <MODEL>
8

>  <REMARK>
 VINA RESULT:      -6.2      2.285      4.920
  Name = 
  15 active torsions:
  status: ('A' for Active; 'I' for Inactive)
    1  A    between atoms: C_2  and  C_12
    2  A    between atoms: C_2  and  C_39
    3  A    between atoms: O_4  and  C_11
    4  A    between atoms: O_4  and  C_24
    5  A    between atoms: N_9  and  C_29
    6  A    between atoms: N_10  and  C_19
    7  A    between atoms: N_10  and  C_25
    8  A    between atoms: C_11  and  C_30
    9  A    between atoms: C_12  and  C_37
   10  A    between atoms: C_15  and  O_33
   11  A    between atoms: C_19  and  C_37
   12  A    between atoms: C_27  and  C_30
   13  A    between atoms: C_27  and  C_39
   14  A    between atoms: C_32  and  N_40
   15  A    between atoms: C_35  and  N_40
                            x       y       z     vdW  Elec       q    Type
                         _______ _______ _______ _____ _____    ______ ____

>  <TORSDO>
F 15

$$$$
=
 OpenBabel11072410523D

 40 43  0  0  1  0  0  0  0  0999 V2000
  160.7950  209.5360  155.3480 C   0  0  0  0  0  0  0  0  0  0  0  0
  161.3320  210.5530  153.1910 N   0  0  0  0  0  0  0  0  0  0  0  0
  159.5440  210.2200  155.2860 N   0  0  0  0  0  2  0  0  0  0  0  0
  161.1960  209.0110  156.4560 N   0  0  0  0  0  2  0  0  0  0  0  0
  160.1600  211.1230  153.1080 C   0  0  0  0  0  0  0  0  0  0  0  0
  161.6470  209.4580  154.1160 C   0  0  2  0  0  3  0  0  0  0  0  0
  159.0310  210.6890  154.0020 C   0  0  0  0  0  2  0  0  0  0  0  0
  160.8540  205.8050  153.5600 C   0  0  0  0  0  2  0  0  0  0  0  0
  161.4920  208.1660  153.4540 N   0  0  0  0  0  0  0  0  0  0  0  0
  161.2700  208.1520  152.0380 C   0  0  0  0  0  3  0  0  0  0  0  0
  161.2100  205.6830  152.0810 C   0  0  0  0  0  2  0  0  0  0  0  0
  161.6890  206.9140  154.1880 C   0  0  0  0  0  2  0  0  0  0  0  0
  161.1030  207.0030  151.3680 C   0  0  0  0  0  0  0  0  0  0  0  0
  160.9000  206.9960  149.9470 N   0  0  0  0  0  2  0  0  0  0  0  0
  161.1210  204.0050  146.8950 C   0  0  0  0  0  2  0  0  0  0  0  0
  161.7060  205.3840  146.5940 C   0  0  2  0  0  3  0  0  0  0  0  0
  161.1380  206.4190  147.5630 C   0  0  0  0  0  2  0  0  0  0  0  0
  161.4500  203.5960  148.3280 C   0  0  0  0  0  2  0  0  0  0  0  0
  161.4300  206.0090  149.0080 C   0  0  2  0  0  3  0  0  0  0  0  0
  160.8790  204.6150  149.3110 C   0  0  0  0  0  2  0  0  0  0  0  0
  161.6820  204.6190  144.5180 C   0  0  0  0  0  1  0  0  0  0  0  0
  161.3920  205.7490  145.2840 O   0  0  0  0  0  0  0  0  0  0  0  0
  159.9210  212.1300  152.1690 O   0  0  0  0  0  0  0  0  0  0  0  0
  158.7300  212.9130  152.1600 C   0  0  0  0  0  2  0  0  0  0  0  0
  159.0160  214.3290  151.6720 C   0  0  0  0  0  2  0  0  0  0  0  0
  158.8080  214.4530  150.1680 C   0  0  0  0  0  2  0  0  0  0  0  0
  156.3870  214.3090  150.4830 C   0  0  0  0  0  2  0  0  0  0  0  0
  157.4530  213.9670  149.7610 C   0  0  0  0  0  0  0  0  0  0  0  0
  157.2790  213.2440  148.4610 C   0  0  0  0  0  2  0  0  0  0  0  0
  156.9000  214.2030  147.3420 C   0  0  0  0  0  2  0  0  0  0  0  0
  156.9320  213.4890  146.0040 C   0  0  0  0  0  2  0  0  0  0  0  0
  158.1580  212.5790  145.9390 C   0  0  0  0  0  2  0  0  0  0  0  0
  159.3350  212.8150  143.8950 C   0  0  0  0  0  1  0  0  0  0  0  0
  159.3210  213.2130  145.3010 N   0  0  0  0  0  0  0  0  0  0  0  0
  162.6280  214.0720  146.7020 N   0  0  0  0  0  2  0  0  0  0  0  0
  161.7280  212.2870  148.1360 C   0  0  0  0  0  2  0  0  0  0  0  0
  162.9590  212.8380  147.4080 C   0  0  0  0  0  2  0  0  0  0  0  0
  160.5800  212.8060  145.9500 C   0  0  2  0  0  3  0  0  0  0  0  0
  160.4220  212.7340  147.4750 C   0  0  0  0  0  2  0  0  0  0  0  0
  161.7380  213.7660  145.5760 C   0  0  0  0  0  2  0  0  0  0  0  0
  1  4  2  0  0  0  0
  2  6  1  0  0  0  0
  3  1  1  0  0  0  0
  5  2  2  0  0  0  0
  5  7  1  0  0  0  0
  6  9  1  6  0  0  0
  6  1  1  0  0  0  0
  7  3  1  0  0  0  0
  8 12  1  0  0  0  0
  9 12  1  0  0  0  0
 10  9  1  0  0  0  0
 11  8  1  0  0  0  0
 13 10  2  0  0  0  0
 13 11  1  0  0  0  0
 14 13  1  0  0  0  0
 15 18  1  0  0  0  0
 16 22  1  6  0  0  0
 16 15  1  0  0  0  0
 16 17  1  0  0  0  0
 17 19  1  0  0  0  0
 18 20  1  0  0  0  0
 19 20  1  0  0  0  0
 19 14  1  1  0  0  0
 21 22  1  0  0  0  0
 23  5  1  0  0  0  0
 24 23  1  0  0  0  0
 25 24  1  0  0  0  0
 26 25  1  0  0  0  0
 28 26  1  0  0  0  0
 28 27  2  0  0  0  0
 29 28  1  0  0  0  0
 30 29  1  0  0  0  0
 31 30  1  0  0  0  0
 32 31  1  0  0  0  0
 33 34  1  0  0  0  0
 34 32  1  0  0  0  0
 35 37  1  0  0  0  0
 37 36  1  0  0  0  0
 38 34  1  6  0  0  0
 38 39  1  0  0  0  0
 39 36  1  0  0  0  0
 40 38  1  0  0  0  0
 40 35  1  0  0  0  0
M  END
>  <MODEL>
9

>  <REMARK>
 VINA RESULT:      -6.0      2.745      8.348
  Name = 
  15 active torsions:
  status: ('A' for Active; 'I' for Inactive)
    1  A    between atoms: C_2  and  C_12
    2  A    between atoms: C_2  and  C_39
    3  A    between atoms: O_4  and  C_11
    4  A    between atoms: O_4  and  C_24
    5  A    between atoms: N_9  and  C_29
    6  A    between atoms: N_10  and  C_19
    7  A    between atoms: N_10  and  C_25
    8  A    between atoms: C_11  and  C_30
    9  A    between atoms: C_12  and  C_37
   10  A    between atoms: C_15  and  O_33
   11  A    between atoms: C_19  and  C_37
   12  A    between atoms: C_27  and  C_30
   13  A    between atoms: C_27  and  C_39
   14  A    between atoms: C_32  and  N_40
   15  A    between atoms: C_35  and  N_40
                            x       y       z     vdW  Elec       q    Type
                         _______ _______ _______ _____ _____    ______ ____

>  <TORSDO>
F 15

$$$$
