=
 OpenBabel11072413583D

 29 33  0  0  1  0  0  0  0  0999 V2000
  159.6620  212.1790  156.5660 C   0  0  0  0  0  2  0  0  0  0  0  0
  156.7780  209.3900  154.6370 C   0  0  0  0  0  1  0  0  0  0  0  0
  161.4040  209.3400  153.9810 C   0  0  0  0  0  0  0  0  0  0  0  0
  162.0050  210.6420  154.4040 C   0  0  0  0  0  2  0  0  0  0  0  0
  157.4170  210.5550  155.3640 C   0  0  2  0  0  0  0  0  0  0  0  0
  161.2030  207.6360  150.8290 O   0  0  0  0  0  1  0  0  0  0  0  0
  160.7600  205.3260  152.5240 C   0  0  0  0  0  1  0  0  0  0  0  0
  159.6300  210.6720  156.4290 C   0  0  1  0  0  0  0  0  0  0  0  0
  160.8880  208.5210  156.2950 C   0  0  0  0  0  0  0  0  0  0  0  0
  156.4250  211.4140  155.8380 O   0  0  0  0  0  1  0  0  0  0  0  0
  160.8720  209.9060  156.8810 C   0  0  0  0  0  2  0  0  0  0  0  0
  161.2980  209.1020  152.6710 C   0  0  0  0  0  3  0  0  0  0  0  0
  160.7760  207.8010  152.1470 C   0  0  2  0  0  3  0  0  0  0  0  0
  158.3990  211.2760  154.4350 C   0  0  2  0  0  3  0  0  0  0  0  0
  160.8330  206.8630  154.4640 C   0  0  0  0  0  2  0  0  0  0  0  0
  160.9930  211.7830  154.3980 C   0  0  0  0  0  2  0  0  0  0  0  0
  158.2440  210.0400  156.5370 C   0  0  0  0  0  2  0  0  0  0  0  0
  160.6210  207.4080  157.2590 C   0  0  0  0  0  1  0  0  0  0  0  0
  161.2900  206.6590  153.0210 C   0  0  1  0  0  3  0  0  0  0  0  0
  159.6970  211.5300  155.1820 C   0  0  1  0  0  0  0  0  0  0  0  0
  161.0690  208.2700  154.9760 C   0  0  0  0  0  0  0  0  0  0  0  0
  159.0190  211.4400  151.7010 F   0  0  0  0  0  0  0  0  0  0  0  0
  156.6730  213.4660  155.4170 O   0  0  0  0  0  1  0  0  0  0  0  0
  158.2290  212.4140  152.2170 C   0  0  0  0  0  0  0  0  0  0  0  0
  157.0540  213.4340  154.0820 C   0  0  0  0  0  0  0  0  0  0  0  0
  156.6060  214.4510  153.2320 C   0  0  0  0  0  3  0  0  0  0  0  0
  156.9650  214.4530  151.8840 C   0  0  0  0  0  3  0  0  0  0  0  0
  157.8740  212.4020  153.5760 C   0  0  0  0  0  0  0  0  0  0  0  0
  157.7760  213.4350  151.3780 C   0  0  0  0  0  3  0  0  0  0  0  0
  3  4  1  0  0  0  0
  3 21  1  0  0  0  0
  5  2  1  6  0  0  0
  5 10  1  0  0  0  0
  5 17  1  0  0  0  0
  8 17  1  1  0  0  0
  8  1  1  0  0  0  0
  8 11  1  0  0  0  0
  9 11  1  0  0  0  0
  9 18  1  0  0  0  0
 12  3  2  0  0  0  0
 13  6  1  6  0  0  0
 13 12  1  0  0  0  0
 13 19  1  0  0  0  0
 14 28  1  1  0  0  0
 14 20  1  0  0  0  0
 14  5  1  0  0  0  0
 15 21  1  0  0  0  0
 16  4  1  0  0  0  0
 19  7  1  6  0  0  0
 19 15  1  0  0  0  0
 20 16  1  6  0  0  0
 20  8  1  0  0  0  0
 20  1  1  0  0  0  0
 21  9  2  0  0  0  0
 22 24  1  0  0  0  0
 24 28  1  0  0  0  0
 25 23  1  0  0  0  0
 26 25  1  0  0  0  0
 27 26  2  0  0  0  0
 28 25  2  0  0  0  0
 29 27  1  0  0  0  0
 29 24  2  0  0  0  0
M  END
>  <MODEL>
1

>  <REMARK>
 VINA RESULT:      -3.3      0.000      0.000
  Name = 
  1 active torsions:
  status: ('A' for Active; 'I' for Inactive)
    1  A    between atoms: C_19  and  C_24
                            x       y       z     vdW  Elec       q    Type
                         _______ _______ _______ _____ _____    ______ ____

>  <TORSDO>
F 1

$$$$
=
 OpenBabel11072413583D

 29 33  0  0  1  0  0  0  0  0999 V2000
  162.3030  209.7200  156.3340 C   0  0  0  0  0  2  0  0  0  0  0  0
  160.8080  211.2540  152.4320 C   0  0  0  0  0  1  0  0  0  0  0  0
  158.2190  210.7680  156.2910 C   0  0  0  0  0  0  0  0  0  0  0  0
  158.8880  209.8400  157.2550 C   0  0  0  0  0  2  0  0  0  0  0  0
  161.6260  210.5970  153.5250 C   0  0  2  0  0  0  0  0  0  0  0  0
  155.1100  210.6320  154.5050 O   0  0  0  0  0  1  0  0  0  0  0  0
  155.5030  213.5000  154.3410 C   0  0  0  0  0  1  0  0  0  0  0  0
  161.5010  210.9470  155.9550 C   0  0  1  0  0  0  0  0  0  0  0  0
  159.8200  212.6740  156.6040 C   0  0  0  0  0  0  0  0  0  0  0  0
  162.8360  210.1430  152.9980 O   0  0  0  0  0  1  0  0  0  0  0  0
  160.9270  211.7830  157.0970 C   0  0  0  0  0  2  0  0  0  0  0  0
  157.1590  210.3080  155.6210 C   0  0  0  0  0  3  0  0  0  0  0  0
  156.3800  211.1810  154.6880 C   0  0  2  0  0  3  0  0  0  0  0  0
  160.8220  209.4620  154.1690 C   0  0  2  0  0  3  0  0  0  0  0  0
  157.6710  213.1660  155.4900 C   0  0  0  0  0  2  0  0  0  0  0  0
  159.8750  208.8990  156.5710 C   0  0  0  0  0  2  0  0  0  0  0  0
  161.9040  211.6020  154.6370 C   0  0  0  0  0  2  0  0  0  0  0  0
  160.1460  214.1320  156.5370 C   0  0  0  0  0  1  0  0  0  0  0  0
  156.2740  212.5870  155.2760 C   0  0  1  0  0  3  0  0  0  0  0  0
  160.9300  209.5700  155.6800 C   0  0  1  0  0  0  0  0  0  0  0  0
  158.6190  212.2090  156.1840 C   0  0  0  0  0  0  0  0  0  0  0  0
  160.5030  209.0280  151.4130 F   0  0  0  0  0  0  0  0  0  0  0  0
  161.3840  207.0110  155.7230 O   0  0  0  0  0  1  0  0  0  0  0  0
  160.7640  207.9440  152.1860 C   0  0  0  0  0  0  0  0  0  0  0  0
  161.2030  206.9300  154.3480 C   0  0  0  0  0  0  0  0  0  0  0  0
  161.2910  205.6760  153.7330 C   0  0  0  0  0  3  0  0  0  0  0  0
  161.1170  205.5540  152.3540 C   0  0  0  0  0  3  0  0  0  0  0  0
  160.9370  208.0790  153.5730 C   0  0  0  0  0  0  0  0  0  0  0  0
  160.8540  206.6870  151.5820 C   0  0  0  0  0  3  0  0  0  0  0  0
  3  4  1  0  0  0  0
  5  2  1  6  0  0  0
  5 14  1  0  0  0  0
  5 17  1  0  0  0  0
  8 17  1  6  0  0  0
  8  1  1  0  0  0  0
  8 11  1  0  0  0  0
  9 11  1  0  0  0  0
 10  5  1  0  0  0  0
 12  3  2  0  0  0  0
 13  6  1  1  0  0  0
 13 19  1  0  0  0  0
 13 12  1  0  0  0  0
 14 28  1  6  0  0  0
 14 20  1  0  0  0  0
 15 21  1  0  0  0  0
 16  4  1  0  0  0  0
 18  9  1  0  0  0  0
 19  7  1  6  0  0  0
 19 15  1  0  0  0  0
 20  8  1  0  0  0  0
 20  1  1  1  0  0  0
 20 16  1  0  0  0  0
 21  3  1  0  0  0  0
 21  9  2  0  0  0  0
 22 24  1  0  0  0  0
 24 28  1  0  0  0  0
 25 23  1  0  0  0  0
 26 25  1  0  0  0  0
 27 26  2  0  0  0  0
 28 25  2  0  0  0  0
 29 24  2  0  0  0  0
 29 27  1  0  0  0  0
M  END
>  <MODEL>
2

>  <REMARK>
 VINA RESULT:      -2.0      1.891      6.057
  Name = 
  1 active torsions:
  status: ('A' for Active; 'I' for Inactive)
    1  A    between atoms: C_19  and  C_24
                            x       y       z     vdW  Elec       q    Type
                         _______ _______ _______ _____ _____    ______ ____

>  <TORSDO>
F 1

$$$$
=
 OpenBabel11072413583D

 29 33  0  0  1  0  0  0  0  0999 V2000
  162.3400  209.6150  156.2990 C   0  0  0  0  0  2  0  0  0  0  0  0
  160.8500  211.2150  152.4210 C   0  0  0  0  0  1  0  0  0  0  0  0
  158.2660  210.7000  156.2800 C   0  0  0  0  0  0  0  0  0  0  0  0
  158.9280  209.7520  157.2290 C   0  0  0  0  0  2  0  0  0  0  0  0
  161.6640  210.5360  153.5040 C   0  0  2  0  0  0  0  0  0  0  0  0
  155.1510  210.6170  154.4990 O   0  0  0  0  0  1  0  0  0  0  0  0
  155.5700  213.4830  154.3740 C   0  0  0  0  0  1  0  0  0  0  0  0
  161.5480  210.8530  155.9390 C   0  0  1  0  0  0  0  0  0  0  0  0
  159.8850  212.5860  156.6160 C   0  0  0  0  0  0  0  0  0  0  0  0
  162.8690  210.0780  152.9670 O   0  0  0  0  0  1  0  0  0  0  0  0
  160.9850  211.6790  157.0930 C   0  0  0  0  0  2  0  0  0  0  0  0
  157.2000  210.2580  155.6060 C   0  0  0  0  0  3  0  0  0  0  0  0
  156.4260  211.1510  154.6870 C   0  0  2  0  0  3  0  0  0  0  0  0
  160.8520  209.4000  154.1330 C   0  0  2  0  0  3  0  0  0  0  0  0
  157.7380  213.1140  155.5130 C   0  0  0  0  0  2  0  0  0  0  0  0
  159.9050  208.8120  156.5300 C   0  0  0  0  0  2  0  0  0  0  0  0
  161.9540  211.5240  154.6280 C   0  0  0  0  0  2  0  0  0  0  0  0
  160.2230  214.0420  156.5670 C   0  0  0  0  0  1  0  0  0  0  0  0
  156.3340  212.5500  155.2950 C   0  0  1  0  0  3  0  0  0  0  0  0
  160.9640  209.4860  155.6460 C   0  0  1  0  0  0  0  0  0  0  0  0
  158.6780  212.1380  156.1920 C   0  0  0  0  0  0  0  0  0  0  0  0
  161.2130  207.1130  155.7230 F   0  0  0  0  0  0  0  0  0  0  0  0
  160.7000  208.8450  151.2330 O   0  0  0  0  0  1  0  0  0  0  0  0
  161.1340  206.9300  154.3810 C   0  0  0  0  0  0  0  0  0  0  0  0
  160.8810  207.7980  152.1270 C   0  0  0  0  0  0  0  0  0  0  0  0
  160.9870  206.4980  151.6230 C   0  0  0  0  0  3  0  0  0  0  0  0
  161.1670  205.4180  152.4890 C   0  0  0  0  0  3  0  0  0  0  0  0
  160.9530  208.0240  153.5190 C   0  0  0  0  0  0  0  0  0  0  0  0
  161.2400  205.6350  153.8660 C   0  0  0  0  0  3  0  0  0  0  0  0
  3  4  1  0  0  0  0
  5  2  1  6  0  0  0
  5 14  1  0  0  0  0
  5 17  1  0  0  0  0
  8 17  1  6  0  0  0
  8  1  1  0  0  0  0
  8 11  1  0  0  0  0
  9 11  1  0  0  0  0
 10  5  1  0  0  0  0
 12  3  2  0  0  0  0
 13  6  1  1  0  0  0
 13 19  1  0  0  0  0
 13 12  1  0  0  0  0
 14 28  1  6  0  0  0
 14 20  1  0  0  0  0
 15 21  1  0  0  0  0
 16  4  1  0  0  0  0
 18  9  1  0  0  0  0
 19  7  1  6  0  0  0
 19 15  1  0  0  0  0
 20  8  1  0  0  0  0
 20  1  1  1  0  0  0
 20 16  1  0  0  0  0
 21  3  1  0  0  0  0
 21  9  2  0  0  0  0
 23 25  1  0  0  0  0
 24 22  1  0  0  0  0
 25 28  1  0  0  0  0
 26 25  2  0  0  0  0
 26 27  1  0  0  0  0
 27 29  2  0  0  0  0
 28 24  2  0  0  0  0
 29 24  1  0  0  0  0
M  END
>  <MODEL>
3

>  <REMARK>
 VINA RESULT:      -2.0      2.059      6.165
  Name = 
  1 active torsions:
  status: ('A' for Active; 'I' for Inactive)
    1  A    between atoms: C_19  and  C_24
                            x       y       z     vdW  Elec       q    Type
                         _______ _______ _______ _____ _____    ______ ____

>  <TORSDO>
F 1

$$$$
