=
 OpenBabel11072414003D

 29 35  0  0  1  0  0  0  0  0999 V2000
  160.9040  205.8850  151.8950 N   0  0  0  0  0  0  0  0  0  0  0  0
  161.7180  205.2330  150.9050 C   0  0  2  0  0  3  0  0  0  0  0  0
  161.4010  206.6690  150.7000 C   0  0  1  0  0  0  0  0  0  0  0  0
  161.3820  207.9880  151.1860 C   0  0  0  0  0  0  0  0  0  0  0  0
  162.6720  207.2560  150.8630 N   0  0  0  0  0  2  0  0  0  0  0  0
  160.7680  209.0070  151.5950 O   0  0  0  0  0  0  0  0  0  0  0  0
  161.6550  203.4540  146.3560 C   0  0  0  0  0  3  0  0  0  0  0  0
  161.9550  204.7060  145.8180 C   0  0  0  0  0  3  0  0  0  0  0  0
  160.8460  204.3820  149.9880 C   0  0  1  0  0  3  0  0  0  0  0  0
  161.9060  205.8440  146.6250 C   0  0  0  0  0  3  0  0  0  0  0  0
  161.2940  204.4720  148.5390 C   0  0  0  0  0  0  0  0  0  0  0  0
  161.0220  201.9580  148.2440 C   0  0  0  0  0  2  0  0  0  0  0  0
  160.8210  202.9420  150.5110 C   0  0  0  0  0  2  0  0  0  0  0  0
  160.1620  202.0180  149.4990 C   0  0  0  0  0  2  0  0  0  0  0  0
  161.3050  203.3300  147.7030 C   0  0  0  0  0  0  0  0  0  0  0  0
  161.5680  205.7280  147.9750 C   0  0  0  0  0  3  0  0  0  0  0  0
  161.7370  206.0270  153.0230 N   0  0  0  0  0  2  0  0  0  0  0  0
  160.8840  206.4470  154.1200 C   0  0  0  0  0  2  0  0  0  0  0  0
  161.6130  207.3800  154.9690 N   0  0  0  0  0  2  0  0  0  0  0  0
  160.1800  207.2300  157.0600 C   0  0  0  0  0  2  0  0  0  0  0  0
  160.6630  208.0330  155.8650 C   0  0  0  0  0  0  0  0  0  0  0  0
  159.3070  207.3630  155.8200 C   0  0  0  0  0  2  0  0  0  0  0  0
  159.9440  210.2750  154.6980 C   0  0  0  0  0  2  0  0  0  0  0  0
  160.5870  209.5620  155.8750 C   0  0  2  0  0  0  0  0  0  0  0  0
  161.4140  210.3630  156.8610 C   0  0  2  0  0  3  0  0  0  0  0  0
  160.6610  211.5500  157.2410 N   0  0  0  0  0  2  0  0  0  0  0  0
  159.1760  210.0710  155.9950 C   0  0  1  0  0  3  0  0  0  0  0  0
  159.2680  211.3070  156.8730 C   0  0  0  0  0  2  0  0  0  0  0  0
  162.7400  210.7690  156.2430 C   0  0  0  0  0  1  0  0  0  0  0  0
  1 17  1  0  0  0  0
  2  1  1  1  0  0  0
  3  5  1  1  0  0  0
  3  2  1  0  0  0  0
  3  4  1  0  0  0  0
  3  1  1  0  0  0  0
  4  6  2  0  0  0  0
  5  4  1  0  0  0  0
  7 15  1  0  0  0  0
  8  7  2  0  0  0  0
  8 10  1  0  0  0  0
  9 13  1  1  0  0  0
  9  2  1  0  0  0  0
 10 16  2  0  0  0  0
 11  9  1  0  0  0  0
 12 14  1  0  0  0  0
 14 13  1  0  0  0  0
 15 12  1  0  0  0  0
 15 11  2  0  0  0  0
 16 11  1  0  0  0  0
 17 18  1  0  0  0  0
 18 19  1  0  0  0  0
 19 21  1  0  0  0  0
 21 24  1  0  0  0  0
 21 20  1  0  0  0  0
 22 21  1  0  0  0  0
 22 20  1  0  0  0  0
 24 23  1  6  0  0  0
 24 27  1  0  0  0  0
 24 25  1  0  0  0  0
 25 29  1  6  0  0  0
 25 26  1  0  0  0  0
 27 23  1  6  0  0  0
 27 28  1  0  0  0  0
 28 26  1  0  0  0  0
M  END
>  <MODEL>
1

>  <REMARK>
 VINA RESULT:      -9.1      0.000      0.000
  Name = 
  6 active torsions:
  status: ('A' for Active; 'I' for Inactive)
    1  A    between atoms: N_2  and  N_17
    2  A    between atoms: C_3  and  C_12
    3  A    between atoms: C_5  and  C_10
    4  A    between atoms: C_5  and  N_16
    5  A    between atoms: C_14  and  N_16
    6  A    between atoms: C_14  and  N_17
                            x       y       z     vdW  Elec       q    Type
                         _______ _______ _______ _____ _____    ______ ____

>  <TORSDO>
F 6

$$$$
=
 OpenBabel11072414003D

 29 35  0  0  1  0  0  0  0  0999 V2000
  160.7300  206.8130  148.5660 N   0  0  0  0  0  0  0  0  0  0  0  0
  161.5940  205.7770  149.0640 C   0  0  2  0  0  3  0  0  0  0  0  0
  161.1180  205.6630  147.6630 C   0  0  1  0  0  0  0  0  0  0  0  0
  160.9630  206.2290  146.3850 C   0  0  0  0  0  0  0  0  0  0  0  0
  162.3190  205.8490  146.9490 N   0  0  0  0  0  2  0  0  0  0  0  0
  160.2470  206.7050  145.4660 O   0  0  0  0  0  0  0  0  0  0  0  0
  161.2050  201.0050  150.0370 C   0  0  0  0  0  3  0  0  0  0  0  0
  161.1150  200.6940  148.6800 C   0  0  0  0  0  3  0  0  0  0  0  0
  160.8050  204.8190  149.9510 C   0  0  1  0  0  3  0  0  0  0  0  0
  160.9360  201.7100  147.7390 C   0  0  0  0  0  3  0  0  0  0  0  0
  160.9780  203.3740  149.5150 C   0  0  0  0  0  0  0  0  0  0  0  0
  161.2500  202.6220  151.9320 C   0  0  0  0  0  2  0  0  0  0  0  0
  161.1990  205.0470  151.4130 C   0  0  0  0  0  2  0  0  0  0  0  0
  160.6170  203.9570  152.2990 C   0  0  0  0  0  2  0  0  0  0  0  0
  161.1170  202.3340  150.4650 C   0  0  0  0  0  0  0  0  0  0  0  0
  160.8590  203.0410  148.1560 C   0  0  0  0  0  3  0  0  0  0  0  0
  161.5620  207.9390  148.4000 N   0  0  0  0  0  2  0  0  0  0  0  0
  162.1380  208.2270  149.7010 C   0  0  0  0  0  2  0  0  0  0  0  0
  161.0710  208.5300  150.6450 N   0  0  0  0  0  2  0  0  0  0  0  0
  161.8490  210.9370  150.4190 C   0  0  0  0  0  2  0  0  0  0  0  0
  161.3800  209.7950  151.3050 C   0  0  0  0  0  0  0  0  0  0  0  0
  162.8550  210.1200  151.2170 C   0  0  0  0  0  2  0  0  0  0  0  0
  160.4900  208.9160  153.6150 C   0  0  0  0  0  2  0  0  0  0  0  0
  160.7740  210.0800  152.6810 C   0  0  2  0  0  0  0  0  0  0  0  0
  160.1680  211.4360  152.9850 C   0  0  2  0  0  3  0  0  0  0  0  0
  160.4040  211.7450  154.3890 N   0  0  0  0  0  2  0  0  0  0  0  0
  161.7260  209.7800  153.8070 C   0  0  1  0  0  3  0  0  0  0  0  0
  161.4710  210.8580  154.8470 C   0  0  0  0  0  2  0  0  0  0  0  0
  158.6760  211.4310  152.7020 C   0  0  0  0  0  1  0  0  0  0  0  0
  2  1  1  1  0  0  0
  2  9  1  0  0  0  0
  3  4  1  6  0  0  0
  3  1  1  0  0  0  0
  3  2  1  0  0  0  0
  4  5  1  0  0  0  0
  5  3  1  0  0  0  0
  6  4  2  0  0  0  0
  7 15  1  0  0  0  0
  8  7  2  0  0  0  0
  9 13  1  1  0  0  0
 10 16  2  0  0  0  0
 10  8  1  0  0  0  0
 11  9  1  0  0  0  0
 11 15  2  0  0  0  0
 12 14  1  0  0  0  0
 13 14  1  0  0  0  0
 15 12  1  0  0  0  0
 16 11  1  0  0  0  0
 17  1  1  0  0  0  0
 17 18  1  0  0  0  0
 18 19  1  0  0  0  0
 19 21  1  0  0  0  0
 20 22  1  0  0  0  0
 20 21  1  0  0  0  0
 22 21  1  0  0  0  0
 24 21  1  6  0  0  0
 24 25  1  0  0  0  0
 24 23  1  0  0  0  0
 24 27  1  0  0  0  0
 25 29  1  1  0  0  0
 25 26  1  0  0  0  0
 26 28  1  0  0  0  0
 27 23  1  1  0  0  0
 27 28  1  0  0  0  0
M  END
>  <MODEL>
2

>  <REMARK>
 VINA RESULT:      -8.7      2.521      4.206
  Name = 
  6 active torsions:
  status: ('A' for Active; 'I' for Inactive)
    1  A    between atoms: N_2  and  N_17
    2  A    between atoms: C_3  and  C_12
    3  A    between atoms: C_5  and  C_10
    4  A    between atoms: C_5  and  N_16
    5  A    between atoms: C_14  and  N_16
    6  A    between atoms: C_14  and  N_17
                            x       y       z     vdW  Elec       q    Type
                         _______ _______ _______ _____ _____    ______ ____

>  <TORSDO>
F 6

$$$$
=
 OpenBabel11072414003D

 29 35  0  0  1  0  0  0  0  0999 V2000
  161.5410  207.8700  150.6810 N   0  0  0  0  0  0  0  0  0  0  0  0
  162.1260  206.5930  150.3720 C   0  0  2  0  0  3  0  0  0  0  0  0
  161.7350  207.4650  149.2360 C   0  0  1  0  0  0  0  0  0  0  0  0
  161.7950  208.7120  148.5880 C   0  0  0  0  0  0  0  0  0  0  0  0
  162.9950  207.7900  148.6940 N   0  0  0  0  0  2  0  0  0  0  0  0
  161.2630  209.7890  148.2120 O   0  0  0  0  0  0  0  0  0  0  0  0
  161.0820  202.1180  148.7120 C   0  0  0  0  0  3  0  0  0  0  0  0
  161.2240  202.5320  147.3870 C   0  0  0  0  0  3  0  0  0  0  0  0
  161.0900  205.4870  150.5460 C   0  0  1  0  0  3  0  0  0  0  0  0
  161.3300  203.8920  147.0860 C   0  0  0  0  0  3  0  0  0  0  0  0
  161.1980  204.4360  149.4540 C   0  0  0  0  0  0  0  0  0  0  0  0
  160.9260  202.5630  151.1580 C   0  0  0  0  0  2  0  0  0  0  0  0
  161.2180  204.8940  151.9520 C   0  0  0  0  0  2  0  0  0  0  0  0
  160.3710  203.6380  152.0820 C   0  0  0  0  0  2  0  0  0  0  0  0
  161.0480  203.0590  149.7460 C   0  0  0  0  0  0  0  0  0  0  0  0
  161.3080  204.8380  148.1130 C   0  0  0  0  0  3  0  0  0  0  0  0
  162.6040  208.6540  151.1740 N   0  0  0  0  0  2  0  0  0  0  0  0
  162.0070  209.8220  151.7960 C   0  0  0  0  0  2  0  0  0  0  0  0
  160.5990  209.5610  152.0600 N   0  0  0  0  0  2  0  0  0  0  0  0
  158.9610  211.1680  153.1490 C   0  0  0  0  0  2  0  0  0  0  0  0
  160.2050  210.3020  153.2550 C   0  0  0  0  0  0  0  0  0  0  0  0
  160.3450  211.7960  153.0520 C   0  0  0  0  0  2  0  0  0  0  0  0
  161.9010  210.5140  155.2510 C   0  0  0  0  0  2  0  0  0  0  0  0
  160.7030  209.8240  154.6210 C   0  0  2  0  0  0  0  0  0  0  0  0
  160.2350  208.4970  155.1840 C   0  0  2  0  0  3  0  0  0  0  0  0
  160.1430  208.6140  156.6320 N   0  0  0  0  0  2  0  0  0  0  0  0
  160.4880  210.8430  155.7060 C   0  0  1  0  0  3  0  0  0  0  0  0
  160.1230  210.0420  156.9430 C   0  0  0  0  0  2  0  0  0  0  0  0
  161.2040  207.3870  154.8170 C   0  0  0  0  0  1  0  0  0  0  0  0
  1 17  1  0  0  0  0
  2  9  1  0  0  0  0
  2  1  1  1  0  0  0
  3  4  1  6  0  0  0
  3  2  1  0  0  0  0
  3  1  1  0  0  0  0
  4  5  1  0  0  0  0
  5  3  1  0  0  0  0
  6  4  2  0  0  0  0
  7 15  1  0  0  0  0
  8  7  2  0  0  0  0
  9 13  1  1  0  0  0
 10  8  1  0  0  0  0
 10 16  2  0  0  0  0
 11 15  2  0  0  0  0
 11  9  1  0  0  0  0
 12 14  1  0  0  0  0
 13 14  1  0  0  0  0
 15 12  1  0  0  0  0
 16 11  1  0  0  0  0
 17 18  1  0  0  0  0
 18 19  1  0  0  0  0
 19 21  1  0  0  0  0
 20 21  1  0  0  0  0
 22 20  1  0  0  0  0
 22 21  1  0  0  0  0
 24 21  1  6  0  0  0
 24 25  1  0  0  0  0
 24 23  1  0  0  0  0
 24 27  1  0  0  0  0
 25 29  1  1  0  0  0
 25 26  1  0  0  0  0
 26 28  1  0  0  0  0
 27 23  1  1  0  0  0
 27 28  1  0  0  0  0
M  END
>  <MODEL>
3

>  <REMARK>
 VINA RESULT:      -8.7      1.683      2.919
  Name = 
  6 active torsions:
  status: ('A' for Active; 'I' for Inactive)
    1  A    between atoms: N_2  and  N_17
    2  A    between atoms: C_3  and  C_12
    3  A    between atoms: C_5  and  C_10
    4  A    between atoms: C_5  and  N_16
    5  A    between atoms: C_14  and  N_16
    6  A    between atoms: C_14  and  N_17
                            x       y       z     vdW  Elec       q    Type
                         _______ _______ _______ _____ _____    ______ ____

>  <TORSDO>
F 6

$$$$
=
 OpenBabel11072414003D

 29 35  0  0  1  0  0  0  0  0999 V2000
  161.4800  207.7080  150.2620 N   0  0  0  0  0  0  0  0  0  0  0  0
  162.0640  206.5320  149.6760 C   0  0  2  0  0  3  0  0  0  0  0  0
  161.7220  207.6560  148.7680 C   0  0  1  0  0  0  0  0  0  0  0  0
  161.8170  209.0200  148.4390 C   0  0  0  0  0  0  0  0  0  0  0  0
  163.0040  208.0780  148.3610 N   0  0  0  0  0  2  0  0  0  0  0  0
  161.3090  210.1640  148.3130 O   0  0  0  0  0  0  0  0  0  0  0  0
  161.1640  202.4620  147.1280 C   0  0  0  0  0  3  0  0  0  0  0  0
  161.4300  203.1090  145.9210 C   0  0  0  0  0  3  0  0  0  0  0  0
  161.0130  205.4340  149.5470 C   0  0  1  0  0  3  0  0  0  0  0  0
  161.5690  204.4980  145.8880 C   0  0  0  0  0  3  0  0  0  0  0  0
  161.2180  204.6000  148.2940 C   0  0  0  0  0  0  0  0  0  0  0  0
  160.7820  202.4520  149.5890 C   0  0  0  0  0  2  0  0  0  0  0  0
  161.0070  204.5900  150.8250 C   0  0  0  0  0  2  0  0  0  0  0  0
  160.1460  203.3500  150.6420 C   0  0  0  0  0  2  0  0  0  0  0  0
  161.0360  203.1960  148.3110 C   0  0  0  0  0  0  0  0  0  0  0  0
  161.4550  205.2390  147.0660 C   0  0  0  0  0  3  0  0  0  0  0  0
  162.5320  208.3330  150.9610 N   0  0  0  0  0  2  0  0  0  0  0  0
  161.9240  209.0830  152.0450 C   0  0  0  0  0  2  0  0  0  0  0  0
  160.7270  208.3880  152.5000 N   0  0  0  0  0  2  0  0  0  0  0  0
  162.0110  206.6010  153.7680 C   0  0  0  0  0  2  0  0  0  0  0  0
  161.0180  207.7510  153.7810 C   0  0  0  0  0  0  0  0  0  0  0  0
  160.5150  206.3240  153.8160 C   0  0  0  0  0  2  0  0  0  0  0  0
  160.0760  207.8090  156.2330 C   0  0  0  0  0  2  0  0  0  0  0  0
  160.7440  208.5250  155.0720 C   0  0  2  0  0  0  0  0  0  0  0  0
  160.8280  210.0390  155.0890 C   0  0  2  0  0  3  0  0  0  0  0  0
  161.3200  210.4610  156.3930 N   0  0  0  0  0  2  0  0  0  0  0  0
  161.5790  208.0420  156.2260 C   0  0  1  0  0  3  0  0  0  0  0  0
  161.9320  209.2900  157.0180 C   0  0  0  0  0  2  0  0  0  0  0  0
  159.4660  210.6550  154.8280 C   0  0  0  0  0  1  0  0  0  0  0  0
  1 17  1  0  0  0  0
  2  1  1  1  0  0  0
  3  5  1  1  0  0  0
  3  2  1  0  0  0  0
  3  1  1  0  0  0  0
  4  3  1  0  0  0  0
  5  4  1  0  0  0  0
  6  4  2  0  0  0  0
  7 15  1  0  0  0  0
  8  7  2  0  0  0  0
  9  2  1  0  0  0  0
  9 13  1  1  0  0  0
 10  8  1  0  0  0  0
 10 16  2  0  0  0  0
 11 15  2  0  0  0  0
 11  9  1  0  0  0  0
 12 14  1  0  0  0  0
 14 13  1  0  0  0  0
 15 12  1  0  0  0  0
 16 11  1  0  0  0  0
 17 18  1  0  0  0  0
 18 19  1  0  0  0  0
 19 21  1  0  0  0  0
 20 21  1  0  0  0  0
 20 22  1  0  0  0  0
 21 22  1  0  0  0  0
 24 21  1  6  0  0  0
 24 25  1  0  0  0  0
 24 27  1  0  0  0  0
 24 23  1  0  0  0  0
 25 29  1  1  0  0  0
 25 26  1  0  0  0  0
 26 28  1  0  0  0  0
 27 23  1  1  0  0  0
 27 28  1  0  0  0  0
M  END
>  <MODEL>
4

>  <REMARK>
 VINA RESULT:      -8.7      1.480      2.399
  Name = 
  6 active torsions:
  status: ('A' for Active; 'I' for Inactive)
    1  A    between atoms: N_2  and  N_17
    2  A    between atoms: C_3  and  C_12
    3  A    between atoms: C_5  and  C_10
    4  A    between atoms: C_5  and  N_16
    5  A    between atoms: C_14  and  N_16
    6  A    between atoms: C_14  and  N_17
                            x       y       z     vdW  Elec       q    Type
                         _______ _______ _______ _____ _____    ______ ____

>  <TORSDO>
F 6

$$$$
=
 OpenBabel11072414003D

 29 35  0  0  1  0  0  0  0  0999 V2000
  160.6760  206.1920  148.2990 N   0  0  0  0  0  0  0  0  0  0  0  0
  161.5810  205.1010  148.5430 C   0  0  2  0  0  3  0  0  0  0  0  0
  161.1130  205.3090  147.1500 C   0  0  1  0  0  0  0  0  0  0  0  0
  160.9380  206.1600  146.0440 C   0  0  0  0  0  0  0  0  0  0  0  0
  162.3070  205.7080  146.5160 N   0  0  0  0  0  2  0  0  0  0  0  0
  160.2060  206.8160  145.2580 O   0  0  0  0  0  0  0  0  0  0  0  0
  161.3130  200.2310  148.2600 C   0  0  0  0  0  3  0  0  0  0  0  0
  161.2050  200.2760  146.8700 C   0  0  0  0  0  3  0  0  0  0  0  0
  160.8300  203.9270  149.1630 C   0  0  1  0  0  3  0  0  0  0  0  0
  160.9860  201.4950  146.2250 C   0  0  0  0  0  3  0  0  0  0  0  0
  161.0260  202.6470  148.3680 C   0  0  0  0  0  0  0  0  0  0  0  0
  161.3590  201.3070  150.5060 C   0  0  0  0  0  2  0  0  0  0  0  0
  161.2470  203.7810  150.6300 C   0  0  0  0  0  2  0  0  0  0  0  0
  160.7040  202.4860  151.2130 C   0  0  0  0  0  2  0  0  0  0  0  0
  161.2050  201.4020  149.0160 C   0  0  0  0  0  0  0  0  0  0  0  0
  160.8880  202.6720  146.9700 C   0  0  0  0  0  3  0  0  0  0  0  0
  161.4620  207.3560  148.4190 N   0  0  0  0  0  2  0  0  0  0  0  0
  161.9410  207.3960  149.7880 C   0  0  0  0  0  2  0  0  0  0  0  0
  160.8310  207.7000  150.6800 N   0  0  0  0  0  2  0  0  0  0  0  0
  162.3060  206.5790  152.4160 C   0  0  0  0  0  2  0  0  0  0  0  0
  161.3190  207.6750  152.0560 C   0  0  0  0  0  0  0  0  0  0  0  0
  160.8380  206.4440  152.7920 C   0  0  0  0  0  2  0  0  0  0  0  0
  162.1260  210.1320  152.5230 C   0  0  0  0  0  2  0  0  0  0  0  0
  161.2400  208.9550  152.8920 C   0  0  2  0  0  0  0  0  0  0  0  0
  160.5500  208.9450  154.2420 C   0  0  2  0  0  3  0  0  0  0  0  0
  159.9130  210.2390  154.4460 N   0  0  0  0  0  2  0  0  0  0  0  0
  160.6580  210.1120  152.1280 C   0  0  1  0  0  3  0  0  0  0  0  0
  159.8210  210.8800  153.1370 C   0  0  0  0  0  2  0  0  0  0  0  0
  161.5500  208.6800  155.3530 C   0  0  0  0  0  1  0  0  0  0  0  0
  1 17  1  0  0  0  0
  2  1  1  1  0  0  0
  2  9  1  0  0  0  0
  3  4  1  6  0  0  0
  3  1  1  0  0  0  0
  3  2  1  0  0  0  0
  4  5  1  0  0  0  0
  5  3  1  0  0  0  0
  6  4  2  0  0  0  0
  7 15  1  0  0  0  0
  8  7  2  0  0  0  0
  9 13  1  1  0  0  0
 10  8  1  0  0  0  0
 10 16  2  0  0  0  0
 11 15  2  0  0  0  0
 11  9  1  0  0  0  0
 12 14  1  0  0  0  0
 13 14  1  0  0  0  0
 15 12  1  0  0  0  0
 16 11  1  0  0  0  0
 17 18  1  0  0  0  0
 18 19  1  0  0  0  0
 19 21  1  0  0  0  0
 20 22  1  0  0  0  0
 21 20  1  0  0  0  0
 21 22  1  0  0  0  0
 23 24  1  0  0  0  0
 24 21  1  6  0  0  0
 24 25  1  0  0  0  0
 25 26  1  0  0  0  0
 25 29  1  1  0  0  0
 27 23  1  1  0  0  0
 27 24  1  0  0  0  0
 27 28  1  0  0  0  0
 28 26  1  0  0  0  0
M  END
>  <MODEL>
5

>  <REMARK>
 VINA RESULT:      -8.6      2.304      3.759
  Name = 
  6 active torsions:
  status: ('A' for Active; 'I' for Inactive)
    1  A    between atoms: N_2  and  N_17
    2  A    between atoms: C_3  and  C_12
    3  A    between atoms: C_5  and  C_10
    4  A    between atoms: C_5  and  N_16
    5  A    between atoms: C_14  and  N_16
    6  A    between atoms: C_14  and  N_17
                            x       y       z     vdW  Elec       q    Type
                         _______ _______ _______ _____ _____    ______ ____

>  <TORSDO>
F 6

$$$$
=
 OpenBabel11072414003D

 29 35  0  0  1  0  0  0  0  0999 V2000
  161.5230  206.3740  150.2020 N   0  0  0  0  0  0  0  0  0  0  0  0
  160.7910  205.5490  149.2790 C   0  0  2  0  0  3  0  0  0  0  0  0
  161.3030  204.9100  150.5170 C   0  0  1  0  0  0  0  0  0  0  0  0
  161.4060  204.8940  151.9200 C   0  0  0  0  0  0  0  0  0  0  0  0
  160.1000  204.6250  151.1960 N   0  0  0  0  0  2  0  0  0  0  0  0
  162.0710  205.0200  152.9810 O   0  0  0  0  0  0  0  0  0  0  0  0
  161.0200  202.2990  145.6390 C   0  0  0  0  0  3  0  0  0  0  0  0
  160.7850  201.2390  146.5160 C   0  0  0  0  0  3  0  0  0  0  0  0
  161.6800  205.1650  148.1010 C   0  0  1  0  0  3  0  0  0  0  0  0
  160.8290  201.4490  147.8960 C   0  0  0  0  0  3  0  0  0  0  0  0
  161.3060  203.8070  147.5310 C   0  0  0  0  0  0  0  0  0  0  0  0
  161.5170  204.6910  145.1520 C   0  0  0  0  0  2  0  0  0  0  0  0
  161.6360  206.2800  147.0530 C   0  0  0  0  0  2  0  0  0  0  0  0
  162.3150  205.8320  145.7680 C   0  0  0  0  0  2  0  0  0  0  0  0
  161.3010  203.5760  146.1340 C   0  0  0  0  0  0  0  0  0  0  0  0
  161.0970  202.7240  148.3990 C   0  0  0  0  0  3  0  0  0  0  0  0
  160.5560  207.2100  150.7970 N   0  0  0  0  0  2  0  0  0  0  0  0
  161.2370  208.4380  151.1650 C   0  0  0  0  0  2  0  0  0  0  0  0
  161.6740  208.3510  152.5520 N   0  0  0  0  0  2  0  0  0  0  0  0
  160.0860  210.3320  152.5860 C   0  0  0  0  0  2  0  0  0  0  0  0
  160.8900  209.2920  153.3460 C   0  0  0  0  0  0  0  0  0  0  0  0
  161.4210  210.7030  153.2160 C   0  0  0  0  0  2  0  0  0  0  0  0
  160.0870  207.4850  155.0770 C   0  0  0  0  0  2  0  0  0  0  0  0
  160.5110  208.9130  154.7800 C   0  0  2  0  0  0  0  0  0  0  0  0
  160.2440  209.9920  155.8110 C   0  0  2  0  0  3  0  0  0  0  0  0
  160.6910  209.5110  157.1110 N   0  0  0  0  0  2  0  0  0  0  0  0
  161.4930  207.9620  155.4080 C   0  0  1  0  0  3  0  0  0  0  0  0
  161.5870  208.3840  156.8640 C   0  0  0  0  0  2  0  0  0  0  0  0
  158.7640  210.3280  155.8650 C   0  0  0  0  0  1  0  0  0  0  0  0
  1  3  1  0  0  0  0
  1 17  1  0  0  0  0
  2  1  1  1  0  0  0
  2  3  1  0  0  0  0
  3  5  1  1  0  0  0
  3  4  1  0  0  0  0
  4  6  2  0  0  0  0
  5  4  1  0  0  0  0
  7 15  2  0  0  0  0
  7  8  1  0  0  0  0
  8 10  2  0  0  0  0
  9 13  1  6  0  0  0
  9  2  1  0  0  0  0
 10 16  1  0  0  0  0
 11  9  1  0  0  0  0
 11 16  2  0  0  0  0
 12 14  1  0  0  0  0
 12 15  1  0  0  0  0
 14 13  1  0  0  0  0
 15 11  1  0  0  0  0
 17 18  1  0  0  0  0
 18 19  1  0  0  0  0
 19 21  1  0  0  0  0
 20 22  1  0  0  0  0
 20 21  1  0  0  0  0
 22 21  1  0  0  0  0
 24 21  1  6  0  0  0
 24 23  1  0  0  0  0
 24 27  1  0  0  0  0
 24 25  1  0  0  0  0
 25 29  1  1  0  0  0
 25 26  1  0  0  0  0
 27 23  1  1  0  0  0
 27 28  1  0  0  0  0
 28 26  1  0  0  0  0
M  END
>  <MODEL>
6

>  <REMARK>
 VINA RESULT:      -8.6      1.636      3.364
  Name = 
  6 active torsions:
  status: ('A' for Active; 'I' for Inactive)
    1  A    between atoms: N_2  and  N_17
    2  A    between atoms: C_3  and  C_12
    3  A    between atoms: C_5  and  C_10
    4  A    between atoms: C_5  and  N_16
    5  A    between atoms: C_14  and  N_16
    6  A    between atoms: C_14  and  N_17
                            x       y       z     vdW  Elec       q    Type
                         _______ _______ _______ _____ _____    ______ ____

>  <TORSDO>
F 6

$$$$
=
 OpenBabel11072414003D

 29 35  0  0  1  0  0  0  0  0999 V2000
  162.1570  208.6400  148.9870 N   0  0  0  0  0  0  0  0  0  0  0  0
  161.3110  207.4790  149.0590 C   0  0  2  0  0  3  0  0  0  0  0  0
  161.9710  207.9280  150.3100 C   0  0  1  0  0  0  0  0  0  0  0  0
  162.2490  208.9510  151.2340 C   0  0  0  0  0  0  0  0  0  0  0  0
  160.8620  208.3610  151.0650 N   0  0  0  0  0  2  0  0  0  0  0  0
  163.0420  209.7590  151.7840 O   0  0  0  0  0  0  0  0  0  0  0  0
  160.8090  202.6350  148.6720 C   0  0  0  0  0  3  0  0  0  0  0  0
  160.5020  202.5170  150.0290 C   0  0  0  0  0  3  0  0  0  0  0  0
  162.0440  206.2620  148.5040 C   0  0  1  0  0  3  0  0  0  0  0  0
  160.6830  203.6060  150.8840 C   0  0  0  0  0  3  0  0  0  0  0  0
  161.4450  204.9620  149.0120 C   0  0  0  0  0  0  0  0  0  0  0  0
  161.5860  203.9280  146.6900 C   0  0  0  0  0  2  0  0  0  0  0  0
  162.0700  206.3440  146.9750 C   0  0  0  0  0  2  0  0  0  0  0  0
  162.5780  205.0400  146.3790 C   0  0  0  0  0  2  0  0  0  0  0  0
  161.2990  203.8400  148.1610 C   0  0  0  0  0  0  0  0  0  0  0  0
  161.1610  204.8170  150.3800 C   0  0  0  0  0  3  0  0  0  0  0  0
  161.2770  209.7290  148.8280 N   0  0  0  0  0  2  0  0  0  0  0  0
  162.0890  210.8670  148.4390 C   0  0  0  0  0  2  0  0  0  0  0  0
  161.3860  212.0980  148.7700 N   0  0  0  0  0  2  0  0  0  0  0  0
  162.7160  213.0360  146.8210 C   0  0  0  0  0  2  0  0  0  0  0  0
  161.4170  212.9800  147.6060 C   0  0  0  0  0  0  0  0  0  0  0  0
  162.3710  214.1370  147.8130 C   0  0  0  0  0  2  0  0  0  0  0  0
  160.1090  214.4530  145.8680 C   0  0  0  0  0  2  0  0  0  0  0  0
  160.0960  213.3880  146.9510 C   0  0  2  0  0  0  0  0  0  0  0  0
  158.7750  212.9930  147.5810 C   0  0  2  0  0  3  0  0  0  0  0  0
  157.8080  212.7540  146.5190 N   0  0  0  0  0  2  0  0  0  0  0  0
  160.0140  212.9790  145.5060 C   0  0  1  0  0  3  0  0  0  0  0  0
  158.5670  212.5740  145.2840 C   0  0  0  0  0  2  0  0  0  0  0  0
  158.2700  214.0890  148.5020 C   0  0  0  0  0  1  0  0  0  0  0  0
  1  3  1  0  0  0  0
  2  1  1  6  0  0  0
  2  3  1  0  0  0  0
  3  5  1  6  0  0  0
  3  4  1  0  0  0  0
  4  6  2  0  0  0  0
  5  4  1  0  0  0  0
  7  8  1  0  0  0  0
  8 10  2  0  0  0  0
  9 13  1  6  0  0  0
  9 11  1  0  0  0  0
  9  2  1  0  0  0  0
 11 16  2  0  0  0  0
 12 15  1  0  0  0  0
 14 12  1  0  0  0  0
 14 13  1  0  0  0  0
 15  7  2  0  0  0  0
 15 11  1  0  0  0  0
 16 10  1  0  0  0  0
 17  1  1  0  0  0  0
 18 19  1  0  0  0  0
 18 17  1  0  0  0  0
 20 21  1  0  0  0  0
 20 22  1  0  0  0  0
 21 22  1  0  0  0  0
 21 19  1  0  0  0  0
 24 23  1  6  0  0  0
 24 25  1  0  0  0  0
 24 21  1  0  0  0  0
 25 29  1  1  0  0  0
 26 25  1  0  0  0  0
 27 28  1  1  0  0  0
 27 23  1  0  0  0  0
 27 24  1  0  0  0  0
 28 26  1  0  0  0  0
M  END
>  <MODEL>
7

>  <REMARK>
 VINA RESULT:      -8.5      4.647      7.028
  Name = 
  6 active torsions:
  status: ('A' for Active; 'I' for Inactive)
    1  A    between atoms: N_2  and  N_17
    2  A    between atoms: C_3  and  C_12
    3  A    between atoms: C_5  and  C_10
    4  A    between atoms: C_5  and  N_16
    5  A    between atoms: C_14  and  N_16
    6  A    between atoms: C_14  and  N_17
                            x       y       z     vdW  Elec       q    Type
                         _______ _______ _______ _____ _____    ______ ____

>  <TORSDO>
F 6

$$$$
=
 OpenBabel11072414003D

 29 35  0  0  1  0  0  0  0  0999 V2000
  161.1830  209.0540  153.9480 N   0  0  0  0  0  0  0  0  0  0  0  0
  160.6440  207.8830  153.3110 C   0  0  2  0  0  3  0  0  0  0  0  0
  161.3630  207.6990  154.5960 C   0  0  1  0  0  0  0  0  0  0  0  0
  161.5350  208.0430  155.9490 C   0  0  0  0  0  0  0  0  0  0  0  0
  160.3090  207.3040  155.4460 N   0  0  0  0  0  2  0  0  0  0  0  0
  162.1960  208.5720  156.8800 O   0  0  0  0  0  0  0  0  0  0  0  0
  160.9900  204.4010  149.9020 C   0  0  0  0  0  3  0  0  0  0  0  0
  160.7980  203.3950  150.8510 C   0  0  0  0  0  3  0  0  0  0  0  0
  161.5440  207.4530  152.1570 C   0  0  1  0  0  3  0  0  0  0  0  0
  160.8380  203.7020  152.2120 C   0  0  0  0  0  3  0  0  0  0  0  0
  161.2210  206.0460  151.6830 C   0  0  0  0  0  0  0  0  0  0  0  0
  161.3900  206.7710  149.2480 C   0  0  0  0  0  2  0  0  0  0  0  0
  161.4530  208.4900  151.0340 C   0  0  0  0  0  2  0  0  0  0  0  0
  162.1460  207.9820  149.7800 C   0  0  0  0  0  2  0  0  0  0  0  0
  161.2220  205.7190  150.3060 C   0  0  0  0  0  0  0  0  0  0  0  0
  161.0580  205.0170  152.6260 C   0  0  0  0  0  3  0  0  0  0  0  0
  160.0640  209.7520  154.4460 N   0  0  0  0  0  2  0  0  0  0  0  0
  160.2090  211.1310  154.0190 C   0  0  0  0  0  2  0  0  0  0  0  0
  159.3940  211.9880  154.8680 N   0  0  0  0  0  2  0  0  0  0  0  0
  158.4330  212.5120  152.5760 C   0  0  0  0  0  2  0  0  0  0  0  0
  158.2620  212.4770  154.0850 C   0  0  0  0  0  0  0  0  0  0  0  0
  158.5890  213.7840  153.3960 C   0  0  0  0  0  2  0  0  0  0  0  0
  156.2190  211.1090  155.0100 C   0  0  0  0  0  2  0  0  0  0  0  0
  156.8640  212.4500  154.7070 C   0  0  2  0  0  0  0  0  0  0  0  0
  156.0080  213.7010  154.7200 C   0  0  2  0  0  3  0  0  0  0  0  0
  155.2070  213.7020  155.9360 N   0  0  0  0  0  2  0  0  0  0  0  0
  156.8670  211.9260  156.1170 C   0  0  1  0  0  3  0  0  0  0  0  0
  155.8260  212.7500  156.8550 C   0  0  0  0  0  2  0  0  0  0  0  0
  155.0990  213.7400  153.5040 C   0  0  0  0  0  1  0  0  0  0  0  0
  1 17  1  0  0  0  0
  1  3  1  0  0  0  0
  2  1  1  6  0  0  0
  2  3  1  0  0  0  0
  3  5  1  1  0  0  0
  3  4  1  0  0  0  0
  4  6  2  0  0  0  0
  5  4  1  0  0  0  0
  7 15  2  0  0  0  0
  7  8  1  0  0  0  0
  8 10  2  0  0  0  0
  9 13  1  6  0  0  0
  9  2  1  0  0  0  0
 10 16  1  0  0  0  0
 11  9  1  0  0  0  0
 11 16  2  0  0  0  0
 12 14  1  0  0  0  0
 12 15  1  0  0  0  0
 14 13  1  0  0  0  0
 15 11  1  0  0  0  0
 18 17  1  0  0  0  0
 18 19  1  0  0  0  0
 20 22  1  0  0  0  0
 20 21  1  0  0  0  0
 21 19  1  0  0  0  0
 22 21  1  0  0  0  0
 24 21  1  6  0  0  0
 24 25  1  0  0  0  0
 24 23  1  0  0  0  0
 24 27  1  0  0  0  0
 25 29  1  6  0  0  0
 25 26  1  0  0  0  0
 26 28  1  0  0  0  0
 27 23  1  6  0  0  0
 27 28  1  0  0  0  0
M  END
>  <MODEL>
8

>  <REMARK>
 VINA RESULT:      -8.5      2.907      5.159
  Name = 
  6 active torsions:
  status: ('A' for Active; 'I' for Inactive)
    1  A    between atoms: N_2  and  N_17
    2  A    between atoms: C_3  and  C_12
    3  A    between atoms: C_5  and  C_10
    4  A    between atoms: C_5  and  N_16
    5  A    between atoms: C_14  and  N_16
    6  A    between atoms: C_14  and  N_17
                            x       y       z     vdW  Elec       q    Type
                         _______ _______ _______ _____ _____    ______ ____

>  <TORSDO>
F 6

$$$$
=
 OpenBabel11072414003D

 29 35  0  0  1  0  0  0  0  0999 V2000
  161.5270  206.3050  150.0820 N   0  0  0  0  0  0  0  0  0  0  0  0
  160.8120  205.4490  149.1740 C   0  0  2  0  0  3  0  0  0  0  0  0
  161.3640  204.8350  150.4070 C   0  0  1  0  0  0  0  0  0  0  0  0
  161.4880  204.8310  151.8080 C   0  0  0  0  0  0  0  0  0  0  0  0
  160.1830  204.5110  151.1040 N   0  0  0  0  0  2  0  0  0  0  0  0
  162.1640  204.9850  152.8590 O   0  0  0  0  0  0  0  0  0  0  0  0
  161.0210  202.2890  145.4540 C   0  0  0  0  0  3  0  0  0  0  0  0
  160.7820  201.2090  146.3040 C   0  0  0  0  0  3  0  0  0  0  0  0
  161.6970  205.0900  147.9850 C   0  0  1  0  0  3  0  0  0  0  0  0
  160.8300  201.3840  147.6880 C   0  0  0  0  0  3  0  0  0  0  0  0
  161.3160  203.7490  147.3810 C   0  0  0  0  0  0  0  0  0  0  0  0
  161.5260  204.6900  145.0250 C   0  0  0  0  0  2  0  0  0  0  0  0
  161.6560  206.2310  146.9640 C   0  0  0  0  0  2  0  0  0  0  0  0
  162.3310  205.8120  145.6670 C   0  0  0  0  0  2  0  0  0  0  0  0
  161.3080  203.5520  145.9800 C   0  0  0  0  0  0  0  0  0  0  0  0
  161.1040  202.6450  148.2230 C   0  0  0  0  0  3  0  0  0  0  0  0
  160.5400  207.1080  150.6870 N   0  0  0  0  0  2  0  0  0  0  0  0
  161.2400  208.1610  151.4010 C   0  0  0  0  0  2  0  0  0  0  0  0
  160.8600  208.1270  152.8060 N   0  0  0  0  0  2  0  0  0  0  0  0
  160.4490  210.6060  152.4360 C   0  0  0  0  0  2  0  0  0  0  0  0
  160.9320  209.4840  153.3400 C   0  0  0  0  0  0  0  0  0  0  0  0
  161.9380  210.3250  152.5840 C   0  0  0  0  0  2  0  0  0  0  0  0
  162.2730  210.2020  155.4820 C   0  0  0  0  0  2  0  0  0  0  0  0
  160.9910  209.6810  154.8560 C   0  0  2  0  0  0  0  0  0  0  0  0
  159.9290  209.0680  155.7490 C   0  0  2  0  0  3  0  0  0  0  0  0
  159.7040  209.9590  156.8790 N   0  0  0  0  0  2  0  0  0  0  0  0
  161.0900  211.1290  155.2500 C   0  0  1  0  0  3  0  0  0  0  0  0
  160.2560  211.2610  156.5130 C   0  0  0  0  0  2  0  0  0  0  0  0
  160.3700  207.7030  156.2470 C   0  0  0  0  0  1  0  0  0  0  0  0
  1  3  1  0  0  0  0
  1 17  1  0  0  0  0
  2  1  1  1  0  0  0
  2  3  1  0  0  0  0
  3  5  1  1  0  0  0
  3  4  1  0  0  0  0
  4  6  2  0  0  0  0
  5  4  1  0  0  0  0
  7 15  2  0  0  0  0
  7  8  1  0  0  0  0
  8 10  2  0  0  0  0
  9 13  1  6  0  0  0
  9  2  1  0  0  0  0
 10 16  1  0  0  0  0
 11  9  1  0  0  0  0
 11 16  2  0  0  0  0
 12 14  1  0  0  0  0
 12 15  1  0  0  0  0
 14 13  1  0  0  0  0
 15 11  1  0  0  0  0
 17 18  1  0  0  0  0
 18 19  1  0  0  0  0
 19 21  1  0  0  0  0
 20 22  1  0  0  0  0
 20 21  1  0  0  0  0
 22 21  1  0  0  0  0
 24 21  1  6  0  0  0
 24 27  1  0  0  0  0
 24 23  1  0  0  0  0
 24 25  1  0  0  0  0
 25 29  1  1  0  0  0
 25 26  1  0  0  0  0
 27 23  1  1  0  0  0
 27 28  1  0  0  0  0
 28 26  1  0  0  0  0
M  END
>  <MODEL>
9

>  <REMARK>
 VINA RESULT:      -8.3      1.614      3.316
  Name = 
  6 active torsions:
  status: ('A' for Active; 'I' for Inactive)
    1  A    between atoms: N_2  and  N_17
    2  A    between atoms: C_3  and  C_12
    3  A    between atoms: C_5  and  C_10
    4  A    between atoms: C_5  and  N_16
    5  A    between atoms: C_14  and  N_16
    6  A    between atoms: C_14  and  N_17
                            x       y       z     vdW  Elec       q    Type
                         _______ _______ _______ _____ _____    ______ ____

>  <TORSDO>
F 6

$$$$
