=
 OpenBabel11072412113D

 31 35  0  0  1  0  0  0  0  0999 V2000
  161.5270  208.1910  149.6950 C   0  0  2  0  0  3  0  0  0  0  0  0
  162.2850  209.0400  148.6680 C   0  0  0  0  0  2  0  0  0  0  0  0
  162.0840  208.4470  151.0990 C   0  0  2  0  0  3  0  0  0  0  0  0
  161.7510  211.2790  148.0070 O   0  0  0  0  0  1  0  0  0  0  0  0
  161.0040  209.0680  151.9630 C   0  0  2  0  0  3  0  0  0  0  0  0
  162.1440  209.9370  151.4690 C   0  0  2  0  0  3  0  0  0  0  0  0
  161.6400  210.8540  150.3550 C   0  0  0  0  0  2  0  0  0  0  0  0
  162.3310  210.5310  149.0300 C   0  0  1  0  0  3  0  0  0  0  0  0
  160.4570  209.5970  154.3280 C   0  0  0  0  0  0  0  0  0  0  0  0
  161.2380  208.6940  153.4180 C   0  0  1  0  0  3  0  0  0  0  0  0
  159.6380  211.2540  155.3640 C   0  0  0  0  0  3  0  0  0  0  0  0
  160.3330  210.9310  154.2450 N   0  0  0  0  0  0  0  0  0  0  0  0
  160.8310  207.2960  153.6360 N   0  0  0  0  0  2  0  0  0  0  0  0
  159.8670  207.7170  155.8790 C   0  0  0  0  0  2  0  0  0  0  0  0
  159.8940  209.1550  155.4820 C   0  0  2  0  0  3  0  0  0  0  0  0
  160.9240  206.9540  155.0630 C   0  0  0  0  0  2  0  0  0  0  0  0
  159.3470  210.1850  156.1460 N   0  0  0  0  0  0  0  0  0  0  0  0
  161.9810  205.9790  150.4650 F   0  0  0  0  0  0  0  0  0  0  0  0
  161.6180  206.7100  149.3440 C   0  0  1  0  0  3  0  0  0  0  0  0
  160.2770  206.2030  148.8310 C   0  0  0  0  0  2  0  0  0  0  0  0
  161.3120  205.0530  144.5110 C   0  0  0  0  0  1  0  0  0  0  0  0
  160.4560  205.3620  147.5770 C   0  0  2  0  0  3  0  0  0  0  0  0
  162.6270  205.3020  146.6720 C   0  0  1  0  0  3  0  0  0  0  0  0
  161.7550  204.5850  147.6690 C   0  0  2  0  0  3  0  0  0  0  0  0
  163.7350  204.4700  146.0300 C   0  0  0  0  0  1  0  0  0  0  0  0
  160.4560  206.1930  146.4300 O   0  0  0  0  0  0  0  0  0  0  0  0
  161.6380  205.9350  145.7130 C   0  0  2  0  0  3  0  0  0  0  0  0
  161.4990  203.2040  147.2740 N   0  0  0  0  0  2  0  0  0  0  0  0
  160.8310  202.5460  149.5700 N   0  0  0  0  0  1  0  0  0  0  0  0
  160.8870  201.0280  147.8150 O   0  0  0  0  0  0  0  0  0  0  0  0
  161.0660  202.2110  148.2050 C   0  0  0  0  0  0  0  0  0  0  0  0
  1 19  1  6  0  0  0
  1  3  1  0  0  0  0
  2  8  1  0  0  0  0
  2  1  1  0  0  0  0
  3  6  1  0  0  0  0
  3  5  1  0  0  0  0
  4  8  1  0  0  0  0
  5 10  1  0  0  0  0
  6  5  1  0  0  0  0
  7  6  1  0  0  0  0
  8  7  1  0  0  0  0
  9 15  1  0  0  0  0
 10 13  1  0  0  0  0
 10  9  1  0  0  0  0
 11 17  2  0  0  0  0
 12  9  2  0  0  0  0
 12 11  1  0  0  0  0
 13 16  1  0  0  0  0
 15 14  1  0  0  0  0
 15 17  1  0  0  0  0
 16 14  1  0  0  0  0
 19 18  1  0  0  0  0
 20 19  1  0  0  0  0
 21 27  1  0  0  0  0
 22 24  1  0  0  0  0
 22 20  1  0  0  0  0
 23 24  1  0  0  0  0
 25 23  1  0  0  0  0
 26 22  1  0  0  0  0
 27 26  1  0  0  0  0
 27 23  1  0  0  0  0
 28 24  1  0  0  0  0
 28 31  1  0  0  0  0
 30 31  2  0  0  0  0
 31 29  1  0  0  0  0
M  END
>  <MODEL>
1

>  <REMARK>
 VINA RESULT:      -8.7      0.000      0.000
  Name = 
  5 active torsions:
  status: ('A' for Active; 'I' for Inactive)
    1  A    between atoms: C_2  and  C_16
    2  A    between atoms: C_4  and  C_29
    3  A    between atoms: C_5  and  C_30
    4  A    between atoms: N_8  and  C_18
    5  A    between atoms: C_29  and  C_30
                            x       y       z     vdW  Elec       q    Type
                         _______ _______ _______ _____ _____    ______ ____

>  <TORSDO>
F 5

$$$$
=
 OpenBabel11072412113D

 31 35  0  0  1  0  0  0  0  0999 V2000
  161.1570  206.0420  151.2930 C   0  0  2  0  0  3  0  0  0  0  0  0
  161.8670  206.3790  149.9770 C   0  0  0  0  0  2  0  0  0  0  0  0
  161.8160  206.7990  152.4510 C   0  0  2  0  0  3  0  0  0  0  0  0
  161.3510  208.2030  148.5140 O   0  0  0  0  0  1  0  0  0  0  0  0
  160.8130  207.7640  153.0550 C   0  0  2  0  0  3  0  0  0  0  0  0
  161.9410  208.3090  152.2000 C   0  0  2  0  0  3  0  0  0  0  0  0
  161.3870  208.7410  150.8410 C   0  0  0  0  0  2  0  0  0  0  0  0
  161.9780  207.8880  149.7180 C   0  0  1  0  0  3  0  0  0  0  0  0
  160.8230  209.3900  154.9330 C   0  0  0  0  0  0  0  0  0  0  0  0
  161.1350  207.9790  154.5240 C   0  0  1  0  0  3  0  0  0  0  0  0
  160.7300  211.4990  155.1170 C   0  0  0  0  0  3  0  0  0  0  0  0
  161.1110  210.5170  154.2630 N   0  0  0  0  0  0  0  0  0  0  0  0
  160.3490  207.0390  155.3410 N   0  0  0  0  0  2  0  0  0  0  0  0
  159.9150  208.6690  157.1570 C   0  0  0  0  0  2  0  0  0  0  0  0
  160.3310  209.6990  156.1600 C   0  0  2  0  0  3  0  0  0  0  0  0
  160.5440  207.3190  156.7710 C   0  0  0  0  0  2  0  0  0  0  0  0
  160.2400  211.0310  156.2920 N   0  0  0  0  0  0  0  0  0  0  0  0
  160.6740  204.2660  152.8100 F   0  0  0  0  0  0  0  0  0  0  0  0
  161.1850  204.5390  151.5520 C   0  0  1  0  0  3  0  0  0  0  0  0
  160.3550  203.8070  150.5060 C   0  0  0  0  0  2  0  0  0  0  0  0
  161.9270  200.2900  148.0140 C   0  0  0  0  0  1  0  0  0  0  0  0
  161.2430  202.9940  149.5770 C   0  0  2  0  0  3  0  0  0  0  0  0
  160.2070  202.1250  147.6520 C   0  0  1  0  0  3  0  0  0  0  0  0
  160.9320  203.3530  148.1360 C   0  0  2  0  0  3  0  0  0  0  0  0
  160.2970  201.8400  146.1540 C   0  0  0  0  0  1  0  0  0  0  0  0
  161.0400  201.6100  149.7980 O   0  0  0  0  0  0  0  0  0  0  0  0
  160.7080  201.0220  148.5630 C   0  0  2  0  0  3  0  0  0  0  0  0
  162.1910  203.5570  147.4270 N   0  0  0  0  0  2  0  0  0  0  0  0
  161.3650  205.6110  146.3090 N   0  0  0  0  0  1  0  0  0  0  0  0
  163.4890  204.7590  145.9200 O   0  0  0  0  0  0  0  0  0  0  0  0
  162.3920  204.6470  146.5250 C   0  0  0  0  0  0  0  0  0  0  0  0
  1 19  1  1  0  0  0
  1  3  1  0  0  0  0
  2  1  1  0  0  0  0
  3  5  1  0  0  0  0
  4  8  1  0  0  0  0
  5 10  1  0  0  0  0
  6  3  1  0  0  0  0
  6  5  1  0  0  0  0
  7  6  1  0  0  0  0
  8  2  1  0  0  0  0
  8  7  1  0  0  0  0
  9 15  1  0  0  0  0
 10  9  1  0  0  0  0
 10 13  1  0  0  0  0
 11 17  2  0  0  0  0
 12  9  2  0  0  0  0
 12 11  1  0  0  0  0
 13 16  1  0  0  0  0
 15 17  1  0  0  0  0
 15 14  1  0  0  0  0
 16 14  1  0  0  0  0
 19 18  1  0  0  0  0
 20 19  1  0  0  0  0
 21 27  1  0  0  0  0
 22 26  1  0  0  0  0
 22 20  1  0  0  0  0
 23 24  1  0  0  0  0
 23 27  1  0  0  0  0
 24 22  1  0  0  0  0
 25 23  1  0  0  0  0
 27 26  1  0  0  0  0
 28 24  1  0  0  0  0
 29 31  1  0  0  0  0
 30 31  2  0  0  0  0
 31 28  1  0  0  0  0
M  END
>  <MODEL>
2

>  <REMARK>
 VINA RESULT:      -8.5      1.830      3.104
  Name = 
  5 active torsions:
  status: ('A' for Active; 'I' for Inactive)
    1  A    between atoms: C_2  and  C_16
    2  A    between atoms: C_4  and  C_29
    3  A    between atoms: C_5  and  C_30
    4  A    between atoms: N_8  and  C_18
    5  A    between atoms: C_29  and  C_30
                            x       y       z     vdW  Elec       q    Type
                         _______ _______ _______ _____ _____    ______ ____

>  <TORSDO>
F 5

$$$$
=
 OpenBabel11072412113D

 31 35  0  0  1  0  0  0  0  0999 V2000
  161.7760  206.9230  150.7260 C   0  0  2  0  0  3  0  0  0  0  0  0
  161.5650  208.3420  150.1860 C   0  0  0  0  0  2  0  0  0  0  0  0
  160.8000  205.9550  150.0490 C   0  0  2  0  0  3  0  0  0  0  0  0
  162.6230  209.2970  148.2610 O   0  0  0  0  0  1  0  0  0  0  0  0
  161.5820  204.9330  149.2470 C   0  0  2  0  0  3  0  0  0  0  0  0
  160.8330  206.0300  148.5150 C   0  0  2  0  0  3  0  0  0  0  0  0
  161.8290  207.0610  147.9840 C   0  0  0  0  0  2  0  0  0  0  0  0
  161.6140  208.4190  148.6530 C   0  0  1  0  0  3  0  0  0  0  0  0
  161.0280  202.9530  147.8520 C   0  0  0  0  0  0  0  0  0  0  0  0
  160.7950  203.6350  149.1690 C   0  0  1  0  0  3  0  0  0  0  0  0
  161.1700  202.4530  145.7980 C   0  0  0  0  0  3  0  0  0  0  0  0
  161.0460  203.5150  146.6340 N   0  0  0  0  0  0  0  0  0  0  0  0
  161.2050  202.7470  150.2690 N   0  0  0  0  0  2  0  0  0  0  0  0
  161.0880  200.6790  148.9080 C   0  0  0  0  0  2  0  0  0  0  0  0
  161.0920  201.6020  147.7350 C   0  0  2  0  0  3  0  0  0  0  0  0
  160.5530  201.4350  150.1360 C   0  0  0  0  0  2  0  0  0  0  0  0
  161.2060  201.2610  146.4430 N   0  0  0  0  0  0  0  0  0  0  0  0
  162.6070  206.1400  152.8210 F   0  0  0  0  0  0  0  0  0  0  0  0
  161.5970  206.8910  152.2410 C   0  0  1  0  0  3  0  0  0  0  0  0
  161.6360  208.3040  152.8080 C   0  0  0  0  0  2  0  0  0  0  0  0
  160.4540  207.8740  157.2210 C   0  0  0  0  0  1  0  0  0  0  0  0
  160.8200  208.3990  154.0880 C   0  0  2  0  0  3  0  0  0  0  0  0
  161.8340  209.5350  155.8810 C   0  0  1  0  0  3  0  0  0  0  0  0
  160.9630  209.7880  154.6790 C   0  0  2  0  0  3  0  0  0  0  0  0
  161.6790  210.5170  157.0400 C   0  0  0  0  0  1  0  0  0  0  0  0
  161.2530  207.4190  155.0150 O   0  0  0  0  0  0  0  0  0  0  0  0
  161.5810  208.0780  156.2130 C   0  0  2  0  0  3  0  0  0  0  0  0
  159.6390  210.2700  155.0570 N   0  0  0  0  0  2  0  0  0  0  0  0
  159.3050  211.4190  152.8850 N   0  0  0  0  0  1  0  0  0  0  0  0
  157.7190  211.4890  154.5780 O   0  0  0  0  0  0  0  0  0  0  0  0
  158.8430  211.0780  154.1890 C   0  0  0  0  0  0  0  0  0  0  0  0
  1 19  1  1  0  0  0
  2  1  1  0  0  0  0
  3  1  1  0  0  0  0
  4  8  1  0  0  0  0
  5  3  1  0  0  0  0
  6  5  1  0  0  0  0
  6  3  1  0  0  0  0
  7  6  1  0  0  0  0
  7  8  1  0  0  0  0
  8  2  1  0  0  0  0
  9 10  1  0  0  0  0
 10  5  1  0  0  0  0
 10 13  1  0  0  0  0
 11 17  2  0  0  0  0
 11 12  1  0  0  0  0
 12  9  2  0  0  0  0
 14 16  1  0  0  0  0
 15  9  1  0  0  0  0
 15 14  1  0  0  0  0
 16 13  1  0  0  0  0
 17 15  1  0  0  0  0
 19 20  1  0  0  0  0
 19 18  1  0  0  0  0
 20 22  1  0  0  0  0
 22 24  1  0  0  0  0
 22 26  1  0  0  0  0
 23 27  1  0  0  0  0
 23 25  1  0  0  0  0
 24 28  1  0  0  0  0
 24 23  1  0  0  0  0
 26 27  1  0  0  0  0
 27 21  1  0  0  0  0
 29 31  1  0  0  0  0
 31 30  2  0  0  0  0
 31 28  1  0  0  0  0
M  END
>  <MODEL>
3

>  <REMARK>
 VINA RESULT:      -8.5      2.520      8.566
  Name = 
  5 active torsions:
  status: ('A' for Active; 'I' for Inactive)
    1  A    between atoms: C_2  and  C_16
    2  A    between atoms: C_4  and  C_29
    3  A    between atoms: C_5  and  C_30
    4  A    between atoms: N_8  and  C_18
    5  A    between atoms: C_29  and  C_30
                            x       y       z     vdW  Elec       q    Type
                         _______ _______ _______ _____ _____    ______ ____

>  <TORSDO>
F 5

$$$$
=
 OpenBabel11072412113D

 31 35  0  0  1  0  0  0  0  0999 V2000
  160.8850  208.9260  153.2890 C   0  0  2  0  0  3  0  0  0  0  0  0
  161.1600  208.7480  154.7870 C   0  0  0  0  0  2  0  0  0  0  0  0
  161.7880  207.9910  152.4770 C   0  0  2  0  0  3  0  0  0  0  0  0
  160.1080  207.1640  156.2430 O   0  0  0  0  0  1  0  0  0  0  0  0
  160.9300  206.9910  151.7270 C   0  0  2  0  0  3  0  0  0  0  0  0
  161.7200  206.5270  152.9350 C   0  0  2  0  0  3  0  0  0  0  0  0
  160.7690  206.3090  154.1130 C   0  0  0  0  0  2  0  0  0  0  0  0
  161.0760  207.2850  155.2480 C   0  0  1  0  0  3  0  0  0  0  0  0
  161.2180  205.1800  150.0510 C   0  0  0  0  0  0  0  0  0  0  0  0
  161.6410  206.5620  150.4540 C   0  0  1  0  0  3  0  0  0  0  0  0
  160.8030  203.1030  149.9720 C   0  0  0  0  0  3  0  0  0  0  0  0
  161.0760  204.1060  150.8440 N   0  0  0  0  0  2  0  0  0  0  0  0
  161.3280  207.5130  149.3740 N   0  0  0  0  0  2  0  0  0  0  0  0
  161.1830  205.7730  147.6150 C   0  0  0  0  0  2  0  0  0  0  0  0
  161.0780  204.8120  148.7520 C   0  0  0  0  0  0  0  0  0  0  0  0
  161.8980  207.0450  148.1020 C   0  0  0  0  0  2  0  0  0  0  0  0
  160.7910  203.5040  148.6760 N   0  0  0  0  0  0  0  0  0  0  0  0
  160.5200  210.6030  151.6330 F   0  0  0  0  0  0  0  0  0  0  0  0
  161.1010  210.3760  152.8700 C   0  0  1  0  0  3  0  0  0  0  0  0
  160.4810  211.3200  153.8930 C   0  0  0  0  0  2  0  0  0  0  0  0
  155.9890  211.7000  154.7440 C   0  0  0  0  0  1  0  0  0  0  0  0
  158.9870  211.4750  153.6560 C   0  0  2  0  0  3  0  0  0  0  0  0
  157.9560  213.3080  154.7090 C   0  0  1  0  0  3  0  0  0  0  0  0
  158.6580  212.9380  153.4290 C   0  0  2  0  0  3  0  0  0  0  0  0
  156.9500  214.4530  154.6140 C   0  0  0  0  0  1  0  0  0  0  0  0
  158.2650  210.9700  154.7650 O   0  0  0  0  0  0  0  0  0  0  0  0
  157.4090  211.9900  155.2190 C   0  0  2  0  0  3  0  0  0  0  0  0
  157.7740  213.0410  152.2730 N   0  0  0  0  0  2  0  0  0  0  0  0
  159.6510  213.5430  150.7320 N   0  0  0  0  0  1  0  0  0  0  0  0
  157.4470  213.4570  150.0100 O   0  0  0  0  0  0  0  0  0  0  0  0
  158.2580  213.3530  150.9660 C   0  0  0  0  0  0  0  0  0  0  0  0
  1 19  1  6  0  0  0
  1  2  1  0  0  0  0
  2  8  1  0  0  0  0
  3  6  1  0  0  0  0
  3  1  1  0  0  0  0
  5  3  1  0  0  0  0
  5  6  1  0  0  0  0
  6  7  1  0  0  0  0
  7  8  1  0  0  0  0
  8  4  1  0  0  0  0
  9 10  1  0  0  0  0
  9 12  1  0  0  0  0
 10  5  1  0  0  0  0
 11 12  1  0  0  0  0
 13 10  1  0  0  0  0
 14 16  1  0  0  0  0
 14 15  1  0  0  0  0
 15  9  2  0  0  0  0
 16 13  1  0  0  0  0
 17 15  1  0  0  0  0
 17 11  2  0  0  0  0
 18 19  1  0  0  0  0
 19 20  1  0  0  0  0
 21 27  1  0  0  0  0
 22 20  1  0  0  0  0
 22 26  1  0  0  0  0
 23 27  1  0  0  0  0
 24 22  1  0  0  0  0
 24 23  1  0  0  0  0
 25 23  1  0  0  0  0
 26 27  1  0  0  0  0
 28 24  1  0  0  0  0
 29 31  1  0  0  0  0
 30 31  2  0  0  0  0
 31 28  1  0  0  0  0
M  END
>  <MODEL>
4

>  <REMARK>
 VINA RESULT:      -8.1      3.505      8.827
  Name = 
  5 active torsions:
  status: ('A' for Active; 'I' for Inactive)
    1  A    between atoms: C_2  and  C_16
    2  A    between atoms: C_4  and  C_29
    3  A    between atoms: C_5  and  C_30
    4  A    between atoms: N_8  and  C_18
    5  A    between atoms: C_29  and  C_30
                            x       y       z     vdW  Elec       q    Type
                         _______ _______ _______ _____ _____    ______ ____

>  <TORSDO>
F 5

$$$$
=
 OpenBabel11072412113D

 31 35  0  0  1  0  0  0  0  0999 V2000
  161.3430  207.1270  151.6360 C   0  0  2  0  0  3  0  0  0  0  0  0
  162.1980  207.2150  150.3670 C   0  0  0  0  0  2  0  0  0  0  0  0
  161.8280  208.1510  152.6670 C   0  0  2  0  0  3  0  0  0  0  0  0
  161.8070  208.6520  148.4910 O   0  0  0  0  0  1  0  0  0  0  0  0
  160.7280  209.1620  152.9270 C   0  0  2  0  0  3  0  0  0  0  0  0
  161.9350  209.5770  152.1070 C   0  0  2  0  0  3  0  0  0  0  0  0
  161.5390  209.6750  150.6330 C   0  0  0  0  0  2  0  0  0  0  0  0
  162.2910  208.6390  149.7980 C   0  0  1  0  0  3  0  0  0  0  0  0
  160.6960  208.6030  155.3470 C   0  0  0  0  0  0  0  0  0  0  0  0
  160.8590  209.7050  154.3400 C   0  0  1  0  0  3  0  0  0  0  0  0
  159.9910  206.9890  156.5250 C   0  0  0  0  0  3  0  0  0  0  0  0
  159.7740  207.6280  155.3480 N   0  0  0  0  0  0  0  0  0  0  0  0
  162.1800  210.3350  154.5020 N   0  0  0  0  0  2  0  0  0  0  0  0
  162.5030  209.5240  156.8220 C   0  0  0  0  0  2  0  0  0  0  0  0
  161.4020  208.5680  156.5060 C   0  0  2  0  0  3  0  0  0  0  0  0
  162.3800  210.7490  155.8990 C   0  0  0  0  0  2  0  0  0  0  0  0
  160.9890  207.5380  157.2610 N   0  0  0  0  0  0  0  0  0  0  0  0
  160.9780  205.7400  153.5420 F   0  0  0  0  0  0  0  0  0  0  0  0
  161.3870  205.7180  152.2190 C   0  0  1  0  0  3  0  0  0  0  0  0
  160.4730  204.7900  151.4290 C   0  0  0  0  0  2  0  0  0  0  0  0
  161.9210  200.8090  149.6650 C   0  0  0  0  0  1  0  0  0  0  0  0
  161.2820  203.7970  150.6100 C   0  0  2  0  0  3  0  0  0  0  0  0
  160.0620  202.4530  149.1130 C   0  0  1  0  0  3  0  0  0  0  0  0
  160.7700  203.7810  149.1820 C   0  0  2  0  0  3  0  0  0  0  0  0
  159.9780  201.8100  147.7300 C   0  0  0  0  0  1  0  0  0  0  0  0
  161.1910  202.5050  151.1830 O   0  0  0  0  0  0  0  0  0  0  0  0
  160.7400  201.6230  150.1850 C   0  0  2  0  0  3  0  0  0  0  0  0
  161.9130  203.8370  148.2780 N   0  0  0  0  0  2  0  0  0  0  0  0
  160.9490  205.7190  146.9830 N   0  0  0  0  0  1  0  0  0  0  0  0
  162.9870  204.7550  146.4330 O   0  0  0  0  0  0  0  0  0  0  0  0
  161.9890  204.7700  147.1990 C   0  0  0  0  0  0  0  0  0  0  0  0
  1 19  1  1  0  0  0
  1  3  1  0  0  0  0
  2  1  1  0  0  0  0
  3  5  1  0  0  0  0
  4  8  1  0  0  0  0
  5 10  1  0  0  0  0
  6  3  1  0  0  0  0
  6  5  1  0  0  0  0
  7  6  1  0  0  0  0
  8  2  1  0  0  0  0
  8  7  1  0  0  0  0
  9 12  2  0  0  0  0
  9 15  1  0  0  0  0
 10 13  1  0  0  0  0
 10  9  1  0  0  0  0
 11 17  2  0  0  0  0
 12 11  1  0  0  0  0
 13 16  1  0  0  0  0
 15 14  1  0  0  0  0
 15 17  1  0  0  0  0
 16 14  1  0  0  0  0
 19 18  1  0  0  0  0
 20 19  1  0  0  0  0
 21 27  1  0  0  0  0
 22 26  1  0  0  0  0
 22 20  1  0  0  0  0
 23 24  1  0  0  0  0
 23 27  1  0  0  0  0
 24 22  1  0  0  0  0
 25 23  1  0  0  0  0
 27 26  1  0  0  0  0
 28 24  1  0  0  0  0
 29 31  1  0  0  0  0
 30 31  2  0  0  0  0
 31 28  1  0  0  0  0
M  END
>  <MODEL>
5

>  <REMARK>
 VINA RESULT:      -8.0      2.127      3.486
  Name = 
  5 active torsions:
  status: ('A' for Active; 'I' for Inactive)
    1  A    between atoms: C_2  and  C_16
    2  A    between atoms: C_4  and  C_29
    3  A    between atoms: C_5  and  C_30
    4  A    between atoms: N_8  and  C_18
    5  A    between atoms: C_29  and  C_30
                            x       y       z     vdW  Elec       q    Type
                         _______ _______ _______ _____ _____    ______ ____

>  <TORSDO>
F 5

$$$$
=
 OpenBabel11072412113D

 31 35  0  0  1  0  0  0  0  0999 V2000
  161.0280  208.7310  152.8960 C   0  0  2  0  0  3  0  0  0  0  0  0
  161.2910  208.5630  154.3970 C   0  0  0  0  0  2  0  0  0  0  0  0
  161.8990  207.7530  152.0990 C   0  0  2  0  0  3  0  0  0  0  0  0
  160.1770  207.0380  155.8690 O   0  0  0  0  0  1  0  0  0  0  0  0
  161.0080  206.7750  151.3590 C   0  0  2  0  0  3  0  0  0  0  0  0
  161.7760  206.2990  152.5770 C   0  0  2  0  0  3  0  0  0  0  0  0
  160.8140  206.1310  153.7530 C   0  0  0  0  0  2  0  0  0  0  0  0
  161.1530  207.1110  154.8770 C   0  0  1  0  0  3  0  0  0  0  0  0
  161.2680  204.9150  149.7340 C   0  0  0  0  0  0  0  0  0  0  0  0
  161.7080  206.3040  150.0950 C   0  0  1  0  0  3  0  0  0  0  0  0
  160.8330  202.8410  149.7150 C   0  0  0  0  0  3  0  0  0  0  0  0
  161.1210  203.8650  150.5570 N   0  0  0  0  0  2  0  0  0  0  0  0
  161.3980  207.2270  148.9910 N   0  0  0  0  0  2  0  0  0  0  0  0
  161.2250  205.4400  147.2820 C   0  0  0  0  0  2  0  0  0  0  0  0
  161.1180  204.5120  148.4460 C   0  0  0  0  0  0  0  0  0  0  0  0
  161.9550  206.7180  147.7290 C   0  0  0  0  0  2  0  0  0  0  0  0
  160.8180  203.2050  148.4090 N   0  0  0  0  0  0  0  0  0  0  0  0
  162.2230  210.1820  151.4270 F   0  0  0  0  0  0  0  0  0  0  0  0
  161.2980  210.1670  152.4580 C   0  0  1  0  0  3  0  0  0  0  0  0
  160.0090  210.8260  151.9820 C   0  0  0  0  0  2  0  0  0  0  0  0
  157.7410  214.4520  153.6420 C   0  0  0  0  0  1  0  0  0  0  0  0
  159.7030  212.0730  152.7960 C   0  0  2  0  0  3  0  0  0  0  0  0
  157.8000  211.9680  154.1750 C   0  0  1  0  0  3  0  0  0  0  0  0
  159.2770  211.6740  154.1960 C   0  0  2  0  0  3  0  0  0  0  0  0
  157.1630  212.2970  155.5240 C   0  0  0  0  0  1  0  0  0  0  0  0
  158.6840  212.8280  152.1640 O   0  0  0  0  0  0  0  0  0  0  0  0
  157.6550  213.0280  153.1020 C   0  0  2  0  0  3  0  0  0  0  0  0
  159.9860  212.5130  155.1550 N   0  0  0  0  0  2  0  0  0  0  0  0
  160.1370  210.6860  156.8240 N   0  0  0  0  0  1  0  0  0  0  0  0
  160.9730  212.8110  157.2370 O   0  0  0  0  0  0  0  0  0  0  0  0
  160.3880  212.0350  156.4390 C   0  0  0  0  0  0  0  0  0  0  0  0
  1 19  1  6  0  0  0
  1  2  1  0  0  0  0
  2  8  1  0  0  0  0
  3  6  1  0  0  0  0
  3  1  1  0  0  0  0
  5  3  1  0  0  0  0
  5  6  1  0  0  0  0
  6  7  1  0  0  0  0
  7  8  1  0  0  0  0
  8  4  1  0  0  0  0
  9 10  1  0  0  0  0
  9 12  1  0  0  0  0
 10  5  1  0  0  0  0
 11 12  1  0  0  0  0
 13 10  1  0  0  0  0
 14 16  1  0  0  0  0
 14 15  1  0  0  0  0
 15  9  2  0  0  0  0
 16 13  1  0  0  0  0
 17 15  1  0  0  0  0
 17 11  2  0  0  0  0
 18 19  1  0  0  0  0
 20 19  1  0  0  0  0
 20 22  1  0  0  0  0
 22 24  1  0  0  0  0
 23 24  1  0  0  0  0
 23 25  1  0  0  0  0
 24 28  1  0  0  0  0
 26 22  1  0  0  0  0
 26 27  1  0  0  0  0
 27 21  1  0  0  0  0
 27 23  1  0  0  0  0
 28 31  1  0  0  0  0
 31 29  1  0  0  0  0
 31 30  2  0  0  0  0
M  END
>  <MODEL>
6

>  <REMARK>
 VINA RESULT:      -7.7      3.275      8.819
  Name = 
  5 active torsions:
  status: ('A' for Active; 'I' for Inactive)
    1  A    between atoms: C_2  and  C_16
    2  A    between atoms: C_4  and  C_29
    3  A    between atoms: C_5  and  C_30
    4  A    between atoms: N_8  and  C_18
    5  A    between atoms: C_29  and  C_30
                            x       y       z     vdW  Elec       q    Type
                         _______ _______ _______ _____ _____    ______ ____

>  <TORSDO>
F 5

$$$$
=
 OpenBabel11072412113D

 31 35  0  0  1  0  0  0  0  0999 V2000
  160.6570  208.9590  153.1730 C   0  0  2  0  0  3  0  0  0  0  0  0
  160.9670  208.8720  154.6720 C   0  0  0  0  0  2  0  0  0  0  0  0
  161.6430  208.0900  152.3840 C   0  0  2  0  0  3  0  0  0  0  0  0
  160.1020  207.2500  156.2060 O   0  0  0  0  0  1  0  0  0  0  0  0
  160.8850  206.9760  151.6880 C   0  0  2  0  0  3  0  0  0  0  0  0
  161.7330  206.6460  152.9010 C   0  0  2  0  0  3  0  0  0  0  0  0
  160.8230  206.3800  154.1010 C   0  0  0  0  0  2  0  0  0  0  0  0
  161.0410  207.4290  155.1920 C   0  0  1  0  0  3  0  0  0  0  0  0
  161.2350  205.1820  150.0060 C   0  0  0  0  0  0  0  0  0  0  0  0
  161.6220  206.5710  150.4220 C   0  0  1  0  0  3  0  0  0  0  0  0
  160.8670  203.0970  149.9090 C   0  0  0  0  0  3  0  0  0  0  0  0
  161.1070  204.1000  150.7900 N   0  0  0  0  0  2  0  0  0  0  0  0
  161.3020  207.5210  149.3440 N   0  0  0  0  0  2  0  0  0  0  0  0
  161.2180  205.7890  147.5730 C   0  0  0  0  0  2  0  0  0  0  0  0
  161.1200  204.8190  148.7030 C   0  0  0  0  0  0  0  0  0  0  0  0
  161.8980  207.0740  148.0760 C   0  0  0  0  0  2  0  0  0  0  0  0
  160.8630  203.5050  148.6160 N   0  0  0  0  0  0  0  0  0  0  0  0
  161.2780  210.4620  151.4270 F   0  0  0  0  0  0  0  0  0  0  0  0
  160.7160  210.4060  152.6930 C   0  0  1  0  0  3  0  0  0  0  0  0
  159.3170  211.0050  152.6450 C   0  0  0  0  0  2  0  0  0  0  0  0
  158.8390  214.4480  155.6400 C   0  0  0  0  0  1  0  0  0  0  0  0
  158.9990  211.7490  153.9320 C   0  0  2  0  0  3  0  0  0  0  0  0
  157.4220  213.4860  153.7620 C   0  0  1  0  0  3  0  0  0  0  0  0
  157.5060  212.0040  154.0150 C   0  0  2  0  0  3  0  0  0  0  0  0
  156.2210  214.2040  154.3730 C   0  0  0  0  0  1  0  0  0  0  0  0
  159.7140  212.9700  153.9770 O   0  0  0  0  0  0  0  0  0  0  0  0
  158.7830  214.0050  154.1810 C   0  0  2  0  0  3  0  0  0  0  0  0
  157.0490  211.6540  155.3560 N   0  0  0  0  0  2  0  0  0  0  0  0
  155.1150  210.3650  154.4890 N   0  0  0  0  0  1  0  0  0  0  0  0
  155.5130  210.6220  156.7610 O   0  0  0  0  0  0  0  0  0  0  0  0
  155.8760  210.8710  155.5830 C   0  0  0  0  0  0  0  0  0  0  0  0
  1 19  1  6  0  0  0
  1  2  1  0  0  0  0
  2  8  1  0  0  0  0
  3  6  1  0  0  0  0
  3  1  1  0  0  0  0
  5  3  1  0  0  0  0
  5  6  1  0  0  0  0
  6  7  1  0  0  0  0
  7  8  1  0  0  0  0
  8  4  1  0  0  0  0
  9 10  1  0  0  0  0
  9 12  1  0  0  0  0
 10  5  1  0  0  0  0
 11 12  1  0  0  0  0
 13 10  1  0  0  0  0
 14 16  1  0  0  0  0
 14 15  1  0  0  0  0
 15  9  2  0  0  0  0
 16 13  1  0  0  0  0
 17 15  1  0  0  0  0
 17 11  2  0  0  0  0
 18 19  1  0  0  0  0
 20 19  1  0  0  0  0
 20 22  1  0  0  0  0
 22 26  1  0  0  0  0
 22 24  1  0  0  0  0
 23 24  1  0  0  0  0
 23 27  1  0  0  0  0
 23 25  1  0  0  0  0
 24 28  1  0  0  0  0
 26 27  1  0  0  0  0
 27 21  1  0  0  0  0
 28 31  1  0  0  0  0
 29 31  1  0  0  0  0
 31 30  2  0  0  0  0
M  END
>  <MODEL>
7

>  <REMARK>
 VINA RESULT:      -7.7      3.731      8.997
  Name = 
  5 active torsions:
  status: ('A' for Active; 'I' for Inactive)
    1  A    between atoms: C_2  and  C_16
    2  A    between atoms: C_4  and  C_29
    3  A    between atoms: C_5  and  C_30
    4  A    between atoms: N_8  and  C_18
    5  A    between atoms: C_29  and  C_30
                            x       y       z     vdW  Elec       q    Type
                         _______ _______ _______ _____ _____    ______ ____

>  <TORSDO>
F 5

$$$$
=
 OpenBabel11072412113D

 31 35  0  0  1  0  0  0  0  0999 V2000
  161.0170  205.8070  151.2620 C   0  0  2  0  0  3  0  0  0  0  0  0
  161.2420  204.9740  152.5290 C   0  0  0  0  0  2  0  0  0  0  0  0
  161.8130  205.2110  150.0960 C   0  0  2  0  0  3  0  0  0  0  0  0
  159.9800  203.0550  153.2070 O   0  0  0  0  0  1  0  0  0  0  0  0
  160.8540  204.7360  149.0220 C   0  0  2  0  0  3  0  0  0  0  0  0
  161.5600  203.7100  149.8880 C   0  0  2  0  0  3  0  0  0  0  0  0
  160.5690  203.1220  150.8930 C   0  0  0  0  0  2  0  0  0  0  0  0
  160.9730  203.4760  152.3250 C   0  0  1  0  0  3  0  0  0  0  0  0
  161.1380  203.6420  146.8100 C   0  0  0  0  0  0  0  0  0  0  0  0
  161.5300  204.8130  147.6640 C   0  0  1  0  0  3  0  0  0  0  0  0
  160.7900  201.7090  146.0150 C   0  0  0  0  0  3  0  0  0  0  0  0
  161.0630  202.3530  147.1770 N   0  0  0  0  0  2  0  0  0  0  0  0
  161.1450  206.0670  146.9950 N   0  0  0  0  0  2  0  0  0  0  0  0
  160.9900  205.0500  144.7400 C   0  0  0  0  0  2  0  0  0  0  0  0
  160.9610  203.7470  145.4680 C   0  0  0  0  0  0  0  0  0  0  0  0
  161.6810  206.1010  145.6260 C   0  0  0  0  0  2  0  0  0  0  0  0
  160.7150  202.5370  144.9440 N   0  0  0  0  0  0  0  0  0  0  0  0
  160.9210  208.0550  150.4710 F   0  0  0  0  0  0  0  0  0  0  0  0
  161.4140  207.2610  151.4940 C   0  0  1  0  0  3  0  0  0  0  0  0
  160.8580  207.7550  152.8230 C   0  0  0  0  0  2  0  0  0  0  0  0
  160.0630  212.2740  152.8440 C   0  0  0  0  0  1  0  0  0  0  0  0
  161.0900  209.2490  152.9880 C   0  0  2  0  0  3  0  0  0  0  0  0
  159.6390  210.3640  154.4670 C   0  0  1  0  0  3  0  0  0  0  0  0
  160.9510  209.6250  154.4500 C   0  0  2  0  0  3  0  0  0  0  0  0
  159.4720  211.4090  155.5680 C   0  0  0  0  0  1  0  0  0  0  0  0
  160.1630  209.9740  152.2000 O   0  0  0  0  0  0  0  0  0  0  0  0
  159.4910  210.8740  153.0470 C   0  0  2  0  0  3  0  0  0  0  0  0
  162.0680  210.4900  154.8150 N   0  0  0  0  0  2  0  0  0  0  0  0
  162.4530  209.2930  156.9530 N   0  0  0  0  0  1  0  0  0  0  0  0
  163.7230  211.1280  156.3170 O   0  0  0  0  0  0  0  0  0  0  0  0
  162.7850  210.3360  156.0410 C   0  0  0  0  0  0  0  0  0  0  0  0
  1 19  1  1  0  0  0
  1  2  1  0  0  0  0
  3  1  1  0  0  0  0
  5  6  1  0  0  0  0
  5  3  1  0  0  0  0
  6  3  1  0  0  0  0
  6  7  1  0  0  0  0
  7  8  1  0  0  0  0
  8  2  1  0  0  0  0
  8  4  1  0  0  0  0
  9 12  1  0  0  0  0
  9 10  1  0  0  0  0
 10  5  1  0  0  0  0
 11 12  1  0  0  0  0
 13 10  1  0  0  0  0
 14 15  1  0  0  0  0
 14 16  1  0  0  0  0
 15  9  2  0  0  0  0
 16 13  1  0  0  0  0
 17 15  1  0  0  0  0
 17 11  2  0  0  0  0
 18 19  1  0  0  0  0
 19 20  1  0  0  0  0
 20 22  1  0  0  0  0
 21 27  1  0  0  0  0
 22 24  1  0  0  0  0
 23 25  1  0  0  0  0
 24 23  1  0  0  0  0
 24 28  1  0  0  0  0
 26 22  1  0  0  0  0
 26 27  1  0  0  0  0
 27 23  1  0  0  0  0
 28 31  1  0  0  0  0
 31 30  2  0  0  0  0
 31 29  1  0  0  0  0
M  END
>  <MODEL>
8

>  <REMARK>
 VINA RESULT:      -7.5      2.862      9.070
  Name = 
  5 active torsions:
  status: ('A' for Active; 'I' for Inactive)
    1  A    between atoms: C_2  and  C_16
    2  A    between atoms: C_4  and  C_29
    3  A    between atoms: C_5  and  C_30
    4  A    between atoms: N_8  and  C_18
    5  A    between atoms: C_29  and  C_30
                            x       y       z     vdW  Elec       q    Type
                         _______ _______ _______ _____ _____    ______ ____

>  <TORSDO>
F 5

$$$$
=
 OpenBabel11072412113D

 31 35  0  0  1  0  0  0  0  0999 V2000
  161.9970  208.8240  151.2050 C   0  0  2  0  0  3  0  0  0  0  0  0
  161.8470  210.0670  150.3210 C   0  0  0  0  0  2  0  0  0  0  0  0
  161.0130  207.7390  150.7550 C   0  0  2  0  0  3  0  0  0  0  0  0
  162.9910  210.4870  148.2590 O   0  0  0  0  0  1  0  0  0  0  0  0
  161.7860  206.5320  150.2620 C   0  0  2  0  0  3  0  0  0  0  0  0
  161.0940  207.4270  149.2530 C   0  0  2  0  0  3  0  0  0  0  0  0
  162.1370  208.2710  148.5190 C   0  0  0  0  0  2  0  0  0  0  0  0
  161.9440  209.7570  148.8200 C   0  0  1  0  0  3  0  0  0  0  0  0
  161.1370  204.3200  149.3350 C   0  0  0  0  0  0  0  0  0  0  0  0
  160.9620  205.2740  150.4810 C   0  0  1  0  0  3  0  0  0  0  0  0
  161.2040  203.3920  147.4310 C   0  0  0  0  0  3  0  0  0  0  0  0
  161.1340  204.6100  148.0240 N   0  0  0  0  0  0  0  0  0  0  0  0
  161.3810  204.6270  151.7350 N   0  0  0  0  0  2  0  0  0  0  0  0
  161.1670  202.3220  150.8490 C   0  0  0  0  0  2  0  0  0  0  0  0
  161.1610  202.9740  149.5070 C   0  0  2  0  0  3  0  0  0  0  0  0
  160.6900  203.3390  151.9000 C   0  0  0  0  0  2  0  0  0  0  0  0
  161.2270  202.3630  148.3140 N   0  0  0  0  0  0  0  0  0  0  0  0
  162.5420  210.2730  153.0200 F   0  0  0  0  0  0  0  0  0  0  0  0
  161.7720  209.1750  152.6720 C   0  0  1  0  0  3  0  0  0  0  0  0
  160.3040  209.4960  152.9200 C   0  0  0  0  0  2  0  0  0  0  0  0
  158.4770  213.5140  154.1750 C   0  0  0  0  0  1  0  0  0  0  0  0
  160.1490  210.8500  153.5940 C   0  0  2  0  0  3  0  0  0  0  0  0
  158.2610  211.1110  154.9730 C   0  0  1  0  0  3  0  0  0  0  0  0
  159.6950  210.6550  155.0280 C   0  0  2  0  0  3  0  0  0  0  0  0
  157.6800  211.6530  156.2780 C   0  0  0  0  0  1  0  0  0  0  0  0
  159.2150  211.6430  152.8830 O   0  0  0  0  0  0  0  0  0  0  0  0
  158.2250  212.0590  153.7910 C   0  0  2  0  0  3  0  0  0  0  0  0
  160.5050  211.5070  155.8920 N   0  0  0  0  0  2  0  0  0  0  0  0
  162.1970  209.7310  156.2580 N   0  0  0  0  0  1  0  0  0  0  0  0
  162.3570  211.8180  157.2610 O   0  0  0  0  0  0  0  0  0  0  0  0
  161.7120  211.0490  156.5030 C   0  0  0  0  0  0  0  0  0  0  0  0
  1 19  1  1  0  0  0
  2  1  1  0  0  0  0
  3  1  1  0  0  0  0
  4  8  1  0  0  0  0
  5 10  1  0  0  0  0
  5  3  1  0  0  0  0
  6  5  1  0  0  0  0
  6  3  1  0  0  0  0
  7  8  1  0  0  0  0
  7  6  1  0  0  0  0
  8  2  1  0  0  0  0
  9 15  1  0  0  0  0
  9 10  1  0  0  0  0
 10 13  1  0  0  0  0
 11 12  1  0  0  0  0
 11 17  2  0  0  0  0
 12  9  2  0  0  0  0
 13 16  1  0  0  0  0
 14 16  1  0  0  0  0
 15 14  1  0  0  0  0
 17 15  1  0  0  0  0
 19 20  1  0  0  0  0
 19 18  1  0  0  0  0
 20 22  1  0  0  0  0
 22 24  1  0  0  0  0
 23 24  1  0  0  0  0
 23 25  1  0  0  0  0
 24 28  1  0  0  0  0
 26 22  1  0  0  0  0
 26 27  1  0  0  0  0
 27 21  1  0  0  0  0
 27 23  1  0  0  0  0
 28 31  1  0  0  0  0
 29 31  1  0  0  0  0
 31 30  2  0  0  0  0
M  END
>  <MODEL>
9

>  <REMARK>
 VINA RESULT:      -7.5      2.847      8.271
  Name = 
  5 active torsions:
  status: ('A' for Active; 'I' for Inactive)
    1  A    between atoms: C_2  and  C_16
    2  A    between atoms: C_4  and  C_29
    3  A    between atoms: C_5  and  C_30
    4  A    between atoms: N_8  and  C_18
    5  A    between atoms: C_29  and  C_30
                            x       y       z     vdW  Elec       q    Type
                         _______ _______ _______ _____ _____    ______ ____

>  <TORSDO>
F 5

$$$$
