=
 OpenBabel11072414233D

 26 28  0  0  1  0  0  0  0  0999 V2000
  161.9160  206.8380  149.7040 C   0  0  2  0  0  3  0  0  0  0  0  0
  160.5220  208.4920  152.5620 N   0  0  0  0  0  0  0  0  0  0  0  0
  161.1980  207.4980  153.1660 C   0  0  0  0  0  0  0  0  0  0  0  0
  161.8600  206.7020  152.2530 C   0  0  0  0  0  3  0  0  0  0  0  0
  161.2130  207.2840  154.5780 N   0  0  0  0  0  2  0  0  0  0  0  0
  160.7360  208.3470  151.2910 O   0  0  0  0  0  0  0  0  0  0  0  0
  161.5140  207.3150  151.0620 C   0  0  0  0  0  0  0  0  0  0  0  0
  159.7290  207.2390  156.5180 C   0  0  0  0  0  1  0  0  0  0  0  0
  160.4450  208.1120  155.5000 C   0  0  1  0  0  3  0  0  0  0  0  0
  161.9110  209.9900  155.2840 O   0  0  0  0  0  1  0  0  0  0  0  0
  161.3540  209.1090  156.2110 C   0  0  0  0  0  3  0  0  0  0  0  0
  162.3740  208.4500  156.9010 O   0  0  0  0  0  1  0  0  0  0  0  0
  162.7420  207.9020  149.0000 C   0  0  0  0  0  2  0  0  0  0  0  0
  161.9010  208.8330  148.3900 O   0  0  0  0  0  1  0  0  0  0  0  0
  160.6790  206.5000  148.8810 C   0  0  0  0  0  2  0  0  0  0  0  0
  160.6340  205.0660  148.6130 N   0  0  0  0  0  0  0  0  0  0  0  0
  161.0620  204.4470  149.7980 N   0  0  0  0  0  1  0  0  0  0  0  0
  160.6150  202.0250  145.2940 N   0  0  0  0  0  0  0  0  0  0  0  0
  161.6100  205.8130  146.4670 C   0  0  0  0  0  3  0  0  0  0  0  0
  161.6010  204.7340  147.5540 C   0  0  2  0  0  3  0  0  0  0  0  0
  161.3390  202.2440  147.5130 N   0  0  0  0  0  0  0  0  0  0  0  0
  161.2090  205.6320  145.1930 C   0  0  0  0  0  3  0  0  0  0  0  0
  160.9050  201.2580  146.5130 C   0  0  0  0  0  2  0  0  0  0  0  0
  160.8300  203.2530  145.6030 C   0  0  0  0  0  0  0  0  0  0  0  0
  160.7680  204.3550  144.7090 N   0  0  0  0  0  2  0  0  0  0  0  0
  161.2750  203.3940  146.9410 C   0  0  0  0  0  0  0  0  0  0  0  0
  1 15  1  6  0  0  0
  1  7  1  0  0  0  0
  2  3  2  0  0  0  0
  3  5  1  0  0  0  0
  4  3  1  0  0  0  0
  5  9  1  0  0  0  0
  6  2  1  0  0  0  0
  7  6  1  0  0  0  0
  7  4  2  0  0  0  0
  9 11  1  0  0  0  0
  9  8  1  1  0  0  0
 10 11  1  0  0  0  0
 11 12  1  0  0  0  0
 13  1  1  0  0  0  0
 14 13  1  0  0  0  0
 16 15  1  0  0  0  0
 16 17  1  0  0  0  0
 18 24  2  0  0  0  0
 18 23  1  0  0  0  0
 19 20  1  0  0  0  0
 20 16  1  1  0  0  0
 22 19  2  0  0  0  0
 23 21  1  0  0  0  0
 24 26  1  0  0  0  0
 25 22  1  0  0  0  0
 25 24  1  0  0  0  0
 26 21  2  0  0  0  0
 26 20  1  0  0  0  0
M  END
>  <MODEL>
1

>  <REMARK>
 VINA RESULT:      -7.2      0.000      0.000
  Name = 
  7 active torsions:
  status: ('A' for Active; 'I' for Inactive)
    1  A    between atoms: C_2  and  C_10
    2  A    between atoms: C_2  and  N_15
    3  A    between atoms: C_7  and  C_10
    4  A    between atoms: C_8  and  N_15
    5  A    between atoms: C_9  and  CA_26
    6  A    between atoms: C_10  and  C_25
    7  A    between atoms: N_19  and  CA_26
                            x       y       z     vdW  Elec       q    Type
                         _______ _______ _______ _____ _____    ______ ____

>  <TORSDO>
F 7

$$$$
=
 OpenBabel11072414233D

 26 28  0  0  1  0  0  0  0  0999 V2000
  162.1120  206.9470  149.5960 C   0  0  2  0  0  3  0  0  0  0  0  0
  160.7850  208.5810  152.4970 N   0  0  0  0  0  0  0  0  0  0  0  0
  161.2670  207.4550  153.0550 C   0  0  0  0  0  0  0  0  0  0  0  0
  161.8660  206.6370  152.1180 C   0  0  0  0  0  3  0  0  0  0  0  0
  161.1550  207.1400  154.4440 N   0  0  0  0  0  2  0  0  0  0  0  0
  161.0600  208.4980  151.2320 O   0  0  0  0  0  0  0  0  0  0  0  0
  161.6940  207.3800  150.9640 C   0  0  0  0  0  0  0  0  0  0  0  0
  159.8620  207.1790  156.5150 C   0  0  0  0  0  1  0  0  0  0  0  0
  160.4570  208.0050  155.3860 C   0  0  1  0  0  3  0  0  0  0  0  0
  162.2300  208.4910  156.9160 O   0  0  0  0  0  1  0  0  0  0  0  0
  161.4010  209.0610  155.9490 C   0  0  0  0  0  3  0  0  0  0  0  0
  160.6870  210.1210  156.5110 O   0  0  0  0  0  1  0  0  0  0  0  0
  162.3880  208.1620  148.7250 C   0  0  0  0  0  2  0  0  0  0  0  0
  161.3260  208.3680  147.8440 O   0  0  0  0  0  1  0  0  0  0  0  0
  161.0270  206.0820  148.9660 C   0  0  0  0  0  2  0  0  0  0  0  0
  161.5640  204.7630  148.6480 N   0  0  0  0  0  0  0  0  0  0  0  0
  161.7180  204.7450  147.2530 N   0  0  0  0  0  1  0  0  0  0  0  0
  161.4790  200.2930  148.1230 N   0  0  0  0  0  0  0  0  0  0  0  0
  160.5790  203.4810  150.5190 C   0  0  0  0  0  3  0  0  0  0  0  0
  160.5770  203.7310  149.0070 C   0  0  2  0  0  3  0  0  0  0  0  0
  160.7870  202.2360  147.0100 N   0  0  0  0  0  0  0  0  0  0  0  0
  160.9600  202.3330  151.1140 C   0  0  0  0  0  3  0  0  0  0  0  0
  161.1880  200.8390  146.7910 C   0  0  0  0  0  2  0  0  0  0  0  0
  161.2940  201.2660  148.9400 C   0  0  0  0  0  0  0  0  0  0  0  0
  161.3680  201.1840  150.3560 N   0  0  0  0  0  2  0  0  0  0  0  0
  160.8680  202.4430  148.2770 C   0  0  0  0  0  0  0  0  0  0  0  0
  1 13  1  6  0  0  0
  1  7  1  0  0  0  0
  2  3  2  0  0  0  0
  3  5  1  0  0  0  0
  4  3  1  0  0  0  0
  5  9  1  0  0  0  0
  6  2  1  0  0  0  0
  7  6  1  0  0  0  0
  7  4  2  0  0  0  0
  9 11  1  0  0  0  0
  9  8  1  1  0  0  0
 11 12  1  0  0  0  0
 11 10  1  0  0  0  0
 14 13  1  0  0  0  0
 15  1  1  0  0  0  0
 16 15  1  0  0  0  0
 17 16  1  0  0  0  0
 18 24  2  0  0  0  0
 19 22  2  0  0  0  0
 20 16  1  1  0  0  0
 20 19  1  0  0  0  0
 21 26  2  0  0  0  0
 23 21  1  0  0  0  0
 23 18  1  0  0  0  0
 24 25  1  0  0  0  0
 25 22  1  0  0  0  0
 26 24  1  0  0  0  0
 26 20  1  0  0  0  0
M  END
>  <MODEL>
2

>  <REMARK>
 VINA RESULT:      -7.1      1.599      2.533
  Name = 
  7 active torsions:
  status: ('A' for Active; 'I' for Inactive)
    1  A    between atoms: C_2  and  C_10
    2  A    between atoms: C_2  and  N_15
    3  A    between atoms: C_7  and  C_10
    4  A    between atoms: C_8  and  N_15
    5  A    between atoms: C_9  and  CA_26
    6  A    between atoms: C_10  and  C_25
    7  A    between atoms: N_19  and  CA_26
                            x       y       z     vdW  Elec       q    Type
                         _______ _______ _______ _____ _____    ______ ____

>  <TORSDO>
F 7

$$$$
=
 OpenBabel11072414233D

 26 28  0  0  1  0  0  0  0  0999 V2000
  161.4900  207.5500  152.6000 C   0  0  2  0  0  3  0  0  0  0  0  0
  160.6960  206.0250  149.4550 N   0  0  0  0  0  0  0  0  0  0  0  0
  161.0730  204.9410  150.1590 C   0  0  0  0  0  0  0  0  0  0  0  0
  161.4210  205.2700  151.4540 C   0  0  0  0  0  3  0  0  0  0  0  0
  161.1210  203.6180  149.6250 N   0  0  0  0  0  2  0  0  0  0  0  0
  160.7990  207.0310  150.2680 O   0  0  0  0  0  0  0  0  0  0  0  0
  161.2160  206.6380  151.4490 C   0  0  0  0  0  0  0  0  0  0  0  0
  161.9180  203.8320  147.3260 C   0  0  0  0  0  1  0  0  0  0  0  0
  160.8060  203.3280  148.2310 C   0  0  1  0  0  3  0  0  0  0  0  0
  161.4570  201.1150  148.8640 O   0  0  0  0  0  1  0  0  0  0  0  0
  160.6010  201.8310  148.0270 C   0  0  0  0  0  3  0  0  0  0  0  0
  160.8390  201.4720  146.6980 O   0  0  0  0  0  1  0  0  0  0  0  0
  161.4910  206.7620  153.9010 C   0  0  0  0  0  2  0  0  0  0  0  0
  160.3310  207.0340  154.6250 O   0  0  0  0  0  1  0  0  0  0  0  0
  160.4410  208.6540  152.6540 C   0  0  0  0  0  2  0  0  0  0  0  0
  161.0090  209.9060  152.1650 N   0  0  0  0  0  0  0  0  0  0  0  0
  162.3490  209.6180  151.8610 N   0  0  0  0  0  1  0  0  0  0  0  0
  158.0210  210.8930  155.3840 N   0  0  0  0  0  0  0  0  0  0  0  0
  161.9620  210.5130  154.3640 C   0  0  0  0  0  3  0  0  0  0  0  0
  160.9940  210.9070  153.2440 C   0  0  2  0  0  3  0  0  0  0  0  0
  158.5710  211.5370  153.1980 N   0  0  0  0  0  0  0  0  0  0  0  0
  161.6000  210.1770  155.6180 C   0  0  0  0  0  3  0  0  0  0  0  0
  157.4560  211.4590  154.1520 C   0  0  0  0  0  2  0  0  0  0  0  0
  159.2580  210.6680  155.1210 C   0  0  0  0  0  0  0  0  0  0  0  0
  160.2300  210.2050  156.0470 N   0  0  0  0  0  2  0  0  0  0  0  0
  159.6020  211.0620  153.8040 C   0  0  0  0  0  0  0  0  0  0  0  0
  1 15  1  1  0  0  0
  1 13  1  0  0  0  0
  2  3  2  0  0  0  0
  2  6  1  0  0  0  0
  3  4  1  0  0  0  0
  5  3  1  0  0  0  0
  6  7  1  0  0  0  0
  7  4  2  0  0  0  0
  7  1  1  0  0  0  0
  9  8  1  6  0  0  0
  9  5  1  0  0  0  0
 11  9  1  0  0  0  0
 11 10  1  0  0  0  0
 12 11  1  0  0  0  0
 13 14  1  0  0  0  0
 16 15  1  0  0  0  0
 17 16  1  0  0  0  0
 19 22  2  0  0  0  0
 20 16  1  6  0  0  0
 20 26  1  0  0  0  0
 20 19  1  0  0  0  0
 21 26  2  0  0  0  0
 21 23  1  0  0  0  0
 22 25  1  0  0  0  0
 23 18  1  0  0  0  0
 24 18  2  0  0  0  0
 24 25  1  0  0  0  0
 26 24  1  0  0  0  0
M  END
>  <MODEL>
3

>  <REMARK>
 VINA RESULT:      -6.9      3.187      8.791
  Name = 
  7 active torsions:
  status: ('A' for Active; 'I' for Inactive)
    1  A    between atoms: C_2  and  C_10
    2  A    between atoms: C_2  and  N_15
    3  A    between atoms: C_7  and  C_10
    4  A    between atoms: C_8  and  N_15
    5  A    between atoms: C_9  and  CA_26
    6  A    between atoms: C_10  and  C_25
    7  A    between atoms: N_19  and  CA_26
                            x       y       z     vdW  Elec       q    Type
                         _______ _______ _______ _____ _____    ______ ____

>  <TORSDO>
F 7

$$$$
=
 OpenBabel11072414233D

 26 28  0  0  1  0  0  0  0  0999 V2000
  161.7870  207.6430  151.9610 C   0  0  2  0  0  3  0  0  0  0  0  0
  160.6750  205.6220  149.2170 N   0  0  0  0  0  0  0  0  0  0  0  0
  161.5330  206.4400  148.5800 C   0  0  0  0  0  0  0  0  0  0  0  0
  162.1280  207.3320  149.4500 C   0  0  0  0  0  3  0  0  0  0  0  0
  161.7820  206.4010  147.1750 N   0  0  0  0  0  2  0  0  0  0  0  0
  160.7090  205.9720  150.4660 O   0  0  0  0  0  0  0  0  0  0  0  0
  161.5470  206.9660  150.6510 C   0  0  0  0  0  0  0  0  0  0  0  0
  160.2280  206.2610  145.2950 C   0  0  0  0  0  1  0  0  0  0  0  0
  161.0810  205.4830  146.2850 C   0  0  1  0  0  3  0  0  0  0  0  0
  161.6870  203.2590  145.6470 O   0  0  0  0  0  1  0  0  0  0  0  0
  162.0710  204.5960  145.5390 C   0  0  0  0  0  3  0  0  0  0  0  0
  163.3620  204.7530  146.0470 O   0  0  0  0  0  1  0  0  0  0  0  0
  161.8000  206.6180  153.0830 C   0  0  0  0  0  2  0  0  0  0  0  0
  160.6120  206.6900  153.8090 O   0  0  0  0  0  1  0  0  0  0  0  0
  160.7070  208.6890  152.2150 C   0  0  0  0  0  2  0  0  0  0  0  0
  161.2190  210.0200  151.9030 N   0  0  0  0  0  0  0  0  0  0  0  0
  162.5970  209.8540  151.6930 N   0  0  0  0  0  1  0  0  0  0  0  0
  157.8490  212.6870  153.2420 N   0  0  0  0  0  0  0  0  0  0  0  0
  160.7990  210.0770  154.3390 C   0  0  0  0  0  3  0  0  0  0  0  0
  161.0420  210.9000  153.0700 C   0  0  2  0  0  3  0  0  0  0  0  0
  159.8230  212.7970  151.9830 N   0  0  0  0  0  0  0  0  0  0  0  0
  159.6530  210.0670  155.0480 C   0  0  0  0  0  3  0  0  0  0  0  0
  158.4990  213.4150  152.1450 C   0  0  0  0  0  2  0  0  0  0  0  0
  158.6900  211.7840  153.5990 C   0  0  0  0  0  0  0  0  0  0  0  0
  158.5330  210.8930  154.6940 N   0  0  0  0  0  2  0  0  0  0  0  0
  159.8900  211.8480  152.8480 C   0  0  0  0  0  0  0  0  0  0  0  0
  1 15  1  1  0  0  0
  1 13  1  0  0  0  0
  2  6  1  0  0  0  0
  3  2  2  0  0  0  0
  3  4  1  0  0  0  0
  4  7  2  0  0  0  0
  5  3  1  0  0  0  0
  6  7  1  0  0  0  0
  7  1  1  0  0  0  0
  9  8  1  6  0  0  0
  9  5  1  0  0  0  0
 11 10  1  0  0  0  0
 11 12  1  0  0  0  0
 11  9  1  0  0  0  0
 13 14  1  0  0  0  0
 16 15  1  0  0  0  0
 17 16  1  0  0  0  0
 18 24  2  0  0  0  0
 19 22  2  0  0  0  0
 20 16  1  6  0  0  0
 20 19  1  0  0  0  0
 21 23  1  0  0  0  0
 21 26  2  0  0  0  0
 23 18  1  0  0  0  0
 24 25  1  0  0  0  0
 25 22  1  0  0  0  0
 26 20  1  0  0  0  0
 26 24  1  0  0  0  0
M  END
>  <MODEL>
4

>  <REMARK>
 VINA RESULT:      -6.9      3.209      8.888
  Name = 
  7 active torsions:
  status: ('A' for Active; 'I' for Inactive)
    1  A    between atoms: C_2  and  C_10
    2  A    between atoms: C_2  and  N_15
    3  A    between atoms: C_7  and  C_10
    4  A    between atoms: C_8  and  N_15
    5  A    between atoms: C_9  and  CA_26
    6  A    between atoms: C_10  and  C_25
    7  A    between atoms: N_19  and  CA_26
                            x       y       z     vdW  Elec       q    Type
                         _______ _______ _______ _____ _____    ______ ____

>  <TORSDO>
F 7

$$$$
=
 OpenBabel11072414233D

 26 28  0  0  1  0  0  0  0  0999 V2000
  161.2680  207.6730  149.9370 C   0  0  2  0  0  3  0  0  0  0  0  0
  161.2140  204.0930  150.1050 N   0  0  0  0  0  0  0  0  0  0  0  0
  161.2170  204.2710  148.7700 C   0  0  0  0  0  0  0  0  0  0  0  0
  161.2570  205.6100  148.4340 C   0  0  0  0  0  3  0  0  0  0  0  0
  161.1680  203.2050  147.8220 N   0  0  0  0  0  2  0  0  0  0  0  0
  161.2480  205.2820  150.6230 O   0  0  0  0  0  0  0  0  0  0  0  0
  161.2760  206.2010  149.6850 C   0  0  0  0  0  0  0  0  0  0  0  0
  159.9980  201.6510  149.2990 C   0  0  0  0  0  1  0  0  0  0  0  0
  161.0610  201.8080  148.2240 C   0  0  1  0  0  3  0  0  0  0  0  0
  161.5840  199.8250  146.9920 O   0  0  0  0  0  1  0  0  0  0  0  0
  160.7290  200.9270  147.0240 C   0  0  0  0  0  3  0  0  0  0  0  0
  160.8450  201.6440  145.8320 O   0  0  0  0  0  1  0  0  0  0  0  0
  162.0080  208.3980  148.8240 C   0  0  0  0  0  2  0  0  0  0  0  0
  161.9320  209.7770  149.0190 O   0  0  0  0  0  1  0  0  0  0  0  0
  161.9150  207.9770  151.2840 C   0  0  0  0  0  2  0  0  0  0  0  0
  160.8900  208.3290  152.2610 N   0  0  0  0  0  0  0  0  0  0  0  0
  160.5920  209.6810  152.0250 N   0  0  0  0  0  1  0  0  0  0  0  0
  160.0400  210.5120  156.1040 N   0  0  0  0  0  0  0  0  0  0  0  0
  160.9400  206.9490  154.3120 C   0  0  0  0  0  3  0  0  0  0  0  0
  161.4460  208.2180  153.6190 C   0  0  2  0  0  3  0  0  0  0  0  0
  161.4780  210.6390  154.2580 N   0  0  0  0  0  0  0  0  0  0  0  0
  160.1340  206.9260  155.3920 C   0  0  0  0  0  3  0  0  0  0  0  0
  160.8340  211.4500  155.3000 C   0  0  0  0  0  2  0  0  0  0  0  0
  160.2070  209.3630  155.5540 C   0  0  0  0  0  0  0  0  0  0  0  0
  159.7020  208.1290  156.0440 N   0  0  0  0  0  2  0  0  0  0  0  0
  161.0810  209.4290  154.4410 C   0  0  0  0  0  0  0  0  0  0  0  0
  1 13  1  6  0  0  0
  1 15  1  0  0  0  0
  2  6  1  0  0  0  0
  3  2  2  0  0  0  0
  4  3  1  0  0  0  0
  4  7  2  0  0  0  0
  5  9  1  0  0  0  0
  5  3  1  0  0  0  0
  7  1  1  0  0  0  0
  7  6  1  0  0  0  0
  9  8  1  1  0  0  0
 10 11  1  0  0  0  0
 11  9  1  0  0  0  0
 12 11  1  0  0  0  0
 13 14  1  0  0  0  0
 15 16  1  0  0  0  0
 17 16  1  0  0  0  0
 19 22  2  0  0  0  0
 20 16  1  6  0  0  0
 20 19  1  0  0  0  0
 20 26  1  0  0  0  0
 21 26  2  0  0  0  0
 21 23  1  0  0  0  0
 22 25  1  0  0  0  0
 23 18  1  0  0  0  0
 24 25  1  0  0  0  0
 24 18  2  0  0  0  0
 26 24  1  0  0  0  0
M  END
>  <MODEL>
5

>  <REMARK>
 VINA RESULT:      -6.9      2.904      8.698
  Name = 
  7 active torsions:
  status: ('A' for Active; 'I' for Inactive)
    1  A    between atoms: C_2  and  C_10
    2  A    between atoms: C_2  and  N_15
    3  A    between atoms: C_7  and  C_10
    4  A    between atoms: C_8  and  N_15
    5  A    between atoms: C_9  and  CA_26
    6  A    between atoms: C_10  and  C_25
    7  A    between atoms: N_19  and  CA_26
                            x       y       z     vdW  Elec       q    Type
                         _______ _______ _______ _____ _____    ______ ____

>  <TORSDO>
F 7

$$$$
=
 OpenBabel11072414233D

 26 28  0  0  1  0  0  0  0  0999 V2000
  161.6420  207.7790  152.3220 C   0  0  2  0  0  3  0  0  0  0  0  0
  160.7320  205.6070  149.6190 N   0  0  0  0  0  0  0  0  0  0  0  0
  161.3210  206.6070  148.9360 C   0  0  0  0  0  0  0  0  0  0  0  0
  161.7900  207.5940  149.7800 C   0  0  0  0  0  3  0  0  0  0  0  0
  161.4300  206.6470  147.5130 N   0  0  0  0  0  2  0  0  0  0  0  0
  160.8130  205.9350  150.8720 O   0  0  0  0  0  0  0  0  0  0  0  0
  161.4260  207.0880  151.0150 C   0  0  0  0  0  0  0  0  0  0  0  0
  160.4560  206.2030  145.3180 C   0  0  0  0  0  1  0  0  0  0  0  0
  160.8620  205.6120  146.6580 C   0  0  1  0  0  3  0  0  0  0  0  0
  163.0830  204.9930  146.0220 O   0  0  0  0  0  1  0  0  0  0  0  0
  161.8590  204.4780  146.4510 C   0  0  0  0  0  3  0  0  0  0  0  0
  161.3830  203.5600  145.5130 O   0  0  0  0  0  1  0  0  0  0  0  0
  161.6070  206.7700  153.4580 C   0  0  0  0  0  2  0  0  0  0  0  0
  160.4560  206.9540  154.2250 O   0  0  0  0  0  1  0  0  0  0  0  0
  160.5750  208.8470  152.5320 C   0  0  0  0  0  2  0  0  0  0  0  0
  161.1380  210.1700  152.2830 N   0  0  0  0  0  0  0  0  0  0  0  0
  162.4940  209.9540  151.9950 N   0  0  0  0  0  1  0  0  0  0  0  0
  157.9270  210.7010  155.3930 N   0  0  0  0  0  0  0  0  0  0  0  0
  161.9280  210.3700  154.6170 C   0  0  0  0  0  3  0  0  0  0  0  0
  161.0580  210.9770  153.5110 C   0  0  2  0  0  3  0  0  0  0  0  0
  158.6590  211.6830  153.3940 N   0  0  0  0  0  0  0  0  0  0  0  0
  161.4620  209.8410  155.7660 C   0  0  0  0  0  3  0  0  0  0  0  0
  157.4710  211.4830  154.2360 C   0  0  0  0  0  2  0  0  0  0  0  0
  159.1760  210.4840  155.1880 C   0  0  0  0  0  0  0  0  0  0  0  0
  160.0640  209.8410  156.0910 N   0  0  0  0  0  2  0  0  0  0  0  0
  159.6290  211.0800  153.9850 C   0  0  0  0  0  0  0  0  0  0  0  0
  1 15  1  1  0  0  0
  1 13  1  0  0  0  0
  2  6  1  0  0  0  0
  3  2  2  0  0  0  0
  3  4  1  0  0  0  0
  4  7  2  0  0  0  0
  5  3  1  0  0  0  0
  6  7  1  0  0  0  0
  7  1  1  0  0  0  0
  9  8  1  6  0  0  0
  9  5  1  0  0  0  0
 10 11  1  0  0  0  0
 11  9  1  0  0  0  0
 12 11  1  0  0  0  0
 13 14  1  0  0  0  0
 16 15  1  0  0  0  0
 17 16  1  0  0  0  0
 19 22  2  0  0  0  0
 20 16  1  6  0  0  0
 20 26  1  0  0  0  0
 20 19  1  0  0  0  0
 21 26  2  0  0  0  0
 21 23  1  0  0  0  0
 22 25  1  0  0  0  0
 23 18  1  0  0  0  0
 24 18  2  0  0  0  0
 24 25  1  0  0  0  0
 26 24  1  0  0  0  0
M  END
>  <MODEL>
6

>  <REMARK>
 VINA RESULT:      -6.9      2.770      8.905
  Name = 
  7 active torsions:
  status: ('A' for Active; 'I' for Inactive)
    1  A    between atoms: C_2  and  C_10
    2  A    between atoms: C_2  and  N_15
    3  A    between atoms: C_7  and  C_10
    4  A    between atoms: C_8  and  N_15
    5  A    between atoms: C_9  and  CA_26
    6  A    between atoms: C_10  and  C_25
    7  A    between atoms: N_19  and  CA_26
                            x       y       z     vdW  Elec       q    Type
                         _______ _______ _______ _____ _____    ______ ____

>  <TORSDO>
F 7

$$$$
=
 OpenBabel11072414233D

 26 28  0  0  1  0  0  0  0  0999 V2000
  160.9850  205.1500  151.1180 C   0  0  2  0  0  3  0  0  0  0  0  0
  160.8790  208.4400  152.5360 N   0  0  0  0  0  0  0  0  0  0  0  0
  161.1060  207.7090  153.6430 C   0  0  0  0  0  0  0  0  0  0  0  0
  161.2100  206.3630  153.3520 C   0  0  0  0  0  3  0  0  0  0  0  0
  161.2090  208.2580  154.9570 N   0  0  0  0  0  2  0  0  0  0  0  0
  160.8340  207.5940  151.5530 O   0  0  0  0  0  0  0  0  0  0  0  0
  161.0250  206.3680  151.9820 C   0  0  0  0  0  0  0  0  0  0  0  0
  159.6090  209.9470  155.7000 C   0  0  0  0  0  1  0  0  0  0  0  0
  161.0280  209.6800  155.2240 C   0  0  1  0  0  3  0  0  0  0  0  0
  163.1430  210.7190  155.6310 O   0  0  0  0  0  1  0  0  0  0  0  0
  162.0310  210.1630  156.2640 C   0  0  0  0  0  3  0  0  0  0  0  0
  162.4400  209.1130  157.0890 O   0  0  0  0  0  1  0  0  0  0  0  0
  161.7410  204.0120  151.7840 C   0  0  0  0  0  2  0  0  0  0  0  0
  160.8420  203.1080  152.3510 O   0  0  0  0  0  1  0  0  0  0  0  0
  161.5890  205.4560  149.7520 C   0  0  0  0  0  2  0  0  0  0  0  0
  160.8930  204.6990  148.7170 N   0  0  0  0  0  0  0  0  0  0  0  0
  160.4580  203.5190  149.3420 N   0  0  0  0  0  1  0  0  0  0  0  0
  160.4560  202.3570  144.8990 N   0  0  0  0  0  0  0  0  0  0  0  0
  162.1930  205.5380  146.7890 C   0  0  0  0  0  3  0  0  0  0  0  0
  161.8440  204.3260  147.6580 C   0  0  2  0  0  3  0  0  0  0  0  0
  161.0190  202.0170  147.1480 N   0  0  0  0  0  0  0  0  0  0  0  0
  161.8710  205.6770  145.4870 C   0  0  0  0  0  3  0  0  0  0  0  0
  160.4570  201.3480  145.9660 C   0  0  0  0  0  2  0  0  0  0  0  0
  160.9210  203.4260  145.4370 C   0  0  0  0  0  0  0  0  0  0  0  0
  161.1910  204.6440  144.7580 N   0  0  0  0  0  2  0  0  0  0  0  0
  161.2720  203.2280  146.7950 C   0  0  0  0  0  0  0  0  0  0  0  0
  1 15  1  6  0  0  0
  1 13  1  0  0  0  0
  1  7  1  0  0  0  0
  2  3  2  0  0  0  0
  3  5  1  0  0  0  0
  4  3  1  0  0  0  0
  5  9  1  0  0  0  0
  6  7  1  0  0  0  0
  6  2  1  0  0  0  0
  7  4  2  0  0  0  0
  9  8  1  1  0  0  0
  9 11  1  0  0  0  0
 10 11  1  0  0  0  0
 11 12  1  0  0  0  0
 13 14  1  0  0  0  0
 16 17  1  0  0  0  0
 16 15  1  0  0  0  0
 18 24  2  0  0  0  0
 18 23  1  0  0  0  0
 19 20  1  0  0  0  0
 20 16  1  1  0  0  0
 22 19  2  0  0  0  0
 23 21  1  0  0  0  0
 24 26  1  0  0  0  0
 25 24  1  0  0  0  0
 25 22  1  0  0  0  0
 26 21  2  0  0  0  0
 26 20  1  0  0  0  0
M  END
>  <MODEL>
7

>  <REMARK>
 VINA RESULT:      -6.8      1.531      2.031
  Name = 
  7 active torsions:
  status: ('A' for Active; 'I' for Inactive)
    1  A    between atoms: C_2  and  C_10
    2  A    between atoms: C_2  and  N_15
    3  A    between atoms: C_7  and  C_10
    4  A    between atoms: C_8  and  N_15
    5  A    between atoms: C_9  and  CA_26
    6  A    between atoms: C_10  and  C_25
    7  A    between atoms: N_19  and  CA_26
                            x       y       z     vdW  Elec       q    Type
                         _______ _______ _______ _____ _____    ______ ____

>  <TORSDO>
F 7

$$$$
=
 OpenBabel11072414233D

 26 28  0  0  1  0  0  0  0  0999 V2000
  161.8980  207.8110  151.7280 C   0  0  2  0  0  3  0  0  0  0  0  0
  162.6410  207.5880  148.2290 N   0  0  0  0  0  0  0  0  0  0  0  0
  161.8180  206.5320  148.3670 C   0  0  0  0  0  0  0  0  0  0  0  0
  161.3630  206.4070  149.6650 C   0  0  0  0  0  3  0  0  0  0  0  0
  161.4730  205.6430  147.3050 N   0  0  0  0  0  2  0  0  0  0  0  0
  162.7220  208.1330  149.4030 O   0  0  0  0  0  0  0  0  0  0  0  0
  161.9890  207.4790  150.2750 C   0  0  0  0  0  0  0  0  0  0  0  0
  163.1280  204.7490  145.7470 C   0  0  0  0  0  1  0  0  0  0  0  0
  162.0290  205.7770  145.9640 C   0  0  1  0  0  3  0  0  0  0  0  0
  159.7330  206.1240  145.3890 O   0  0  0  0  0  1  0  0  0  0  0  0
  160.9400  205.6110  144.9110 C   0  0  0  0  0  3  0  0  0  0  0  0
  160.7740  204.2670  144.5720 O   0  0  0  0  0  1  0  0  0  0  0  0
  162.1370  206.5650  152.5650 C   0  0  0  0  0  2  0  0  0  0  0  0
  160.9570  206.1860  153.2040 O   0  0  0  0  0  1  0  0  0  0  0  0
  160.5300  208.4050  152.0450 C   0  0  0  0  0  2  0  0  0  0  0  0
  160.6720  209.8030  152.4370 N   0  0  0  0  0  0  0  0  0  0  0  0
  162.0290  209.9700  152.7530 N   0  0  0  0  0  1  0  0  0  0  0  0
  161.8350  210.7540  156.6790 N   0  0  0  0  0  0  0  0  0  0  0  0
  159.2270  211.4340  153.6050 C   0  0  0  0  0  3  0  0  0  0  0  0
  159.8880  210.0530  153.6570 C   0  0  2  0  0  3  0  0  0  0  0  0
  161.3450  208.8980  155.3350 N   0  0  0  0  0  0  0  0  0  0  0  0
  159.5230  212.4660  154.4210 C   0  0  0  0  0  3  0  0  0  0  0  0
  162.0980  209.3180  156.5250 C   0  0  0  0  0  2  0  0  0  0  0  0
  161.0750  211.0710  155.6940 C   0  0  0  0  0  0  0  0  0  0  0  0
  160.4840  212.3450  155.4810 N   0  0  0  0  0  2  0  0  0  0  0  0
  160.7660  209.9530  154.8800 C   0  0  0  0  0  0  0  0  0  0  0  0
  1 15  1  6  0  0  0
  1 13  1  0  0  0  0
  2  3  2  0  0  0  0
  2  6  1  0  0  0  0
  3  4  1  0  0  0  0
  4  7  2  0  0  0  0
  5  3  1  0  0  0  0
  6  7  1  0  0  0  0
  7  1  1  0  0  0  0
  9  8  1  6  0  0  0
  9  5  1  0  0  0  0
 11 10  1  0  0  0  0
 11  9  1  0  0  0  0
 12 11  1  0  0  0  0
 13 14  1  0  0  0  0
 15 16  1  0  0  0  0
 16 17  1  0  0  0  0
 19 20  1  0  0  0  0
 19 22  2  0  0  0  0
 20 16  1  6  0  0  0
 20 26  1  0  0  0  0
 21 23  1  0  0  0  0
 22 25  1  0  0  0  0
 23 18  1  0  0  0  0
 24 18  2  0  0  0  0
 25 24  1  0  0  0  0
 26 21  2  0  0  0  0
 26 24  1  0  0  0  0
M  END
>  <MODEL>
8

>  <REMARK>
 VINA RESULT:      -6.7      2.712      9.081
  Name = 
  7 active torsions:
  status: ('A' for Active; 'I' for Inactive)
    1  A    between atoms: C_2  and  C_10
    2  A    between atoms: C_2  and  N_15
    3  A    between atoms: C_7  and  C_10
    4  A    between atoms: C_8  and  N_15
    5  A    between atoms: C_9  and  CA_26
    6  A    between atoms: C_10  and  C_25
    7  A    between atoms: N_19  and  CA_26
                            x       y       z     vdW  Elec       q    Type
                         _______ _______ _______ _____ _____    ______ ____

>  <TORSDO>
F 7

$$$$
=
 OpenBabel11072414233D

 26 28  0  0  1  0  0  0  0  0999 V2000
  161.5620  208.4470  149.2610 C   0  0  2  0  0  3  0  0  0  0  0  0
  162.2600  205.3490  147.5980 N   0  0  0  0  0  0  0  0  0  0  0  0
  161.2920  204.9540  148.4460 C   0  0  0  0  0  0  0  0  0  0  0  0
  160.8250  206.0030  149.2120 C   0  0  0  0  0  3  0  0  0  0  0  0
  160.8200  203.6100  148.5490 N   0  0  0  0  0  2  0  0  0  0  0  0
  162.4210  206.6200  147.8080 O   0  0  0  0  0  0  0  0  0  0  0  0
  161.6020  207.0470  148.7420 C   0  0  0  0  0  0  0  0  0  0  0  0
  161.2220  201.2020  148.4990 C   0  0  0  0  0  1  0  0  0  0  0  0
  161.3890  202.5220  147.7640 C   0  0  1  0  0  3  0  0  0  0  0  0
  160.6380  201.1150  145.9810 O   0  0  0  0  0  1  0  0  0  0  0  0
  160.7270  202.4450  146.3930 C   0  0  0  0  0  3  0  0  0  0  0  0
  161.4490  203.1790  145.4490 O   0  0  0  0  0  1  0  0  0  0  0  0
  162.3090  209.3750  148.3180 C   0  0  0  0  0  2  0  0  0  0  0  0
  161.7200  210.6390  148.3250 O   0  0  0  0  0  1  0  0  0  0  0  0
  162.1750  208.5060  150.6550 C   0  0  0  0  0  2  0  0  0  0  0  0
  161.7030  209.6940  151.3580 N   0  0  0  0  0  0  0  0  0  0  0  0
  162.7200  210.0210  152.2700 N   0  0  0  0  0  1  0  0  0  0  0  0
  161.0170  207.2530  155.0770 N   0  0  0  0  0  0  0  0  0  0  0  0
  160.0040  210.5770  152.9230 C   0  0  0  0  0  3  0  0  0  0  0  0
  160.4940  209.3620  152.1280 C   0  0  2  0  0  3  0  0  0  0  0  0
  161.0280  206.9950  152.7480 N   0  0  0  0  0  0  0  0  0  0  0  0
  159.9910  210.6690  154.2670 C   0  0  0  0  0  3  0  0  0  0  0  0
  161.2310  206.2690  154.0090 C   0  0  0  0  0  2  0  0  0  0  0  0
  160.7670  208.3610  154.4770 C   0  0  0  0  0  0  0  0  0  0  0  0
  160.4020  209.5800  155.1080 N   0  0  0  0  0  2  0  0  0  0  0  0
  160.7640  208.2130  153.0680 C   0  0  0  0  0  0  0  0  0  0  0  0
  1 13  1  6  0  0  0
  1 15  1  0  0  0  0
  2  6  1  0  0  0  0
  2  3  2  0  0  0  0
  3  5  1  0  0  0  0
  3  4  1  0  0  0  0
  6  7  1  0  0  0  0
  7  4  2  0  0  0  0
  7  1  1  0  0  0  0
  9  8  1  1  0  0  0
  9  5  1  0  0  0  0
 10 11  1  0  0  0  0
 11  9  1  0  0  0  0
 12 11  1  0  0  0  0
 13 14  1  0  0  0  0
 15 16  1  0  0  0  0
 16 17  1  0  0  0  0
 19 22  2  0  0  0  0
 20 16  1  1  0  0  0
 20 19  1  0  0  0  0
 20 26  1  0  0  0  0
 21 26  2  0  0  0  0
 21 23  1  0  0  0  0
 22 25  1  0  0  0  0
 23 18  1  0  0  0  0
 24 18  2  0  0  0  0
 24 25  1  0  0  0  0
 26 24  1  0  0  0  0
M  END
>  <MODEL>
9

>  <REMARK>
 VINA RESULT:      -6.7      2.931      8.033
  Name = 
  7 active torsions:
  status: ('A' for Active; 'I' for Inactive)
    1  A    between atoms: C_2  and  C_10
    2  A    between atoms: C_2  and  N_15
    3  A    between atoms: C_7  and  C_10
    4  A    between atoms: C_8  and  N_15
    5  A    between atoms: C_9  and  CA_26
    6  A    between atoms: C_10  and  C_25
    7  A    between atoms: N_19  and  CA_26
                            x       y       z     vdW  Elec       q    Type
                         _______ _______ _______ _____ _____    ______ ____

>  <TORSDO>
F 7

$$$$
