=
 OpenBabel11072415123D

 39 48  0  0  1  0  0  0  0  0999 V2000
  161.3340  208.4340  150.8730 C   0  0  1  0  0  3  0  0  0  0  0  0
  161.5840  211.2630  155.1450 C   0  0  0  0  0  2  0  0  0  0  0  0
  160.5740  209.2080  152.8830 C   0  0  1  0  0  3  0  0  0  0  0  0
  160.4700  210.4020  155.7720 C   0  0  2  0  0  3  0  0  0  0  0  0
  160.5300  208.4340  154.1750 C   0  0  0  0  0  0  0  0  0  0  0  0
  162.4020  210.5600  154.0640 C   0  0  0  0  0  2  0  0  0  0  0  0
  160.3930  207.8450  156.3380 C   0  0  0  0  0  3  0  0  0  0  0  0
  160.4140  206.7170  155.7100 N   0  0  0  0  0  0  0  0  0  0  0  0
  160.4650  208.9440  155.3960 C   0  0  1  0  0  3  0  0  0  0  0  0
  161.5600  210.3310  152.8090 C   0  0  1  0  0  3  0  0  0  0  0  0
  161.9270  208.9780  152.1840 C   0  0  1  0  0  0  0  0  0  0  0  0
  160.5010  206.9470  154.2720 C   0  0  0  0  0  3  0  0  0  0  0  0
  162.3030  209.5420  150.8020 C   0  0  0  0  0  2  0  0  0  0  0  0
  160.6760  205.9500  147.3020 O   0  0  0  0  0  1  0  0  0  0  0  0
  162.5500  205.4640  148.7150 C   0  0  1  0  0  3  0  0  0  0  0  0
  161.9320  207.0660  150.4900 C   0  0  2  0  0  3  0  0  0  0  0  0
  160.6670  203.3770  146.5150 C   0  0  2  0  0  3  0  0  0  0  0  0
  161.4730  203.7680  147.6510 N   0  0  2  0  0  0  0  0  0  0  0  0
  162.4990  206.9420  149.0790 C   0  0  0  0  0  2  0  0  0  0  0  0
  160.8330  203.7650  148.8970 N   0  0  0  0  0  2  0  0  0  0  0  0
  161.7030  204.6390  149.7040 C   0  0  2  0  0  3  0  0  0  0  0  0
  160.5640  201.8660  146.4490 C   0  0  0  0  0  1  0  0  0  0  0  0
  161.4470  203.8930  145.2930 C   0  0  1  0  0  3  0  0  0  0  0  0
  160.6920  205.7630  150.7110 S   0  0  0  0  0  0  0  0  0  0  0  0
  160.4950  204.5420  144.3100 C   0  0  0  0  0  1  0  0  0  0  0  0
  161.8260  205.1430  147.4310 C   0  0  1  0  0  0  0  0  0  0  0  0
  162.7040  205.1290  145.8650 S   0  0  0  0  0  0  0  0  0  0  0  0
  155.5220  212.9080  155.0660 N   0  0  0  0  0  0  0  0  0  0  0  0
  157.6030  212.4560  154.4520 C   0  0  0  0  0  0  0  0  0  0  0  0
  158.8660  211.8790  154.5450 C   0  0  0  0  0  3  0  0  0  0  0  0
  158.1060  210.8020  156.6090 C   0  0  0  0  0  3  0  0  0  0  0  0
  156.6340  212.2300  155.3820 C   0  0  0  0  0  0  0  0  0  0  0  0
  157.1520  213.2880  153.5040 N   0  0  0  0  0  2  0  0  0  0  0  0
  156.8430  211.4060  156.4840 C   0  0  0  0  0  3  0  0  0  0  0  0
  159.1190  211.0350  155.6440 C   0  0  0  0  0  0  0  0  0  0  0  0
  155.8760  213.5300  153.9100 C   0  0  0  0  0  0  0  0  0  0  0  0
  155.2930  214.4370  151.6940 C   0  0  0  0  0  2  0  0  0  0  0  0
  154.9590  214.4530  153.1750 C   0  0  0  0  0  3  0  0  0  0  0  0
  154.0990  213.6630  152.2050 C   0  0  0  0  0  2  0  0  0  0  0  0
  1 13  1  6  0  0  0
  1 11  1  0  0  0  0
  2  4  1  0  0  0  0
  3  5  1  1  0  0  0
  4 35  1  6  0  0  0
  5 12  2  0  0  0  0
  5  9  1  0  0  0  0
  6  2  1  0  0  0  0
  8  7  2  0  0  0  0
  9  4  1  0  0  0  0
  9  7  1  1  0  0  0
 10  3  1  0  0  0  0
 10  6  1  1  0  0  0
 11 13  1  6  0  0  0
 11 10  1  0  0  0  0
 11  3  1  0  0  0  0
 12  8  1  0  0  0  0
 15 19  1  1  0  0  0
 15 21  1  0  0  0  0
 16 19  1  6  0  0  0
 16 24  1  0  0  0  0
 16  1  1  0  0  0  0
 17 22  1  6  0  0  0
 17 18  1  0  0  0  0
 18 20  1  1  0  0  0
 21 20  1  6  0  0  0
 21 24  1  0  0  0  0
 23 25  1  6  0  0  0
 23 27  1  0  0  0  0
 23 17  1  0  0  0  0
 26 14  1  6  0  0  0
 26 18  1  0  0  0  0
 26 15  1  0  0  0  0
 27 26  1  0  0  0  0
 28 32  1  0  0  0  0
 29 30  2  0  0  0  0
 29 32  1  0  0  0  0
 30 35  1  0  0  0  0
 32 34  2  0  0  0  0
 33 36  1  0  0  0  0
 33 29  1  0  0  0  0
 34 31  1  0  0  0  0
 35 31  2  0  0  0  0
 36 28  2  0  0  0  0
 37 39  1  0  0  0  0
 37 38  1  0  0  0  0
 38 36  1  0  0  0  0
 39 38  1  0  0  0  0
M  END
>  <MODEL>
1

>  <REMARK>
 VINA RESULT:      -6.7      0.000      0.000
  Name = 
  3 active torsions:
  status: ('A' for Active; 'I' for Inactive)
    1  A    between atoms: C_1  and  C_8
    2  A    between atoms: C_4  and  C_34
    3  A    between atoms: C_27  and  C_39
                            x       y       z     vdW  Elec       q    Type
                         _______ _______ _______ _____ _____    ______ ____

>  <TORSDO>
F 3

$$$$
=
 OpenBabel11072415123D

 39 48  0  0  1  0  0  0  0  0999 V2000
  159.5980  212.1950  144.7060 C   0  0  1  0  0  3  0  0  0  0  0  0
  159.2800  213.6320  149.6210 C   0  0  0  0  0  2  0  0  0  0  0  0
  160.3330  212.3490  146.8630 C   0  0  1  0  0  3  0  0  0  0  0  0
  160.7820  213.3360  149.7970 C   0  0  2  0  0  3  0  0  0  0  0  0
  161.4620  213.2150  147.3580 C   0  0  0  0  0  0  0  0  0  0  0  0
  158.8590  213.9700  148.1920 C   0  0  0  0  0  2  0  0  0  0  0  0
  162.8840  214.3870  148.6420 C   0  0  0  0  0  3  0  0  0  0  0  0
  163.4050  214.4530  147.4620 N   0  0  0  0  0  0  0  0  0  0  0  0
  161.6590  213.6140  148.6060 C   0  0  1  0  0  3  0  0  0  0  0  0
  158.9540  212.7370  147.2930 C   0  0  1  0  0  3  0  0  0  0  0  0
  159.4430  213.1550  145.8990 C   0  0  1  0  0  0  0  0  0  0  0  0
  162.5770  213.7230  146.5080 C   0  0  0  0  0  3  0  0  0  0  0  0
  158.2390  212.5760  145.1320 C   0  0  0  0  0  2  0  0  0  0  0  0
  160.4580  210.6210  140.6890 O   0  0  0  0  0  1  0  0  0  0  0  0
  160.1940  212.9860  140.9680 C   0  0  1  0  0  3  0  0  0  0  0  0
  160.0730  212.9240  143.4340 C   0  0  2  0  0  3  0  0  0  0  0  0
  162.0080  211.0980  138.5420 C   0  0  2  0  0  3  0  0  0  0  0  0
  161.6600  212.1920  139.4230 N   0  0  2  0  0  0  0  0  0  0  0  0
  159.3060  212.6210  142.1500 C   0  0  0  0  0  2  0  0  0  0  0  0
  162.5010  212.3940  140.5250 N   0  0  0  0  0  2  0  0  0  0  0  0
  161.6510  213.1830  141.4330 C   0  0  2  0  0  3  0  0  0  0  0  0
  163.1210  211.5220  137.6040 C   0  0  0  0  0  1  0  0  0  0  0  0
  160.7270  210.8330  137.7320 C   0  0  1  0  0  3  0  0  0  0  0  0
  161.8250  212.5730  143.1340 S   0  0  0  0  0  0  0  0  0  0  0  0
  160.4790  209.3420  137.6350 C   0  0  0  0  0  1  0  0  0  0  0  0
  160.3900  211.8480  139.9970 C   0  0  1  0  0  0  0  0  0  0  0  0
  159.3010  211.6560  138.5830 S   0  0  0  0  0  0  0  0  0  0  0  0
  161.5670  208.3730  152.2530 N   0  0  0  0  0  0  0  0  0  0  0  0
  160.7040  210.4130  152.1710 C   0  0  0  0  0  0  0  0  0  0  0  0
  160.4550  211.6740  151.6400 C   0  0  0  0  0  3  0  0  0  0  0  0
  161.8340  211.0260  149.7250 C   0  0  0  0  0  3  0  0  0  0  0  0
  161.4780  209.4960  151.5270 C   0  0  0  0  0  0  0  0  0  0  0  0
  160.2670  209.9150  153.3360 N   0  0  0  0  0  2  0  0  0  0  0  0
  162.0680  209.7610  150.2940 C   0  0  0  0  0  3  0  0  0  0  0  0
  161.0300  211.9840  150.3930 C   0  0  0  0  0  0  0  0  0  0  0  0
  160.8070  208.6660  153.3410 C   0  0  0  0  0  0  0  0  0  0  0  0
  161.4770  208.1580  155.6570 C   0  0  0  0  0  2  0  0  0  0  0  0
  160.6260  207.7150  154.4800 C   0  0  0  0  0  3  0  0  0  0  0  0
  159.9900  208.4340  155.6560 C   0  0  0  0  0  2  0  0  0  0  0  0
  1 13  1  6  0  0  0
  1 11  1  0  0  0  0
  2  4  1  0  0  0  0
  3 10  1  0  0  0  0
  3  5  1  1  0  0  0
  4 35  1  6  0  0  0
  5  9  1  0  0  0  0
  6  2  1  0  0  0  0
  8  7  2  0  0  0  0
  9  7  1  6  0  0  0
  9  4  1  0  0  0  0
 10  6  1  1  0  0  0
 11 13  1  1  0  0  0
 11  3  1  0  0  0  0
 11 10  1  0  0  0  0
 12  5  2  0  0  0  0
 12  8  1  0  0  0  0
 15 21  1  0  0  0  0
 15 19  1  1  0  0  0
 16 19  1  6  0  0  0
 16  1  1  0  0  0  0
 17 22  1  6  0  0  0
 17 18  1  0  0  0  0
 18 26  1  0  0  0  0
 18 20  1  1  0  0  0
 21 20  1  6  0  0  0
 21 24  1  0  0  0  0
 23 25  1  1  0  0  0
 23 17  1  0  0  0  0
 23 27  1  0  0  0  0
 24 16  1  0  0  0  0
 26 14  1  1  0  0  0
 26 15  1  0  0  0  0
 27 26  1  0  0  0  0
 28 36  2  0  0  0  0
 29 33  1  0  0  0  0
 30 29  1  0  0  0  0
 31 34  2  0  0  0  0
 31 35  1  0  0  0  0
 32 29  2  0  0  0  0
 32 28  1  0  0  0  0
 33 36  1  0  0  0  0
 34 32  1  0  0  0  0
 35 30  2  0  0  0  0
 36 38  1  0  0  0  0
 38 39  1  0  0  0  0
 38 37  1  0  0  0  0
 39 37  1  0  0  0  0
M  END
>  <MODEL>
2

>  <REMARK>
 VINA RESULT:      -6.1      6.663      8.927
  Name = 
  3 active torsions:
  status: ('A' for Active; 'I' for Inactive)
    1  A    between atoms: C_1  and  C_8
    2  A    between atoms: C_4  and  C_34
    3  A    between atoms: C_27  and  C_39
                            x       y       z     vdW  Elec       q    Type
                         _______ _______ _______ _____ _____    ______ ____

>  <TORSDO>
F 3

$$$$
=
 OpenBabel11072415123D

 39 48  0  0  1  0  0  0  0  0999 V2000
  158.9990  212.6440  144.7260 C   0  0  1  0  0  3  0  0  0  0  0  0
  160.1020  213.1890  149.7070 C   0  0  0  0  0  2  0  0  0  0  0  0
  160.2160  212.2740  146.6230 C   0  0  1  0  0  3  0  0  0  0  0  0
  161.5080  212.6160  149.4510 C   0  0  2  0  0  3  0  0  0  0  0  0
  161.5830  212.8310  146.9260 C   0  0  0  0  0  0  0  0  0  0  0  0
  159.4510  213.8500  148.4930 C   0  0  0  0  0  2  0  0  0  0  0  0
  163.4690  213.4900  147.9510 C   0  0  0  0  0  3  0  0  0  0  0  0
  163.7140  213.6820  146.6970 N   0  0  0  0  0  0  0  0  0  0  0  0
  162.1340  212.9560  148.1250 C   0  0  1  0  0  3  0  0  0  0  0  0
  159.0810  212.8050  147.4400 C   0  0  1  0  0  3  0  0  0  0  0  0
  159.3200  213.3820  146.0380 C   0  0  1  0  0  0  0  0  0  0  0  0
  162.5580  213.2900  145.8970 C   0  0  0  0  0  3  0  0  0  0  0  0
  157.8810  213.1650  145.5340 C   0  0  0  0  0  2  0  0  0  0  0  0
  161.1330  211.5990  141.0240 O   0  0  0  0  0  1  0  0  0  0  0  0
  159.8190  213.6020  141.0700 C   0  0  1  0  0  3  0  0  0  0  0  0
  159.3180  213.5030  143.4860 C   0  0  2  0  0  3  0  0  0  0  0  0
  162.6600  212.7050  139.1040 C   0  0  2  0  0  3  0  0  0  0  0  0
  161.7240  213.5350  139.8320 N   0  0  2  0  0  0  0  0  0  0  0  0
  158.9920  212.8850  142.1290 C   0  0  0  0  0  2  0  0  0  0  0  0
  162.1900  214.0940  141.0290 N   0  0  0  0  0  2  0  0  0  0  0  0
  160.9390  214.4270  141.7330 C   0  0  2  0  0  3  0  0  0  0  0  0
  163.6170  213.5750  138.3150 C   0  0  0  0  0  1  0  0  0  0  0  0
  161.7830  211.8950  138.1340 C   0  0  1  0  0  3  0  0  0  0  0  0
  161.0690  213.9650  143.4840 S   0  0  0  0  0  0  0  0  0  0  0  0
  162.2320  210.4480  138.1200 C   0  0  0  0  0  1  0  0  0  0  0  0
  160.6540  212.6650  140.2340 C   0  0  1  0  0  0  0  0  0  0  0  0
  160.0180  212.0030  138.6910 S   0  0  0  0  0  0  0  0  0  0  0  0
  161.8530  207.1110  150.3750 N   0  0  0  0  0  0  0  0  0  0  0  0
  161.8800  208.8890  149.0520 C   0  0  0  0  0  0  0  0  0  0  0  0
  161.8060  210.2400  148.7240 C   0  0  0  0  0  3  0  0  0  0  0  0
  161.4650  210.6900  151.1060 C   0  0  0  0  0  3  0  0  0  0  0  0
  161.7530  208.4470  150.3330 C   0  0  0  0  0  0  0  0  0  0  0  0
  162.0650  207.8550  148.2200 N   0  0  0  0  0  2  0  0  0  0  0  0
  161.5420  209.3170  151.3990 C   0  0  0  0  0  3  0  0  0  0  0  0
  161.5960  211.1560  149.7730 C   0  0  0  0  0  0  0  0  0  0  0  0
  162.0540  206.7920  149.0680 C   0  0  0  0  0  0  0  0  0  0  0  0
  160.8800  204.6420  148.7960 C   0  0  0  0  0  2  0  0  0  0  0  0
  162.1910  205.3820  148.5930 C   0  0  0  0  0  3  0  0  0  0  0  0
  161.2590  205.1390  147.4190 C   0  0  0  0  0  2  0  0  0  0  0  0
  1 13  1  1  0  0  0
  1 11  1  0  0  0  0
  3  5  1  1  0  0  0
  3 10  1  0  0  0  0
  4  2  1  0  0  0  0
  4 35  1  6  0  0  0
  5  9  1  0  0  0  0
  6  2  1  0  0  0  0
  8  7  2  0  0  0  0
  9  7  1  1  0  0  0
  9  4  1  0  0  0  0
 10  6  1  1  0  0  0
 11 13  1  1  0  0  0
 11  3  1  0  0  0  0
 11 10  1  0  0  0  0
 12  8  1  0  0  0  0
 12  5  2  0  0  0  0
 15 21  1  0  0  0  0
 15 19  1  1  0  0  0
 16 19  1  6  0  0  0
 16  1  1  0  0  0  0
 17 22  1  6  0  0  0
 17 18  1  0  0  0  0
 18 26  1  0  0  0  0
 18 20  1  1  0  0  0
 21 20  1  6  0  0  0
 21 24  1  0  0  0  0
 23 25  1  1  0  0  0
 23 27  1  0  0  0  0
 23 17  1  0  0  0  0
 24 16  1  0  0  0  0
 26 14  1  1  0  0  0
 26 15  1  0  0  0  0
 27 26  1  0  0  0  0
 29 32  1  0  0  0  0
 30 29  2  0  0  0  0
 30 35  1  0  0  0  0
 31 34  1  0  0  0  0
 32 28  1  0  0  0  0
 32 34  2  0  0  0  0
 33 29  1  0  0  0  0
 33 36  1  0  0  0  0
 35 31  2  0  0  0  0
 36 28  2  0  0  0  0
 38 37  1  0  0  0  0
 38 36  1  0  0  0  0
 39 38  1  0  0  0  0
 39 37  1  0  0  0  0
M  END
>  <MODEL>
3

>  <REMARK>
 VINA RESULT:      -5.3      7.019      9.762
  Name = 
  3 active torsions:
  status: ('A' for Active; 'I' for Inactive)
    1  A    between atoms: C_1  and  C_8
    2  A    between atoms: C_4  and  C_34
    3  A    between atoms: C_27  and  C_39
                            x       y       z     vdW  Elec       q    Type
                         _______ _______ _______ _____ _____    ______ ____

>  <TORSDO>
F 3

$$$$
=
 OpenBabel11072415123D

 39 48  0  0  1  0  0  0  0  0999 V2000
  161.4620  208.2080  149.8000 C   0  0  1  0  0  3  0  0  0  0  0  0
  161.9280  210.9840  154.0890 C   0  0  0  0  0  2  0  0  0  0  0  0
  160.8390  208.9100  151.8820 C   0  0  1  0  0  3  0  0  0  0  0  0
  160.9230  210.0530  154.7930 C   0  0  2  0  0  3  0  0  0  0  0  0
  160.9510  208.1150  153.1580 C   0  0  0  0  0  0  0  0  0  0  0  0
  162.6870  210.3450  152.9280 C   0  0  0  0  0  2  0  0  0  0  0  0
  161.0370  207.4880  155.3130 C   0  0  0  0  0  3  0  0  0  0  0  0
  161.0650  206.3720  154.6640 N   0  0  0  0  0  0  0  0  0  0  0  0
  160.9660  208.6030  154.3900 C   0  0  1  0  0  3  0  0  0  0  0  0
  161.7520  210.0870  151.7460 C   0  0  1  0  0  3  0  0  0  0  0  0
  162.1370  208.7660  151.0650 C   0  0  1  0  0  0  0  0  0  0  0  0
  161.0130  206.6270  153.2280 C   0  0  0  0  0  3  0  0  0  0  0  0
  162.3590  209.3710  149.6660 C   0  0  0  0  0  2  0  0  0  0  0  0
  160.1240  205.3240  146.7600 O   0  0  0  0  0  1  0  0  0  0  0  0
  162.3770  205.1880  147.5650 C   0  0  1  0  0  3  0  0  0  0  0  0
  162.0980  206.8820  149.3400 C   0  0  2  0  0  3  0  0  0  0  0  0
  160.2280  202.6990  146.1760 C   0  0  2  0  0  3  0  0  0  0  0  0
  161.2730  203.2870  146.9870 N   0  0  2  0  0  0  0  0  0  0  0  0
  162.2380  206.6800  147.8340 C   0  0  0  0  0  2  0  0  0  0  0  0
  161.0320  203.3390  148.3660 N   0  0  0  0  0  2  0  0  0  0  0  0
  161.9760  204.3780  148.8140 C   0  0  2  0  0  3  0  0  0  0  0  0
  160.3140  201.1870  146.2390 C   0  0  0  0  0  1  0  0  0  0  0  0
  160.5400  203.1720  144.7450 C   0  0  1  0  0  3  0  0  0  0  0  0
  161.1640  205.4810  150.0080 S   0  0  0  0  0  0  0  0  0  0  0  0
  159.2630  203.6120  144.0590 C   0  0  0  0  0  1  0  0  0  0  0  0
  161.3580  204.6630  146.5850 C   0  0  1  0  0  0  0  0  0  0  0  0
  161.7320  204.5890  144.8300 S   0  0  0  0  0  0  0  0  0  0  0  0
  155.7490  212.1550  155.0810 N   0  0  0  0  0  0  0  0  0  0  0  0
  157.6840  211.5610  155.9840 C   0  0  0  0  0  0  0  0  0  0  0  0
  158.9780  211.0510  156.0110 C   0  0  0  0  0  3  0  0  0  0  0  0
  158.7760  210.6930  153.5980 C   0  0  0  0  0  3  0  0  0  0  0  0
  156.9600  211.6380  154.8330 C   0  0  0  0  0  0  0  0  0  0  0  0
  156.9660  212.0250  157.0150 N   0  0  0  0  0  2  0  0  0  0  0  0
  157.4690  211.2110  153.6090 C   0  0  0  0  0  3  0  0  0  0  0  0
  159.5330  210.6100  154.7940 C   0  0  0  0  0  0  0  0  0  0  0  0
  155.7980  212.3870  156.4190 C   0  0  0  0  0  0  0  0  0  0  0  0
  154.7500  214.4530  157.2610 C   0  0  0  0  0  2  0  0  0  0  0  0
  154.6400  212.9400  157.1860 C   0  0  0  0  0  3  0  0  0  0  0  0
  153.7920  213.8140  156.2810 C   0  0  0  0  0  2  0  0  0  0  0  0
  1 13  1  6  0  0  0
  1 11  1  0  0  0  0
  2  4  1  0  0  0  0
  3  5  1  1  0  0  0
  4 35  1  6  0  0  0
  5 12  2  0  0  0  0
  5  9  1  0  0  0  0
  6  2  1  0  0  0  0
  8  7  2  0  0  0  0
  9  4  1  0  0  0  0
  9  7  1  6  0  0  0
 10  3  1  0  0  0  0
 10  6  1  1  0  0  0
 11 13  1  6  0  0  0
 11 10  1  0  0  0  0
 11  3  1  0  0  0  0
 12  8  1  0  0  0  0
 15 19  1  1  0  0  0
 15 21  1  0  0  0  0
 16 19  1  6  0  0  0
 16  1  1  0  0  0  0
 16 24  1  0  0  0  0
 17 22  1  6  0  0  0
 17 18  1  0  0  0  0
 18 20  1  1  0  0  0
 21 20  1  6  0  0  0
 21 24  1  0  0  0  0
 23 25  1  1  0  0  0
 23 27  1  0  0  0  0
 23 17  1  0  0  0  0
 26 14  1  1  0  0  0
 26 18  1  0  0  0  0
 26 15  1  0  0  0  0
 27 26  1  0  0  0  0
 28 36  2  0  0  0  0
 29 30  1  0  0  0  0
 29 33  1  0  0  0  0
 31 34  2  0  0  0  0
 31 35  1  0  0  0  0
 32 28  1  0  0  0  0
 32 29  2  0  0  0  0
 34 32  1  0  0  0  0
 35 30  2  0  0  0  0
 36 33  1  0  0  0  0
 36 38  1  0  0  0  0
 38 37  1  0  0  0  0
 39 38  1  0  0  0  0
 39 37  1  0  0  0  0
M  END
>  <MODEL>
4

>  <REMARK>
 VINA RESULT:      -4.8      1.556      1.959
  Name = 
  3 active torsions:
  status: ('A' for Active; 'I' for Inactive)
    1  A    between atoms: C_1  and  C_8
    2  A    between atoms: C_4  and  C_34
    3  A    between atoms: C_27  and  C_39
                            x       y       z     vdW  Elec       q    Type
                         _______ _______ _______ _____ _____    ______ ____

>  <TORSDO>
F 3

$$$$
=
 OpenBabel11072415123D

 39 48  0  0  1  0  0  0  0  0999 V2000
  161.8410  210.0510  149.4210 C   0  0  1  0  0  3  0  0  0  0  0  0
  162.8340  214.4530  146.9800 C   0  0  0  0  0  2  0  0  0  0  0  0
  161.5860  211.5880  147.7510 C   0  0  1  0  0  3  0  0  0  0  0  0
  161.5460  214.2780  146.1550 C   0  0  2  0  0  3  0  0  0  0  0  0
  160.4030  212.5010  147.5550 C   0  0  0  0  0  0  0  0  0  0  0  0
  162.8220  213.7540  148.3390 C   0  0  0  0  0  2  0  0  0  0  0  0
  159.0370  214.1580  146.8970 C   0  0  0  0  0  3  0  0  0  0  0  0
  158.2700  213.3790  147.5860 N   0  0  0  0  0  0  0  0  0  0  0  0
  160.3850  213.6300  146.8610 C   0  0  0  0  0  0  0  0  0  0  0  0
  162.8680  212.2360  148.1670 C   0  0  1  0  0  3  0  0  0  0  0  0
  161.9910  211.5710  149.2370 C   0  0  1  0  0  0  0  0  0  0  0  0
  159.0340  212.2400  148.0850 C   0  0  0  0  0  2  0  0  0  0  0  0
  163.1060  210.6890  149.8280 C   0  0  0  0  0  2  0  0  0  0  0  0
  162.6020  210.1970  153.7510 O   0  0  0  0  0  1  0  0  0  0  0  0
  160.3390  210.0130  152.9840 C   0  0  1  0  0  3  0  0  0  0  0  0
  160.9190  209.6980  150.6040 C   0  0  2  0  0  3  0  0  0  0  0  0
  161.8680  209.0010  156.0460 C   0  0  2  0  0  3  0  0  0  0  0  0
  160.9550  209.0000  154.9230 N   0  0  2  0  0  0  0  0  0  0  0  0
  160.8380  210.7220  151.7320 C   0  0  0  0  0  2  0  0  0  0  0  0
  161.1040  207.9530  154.0030 N   0  0  0  0  0  2  0  0  0  0  0  0
  160.4300  208.4840  152.8050 C   0  0  2  0  0  3  0  0  0  0  0  0
  161.3920  208.0200  157.1000 C   0  0  0  0  0  1  0  0  0  0  0  0
  161.7890  210.4320  156.6050 C   0  0  1  0  0  3  0  0  0  0  0  0
  161.4120  208.1110  151.3240 S   0  0  0  0  0  0  0  0  0  0  0  0
  163.1810  210.9360  156.9260 C   0  0  0  0  0  1  0  0  0  0  0  0
  161.2550  210.1850  154.1700 C   0  0  1  0  0  0  0  0  0  0  0  0
  160.9990  211.5270  155.3350 S   0  0  0  0  0  0  0  0  0  0  0  0
  162.2800  211.8980  141.1470 N   0  0  0  0  0  0  0  0  0  0  0  0
  161.0910  212.3200  142.9700 C   0  0  0  0  0  0  0  0  0  0  0  0
  160.8190  212.8670  144.2200 C   0  0  0  0  0  3  0  0  0  0  0  0
  163.0320  213.9090  144.1290 C   0  0  0  0  0  3  0  0  0  0  0  0
  162.2670  212.5440  142.3220 C   0  0  0  0  0  0  0  0  0  0  0  0
  160.3030  211.5210  142.2370 N   0  0  0  0  0  2  0  0  0  0  0  0
  163.2730  213.3360  142.8680 C   0  0  0  0  0  3  0  0  0  0  0  0
  161.8090  213.6780  144.8080 C   0  0  0  0  0  0  0  0  0  0  0  0
  161.0610  211.2970  141.1300 C   0  0  0  0  0  0  0  0  0  0  0  0
  159.8430  211.2290  138.9890 C   0  0  0  0  0  2  0  0  0  0  0  0
  160.6120  210.4120  140.0130 C   0  0  0  0  0  3  0  0  0  0  0  0
  161.2780  210.8390  138.7170 C   0  0  0  0  0  2  0  0  0  0  0  0
  1 13  1  1  0  0  0
  1 16  1  0  0  0  0
  2  6  1  0  0  0  0
  3  5  1  1  0  0  0
  3 10  1  0  0  0  0
  3 11  1  0  0  0  0
  4 35  1  6  0  0  0
  4  9  1  0  0  0  0
  4  2  1  0  0  0  0
  5 12  1  0  0  0  0
  7  8  2  0  0  0  0
  8 12  1  0  0  0  0
  9  7  1  0  0  0  0
  9  5  2  0  0  0  0
 10  6  1  1  0  0  0
 10 11  1  0  0  0  0
 11  1  1  0  0  0  0
 11 13  1  6  0  0  0
 15 19  1  6  0  0  0
 15 26  1  0  0  0  0
 16 24  1  0  0  0  0
 16 19  1  1  0  0  0
 17 23  1  0  0  0  0
 17 22  1  1  0  0  0
 18 20  1  6  0  0  0
 18 17  1  0  0  0  0
 21 24  1  6  0  0  0
 21 15  1  0  0  0  0
 21 20  1  0  0  0  0
 23 25  1  6  0  0  0
 26 14  1  6  0  0  0
 26 18  1  0  0  0  0
 26 27  1  0  0  0  0
 27 23  1  0  0  0  0
 28 32  1  0  0  0  0
 29 30  1  0  0  0  0
 30 35  2  0  0  0  0
 31 35  1  0  0  0  0
 32 34  1  0  0  0  0
 32 29  2  0  0  0  0
 33 29  1  0  0  0  0
 34 31  2  0  0  0  0
 36 28  2  0  0  0  0
 36 33  1  0  0  0  0
 37 38  1  0  0  0  0
 38 36  1  0  0  0  0
 39 37  1  0  0  0  0
 39 38  1  0  0  0  0
M  END
>  <MODEL>
5

>  <REMARK>
 VINA RESULT:      -4.3      5.773     10.350
  Name = 
  3 active torsions:
  status: ('A' for Active; 'I' for Inactive)
    1  A    between atoms: C_1  and  C_8
    2  A    between atoms: C_4  and  C_34
    3  A    between atoms: C_27  and  C_39
                            x       y       z     vdW  Elec       q    Type
                         _______ _______ _______ _____ _____    ______ ____

>  <TORSDO>
F 3

$$$$
