=
 OpenBabel11072411333D

 52 54  0  0  1  0  0  0  0  0999 V2000
  161.3640  211.2520  149.0090 C   0  0  0  0  0  2  0  0  0  0  0  0
  162.3930  208.5940  148.6730 C   0  0  0  0  0  0  0  0  0  0  0  0
  163.4390  208.1630  148.0810 O   0  0  0  0  0  0  0  0  0  0  0  0
  162.0460  210.0020  148.4120 N   0  0  0  0  0  2  0  0  0  0  0  0
  161.5280  207.4350  149.2340 C   0  0  1  0  0  3  0  0  0  0  0  0
  160.4910  206.7830  148.2050 C   0  0  0  0  0  2  0  0  0  0  0  0
  160.9660  206.3130  146.8640 C   0  0  0  0  0  0  0  0  0  0  0  0
  159.9380  205.8330  146.1120 O   0  0  0  0  0  0  0  0  0  0  0  0
  162.2100  206.4600  146.3550 O   0  0  0  0  0  1  0  0  0  0  0  0
  161.5200  206.6080  150.6310 C   0  0  1  0  0  3  0  0  0  0  0  0
  161.1900  206.3900  153.2520 C   0  0  0  0  0  0  0  0  0  0  0  0
  160.5040  208.3320  154.5000 C   0  0  0  0  0  3  0  0  0  0  0  0
  161.6270  205.0590  153.3940 O   0  0  0  0  0  1  0  0  0  0  0  0
  161.2140  207.1280  152.0460 C   0  0  0  0  0  0  0  0  0  0  0  0
  160.7990  206.9720  154.4390 C   0  0  0  0  0  3  0  0  0  0  0  0
  160.5420  209.0980  153.3460 C   0  0  0  0  0  0  0  0  0  0  0  0
  160.2140  210.5490  153.4430 C   0  0  0  0  0  1  0  0  0  0  0  0
  160.8570  208.5430  152.1420 C   0  0  0  0  0  3  0  0  0  0  0  0
  160.4950  205.4310  150.4950 C   0  0  0  0  0  2  0  0  0  0  0  0
  161.1110  204.0610  150.1250 C   0  0  1  0  0  3  0  0  0  0  0  0
  160.5520  202.9020  150.8100 C   0  0  0  0  0  2  0  0  0  0  0  0
  160.7980  202.9800  152.2170 O   0  0  0  0  0  1  0  0  0  0  0  0
  161.6250  203.8180  148.6400 C   0  0  0  0  0  2  0  0  0  0  0  0
  161.6110  200.6450  148.4810 C   0  0  0  0  0  1  0  0  0  0  0  0
  160.8090  202.5890  146.6920 O   0  0  0  0  0  0  0  0  0  0  0  0
  160.8130  202.3030  148.1430 S   0  0  2  0  0  0  0  0  0  0  0  0
  163.2060  212.1730  147.9140 C   0  0  0  0  0  1  0  0  0  0  0  0
  161.8930  212.6420  148.5800 C   0  0  1  0  0  3  0  0  0  0  0  0
  160.9690  213.5320  147.6290 C   0  0  0  0  0  2  0  0  0  0  0  0
  161.1720  213.0600  145.1260 C   0  0  0  0  0  2  0  0  0  0  0  0
  161.4700  213.7650  146.2210 C   0  0  0  0  0  2  0  0  0  0  0  0
  161.6040  213.7190  143.8790 C   0  0  0  0  0  2  0  0  0  0  0  0
  161.2980  212.8330  142.7700 N   0  0  0  0  0  0  0  0  0  0  0  0
  160.1530  211.9680  143.1330 C   0  0  0  0  0  1  0  0  0  0  0  0
  161.0400  213.5570  141.5300 C   0  0  0  0  0  2  0  0  0  0  0  0
  161.0230  212.8960  140.2000 C   0  0  2  0  0  3  0  0  0  0  0  0
  163.1690  214.0170  139.9780 C   0  0  0  0  0  3  0  0  0  0  0  0
  162.2950  213.1460  137.9310 C   0  0  0  0  0  0  0  0  0  0  0  0
  164.6230  214.0250  137.9400 C   0  0  0  0  0  0  0  0  0  0  0  0
  163.5620  213.4800  137.2230 C   0  0  0  0  0  3  0  0  0  0  0  0
  165.7870  214.2870  137.3010 O   0  0  0  0  0  1  0  0  0  0  0  0
  161.2620  212.7540  137.2770 O   0  0  0  0  0  1  0  0  0  0  0  0
  162.2640  213.2990  139.3750 C   0  0  0  0  0  0  0  0  0  0  0  0
  164.5380  214.3830  139.3750 C   0  0  0  0  0  3  0  0  0  0  0  0
  159.7840  213.3750  139.4660 N   0  0  0  0  0  2  0  0  0  0  0  0
  158.1000  212.1600  140.4090 O   0  0  0  0  0  0  0  0  0  0  0  0
  158.4990  212.8900  139.4880 C   0  0  0  0  0  0  0  0  0  0  0  0
  157.6450  213.0210  138.3170 C   0  0  0  0  0  3  0  0  0  0  0  0
  156.4560  212.4100  138.0660 C   0  0  0  0  0  3  0  0  0  0  0  0
  155.6580  211.4370  138.9300 C   0  0  0  0  0  3  0  0  0  0  0  0
  154.1150  211.1870  138.6280 C   0  0  0  0  0  2  0  0  0  0  0  0
  155.0200  210.5090  137.7700 C   0  0  0  0  0  2  0  0  0  0  0  0
  2  5  1  0  0  0  0
  3  2  2  0  0  0  0
  4  2  1  0  0  0  0
  4  1  1  0  0  0  0
  5  6  1  6  0  0  0
  5 10  1  0  0  0  0
  7  6  1  0  0  0  0
  8  7  2  0  0  0  0
  9  7  1  0  0  0  0
 10 19  1  6  0  0  0
 10 14  1  0  0  0  0
 11 13  1  0  0  0  0
 11 15  1  0  0  0  0
 14 18  1  0  0  0  0
 14 11  2  0  0  0  0
 15 12  2  0  0  0  0
 16 17  1  0  0  0  0
 16 12  1  0  0  0  0
 18 16  2  0  0  0  0
 20 23  1  6  0  0  0
 20 19  1  0  0  0  0
 20 21  1  0  0  0  0
 21 22  1  0  0  0  0
 25 26  2  0  0  0  0
 26 24  1  6  0  0  0
 26 23  1  0  0  0  0
 28 27  1  6  0  0  0
 28  1  1  0  0  0  0
 29 28  1  0  0  0  0
 30 31  1  0  0  0  0
 31 29  1  0  0  0  0
 32 30  1  0  0  0  0
 33 34  1  0  0  0  0
 33 32  1  0  0  0  0
 35 33  1  0  0  0  0
 36 35  1  1  0  0  0
 38 43  2  0  0  0  0
 39 44  1  0  0  0  0
 40 38  1  0  0  0  0
 40 39  2  0  0  0  0
 41 39  1  0  0  0  0
 42 38  1  0  0  0  0
 43 37  1  0  0  0  0
 43 36  1  0  0  0  0
 44 37  2  0  0  0  0
 45 47  1  0  0  0  0
 45 36  1  0  0  0  0
 47 46  2  0  0  0  0
 48 47  1  0  0  0  0
 49 48  2  0  0  0  0
 49 50  1  0  0  0  0
 51 50  1  0  0  0  0
 52 51  1  0  0  0  0
 52 50  1  0  0  0  0
M  END
>  <MODEL>
1

>  <REMARK>
 VINA RESULT:      -6.0      0.000      0.000
  Name = 
  22 active torsions:
  status: ('A' for Active; 'I' for Inactive)
    1  A    between atoms: N_3  and  C_33
    2  A    between atoms: N_3  and  C_46
    3  A    between atoms: C_4  and  C_33
    4  A    between atoms: C_5  and  C_48
    5  A    between atoms: C_6  and  C_21
    6  A    between atoms: C_7  and  C_41
    7  A    between atoms: C_7  and  C_51
    8  A    between atoms: C_8  and  C_23
    9  A    between atoms: S_12  and  C_40
   10  A    between atoms: C_13  and  C_18
   11  A    between atoms: C_13  and  C_25
   12  A    between atoms: N_17  and  C_37
   13  A    between atoms: C_18  and  C_24
   14  A    between atoms: C_18  and  C_40
   15  A    between atoms: C_21  and  C_23
   16  A    between atoms: C_23  and  C_25
   17  A    between atoms: C_25  and  C_31
   18  A    between atoms: C_29  and  C_36
   19  A    between atoms: C_35  and  C_37
   20  A    between atoms: C_37  and  C_46
   21  A    between atoms: C_39  and  N_49
   22  A    between atoms: C_39  and  C_51
                            x       y       z     vdW  Elec       q    Type
                         _______ _______ _______ _____ _____    ______ ____

>  <TORSDO>
F 22

$$$$
=
 OpenBabel11072411333D

 52 54  0  0  1  0  0  0  0  0999 V2000
  160.8770  208.4740  155.1560 C   0  0  0  0  0  2  0  0  0  0  0  0
  159.8590  210.4010  153.2880 C   0  0  0  0  0  0  0  0  0  0  0  0
  159.4820  210.2800  152.0740 O   0  0  0  0  0  0  0  0  0  0  0  0
  160.5750  209.2420  153.8510 N   0  0  0  0  0  2  0  0  0  0  0  0
  159.8010  211.8750  153.7670 C   0  0  1  0  0  3  0  0  0  0  0  0
  160.8210  212.2640  154.9360 C   0  0  0  0  0  2  0  0  0  0  0  0
  160.3210  212.4280  156.3390 C   0  0  0  0  0  0  0  0  0  0  0  0
  160.2270  211.2300  156.9770 O   0  0  0  0  0  0  0  0  0  0  0  0
  160.1190  213.5970  156.9890 O   0  0  0  0  0  1  0  0  0  0  0  0
  159.0130  213.1970  153.2530 C   0  0  1  0  0  3  0  0  0  0  0  0
  157.6000  214.1470  151.2200 C   0  0  0  0  0  0  0  0  0  0  0  0
  158.6730  214.3970  149.0790 C   0  0  0  0  0  3  0  0  0  0  0  0
  156.4120  214.4260  151.9230 O   0  0  0  0  0  1  0  0  0  0  0  0
  158.7980  213.6800  151.8080 C   0  0  0  0  0  0  0  0  0  0  0  0
  157.5340  214.4530  149.8780 C   0  0  0  0  0  3  0  0  0  0  0  0
  159.8750  213.9710  149.6220 C   0  0  0  0  0  0  0  0  0  0  0  0
  161.0750  213.9160  148.7380 C   0  0  0  0  0  1  0  0  0  0  0  0
  159.9630  213.5940  150.9280 C   0  0  0  0  0  3  0  0  0  0  0  0
  157.5420  213.1270  153.7880 C   0  0  0  0  0  2  0  0  0  0  0  0
  157.4000  213.1350  155.3280 C   0  0  1  0  0  3  0  0  0  0  0  0
  156.8740  214.3620  155.9150 C   0  0  0  0  0  2  0  0  0  0  0  0
  156.4450  214.1340  157.2600 O   0  0  0  0  0  1  0  0  0  0  0  0
  157.0350  211.7830  156.0800 C   0  0  0  0  0  2  0  0  0  0  0  0
  154.8860  209.5060  155.5360 C   0  0  0  0  0  1  0  0  0  0  0  0
  155.9640  211.4590  153.9080 O   0  0  0  0  0  0  0  0  0  0  0  0
  155.5130  211.2530  155.3020 S   0  0  2  0  0  0  0  0  0  0  0  0
  160.4000  206.5050  156.3120 C   0  0  0  0  0  1  0  0  0  0  0  0
  161.1750  206.9580  155.0540 C   0  0  1  0  0  3  0  0  0  0  0  0
  160.7370  206.2000  153.7190 C   0  0  0  0  0  2  0  0  0  0  0  0
  162.5810  206.5670  151.9870 C   0  0  0  0  0  2  0  0  0  0  0  0
  161.3260  206.7130  152.4230 C   0  0  0  0  0  2  0  0  0  0  0  0
  162.7480  206.9400  150.5700 C   0  0  0  0  0  2  0  0  0  0  0  0
  161.4650  207.4000  150.0700 N   0  0  0  0  0  0  0  0  0  0  0  0
  161.6780  208.5150  149.1200 C   0  0  0  0  0  1  0  0  0  0  0  0
  160.6860  206.3290  149.4580 C   0  0  0  0  0  2  0  0  0  0  0  0
  161.3080  205.1290  148.8440 C   0  0  2  0  0  3  0  0  0  0  0  0
  160.3840  205.9570  146.7520 C   0  0  0  0  0  3  0  0  0  0  0  0
  162.1820  204.4050  146.4890 C   0  0  0  0  0  0  0  0  0  0  0  0
  161.3470  205.5950  144.4700 C   0  0  0  0  0  0  0  0  0  0  0  0
  162.2060  204.6500  145.0200 C   0  0  0  0  0  3  0  0  0  0  0  0
  161.4030  205.8450  143.1410 O   0  0  0  0  0  1  0  0  0  0  0  0
  162.8770  203.4580  147.0080 O   0  0  0  0  0  1  0  0  0  0  0  0
  161.3320  205.2550  147.3050 C   0  0  0  0  0  0  0  0  0  0  0  0
  160.3260  206.3240  145.2580 C   0  0  0  0  0  3  0  0  0  0  0  0
  160.4560  203.9300  149.2120 N   0  0  0  0  0  2  0  0  0  0  0  0
  161.7410  202.8030  150.7210 O   0  0  0  0  0  0  0  0  0  0  0  0
  160.7680  202.8150  149.9510 C   0  0  0  0  0  0  0  0  0  0  0  0
  160.1150  201.5440  149.6750 C   0  0  0  0  0  3  0  0  0  0  0  0
  160.3590  200.6710  148.6620 C   0  0  0  0  0  3  0  0  0  0  0  0
  161.3900  200.7440  147.5390 C   0  0  0  0  0  3  0  0  0  0  0  0
  161.3280  199.7060  146.3330 C   0  0  0  0  0  2  0  0  0  0  0  0
  160.3970  200.7760  146.2640 C   0  0  0  0  0  2  0  0  0  0  0  0
  2  5  1  0  0  0  0
  2  4  1  0  0  0  0
  3  2  2  0  0  0  0
  4  1  1  0  0  0  0
  5  6  1  6  0  0  0
  6  7  1  0  0  0  0
  7  8  2  0  0  0  0
  7  9  1  0  0  0  0
 10  5  1  0  0  0  0
 10 19  1  6  0  0  0
 11 14  1  0  0  0  0
 11 13  1  0  0  0  0
 12 16  2  0  0  0  0
 12 15  1  0  0  0  0
 14 10  1  0  0  0  0
 15 11  2  0  0  0  0
 16 18  1  0  0  0  0
 17 16  1  0  0  0  0
 18 14  2  0  0  0  0
 20 19  1  6  0  0  0
 20 21  1  0  0  0  0
 20 23  1  0  0  0  0
 21 22  1  0  0  0  0
 25 26  2  0  0  0  0
 26 24  1  6  0  0  0
 26 23  1  0  0  0  0
 28  1  1  0  0  0  0
 28 27  1  1  0  0  0
 29 28  1  0  0  0  0
 30 31  1  0  0  0  0
 31 29  1  0  0  0  0
 32 30  1  0  0  0  0
 33 32  1  0  0  0  0
 34 33  1  0  0  0  0
 35 33  1  0  0  0  0
 36 45  1  0  0  0  0
 36 35  1  1  0  0  0
 37 43  1  0  0  0  0
 38 42  1  0  0  0  0
 38 43  2  0  0  0  0
 39 40  2  0  0  0  0
 39 44  1  0  0  0  0
 40 38  1  0  0  0  0
 41 39  1  0  0  0  0
 43 36  1  0  0  0  0
 44 37  2  0  0  0  0
 45 47  1  0  0  0  0
 47 46  2  0  0  0  0
 48 47  1  0  0  0  0
 49 48  2  0  0  0  0
 50 49  1  0  0  0  0
 51 50  1  0  0  0  0
 52 51  1  0  0  0  0
 52 50  1  0  0  0  0
M  END
>  <MODEL>
2

>  <REMARK>
 VINA RESULT:      -4.8      6.454     10.964
  Name = 
  22 active torsions:
  status: ('A' for Active; 'I' for Inactive)
    1  A    between atoms: N_3  and  C_33
    2  A    between atoms: N_3  and  C_46
    3  A    between atoms: C_4  and  C_33
    4  A    between atoms: C_5  and  C_48
    5  A    between atoms: C_6  and  C_21
    6  A    between atoms: C_7  and  C_41
    7  A    between atoms: C_7  and  C_51
    8  A    between atoms: C_8  and  C_23
    9  A    between atoms: S_12  and  C_40
   10  A    between atoms: C_13  and  C_18
   11  A    between atoms: C_13  and  C_25
   12  A    between atoms: N_17  and  C_37
   13  A    between atoms: C_18  and  C_24
   14  A    between atoms: C_18  and  C_40
   15  A    between atoms: C_21  and  C_23
   16  A    between atoms: C_23  and  C_25
   17  A    between atoms: C_25  and  C_31
   18  A    between atoms: C_29  and  C_36
   19  A    between atoms: C_35  and  C_37
   20  A    between atoms: C_37  and  C_46
   21  A    between atoms: C_39  and  N_49
   22  A    between atoms: C_39  and  C_51
                            x       y       z     vdW  Elec       q    Type
                         _______ _______ _______ _____ _____    ______ ____

>  <TORSDO>
F 22

$$$$
=
 OpenBabel11072411333D

 52 54  0  0  1  0  0  0  0  0999 V2000
  161.1140  208.7140  149.7800 C   0  0  0  0  0  3  0  0  0  0  0  0
  161.4400  210.0590  152.2950 C   0  0  0  0  0  0  0  0  0  0  0  0
  162.4860  210.3350  152.9740 O   0  0  0  0  0  0  0  0  0  0  0  0
  161.6360  209.1200  151.1750 N   0  0  0  0  0  0  0  0  0  0  0  0
  160.1440  210.4850  153.0320 C   0  0  1  0  0  3  0  0  0  0  0  0
  159.6770  209.5260  154.2250 C   0  0  0  0  0  2  0  0  0  0  0  0
  160.5210  209.4030  155.4570 C   0  0  0  0  0  0  0  0  0  0  0  0
  159.8850  208.6900  156.4260 O   0  0  0  0  0  1  0  0  0  0  0  0
  161.8080  209.7950  155.5930 O   0  0  0  0  0  0  0  0  0  0  0  0
  159.1870  211.7940  152.9640 C   0  0  1  0  0  3  0  0  0  0  0  0
  159.0520  212.8740  155.3820 C   0  0  0  0  0  0  0  0  0  0  0  0
  156.9600  213.8120  156.1170 C   0  0  0  0  0  3  0  0  0  0  0  0
  160.4100  212.7420  155.7300 O   0  0  0  0  0  1  0  0  0  0  0  0
  158.5010  212.5370  154.1240 C   0  0  0  0  0  0  0  0  0  0  0  0
  158.2830  213.4550  156.3670 C   0  0  0  0  0  3  0  0  0  0  0  0
  156.3880  213.5250  154.8880 C   0  0  0  0  0  0  0  0  0  0  0  0
  154.9680  213.9140  154.6550 C   0  0  0  0  0  1  0  0  0  0  0  0
  157.0970  212.8890  153.9140 C   0  0  0  0  0  3  0  0  0  0  0  0
  159.9900  212.9500  152.2750 C   0  0  0  0  0  2  0  0  0  0  0  0
  159.6190  213.2200  150.7980 C   0  0  1  0  0  3  0  0  0  0  0  0
  158.7620  214.3730  150.5530 C   0  0  0  0  0  2  0  0  0  0  0  0
  157.3840  213.9950  150.5890 O   0  0  0  0  0  1  0  0  0  0  0  0
  160.6730  212.8730  149.6590 C   0  0  0  0  0  2  0  0  0  0  0  0
  159.6610  214.0160  146.8720 C   0  0  0  0  0  1  0  0  0  0  0  0
  161.9860  214.4260  148.3040 O   0  0  0  0  0  0  0  0  0  0  0  0
  160.5340  214.2400  148.5120 S   0  0  2  0  0  0  0  0  0  0  0  0
  160.2660  206.8710  148.6290 C   0  0  0  0  0  1  0  0  0  0  0  0
  161.6180  207.3810  149.1760 C   0  0  1  0  0  3  0  0  0  0  0  0
  162.7740  207.4500  148.0770 C   0  0  0  0  0  2  0  0  0  0  0  0
  163.2770  205.5160  146.4830 C   0  0  0  0  0  2  0  0  0  0  0  0
  162.5830  206.6020  146.8390 C   0  0  0  0  0  2  0  0  0  0  0  0
  162.6550  204.7720  145.3710 C   0  0  0  0  0  2  0  0  0  0  0  0
  161.2190  204.9780  145.4370 N   0  0  0  0  0  0  0  0  0  0  0  0
  160.6560  204.9630  144.0690 C   0  0  0  0  0  1  0  0  0  0  0  0
  160.5520  204.0020  146.2920 C   0  0  0  0  0  2  0  0  0  0  0  0
  161.2910  203.0850  147.1970 C   0  0  2  0  0  3  0  0  0  0  0  0
  160.4540  201.4120  145.6420 C   0  0  0  0  0  3  0  0  0  0  0  0
  161.5850  200.5110  147.5450 C   0  0  0  0  0  0  0  0  0  0  0  0
  160.9610  198.9610  145.7010 C   0  0  0  0  0  0  0  0  0  0  0  0
  161.5150  199.1410  146.9650 C   0  0  0  0  0  3  0  0  0  0  0  0
  160.9390  197.7210  145.1600 O   0  0  0  0  0  1  0  0  0  0  0  0
  161.9800  200.6920  148.7530 O   0  0  0  0  0  1  0  0  0  0  0  0
  161.1720  201.6240  146.7080 C   0  0  0  0  0  0  0  0  0  0  0  0
  160.3440  200.0570  144.9180 C   0  0  0  0  0  3  0  0  0  0  0  0
  160.6540  203.1840  148.5700 N   0  0  0  0  0  2  0  0  0  0  0  0
  162.0010  204.6500  149.6810 O   0  0  0  0  0  0  0  0  0  0  0  0
  161.1110  203.7870  149.7160 C   0  0  0  0  0  0  0  0  0  0  0  0
  160.7350  203.2640  151.0210 C   0  0  0  0  0  3  0  0  0  0  0  0
  160.9760  203.8000  152.2480 C   0  0  0  0  0  3  0  0  0  0  0  0
  161.6790  205.1020  152.6220 C   0  0  0  0  0  3  0  0  0  0  0  0
  160.8300  206.3440  153.1420 C   0  0  0  0  0  2  0  0  0  0  0  0
  161.0650  205.3240  154.1010 C   0  0  0  0  0  2  0  0  0  0  0  0
  1  4  2  0  0  0  0
  2  3  2  0  0  0  0
  2  5  1  0  0  0  0
  4  2  1  0  0  0  0
  5  6  1  1  0  0  0
  6  7  1  0  0  0  0
  7  9  2  0  0  0  0
  7  8  1  0  0  0  0
 10 19  1  1  0  0  0
 10  5  1  0  0  0  0
 10 14  1  0  0  0  0
 11 13  1  0  0  0  0
 11 15  1  0  0  0  0
 12 15  2  0  0  0  0
 14 11  2  0  0  0  0
 16 12  1  0  0  0  0
 17 16  1  0  0  0  0
 18 14  1  0  0  0  0
 18 16  2  0  0  0  0
 20 23  1  6  0  0  0
 20 19  1  0  0  0  0
 21 22  1  0  0  0  0
 21 20  1  0  0  0  0
 25 26  2  0  0  0  0
 26 24  1  6  0  0  0
 26 23  1  0  0  0  0
 28 27  1  6  0  0  0
 28  1  1  0  0  0  0
 29 28  1  0  0  0  0
 30 31  1  0  0  0  0
 31 29  1  0  0  0  0
 32 33  1  0  0  0  0
 32 30  1  0  0  0  0
 33 35  1  0  0  0  0
 34 33  1  0  0  0  0
 36 35  1  6  0  0  0
 36 45  1  0  0  0  0
 37 43  1  0  0  0  0
 38 42  1  0  0  0  0
 39 40  2  0  0  0  0
 40 38  1  0  0  0  0
 41 39  1  0  0  0  0
 43 36  1  0  0  0  0
 43 38  2  0  0  0  0
 44 37  2  0  0  0  0
 44 39  1  0  0  0  0
 45 47  1  0  0  0  0
 46 47  2  0  0  0  0
 47 48  1  0  0  0  0
 48 49  2  0  0  0  0
 49 50  1  0  0  0  0
 50 51  1  0  0  0  0
 50 52  1  0  0  0  0
 51 52  1  0  0  0  0
M  END
>  <MODEL>
3

>  <REMARK>
 VINA RESULT:      -4.8      6.112     11.270
  Name = 
  22 active torsions:
  status: ('A' for Active; 'I' for Inactive)
    1  A    between atoms: N_3  and  C_33
    2  A    between atoms: N_3  and  C_46
    3  A    between atoms: C_4  and  C_33
    4  A    between atoms: C_5  and  C_48
    5  A    between atoms: C_6  and  C_21
    6  A    between atoms: C_7  and  C_41
    7  A    between atoms: C_7  and  C_51
    8  A    between atoms: C_8  and  C_23
    9  A    between atoms: S_12  and  C_40
   10  A    between atoms: C_13  and  C_18
   11  A    between atoms: C_13  and  C_25
   12  A    between atoms: N_17  and  C_37
   13  A    between atoms: C_18  and  C_24
   14  A    between atoms: C_18  and  C_40
   15  A    between atoms: C_21  and  C_23
   16  A    between atoms: C_23  and  C_25
   17  A    between atoms: C_25  and  C_31
   18  A    between atoms: C_29  and  C_36
   19  A    between atoms: C_35  and  C_37
   20  A    between atoms: C_37  and  C_46
   21  A    between atoms: C_39  and  N_49
   22  A    between atoms: C_39  and  C_51
                            x       y       z     vdW  Elec       q    Type
                         _______ _______ _______ _____ _____    ______ ____

>  <TORSDO>
F 22

$$$$
=
 OpenBabel11072411333D

 52 54  0  0  1  0  0  0  0  0999 V2000
  160.8340  207.6810  150.6640 C   0  0  0  0  0  2  0  0  0  0  0  0
  161.5540  210.4450  150.9440 C   0  0  0  0  0  0  0  0  0  0  0  0
  162.4150  211.1580  150.3260 O   0  0  0  0  0  0  0  0  0  0  0  0
  161.6480  208.9920  150.7130 N   0  0  0  0  0  2  0  0  0  0  0  0
  160.8510  211.2390  152.0740 C   0  0  1  0  0  3  0  0  0  0  0  0
  161.4620  211.0470  153.5400 C   0  0  0  0  0  2  0  0  0  0  0  0
  161.1620  209.8010  154.3160 C   0  0  0  0  0  0  0  0  0  0  0  0
  161.3280  209.9940  155.6530 O   0  0  0  0  0  1  0  0  0  0  0  0
  160.6450  208.6510  153.8240 O   0  0  0  0  0  0  0  0  0  0  0  0
  159.6800  212.3640  152.1030 C   0  0  1  0  0  3  0  0  0  0  0  0
  159.6570  213.7100  149.8190 C   0  0  0  0  0  0  0  0  0  0  0  0
  157.5440  214.4400  148.9250 C   0  0  0  0  0  3  0  0  0  0  0  0
  161.0320  213.6220  149.5280 O   0  0  0  0  0  1  0  0  0  0  0  0
  159.0200  213.0850  150.9150 C   0  0  0  0  0  0  0  0  0  0  0  0
  158.9360  214.4080  148.8750 C   0  0  0  0  0  3  0  0  0  0  0  0
  156.8770  213.8160  149.9670 C   0  0  0  0  0  0  0  0  0  0  0  0
  155.3880  213.8750  149.9950 C   0  0  0  0  0  1  0  0  0  0  0  0
  157.5610  213.1750  150.9560 C   0  0  0  0  0  3  0  0  0  0  0  0
  158.4370  211.7560  152.8390 C   0  0  0  0  0  2  0  0  0  0  0  0
  158.3550  212.0610  154.3530 C   0  0  1  0  0  3  0  0  0  0  0  0
  158.2080  213.4650  154.7160 C   0  0  0  0  0  2  0  0  0  0  0  0
  159.3040  213.8950  155.5270 O   0  0  0  0  0  1  0  0  0  0  0  0
  157.6560  211.0080  155.3190 C   0  0  0  0  0  2  0  0  0  0  0  0
  155.2790  212.4380  156.8680 C   0  0  0  0  0  1  0  0  0  0  0  0
  155.3560  210.1870  155.2710 O   0  0  0  0  0  0  0  0  0  0  0  0
  155.9470  211.5380  155.3700 S   0  0  2  0  0  0  0  0  0  0  0  0
  162.9190  206.9700  151.4310 C   0  0  0  0  0  1  0  0  0  0  0  0
  161.5670  206.3590  151.0000 C   0  0  1  0  0  3  0  0  0  0  0  0
  160.9120  205.4010  152.0960 C   0  0  0  0  0  2  0  0  0  0  0  0
  161.5910  202.9830  151.6200 C   0  0  0  0  0  2  0  0  0  0  0  0
  160.6840  203.9620  151.6890 C   0  0  0  0  0  2  0  0  0  0  0  0
  160.9880  201.6460  151.4630 C   0  0  0  0  0  2  0  0  0  0  0  0
  161.0620  201.2790  150.0600 N   0  0  0  0  0  0  0  0  0  0  0  0
  161.0130  199.8060  149.9330 C   0  0  0  0  0  1  0  0  0  0  0  0
  160.0170  201.9120  149.2620 C   0  0  0  0  0  2  0  0  0  0  0  0
  160.2290  202.3500  147.8590 C   0  0  2  0  0  3  0  0  0  0  0  0
  161.5530  200.3750  147.3470 C   0  0  0  0  0  3  0  0  0  0  0  0
  160.0490  201.0330  145.6090 C   0  0  0  0  0  0  0  0  0  0  0  0
  161.2310  198.8540  145.3840 C   0  0  0  0  0  0  0  0  0  0  0  0
  160.3650  199.7980  144.8390 C   0  0  0  0  0  3  0  0  0  0  0  0
  161.4810  197.7140  144.7000 O   0  0  0  0  0  1  0  0  0  0  0  0
  159.3500  201.9720  145.0830 O   0  0  0  0  0  1  0  0  0  0  0  0
  160.5750  201.1440  146.9580 C   0  0  0  0  0  0  0  0  0  0  0  0
  161.9420  199.0480  146.6690 C   0  0  0  0  0  3  0  0  0  0  0  0
  161.4050  203.3080  147.8500 N   0  0  0  0  0  2  0  0  0  0  0  0
  160.4360  205.3480  148.1610 O   0  0  0  0  0  0  0  0  0  0  0  0
  161.4280  204.6810  147.8300 C   0  0  0  0  0  0  0  0  0  0  0  0
  162.5300  205.3880  147.1950 C   0  0  0  0  0  3  0  0  0  0  0  0
  162.8290  205.4730  145.8710 C   0  0  0  0  0  3  0  0  0  0  0  0
  162.0980  204.8850  144.6670 C   0  0  0  0  0  3  0  0  0  0  0  0
  160.5080  204.8060  144.6620 C   0  0  0  0  0  2  0  0  0  0  0  0
  161.0540  206.0840  144.3750 C   0  0  0  0  0  2  0  0  0  0  0  0
  1  4  1  0  0  0  0
  1 28  1  0  0  0  0
  2  5  1  0  0  0  0
  3  2  2  0  0  0  0
  4  2  1  0  0  0  0
  5 10  1  0  0  0  0
  5  6  1  6  0  0  0
  6  7  1  0  0  0  0
  7  8  1  0  0  0  0
  9  7  2  0  0  0  0
 10 19  1  6  0  0  0
 11 14  1  0  0  0  0
 12 16  2  0  0  0  0
 13 11  1  0  0  0  0
 14 18  2  0  0  0  0
 14 10  1  0  0  0  0
 15 12  1  0  0  0  0
 15 11  2  0  0  0  0
 16 17  1  0  0  0  0
 16 18  1  0  0  0  0
 20 19  1  6  0  0  0
 20 21  1  0  0  0  0
 20 23  1  0  0  0  0
 21 22  1  0  0  0  0
 23 26  1  0  0  0  0
 25 26  2  0  0  0  0
 26 24  1  1  0  0  0
 28 27  1  1  0  0  0
 28 29  1  0  0  0  0
 30 31  1  0  0  0  0
 31 29  1  0  0  0  0
 32 30  1  0  0  0  0
 33 32  1  0  0  0  0
 34 33  1  0  0  0  0
 35 33  1  0  0  0  0
 36 35  1  1  0  0  0
 38 43  2  0  0  0  0
 39 44  1  0  0  0  0
 40 39  2  0  0  0  0
 40 38  1  0  0  0  0
 41 39  1  0  0  0  0
 42 38  1  0  0  0  0
 43 37  1  0  0  0  0
 43 36  1  0  0  0  0
 44 37  2  0  0  0  0
 45 36  1  0  0  0  0
 47 45  1  0  0  0  0
 47 46  2  0  0  0  0
 48 47  1  0  0  0  0
 49 48  2  0  0  0  0
 50 49  1  0  0  0  0
 51 50  1  0  0  0  0
 52 51  1  0  0  0  0
 52 50  1  0  0  0  0
M  END
>  <MODEL>
4

>  <REMARK>
 VINA RESULT:      -4.5      6.727     11.168
  Name = 
  22 active torsions:
  status: ('A' for Active; 'I' for Inactive)
    1  A    between atoms: N_3  and  C_33
    2  A    between atoms: N_3  and  C_46
    3  A    between atoms: C_4  and  C_33
    4  A    between atoms: C_5  and  C_48
    5  A    between atoms: C_6  and  C_21
    6  A    between atoms: C_7  and  C_41
    7  A    between atoms: C_7  and  C_51
    8  A    between atoms: C_8  and  C_23
    9  A    between atoms: S_12  and  C_40
   10  A    between atoms: C_13  and  C_18
   11  A    between atoms: C_13  and  C_25
   12  A    between atoms: N_17  and  C_37
   13  A    between atoms: C_18  and  C_24
   14  A    between atoms: C_18  and  C_40
   15  A    between atoms: C_21  and  C_23
   16  A    between atoms: C_23  and  C_25
   17  A    between atoms: C_25  and  C_31
   18  A    between atoms: C_29  and  C_36
   19  A    between atoms: C_35  and  C_37
   20  A    between atoms: C_37  and  C_46
   21  A    between atoms: C_39  and  N_49
   22  A    between atoms: C_39  and  C_51
                            x       y       z     vdW  Elec       q    Type
                         _______ _______ _______ _____ _____    ______ ____

>  <TORSDO>
F 22

$$$$
=
 OpenBabel11072411333D

 52 54  0  0  1  0  0  0  0  0999 V2000
  161.5480  209.8160  150.6960 C   0  0  0  0  0  3  0  0  0  0  0  0
  161.6110  210.3890  153.5080 C   0  0  0  0  0  0  0  0  0  0  0  0
  162.5880  210.5670  154.3100 O   0  0  0  0  0  0  0  0  0  0  0  0
  161.9650  209.8490  152.1820 N   0  0  0  0  0  0  0  0  0  0  0  0
  160.2460  210.4340  154.2420 C   0  0  1  0  0  3  0  0  0  0  0  0
  160.0770  209.4050  155.4550 C   0  0  0  0  0  2  0  0  0  0  0  0
  160.6590  208.0280  155.3530 C   0  0  0  0  0  0  0  0  0  0  0  0
  161.1130  207.5880  156.5580 O   0  0  0  0  0  1  0  0  0  0  0  0
  160.6280  207.2210  154.2680 O   0  0  0  0  0  0  0  0  0  0  0  0
  158.9480  211.4050  154.1520 C   0  0  1  0  0  3  0  0  0  0  0  0
  158.0520  212.7150  156.2750 C   0  0  0  0  0  0  0  0  0  0  0  0
  155.9370  212.0710  157.2270 C   0  0  0  0  0  3  0  0  0  0  0  0
  159.0710  213.6840  156.3500 O   0  0  0  0  0  1  0  0  0  0  0  0
  157.9310  211.7440  155.2550 C   0  0  0  0  0  0  0  0  0  0  0  0
  157.0980  212.8400  157.2610 C   0  0  0  0  0  3  0  0  0  0  0  0
  155.7640  211.1270  156.2280 C   0  0  0  0  0  0  0  0  0  0  0  0
  154.5140  210.3150  156.2240 C   0  0  0  0  0  1  0  0  0  0  0  0
  156.7180  210.9270  155.2760 C   0  0  0  0  0  3  0  0  0  0  0  0
  159.4350  212.8300  153.7180 C   0  0  0  0  0  2  0  0  0  0  0  0
  158.6700  213.4520  152.5260 C   0  0  1  0  0  3  0  0  0  0  0  0
  157.2790  213.8100  152.7760 C   0  0  0  0  0  2  0  0  0  0  0  0
  156.5950  214.0660  151.5470 O   0  0  0  0  0  1  0  0  0  0  0  0
  159.4580  214.3700  151.4930 C   0  0  0  0  0  2  0  0  0  0  0  0
  161.1700  213.1550  149.1080 C   0  0  0  0  0  1  0  0  0  0  0  0
  158.6140  214.1930  149.2070 O   0  0  0  0  0  0  0  0  0  0  0  0
  159.5460  213.3720  150.0090 S   0  0  2  0  0  0  0  0  0  0  0  0
  162.5220  207.7050  150.8810 C   0  0  0  0  0  1  0  0  0  0  0  0
  162.1930  208.7440  149.7850 C   0  0  1  0  0  3  0  0  0  0  0  0
  161.3180  208.1600  148.5840 C   0  0  0  0  0  3  0  0  0  0  0  0
  161.5270  206.7050  146.4930 C   0  0  0  0  0  2  0  0  0  0  0  0
  162.0470  207.3180  147.5600 C   0  0  0  0  0  3  0  0  0  0  0  0
  162.5510  206.2080  145.5550 C   0  0  0  0  0  2  0  0  0  0  0  0
  162.6980  204.7790  145.7620 N   0  0  0  0  0  0  0  0  0  0  0  0
  164.0970  204.3820  145.4860 C   0  0  0  0  0  1  0  0  0  0  0  0
  162.2870  204.3620  147.0990 C   0  0  0  0  0  2  0  0  0  0  0  0
  160.9660  203.7460  147.3800 C   0  0  2  0  0  3  0  0  0  0  0  0
  160.7440  202.0160  149.0740 C   0  0  0  0  0  3  0  0  0  0  0  0
  160.6580  204.2470  149.9270 C   0  0  0  0  0  0  0  0  0  0  0  0
  160.7800  202.3670  151.5530 C   0  0  0  0  0  0  0  0  0  0  0  0
  160.6710  203.7350  151.3260 C   0  0  0  0  0  3  0  0  0  0  0  0
  160.8340  201.9100  152.8260 O   0  0  0  0  0  1  0  0  0  0  0  0
  160.4410  205.4890  149.6850 O   0  0  0  0  0  1  0  0  0  0  0  0
  160.8780  203.2930  148.8540 C   0  0  0  0  0  0  0  0  0  0  0  0
  160.7950  201.3590  150.4670 C   0  0  0  0  0  3  0  0  0  0  0  0
  160.8320  202.5220  146.4940 N   0  0  0  0  0  2  0  0  0  0  0  0
  160.2100  203.3860  144.4780 O   0  0  0  0  0  0  0  0  0  0  0  0
  160.3280  202.4010  145.2220 C   0  0  0  0  0  0  0  0  0  0  0  0
  159.6970  201.1600  144.7980 C   0  0  0  0  0  3  0  0  0  0  0  0
  160.1600  199.8880  144.9300 C   0  0  0  0  0  3  0  0  0  0  0  0
  161.4480  199.3810  145.5750 C   0  0  0  0  0  3  0  0  0  0  0  0
  161.4710  197.9630  146.2990 C   0  0  0  0  0  2  0  0  0  0  0  0
  161.5400  197.9240  144.8820 C   0  0  0  0  0  2  0  0  0  0  0  0
  1  4  2  0  0  0  0
  2  5  1  0  0  0  0
  2  3  2  0  0  0  0
  4  2  1  0  0  0  0
  5  6  1  1  0  0  0
  7  6  1  0  0  0  0
  7  8  1  0  0  0  0
  9  7  2  0  0  0  0
 10 19  1  1  0  0  0
 10  5  1  0  0  0  0
 10 14  1  0  0  0  0
 11 13  1  0  0  0  0
 11 15  1  0  0  0  0
 12 15  2  0  0  0  0
 14 18  1  0  0  0  0
 14 11  2  0  0  0  0
 16 12  1  0  0  0  0
 17 16  1  0  0  0  0
 18 16  2  0  0  0  0
 20 23  1  1  0  0  0
 20 21  1  0  0  0  0
 20 19  1  0  0  0  0
 22 21  1  0  0  0  0
 25 26  2  0  0  0  0
 26 24  1  6  0  0  0
 26 23  1  0  0  0  0
 28  1  1  0  0  0  0
 28 27  1  1  0  0  0
 29 28  1  0  0  0  0
 30 31  1  0  0  0  0
 31 29  2  0  0  0  0
 32 33  1  0  0  0  0
 32 30  1  0  0  0  0
 33 35  1  0  0  0  0
 34 33  1  0  0  0  0
 36 35  1  1  0  0  0
 36 43  1  0  0  0  0
 37 44  1  0  0  0  0
 38 40  2  0  0  0  0
 39 41  1  0  0  0  0
 40 39  1  0  0  0  0
 42 38  1  0  0  0  0
 43 37  2  0  0  0  0
 43 38  1  0  0  0  0
 44 39  2  0  0  0  0
 45 36  1  0  0  0  0
 46 47  2  0  0  0  0
 47 45  1  0  0  0  0
 48 49  2  0  0  0  0
 48 47  1  0  0  0  0
 49 50  1  0  0  0  0
 50 51  1  0  0  0  0
 52 50  1  0  0  0  0
 52 51  1  0  0  0  0
M  END
>  <MODEL>
5

>  <REMARK>
 VINA RESULT:      -4.3      6.870     11.012
  Name = 
  22 active torsions:
  status: ('A' for Active; 'I' for Inactive)
    1  A    between atoms: N_3  and  C_33
    2  A    between atoms: N_3  and  C_46
    3  A    between atoms: C_4  and  C_33
    4  A    between atoms: C_5  and  C_48
    5  A    between atoms: C_6  and  C_21
    6  A    between atoms: C_7  and  C_41
    7  A    between atoms: C_7  and  C_51
    8  A    between atoms: C_8  and  C_23
    9  A    between atoms: S_12  and  C_40
   10  A    between atoms: C_13  and  C_18
   11  A    between atoms: C_13  and  C_25
   12  A    between atoms: N_17  and  C_37
   13  A    between atoms: C_18  and  C_24
   14  A    between atoms: C_18  and  C_40
   15  A    between atoms: C_21  and  C_23
   16  A    between atoms: C_23  and  C_25
   17  A    between atoms: C_25  and  C_31
   18  A    between atoms: C_29  and  C_36
   19  A    between atoms: C_35  and  C_37
   20  A    between atoms: C_37  and  C_46
   21  A    between atoms: C_39  and  N_49
   22  A    between atoms: C_39  and  C_51
                            x       y       z     vdW  Elec       q    Type
                         _______ _______ _______ _____ _____    ______ ____

>  <TORSDO>
F 22

$$$$
=
 OpenBabel11072411333D

 52 54  0  0  1  0  0  0  0  0999 V2000
  160.7840  207.1990  151.7050 C   0  0  0  0  0  2  0  0  0  0  0  0
  161.4470  209.9660  151.3320 C   0  0  0  0  0  0  0  0  0  0  0  0
  162.2110  210.5440  150.4870 O   0  0  0  0  0  0  0  0  0  0  0  0
  161.5580  208.4980  151.3920 N   0  0  0  0  0  2  0  0  0  0  0  0
  160.8520  210.9710  152.3520 C   0  0  1  0  0  3  0  0  0  0  0  0
  161.4830  210.9230  153.8210 C   0  0  0  0  0  2  0  0  0  0  0  0
  160.9800  209.9250  154.8190 C   0  0  0  0  0  0  0  0  0  0  0  0
  160.0130  209.1300  154.2830 O   0  0  0  0  0  0  0  0  0  0  0  0
  161.4850  209.6960  156.0520 O   0  0  0  0  0  1  0  0  0  0  0  0
  159.7910  212.1950  152.2420 C   0  0  1  0  0  3  0  0  0  0  0  0
  159.9820  213.3450  149.8620 C   0  0  0  0  0  0  0  0  0  0  0  0
  157.9850  214.2000  148.8230 C   0  0  0  0  0  3  0  0  0  0  0  0
  161.3510  213.1010  149.6370 O   0  0  0  0  0  1  0  0  0  0  0  0
  159.2480  212.8760  150.9750 C   0  0  0  0  0  0  0  0  0  0  0  0
  159.3680  214.0300  148.8360 C   0  0  0  0  0  3  0  0  0  0  0  0
  157.2240  213.7310  149.8810 C   0  0  0  0  0  0  0  0  0  0  0  0
  155.7470  213.9360  149.8410 C   0  0  0  0  0  1  0  0  0  0  0  0
  157.8040  213.1110  150.9460 C   0  0  0  0  0  3  0  0  0  0  0  0
  158.4690  211.7610  152.9630 C   0  0  0  0  0  2  0  0  0  0  0  0
  158.0790  212.6160  154.1920 C   0  0  1  0  0  3  0  0  0  0  0  0
  158.9100  213.7860  154.4480 C   0  0  0  0  0  2  0  0  0  0  0  0
  159.7830  213.5530  155.5560 O   0  0  0  0  0  1  0  0  0  0  0  0
  156.5450  212.7430  154.5920 C   0  0  0  0  0  2  0  0  0  0  0  0
  157.9400  211.2620  157.0330 C   0  0  0  0  0  1  0  0  0  0  0  0
  155.7760  210.5900  155.4560 O   0  0  0  0  0  0  0  0  0  0  0  0
  156.4080  211.7690  156.0880 S   0  0  2  0  0  0  0  0  0  0  0  0
  162.6720  206.6940  152.9780 C   0  0  0  0  0  1  0  0  0  0  0  0
  161.5980  205.9580  152.1470 C   0  0  1  0  0  3  0  0  0  0  0  0
  160.8320  204.8120  152.9520 C   0  0  0  0  0  2  0  0  0  0  0  0
  161.4180  202.6260  151.7650 C   0  0  0  0  0  2  0  0  0  0  0  0
  160.5380  203.5340  152.1980 C   0  0  0  0  0  2  0  0  0  0  0  0
  160.7830  201.3710  151.3190 C   0  0  0  0  0  2  0  0  0  0  0  0
  160.8930  201.2980  149.8740 N   0  0  0  0  0  0  0  0  0  0  0  0
  159.6000  201.6770  149.2620 C   0  0  0  0  0  1  0  0  0  0  0  0
  161.9830  202.1170  149.3540 C   0  0  0  0  0  2  0  0  0  0  0  0
  162.0460  202.5720  147.9420 C   0  0  2  0  0  3  0  0  0  0  0  0
  160.8970  204.6120  148.6030 C   0  0  0  0  0  3  0  0  0  0  0  0
  162.4190  204.8830  146.7800 C   0  0  0  0  0  0  0  0  0  0  0  0
  161.4160  206.9230  147.7920 C   0  0  0  0  0  0  0  0  0  0  0  0
  162.2300  206.3610  146.8140 C   0  0  0  0  0  3  0  0  0  0  0  0
  161.2820  208.2690  147.8460 O   0  0  0  0  0  1  0  0  0  0  0  0
  163.0680  204.3270  145.8210 O   0  0  0  0  0  1  0  0  0  0  0  0
  161.8300  204.0990  147.8510 C   0  0  0  0  0  0  0  0  0  0  0  0
  160.6390  206.1210  148.7660 C   0  0  0  0  0  3  0  0  0  0  0  0
  160.9240  201.8840  147.1870 N   0  0  0  0  0  2  0  0  0  0  0  0
  161.7810  199.8250  146.7130 O   0  0  0  0  0  0  0  0  0  0  0  0
  160.9150  200.6900  146.5090 C   0  0  0  0  0  0  0  0  0  0  0  0
  160.0350  200.5010  145.3650 C   0  0  0  0  0  3  0  0  0  0  0  0
  159.5050  201.4450  144.5420 C   0  0  0  0  0  3  0  0  0  0  0  0
  159.6870  202.9610  144.5520 C   0  0  0  0  0  3  0  0  0  0  0  0
  158.9950  203.8530  143.4290 C   0  0  0  0  0  2  0  0  0  0  0  0
  158.1380  203.4180  144.4740 C   0  0  0  0  0  2  0  0  0  0  0  0
  1 28  1  0  0  0  0
  2  4  1  0  0  0  0
  2  5  1  0  0  0  0
  3  2  2  0  0  0  0
  4  1  1  0  0  0  0
  5  6  1  6  0  0  0
  6  7  1  0  0  0  0
  7  9  1  0  0  0  0
  8  7  2  0  0  0  0
 10  5  1  0  0  0  0
 10 19  1  6  0  0  0
 11 14  1  0  0  0  0
 12 15  1  0  0  0  0
 12 16  2  0  0  0  0
 13 11  1  0  0  0  0
 14 10  1  0  0  0  0
 15 11  2  0  0  0  0
 16 18  1  0  0  0  0
 17 16  1  0  0  0  0
 18 14  2  0  0  0  0
 20 19  1  6  0  0  0
 20 21  1  0  0  0  0
 20 23  1  0  0  0  0
 21 22  1  0  0  0  0
 23 26  1  0  0  0  0
 25 26  2  0  0  0  0
 26 24  1  6  0  0  0
 28 29  1  0  0  0  0
 28 27  1  1  0  0  0
 30 31  1  0  0  0  0
 31 29  1  0  0  0  0
 32 30  1  0  0  0  0
 33 32  1  0  0  0  0
 34 33  1  0  0  0  0
 35 33  1  0  0  0  0
 36 35  1  1  0  0  0
 37 44  1  0  0  0  0
 38 40  2  0  0  0  0
 38 43  1  0  0  0  0
 39 41  1  0  0  0  0
 39 44  2  0  0  0  0
 40 39  1  0  0  0  0
 42 38  1  0  0  0  0
 43 36  1  0  0  0  0
 43 37  2  0  0  0  0
 45 36  1  0  0  0  0
 47 46  2  0  0  0  0
 47 45  1  0  0  0  0
 48 47  1  0  0  0  0
 49 50  1  0  0  0  0
 49 48  2  0  0  0  0
 51 52  1  0  0  0  0
 51 50  1  0  0  0  0
 52 50  1  0  0  0  0
M  END
>  <MODEL>
6

>  <REMARK>
 VINA RESULT:      -4.1      6.978     10.695
  Name = 
  22 active torsions:
  status: ('A' for Active; 'I' for Inactive)
    1  A    between atoms: N_3  and  C_33
    2  A    between atoms: N_3  and  C_46
    3  A    between atoms: C_4  and  C_33
    4  A    between atoms: C_5  and  C_48
    5  A    between atoms: C_6  and  C_21
    6  A    between atoms: C_7  and  C_41
    7  A    between atoms: C_7  and  C_51
    8  A    between atoms: C_8  and  C_23
    9  A    between atoms: S_12  and  C_40
   10  A    between atoms: C_13  and  C_18
   11  A    between atoms: C_13  and  C_25
   12  A    between atoms: N_17  and  C_37
   13  A    between atoms: C_18  and  C_24
   14  A    between atoms: C_18  and  C_40
   15  A    between atoms: C_21  and  C_23
   16  A    between atoms: C_23  and  C_25
   17  A    between atoms: C_25  and  C_31
   18  A    between atoms: C_29  and  C_36
   19  A    between atoms: C_35  and  C_37
   20  A    between atoms: C_37  and  C_46
   21  A    between atoms: C_39  and  N_49
   22  A    between atoms: C_39  and  C_51
                            x       y       z     vdW  Elec       q    Type
                         _______ _______ _______ _____ _____    ______ ____

>  <TORSDO>
F 22

$$$$
=
 OpenBabel11072411333D

 52 54  0  0  1  0  0  0  0  0999 V2000
  161.9190  204.1720  147.2860 C   0  0  0  0  0  3  0  0  0  0  0  0
  160.7410  205.7510  149.3740 C   0  0  0  0  0  0  0  0  0  0  0  0
  159.5520  206.1910  149.5290 O   0  0  0  0  0  0  0  0  0  0  0  0
  161.0470  205.1970  148.0420 N   0  0  0  0  0  0  0  0  0  0  0  0
  161.6890  206.2370  150.5010 C   0  0  1  0  0  3  0  0  0  0  0  0
  162.2230  205.1030  151.4950 C   0  0  0  0  0  2  0  0  0  0  0  0
  161.5080  203.7890  151.5810 C   0  0  0  0  0  0  0  0  0  0  0  0
  160.2380  203.9420  152.0430 O   0  0  0  0  0  1  0  0  0  0  0  0
  161.9620  202.5960  151.1310 O   0  0  0  0  0  0  0  0  0  0  0  0
  162.3990  207.6560  150.8430 C   0  0  1  0  0  3  0  0  0  0  0  0
  162.3340  209.4700  148.9110 C   0  0  0  0  0  0  0  0  0  0  0  0
  161.5760  211.6940  149.4330 C   0  0  0  0  0  3  0  0  0  0  0  0
  162.7070  208.6300  147.8440 O   0  0  0  0  0  1  0  0  0  0  0  0
  162.1070  209.0400  150.2380 C   0  0  0  0  0  0  0  0  0  0  0  0
  162.1150  210.7770  148.5350 C   0  0  0  0  0  3  0  0  0  0  0  0
  161.3120  211.3080  150.7380 C   0  0  0  0  0  0  0  0  0  0  0  0
  160.7410  212.3150  151.6770 C   0  0  0  0  0  1  0  0  0  0  0  0
  161.5800  210.0420  151.1640 C   0  0  0  0  0  3  0  0  0  0  0  0
  162.2210  207.9340  152.3750 C   0  0  0  0  0  2  0  0  0  0  0  0
  160.7720  207.8080  152.9030 C   0  0  1  0  0  3  0  0  0  0  0  0
  160.5110  206.6820  153.7910 C   0  0  0  0  0  2  0  0  0  0  0  0
  161.5870  206.5070  154.7170 O   0  0  0  0  0  1  0  0  0  0  0  0
  159.9280  209.1280  153.1750 C   0  0  0  0  0  2  0  0  0  0  0  0
  159.3810  210.7860  155.8300 C   0  0  0  0  0  1  0  0  0  0  0  0
  161.6780  210.3540  154.3600 O   0  0  0  0  0  0  0  0  0  0  0  0
  160.4560  209.6490  154.8040 S   0  0  2  0  0  0  0  0  0  0  0  0
  161.0160  203.1000  145.4220 C   0  0  0  0  0  1  0  0  0  0  0  0
  161.9770  204.2670  145.7420 C   0  0  1  0  0  3  0  0  0  0  0  0
  161.5610  205.6500  145.0630 C   0  0  0  0  0  2  0  0  0  0  0  0
  161.8470  206.4590  142.6550 C   0  0  0  0  0  2  0  0  0  0  0  0
  161.3310  205.6300  143.5680 C   0  0  0  0  0  2  0  0  0  0  0  0
  161.6470  205.9910  141.2710 C   0  0  0  0  0  2  0  0  0  0  0  0
  162.3430  206.9040  140.3810 N   0  0  0  0  0  0  0  0  0  0  0  0
  162.7060  206.1950  139.1340 C   0  0  0  0  0  1  0  0  0  0  0  0
  161.5690  208.1080  140.0980 C   0  0  0  0  0  2  0  0  0  0  0  0
  161.9640  209.0940  139.0610 C   0  0  2  0  0  3  0  0  0  0  0  0
  161.6650  210.7070  140.8560 C   0  0  0  0  0  3  0  0  0  0  0  0
  162.7560  211.5800  138.9170 C   0  0  0  0  0  0  0  0  0  0  0  0
  162.6690  212.9980  140.9600 C   0  0  0  0  0  0  0  0  0  0  0  0
  163.0370  212.8600  139.6260 C   0  0  0  0  0  3  0  0  0  0  0  0
  162.9650  214.1460  141.6120 O   0  0  0  0  0  1  0  0  0  0  0  0
  162.9760  211.4660  137.6580 O   0  0  0  0  0  1  0  0  0  0  0  0
  162.2070  210.4820  139.6930 C   0  0  0  0  0  0  0  0  0  0  0  0
  161.9190  211.9630  141.7100 C   0  0  0  0  0  3  0  0  0  0  0  0
  160.8140  209.2110  138.0770 N   0  0  0  0  0  2  0  0  0  0  0  0
  159.0520  209.8310  139.3840 O   0  0  0  0  0  0  0  0  0  0  0  0
  159.4720  209.3930  138.3020 C   0  0  0  0  0  0  0  0  0  0  0  0
  158.4910  208.8550  137.3700 C   0  0  0  0  0  3  0  0  0  0  0  0
  157.1590  209.1180  137.3010 C   0  0  0  0  0  3  0  0  0  0  0  0
  156.3040  210.0580  138.1470 C   0  0  0  0  0  3  0  0  0  0  0  0
  154.7190  210.0340  138.0080 C   0  0  0  0  0  2  0  0  0  0  0  0
  155.2770  208.9850  138.7850 C   0  0  0  0  0  2  0  0  0  0  0  0
  1  4  2  0  0  0  0
  2  3  2  0  0  0  0
  2  5  1  0  0  0  0
  4  2  1  0  0  0  0
  5 10  1  0  0  0  0
  5  6  1  6  0  0  0
  6  7  1  0  0  0  0
  7  8  1  0  0  0  0
  9  7  2  0  0  0  0
 10 19  1  1  0  0  0
 11 14  1  0  0  0  0
 12 16  2  0  0  0  0
 13 11  1  0  0  0  0
 14 10  1  0  0  0  0
 14 18  2  0  0  0  0
 15 11  2  0  0  0  0
 15 12  1  0  0  0  0
 16 18  1  0  0  0  0
 16 17  1  0  0  0  0
 20 19  1  1  0  0  0
 20 23  1  0  0  0  0
 20 21  1  0  0  0  0
 21 22  1  0  0  0  0
 23 26  1  0  0  0  0
 25 26  2  0  0  0  0
 26 24  1  6  0  0  0
 28 27  1  6  0  0  0
 28  1  1  0  0  0  0
 29 28  1  0  0  0  0
 30 31  1  0  0  0  0
 31 29  1  0  0  0  0
 32 30  1  0  0  0  0
 33 32  1  0  0  0  0
 34 33  1  0  0  0  0
 35 33  1  0  0  0  0
 36 43  1  0  0  0  0
 36 35  1  1  0  0  0
 37 44  1  0  0  0  0
 38 40  2  0  0  0  0
 38 43  1  0  0  0  0
 39 41  1  0  0  0  0
 39 44  2  0  0  0  0
 40 39  1  0  0  0  0
 42 38  1  0  0  0  0
 43 37  2  0  0  0  0
 45 47  1  0  0  0  0
 45 36  1  0  0  0  0
 47 46  2  0  0  0  0
 48 47  1  0  0  0  0
 49 48  2  0  0  0  0
 49 50  1  0  0  0  0
 50 52  1  0  0  0  0
 51 50  1  0  0  0  0
 51 52  1  0  0  0  0
M  END
>  <MODEL>
7

>  <REMARK>
 VINA RESULT:      -4.0      3.245      5.708
  Name = 
  22 active torsions:
  status: ('A' for Active; 'I' for Inactive)
    1  A    between atoms: N_3  and  C_33
    2  A    between atoms: N_3  and  C_46
    3  A    between atoms: C_4  and  C_33
    4  A    between atoms: C_5  and  C_48
    5  A    between atoms: C_6  and  C_21
    6  A    between atoms: C_7  and  C_41
    7  A    between atoms: C_7  and  C_51
    8  A    between atoms: C_8  and  C_23
    9  A    between atoms: S_12  and  C_40
   10  A    between atoms: C_13  and  C_18
   11  A    between atoms: C_13  and  C_25
   12  A    between atoms: N_17  and  C_37
   13  A    between atoms: C_18  and  C_24
   14  A    between atoms: C_18  and  C_40
   15  A    between atoms: C_21  and  C_23
   16  A    between atoms: C_23  and  C_25
   17  A    between atoms: C_25  and  C_31
   18  A    between atoms: C_29  and  C_36
   19  A    between atoms: C_35  and  C_37
   20  A    between atoms: C_37  and  C_46
   21  A    between atoms: C_39  and  N_49
   22  A    between atoms: C_39  and  C_51
                            x       y       z     vdW  Elec       q    Type
                         _______ _______ _______ _____ _____    ______ ____

>  <TORSDO>
F 22

$$$$
=
 OpenBabel11072411333D

 52 54  0  0  1  0  0  0  0  0999 V2000
  160.9820  211.0750  148.6390 C   0  0  0  0  0  2  0  0  0  0  0  0
  162.4080  208.5940  148.4220 C   0  0  0  0  0  0  0  0  0  0  0  0
  163.5350  208.3120  147.8900 O   0  0  0  0  0  0  0  0  0  0  0  0
  161.8700  209.9300  148.1070 N   0  0  0  0  0  2  0  0  0  0  0  0
  161.6990  207.3300  148.9730 C   0  0  1  0  0  3  0  0  0  0  0  0
  160.9580  206.4210  147.8850 C   0  0  0  0  0  2  0  0  0  0  0  0
  161.7140  205.3380  147.1770 C   0  0  0  0  0  0  0  0  0  0  0  0
  160.8930  204.3170  146.8090 O   0  0  0  0  0  1  0  0  0  0  0  0
  163.0100  205.3810  146.7940 O   0  0  0  0  0  0  0  0  0  0  0  0
  161.6400  206.6140  150.4280 C   0  0  1  0  0  3  0  0  0  0  0  0
  161.6390  206.7170  153.0770 C   0  0  0  0  0  0  0  0  0  0  0  0
  160.6540  208.6280  154.1630 C   0  0  0  0  0  3  0  0  0  0  0  0
  162.3850  205.5470  153.3180 O   0  0  0  0  0  1  0  0  0  0  0  0
  161.3690  207.2570  151.7990 C   0  0  0  0  0  0  0  0  0  0  0  0
  161.2480  207.3700  154.2270 C   0  0  0  0  0  3  0  0  0  0  0  0
  160.3960  209.2060  152.9300 C   0  0  0  0  0  0  0  0  0  0  0  0
  159.7520  210.5510  152.8960 C   0  0  0  0  0  1  0  0  0  0  0  0
  160.7060  208.5610  151.7710 C   0  0  0  0  0  3  0  0  0  0  0  0
  160.5430  205.4960  150.3780 C   0  0  0  0  0  2  0  0  0  0  0  0
  160.9890  204.1110  150.9040 C   0  0  1  0  0  3  0  0  0  0  0  0
  160.0550  203.4340  151.7960 C   0  0  0  0  0  2  0  0  0  0  0  0
  160.6450  202.2520  152.3420 O   0  0  0  0  0  1  0  0  0  0  0  0
  161.8730  203.1750  149.9700 C   0  0  0  0  0  2  0  0  0  0  0  0
  161.3440  200.4610  148.4050 C   0  0  0  0  0  1  0  0  0  0  0  0
  159.8440  202.7640  148.6720 O   0  0  0  0  0  0  0  0  0  0  0  0
  160.7420  201.8870  149.4550 S   0  0  2  0  0  0  0  0  0  0  0  0
  162.5880  212.2260  147.4000 C   0  0  0  0  0  1  0  0  0  0  0  0
  161.2380  212.5030  148.0990 C   0  0  1  0  0  3  0  0  0  0  0  0
  160.1360  213.1480  147.1410 C   0  0  0  0  0  2  0  0  0  0  0  0
  159.8310  213.0190  144.6070 C   0  0  0  0  0  2  0  0  0  0  0  0
  160.5300  213.3530  145.6950 C   0  0  0  0  0  2  0  0  0  0  0  0
  160.3710  213.6100  143.3680 C   0  0  0  0  0  2  0  0  0  0  0  0
  160.8640  212.5310  142.5310 N   0  0  0  0  0  0  0  0  0  0  0  0
  160.4540  211.2320  143.1090 C   0  0  0  0  0  1  0  0  0  0  0  0
  160.4250  212.6540  141.1450 C   0  0  0  0  0  2  0  0  0  0  0  0
  159.6130  213.7950  140.6540 C   0  0  2  0  0  3  0  0  0  0  0  0
  157.2370  214.1000  140.2370 C   0  0  0  0  0  3  0  0  0  0  0  0
  158.0570  211.9160  139.7160 C   0  0  0  0  0  0  0  0  0  0  0  0
  155.7330  212.4950  139.0400 C   0  0  0  0  0  0  0  0  0  0  0  0
  156.7460  211.5450  139.1130 C   0  0  0  0  0  3  0  0  0  0  0  0
  154.5590  212.1660  138.4530 O   0  0  0  0  0  1  0  0  0  0  0  0
  158.9670  211.0310  139.9040 O   0  0  0  0  0  1  0  0  0  0  0  0
  158.2580  213.3020  140.1000 C   0  0  0  0  0  0  0  0  0  0  0  0
  155.8480  213.8550  139.6170 C   0  0  0  0  0  3  0  0  0  0  0  0
  160.3810  214.4530  139.5240 N   0  0  0  0  0  2  0  0  0  0  0  0
  159.7770  213.2410  137.6890 O   0  0  0  0  0  0  0  0  0  0  0  0
  160.5450  214.0600  138.2180 C   0  0  0  0  0  0  0  0  0  0  0  0
  161.7590  214.4060  137.4930 C   0  0  0  0  0  3  0  0  0  0  0  0
  163.0420  214.4020  137.9430 C   0  0  0  0  0  3  0  0  0  0  0  0
  163.5940  214.0160  139.3130 C   0  0  0  0  0  3  0  0  0  0  0  0
  163.5960  212.4910  139.7700 C   0  0  0  0  0  2  0  0  0  0  0  0
  164.6300  212.8580  138.8690 C   0  0  0  0  0  2  0  0  0  0  0  0
  2  5  1  0  0  0  0
  3  2  2  0  0  0  0
  4  2  1  0  0  0  0
  4  1  1  0  0  0  0
  5  6  1  6  0  0  0
  5 10  1  0  0  0  0
  7  6  1  0  0  0  0
  8  7  1  0  0  0  0
  9  7  2  0  0  0  0
 10 19  1  6  0  0  0
 10 14  1  0  0  0  0
 11 13  1  0  0  0  0
 11 15  1  0  0  0  0
 12 15  2  0  0  0  0
 14 11  2  0  0  0  0
 16 12  1  0  0  0  0
 17 16  1  0  0  0  0
 18 14  1  0  0  0  0
 18 16  2  0  0  0  0
 19 20  1  0  0  0  0
 20 23  1  6  0  0  0
 20 21  1  0  0  0  0
 21 22  1  0  0  0  0
 25 26  2  0  0  0  0
 26 24  1  6  0  0  0
 26 23  1  0  0  0  0
 28 27  1  6  0  0  0
 28  1  1  0  0  0  0
 29 28  1  0  0  0  0
 30 31  1  0  0  0  0
 31 29  1  0  0  0  0
 32 30  1  0  0  0  0
 33 34  1  0  0  0  0
 33 32  1  0  0  0  0
 35 33  1  0  0  0  0
 36 35  1  6  0  0  0
 38 42  1  0  0  0  0
 38 43  2  0  0  0  0
 39 40  2  0  0  0  0
 39 44  1  0  0  0  0
 40 38  1  0  0  0  0
 41 39  1  0  0  0  0
 43 37  1  0  0  0  0
 43 36  1  0  0  0  0
 44 37  2  0  0  0  0
 45 36  1  0  0  0  0
 46 47  2  0  0  0  0
 47 45  1  0  0  0  0
 48 49  2  0  0  0  0
 48 47  1  0  0  0  0
 49 50  1  0  0  0  0
 50 51  1  0  0  0  0
 52 50  1  0  0  0  0
 52 51  1  0  0  0  0
M  END
>  <MODEL>
8

>  <REMARK>
 VINA RESULT:      -3.3      1.395      3.967
  Name = 
  22 active torsions:
  status: ('A' for Active; 'I' for Inactive)
    1  A    between atoms: N_3  and  C_33
    2  A    between atoms: N_3  and  C_46
    3  A    between atoms: C_4  and  C_33
    4  A    between atoms: C_5  and  C_48
    5  A    between atoms: C_6  and  C_21
    6  A    between atoms: C_7  and  C_41
    7  A    between atoms: C_7  and  C_51
    8  A    between atoms: C_8  and  C_23
    9  A    between atoms: S_12  and  C_40
   10  A    between atoms: C_13  and  C_18
   11  A    between atoms: C_13  and  C_25
   12  A    between atoms: N_17  and  C_37
   13  A    between atoms: C_18  and  C_24
   14  A    between atoms: C_18  and  C_40
   15  A    between atoms: C_21  and  C_23
   16  A    between atoms: C_23  and  C_25
   17  A    between atoms: C_25  and  C_31
   18  A    between atoms: C_29  and  C_36
   19  A    between atoms: C_35  and  C_37
   20  A    between atoms: C_37  and  C_46
   21  A    between atoms: C_39  and  N_49
   22  A    between atoms: C_39  and  C_51
                            x       y       z     vdW  Elec       q    Type
                         _______ _______ _______ _____ _____    ______ ____

>  <TORSDO>
F 22

$$$$
=
 OpenBabel11072411333D

 52 54  0  0  1  0  0  0  0  0999 V2000
  161.0480  206.0650  153.4110 C   0  0  0  0  0  2  0  0  0  0  0  0
  161.1870  208.9310  153.4520 C   0  0  0  0  0  0  0  0  0  0  0  0
  161.9670  209.7460  152.8540 O   0  0  0  0  0  0  0  0  0  0  0  0
  161.5840  207.5130  153.3990 N   0  0  0  0  0  2  0  0  0  0  0  0
  160.2070  209.6640  154.4050 C   0  0  1  0  0  3  0  0  0  0  0  0
  159.7040  208.8190  155.6660 C   0  0  0  0  0  2  0  0  0  0  0  0
  160.6870  208.0300  156.4770 C   0  0  0  0  0  0  0  0  0  0  0  0
  161.8670  208.6950  156.6130 O   0  0  0  0  0  0  0  0  0  0  0  0
  160.4420  206.8760  157.1380 O   0  0  0  0  0  1  0  0  0  0  0  0
  159.6550  211.1880  154.5010 C   0  0  1  0  0  3  0  0  0  0  0  0
  159.5360  212.3460  152.1190 C   0  0  0  0  0  0  0  0  0  0  0  0
  157.6420  213.7390  151.6000 C   0  0  0  0  0  3  0  0  0  0  0  0
  160.6890  211.7600  151.5600 O   0  0  0  0  0  1  0  0  0  0  0  0
  159.0100  212.0410  153.3950 C   0  0  0  0  0  0  0  0  0  0  0  0
  158.8870  213.2100  151.2650 C   0  0  0  0  0  3  0  0  0  0  0  0
  157.0760  213.4430  152.8300 C   0  0  0  0  0  0  0  0  0  0  0  0
  155.7460  214.0300  153.1610 C   0  0  0  0  0  1  0  0  0  0  0  0
  157.7210  212.6470  153.7280 C   0  0  0  0  0  3  0  0  0  0  0  0
  158.5630  211.2410  155.6230 C   0  0  0  0  0  2  0  0  0  0  0  0
  158.7740  212.3350  156.6960 C   0  0  1  0  0  3  0  0  0  0  0  0
  160.1590  212.6820  156.9920 C   0  0  0  0  0  2  0  0  0  0  0  0
  160.3790  214.0830  156.8090 O   0  0  0  0  0  1  0  0  0  0  0  0
  157.7120  213.5120  156.8230 C   0  0  0  0  0  2  0  0  0  0  0  0
  155.6280  211.1810  156.2580 C   0  0  0  0  0  1  0  0  0  0  0  0
  155.2940  213.8250  156.9810 O   0  0  0  0  0  0  0  0  0  0  0  0
  156.1860  212.6740  157.2380 S   0  0  2  0  0  0  0  0  0  0  0  0
  161.2050  203.7930  152.9070 C   0  0  0  0  0  1  0  0  0  0  0  0
  161.3800  205.1570  152.2020 C   0  0  1  0  0  3  0  0  0  0  0  0
  160.4960  205.3190  150.8820 C   0  0  0  0  0  2  0  0  0  0  0  0
  160.6050  202.8370  150.2840 C   0  0  0  0  0  2  0  0  0  0  0  0
  160.4280  204.1220  149.9610 C   0  0  0  0  0  2  0  0  0  0  0  0
  160.1940  201.9090  149.2120 C   0  0  0  0  0  2  0  0  0  0  0  0
  161.1940  201.9630  148.1610 N   0  0  0  0  0  0  0  0  0  0  0  0
  161.4260  200.6010  147.6320 C   0  0  0  0  0  1  0  0  0  0  0  0
  160.8320  202.8890  147.0930 C   0  0  0  0  0  2  0  0  0  0  0  0
  161.8060  203.8230  146.4720 C   0  0  2  0  0  3  0  0  0  0  0  0
  160.6810  205.8530  147.2000 C   0  0  0  0  0  3  0  0  0  0  0  0
  163.0340  205.8260  147.6180 C   0  0  0  0  0  0  0  0  0  0  0  0
  161.6840  207.6750  148.5930 C   0  0  0  0  0  0  0  0  0  0  0  0
  162.9320  207.0950  148.3910 C   0  0  0  0  0  3  0  0  0  0  0  0
  161.5920  208.8040  149.3330 O   0  0  0  0  0  1  0  0  0  0  0  0
  164.1790  205.3320  147.3160 O   0  0  0  0  0  1  0  0  0  0  0  0
  161.7990  205.1830  147.2030 C   0  0  0  0  0  0  0  0  0  0  0  0
  160.4340  207.1450  148.0000 C   0  0  0  0  0  3  0  0  0  0  0  0
  161.3730  204.0490  145.0360 N   0  0  0  0  0  2  0  0  0  0  0  0
  162.8900  205.5600  144.2510 O   0  0  0  0  0  0  0  0  0  0  0  0
  161.8050  204.9730  144.1160 C   0  0  0  0  0  0  0  0  0  0  0  0
  160.9000  205.4650  143.0880 C   0  0  0  0  0  3  0  0  0  0  0  0
  161.2090  206.0710  141.9100 C   0  0  0  0  0  3  0  0  0  0  0  0
  162.5740  206.3930  141.3070 C   0  0  0  0  0  3  0  0  0  0  0  0
  162.7500  206.4530  139.7260 C   0  0  0  0  0  2  0  0  0  0  0  0
  162.1510  207.5970  140.3150 C   0  0  0  0  0  2  0  0  0  0  0  0
  2  5  1  0  0  0  0
  3  2  2  0  0  0  0
  4  1  1  0  0  0  0
  4  2  1  0  0  0  0
  5 10  1  0  0  0  0
  5  6  1  1  0  0  0
  6  7  1  0  0  0  0
  7  8  2  0  0  0  0
  7  9  1  0  0  0  0
 10 19  1  1  0  0  0
 11 14  1  0  0  0  0
 12 16  2  0  0  0  0
 13 11  1  0  0  0  0
 14 18  2  0  0  0  0
 14 10  1  0  0  0  0
 15 12  1  0  0  0  0
 15 11  2  0  0  0  0
 16 17  1  0  0  0  0
 16 18  1  0  0  0  0
 20 19  1  6  0  0  0
 20 23  1  0  0  0  0
 20 21  1  0  0  0  0
 22 21  1  0  0  0  0
 23 26  1  0  0  0  0
 25 26  2  0  0  0  0
 26 24  1  6  0  0  0
 28 27  1  1  0  0  0
 28  1  1  0  0  0  0
 29 28  1  0  0  0  0
 31 30  1  0  0  0  0
 31 29  1  0  0  0  0
 32 30  1  0  0  0  0
 33 32  1  0  0  0  0
 34 33  1  0  0  0  0
 35 33  1  0  0  0  0
 36 35  1  1  0  0  0
 36 43  1  0  0  0  0
 37 43  2  0  0  0  0
 37 44  1  0  0  0  0
 38 40  2  0  0  0  0
 39 41  1  0  0  0  0
 40 39  1  0  0  0  0
 42 38  1  0  0  0  0
 43 38  1  0  0  0  0
 44 39  2  0  0  0  0
 45 36  1  0  0  0  0
 47 46  2  0  0  0  0
 47 45  1  0  0  0  0
 48 47  1  0  0  0  0
 49 48  2  0  0  0  0
 50 49  1  0  0  0  0
 51 52  1  0  0  0  0
 51 50  1  0  0  0  0
 52 50  1  0  0  0  0
M  END
>  <MODEL>
9

>  <REMARK>
 VINA RESULT:      -3.2      5.889     10.177
  Name = 
  22 active torsions:
  status: ('A' for Active; 'I' for Inactive)
    1  A    between atoms: N_3  and  C_33
    2  A    between atoms: N_3  and  C_46
    3  A    between atoms: C_4  and  C_33
    4  A    between atoms: C_5  and  C_48
    5  A    between atoms: C_6  and  C_21
    6  A    between atoms: C_7  and  C_41
    7  A    between atoms: C_7  and  C_51
    8  A    between atoms: C_8  and  C_23
    9  A    between atoms: S_12  and  C_40
   10  A    between atoms: C_13  and  C_18
   11  A    between atoms: C_13  and  C_25
   12  A    between atoms: N_17  and  C_37
   13  A    between atoms: C_18  and  C_24
   14  A    between atoms: C_18  and  C_40
   15  A    between atoms: C_21  and  C_23
   16  A    between atoms: C_23  and  C_25
   17  A    between atoms: C_25  and  C_31
   18  A    between atoms: C_29  and  C_36
   19  A    between atoms: C_35  and  C_37
   20  A    between atoms: C_37  and  C_46
   21  A    between atoms: C_39  and  N_49
   22  A    between atoms: C_39  and  C_51
                            x       y       z     vdW  Elec       q    Type
                         _______ _______ _______ _____ _____    ______ ____

>  <TORSDO>
F 22

$$$$
