=
 OpenBabel11072413323D

 36 40  0  0  1  0  0  0  0  0999 V2000
  162.1950  205.8980  151.9660 O   0  0  0  0  0  0  0  0  0  0  0  0
  160.9900  208.4800  153.4560 C   0  0  0  0  0  2  0  0  0  0  0  0
  161.0900  210.3930  152.0800 C   0  0  0  0  0  3  0  0  0  0  0  0
  161.9610  208.2920  152.3990 N   0  0  0  0  0  0  0  0  0  0  0  0
  162.2670  209.0590  150.3170 N   0  0  0  0  0  0  0  0  0  0  0  0
  162.4780  207.7190  150.3210 C   0  0  0  0  0  3  0  0  0  0  0  0
  162.2400  207.2490  151.6040 C   0  0  0  0  0  0  0  0  0  0  0  0
  161.9690  209.3460  151.6000 C   0  0  0  0  0  0  0  0  0  0  0  0
  160.5550  209.9100  153.2130 C   0  0  0  0  0  0  0  0  0  0  0  0
  158.5040  212.1180  152.1160 N   0  0  0  0  0  2  0  0  0  0  0  0
  159.1350  211.9460  153.3900 C   0  0  0  0  0  0  0  0  0  0  0  0
  158.2460  213.3780  151.4910 C   0  0  0  0  0  0  0  0  0  0  0  0
  159.3800  212.9220  154.1970 N   0  0  0  0  0  0  0  0  0  0  0  0
  157.5110  213.4140  150.1970 C   0  0  0  0  0  1  0  0  0  0  0  0
  159.4700  210.6150  153.9910 C   0  0  2  0  0  3  0  0  0  0  0  0
  160.3860  210.2800  156.4600 C   0  0  0  0  0  1  0  0  0  0  0  0
  159.8970  212.4120  155.3870 N   0  0  0  0  0  0  0  0  0  0  0  0
  158.6700  214.4520  151.9930 O   0  0  0  0  0  0  0  0  0  0  0  0
  159.9700  211.1260  155.3080 C   0  0  0  0  0  0  0  0  0  0  0  0
  161.3540  202.4550  151.6590 C   0  0  0  0  0  3  0  0  0  0  0  0
  161.4680  204.9050  151.3030 C   0  0  0  0  0  0  0  0  0  0  0  0
  160.7550  203.9950  149.0770 C   0  0  0  0  0  3  0  0  0  0  0  0
  160.8100  203.7880  152.0530 C   0  0  0  0  0  2  0  0  0  0  0  0
  161.3770  204.9890  149.9750 C   0  0  0  0  0  3  0  0  0  0  0  0
  160.6470  202.6670  149.2690 C   0  0  0  0  0  0  0  0  0  0  0  0
  161.2330  201.9640  150.4260 C   0  0  0  0  0  3  0  0  0  0  0  0
  160.0960  201.8480  148.2340 N   0  0  0  0  0  2  0  0  0  0  0  0
  160.8010  201.5220  147.0000 C   0  0  0  0  0  2  0  0  0  0  0  0
  160.3540  202.4470  145.8850 C   0  0  0  0  0  2  0  0  0  0  0  0
  161.5470  203.1270  145.2160 C   0  0  0  0  0  2  0  0  0  0  0  0
  161.5370  204.6400  145.4200 C   0  0  0  0  0  0  0  0  0  0  0  0
  160.1970  205.3370  145.3350 C   0  0  0  0  0  2  0  0  0  0  0  0
  161.1750  205.4080  144.1640 C   0  0  0  0  0  2  0  0  0  0  0  0
  162.5760  205.2970  146.2820 C   0  0  0  0  0  0  0  0  0  0  0  0
  163.8490  204.7460  146.4020 O   0  0  0  0  0  0  0  0  0  0  0  0
  162.3050  206.3690  146.8860 O   0  0  0  0  0  1  0  0  0  0  0  0
  3  9  2  0  0  0  0
  4  2  1  0  0  0  0
  5  6  1  0  0  0  0
  5  8  2  0  0  0  0
  6  7  2  0  0  0  0
  7  1  1  0  0  0  0
  7  4  1  0  0  0  0
  8  3  1  0  0  0  0
  8  4  1  0  0  0  0
  9  2  1  0  0  0  0
 10 11  1  0  0  0  0
 11 15  1  0  0  0  0
 11 13  2  0  0  0  0
 12 18  2  0  0  0  0
 12 10  1  0  0  0  0
 13 17  1  0  0  0  0
 14 12  1  0  0  0  0
 15  9  1  6  0  0  0
 15 19  1  0  0  0  0
 19 17  2  0  0  0  0
 19 16  1  0  0  0  0
 20 23  1  0  0  0  0
 21  1  1  0  0  0  0
 21 23  1  0  0  0  0
 22 25  2  0  0  0  0
 22 24  1  0  0  0  0
 24 21  2  0  0  0  0
 25 26  1  0  0  0  0
 26 20  2  0  0  0  0
 27 25  1  0  0  0  0
 28 27  1  0  0  0  0
 29 28  1  0  0  0  0
 30 31  1  0  0  0  0
 30 29  1  0  0  0  0
 31 34  1  0  0  0  0
 32 31  1  0  0  0  0
 33 32  1  0  0  0  0
 33 31  1  0  0  0  0
 34 35  2  0  0  0  0
 34 36  1  0  0  0  0
M  END
>  <MODEL>
1

>  <REMARK>
 VINA RESULT:      -8.6      0.000      0.000
  Name = 
  9 active torsions:
  status: ('A' for Active; 'I' for Inactive)
    1  A    between atoms: C_2  and  C_5
    2  A    between atoms: C_2  and  C_9
    3  A    between atoms: C_5  and  C_24
    4  A    between atoms: O_7  and  C_13
    5  A    between atoms: O_7  and  C_26
    6  A    between atoms: C_9  and  C_10
    7  A    between atoms: N_12  and  C_24
    8  A    between atoms: N_12  and  C_25
    9  A    between atoms: C_29  and  C_30
                            x       y       z     vdW  Elec       q    Type
                         _______ _______ _______ _____ _____    ______ ____

>  <TORSDO>
F 9

$$$$
=
 OpenBabel11072413323D

 36 40  0  0  1  0  0  0  0  0999 V2000
  162.1070  208.5190  152.5390 O   0  0  0  0  0  0  0  0  0  0  0  0
  160.0830  211.0090  152.3440 C   0  0  0  0  0  2  0  0  0  0  0  0
  159.0760  211.4650  154.4280 C   0  0  0  0  0  3  0  0  0  0  0  0
  160.1770  209.8550  153.2140 N   0  0  0  0  0  0  0  0  0  0  0  0
  160.2430  209.4830  155.4220 N   0  0  0  0  0  0  0  0  0  0  0  0
  161.1890  208.7170  154.8230 C   0  0  0  0  0  3  0  0  0  0  0  0
  161.1700  208.9900  153.4640 C   0  0  0  0  0  0  0  0  0  0  0  0
  159.6600  210.1380  154.3970 C   0  0  0  0  0  0  0  0  0  0  0  0
  159.2680  211.9610  153.1950 C   0  0  0  0  0  0  0  0  0  0  0  0
  156.8850  213.7780  154.3370 N   0  0  0  0  0  2  0  0  0  0  0  0
  157.4900  213.6940  153.0420 C   0  0  0  0  0  0  0  0  0  0  0  0
  155.4930  213.9990  154.5810 C   0  0  0  0  0  0  0  0  0  0  0  0
  156.8690  213.9880  151.9490 N   0  0  0  0  0  0  0  0  0  0  0  0
  155.0120  214.1420  155.9820 C   0  0  0  0  0  1  0  0  0  0  0  0
  158.9360  213.3810  152.8050 C   0  0  2  0  0  3  0  0  0  0  0  0
  160.1200  213.4930  150.4320 C   0  0  0  0  0  1  0  0  0  0  0  0
  157.7610  213.9070  150.8800 N   0  0  0  0  0  0  0  0  0  0  0  0
  154.6640  214.0290  153.6340 O   0  0  0  0  0  0  0  0  0  0  0  0
  158.9260  213.5630  151.3180 C   0  0  0  0  0  0  0  0  0  0  0  0
  160.8090  206.8480  149.6790 C   0  0  0  0  0  3  0  0  0  0  0  0
  161.9940  207.3370  151.8000 C   0  0  0  0  0  0  0  0  0  0  0  0
  161.5680  204.8670  151.8920 C   0  0  0  0  0  3  0  0  0  0  0  0
  162.0700  207.3420  150.3040 C   0  0  0  0  0  2  0  0  0  0  0  0
  161.8190  206.2010  152.4750 C   0  0  0  0  0  3  0  0  0  0  0  0
  160.9620  204.5800  150.7250 C   0  0  0  0  0  0  0  0  0  0  0  0
  160.3600  205.6040  149.8500 C   0  0  0  0  0  3  0  0  0  0  0  0
  160.7220  203.2150  150.3720 N   0  0  0  0  0  2  0  0  0  0  0  0
  160.5870  202.7470  148.9990 C   0  0  0  0  0  2  0  0  0  0  0  0
  161.6420  203.3920  148.1230 C   0  0  0  0  0  2  0  0  0  0  0  0
  161.1710  203.4990  146.6740 C   0  0  0  0  0  2  0  0  0  0  0  0
  161.7860  204.6970  145.9540 C   0  0  0  0  0  0  0  0  0  0  0  0
  163.2920  204.7110  145.8050 C   0  0  0  0  0  2  0  0  0  0  0  0
  162.6190  205.5770  146.8660 C   0  0  0  0  0  2  0  0  0  0  0  0
  161.0060  205.4370  144.9070 C   0  0  0  0  0  0  0  0  0  0  0  0
  161.3880  205.3820  143.5690 O   0  0  0  0  0  0  0  0  0  0  0  0
  159.9850  206.0970  145.2340 O   0  0  0  0  0  1  0  0  0  0  0  0
  1  7  1  0  0  0  0
  2  9  1  0  0  0  0
  2  4  1  0  0  0  0
  4  7  1  0  0  0  0
  4  8  1  0  0  0  0
  6  5  1  0  0  0  0
  7  6  2  0  0  0  0
  8  3  1  0  0  0  0
  8  5  2  0  0  0  0
  9  3  2  0  0  0  0
 10 12  1  0  0  0  0
 11 10  1  0  0  0  0
 12 14  1  0  0  0  0
 13 11  2  0  0  0  0
 15 11  1  0  0  0  0
 15  9  1  6  0  0  0
 16 19  1  0  0  0  0
 17 19  2  0  0  0  0
 17 13  1  0  0  0  0
 18 12  2  0  0  0  0
 19 15  1  0  0  0  0
 20 26  2  0  0  0  0
 20 23  1  0  0  0  0
 21 24  2  0  0  0  0
 21  1  1  0  0  0  0
 22 24  1  0  0  0  0
 23 21  1  0  0  0  0
 25 22  2  0  0  0  0
 26 25  1  0  0  0  0
 27 25  1  0  0  0  0
 28 27  1  0  0  0  0
 29 28  1  0  0  0  0
 30 29  1  0  0  0  0
 31 30  1  0  0  0  0
 31 33  1  0  0  0  0
 32 31  1  0  0  0  0
 32 33  1  0  0  0  0
 34 36  1  0  0  0  0
 34 31  1  0  0  0  0
 35 34  2  0  0  0  0
M  END
>  <MODEL>
2

>  <REMARK>
 VINA RESULT:      -8.3      2.141      3.647
  Name = 
  9 active torsions:
  status: ('A' for Active; 'I' for Inactive)
    1  A    between atoms: C_2  and  C_5
    2  A    between atoms: C_2  and  C_9
    3  A    between atoms: C_5  and  C_24
    4  A    between atoms: O_7  and  C_13
    5  A    between atoms: O_7  and  C_26
    6  A    between atoms: C_9  and  C_10
    7  A    between atoms: N_12  and  C_24
    8  A    between atoms: N_12  and  C_25
    9  A    between atoms: C_29  and  C_30
                            x       y       z     vdW  Elec       q    Type
                         _______ _______ _______ _____ _____    ______ ____

>  <TORSDO>
F 9

$$$$
=
 OpenBabel11072413323D

 36 40  0  0  1  0  0  0  0  0999 V2000
  161.6050  207.9230  151.1050 O   0  0  0  0  0  0  0  0  0  0  0  0
  160.4280  209.0640  153.8700 C   0  0  0  0  0  2  0  0  0  0  0  0
  160.6280  207.4830  155.6090 C   0  0  0  0  0  3  0  0  0  0  0  0
  160.6050  207.7340  153.3260 N   0  0  0  0  0  0  0  0  0  0  0  0
  161.5660  205.8210  153.9850 N   0  0  0  0  0  0  0  0  0  0  0  0
  161.9060  206.0560  152.6930 C   0  0  0  0  0  3  0  0  0  0  0  0
  161.3440  207.2640  152.3110 C   0  0  0  0  0  0  0  0  0  0  0  0
  160.7730  206.8630  154.3060 C   0  0  0  0  0  0  0  0  0  0  0  0
  160.3610  208.7740  155.3550 C   0  0  0  0  0  0  0  0  0  0  0  0
  158.1190  211.0490  155.6370 N   0  0  0  0  0  2  0  0  0  0  0  0
  159.5170  211.0390  155.9460 C   0  0  0  0  0  0  0  0  0  0  0  0
  157.4040  212.1670  155.1030 C   0  0  0  0  0  0  0  0  0  0  0  0
  160.2510  212.1000  155.9430 N   0  0  0  0  0  0  0  0  0  0  0  0
  155.9330  212.0630  154.9020 C   0  0  0  0  0  1  0  0  0  0  0  0
  160.2650  209.8330  156.4270 C   0  0  2  0  0  3  0  0  0  0  0  0
  162.7860  209.8730  157.2590 C   0  0  0  0  0  1  0  0  0  0  0  0
  161.5310  211.7720  156.3880 N   0  0  0  0  0  0  0  0  0  0  0  0
  158.0040  213.2190  154.7590 O   0  0  0  0  0  0  0  0  0  0  0  0
  161.5810  210.5110  156.6610 C   0  0  0  0  0  0  0  0  0  0  0  0
  160.8190  205.0860  149.1070 C   0  0  0  0  0  3  0  0  0  0  0  0
  161.4460  207.3720  149.8290 C   0  0  0  0  0  0  0  0  0  0  0  0
  162.4090  207.1740  147.5220 C   0  0  0  0  0  3  0  0  0  0  0  0
  160.3220  206.4310  149.5210 C   0  0  0  0  0  2  0  0  0  0  0  0
  162.3290  207.7180  148.8920 C   0  0  0  0  0  3  0  0  0  0  0  0
  162.0370  205.9500  147.1000 C   0  0  0  0  0  0  0  0  0  0  0  0
  161.5450  204.8950  148.0060 C   0  0  0  0  0  3  0  0  0  0  0  0
  162.2840  205.5670  145.7450 N   0  0  0  0  0  2  0  0  0  0  0  0
  161.2500  205.5160  144.7190 C   0  0  0  0  0  2  0  0  0  0  0  0
  160.6700  204.1180  144.6320 C   0  0  0  0  0  2  0  0  0  0  0  0
  161.4560  203.1370  145.5000 C   0  0  0  0  0  2  0  0  0  0  0  0
  160.6230  201.9170  145.8890 C   0  0  0  0  0  0  0  0  0  0  0  0
  160.0960  201.0570  144.7620 C   0  0  0  0  0  2  0  0  0  0  0  0
  159.1680  202.0340  145.4800 C   0  0  0  0  0  2  0  0  0  0  0  0
  160.8540  201.2280  147.2020 C   0  0  0  0  0  0  0  0  0  0  0  0
  160.2770  201.7180  148.3710 O   0  0  0  0  0  1  0  0  0  0  0  0
  161.5570  200.1840  147.2490 O   0  0  0  0  0  0  0  0  0  0  0  0
  1  7  1  0  0  0  0
  2  9  1  0  0  0  0
  4  2  1  0  0  0  0
  4  8  1  0  0  0  0
  5  8  2  0  0  0  0
  6  5  1  0  0  0  0
  7  6  2  0  0  0  0
  7  4  1  0  0  0  0
  8  3  1  0  0  0  0
  9  3  2  0  0  0  0
 10 11  1  0  0  0  0
 11 15  1  0  0  0  0
 12 10  1  0  0  0  0
 13 11  2  0  0  0  0
 13 17  1  0  0  0  0
 14 12  1  0  0  0  0
 15  9  1  6  0  0  0
 15 19  1  0  0  0  0
 17 19  2  0  0  0  0
 18 12  2  0  0  0  0
 19 16  1  0  0  0  0
 20 23  1  0  0  0  0
 21  1  1  0  0  0  0
 22 24  1  0  0  0  0
 23 21  1  0  0  0  0
 24 21  2  0  0  0  0
 25 22  2  0  0  0  0
 25 26  1  0  0  0  0
 26 20  2  0  0  0  0
 27 25  1  0  0  0  0
 28 27  1  0  0  0  0
 29 28  1  0  0  0  0
 29 30  1  0  0  0  0
 30 31  1  0  0  0  0
 31 34  1  0  0  0  0
 32 33  1  0  0  0  0
 32 31  1  0  0  0  0
 33 31  1  0  0  0  0
 34 36  2  0  0  0  0
 34 35  1  0  0  0  0
M  END
>  <MODEL>
3

>  <REMARK>
 VINA RESULT:      -8.2      2.561      3.565
  Name = 
  9 active torsions:
  status: ('A' for Active; 'I' for Inactive)
    1  A    between atoms: C_2  and  C_5
    2  A    between atoms: C_2  and  C_9
    3  A    between atoms: C_5  and  C_24
    4  A    between atoms: O_7  and  C_13
    5  A    between atoms: O_7  and  C_26
    6  A    between atoms: C_9  and  C_10
    7  A    between atoms: N_12  and  C_24
    8  A    between atoms: N_12  and  C_25
    9  A    between atoms: C_29  and  C_30
                            x       y       z     vdW  Elec       q    Type
                         _______ _______ _______ _____ _____    ______ ____

>  <TORSDO>
F 9

$$$$
=
 OpenBabel11072413323D

 36 40  0  0  1  0  0  0  0  0999 V2000
  161.9690  205.8810  152.3660 O   0  0  0  0  0  0  0  0  0  0  0  0
  161.5900  208.1830  154.5790 C   0  0  0  0  0  2  0  0  0  0  0  0
  160.7690  210.1740  153.6170 C   0  0  0  0  0  3  0  0  0  0  0  0
  161.8290  208.1910  153.1510 N   0  0  0  0  0  0  0  0  0  0  0  0
  160.8800  209.1200  151.3470 N   0  0  0  0  0  0  0  0  0  0  0  0
  161.1600  207.8220  151.0710 C   0  0  0  0  0  3  0  0  0  0  0  0
  161.7040  207.2460  152.2080 C   0  0  0  0  0  0  0  0  0  0  0  0
  161.3160  209.2840  152.6120 C   0  0  0  0  0  0  0  0  0  0  0  0
  160.9850  209.5560  154.7890 C   0  0  0  0  0  0  0  0  0  0  0  0
  157.9990  210.5290  155.4390 N   0  0  0  0  0  2  0  0  0  0  0  0
  159.2750  210.9630  155.9230 C   0  0  0  0  0  0  0  0  0  0  0  0
  156.8840  211.3870  155.1810 C   0  0  0  0  0  0  0  0  0  0  0  0
  159.5010  212.1590  156.3510 N   0  0  0  0  0  0  0  0  0  0  0  0
  155.5890  210.7900  154.7530 C   0  0  0  0  0  1  0  0  0  0  0  0
  160.4570  210.0610  156.1090 C   0  0  2  0  0  3  0  0  0  0  0  0
  162.7330  210.8000  157.2600 C   0  0  0  0  0  1  0  0  0  0  0  0
  160.8020  212.2290  156.8490 N   0  0  0  0  0  0  0  0  0  0  0  0
  156.9920  212.6380  155.2660 O   0  0  0  0  0  0  0  0  0  0  0  0
  161.3720  211.0760  156.7250 C   0  0  0  0  0  0  0  0  0  0  0  0
  161.3160  202.3950  152.0980 C   0  0  0  0  0  3  0  0  0  0  0  0
  161.2910  204.8430  151.7190 C   0  0  0  0  0  0  0  0  0  0  0  0
  160.6070  203.8760  149.5090 C   0  0  0  0  0  3  0  0  0  0  0  0
  160.7030  203.6980  152.4860 C   0  0  0  0  0  2  0  0  0  0  0  0
  161.1820  204.9100  150.3920 C   0  0  0  0  0  3  0  0  0  0  0  0
  160.5740  202.5450  149.7130 C   0  0  0  0  0  0  0  0  0  0  0  0
  161.2090  201.8860  150.8700 C   0  0  0  0  0  3  0  0  0  0  0  0
  160.0580  201.6880  148.6910 N   0  0  0  0  0  2  0  0  0  0  0  0
  160.7420  201.4330  147.4300 C   0  0  0  0  0  2  0  0  0  0  0  0
  161.6110  202.6190  147.0590 C   0  0  0  0  0  2  0  0  0  0  0  0
  161.1980  203.2110  145.7130 C   0  0  0  0  0  2  0  0  0  0  0  0
  161.7930  204.5980  145.4870 C   0  0  0  0  0  0  0  0  0  0  0  0
  163.2930  204.7350  145.6280 C   0  0  0  0  0  2  0  0  0  0  0  0
  162.3710  205.2120  146.7470 C   0  0  0  0  0  2  0  0  0  0  0  0
  161.1190  205.5730  144.5650 C   0  0  0  0  0  0  0  0  0  0  0  0
  161.5630  205.7330  143.2550 O   0  0  0  0  0  0  0  0  0  0  0  0
  160.1290  206.2390  144.9690 O   0  0  0  0  0  1  0  0  0  0  0  0
  2  9  1  0  0  0  0
  3  9  2  0  0  0  0
  4  2  1  0  0  0  0
  5  8  2  0  0  0  0
  6  5  1  0  0  0  0
  6  7  2  0  0  0  0
  7  1  1  0  0  0  0
  7  4  1  0  0  0  0
  8  4  1  0  0  0  0
  8  3  1  0  0  0  0
 10 11  1  0  0  0  0
 11 15  1  0  0  0  0
 11 13  2  0  0  0  0
 12 18  2  0  0  0  0
 12 10  1  0  0  0  0
 13 17  1  0  0  0  0
 14 12  1  0  0  0  0
 15  9  1  6  0  0  0
 15 19  1  0  0  0  0
 19 17  2  0  0  0  0
 19 16  1  0  0  0  0
 20 23  1  0  0  0  0
 21  1  1  0  0  0  0
 21 23  1  0  0  0  0
 22 25  2  0  0  0  0
 22 24  1  0  0  0  0
 24 21  2  0  0  0  0
 25 26  1  0  0  0  0
 26 20  2  0  0  0  0
 27 25  1  0  0  0  0
 28 27  1  0  0  0  0
 29 28  1  0  0  0  0
 30 29  1  0  0  0  0
 31 32  1  0  0  0  0
 31 30  1  0  0  0  0
 31 33  1  0  0  0  0
 32 33  1  0  0  0  0
 34 36  1  0  0  0  0
 34 31  1  0  0  0  0
 35 34  2  0  0  0  0
M  END
>  <MODEL>
4

>  <REMARK>
 VINA RESULT:      -7.9      1.947      2.246
  Name = 
  9 active torsions:
  status: ('A' for Active; 'I' for Inactive)
    1  A    between atoms: C_2  and  C_5
    2  A    between atoms: C_2  and  C_9
    3  A    between atoms: C_5  and  C_24
    4  A    between atoms: O_7  and  C_13
    5  A    between atoms: O_7  and  C_26
    6  A    between atoms: C_9  and  C_10
    7  A    between atoms: N_12  and  C_24
    8  A    between atoms: N_12  and  C_25
    9  A    between atoms: C_29  and  C_30
                            x       y       z     vdW  Elec       q    Type
                         _______ _______ _______ _____ _____    ______ ____

>  <TORSDO>
F 9

$$$$
=
 OpenBabel11072413323D

 36 40  0  0  1  0  0  0  0  0999 V2000
  162.3110  208.9010  152.3910 O   0  0  0  0  0  0  0  0  0  0  0  0
  161.1860  211.0520  150.2830 C   0  0  0  0  0  2  0  0  0  0  0  0
  160.0760  212.8260  151.3730 C   0  0  0  0  0  3  0  0  0  0  0  0
  160.8000  210.6600  151.6220 N   0  0  0  0  0  0  0  0  0  0  0  0
  160.4320  211.6900  153.5770 N   0  0  0  0  0  0  0  0  0  0  0  0
  161.1780  210.5790  153.8040 C   0  0  0  0  0  3  0  0  0  0  0  0
  161.4370  209.9770  152.5830 C   0  0  0  0  0  0  0  0  0  0  0  0
  160.2290  211.6780  152.2440 C   0  0  0  0  0  0  0  0  0  0  0  0
  160.5850  212.4390  150.1920 C   0  0  0  0  0  0  0  0  0  0  0  0
  158.2710  213.8670  148.4910 N   0  0  0  0  0  2  0  0  0  0  0  0
  159.5550  213.3550  148.1200 C   0  0  0  0  0  0  0  0  0  0  0  0
  157.0920  213.7950  147.6840 C   0  0  0  0  0  0  0  0  0  0  0  0
  159.8320  212.9280  146.9340 N   0  0  0  0  0  0  0  0  0  0  0  0
  155.8390  214.4400  148.1620 C   0  0  0  0  0  1  0  0  0  0  0  0
  160.7580  213.3670  149.0130 C   0  0  2  0  0  3  0  0  0  0  0  0
  163.2000  212.6720  148.2390 C   0  0  0  0  0  1  0  0  0  0  0  0
  161.1860  212.6010  146.8700 N   0  0  0  0  0  0  0  0  0  0  0  0
  157.0870  213.1580  146.5970 O   0  0  0  0  0  0  0  0  0  0  0  0
  161.7360  212.8250  148.0160 C   0  0  0  0  0  0  0  0  0  0  0  0
  161.2450  207.5840  149.2630 C   0  0  0  0  0  3  0  0  0  0  0  0
  162.0530  207.7780  151.5970 C   0  0  0  0  0  0  0  0  0  0  0  0
  160.9980  205.5050  151.5020 C   0  0  0  0  0  3  0  0  0  0  0  0
  162.4350  207.7430  150.1490 C   0  0  0  0  0  2  0  0  0  0  0  0
  161.4560  206.7360  152.1760 C   0  0  0  0  0  3  0  0  0  0  0  0
  160.5930  205.3690  150.2250 C   0  0  0  0  0  0  0  0  0  0  0  0
  160.4680  206.5020  149.2880 C   0  0  0  0  0  3  0  0  0  0  0  0
  160.0880  204.1090  149.7760 N   0  0  0  0  0  2  0  0  0  0  0  0
  160.9350  203.0240  149.2950 C   0  0  0  0  0  2  0  0  0  0  0  0
  161.9150  203.5480  148.2640 C   0  0  0  0  0  2  0  0  0  0  0  0
  161.2830  203.6010  146.8740 C   0  0  0  0  0  2  0  0  0  0  0  0
  161.8470  204.7400  146.0280 C   0  0  0  0  0  0  0  0  0  0  0  0
  163.3100  204.6570  145.6500 C   0  0  0  0  0  2  0  0  0  0  0  0
  162.8590  205.5900  146.7710 C   0  0  0  0  0  2  0  0  0  0  0  0
  160.9580  205.4990  145.0860 C   0  0  0  0  0  0  0  0  0  0  0  0
  159.8510  206.1950  145.5640 O   0  0  0  0  0  1  0  0  0  0  0  0
  161.2240  205.5260  143.8550 O   0  0  0  0  0  0  0  0  0  0  0  0
  1  7  1  0  0  0  0
  2  4  1  0  0  0  0
  3  8  1  0  0  0  0
  4  8  1  0  0  0  0
  4  7  1  0  0  0  0
  5  6  1  0  0  0  0
  7  6  2  0  0  0  0
  8  5  2  0  0  0  0
  9  2  1  0  0  0  0
  9  3  2  0  0  0  0
 11 10  1  0  0  0  0
 11 15  1  0  0  0  0
 12 14  1  0  0  0  0
 12 10  1  0  0  0  0
 13 11  2  0  0  0  0
 15  9  1  1  0  0  0
 17 13  1  0  0  0  0
 17 19  2  0  0  0  0
 18 12  2  0  0  0  0
 19 16  1  0  0  0  0
 19 15  1  0  0  0  0
 20 26  2  0  0  0  0
 20 23  1  0  0  0  0
 21 24  2  0  0  0  0
 21  1  1  0  0  0  0
 22 24  1  0  0  0  0
 23 21  1  0  0  0  0
 25 22  2  0  0  0  0
 26 25  1  0  0  0  0
 27 25  1  0  0  0  0
 28 27  1  0  0  0  0
 29 28  1  0  0  0  0
 30 29  1  0  0  0  0
 31 33  1  0  0  0  0
 31 30  1  0  0  0  0
 32 31  1  0  0  0  0
 32 33  1  0  0  0  0
 34 35  1  0  0  0  0
 34 31  1  0  0  0  0
 36 34  2  0  0  0  0
M  END
>  <MODEL>
5

>  <REMARK>
 VINA RESULT:      -7.7      2.730      4.452
  Name = 
  9 active torsions:
  status: ('A' for Active; 'I' for Inactive)
    1  A    between atoms: C_2  and  C_5
    2  A    between atoms: C_2  and  C_9
    3  A    between atoms: C_5  and  C_24
    4  A    between atoms: O_7  and  C_13
    5  A    between atoms: O_7  and  C_26
    6  A    between atoms: C_9  and  C_10
    7  A    between atoms: N_12  and  C_24
    8  A    between atoms: N_12  and  C_25
    9  A    between atoms: C_29  and  C_30
                            x       y       z     vdW  Elec       q    Type
                         _______ _______ _______ _____ _____    ______ ____

>  <TORSDO>
F 9

$$$$
=
 OpenBabel11072413323D

 36 40  0  0  1  0  0  0  0  0999 V2000
  161.7800  206.5360  151.8090 O   0  0  0  0  0  0  0  0  0  0  0  0
  161.4050  209.6460  152.5320 C   0  0  0  0  0  2  0  0  0  0  0  0
  161.5910  211.0040  150.6120 C   0  0  0  0  0  3  0  0  0  0  0  0
  162.0940  208.9360  151.4750 N   0  0  0  0  0  0  0  0  0  0  0  0
  162.1210  208.9800  149.2350 N   0  0  0  0  0  0  0  0  0  0  0  0
  162.0710  207.6870  149.6440 C   0  0  0  0  0  3  0  0  0  0  0  0
  162.0080  207.6750  151.0280 C   0  0  0  0  0  0  0  0  0  0  0  0
  162.1430  209.6840  150.3850 C   0  0  0  0  0  0  0  0  0  0  0  0
  161.2100  211.0090  151.9000 C   0  0  0  0  0  0  0  0  0  0  0  0
  160.0450  211.1190  154.8860 N   0  0  0  0  0  2  0  0  0  0  0  0
  159.5670  211.6630  153.6510 C   0  0  0  0  0  0  0  0  0  0  0  0
  159.2190  210.5820  155.9220 C   0  0  0  0  0  0  0  0  0  0  0  0
  158.3200  211.8910  153.4130 N   0  0  0  0  0  0  0  0  0  0  0  0
  159.8460  210.1200  157.1900 C   0  0  0  0  0  1  0  0  0  0  0  0
  160.4540  212.1460  152.5430 C   0  0  2  0  0  3  0  0  0  0  0  0
  159.5820  213.4020  150.3730 C   0  0  0  0  0  1  0  0  0  0  0  0
  158.1980  212.5170  152.1730 N   0  0  0  0  0  0  0  0  0  0  0  0
  157.9760  210.4520  155.7610 O   0  0  0  0  0  0  0  0  0  0  0  0
  159.3690  212.6700  151.6520 C   0  0  0  0  0  0  0  0  0  0  0  0
  161.5750  202.9900  152.0110 C   0  0  0  0  0  3  0  0  0  0  0  0
  161.1900  205.3500  151.3600 C   0  0  0  0  0  0  0  0  0  0  0  0
  160.4430  204.0340  149.3600 C   0  0  0  0  0  3  0  0  0  0  0  0
  160.8320  204.2490  152.3110 C   0  0  0  0  0  2  0  0  0  0  0  0
  160.9530  205.2340  150.0530 C   0  0  0  0  0  3  0  0  0  0  0  0
  160.6060  202.7460  149.7180 C   0  0  0  0  0  0  0  0  0  0  0  0
  161.4260  202.3210  150.8680 C   0  0  0  0  0  3  0  0  0  0  0  0
  160.1190  201.7100  148.8610 N   0  0  0  0  0  2  0  0  0  0  0  0
  160.7800  201.3040  147.6270 C   0  0  0  0  0  2  0  0  0  0  0  0
  161.7020  202.4060  147.1440 C   0  0  0  0  0  2  0  0  0  0  0  0
  161.2110  203.0020  145.8260 C   0  0  0  0  0  2  0  0  0  0  0  0
  161.7780  204.3980  145.5780 C   0  0  0  0  0  0  0  0  0  0  0  0
  163.2820  204.5480  145.6260 C   0  0  0  0  0  2  0  0  0  0  0  0
  162.4280  205.0040  146.8060 C   0  0  0  0  0  2  0  0  0  0  0  0
  161.0380  205.3750  144.7100 C   0  0  0  0  0  0  0  0  0  0  0  0
  160.0740  206.2180  145.2560 O   0  0  0  0  0  1  0  0  0  0  0  0
  161.3040  205.4510  143.4810 O   0  0  0  0  0  0  0  0  0  0  0  0
  3  9  2  0  0  0  0
  4  2  1  0  0  0  0
  5  6  1  0  0  0  0
  5  8  2  0  0  0  0
  6  7  2  0  0  0  0
  7  4  1  0  0  0  0
  7  1  1  0  0  0  0
  8  3  1  0  0  0  0
  8  4  1  0  0  0  0
  9  2  1  0  0  0  0
 10 12  1  0  0  0  0
 11 10  1  0  0  0  0
 12 14  1  0  0  0  0
 13 11  2  0  0  0  0
 15  9  1  6  0  0  0
 15 11  1  0  0  0  0
 16 19  1  0  0  0  0
 17 13  1  0  0  0  0
 18 12  2  0  0  0  0
 19 17  2  0  0  0  0
 19 15  1  0  0  0  0
 20 23  1  0  0  0  0
 21  1  1  0  0  0  0
 21 23  1  0  0  0  0
 22 25  2  0  0  0  0
 22 24  1  0  0  0  0
 24 21  2  0  0  0  0
 25 26  1  0  0  0  0
 26 20  2  0  0  0  0
 27 25  1  0  0  0  0
 28 27  1  0  0  0  0
 29 28  1  0  0  0  0
 30 29  1  0  0  0  0
 31 32  1  0  0  0  0
 31 30  1  0  0  0  0
 31 33  1  0  0  0  0
 32 33  1  0  0  0  0
 34 35  1  0  0  0  0
 34 31  1  0  0  0  0
 36 34  2  0  0  0  0
M  END
>  <MODEL>
6

>  <REMARK>
 VINA RESULT:      -7.6      1.533      2.872
  Name = 
  9 active torsions:
  status: ('A' for Active; 'I' for Inactive)
    1  A    between atoms: C_2  and  C_5
    2  A    between atoms: C_2  and  C_9
    3  A    between atoms: C_5  and  C_24
    4  A    between atoms: O_7  and  C_13
    5  A    between atoms: O_7  and  C_26
    6  A    between atoms: C_9  and  C_10
    7  A    between atoms: N_12  and  C_24
    8  A    between atoms: N_12  and  C_25
    9  A    between atoms: C_29  and  C_30
                            x       y       z     vdW  Elec       q    Type
                         _______ _______ _______ _____ _____    ______ ____

>  <TORSDO>
F 9

$$$$
=
 OpenBabel11072413323D

 36 40  0  0  1  0  0  0  0  0999 V2000
  161.7780  206.4510  152.3320 O   0  0  0  0  0  0  0  0  0  0  0  0
  160.4840  209.3830  152.5890 C   0  0  0  0  0  2  0  0  0  0  0  0
  160.3090  210.0520  154.8440 C   0  0  0  0  0  3  0  0  0  0  0  0
  160.5450  208.2310  153.4640 N   0  0  0  0  0  0  0  0  0  0  0  0
  161.1870  207.8210  155.5710 N   0  0  0  0  0  0  0  0  0  0  0  0
  161.6810  206.8450  154.7680 C   0  0  0  0  0  3  0  0  0  0  0  0
  161.3170  207.1350  153.4620 C   0  0  0  0  0  0  0  0  0  0  0  0
  160.5030  208.6200  154.7270 C   0  0  0  0  0  0  0  0  0  0  0  0
  160.2340  210.5000  153.5800 C   0  0  0  0  0  0  0  0  0  0  0  0
  158.4770  212.7740  155.0050 N   0  0  0  0  0  2  0  0  0  0  0  0
  158.8670  212.5790  153.6410 C   0  0  0  0  0  0  0  0  0  0  0  0
  157.2120  213.2870  155.4320 C   0  0  0  0  0  0  0  0  0  0  0  0
  158.1820  213.0140  152.6380 N   0  0  0  0  0  0  0  0  0  0  0  0
  156.9680  213.5120  156.8830 C   0  0  0  0  0  1  0  0  0  0  0  0
  160.1660  211.9630  153.2160 C   0  0  2  0  0  3  0  0  0  0  0  0
  161.0110  211.8490  150.7020 C   0  0  0  0  0  1  0  0  0  0  0  0
  158.8810  212.7570  151.4600 N   0  0  0  0  0  0  0  0  0  0  0  0
  156.2870  213.5080  154.6060 O   0  0  0  0  0  0  0  0  0  0  0  0
  159.9930  212.1640  151.7410 C   0  0  0  0  0  0  0  0  0  0  0  0
  161.4750  202.9170  152.0560 C   0  0  0  0  0  3  0  0  0  0  0  0
  161.1490  205.3520  151.7370 C   0  0  0  0  0  0  0  0  0  0  0  0
  160.3400  204.3400  149.5890 C   0  0  0  0  0  3  0  0  0  0  0  0
  160.7710  204.1430  152.5350 C   0  0  0  0  0  2  0  0  0  0  0  0
  160.8930  205.4210  150.4300 C   0  0  0  0  0  3  0  0  0  0  0  0
  160.4710  203.0120  149.7660 C   0  0  0  0  0  0  0  0  0  0  0  0
  161.2920  202.4130  150.8350 C   0  0  0  0  0  3  0  0  0  0  0  0
  159.9440  202.1150  148.7850 N   0  0  0  0  0  2  0  0  0  0  0  0
  160.7450  201.5140  147.7270 C   0  0  0  0  0  2  0  0  0  0  0  0
  161.7380  202.5250  147.1860 C   0  0  0  0  0  2  0  0  0  0  0  0
  161.2640  203.1120  145.8590 C   0  0  0  0  0  2  0  0  0  0  0  0
  161.7860  204.5290  145.6360 C   0  0  0  0  0  0  0  0  0  0  0  0
  163.2750  204.7460  145.7960 C   0  0  0  0  0  2  0  0  0  0  0  0
  162.3140  205.1760  146.9010 C   0  0  0  0  0  2  0  0  0  0  0  0
  161.0730  205.4650  144.7030 C   0  0  0  0  0  0  0  0  0  0  0  0
  160.0430  206.2790  145.1660 O   0  0  0  0  0  1  0  0  0  0  0  0
  161.4200  205.5320  143.4940 O   0  0  0  0  0  0  0  0  0  0  0  0
  1  7  1  0  0  0  0
  2  4  1  0  0  0  0
  2  9  1  0  0  0  0
  4  8  1  0  0  0  0
  6  5  1  0  0  0  0
  7  4  1  0  0  0  0
  7  6  2  0  0  0  0
  8  3  1  0  0  0  0
  8  5  2  0  0  0  0
  9  3  2  0  0  0  0
 10 12  1  0  0  0  0
 11 10  1  0  0  0  0
 12 14  1  0  0  0  0
 13 11  2  0  0  0  0
 15  9  1  6  0  0  0
 15 11  1  0  0  0  0
 16 19  1  0  0  0  0
 17 19  2  0  0  0  0
 17 13  1  0  0  0  0
 18 12  2  0  0  0  0
 19 15  1  0  0  0  0
 20 23  1  0  0  0  0
 21  1  1  0  0  0  0
 21 23  1  0  0  0  0
 22 25  2  0  0  0  0
 22 24  1  0  0  0  0
 24 21  2  0  0  0  0
 25 26  1  0  0  0  0
 26 20  2  0  0  0  0
 27 25  1  0  0  0  0
 28 27  1  0  0  0  0
 29 28  1  0  0  0  0
 30 29  1  0  0  0  0
 31 32  1  0  0  0  0
 31 30  1  0  0  0  0
 31 33  1  0  0  0  0
 32 33  1  0  0  0  0
 34 35  1  0  0  0  0
 34 31  1  0  0  0  0
 36 34  2  0  0  0  0
M  END
>  <MODEL>
7

>  <REMARK>
 VINA RESULT:      -7.6      1.737      2.904
  Name = 
  9 active torsions:
  status: ('A' for Active; 'I' for Inactive)
    1  A    between atoms: C_2  and  C_5
    2  A    between atoms: C_2  and  C_9
    3  A    between atoms: C_5  and  C_24
    4  A    between atoms: O_7  and  C_13
    5  A    between atoms: O_7  and  C_26
    6  A    between atoms: C_9  and  C_10
    7  A    between atoms: N_12  and  C_24
    8  A    between atoms: N_12  and  C_25
    9  A    between atoms: C_29  and  C_30
                            x       y       z     vdW  Elec       q    Type
                         _______ _______ _______ _____ _____    ______ ____

>  <TORSDO>
F 9

$$$$
=
 OpenBabel11072413323D

 36 40  0  0  1  0  0  0  0  0999 V2000
  162.7100  209.2490  151.2730 O   0  0  0  0  0  0  0  0  0  0  0  0
  160.7260  210.1490  153.6370 C   0  0  0  0  0  2  0  0  0  0  0  0
  159.3000  211.8960  152.9450 C   0  0  0  0  0  3  0  0  0  0  0  0
  161.2710  210.8170  152.4740 N   0  0  0  0  0  0  0  0  0  0  0  0
  160.4630  211.9640  150.7280 N   0  0  0  0  0  0  0  0  0  0  0  0
  161.4010  211.0920  150.2790 C   0  0  0  0  0  3  0  0  0  0  0  0
  161.8590  210.3570  151.3610 C   0  0  0  0  0  0  0  0  0  0  0  0
  160.4390  211.7570  152.0610 C   0  0  0  0  0  0  0  0  0  0  0  0
  159.4960  210.9890  153.9160 C   0  0  0  0  0  0  0  0  0  0  0  0
  156.6260  212.3620  154.3220 N   0  0  0  0  0  2  0  0  0  0  0  0
  157.5890  211.8590  155.2560 C   0  0  0  0  0  0  0  0  0  0  0  0
  155.8180  213.5250  154.5220 C   0  0  0  0  0  0  0  0  0  0  0  0
  157.7040  212.3020  156.4620 N   0  0  0  0  0  0  0  0  0  0  0  0
  154.8000  213.8900  153.4990 C   0  0  0  0  0  1  0  0  0  0  0  0
  158.4840  210.6870  154.9940 C   0  0  2  0  0  3  0  0  0  0  0  0
  160.0710  209.5840  156.8150 C   0  0  0  0  0  1  0  0  0  0  0  0
  158.6510  211.5370  157.1420 N   0  0  0  0  0  0  0  0  0  0  0  0
  155.9850  214.2680  155.5250 O   0  0  0  0  0  0  0  0  0  0  0  0
  159.1160  210.6280  156.3520 C   0  0  0  0  0  0  0  0  0  0  0  0
  160.8390  207.2560  148.9960 C   0  0  0  0  0  3  0  0  0  0  0  0
  162.3390  207.9740  150.8330 C   0  0  0  0  0  0  0  0  0  0  0  0
  161.5860  205.6830  151.5190 C   0  0  0  0  0  3  0  0  0  0  0  0
  162.2260  207.6550  149.3740 C   0  0  0  0  0  2  0  0  0  0  0  0
  162.0920  207.0490  151.7610 C   0  0  0  0  0  3  0  0  0  0  0  0
  160.8030  205.2630  150.5070 C   0  0  0  0  0  0  0  0  0  0  0  0
  160.2450  206.1660  149.4840 C   0  0  0  0  0  3  0  0  0  0  0  0
  160.3300  203.9130  150.4960 N   0  0  0  0  0  2  0  0  0  0  0  0
  160.7380  202.9230  149.5080 C   0  0  0  0  0  2  0  0  0  0  0  0
  161.6990  203.5440  148.5130 C   0  0  0  0  0  2  0  0  0  0  0  0
  161.2570  203.2810  147.0760 C   0  0  0  0  0  2  0  0  0  0  0  0
  161.7290  204.3720  146.1180 C   0  0  0  0  0  0  0  0  0  0  0  0
  163.1880  204.3520  145.7180 C   0  0  0  0  0  2  0  0  0  0  0  0
  162.6910  205.3520  146.7590 C   0  0  0  0  0  2  0  0  0  0  0  0
  160.7760  204.9810  145.1310 C   0  0  0  0  0  0  0  0  0  0  0  0
  160.3740  206.3080  145.2600 O   0  0  0  0  0  1  0  0  0  0  0  0
  160.3500  204.2960  144.1630 O   0  0  0  0  0  0  0  0  0  0  0  0
  1  7  1  0  0  0  0
  2  9  1  0  0  0  0
  3  9  2  0  0  0  0
  4  2  1  0  0  0  0
  5  8  2  0  0  0  0
  6  5  1  0  0  0  0
  6  7  2  0  0  0  0
  7  4  1  0  0  0  0
  8  4  1  0  0  0  0
  8  3  1  0  0  0  0
 10 12  1  0  0  0  0
 10 11  1  0  0  0  0
 11 13  2  0  0  0  0
 12 18  2  0  0  0  0
 13 17  1  0  0  0  0
 14 12  1  0  0  0  0
 15  9  1  6  0  0  0
 15 11  1  0  0  0  0
 15 19  1  0  0  0  0
 19 16  1  0  0  0  0
 19 17  2  0  0  0  0
 20 23  1  0  0  0  0
 20 26  2  0  0  0  0
 21  1  1  0  0  0  0
 21 24  2  0  0  0  0
 22 24  1  0  0  0  0
 23 21  1  0  0  0  0
 25 22  2  0  0  0  0
 26 25  1  0  0  0  0
 27 25  1  0  0  0  0
 28 27  1  0  0  0  0
 29 28  1  0  0  0  0
 30 29  1  0  0  0  0
 31 33  1  0  0  0  0
 31 30  1  0  0  0  0
 32 31  1  0  0  0  0
 32 33  1  0  0  0  0
 34 35  1  0  0  0  0
 34 31  1  0  0  0  0
 36 34  2  0  0  0  0
M  END
>  <MODEL>
8

>  <REMARK>
 VINA RESULT:      -7.5      2.120      3.147
  Name = 
  9 active torsions:
  status: ('A' for Active; 'I' for Inactive)
    1  A    between atoms: C_2  and  C_5
    2  A    between atoms: C_2  and  C_9
    3  A    between atoms: C_5  and  C_24
    4  A    between atoms: O_7  and  C_13
    5  A    between atoms: O_7  and  C_26
    6  A    between atoms: C_9  and  C_10
    7  A    between atoms: N_12  and  C_24
    8  A    between atoms: N_12  and  C_25
    9  A    between atoms: C_29  and  C_30
                            x       y       z     vdW  Elec       q    Type
                         _______ _______ _______ _____ _____    ______ ____

>  <TORSDO>
F 9

$$$$
=
 OpenBabel11072413323D

 36 40  0  0  1  0  0  0  0  0999 V2000
  161.3760  206.4740  153.2920 O   0  0  0  0  0  0  0  0  0  0  0  0
  161.1620  204.5220  150.7460 C   0  0  0  0  0  2  0  0  0  0  0  0
  161.1400  205.7410  148.7270 C   0  0  0  0  0  3  0  0  0  0  0  0
  160.7890  205.8990  150.9910 N   0  0  0  0  0  0  0  0  0  0  0  0
  161.1660  207.8840  150.0230 N   0  0  0  0  0  0  0  0  0  0  0  0
  161.3250  208.0170  151.3640 C   0  0  0  0  0  3  0  0  0  0  0  0
  161.1350  206.7740  151.9470 C   0  0  0  0  0  0  0  0  0  0  0  0
  160.8330  206.5870  149.8630 C   0  0  0  0  0  0  0  0  0  0  0  0
  161.2730  204.5060  149.2360 C   0  0  0  0  0  0  0  0  0  0  0  0
  161.5960  204.3320  146.0490 N   0  0  0  0  0  2  0  0  0  0  0  0
  161.1990  203.3630  147.0270 C   0  0  0  0  0  0  0  0  0  0  0  0
  161.0470  204.4430  144.7330 C   0  0  0  0  0  0  0  0  0  0  0  0
  160.4240  202.3660  146.7620 N   0  0  0  0  0  0  0  0  0  0  0  0
  161.6090  205.4490  143.7920 C   0  0  0  0  0  1  0  0  0  0  0  0
  161.7280  203.3140  148.4280 C   0  0  2  0  0  3  0  0  0  0  0  0
  161.2060  201.3650  150.1540 C   0  0  0  0  0  1  0  0  0  0  0  0
  160.3200  201.5550  147.8920 N   0  0  0  0  0  0  0  0  0  0  0  0
  160.0690  203.7360  144.3750 O   0  0  0  0  0  0  0  0  0  0  0  0
  161.0290  202.0560  148.8470 C   0  0  0  0  0  0  0  0  0  0  0  0
  159.3260  207.7710  155.8940 C   0  0  0  0  0  3  0  0  0  0  0  0
  161.2290  207.3650  154.3600 C   0  0  0  0  0  0  0  0  0  0  0  0
  161.5810  209.7150  155.1620 C   0  0  0  0  0  3  0  0  0  0  0  0
  160.5470  206.9550  155.6290 C   0  0  0  0  0  2  0  0  0  0  0  0
  161.7230  208.5950  154.2110 C   0  0  0  0  0  3  0  0  0  0  0  0
  160.5760  209.9340  156.0310 C   0  0  0  0  0  0  0  0  0  0  0  0
  159.3710  209.0860  156.1090 C   0  0  0  0  0  3  0  0  0  0  0  0
  160.5650  211.1340  156.8080 N   0  0  0  0  0  2  0  0  0  0  0  0
  159.4600  212.0840  156.8110 C   0  0  0  0  0  2  0  0  0  0  0  0
  159.5100  212.9470  155.5650 C   0  0  0  0  0  2  0  0  0  0  0  0
  158.2740  212.7360  154.6940 C   0  0  0  0  0  2  0  0  0  0  0  0
  158.6340  212.4980  153.2290 C   0  0  0  0  0  0  0  0  0  0  0  0
  158.9580  211.0770  152.8220 C   0  0  0  0  0  2  0  0  0  0  0  0
  160.0810  212.0910  153.0300 C   0  0  0  0  0  2  0  0  0  0  0  0
  158.0780  213.3880  152.1560 C   0  0  0  0  0  0  0  0  0  0  0  0
  158.8880  213.8350  151.1160 O   0  0  0  0  0  0  0  0  0  0  0  0
  156.8620  213.7180  152.1800 O   0  0  0  0  0  1  0  0  0  0  0  0
  1 21  1  0  0  0  0
  2  4  1  0  0  0  0
  3  9  2  0  0  0  0
  3  8  1  0  0  0  0
  4  7  1  0  0  0  0
  5  6  1  0  0  0  0
  6  7  2  0  0  0  0
  7  1  1  0  0  0  0
  8  5  2  0  0  0  0
  8  4  1  0  0  0  0
  9  2  1  0  0  0  0
 10 11  1  0  0  0  0
 11 15  1  0  0  0  0
 12 10  1  0  0  0  0
 13 11  2  0  0  0  0
 13 17  1  0  0  0  0
 14 12  1  0  0  0  0
 15 19  1  0  0  0  0
 15  9  1  1  0  0  0
 17 19  2  0  0  0  0
 18 12  2  0  0  0  0
 19 16  1  0  0  0  0
 20 26  2  0  0  0  0
 21 23  1  0  0  0  0
 22 25  2  0  0  0  0
 23 20  1  0  0  0  0
 24 21  2  0  0  0  0
 24 22  1  0  0  0  0
 25 26  1  0  0  0  0
 25 27  1  0  0  0  0
 27 28  1  0  0  0  0
 29 28  1  0  0  0  0
 30 29  1  0  0  0  0
 31 30  1  0  0  0  0
 32 33  1  0  0  0  0
 32 31  1  0  0  0  0
 33 31  1  0  0  0  0
 34 36  1  0  0  0  0
 34 31  1  0  0  0  0
 35 34  2  0  0  0  0
M  END
>  <MODEL>
9

>  <REMARK>
 VINA RESULT:      -7.2      2.011      9.593
  Name = 
  9 active torsions:
  status: ('A' for Active; 'I' for Inactive)
    1  A    between atoms: C_2  and  C_5
    2  A    between atoms: C_2  and  C_9
    3  A    between atoms: C_5  and  C_24
    4  A    between atoms: O_7  and  C_13
    5  A    between atoms: O_7  and  C_26
    6  A    between atoms: C_9  and  C_10
    7  A    between atoms: N_12  and  C_24
    8  A    between atoms: N_12  and  C_25
    9  A    between atoms: C_29  and  C_30
                            x       y       z     vdW  Elec       q    Type
                         _______ _______ _______ _____ _____    ______ ____

>  <TORSDO>
F 9

$$$$
