=
 OpenBabel11072413103D

 35 37  0  0  1  0  0  0  0  0999 V2000
  160.9980  208.9290  151.5940 C   0  0  2  0  0  3  0  0  0  0  0  0
  161.2320  209.6980  153.9860 N   0  0  0  0  0  2  0  0  0  0  0  0
  160.5350  209.7780  152.7420 C   0  0  0  0  0  0  0  0  0  0  0  0
  159.5650  210.5730  152.6070 O   0  0  0  0  0  0  0  0  0  0  0  0
  159.8320  212.6100  156.6990 C   0  0  0  0  0  2  0  0  0  0  0  0
  162.2860  210.8990  155.8500 C   0  0  0  0  0  2  0  0  0  0  0  0
  161.2520  212.7790  157.2570 C   0  0  0  0  0  2  0  0  0  0  0  0
  162.0910  211.4970  157.2440 C   0  0  0  0  0  2  0  0  0  0  0  0
  157.8710  211.2560  156.8540 O   0  0  0  0  0  1  0  0  0  0  0  0
  160.9830  210.6330  155.0740 C   0  0  2  0  0  3  0  0  0  0  0  0
  159.2630  211.2080  156.9310 C   0  0  1  0  0  3  0  0  0  0  0  0
  159.7910  210.1590  155.9300 C   0  0  2  0  0  3  0  0  0  0  0  0
  160.0830  208.8350  156.6290 C   0  0  0  0  0  2  0  0  0  0  0  0
  159.7620  206.6050  156.5800 O   0  0  0  0  0  1  0  0  0  0  0  0
  159.4420  207.7420  155.9170 N   0  0  0  0  0  2  0  0  0  0  0  0
  161.1860  207.4920  152.0070 C   0  0  0  0  0  0  0  0  0  0  0  0
  160.4600  207.0420  152.8790 O   0  0  0  0  0  0  0  0  0  0  0  0
  162.2440  206.5880  151.4230 C   0  0  1  0  0  3  0  0  0  0  0  0
  163.2320  206.2940  152.3680 O   0  0  0  0  0  1  0  0  0  0  0  0
  161.6840  205.3500  150.7610 C   0  0  0  0  0  0  0  0  0  0  0  0
  160.7150  202.4420  149.9940 C   0  0  0  0  0  3  0  0  0  0  0  0
  160.9320  205.4980  149.4470 C   0  0  2  0  0  3  0  0  0  0  0  0
  161.6200  204.2400  151.5080 C   0  0  0  0  0  3  0  0  0  0  0  0
  161.0320  204.3870  148.4640 C   0  0  0  0  0  0  0  0  0  0  0  0
  161.3090  206.7280  148.5860 C   0  0  2  0  0  3  0  0  0  0  0  0
  160.8960  203.0850  148.6900 C   0  0  0  0  0  3  0  0  0  0  0  0
  161.0670  206.2830  147.1470 C   0  0  0  0  0  2  0  0  0  0  0  0
  162.6680  207.0300  148.7020 O   0  0  0  0  0  1  0  0  0  0  0  0
  161.1470  204.8710  147.1800 O   0  0  0  0  0  0  0  0  0  0  0  0
  161.0220  202.9360  151.1920 C   0  0  0  0  0  3  0  0  0  0  0  0
  162.2070  209.4930  150.8440 C   0  0  0  0  0  2  0  0  0  0  0  0
  161.9280  210.8640  150.2340 C   0  0  0  0  0  2  0  0  0  0  0  0
  162.0890  210.8540  148.7220 C   0  0  0  0  0  2  0  0  0  0  0  0
  161.6420  213.1670  147.9620 C   0  0  0  0  0  1  0  0  0  0  0  0
  162.7220  212.1490  148.2550 C   0  0  0  0  0  2  0  0  0  0  0  0
  1 31  1  1  0  0  0
  1 16  1  0  0  0  0
  1  3  1  0  0  0  0
  3  2  1  0  0  0  0
  4  3  2  0  0  0  0
  5 11  1  0  0  0  0
  5  7  1  0  0  0  0
  6  8  1  0  0  0  0
  8  7  1  0  0  0  0
 10  2  1  6  0  0  0
 10  6  1  0  0  0  0
 10 12  1  0  0  0  0
 11  9  1  6  0  0  0
 12 13  1  1  0  0  0
 12 11  1  0  0  0  0
 15 14  1  0  0  0  0
 15 13  1  0  0  0  0
 16 17  2  0  0  0  0
 18 16  1  0  0  0  0
 18 19  1  1  0  0  0
 20 18  1  0  0  0  0
 20 23  2  0  0  0  0
 21 30  2  0  0  0  0
 22 24  1  6  0  0  0
 22 20  1  0  0  0  0
 24 26  2  0  0  0  0
 25 28  1  6  0  0  0
 25 22  1  0  0  0  0
 26 21  1  0  0  0  0
 27 29  1  0  0  0  0
 27 25  1  0  0  0  0
 29 24  1  0  0  0  0
 30 23  1  0  0  0  0
 32 31  1  0  0  0  0
 33 32  1  0  0  0  0
 34 35  1  0  0  0  0
 35 33  1  0  0  0  0
M  END
>  <MODEL>
1

>  <REMARK>
 VINA RESULT:      -7.2      0.000      0.000
  Name = 
  11 active torsions:
  status: ('A' for Active; 'I' for Inactive)
    1  A    between atoms: C_3  and  C_11
    2  A    between atoms: N_8  and  C_13
    3  A    between atoms: N_10  and  C_24
    4  A    between atoms: C_11  and  C_16
    5  A    between atoms: C_13  and  C_32
    6  A    between atoms: C_15  and  C_18
    7  A    between atoms: C_16  and  C_18
    8  A    between atoms: C_18  and  C_27
    9  A    between atoms: C_23  and  C_27
   10  A    between atoms: C_23  and  C_34
   11  A    between atoms: C_26  and  C_34
                            x       y       z     vdW  Elec       q    Type
                         _______ _______ _______ _____ _____    ______ ____

>  <TORSDO>
F 11

$$$$
=
 OpenBabel11072413103D

 35 37  0  0  1  0  0  0  0  0999 V2000
  161.0760  209.0020  151.8420 C   0  0  2  0  0  3  0  0  0  0  0  0
  159.4750  210.5470  153.0310 N   0  0  0  0  0  2  0  0  0  0  0  0
  160.6780  209.7770  153.0630 C   0  0  0  0  0  0  0  0  0  0  0  0
  161.3730  209.7280  154.1140 O   0  0  0  0  0  0  0  0  0  0  0  0
  158.6340  212.3270  156.7630 C   0  0  0  0  0  2  0  0  0  0  0  0
  157.4100  210.8260  154.3290 C   0  0  0  0  0  2  0  0  0  0  0  0
  157.1920  211.8070  156.6900 C   0  0  0  0  0  2  0  0  0  0  0  0
  156.6180  211.7350  155.2720 C   0  0  0  0  0  2  0  0  0  0  0  0
  160.0620  214.0950  156.0340 O   0  0  0  0  0  1  0  0  0  0  0  0
  158.9110  211.1530  154.2300 C   0  0  2  0  0  3  0  0  0  0  0  0
  158.9660  213.3240  155.6510 C   0  0  1  0  0  3  0  0  0  0  0  0
  159.2660  212.6520  154.2940 C   0  0  2  0  0  3  0  0  0  0  0  0
  158.6390  213.4350  153.1450 C   0  0  0  0  0  2  0  0  0  0  0  0
  156.6620  214.4530  152.7850 O   0  0  0  0  0  1  0  0  0  0  0  0
  157.6920  214.4090  153.6620 N   0  0  0  0  0  2  0  0  0  0  0  0
  161.2140  207.5300  152.1390 C   0  0  0  0  0  0  0  0  0  0  0  0
  160.4640  207.0340  152.9640 O   0  0  0  0  0  0  0  0  0  0  0  0
  162.2510  206.6430  151.4940 C   0  0  1  0  0  3  0  0  0  0  0  0
  163.2580  206.3030  152.4020 O   0  0  0  0  0  1  0  0  0  0  0  0
  161.6640  205.4370  150.7950 C   0  0  0  0  0  0  0  0  0  0  0  0
  160.6260  202.5760  149.9450 C   0  0  0  0  0  3  0  0  0  0  0  0
  160.9300  205.6380  149.4780 C   0  0  2  0  0  3  0  0  0  0  0  0
  161.5640  204.3110  151.5130 C   0  0  0  0  0  3  0  0  0  0  0  0
  161.0110  204.5500  148.4680 C   0  0  0  0  0  0  0  0  0  0  0  0
  161.3490  206.8780  148.6520 C   0  0  2  0  0  3  0  0  0  0  0  0
  160.8380  203.2470  148.6600 C   0  0  0  0  0  3  0  0  0  0  0  0
  161.1090  206.4760  147.2000 C   0  0  0  0  0  2  0  0  0  0  0  0
  162.7140  207.1410  148.7880 O   0  0  0  0  0  1  0  0  0  0  0  0
  161.1520  205.0630  147.1980 O   0  0  0  0  0  0  0  0  0  0  0  0
  160.9340  203.0320  151.1580 C   0  0  0  0  0  3  0  0  0  0  0  0
  162.2890  209.5730  151.1040 C   0  0  0  0  0  2  0  0  0  0  0  0
  161.9510  210.8350  150.3150 C   0  0  0  0  0  2  0  0  0  0  0  0
  161.9730  210.5890  148.8150 C   0  0  0  0  0  2  0  0  0  0  0  0
  163.0780  212.5880  147.8620 C   0  0  0  0  0  1  0  0  0  0  0  0
  161.7520  211.8900  148.0690 C   0  0  0  0  0  2  0  0  0  0  0  0
  1 31  1  1  0  0  0
  1 16  1  0  0  0  0
  1  3  1  0  0  0  0
  2  3  1  0  0  0  0
  3  4  2  0  0  0  0
  6  8  1  0  0  0  0
  7  5  1  0  0  0  0
  8  7  1  0  0  0  0
 10  2  1  6  0  0  0
 10 12  1  0  0  0  0
 10  6  1  0  0  0  0
 11  9  1  1  0  0  0
 11  5  1  0  0  0  0
 12 13  1  6  0  0  0
 12 11  1  0  0  0  0
 13 15  1  0  0  0  0
 14 15  1  0  0  0  0
 16 17  2  0  0  0  0
 18 16  1  0  0  0  0
 18 19  1  1  0  0  0
 20 18  1  0  0  0  0
 20 23  2  0  0  0  0
 21 30  2  0  0  0  0
 22 24  1  6  0  0  0
 22 20  1  0  0  0  0
 24 26  2  0  0  0  0
 25 28  1  6  0  0  0
 25 22  1  0  0  0  0
 26 21  1  0  0  0  0
 27 25  1  0  0  0  0
 29 27  1  0  0  0  0
 29 24  1  0  0  0  0
 30 23  1  0  0  0  0
 32 31  1  0  0  0  0
 33 32  1  0  0  0  0
 34 35  1  0  0  0  0
 35 33  1  0  0  0  0
M  END
>  <MODEL>
2

>  <REMARK>
 VINA RESULT:      -7.2      1.984      2.938
  Name = 
  11 active torsions:
  status: ('A' for Active; 'I' for Inactive)
    1  A    between atoms: C_3  and  C_11
    2  A    between atoms: N_8  and  C_13
    3  A    between atoms: N_10  and  C_24
    4  A    between atoms: C_11  and  C_16
    5  A    between atoms: C_13  and  C_32
    6  A    between atoms: C_15  and  C_18
    7  A    between atoms: C_16  and  C_18
    8  A    between atoms: C_18  and  C_27
    9  A    between atoms: C_23  and  C_27
   10  A    between atoms: C_23  and  C_34
   11  A    between atoms: C_26  and  C_34
                            x       y       z     vdW  Elec       q    Type
                         _______ _______ _______ _____ _____    ______ ____

>  <TORSDO>
F 11

$$$$
=
 OpenBabel11072413103D

 35 37  0  0  1  0  0  0  0  0999 V2000
  161.0920  208.9600  151.3650 C   0  0  2  0  0  3  0  0  0  0  0  0
  159.9300  210.4630  153.0250 N   0  0  0  0  0  2  0  0  0  0  0  0
  161.1370  209.8460  152.5750 C   0  0  0  0  0  0  0  0  0  0  0  0
  162.2140  210.0220  153.2070 O   0  0  0  0  0  0  0  0  0  0  0  0
  159.9580  213.1400  156.2860 C   0  0  0  0  0  2  0  0  0  0  0  0
  159.8430  210.1450  155.4580 C   0  0  0  0  0  2  0  0  0  0  0  0
  160.0530  211.9590  157.2610 C   0  0  0  0  0  2  0  0  0  0  0  0
  159.3290  210.6930  156.7910 C   0  0  0  0  0  2  0  0  0  0  0  0
  158.4150  214.4320  155.0010 O   0  0  0  0  0  1  0  0  0  0  0  0
  159.8450  211.1600  154.3010 C   0  0  2  0  0  3  0  0  0  0  0  0
  158.6570  213.1450  155.4790 C   0  0  1  0  0  3  0  0  0  0  0  0
  158.6680  212.1560  154.2950 C   0  0  2  0  0  3  0  0  0  0  0  0
  157.3240  211.4470  154.1620 C   0  0  0  0  0  2  0  0  0  0  0  0
  155.6440  210.7570  155.4960 O   0  0  0  0  0  1  0  0  0  0  0  0
  156.4520  211.8170  155.2640 N   0  0  0  0  0  2  0  0  0  0  0  0
  161.2410  207.5070  151.7360 C   0  0  0  0  0  0  0  0  0  0  0  0
  160.5010  207.0490  152.5910 O   0  0  0  0  0  0  0  0  0  0  0  0
  162.2790  206.5930  151.1280 C   0  0  1  0  0  3  0  0  0  0  0  0
  163.3180  206.3420  152.0300 O   0  0  0  0  0  1  0  0  0  0  0  0
  161.6990  205.3270  150.5390 C   0  0  0  0  0  0  0  0  0  0  0  0
  160.6660  202.4000  149.9490 C   0  0  0  0  0  3  0  0  0  0  0  0
  160.9860  205.4030  149.1970 C   0  0  2  0  0  3  0  0  0  0  0  0
  161.5850  204.2750  151.3590 C   0  0  0  0  0  3  0  0  0  0  0  0
  161.0780  204.2230  148.2970 C   0  0  0  0  0  0  0  0  0  0  0  0
  161.4200  206.5590  148.2640 C   0  0  2  0  0  3  0  0  0  0  0  0
  160.8990  202.9450  148.6100 C   0  0  0  0  0  3  0  0  0  0  0  0
  161.2010  206.0210  146.8530 C   0  0  0  0  0  2  0  0  0  0  0  0
  162.7840  206.8310  148.3950 O   0  0  0  0  0  1  0  0  0  0  0  0
  161.2400  204.6130  146.9860 O   0  0  0  0  0  0  0  0  0  0  0  0
  160.9570  202.9690  151.1180 C   0  0  0  0  0  3  0  0  0  0  0  0
  162.0390  209.3850  150.2410 C   0  0  0  0  0  2  0  0  0  0  0  0
  161.9060  210.8660  149.8940 C   0  0  0  0  0  2  0  0  0  0  0  0
  162.2130  211.1340  148.4290 C   0  0  0  0  0  2  0  0  0  0  0  0
  162.4300  213.5360  147.8750 C   0  0  0  0  0  1  0  0  0  0  0  0
  161.4720  212.3690  147.9580 C   0  0  0  0  0  2  0  0  0  0  0  0
  1 31  1  6  0  0  0
  1 16  1  0  0  0  0
  1  3  1  0  0  0  0
  3  2  1  0  0  0  0
  3  4  2  0  0  0  0
  5  7  1  0  0  0  0
  6  8  1  0  0  0  0
  8  7  1  0  0  0  0
 10  2  1  6  0  0  0
 10  6  1  0  0  0  0
 11  9  1  6  0  0  0
 11  5  1  0  0  0  0
 12 13  1  1  0  0  0
 12 10  1  0  0  0  0
 12 11  1  0  0  0  0
 13 15  1  0  0  0  0
 15 14  1  0  0  0  0
 16 17  2  0  0  0  0
 18 16  1  0  0  0  0
 18 19  1  1  0  0  0
 20 18  1  0  0  0  0
 20 23  2  0  0  0  0
 21 30  2  0  0  0  0
 22 24  1  6  0  0  0
 22 20  1  0  0  0  0
 24 26  2  0  0  0  0
 25 28  1  6  0  0  0
 25 22  1  0  0  0  0
 26 21  1  0  0  0  0
 27 29  1  0  0  0  0
 27 25  1  0  0  0  0
 29 24  1  0  0  0  0
 30 23  1  0  0  0  0
 32 31  1  0  0  0  0
 33 32  1  0  0  0  0
 34 35  1  0  0  0  0
 35 33  1  0  0  0  0
M  END
>  <MODEL>
3

>  <REMARK>
 VINA RESULT:      -7.1      1.575      2.039
  Name = 
  11 active torsions:
  status: ('A' for Active; 'I' for Inactive)
    1  A    between atoms: C_3  and  C_11
    2  A    between atoms: N_8  and  C_13
    3  A    between atoms: N_10  and  C_24
    4  A    between atoms: C_11  and  C_16
    5  A    between atoms: C_13  and  C_32
    6  A    between atoms: C_15  and  C_18
    7  A    between atoms: C_16  and  C_18
    8  A    between atoms: C_18  and  C_27
    9  A    between atoms: C_23  and  C_27
   10  A    between atoms: C_23  and  C_34
   11  A    between atoms: C_26  and  C_34
                            x       y       z     vdW  Elec       q    Type
                         _______ _______ _______ _____ _____    ______ ____

>  <TORSDO>
F 11

$$$$
=
 OpenBabel11072413103D

 35 37  0  0  1  0  0  0  0  0999 V2000
  161.2100  208.3150  153.2800 C   0  0  2  0  0  3  0  0  0  0  0  0
  159.6400  210.1270  154.0670 N   0  0  0  0  0  2  0  0  0  0  0  0
  160.8730  209.7690  153.4410 C   0  0  0  0  0  0  0  0  0  0  0  0
  161.6750  210.6640  153.0610 O   0  0  0  0  0  0  0  0  0  0  0  0
  158.6440  214.2170  154.3560 C   0  0  0  0  0  2  0  0  0  0  0  0
  159.9160  211.7990  155.8430 C   0  0  0  0  0  2  0  0  0  0  0  0
  159.3750  214.3040  155.7020 C   0  0  0  0  0  2  0  0  0  0  0  0
  159.3120  213.0210  156.5380 C   0  0  0  0  0  2  0  0  0  0  0  0
  156.5710  213.5940  153.3480 O   0  0  0  0  0  1  0  0  0  0  0  0
  159.3350  211.4990  154.4490 C   0  0  2  0  0  3  0  0  0  0  0  0
  157.4410  213.2720  154.3890 C   0  0  1  0  0  3  0  0  0  0  0  0
  157.8280  211.7820  154.2870 C   0  0  2  0  0  3  0  0  0  0  0  0
  156.9840  210.9310  155.2310 C   0  0  0  0  0  2  0  0  0  0  0  0
  154.9950  209.8940  155.4480 O   0  0  0  0  0  1  0  0  0  0  0  0
  155.6040  210.9010  154.7780 N   0  0  0  0  0  2  0  0  0  0  0  0
  161.2730  207.9180  151.8280 C   0  0  0  0  0  0  0  0  0  0  0  0
  160.4500  208.3930  151.0620 O   0  0  0  0  0  0  0  0  0  0  0  0
  162.2800  206.9390  151.2730 C   0  0  1  0  0  3  0  0  0  0  0  0
  163.2880  206.6710  152.2050 O   0  0  0  0  0  1  0  0  0  0  0  0
  161.6550  205.6820  150.7120 C   0  0  0  0  0  0  0  0  0  0  0  0
  160.4990  202.7870  150.1950 C   0  0  0  0  0  3  0  0  0  0  0  0
  160.9770  205.7440  149.3520 C   0  0  2  0  0  3  0  0  0  0  0  0
  161.4730  204.6650  151.5640 C   0  0  0  0  0  3  0  0  0  0  0  0
  161.0350  204.5320  148.4940 C   0  0  0  0  0  0  0  0  0  0  0  0
  161.4860  206.8460  148.3910 C   0  0  2  0  0  3  0  0  0  0  0  0
  160.7880  203.2750  148.8440 C   0  0  0  0  0  3  0  0  0  0  0  0
  161.2750  206.2710  146.9940 C   0  0  0  0  0  2  0  0  0  0  0  0
  162.8580  207.0600  148.5470 O   0  0  0  0  0  1  0  0  0  0  0  0
  161.2440  204.8680  147.1750 O   0  0  0  0  0  0  0  0  0  0  0  0
  160.7900  203.3810  151.3510 C   0  0  0  0  0  3  0  0  0  0  0  0
  160.3390  207.3730  154.1140 C   0  0  0  0  0  2  0  0  0  0  0  0
  160.9980  206.9870  155.4370 C   0  0  0  0  0  2  0  0  0  0  0  0
  160.0940  207.2770  156.6250 C   0  0  0  0  0  2  0  0  0  0  0  0
  161.9560  208.8480  157.0640 C   0  0  0  0  0  1  0  0  0  0  0  0
  160.4770  208.5990  157.2610 C   0  0  0  0  0  2  0  0  0  0  0  0
  1  3  1  0  0  0  0
  1 31  1  1  0  0  0
  3  2  1  0  0  0  0
  4  3  2  0  0  0  0
  5 11  1  0  0  0  0
  5  7  1  0  0  0  0
  6  8  1  0  0  0  0
  7  8  1  0  0  0  0
 10  2  1  1  0  0  0
 10  6  1  0  0  0  0
 11  9  1  6  0  0  0
 12 11  1  0  0  0  0
 12 10  1  0  0  0  0
 12 13  1  1  0  0  0
 15 13  1  0  0  0  0
 15 14  1  0  0  0  0
 16  1  1  0  0  0  0
 17 16  2  0  0  0  0
 18 16  1  0  0  0  0
 18 19  1  1  0  0  0
 20 18  1  0  0  0  0
 20 23  2  0  0  0  0
 21 30  2  0  0  0  0
 22 24  1  6  0  0  0
 22 20  1  0  0  0  0
 24 26  2  0  0  0  0
 25 28  1  1  0  0  0
 25 22  1  0  0  0  0
 26 21  1  0  0  0  0
 27 29  1  0  0  0  0
 27 25  1  0  0  0  0
 29 24  1  0  0  0  0
 30 23  1  0  0  0  0
 31 32  1  0  0  0  0
 32 33  1  0  0  0  0
 33 35  1  0  0  0  0
 34 35  1  0  0  0  0
M  END
>  <MODEL>
4

>  <REMARK>
 VINA RESULT:      -7.0      2.372      3.845
  Name = 
  11 active torsions:
  status: ('A' for Active; 'I' for Inactive)
    1  A    between atoms: C_3  and  C_11
    2  A    between atoms: N_8  and  C_13
    3  A    between atoms: N_10  and  C_24
    4  A    between atoms: C_11  and  C_16
    5  A    between atoms: C_13  and  C_32
    6  A    between atoms: C_15  and  C_18
    7  A    between atoms: C_16  and  C_18
    8  A    between atoms: C_18  and  C_27
    9  A    between atoms: C_23  and  C_27
   10  A    between atoms: C_23  and  C_34
   11  A    between atoms: C_26  and  C_34
                            x       y       z     vdW  Elec       q    Type
                         _______ _______ _______ _____ _____    ______ ____

>  <TORSDO>
F 11

$$$$
=
 OpenBabel11072413103D

 35 37  0  0  1  0  0  0  0  0999 V2000
  161.5230  207.9500  151.0060 C   0  0  2  0  0  3  0  0  0  0  0  0
  161.7910  206.4450  148.9980 N   0  0  0  0  0  2  0  0  0  0  0  0
  161.6890  207.7690  149.5250 C   0  0  0  0  0  0  0  0  0  0  0  0
  161.7070  208.7640  148.7510 O   0  0  0  0  0  0  0  0  0  0  0  0
  162.4750  205.7630  144.8910 C   0  0  0  0  0  2  0  0  0  0  0  0
  160.3190  206.4220  147.0330 C   0  0  0  0  0  2  0  0  0  0  0  0
  161.0220  206.1480  144.5810 C   0  0  0  0  0  2  0  0  0  0  0  0
  160.0220  205.7740  145.6790 C   0  0  0  0  0  2  0  0  0  0  0  0
  163.8570  203.9540  145.6100 O   0  0  0  0  0  1  0  0  0  0  0  0
  161.7420  206.1750  147.5680 C   0  0  2  0  0  3  0  0  0  0  0  0
  162.5880  204.5120  145.7640 C   0  0  1  0  0  3  0  0  0  0  0  0
  162.3300  204.7840  147.2610 C   0  0  2  0  0  3  0  0  0  0  0  0
  161.5010  203.6650  147.8850 C   0  0  0  0  0  2  0  0  0  0  0  0
  160.9900  201.4940  147.5660 O   0  0  0  0  0  1  0  0  0  0  0  0
  161.2060  202.6480  146.8910 N   0  0  0  0  0  2  0  0  0  0  0  0
  161.9680  209.3200  151.4500 C   0  0  0  0  0  0  0  0  0  0  0  0
  162.3320  210.1150  150.5980 O   0  0  0  0  0  0  0  0  0  0  0  0
  162.0180  209.7530  152.8960 C   0  0  1  0  0  3  0  0  0  0  0  0
  163.0240  210.7020  153.1030 O   0  0  0  0  0  1  0  0  0  0  0  0
  160.6790  210.1930  153.4420 C   0  0  0  0  0  0  0  0  0  0  0  0
  157.8630  211.5200  153.9850 C   0  0  0  0  0  3  0  0  0  0  0  0
  160.1130  209.4780  154.6600 C   0  0  2  0  0  3  0  0  0  0  0  0
  159.9330  210.9790  152.6550 C   0  0  0  0  0  3  0  0  0  0  0  0
  159.2900  210.2740  155.6080 C   0  0  0  0  0  0  0  0  0  0  0  0
  161.1510  208.8220  155.6020 C   0  0  2  0  0  3  0  0  0  0  0  0
  158.3010  211.1130  155.3220 C   0  0  0  0  0  3  0  0  0  0  0  0
  160.5090  208.8770  156.9850 C   0  0  0  0  0  2  0  0  0  0  0  0
  162.3270  209.5720  155.6620 O   0  0  0  0  0  1  0  0  0  0  0  0
  159.5720  209.9340  156.9130 O   0  0  0  0  0  0  0  0  0  0  0  0
  158.5590  211.4600  152.8510 C   0  0  0  0  0  3  0  0  0  0  0  0
  162.1330  206.8270  151.8470 C   0  0  0  0  0  2  0  0  0  0  0  0
  161.1360  206.2340  152.8390 C   0  0  0  0  0  2  0  0  0  0  0  0
  161.2050  204.7150  152.8710 C   0  0  0  0  0  2  0  0  0  0  0  0
  161.2050  202.6790  151.4640 C   0  0  0  0  0  1  0  0  0  0  0  0
  160.8490  204.1480  151.5110 C   0  0  0  0  0  2  0  0  0  0  0  0
  1 16  1  0  0  0  0
  1 31  1  1  0  0  0
  2  3  1  0  0  0  0
  3  1  1  0  0  0  0
  4  3  2  0  0  0  0
  5 11  1  0  0  0  0
  6 10  1  0  0  0  0
  7  5  1  0  0  0  0
  7  8  1  0  0  0  0
  8  6  1  0  0  0  0
 10  2  1  1  0  0  0
 11  9  1  1  0  0  0
 11 12  1  0  0  0  0
 12 10  1  0  0  0  0
 12 13  1  6  0  0  0
 15 14  1  0  0  0  0
 15 13  1  0  0  0  0
 16 18  1  0  0  0  0
 17 16  2  0  0  0  0
 18 19  1  6  0  0  0
 18 20  1  0  0  0  0
 21 26  1  0  0  0  0
 22 20  1  6  0  0  0
 22 25  1  0  0  0  0
 22 24  1  0  0  0  0
 23 30  1  0  0  0  0
 23 20  2  0  0  0  0
 24 29  1  0  0  0  0
 25 28  1  1  0  0  0
 25 27  1  0  0  0  0
 26 24  2  0  0  0  0
 29 27  1  0  0  0  0
 30 21  2  0  0  0  0
 31 32  1  0  0  0  0
 32 33  1  0  0  0  0
 34 35  1  0  0  0  0
 35 33  1  0  0  0  0
M  END
>  <MODEL>
5

>  <REMARK>
 VINA RESULT:      -6.9      2.868      9.031
  Name = 
  11 active torsions:
  status: ('A' for Active; 'I' for Inactive)
    1  A    between atoms: C_3  and  C_11
    2  A    between atoms: N_8  and  C_13
    3  A    between atoms: N_10  and  C_24
    4  A    between atoms: C_11  and  C_16
    5  A    between atoms: C_13  and  C_32
    6  A    between atoms: C_15  and  C_18
    7  A    between atoms: C_16  and  C_18
    8  A    between atoms: C_18  and  C_27
    9  A    between atoms: C_23  and  C_27
   10  A    between atoms: C_23  and  C_34
   11  A    between atoms: C_26  and  C_34
                            x       y       z     vdW  Elec       q    Type
                         _______ _______ _______ _____ _____    ______ ____

>  <TORSDO>
F 11

$$$$
=
 OpenBabel11072413103D

 35 37  0  0  1  0  0  0  0  0999 V2000
  161.9070  209.5380  150.8790 C   0  0  2  0  0  3  0  0  0  0  0  0
  161.4840  211.5470  149.4110 N   0  0  0  0  0  2  0  0  0  0  0  0
  161.8040  210.1590  149.5160 C   0  0  0  0  0  0  0  0  0  0  0  0
  162.0250  209.4780  148.4780 O   0  0  0  0  0  0  0  0  0  0  0  0
  161.3570  212.9650  145.4400 C   0  0  0  0  0  2  0  0  0  0  0  0
  162.6580  213.3560  148.2380 C   0  0  0  0  0  2  0  0  0  0  0  0
  162.5280  213.9110  145.7360 C   0  0  0  0  0  2  0  0  0  0  0  0
  162.5590  214.4480  147.1700 C   0  0  0  0  0  2  0  0  0  0  0  0
  158.9870  212.7460  145.6330 O   0  0  0  0  0  1  0  0  0  0  0  0
  161.5710  212.2690  148.1490 C   0  0  2  0  0  3  0  0  0  0  0  0
  160.1070  213.2860  146.2630 C   0  0  1  0  0  3  0  0  0  0  0  0
  160.1770  212.7620  147.7130 C   0  0  2  0  0  3  0  0  0  0  0  0
  159.6030  213.7820  148.6910 C   0  0  0  0  0  2  0  0  0  0  0  0
  158.0470  213.2890  150.2460 O   0  0  0  0  0  1  0  0  0  0  0  0
  158.1920  213.5160  148.9190 N   0  0  0  0  0  2  0  0  0  0  0  0
  161.4930  208.0890  150.8610 C   0  0  0  0  0  0  0  0  0  0  0  0
  160.3170  207.8210  151.0550 O   0  0  0  0  0  0  0  0  0  0  0  0
  162.4580  206.9480  150.6490 C   0  0  1  0  0  3  0  0  0  0  0  0
  163.3700  206.8570  151.7050 O   0  0  0  0  0  1  0  0  0  0  0  0
  161.7800  205.6310  150.3480 C   0  0  0  0  0  0  0  0  0  0  0  0
  160.5200  202.7330  150.4110 C   0  0  0  0  0  3  0  0  0  0  0  0
  161.0700  205.4590  149.0130 C   0  0  2  0  0  3  0  0  0  0  0  0
  161.5860  204.8000  151.3810 C   0  0  0  0  0  3  0  0  0  0  0  0
  161.0680  204.1040  148.4000 C   0  0  0  0  0  0  0  0  0  0  0  0
  161.5910  206.3400  147.8520 C   0  0  2  0  0  3  0  0  0  0  0  0
  160.7910  202.9460  148.9870 C   0  0  0  0  0  3  0  0  0  0  0  0
  161.3270  205.5190  146.5940 C   0  0  0  0  0  2  0  0  0  0  0  0
  162.9720  206.5300  147.9390 O   0  0  0  0  0  1  0  0  0  0  0  0
  161.2560  204.1780  147.0380 O   0  0  0  0  0  0  0  0  0  0  0  0
  160.8580  203.5250  151.4280 C   0  0  0  0  0  3  0  0  0  0  0  0
  161.2170  210.3380  151.9860 C   0  0  0  0  0  2  0  0  0  0  0  0
  161.7330  209.9750  153.3770 C   0  0  0  0  0  2  0  0  0  0  0  0
  160.6280  209.4240  154.2640 C   0  0  0  0  0  2  0  0  0  0  0  0
  160.8470  206.9600  154.3560 C   0  0  0  0  0  1  0  0  0  0  0  0
  161.1460  208.2550  155.0780 C   0  0  0  0  0  2  0  0  0  0  0  0
  1 31  1  1  0  0  0
  2  3  1  0  0  0  0
  3  1  1  0  0  0  0
  4  3  2  0  0  0  0
  5  7  1  0  0  0  0
  5 11  1  0  0  0  0
  7  8  1  0  0  0  0
  8  6  1  0  0  0  0
 10  6  1  0  0  0  0
 10  2  1  1  0  0  0
 11  9  1  6  0  0  0
 11 12  1  0  0  0  0
 12 10  1  0  0  0  0
 12 13  1  1  0  0  0
 13 15  1  0  0  0  0
 15 14  1  0  0  0  0
 16  1  1  0  0  0  0
 16 17  2  0  0  0  0
 18 16  1  0  0  0  0
 18 19  1  1  0  0  0
 20 18  1  0  0  0  0
 20 23  2  0  0  0  0
 21 30  2  0  0  0  0
 22 24  1  6  0  0  0
 22 20  1  0  0  0  0
 23 30  1  0  0  0  0
 24 26  2  0  0  0  0
 25 28  1  1  0  0  0
 25 22  1  0  0  0  0
 26 21  1  0  0  0  0
 27 29  1  0  0  0  0
 27 25  1  0  0  0  0
 29 24  1  0  0  0  0
 31 32  1  0  0  0  0
 32 33  1  0  0  0  0
 33 35  1  0  0  0  0
 34 35  1  0  0  0  0
M  END
>  <MODEL>
6

>  <REMARK>
 VINA RESULT:      -6.9      2.816      6.187
  Name = 
  11 active torsions:
  status: ('A' for Active; 'I' for Inactive)
    1  A    between atoms: C_3  and  C_11
    2  A    between atoms: N_8  and  C_13
    3  A    between atoms: N_10  and  C_24
    4  A    between atoms: C_11  and  C_16
    5  A    between atoms: C_13  and  C_32
    6  A    between atoms: C_15  and  C_18
    7  A    between atoms: C_16  and  C_18
    8  A    between atoms: C_18  and  C_27
    9  A    between atoms: C_23  and  C_27
   10  A    between atoms: C_23  and  C_34
   11  A    between atoms: C_26  and  C_34
                            x       y       z     vdW  Elec       q    Type
                         _______ _______ _______ _____ _____    ______ ____

>  <TORSDO>
F 11

$$$$
=
 OpenBabel11072413103D

 35 37  0  0  1  0  0  0  0  0999 V2000
  161.6270  208.2950  150.0110 C   0  0  2  0  0  3  0  0  0  0  0  0
  160.8870  208.2030  152.4220 N   0  0  0  0  0  2  0  0  0  0  0  0
  161.7650  208.7470  151.4360 C   0  0  0  0  0  0  0  0  0  0  0  0
  162.6600  209.5710  151.7670 O   0  0  0  0  0  0  0  0  0  0  0  0
  162.0960  209.3480  156.2990 C   0  0  0  0  0  2  0  0  0  0  0  0
  160.4420  207.2890  154.6570 C   0  0  0  0  0  2  0  0  0  0  0  0
  161.4550  208.0800  156.8780 C   0  0  0  0  0  2  0  0  0  0  0  0
  160.2010  207.6100  156.1330 C   0  0  0  0  0  2  0  0  0  0  0  0
  161.6130  211.5770  155.5920 O   0  0  0  0  0  1  0  0  0  0  0  0
  161.0900  208.4270  153.8470 C   0  0  2  0  0  3  0  0  0  0  0  0
  161.0780  210.2910  155.6530 C   0  0  1  0  0  3  0  0  0  0  0  0
  160.6470  209.8510  154.2380 C   0  0  2  0  0  3  0  0  0  0  0  0
  159.1490  210.0560  154.0340 C   0  0  0  0  0  2  0  0  0  0  0  0
  160.1300  211.5830  152.6980 O   0  0  0  0  0  1  0  0  0  0  0  0
  158.9180  211.0770  153.0260 N   0  0  0  0  0  2  0  0  0  0  0  0
  161.9910  206.8410  149.8530 C   0  0  0  0  0  0  0  0  0  0  0  0
  163.1590  206.5180  150.0060 O   0  0  0  0  0  0  0  0  0  0  0  0
  160.9970  205.7660  149.4860 C   0  0  1  0  0  3  0  0  0  0  0  0
  159.6840  206.2030  149.6930 O   0  0  0  0  0  1  0  0  0  0  0  0
  161.2100  205.1920  148.1040 C   0  0  0  0  0  0  0  0  0  0  0  0
  161.5400  204.6770  145.0040 C   0  0  0  0  0  3  0  0  0  0  0  0
  161.6800  203.7520  147.9720 C   0  0  2  0  0  3  0  0  0  0  0  0
  161.2600  206.0640  147.0880 C   0  0  0  0  0  3  0  0  0  0  0  0
  161.2070  202.9740  146.7970 C   0  0  0  0  0  0  0  0  0  0  0  0
  161.3210  202.8130  149.1490 C   0  0  2  0  0  3  0  0  0  0  0  0
  161.1880  203.3530  145.5240 C   0  0  0  0  0  3  0  0  0  0  0  0
  161.1830  201.4320  148.5150 C   0  0  0  0  0  2  0  0  0  0  0  0
  160.0790  203.1400  149.6990 O   0  0  0  0  0  1  0  0  0  0  0  0
  160.8980  201.6800  147.1520 O   0  0  0  0  0  0  0  0  0  0  0  0
  161.5720  205.8280  145.6720 C   0  0  0  0  0  3  0  0  0  0  0  0
  162.3310  209.1960  148.9950 C   0  0  0  0  0  2  0  0  0  0  0  0
  161.5100  210.4340  148.6450 C   0  0  0  0  0  2  0  0  0  0  0  0
  162.3330  211.7080  148.7480 C   0  0  0  0  0  2  0  0  0  0  0  0
  160.6110  212.2030  147.0410 C   0  0  0  0  0  1  0  0  0  0  0  0
  161.7450  212.7830  147.8560 C   0  0  0  0  0  2  0  0  0  0  0  0
  1 31  1  6  0  0  0
  1  3  1  0  0  0  0
  3  4  2  0  0  0  0
  3  2  1  0  0  0  0
  5  7  1  0  0  0  0
  6  8  1  0  0  0  0
  8  7  1  0  0  0  0
 10  2  1  6  0  0  0
 10 12  1  0  0  0  0
 10  6  1  0  0  0  0
 11  9  1  6  0  0  0
 11  5  1  0  0  0  0
 12 13  1  1  0  0  0
 12 11  1  0  0  0  0
 14 15  1  0  0  0  0
 15 13  1  0  0  0  0
 16 17  2  0  0  0  0
 16  1  1  0  0  0  0
 18 19  1  6  0  0  0
 18 16  1  0  0  0  0
 20 18  1  0  0  0  0
 21 26  1  0  0  0  0
 21 30  2  0  0  0  0
 22 24  1  6  0  0  0
 22 20  1  0  0  0  0
 22 25  1  0  0  0  0
 23 20  2  0  0  0  0
 24 29  1  0  0  0  0
 25 28  1  6  0  0  0
 26 24  2  0  0  0  0
 27 25  1  0  0  0  0
 29 27  1  0  0  0  0
 30 23  1  0  0  0  0
 32 33  1  0  0  0  0
 32 31  1  0  0  0  0
 34 35  1  0  0  0  0
 35 33  1  0  0  0  0
M  END
>  <MODEL>
7

>  <REMARK>
 VINA RESULT:      -6.7      2.133      3.601
  Name = 
  11 active torsions:
  status: ('A' for Active; 'I' for Inactive)
    1  A    between atoms: C_3  and  C_11
    2  A    between atoms: N_8  and  C_13
    3  A    between atoms: N_10  and  C_24
    4  A    between atoms: C_11  and  C_16
    5  A    between atoms: C_13  and  C_32
    6  A    between atoms: C_15  and  C_18
    7  A    between atoms: C_16  and  C_18
    8  A    between atoms: C_18  and  C_27
    9  A    between atoms: C_23  and  C_27
   10  A    between atoms: C_23  and  C_34
   11  A    between atoms: C_26  and  C_34
                            x       y       z     vdW  Elec       q    Type
                         _______ _______ _______ _____ _____    ______ ____

>  <TORSDO>
F 11

$$$$
=
 OpenBabel11072413103D

 35 37  0  0  1  0  0  0  0  0999 V2000
  161.1880  207.7870  153.7940 C   0  0  2  0  0  3  0  0  0  0  0  0
  159.8540  209.9260  153.6600 N   0  0  0  0  0  2  0  0  0  0  0  0
  160.4780  208.8330  152.9840 C   0  0  0  0  0  0  0  0  0  0  0  0
  160.4560  208.7690  151.7250 O   0  0  0  0  0  0  0  0  0  0  0  0
  157.6000  212.9270  151.7340 C   0  0  0  0  0  2  0  0  0  0  0  0
  160.4430  211.7170  152.0870 C   0  0  0  0  0  2  0  0  0  0  0  0
  158.8300  213.3280  150.9090 C   0  0  0  0  0  2  0  0  0  0  0  0
  160.1650  213.1540  151.6410 C   0  0  0  0  0  2  0  0  0  0  0  0
  156.5430  213.2340  153.8530 O   0  0  0  0  0  1  0  0  0  0  0  0
  159.3330  211.0820  152.9450 C   0  0  2  0  0  3  0  0  0  0  0  0
  157.7900  213.1490  153.2360 C   0  0  1  0  0  3  0  0  0  0  0  0
  158.6210  212.0420  153.9190 C   0  0  2  0  0  3  0  0  0  0  0  0
  159.5860  212.6340  154.9410 C   0  0  0  0  0  2  0  0  0  0  0  0
  158.2350  211.5090  156.3510 O   0  0  0  0  0  1  0  0  0  0  0  0
  158.9760  212.6380  156.2600 N   0  0  0  0  0  2  0  0  0  0  0  0
  161.2450  206.4680  153.0680 C   0  0  0  0  0  0  0  0  0  0  0  0
  160.6420  205.5190  153.5440 O   0  0  0  0  0  0  0  0  0  0  0  0
  162.0340  206.2460  151.8010 C   0  0  1  0  0  3  0  0  0  0  0  0
  163.4070  206.2030  152.0630 O   0  0  0  0  0  1  0  0  0  0  0  0
  161.5580  205.0620  150.9910 C   0  0  0  0  0  0  0  0  0  0  0  0
  160.7950  202.2080  149.8690 C   0  0  0  0  0  3  0  0  0  0  0  0
  160.7820  205.3160  149.7070 C   0  0  2  0  0  3  0  0  0  0  0  0
  161.5850  203.8670  151.5940 C   0  0  0  0  0  3  0  0  0  0  0  0
  160.9520  204.3460  148.5930 C   0  0  0  0  0  0  0  0  0  0  0  0
  161.0580  206.6670  149.0050 C   0  0  2  0  0  3  0  0  0  0  0  0
  160.9140  203.0200  148.6560 C   0  0  0  0  0  3  0  0  0  0  0  0
  160.8320  206.3880  147.5230 C   0  0  0  0  0  2  0  0  0  0  0  0
  162.3930  207.0530  149.1540 O   0  0  0  0  0  1  0  0  0  0  0  0
  161.0160  204.9930  147.3790 O   0  0  0  0  0  0  0  0  0  0  0  0
  161.0790  202.5710  151.1190 C   0  0  0  0  0  3  0  0  0  0  0  0
  160.6760  207.6520  155.2300 C   0  0  0  0  0  2  0  0  0  0  0  0
  161.6330  208.2610  156.2510 C   0  0  0  0  0  2  0  0  0  0  0  0
  160.9950  209.4150  157.0070 C   0  0  0  0  0  2  0  0  0  0  0  0
  162.7000  210.7030  155.7580 C   0  0  0  0  0  1  0  0  0  0  0  0
  161.9500  210.5910  157.0670 C   0  0  0  0  0  2  0  0  0  0  0  0
  1 31  1  1  0  0  0
  3  2  1  0  0  0  0
  3  1  1  0  0  0  0
  4  3  2  0  0  0  0
  5 11  1  0  0  0  0
  6 10  1  0  0  0  0
  7  8  1  0  0  0  0
  7  5  1  0  0  0  0
  8  6  1  0  0  0  0
 10  2  1  1  0  0  0
 10 12  1  0  0  0  0
 11  9  1  1  0  0  0
 11 12  1  0  0  0  0
 12 13  1  6  0  0  0
 13 15  1  0  0  0  0
 15 14  1  0  0  0  0
 16 17  2  0  0  0  0
 16  1  1  0  0  0  0
 18 19  1  1  0  0  0
 18 16  1  0  0  0  0
 20 23  2  0  0  0  0
 20 18  1  0  0  0  0
 21 30  2  0  0  0  0
 22 24  1  6  0  0  0
 22 20  1  0  0  0  0
 24 26  2  0  0  0  0
 25 28  1  6  0  0  0
 25 22  1  0  0  0  0
 26 21  1  0  0  0  0
 27 25  1  0  0  0  0
 29 27  1  0  0  0  0
 29 24  1  0  0  0  0
 30 23  1  0  0  0  0
 31 32  1  0  0  0  0
 32 33  1  0  0  0  0
 33 35  1  0  0  0  0
 34 35  1  0  0  0  0
M  END
>  <MODEL>
8

>  <REMARK>
 VINA RESULT:      -6.6      2.017      4.003
  Name = 
  11 active torsions:
  status: ('A' for Active; 'I' for Inactive)
    1  A    between atoms: C_3  and  C_11
    2  A    between atoms: N_8  and  C_13
    3  A    between atoms: N_10  and  C_24
    4  A    between atoms: C_11  and  C_16
    5  A    between atoms: C_13  and  C_32
    6  A    between atoms: C_15  and  C_18
    7  A    between atoms: C_16  and  C_18
    8  A    between atoms: C_18  and  C_27
    9  A    between atoms: C_23  and  C_27
   10  A    between atoms: C_23  and  C_34
   11  A    between atoms: C_26  and  C_34
                            x       y       z     vdW  Elec       q    Type
                         _______ _______ _______ _____ _____    ______ ____

>  <TORSDO>
F 11

$$$$
=
 OpenBabel11072413103D

 35 37  0  0  1  0  0  0  0  0999 V2000
  161.3070  207.5040  150.3830 C   0  0  2  0  0  3  0  0  0  0  0  0
  160.9450  208.4790  152.6820 N   0  0  0  0  0  2  0  0  0  0  0  0
  161.6310  207.5440  151.8480 C   0  0  0  0  0  0  0  0  0  0  0  0
  162.4720  206.7470  152.3460 O   0  0  0  0  0  0  0  0  0  0  0  0
  161.9810  208.7150  156.7650 C   0  0  0  0  0  2  0  0  0  0  0  0
  160.0530  207.4090  154.7040 C   0  0  0  0  0  2  0  0  0  0  0  0
  160.9880  207.5900  157.0860 C   0  0  0  0  0  2  0  0  0  0  0  0
  159.7440  207.5730  156.1940 C   0  0  0  0  0  2  0  0  0  0  0  0
  162.1420  211.0690  156.3980 O   0  0  0  0  0  1  0  0  0  0  0  0
  161.0450  208.4400  154.1350 C   0  0  2  0  0  3  0  0  0  0  0  0
  161.3030  209.9710  156.2150 C   0  0  1  0  0  3  0  0  0  0  0  0
  160.9280  209.8610  154.7210 C   0  0  2  0  0  3  0  0  0  0  0  0
  159.5590  210.4770  154.4540 C   0  0  0  0  0  2  0  0  0  0  0  0
  157.7370  210.7040  155.7600 O   0  0  0  0  0  1  0  0  0  0  0  0
  159.0350  211.0780  155.6680 N   0  0  0  0  0  2  0  0  0  0  0  0
  160.8490  206.1330  149.9540 C   0  0  0  0  0  0  0  0  0  0  0  0
  159.6610  205.9650  149.7290 O   0  0  0  0  0  0  0  0  0  0  0  0
  161.7740  204.9490  149.8180 C   0  0  1  0  0  3  0  0  0  0  0  0
  161.9560  204.3070  151.0480 O   0  0  0  0  0  1  0  0  0  0  0  0
  161.3770  203.9940  148.7150 C   0  0  0  0  0  0  0  0  0  0  0  0
  160.4600  201.5330  146.9580 C   0  0  0  0  0  3  0  0  0  0  0  0
  161.2060  204.5350  147.3040 C   0  0  2  0  0  3  0  0  0  0  0  0
  160.9100  202.7960  149.0910 C   0  0  0  0  0  3  0  0  0  0  0  0
  161.5510  203.6340  146.1720 C   0  0  0  0  0  0  0  0  0  0  0  0
  162.0170  205.8080  146.9640 C   0  0  2  0  0  3  0  0  0  0  0  0
  161.1960  202.3660  146.0040 C   0  0  0  0  0  3  0  0  0  0  0  0
  162.2960  205.7030  145.4680 C   0  0  0  0  0  2  0  0  0  0  0  0
  163.2530  205.8110  147.6160 O   0  0  0  0  0  1  0  0  0  0  0  0
  162.2010  204.3230  145.1720 O   0  0  0  0  0  0  0  0  0  0  0  0
  160.3380  201.7190  148.2710 C   0  0  0  0  0  3  0  0  0  0  0  0
  162.4070  208.0690  149.4820 C   0  0  0  0  0  2  0  0  0  0  0  0
  161.9550  209.3130  148.7210 C   0  0  0  0  0  2  0  0  0  0  0  0
  162.1300  210.5770  149.5470 C   0  0  0  0  0  2  0  0  0  0  0  0
  161.2070  211.8300  147.6220 C   0  0  0  0  0  1  0  0  0  0  0  0
  162.3280  211.7730  148.6360 C   0  0  0  0  0  2  0  0  0  0  0  0
  1 31  1  6  0  0  0
  1  3  1  0  0  0  0
  3  4  2  0  0  0  0
  3  2  1  0  0  0  0
  5  7  1  0  0  0  0
  6  8  1  0  0  0  0
  8  7  1  0  0  0  0
 10  2  1  6  0  0  0
 10  6  1  0  0  0  0
 10 12  1  0  0  0  0
 11  9  1  6  0  0  0
 11  5  1  0  0  0  0
 12 13  1  1  0  0  0
 12 11  1  0  0  0  0
 13 15  1  0  0  0  0
 15 14  1  0  0  0  0
 16  1  1  0  0  0  0
 17 16  2  0  0  0  0
 18 16  1  0  0  0  0
 18 19  1  1  0  0  0
 20 23  2  0  0  0  0
 20 18  1  0  0  0  0
 21 30  2  0  0  0  0
 22 24  1  6  0  0  0
 22 20  1  0  0  0  0
 25 22  1  0  0  0  0
 25 28  1  1  0  0  0
 26 24  2  0  0  0  0
 26 21  1  0  0  0  0
 27 25  1  0  0  0  0
 29 27  1  0  0  0  0
 29 24  1  0  0  0  0
 30 23  1  0  0  0  0
 32 31  1  0  0  0  0
 32 33  1  0  0  0  0
 34 35  1  0  0  0  0
 35 33  1  0  0  0  0
M  END
>  <MODEL>
9

>  <REMARK>
 VINA RESULT:      -6.6      1.925      2.988
  Name = 
  11 active torsions:
  status: ('A' for Active; 'I' for Inactive)
    1  A    between atoms: C_3  and  C_11
    2  A    between atoms: N_8  and  C_13
    3  A    between atoms: N_10  and  C_24
    4  A    between atoms: C_11  and  C_16
    5  A    between atoms: C_13  and  C_32
    6  A    between atoms: C_15  and  C_18
    7  A    between atoms: C_16  and  C_18
    8  A    between atoms: C_18  and  C_27
    9  A    between atoms: C_23  and  C_27
   10  A    between atoms: C_23  and  C_34
   11  A    between atoms: C_26  and  C_34
                            x       y       z     vdW  Elec       q    Type
                         _______ _______ _______ _____ _____    ______ ____

>  <TORSDO>
F 11

$$$$
