=
 OpenBabel11072411313D

 52 55  0  0  1  0  0  0  0  0999 V2000
  162.0020  206.8170  142.3450 O   0  0  0  0  0  0  0  0  0  0  0  0
  162.6550  206.2590  137.7620 C   0  0  0  0  0  2  0  0  0  0  0  0
  161.7670  208.5010  140.6780 C   0  0  0  0  0  2  0  0  0  0  0  0
  163.0530  206.3940  140.2490 C   0  0  0  0  0  2  0  0  0  0  0  0
  161.8620  207.0100  140.9690 C   0  0  1  0  0  3  0  0  0  0  0  0
  162.5730  205.5270  139.0960 C   0  0  0  0  0  2  0  0  0  0  0  0
  161.1270  208.7520  139.3160 C   0  0  2  0  0  3  0  0  0  0  0  0
  162.0610  208.5060  138.3070 O   0  0  0  0  0  0  0  0  0  0  0  0
  161.6060  207.3550  137.6590 C   0  0  0  0  0  2  0  0  0  0  0  0
  160.6820  210.1360  139.2280 N   0  0  0  0  0  2  0  0  0  0  0  0
  158.4040  209.6230  139.1960 O   0  0  0  0  0  0  0  0  0  0  0  0
  159.3020  210.5040  139.1830 C   0  0  0  0  0  0  0  0  0  0  0  0
  158.9210  211.9470  139.1440 C   0  0  0  0  0  2  0  0  0  0  0  0
  159.3540  212.6700  140.4160 C   0  0  1  0  0  3  0  0  0  0  0  0
  157.0880  213.4030  140.3880 O   0  0  0  0  0  0  0  0  0  0  0  0
  158.3640  214.2380  142.1040 O   0  0  0  0  0  1  0  0  0  0  0  0
  158.2090  213.4570  140.9610 C   0  0  0  0  0  0  0  0  0  0  0  0
  159.8590  211.6880  141.4640 C   0  0  0  0  0  2  0  0  0  0  0  0
  160.2260  212.3530  144.2300 N   0  0  0  0  0  0  0  0  0  0  0  0
  160.3230  212.6460  145.6000 N   0  0  0  0  0  2  0  0  0  0  0  0
  161.2320  212.5170  143.4190 C   0  0  0  0  0  0  0  0  0  0  0  0
  161.1030  212.1810  142.0380 N   0  0  0  0  0  2  0  0  0  0  0  0
  161.5580  213.0800  146.1700 C   0  0  0  0  0  0  0  0  0  0  0  0
  162.6140  213.2720  145.3870 C   0  0  0  0  0  3  0  0  0  0  0  0
  162.5420  213.0880  143.8980 C   0  0  0  0  0  2  0  0  0  0  0  0
  161.7570  213.4250  148.7320 N   0  0  0  0  0  0  0  0  0  0  0  0
  161.6690  213.2720  147.5880 C   0  0  0  0  0  0  0  0  0  0  0  0
  161.6650  205.4780  142.5530 C   0  0  0  0  0  2  0  0  0  0  0  0
  162.4350  204.7100  146.8720 O   0  0  0  0  0  0  0  0  0  0  0  0
  161.3020  204.3520  144.7130 N   0  0  0  0  0  0  0  0  0  0  0  0
  160.9640  202.2730  145.7470 O   0  0  0  0  0  0  0  0  0  0  0  0
  161.8370  206.9250  148.8210 C   0  0  0  0  0  1  0  0  0  0  0  0
  160.7760  205.3530  143.7790 C   0  0  1  0  0  3  0  0  0  0  0  0
  160.5680  203.1290  144.9110 C   0  0  0  0  0  0  0  0  0  0  0  0
  160.8380  206.2940  147.8660 C   0  0  2  0  0  3  0  0  0  0  0  0
  161.1910  204.8300  147.5540 C   0  0  2  0  0  3  0  0  0  0  0  0
  160.6090  206.7140  144.4490 C   0  0  0  0  0  2  0  0  0  0  0  0
  159.9110  206.5900  145.6540 O   0  0  0  0  0  0  0  0  0  0  0  0
  162.4900  204.6230  145.4790 C   0  0  0  0  0  0  0  0  0  0  0  0
  163.5860  204.8200  144.8910 O   0  0  0  0  0  0  0  0  0  0  0  0
  160.7700  207.1510  146.6040 C   0  0  0  0  0  2  0  0  0  0  0  0
  159.3890  202.8650  144.1560 N   0  0  0  0  0  1  0  0  0  0  0  0
  161.1570  203.1760  150.7880 C   0  0  0  0  0  0  0  0  0  0  0  0
  160.9790  202.1060  149.9870 N   0  0  0  0  0  0  0  0  0  0  0  0
  161.2630  204.3530  150.0760 C   0  0  0  0  0  2  0  0  0  0  0  0
  161.1540  203.9470  148.7600 C   0  0  0  0  0  0  0  0  0  0  0  0
  160.9780  202.5790  148.7270 C   0  0  0  0  0  3  0  0  0  0  0  0
  161.1650  203.0890  152.2780 C   0  0  0  0  0  2  0  0  0  0  0  0
  160.3900  204.2470  152.8930 C   0  0  0  0  0  2  0  0  0  0  0  0
  160.9240  206.2810  154.2320 O   0  0  0  0  0  1  0  0  0  0  0  0
  161.3070  205.3640  153.2650 C   0  0  0  0  0  0  0  0  0  0  0  0
  162.4100  205.4990  152.6720 O   0  0  0  0  0  0  0  0  0  0  0  0
  1 28  1  0  0  0  0
  2  6  1  0  0  0  0
  3  5  1  0  0  0  0
  4  5  1  0  0  0  0
  5  1  1  1  0  0  0
  6  4  1  0  0  0  0
  7 10  1  1  0  0  0
  7  3  1  0  0  0  0
  8  7  1  0  0  0  0
  9  2  1  0  0  0  0
  9  8  1  0  0  0  0
 12 11  2  0  0  0  0
 12 10  1  0  0  0  0
 13 12  1  0  0  0  0
 14 13  1  6  0  0  0
 14 17  1  0  0  0  0
 14 18  1  0  0  0  0
 15 17  2  0  0  0  0
 17 16  1  0  0  0  0
 18 22  1  0  0  0  0
 19 20  1  0  0  0  0
 20 23  1  0  0  0  0
 21 25  1  0  0  0  0
 21 19  2  0  0  0  0
 22 21  1  0  0  0  0
 23 27  1  0  0  0  0
 24 23  2  0  0  0  0
 25 24  1  0  0  0  0
 27 26  3  0  0  0  0
 29 36  1  0  0  0  0
 30 34  1  0  0  0  0
 30 39  1  0  0  0  0
 33 28  1  6  0  0  0
 33 37  1  0  0  0  0
 33 30  1  0  0  0  0
 34 31  2  0  0  0  0
 35 32  1  1  0  0  0
 36 35  1  0  0  0  0
 36 46  1  1  0  0  0
 37 38  1  0  0  0  0
 38 41  1  0  0  0  0
 39 29  1  0  0  0  0
 40 39  2  0  0  0  0
 41 35  1  0  0  0  0
 42 34  1  0  0  0  0
 43 48  1  0  0  0  0
 44 43  2  0  0  0  0
 45 43  1  0  0  0  0
 46 45  1  0  0  0  0
 47 46  2  0  0  0  0
 47 44  1  0  0  0  0
 48 49  1  0  0  0  0
 49 51  1  0  0  0  0
 51 50  1  0  0  0  0
 52 51  2  0  0  0  0
M  END
>  <MODEL>
1

>  <REMARK>
 VINA RESULT:      -4.1      0.000      0.000
  Name = 
  14 active torsions:
  status: ('A' for Active; 'I' for Inactive)
    1  A    between atoms: C_10  and  C_50
    2  A    between atoms: N_11  and  C_39
    3  A    between atoms: C_12  and  C_27
    4  A    between atoms: O_16  and  C_17
    5  A    between atoms: O_16  and  C_50
    6  A    between atoms: C_18  and  N_22
    7  A    between atoms: C_18  and  C_32
    8  A    between atoms: C_25  and  C_31
    9  A    between atoms: C_26  and  C_35
   10  A    between atoms: C_27  and  C_52
   11  A    between atoms: C_28  and  C_52
   12  A    between atoms: C_32  and  C_43
   13  A    between atoms: C_32  and  C_49
   14  A    between atoms: C_49  and  C_51
                            x       y       z     vdW  Elec       q    Type
                         _______ _______ _______ _____ _____    ______ ____

>  <TORSDO>
F 14

$$$$
=
 OpenBabel11072411313D

 52 55  0  0  1  0  0  0  0  0999 V2000
  162.2760  209.4200  153.1900 O   0  0  0  0  0  0  0  0  0  0  0  0
  160.1060  210.5200  157.1680 C   0  0  0  0  0  2  0  0  0  0  0  0
  160.5660  211.0570  153.4510 C   0  0  0  0  0  2  0  0  0  0  0  0
  160.9310  209.2530  155.1500 C   0  0  0  0  0  2  0  0  0  0  0  0
  161.5990  210.1810  154.1460 C   0  0  1  0  0  3  0  0  0  0  0  0
  161.2450  209.7060  156.5670 C   0  0  0  0  0  2  0  0  0  0  0  0
  160.1640  212.2330  154.3350 C   0  0  2  0  0  3  0  0  0  0  0  0
  159.2820  211.7950  155.3260 O   0  0  0  0  0  0  0  0  0  0  0  0
  159.9970  211.8930  156.5220 C   0  0  0  0  0  2  0  0  0  0  0  0
  159.5080  213.2550  153.5290 N   0  0  0  0  0  2  0  0  0  0  0  0
  157.5380  212.0410  153.2140 O   0  0  0  0  0  0  0  0  0  0  0  0
  158.1870  213.1000  153.0090 C   0  0  0  0  0  0  0  0  0  0  0  0
  157.5600  214.2110  152.2340 C   0  0  0  0  0  2  0  0  0  0  0  0
  157.1980  213.7660  150.8200 C   0  0  1  0  0  3  0  0  0  0  0  0
  155.3950  214.2090  149.3280 O   0  0  0  0  0  0  0  0  0  0  0  0
  154.8810  214.3770  151.5590 O   0  0  0  0  0  1  0  0  0  0  0  0
  155.7820  214.1330  150.5250 C   0  0  0  0  0  0  0  0  0  0  0  0
  158.1260  214.3940  149.7900 C   0  0  0  0  0  2  0  0  0  0  0  0
  159.8030  214.0500  147.4880 N   0  0  0  0  0  0  0  0  0  0  0  0
  160.5670  213.9350  146.3150 N   0  0  0  0  0  2  0  0  0  0  0  0
  160.1960  213.5360  148.6180 C   0  0  0  0  0  0  0  0  0  0  0  0
  159.4050  213.7000  149.7940 N   0  0  0  0  0  2  0  0  0  0  0  0
  161.8450  213.2970  146.3340 C   0  0  0  0  0  0  0  0  0  0  0  0
  162.2920  212.7490  147.4590 C   0  0  0  0  0  3  0  0  0  0  0  0
  161.4710  212.7370  148.7160 C   0  0  0  0  0  2  0  0  0  0  0  0
  163.3180  213.2710  144.2010 N   0  0  0  0  0  0  0  0  0  0  0  0
  162.6600  213.2820  145.1530 C   0  0  0  0  0  0  0  0  0  0  0  0
  162.1870  208.1060  153.6540 C   0  0  0  0  0  2  0  0  0  0  0  0
  162.5510  204.6460  150.8740 O   0  0  0  0  0  0  0  0  0  0  0  0
  161.8060  206.8990  151.5420 N   0  0  0  0  0  0  0  0  0  0  0  0
  161.8010  207.1000  149.2040 O   0  0  0  0  0  0  0  0  0  0  0  0
  161.2400  202.0570  151.6760 C   0  0  0  0  0  1  0  0  0  0  0  0
  161.1990  207.3240  152.8070 C   0  0  1  0  0  3  0  0  0  0  0  0
  161.3380  207.4820  150.3120 C   0  0  0  0  0  0  0  0  0  0  0  0
  160.5330  203.3910  151.5090 C   0  0  2  0  0  3  0  0  0  0  0  0
  161.2340  204.2840  150.4710 C   0  0  2  0  0  3  0  0  0  0  0  0
  160.6550  206.1350  153.5960 C   0  0  0  0  0  2  0  0  0  0  0  0
  159.8530  205.3270  152.7840 O   0  0  0  0  0  0  0  0  0  0  0  0
  162.8000  205.8570  151.5230 C   0  0  0  0  0  0  0  0  0  0  0  0
  163.8920  206.0190  152.1290 O   0  0  0  0  0  0  0  0  0  0  0  0
  160.4410  204.0620  152.8770 C   0  0  0  0  0  2  0  0  0  0  0  0
  160.3510  208.5100  150.3310 N   0  0  0  0  0  1  0  0  0  0  0  0
  161.5020  203.3480  146.9710 C   0  0  0  0  0  0  0  0  0  0  0  0
  160.9380  202.2260  147.4600 N   0  0  0  0  0  0  0  0  0  0  0  0
  161.7200  204.2970  147.9490 C   0  0  0  0  0  2  0  0  0  0  0  0
  161.2370  203.6960  149.0960 C   0  0  0  0  0  0  0  0  0  0  0  0
  160.7700  202.4370  148.7790 C   0  0  0  0  0  3  0  0  0  0  0  0
  161.9050  203.5050  145.5420 C   0  0  0  0  0  2  0  0  0  0  0  0
  162.3030  204.9440  145.2460 C   0  0  0  0  0  2  0  0  0  0  0  0
  160.1060  206.1160  145.1370 O   0  0  0  0  0  1  0  0  0  0  0  0
  161.2320  205.6460  144.4790 C   0  0  0  0  0  0  0  0  0  0  0  0
  161.3300  205.7730  143.2300 O   0  0  0  0  0  0  0  0  0  0  0  0
  1 28  1  0  0  0  0
  3  5  1  0  0  0  0
  3  7  1  0  0  0  0
  4  6  1  0  0  0  0
  5  1  1  6  0  0  0
  5  4  1  0  0  0  0
  6  2  1  0  0  0  0
  7 10  1  6  0  0  0
  7  8  1  0  0  0  0
  8  9  1  0  0  0  0
  9  2  1  0  0  0  0
 12 11  2  0  0  0  0
 12 10  1  0  0  0  0
 13 12  1  0  0  0  0
 14 18  1  6  0  0  0
 14 13  1  0  0  0  0
 15 17  2  0  0  0  0
 17 14  1  0  0  0  0
 17 16  1  0  0  0  0
 18 22  1  0  0  0  0
 19 21  2  0  0  0  0
 20 23  1  0  0  0  0
 20 19  1  0  0  0  0
 21 25  1  0  0  0  0
 21 22  1  0  0  0  0
 23 24  2  0  0  0  0
 24 25  1  0  0  0  0
 26 27  3  0  0  0  0
 27 23  1  0  0  0  0
 29 39  1  0  0  0  0
 30 33  1  0  0  0  0
 31 34  2  0  0  0  0
 33 37  1  0  0  0  0
 33 28  1  1  0  0  0
 34 42  1  0  0  0  0
 34 30  1  0  0  0  0
 35 32  1  1  0  0  0
 35 41  1  0  0  0  0
 36 46  1  6  0  0  0
 36 29  1  0  0  0  0
 36 35  1  0  0  0  0
 38 41  1  0  0  0  0
 38 37  1  0  0  0  0
 39 30  1  0  0  0  0
 39 40  2  0  0  0  0
 43 44  2  0  0  0  0
 43 45  1  0  0  0  0
 44 47  1  0  0  0  0
 45 46  1  0  0  0  0
 47 46  2  0  0  0  0
 48 43  1  0  0  0  0
 49 48  1  0  0  0  0
 51 50  1  0  0  0  0
 51 49  1  0  0  0  0
 52 51  2  0  0  0  0
M  END
>  <MODEL>
2

>  <REMARK>
 VINA RESULT:      -4.0      4.063      9.781
  Name = 
  14 active torsions:
  status: ('A' for Active; 'I' for Inactive)
    1  A    between atoms: C_10  and  C_50
    2  A    between atoms: N_11  and  C_39
    3  A    between atoms: C_12  and  C_27
    4  A    between atoms: O_16  and  C_17
    5  A    between atoms: O_16  and  C_50
    6  A    between atoms: C_18  and  N_22
    7  A    between atoms: C_18  and  C_32
    8  A    between atoms: C_25  and  C_31
    9  A    between atoms: C_26  and  C_35
   10  A    between atoms: C_27  and  C_52
   11  A    between atoms: C_28  and  C_52
   12  A    between atoms: C_32  and  C_43
   13  A    between atoms: C_32  and  C_49
   14  A    between atoms: C_49  and  C_51
                            x       y       z     vdW  Elec       q    Type
                         _______ _______ _______ _____ _____    ______ ____

>  <TORSDO>
F 14

$$$$
=
 OpenBabel11072411313D

 52 55  0  0  1  0  0  0  0  0999 V2000
  161.7830  208.5380  154.4330 O   0  0  0  0  0  0  0  0  0  0  0  0
  159.1860  212.1950  155.7030 C   0  0  0  0  0  2  0  0  0  0  0  0
  160.6190  210.0090  152.9670 C   0  0  0  0  0  2  0  0  0  0  0  0
  160.0390  209.8420  155.3980 C   0  0  0  0  0  2  0  0  0  0  0  0
  161.1610  209.7860  154.3720 C   0  0  1  0  0  3  0  0  0  0  0  0
  160.1400  211.1230  156.2120 C   0  0  0  0  0  2  0  0  0  0  0  0
  160.3900  211.4930  152.6990 C   0  0  2  0  0  3  0  0  0  0  0  0
  159.2170  211.9090  153.3330 O   0  0  0  0  0  0  0  0  0  0  0  0
  159.6350  212.7560  154.3630 C   0  0  0  0  0  2  0  0  0  0  0  0
  160.2650  211.7230  151.2660 N   0  0  0  0  0  2  0  0  0  0  0  0
  160.0870  214.0450  151.4390 O   0  0  0  0  0  0  0  0  0  0  0  0
  160.1280  213.0270  150.7000 C   0  0  0  0  0  0  0  0  0  0  0  0
  160.0570  213.1880  149.2180 C   0  0  0  0  0  2  0  0  0  0  0  0
  161.4030  213.6180  148.6400 C   0  0  1  0  0  3  0  0  0  0  0  0
  163.4800  212.5290  148.2300 O   0  0  0  0  0  1  0  0  0  0  0  0
  161.6370  211.1610  148.2010 O   0  0  0  0  0  0  0  0  0  0  0  0
  162.2300  212.4130  148.3420 C   0  0  0  0  0  0  0  0  0  0  0  0
  161.2200  214.4530  147.3800 C   0  0  0  0  0  2  0  0  0  0  0  0
  161.9200  213.3920  144.8090 N   0  0  0  0  0  0  0  0  0  0  0  0
  162.3480  212.8920  143.5680 N   0  0  0  0  0  2  0  0  0  0  0  0
  160.6810  213.2910  145.2000 C   0  0  0  0  0  0  0  0  0  0  0  0
  160.2910  213.7860  146.4800 N   0  0  0  0  0  2  0  0  0  0  0  0
  161.4460  212.1930  142.7100 C   0  0  0  0  0  0  0  0  0  0  0  0
  160.1700  212.0680  143.0560 C   0  0  0  0  0  3  0  0  0  0  0  0
  159.6250  212.6810  144.3140 C   0  0  0  0  0  2  0  0  0  0  0  0
  162.3100  211.1150  140.5150 N   0  0  0  0  0  0  0  0  0  0  0  0
  161.9240  211.5960  141.4950 C   0  0  0  0  0  0  0  0  0  0  0  0
  162.2260  208.2960  153.1310 C   0  0  0  0  0  2  0  0  0  0  0  0
  162.5250  204.5020  150.8180 O   0  0  0  0  0  0  0  0  0  0  0  0
  161.8160  206.8330  151.1930 N   0  0  0  0  0  0  0  0  0  0  0  0
  161.8000  206.7310  148.8490 O   0  0  0  0  0  0  0  0  0  0  0  0
  161.1830  202.0570  151.9510 C   0  0  0  0  0  1  0  0  0  0  0  0
  161.2210  207.4250  152.3950 C   0  0  1  0  0  3  0  0  0  0  0  0
  161.3480  207.2600  149.9000 C   0  0  0  0  0  0  0  0  0  0  0  0
  160.4930  203.3680  151.6170 C   0  0  2  0  0  3  0  0  0  0  0  0
  161.2000  204.1100  150.4700 C   0  0  2  0  0  3  0  0  0  0  0  0
  160.6660  206.3570  153.3330 C   0  0  0  0  0  2  0  0  0  0  0  0
  159.8480  205.4630  152.6350 O   0  0  0  0  0  0  0  0  0  0  0  0
  162.7950  205.7830  151.3050 C   0  0  0  0  0  0  0  0  0  0  0  0
  163.8930  206.0050  151.8800 O   0  0  0  0  0  0  0  0  0  0  0  0
  160.4190  204.2120  152.8870 C   0  0  0  0  0  2  0  0  0  0  0  0
  160.3760  208.2960  149.7910 N   0  0  0  0  0  1  0  0  0  0  0  0
  161.2350  202.7820  147.0890 C   0  0  0  0  0  0  0  0  0  0  0  0
  161.1290  201.6300  147.7810 N   0  0  0  0  0  0  0  0  0  0  0  0
  161.2850  203.8880  147.9130 C   0  0  0  0  0  2  0  0  0  0  0  0
  161.1870  203.3500  149.1820 C   0  0  0  0  0  0  0  0  0  0  0  0
  161.0970  201.9770  149.0810 C   0  0  0  0  0  3  0  0  0  0  0  0
  161.3550  202.8350  145.6020 C   0  0  0  0  0  2  0  0  0  0  0  0
  160.6670  204.0730  145.0450 C   0  0  0  0  0  2  0  0  0  0  0  0
  161.3950  205.9370  143.5590 O   0  0  0  0  0  0  0  0  0  0  0  0
  161.6690  205.0970  144.6280 C   0  0  0  0  0  0  0  0  0  0  0  0
  162.7790  205.1710  145.2170 O   0  0  0  0  0  1  0  0  0  0  0  0
  2  6  1  0  0  0  0
  3  5  1  0  0  0  0
  4  6  1  0  0  0  0
  5  1  1  6  0  0  0
  5  4  1  0  0  0  0
  7 10  1  6  0  0  0
  7  3  1  0  0  0  0
  7  8  1  0  0  0  0
  8  9  1  0  0  0  0
  9  2  1  0  0  0  0
 12 10  1  0  0  0  0
 12 11  2  0  0  0  0
 13 12  1  0  0  0  0
 14 18  1  6  0  0  0
 14 13  1  0  0  0  0
 15 17  1  0  0  0  0
 16 17  2  0  0  0  0
 17 14  1  0  0  0  0
 19 21  2  0  0  0  0
 20 19  1  0  0  0  0
 21 22  1  0  0  0  0
 22 18  1  0  0  0  0
 23 24  2  0  0  0  0
 23 20  1  0  0  0  0
 24 25  1  0  0  0  0
 25 21  1  0  0  0  0
 26 27  3  0  0  0  0
 27 23  1  0  0  0  0
 28  1  1  0  0  0  0
 29 39  1  0  0  0  0
 30 39  1  0  0  0  0
 30 33  1  0  0  0  0
 31 34  2  0  0  0  0
 33 28  1  1  0  0  0
 33 37  1  0  0  0  0
 34 30  1  0  0  0  0
 35 32  1  1  0  0  0
 35 41  1  0  0  0  0
 36 46  1  6  0  0  0
 36 29  1  0  0  0  0
 36 35  1  0  0  0  0
 38 41  1  0  0  0  0
 38 37  1  0  0  0  0
 39 40  2  0  0  0  0
 42 34  1  0  0  0  0
 43 44  2  0  0  0  0
 43 45  1  0  0  0  0
 44 47  1  0  0  0  0
 45 46  1  0  0  0  0
 47 46  2  0  0  0  0
 48 43  1  0  0  0  0
 49 48  1  0  0  0  0
 50 51  2  0  0  0  0
 51 49  1  0  0  0  0
 51 52  1  0  0  0  0
M  END
>  <MODEL>
3

>  <REMARK>
 VINA RESULT:      -3.7      3.460      9.188
  Name = 
  14 active torsions:
  status: ('A' for Active; 'I' for Inactive)
    1  A    between atoms: C_10  and  C_50
    2  A    between atoms: N_11  and  C_39
    3  A    between atoms: C_12  and  C_27
    4  A    between atoms: O_16  and  C_17
    5  A    between atoms: O_16  and  C_50
    6  A    between atoms: C_18  and  N_22
    7  A    between atoms: C_18  and  C_32
    8  A    between atoms: C_25  and  C_31
    9  A    between atoms: C_26  and  C_35
   10  A    between atoms: C_27  and  C_52
   11  A    between atoms: C_28  and  C_52
   12  A    between atoms: C_32  and  C_43
   13  A    between atoms: C_32  and  C_49
   14  A    between atoms: C_49  and  C_51
                            x       y       z     vdW  Elec       q    Type
                         _______ _______ _______ _____ _____    ______ ____

>  <TORSDO>
F 14

$$$$
=
 OpenBabel11072411313D

 52 55  0  0  1  0  0  0  0  0999 V2000
  162.2450  208.3330  153.6460 O   0  0  0  0  0  0  0  0  0  0  0  0
  159.3340  210.4830  156.5860 C   0  0  0  0  0  2  0  0  0  0  0  0
  160.7730  210.1250  153.1050 C   0  0  0  0  0  2  0  0  0  0  0  0
  160.4460  208.7270  155.1580 C   0  0  0  0  0  2  0  0  0  0  0  0
  161.4670  209.3450  154.2130 C   0  0  1  0  0  3  0  0  0  0  0  0
  160.4590  209.4600  156.4900 C   0  0  0  0  0  2  0  0  0  0  0  0
  160.3350  211.5000  153.5980 C   0  0  2  0  0  3  0  0  0  0  0  0
  159.1820  211.3740  154.3760 O   0  0  0  0  0  0  0  0  0  0  0  0
  159.5840  211.6780  155.6800 C   0  0  0  0  0  2  0  0  0  0  0  0
  160.0510  212.3650  152.4610 N   0  0  0  0  0  2  0  0  0  0  0  0
  158.7980  213.9140  153.6810 O   0  0  0  0  0  0  0  0  0  0  0  0
  159.2850  213.5650  152.5730 C   0  0  0  0  0  0  0  0  0  0  0  0
  159.0770  214.4280  151.3730 C   0  0  0  0  0  2  0  0  0  0  0  0
  158.6050  213.6080  150.1750 C   0  0  1  0  0  3  0  0  0  0  0  0
  156.5260  213.0380  149.1640 O   0  0  0  0  0  0  0  0  0  0  0  0
  156.3800  214.4440  150.9720 O   0  0  0  0  0  1  0  0  0  0  0  0
  157.1180  213.6820  150.0700 C   0  0  0  0  0  0  0  0  0  0  0  0
  159.2460  214.0980  148.8840 C   0  0  0  0  0  2  0  0  0  0  0  0
  160.6210  213.7270  146.3940 N   0  0  0  0  0  0  0  0  0  0  0  0
  161.3650  213.5870  145.2120 N   0  0  0  0  0  2  0  0  0  0  0  0
  159.4390  213.1960  146.5300 C   0  0  0  0  0  0  0  0  0  0  0  0
  158.7260  213.3370  147.7580 N   0  0  0  0  0  2  0  0  0  0  0  0
  160.8740  212.7970  144.1280 C   0  0  0  0  0  0  0  0  0  0  0  0
  159.6710  212.2390  144.2100 C   0  0  0  0  0  3  0  0  0  0  0  0
  158.7800  212.4480  145.4000 C   0  0  0  0  0  2  0  0  0  0  0  0
  162.3520  212.3960  142.0350 N   0  0  0  0  0  0  0  0  0  0  0  0
  161.6930  212.5760  142.9700 C   0  0  0  0  0  0  0  0  0  0  0  0
  161.6480  207.1450  154.0710 C   0  0  0  0  0  2  0  0  0  0  0  0
  162.5300  204.3870  150.6870 O   0  0  0  0  0  0  0  0  0  0  0  0
  161.6030  206.4260  151.7160 N   0  0  0  0  0  0  0  0  0  0  0  0
  161.8950  207.1360  149.4990 O   0  0  0  0  0  0  0  0  0  0  0  0
  161.2440  201.6650  150.7210 C   0  0  0  0  0  1  0  0  0  0  0  0
  160.8150  206.5520  152.9470 C   0  0  1  0  0  3  0  0  0  0  0  0
  161.2740  207.2580  150.5880 C   0  0  0  0  0  0  0  0  0  0  0  0
  160.5050  202.9920  150.7510 C   0  0  2  0  0  3  0  0  0  0  0  0
  161.2950  204.1030  150.0370 C   0  0  2  0  0  3  0  0  0  0  0  0
  160.2270  205.2110  153.3780 C   0  0  0  0  0  2  0  0  0  0  0  0
  159.5770  204.5890  152.3080 O   0  0  0  0  0  0  0  0  0  0  0  0
  162.6360  205.4290  151.6100 C   0  0  0  0  0  0  0  0  0  0  0  0
  163.6310  205.4710  152.3820 O   0  0  0  0  0  0  0  0  0  0  0  0
  160.2040  203.3450  152.2050 C   0  0  0  0  0  2  0  0  0  0  0  0
  160.2470  208.2410  150.6930 N   0  0  0  0  0  1  0  0  0  0  0  0
  162.1800  203.8870  146.5200 C   0  0  0  0  0  0  0  0  0  0  0  0
  161.3270  202.8460  146.6010 N   0  0  0  0  0  0  0  0  0  0  0  0
  162.3360  204.5340  147.7290 C   0  0  0  0  0  2  0  0  0  0  0  0
  161.5050  203.8320  148.5820 C   0  0  0  0  0  0  0  0  0  0  0  0
  160.9040  202.8080  147.8780 C   0  0  0  0  0  3  0  0  0  0  0  0
  162.9180  204.2450  145.2730 C   0  0  0  0  0  2  0  0  0  0  0  0
  162.6500  205.6910  144.8790 C   0  0  0  0  0  2  0  0  0  0  0  0
  160.2760  206.4420  145.0010 O   0  0  0  0  0  1  0  0  0  0  0  0
  161.2920  205.8350  144.2780 C   0  0  0  0  0  0  0  0  0  0  0  0
  161.0560  205.3690  143.1320 O   0  0  0  0  0  0  0  0  0  0  0  0
  1 28  1  0  0  0  0
  3  7  1  0  0  0  0
  3  5  1  0  0  0  0
  4  6  1  0  0  0  0
  5  1  1  6  0  0  0
  5  4  1  0  0  0  0
  6  2  1  0  0  0  0
  7 10  1  6  0  0  0
  7  8  1  0  0  0  0
  8  9  1  0  0  0  0
  9  2  1  0  0  0  0
 10 12  1  0  0  0  0
 12 11  2  0  0  0  0
 13 12  1  0  0  0  0
 14 18  1  6  0  0  0
 14 13  1  0  0  0  0
 15 17  2  0  0  0  0
 17 14  1  0  0  0  0
 17 16  1  0  0  0  0
 19 21  2  0  0  0  0
 20 19  1  0  0  0  0
 21 22  1  0  0  0  0
 22 18  1  0  0  0  0
 23 24  2  0  0  0  0
 23 20  1  0  0  0  0
 24 25  1  0  0  0  0
 25 21  1  0  0  0  0
 26 27  3  0  0  0  0
 27 23  1  0  0  0  0
 29 39  1  0  0  0  0
 30 33  1  0  0  0  0
 31 34  2  0  0  0  0
 33 37  1  0  0  0  0
 33 28  1  1  0  0  0
 34 42  1  0  0  0  0
 34 30  1  0  0  0  0
 35 32  1  1  0  0  0
 35 41  1  0  0  0  0
 36 46  1  6  0  0  0
 36 29  1  0  0  0  0
 36 35  1  0  0  0  0
 38 37  1  0  0  0  0
 39 30  1  0  0  0  0
 39 40  2  0  0  0  0
 41 38  1  0  0  0  0
 43 44  2  0  0  0  0
 43 45  1  0  0  0  0
 44 47  1  0  0  0  0
 45 46  1  0  0  0  0
 47 46  2  0  0  0  0
 48 43  1  0  0  0  0
 49 48  1  0  0  0  0
 51 49  1  0  0  0  0
 51 50  1  0  0  0  0
 52 51  2  0  0  0  0
M  END
>  <MODEL>
4

>  <REMARK>
 VINA RESULT:      -2.6      3.720      9.572
  Name = 
  14 active torsions:
  status: ('A' for Active; 'I' for Inactive)
    1  A    between atoms: C_10  and  C_50
    2  A    between atoms: N_11  and  C_39
    3  A    between atoms: C_12  and  C_27
    4  A    between atoms: O_16  and  C_17
    5  A    between atoms: O_16  and  C_50
    6  A    between atoms: C_18  and  N_22
    7  A    between atoms: C_18  and  C_32
    8  A    between atoms: C_25  and  C_31
    9  A    between atoms: C_26  and  C_35
   10  A    between atoms: C_27  and  C_52
   11  A    between atoms: C_28  and  C_52
   12  A    between atoms: C_32  and  C_43
   13  A    between atoms: C_32  and  C_49
   14  A    between atoms: C_49  and  C_51
                            x       y       z     vdW  Elec       q    Type
                         _______ _______ _______ _____ _____    ______ ____

>  <TORSDO>
F 14

$$$$
=
 OpenBabel11072411313D

 52 55  0  0  1  0  0  0  0  0999 V2000
  162.8860  210.4880  148.8170 O   0  0  0  0  0  0  0  0  0  0  0  0
  162.3720  214.4150  146.3570 C   0  0  0  0  0  2  0  0  0  0  0  0
  161.3970  212.2770  149.3220 C   0  0  0  0  0  2  0  0  0  0  0  0
  163.3530  212.5850  147.7870 C   0  0  0  0  0  2  0  0  0  0  0  0
  162.2790  211.6210  148.2690 C   0  0  1  0  0  3  0  0  0  0  0  0
  163.0420  213.0480  146.3720 C   0  0  0  0  0  2  0  0  0  0  0  0
  160.3540  213.1820  148.6740 C   0  0  2  0  0  3  0  0  0  0  0  0
  160.9540  214.3790  148.2760 O   0  0  0  0  0  0  0  0  0  0  0  0
  160.9460  214.3480  146.8790 C   0  0  0  0  0  2  0  0  0  0  0  0
  159.2930  213.4730  149.6280 N   0  0  0  0  0  2  0  0  0  0  0  0
  157.5470  212.9310  148.1730 O   0  0  0  0  0  0  0  0  0  0  0  0
  157.9070  213.3150  149.3160 C   0  0  0  0  0  0  0  0  0  0  0  0
  156.8770  213.5840  150.3620 C   0  0  0  0  0  2  0  0  0  0  0  0
  157.5030  214.1940  151.6140 C   0  0  1  0  0  3  0  0  0  0  0  0
  155.2470  214.4360  152.3370 O   0  0  0  0  0  0  0  0  0  0  0  0
  156.8140  214.4070  154.0150 O   0  0  0  0  0  1  0  0  0  0  0  0
  156.4600  214.3570  152.6690 C   0  0  0  0  0  0  0  0  0  0  0  0
  158.6440  213.3310  152.1350 C   0  0  0  0  0  2  0  0  0  0  0  0
  160.3730  211.7580  153.7980 N   0  0  0  0  0  0  0  0  0  0  0  0
  161.2880  211.0160  154.5610 N   0  0  0  0  0  2  0  0  0  0  0  0
  159.1160  211.8490  154.1280 C   0  0  0  0  0  0  0  0  0  0  0  0
  158.2230  212.6370  153.3430 N   0  0  0  0  0  2  0  0  0  0  0  0
  160.8820  210.3780  155.7730 C   0  0  0  0  0  0  0  0  0  0  0  0
  159.6110  210.4310  156.1530 C   0  0  0  0  0  3  0  0  0  0  0  0
  158.5620  211.1110  155.3200 C   0  0  0  0  0  2  0  0  0  0  0  0
  162.6340  209.1760  157.2610 N   0  0  0  0  0  0  0  0  0  0  0  0
  161.8520  209.7130  156.5970 C   0  0  0  0  0  0  0  0  0  0  0  0
  162.4640  210.4670  150.1470 C   0  0  0  0  0  2  0  0  0  0  0  0
  162.5460  206.1940  151.4010 O   0  0  0  0  0  0  0  0  0  0  0  0
  161.8990  208.0780  149.9490 N   0  0  0  0  0  0  0  0  0  0  0  0
  161.7200  206.2780  148.4540 O   0  0  0  0  0  0  0  0  0  0  0  0
  161.2490  205.4740  154.0210 C   0  0  0  0  0  1  0  0  0  0  0  0
  161.3980  209.4000  150.3360 C   0  0  1  0  0  3  0  0  0  0  0  0
  161.3500  207.4370  148.7830 C   0  0  0  0  0  0  0  0  0  0  0  0
  160.5580  206.1480  152.8480 C   0  0  2  0  0  3  0  0  0  0  0  0
  161.1950  205.7550  151.5050 C   0  0  2  0  0  3  0  0  0  0  0  0
  160.8930  209.4110  151.7760 C   0  0  0  0  0  2  0  0  0  0  0  0
  160.0160  208.3450  152.0000 O   0  0  0  0  0  0  0  0  0  0  0  0
  162.8680  207.3970  150.7680 C   0  0  0  0  0  0  0  0  0  0  0  0
  164.0060  207.9040  150.9500 O   0  0  0  0  0  0  0  0  0  0  0  0
  160.5840  207.6580  153.0770 C   0  0  0  0  0  2  0  0  0  0  0  0
  160.3880  208.1100  147.9750 N   0  0  0  0  0  1  0  0  0  0  0  0
  160.8840  202.3700  150.2230 C   0  0  0  0  0  0  0  0  0  0  0  0
  161.0260  202.1000  151.5370 N   0  0  0  0  0  2  0  0  0  0  0  0
  160.9210  203.7230  149.9580 C   0  0  0  0  0  3  0  0  0  0  0  0
  161.0820  204.2940  151.2060 C   0  0  0  0  0  0  0  0  0  0  0  0
  161.1480  203.2910  152.1520 C   0  0  0  0  0  3  0  0  0  0  0  0
  160.7720  201.3100  149.1790 C   0  0  0  0  0  2  0  0  0  0  0  0
  159.9130  201.7840  148.0140 C   0  0  0  0  0  2  0  0  0  0  0  0
  160.7840  201.0340  145.8030 O   0  0  0  0  0  0  0  0  0  0  0  0
  160.7440  202.0020  146.7940 C   0  0  0  0  0  0  0  0  0  0  0  0
  161.4410  203.0450  146.6830 O   0  0  0  0  0  1  0  0  0  0  0  0
  1 28  1  0  0  0  0
  2  6  1  0  0  0  0
  2  9  1  0  0  0  0
  4  5  1  0  0  0  0
  5  1  1  1  0  0  0
  5  3  1  0  0  0  0
  6  4  1  0  0  0  0
  7  3  1  0  0  0  0
  7 10  1  1  0  0  0
  8  7  1  0  0  0  0
  9  8  1  0  0  0  0
 11 12  2  0  0  0  0
 12 10  1  0  0  0  0
 12 13  1  0  0  0  0
 14 13  1  6  0  0  0
 14 18  1  0  0  0  0
 14 17  1  0  0  0  0
 15 17  2  0  0  0  0
 17 16  1  0  0  0  0
 18 22  1  0  0  0  0
 19 21  2  0  0  0  0
 19 20  1  0  0  0  0
 20 23  1  0  0  0  0
 21 25  1  0  0  0  0
 22 21  1  0  0  0  0
 23 24  2  0  0  0  0
 23 27  1  0  0  0  0
 25 24  1  0  0  0  0
 27 26  3  0  0  0  0
 29 36  1  0  0  0  0
 30 33  1  0  0  0  0
 30 39  1  0  0  0  0
 31 34  2  0  0  0  0
 33 28  1  1  0  0  0
 33 37  1  0  0  0  0
 34 30  1  0  0  0  0
 35 41  1  0  0  0  0
 35 32  1  1  0  0  0
 36 46  1  1  0  0  0
 36 35  1  0  0  0  0
 37 38  1  0  0  0  0
 38 41  1  0  0  0  0
 39 40  2  0  0  0  0
 39 29  1  0  0  0  0
 42 34  1  0  0  0  0
 43 44  1  0  0  0  0
 44 47  1  0  0  0  0
 45 43  2  0  0  0  0
 45 46  1  0  0  0  0
 46 47  2  0  0  0  0
 48 43  1  0  0  0  0
 49 48  1  0  0  0  0
 50 51  2  0  0  0  0
 51 49  1  0  0  0  0
 52 51  1  0  0  0  0
M  END
>  <MODEL>
5

>  <REMARK>
 VINA RESULT:      -2.1      5.499      8.718
  Name = 
  14 active torsions:
  status: ('A' for Active; 'I' for Inactive)
    1  A    between atoms: C_10  and  C_50
    2  A    between atoms: N_11  and  C_39
    3  A    between atoms: C_12  and  C_27
    4  A    between atoms: O_16  and  C_17
    5  A    between atoms: O_16  and  C_50
    6  A    between atoms: C_18  and  N_22
    7  A    between atoms: C_18  and  C_32
    8  A    between atoms: C_25  and  C_31
    9  A    between atoms: C_26  and  C_35
   10  A    between atoms: C_27  and  C_52
   11  A    between atoms: C_28  and  C_52
   12  A    between atoms: C_32  and  C_43
   13  A    between atoms: C_32  and  C_49
   14  A    between atoms: C_49  and  C_51
                            x       y       z     vdW  Elec       q    Type
                         _______ _______ _______ _____ _____    ______ ____

>  <TORSDO>
F 14

$$$$
=
 OpenBabel11072411313D

 52 55  0  0  1  0  0  0  0  0999 V2000
  162.2560  208.5050  153.6550 O   0  0  0  0  0  0  0  0  0  0  0  0
  159.1360  210.0020  156.7790 C   0  0  0  0  0  2  0  0  0  0  0  0
  160.5970  210.1750  153.2930 C   0  0  0  0  0  2  0  0  0  0  0  0
  160.4290  208.5390  155.1830 C   0  0  0  0  0  2  0  0  0  0  0  0
  161.3750  209.3610  154.3180 C   0  0  1  0  0  3  0  0  0  0  0  0
  160.3650  209.1230  156.5850 C   0  0  0  0  0  2  0  0  0  0  0  0
  160.0130  211.4340  153.9250 C   0  0  2  0  0  3  0  0  0  0  0  0
  158.8830  211.1010  154.6750 O   0  0  0  0  0  0  0  0  0  0  0  0
  159.2520  211.3070  156.0070 C   0  0  0  0  0  2  0  0  0  0  0  0
  159.6340  212.3790  152.8830 N   0  0  0  0  0  2  0  0  0  0  0  0
  158.2970  213.6990  154.2720 O   0  0  0  0  0  0  0  0  0  0  0  0
  158.7810  213.4980  153.1270 C   0  0  0  0  0  0  0  0  0  0  0  0
  158.4760  214.4530  152.0210 C   0  0  0  0  0  2  0  0  0  0  0  0
  158.2680  213.7220  150.6980 C   0  0  1  0  0  3  0  0  0  0  0  0
  156.4680  213.3810  149.1760 O   0  0  0  0  0  0  0  0  0  0  0  0
  155.8670  214.2070  151.2310 O   0  0  0  0  0  1  0  0  0  0  0  0
  156.8240  213.7640  150.3220 C   0  0  0  0  0  0  0  0  0  0  0  0
  159.1140  214.3340  149.5910 C   0  0  0  0  0  2  0  0  0  0  0  0
  161.0100  214.3270  147.4380 N   0  0  0  0  0  0  0  0  0  0  0  0
  161.9910  214.3760  146.4340 N   0  0  0  0  0  2  0  0  0  0  0  0
  159.9470  213.5830  147.3240 C   0  0  0  0  0  0  0  0  0  0  0  0
  158.9870  213.5390  148.3780 N   0  0  0  0  0  2  0  0  0  0  0  0
  161.8880  213.5560  145.2700 C   0  0  0  0  0  0  0  0  0  0  0  0
  160.8210  212.7840  145.0990 C   0  0  0  0  0  3  0  0  0  0  0  0
  159.6830  212.7760  146.0790 C   0  0  0  0  0  2  0  0  0  0  0  0
  163.8100  213.5240  143.5290 N   0  0  0  0  0  0  0  0  0  0  0  0
  162.9520  213.5380  144.3050 C   0  0  0  0  0  0  0  0  0  0  0  0
  161.8380  207.2210  154.0050 C   0  0  0  0  0  2  0  0  0  0  0  0
  162.6870  204.7250  150.4160 O   0  0  0  0  0  0  0  0  0  0  0  0
  161.6930  206.6340  151.6180 N   0  0  0  0  0  0  0  0  0  0  0  0
  161.8000  207.4850  149.4340 O   0  0  0  0  0  0  0  0  0  0  0  0
  161.5880  201.9220  150.3620 C   0  0  0  0  0  1  0  0  0  0  0  0
  160.9780  206.6360  152.8980 C   0  0  1  0  0  3  0  0  0  0  0  0
  161.2410  207.5030  150.5630 C   0  0  0  0  0  0  0  0  0  0  0  0
  160.7660  203.1910  150.5140 C   0  0  2  0  0  3  0  0  0  0  0  0
  161.4350  204.3920  149.8230 C   0  0  2  0  0  3  0  0  0  0  0  0
  160.5070  205.2350  153.2810 C   0  0  0  0  0  2  0  0  0  0  0  0
  159.8340  204.6310  152.2150 O   0  0  0  0  0  0  0  0  0  0  0  0
  162.7820  205.7180  151.3920 C   0  0  0  0  0  0  0  0  0  0  0  0
  163.8180  205.7850  152.1050 O   0  0  0  0  0  0  0  0  0  0  0  0
  160.5340  203.4400  152.0020 C   0  0  0  0  0  2  0  0  0  0  0  0
  160.1600  208.4050  150.7860 N   0  0  0  0  0  1  0  0  0  0  0  0
  161.3490  203.5690  146.2860 C   0  0  0  0  0  0  0  0  0  0  0  0
  162.2750  204.5490  146.2650 N   0  0  0  0  0  0  0  0  0  0  0  0
  160.8680  203.3270  147.5560 C   0  0  0  0  0  2  0  0  0  0  0  0
  161.5710  204.2180  148.3440 C   0  0  0  0  0  0  0  0  0  0  0  0
  162.4180  204.9540  147.5410 C   0  0  0  0  0  3  0  0  0  0  0  0
  160.8580  202.8830  145.0550 C   0  0  0  0  0  2  0  0  0  0  0  0
  159.8140  201.8300  145.4000 C   0  0  0  0  0  2  0  0  0  0  0  0
  161.3560  200.3340  146.6650 O   0  0  0  0  0  1  0  0  0  0  0  0
  160.4530  200.5000  145.6250 C   0  0  0  0  0  0  0  0  0  0  0  0
  160.2070  199.5420  144.8470 O   0  0  0  0  0  0  0  0  0  0  0  0
  1 28  1  0  0  0  0
  3  7  1  0  0  0  0
  3  5  1  0  0  0  0
  4  6  1  0  0  0  0
  5  1  1  6  0  0  0
  5  4  1  0  0  0  0
  6  2  1  0  0  0  0
  7 10  1  6  0  0  0
  7  8  1  0  0  0  0
  8  9  1  0  0  0  0
  9  2  1  0  0  0  0
 10 12  1  0  0  0  0
 12 11  2  0  0  0  0
 13 12  1  0  0  0  0
 14 18  1  6  0  0  0
 14 13  1  0  0  0  0
 15 17  2  0  0  0  0
 17 14  1  0  0  0  0
 17 16  1  0  0  0  0
 20 19  1  0  0  0  0
 21 19  2  0  0  0  0
 21 22  1  0  0  0  0
 22 18  1  0  0  0  0
 23 20  1  0  0  0  0
 24 23  2  0  0  0  0
 24 25  1  0  0  0  0
 25 21  1  0  0  0  0
 26 27  3  0  0  0  0
 27 23  1  0  0  0  0
 29 39  1  0  0  0  0
 30 33  1  0  0  0  0
 31 34  2  0  0  0  0
 33 37  1  0  0  0  0
 33 28  1  1  0  0  0
 34 42  1  0  0  0  0
 34 30  1  0  0  0  0
 35 32  1  1  0  0  0
 35 41  1  0  0  0  0
 36 46  1  6  0  0  0
 36 29  1  0  0  0  0
 36 35  1  0  0  0  0
 38 37  1  0  0  0  0
 39 30  1  0  0  0  0
 39 40  2  0  0  0  0
 41 38  1  0  0  0  0
 43 45  1  0  0  0  0
 44 43  2  0  0  0  0
 44 47  1  0  0  0  0
 45 46  1  0  0  0  0
 47 46  2  0  0  0  0
 48 49  1  0  0  0  0
 48 43  1  0  0  0  0
 49 51  1  0  0  0  0
 51 50  1  0  0  0  0
 52 51  2  0  0  0  0
M  END
>  <MODEL>
6

>  <REMARK>
 VINA RESULT:      -1.9      4.763      9.707
  Name = 
  14 active torsions:
  status: ('A' for Active; 'I' for Inactive)
    1  A    between atoms: C_10  and  C_50
    2  A    between atoms: N_11  and  C_39
    3  A    between atoms: C_12  and  C_27
    4  A    between atoms: O_16  and  C_17
    5  A    between atoms: O_16  and  C_50
    6  A    between atoms: C_18  and  N_22
    7  A    between atoms: C_18  and  C_32
    8  A    between atoms: C_25  and  C_31
    9  A    between atoms: C_26  and  C_35
   10  A    between atoms: C_27  and  C_52
   11  A    between atoms: C_28  and  C_52
   12  A    between atoms: C_32  and  C_43
   13  A    between atoms: C_32  and  C_49
   14  A    between atoms: C_49  and  C_51
                            x       y       z     vdW  Elec       q    Type
                         _______ _______ _______ _____ _____    ______ ____

>  <TORSDO>
F 14

$$$$
