=
 OpenBabel11072410113D

 43 50  0  0  1  0  0  0  0  0999 V2000
  158.6000  212.5490  154.4540 C   0  0  2  0  0  0  0  0  0  0  0  0
  159.4940  208.3780  156.3730 O   0  0  0  0  0  1  0  0  0  0  0  0
  158.7390  211.1060  154.9280 C   0  0  1  0  0  3  0  0  0  0  0  0
  155.8420  212.6530  151.9550 O   0  0  0  0  0  1  0  0  0  0  0  0
  157.0040  214.4530  154.9610 C   0  0  0  0  0  2  0  0  0  0  0  0
  158.0360  212.6730  153.0290 C   0  0  1  0  0  3  0  0  0  0  0  0
  159.9840  211.9640  154.6850 C   0  0  1  0  0  3  0  0  0  0  0  0
  156.5030  212.6510  153.1830 C   0  0  1  0  0  3  0  0  0  0  0  0
  159.9780  209.6510  156.6820 C   0  0  1  0  0  3  0  0  0  0  0  0
  161.2890  209.7940  154.4610 C   0  0  0  0  0  2  0  0  0  0  0  0
  160.8650  211.1050  153.7570 C   0  0  1  0  0  3  0  0  0  0  0  0
  158.1860  211.1020  157.2340 O   0  0  0  0  0  0  0  0  0  0  0  0
  161.3460  209.8930  156.0000 C   0  0  2  0  0  3  0  0  0  0  0  0
  158.0400  213.4850  155.5360 C   0  0  0  0  0  2  0  0  0  0  0  0
  158.9290  210.6910  156.3570 C   0  0  0  0  0  0  0  0  0  0  0  0
  155.9380  213.7410  154.1140 C   0  0  0  0  0  2  0  0  0  0  0  0
  162.2820  208.9820  156.4900 O   0  0  0  0  0  0  0  0  0  0  0  0
  163.1790  209.7240  157.1060 O   0  0  0  0  0  1  0  0  0  0  0  0
  159.8840  214.4530  152.8110 C   0  0  0  0  0  1  0  0  0  0  0  0
  158.5310  213.9590  152.3140 C   0  0  1  0  0  3  0  0  0  0  0  0
  158.5300  213.8480  150.7860 C   0  0  0  0  0  2  0  0  0  0  0  0
  160.0670  213.3590  148.9870 N   0  0  0  0  0  2  0  0  0  0  0  0
  159.9040  213.7440  150.1990 C   0  0  0  0  0  3  0  0  0  0  0  0
  160.2700  210.8010  152.3860 C   0  0  0  0  0  2  0  0  0  0  0  0
  161.8010  201.8880  149.8200 C   0  0  0  0  0  3  0  0  0  0  0  0
  162.3960  206.6860  149.9230 C   0  0  0  0  0  2  0  0  0  0  0  0
  161.3540  210.7480  151.3180 C   0  0  1  0  0  3  0  0  0  0  0  0
  162.6220  207.9130  149.0850 C   0  0  0  0  0  0  0  0  0  0  0  0
  162.0880  202.1740  151.1630 C   0  0  0  0  0  3  0  0  0  0  0  0
  161.1140  202.8210  149.0330 C   0  0  0  0  0  3  0  0  0  0  0  0
  162.3290  209.1380  149.5500 C   0  0  0  0  0  0  0  0  0  0  0  0
  161.6870  203.3950  151.7220 C   0  0  0  0  0  3  0  0  0  0  0  0
  162.6050  210.0780  151.8660 C   0  0  0  0  0  2  0  0  0  0  0  0
  161.7070  209.3170  150.9150 C   0  0  1  0  0  0  0  0  0  0  0  0
  160.7190  204.0300  149.6080 C   0  0  0  0  0  0  0  0  0  0  0  0
  161.0060  204.3200  150.9260 C   0  0  0  0  0  0  0  0  0  0  0  0
  161.1290  206.8550  150.7740 C   0  0  2  0  0  0  0  0  0  0  0  0
  161.0210  208.1260  151.6090 C   0  0  0  0  0  2  0  0  0  0  0  0
  163.1340  207.7680  147.8350 F   0  0  0  0  0  0  0  0  0  0  0  0
  159.8950  205.3260  148.7230 S   0  0  0  0  0  0  0  0  0  0  0  0
  160.5100  205.6280  151.4370 C   0  0  1  0  0  3  0  0  0  0  0  0
  162.5610  210.2250  148.7640 F   0  0  0  0  0  0  0  0  0  0  0  0
  159.7900  206.3320  150.2680 C   0  0  1  0  0  3  0  0  0  0  0  0
  1  7  1  0  0  0  0
  1  3  1  0  0  0  0
  1 14  1  1  0  0  0
  2  9  1  0  0  0  0
  3 15  1  1  0  0  0
  4  8  1  0  0  0  0
  5 14  1  0  0  0  0
  6 20  1  1  0  0  0
  6  8  1  0  0  0  0
  6  1  1  0  0  0  0
  7  3  1  0  0  0  0
  8 16  1  0  0  0  0
 10 13  1  0  0  0  0
 11 10  1  0  0  0  0
 11  7  1  0  0  0  0
 13 17  1  0  0  0  0
 13  9  1  0  0  0  0
 15  9  1  0  0  0  0
 15 12  2  0  0  0  0
 16  5  1  0  0  0  0
 17 18  1  0  0  0  0
 20 19  1  0  0  0  0
 21 20  1  0  0  0  0
 22 23  2  0  0  0  0
 23 21  1  0  0  0  0
 24 11  1  0  0  0  0
 25 29  1  0  0  0  0
 26 37  1  0  0  0  0
 27 33  1  0  0  0  0
 27 24  1  0  0  0  0
 28 31  2  0  0  0  0
 28 26  1  0  0  0  0
 29 32  2  0  0  0  0
 30 35  1  0  0  0  0
 30 25  2  0  0  0  0
 31 34  1  0  0  0  0
 34 27  1  0  0  0  0
 34 38  1  0  0  0  0
 34 33  1  0  0  0  0
 35 36  2  0  0  0  0
 36 41  1  0  0  0  0
 36 32  1  0  0  0  0
 37 41  1  0  0  0  0
 37 38  1  0  0  0  0
 39 28  1  0  0  0  0
 40 35  1  0  0  0  0
 40 43  1  0  0  0  0
 42 31  1  0  0  0  0
 43 37  1  0  0  0  0
 43 41  1  0  0  0  0
M  END
>  <MODEL>
1

>  <REMARK>
 VINA RESULT:      -2.0      0.000      0.000
  Name = 
  6 active torsions:
  status: ('A' for Active; 'I' for Inactive)
    1  A    between atoms: C_4  and  C_21
    2  A    between atoms: O_5  and  C_33
    3  A    between atoms: C_13  and  C_14
    4  A    between atoms: C_13  and  C_42
    5  A    between atoms: C_19  and  C_42
    6  A    between atoms: C_21  and  C_31
                            x       y       z     vdW  Elec       q    Type
                         _______ _______ _______ _____ _____    ______ ____

>  <TORSDO>
F 6

$$$$
=
 OpenBabel11072410113D

 43 50  0  0  1  0  0  0  0  0999 V2000
  160.4910  212.7110  150.2600 C   0  0  2  0  0  0  0  0  0  0  0  0
  157.8390  210.7230  153.5610 O   0  0  0  0  0  1  0  0  0  0  0  0
  159.5860  211.8970  151.1800 C   0  0  1  0  0  3  0  0  0  0  0  0
  160.3970  211.1180  146.8960 O   0  0  0  0  0  1  0  0  0  0  0  0
  160.1070  214.4510  148.4560 C   0  0  0  0  0  2  0  0  0  0  0  0
  161.0900  211.8870  149.1070 C   0  0  1  0  0  3  0  0  0  0  0  0
  160.9190  212.4500  151.6950 C   0  0  1  0  0  3  0  0  0  0  0  0
  160.0380  211.9150  147.9820 C   0  0  1  0  0  3  0  0  0  0  0  0
  158.5580  211.9210  153.5610 C   0  0  1  0  0  3  0  0  0  0  0  0
  160.8190  210.6720  153.5100 C   0  0  0  0  0  2  0  0  0  0  0  0
  161.6270  211.2290  152.3130 C   0  0  1  0  0  3  0  0  0  0  0  0
  157.8070  213.3320  151.8110 O   0  0  0  0  0  0  0  0  0  0  0  0
  159.9420  211.7240  154.2230 C   0  0  2  0  0  3  0  0  0  0  0  0
  159.9220  214.1000  149.9340 C   0  0  0  0  0  2  0  0  0  0  0  0
  158.6140  212.4860  152.1590 C   0  0  0  0  0  0  0  0  0  0  0  0
  159.6350  213.3280  147.5200 C   0  0  0  0  0  2  0  0  0  0  0  0
  159.7770  211.3590  155.5600 O   0  0  0  0  0  0  0  0  0  0  0  0
  160.8780  211.7660  156.1550 O   0  0  0  0  0  1  0  0  0  0  0  0
  163.4470  211.3710  148.2060 C   0  0  0  0  0  1  0  0  0  0  0  0
  162.4600  212.4480  148.6400 C   0  0  1  0  0  3  0  0  0  0  0  0
  162.3410  213.5320  147.5630 C   0  0  0  0  0  2  0  0  0  0  0  0
  162.4410  213.3540  145.1560 N   0  0  0  0  0  2  0  0  0  0  0  0
  163.0260  213.1700  146.2810 C   0  0  0  0  0  3  0  0  0  0  0  0
  161.9680  210.1070  151.3380 C   0  0  0  0  0  2  0  0  0  0  0  0
  160.4630  203.6480  144.6750 C   0  0  0  0  0  3  0  0  0  0  0  0
  160.9380  205.4590  149.1340 C   0  0  0  0  0  2  0  0  0  0  0  0
  161.7550  208.7420  151.9770 C   0  0  1  0  0  3  0  0  0  0  0  0
  161.5180  205.2220  150.4990 C   0  0  0  0  0  0  0  0  0  0  0  0
  159.4990  204.6640  144.7420 C   0  0  0  0  0  3  0  0  0  0  0  0
  161.6600  203.7650  145.3950 C   0  0  0  0  0  3  0  0  0  0  0  0
  161.7220  206.2360  151.3560 C   0  0  0  0  0  0  0  0  0  0  0  0
  159.7290  205.8000  145.5290 C   0  0  0  0  0  3  0  0  0  0  0  0
  160.3190  208.2800  151.7760 C   0  0  0  0  0  2  0  0  0  0  0  0
  161.4250  207.6610  150.9500 C   0  0  1  0  0  0  0  0  0  0  0  0
  161.8730  204.9060  146.1700 C   0  0  0  0  0  0  0  0  0  0  0  0
  160.9240  205.9040  146.2460 C   0  0  0  0  0  0  0  0  0  0  0  0
  161.4450  206.7940  148.5700 C   0  0  2  0  0  0  0  0  0  0  0  0
  161.2950  208.0230  149.4590 C   0  0  0  0  0  2  0  0  0  0  0  0
  161.8380  203.9530  150.8650 F   0  0  0  0  0  0  0  0  0  0  0  0
  163.3090  205.1660  147.1760 S   0  0  0  0  0  0  0  0  0  0  0  0
  161.2750  207.0860  147.0820 C   0  0  1  0  0  3  0  0  0  0  0  0
  162.2370  205.9760  152.5890 F   0  0  0  0  0  0  0  0  0  0  0  0
  162.6770  206.8280  147.6720 C   0  0  1  0  0  3  0  0  0  0  0  0
  1 14  1  6  0  0  0
  1  3  1  0  0  0  0
  1  7  1  0  0  0  0
  3  7  1  0  0  0  0
  3 15  1  1  0  0  0
  4  8  1  0  0  0  0
  5 14  1  0  0  0  0
  6 20  1  6  0  0  0
  6  1  1  0  0  0  0
  7 11  1  0  0  0  0
  8  6  1  0  0  0  0
  9  2  1  0  0  0  0
  9 13  1  0  0  0  0
 10 13  1  0  0  0  0
 11 10  1  0  0  0  0
 12 15  2  0  0  0  0
 13 17  1  0  0  0  0
 15  9  1  0  0  0  0
 16  8  1  0  0  0  0
 16  5  1  0  0  0  0
 17 18  1  0  0  0  0
 19 20  1  0  0  0  0
 21 20  1  0  0  0  0
 22 23  2  0  0  0  0
 23 21  1  0  0  0  0
 24 27  1  0  0  0  0
 24 11  1  0  0  0  0
 25 29  2  0  0  0  0
 25 30  1  0  0  0  0
 26 28  1  0  0  0  0
 28 39  1  0  0  0  0
 28 31  2  0  0  0  0
 29 32  1  0  0  0  0
 30 35  2  0  0  0  0
 31 42  1  0  0  0  0
 32 36  2  0  0  0  0
 33 27  1  0  0  0  0
 34 31  1  0  0  0  0
 34 33  1  0  0  0  0
 34 27  1  0  0  0  0
 35 36  1  0  0  0  0
 35 40  1  0  0  0  0
 36 41  1  0  0  0  0
 37 26  1  0  0  0  0
 37 38  1  0  0  0  0
 38 34  1  0  0  0  0
 40 43  1  0  0  0  0
 41 43  1  0  0  0  0
 41 37  1  0  0  0  0
 43 37  1  0  0  0  0
M  END
>  <MODEL>
2

>  <REMARK>
 VINA RESULT:      -1.8      3.004      4.645
  Name = 
  6 active torsions:
  status: ('A' for Active; 'I' for Inactive)
    1  A    between atoms: C_4  and  C_21
    2  A    between atoms: O_5  and  C_33
    3  A    between atoms: C_13  and  C_14
    4  A    between atoms: C_13  and  C_42
    5  A    between atoms: C_19  and  C_42
    6  A    between atoms: C_21  and  C_31
                            x       y       z     vdW  Elec       q    Type
                         _______ _______ _______ _____ _____    ______ ____

>  <TORSDO>
F 6

$$$$
=
 OpenBabel11072410113D

 43 50  0  0  1  0  0  0  0  0999 V2000
  159.3090  212.2480  152.6120 C   0  0  2  0  0  0  0  0  0  0  0  0
  162.4120  213.4640  149.3290 O   0  0  0  0  0  1  0  0  0  0  0  0
  160.4610  212.6960  151.7180 C   0  0  1  0  0  3  0  0  0  0  0  0
  160.2580  213.0050  156.1320 O   0  0  0  0  0  1  0  0  0  0  0  0
  157.4150  213.4270  153.8160 C   0  0  0  0  0  2  0  0  0  0  0  0
  159.7530  211.8630  154.0340 C   0  0  1  0  0  3  0  0  0  0  0  0
  159.7130  211.3920  151.4230 C   0  0  1  0  0  3  0  0  0  0  0  0
  159.7720  213.1770  154.8360 C   0  0  1  0  0  3  0  0  0  0  0  0
  161.0990  212.9970  149.2220 C   0  0  1  0  0  3  0  0  0  0  0  0
  161.7590  210.6600  150.1020 C   0  0  0  0  0  2  0  0  0  0  0  0
  160.8260  210.3340  151.2930 C   0  0  1  0  0  3  0  0  0  0  0  0
  159.6140  214.4490  150.3640 O   0  0  0  0  0  0  0  0  0  0  0  0
  161.0840  211.4700  148.9750 C   0  0  2  0  0  3  0  0  0  0  0  0
  158.0560  213.1210  152.4600 C   0  0  0  0  0  2  0  0  0  0  0  0
  160.2980  213.4410  150.4250 C   0  0  0  0  0  0  0  0  0  0  0  0
  158.4320  213.9380  154.8470 C   0  0  0  0  0  2  0  0  0  0  0  0
  161.7070  211.1840  147.7600 O   0  0  0  0  0  0  0  0  0  0  0  0
  160.8020  211.4640  146.8460 O   0  0  0  0  0  1  0  0  0  0  0  0
  159.4720  209.9940  155.7840 C   0  0  0  0  0  1  0  0  0  0  0  0
  158.8160  210.8030  154.6710 C   0  0  1  0  0  3  0  0  0  0  0  0
  157.4760  211.3770  155.1440 C   0  0  0  0  0  2  0  0  0  0  0  0
  155.3510  210.2570  154.8860 N   0  0  0  0  0  2  0  0  0  0  0  0
  156.4740  210.3230  155.5010 C   0  0  0  0  0  3  0  0  0  0  0  0
  161.6470  210.0900  152.5550 C   0  0  0  0  0  2  0  0  0  0  0  0
  160.9820  204.4430  145.0690 C   0  0  0  0  0  3  0  0  0  0  0  0
  161.1300  205.6960  149.7380 C   0  0  0  0  0  2  0  0  0  0  0  0
  161.5400  208.6410  153.0070 C   0  0  1  0  0  3  0  0  0  0  0  0
  161.6820  205.3350  151.0880 C   0  0  0  0  0  0  0  0  0  0  0  0
  159.9260  205.3540  145.2190 C   0  0  0  0  0  3  0  0  0  0  0  0
  162.1370  204.5700  145.8530 C   0  0  0  0  0  3  0  0  0  0  0  0
  161.7600  206.2430  152.0750 C   0  0  0  0  0  0  0  0  0  0  0  0
  160.0220  206.3940  146.1520 C   0  0  0  0  0  3  0  0  0  0  0  0
  160.1610  208.0850  152.6830 C   0  0  0  0  0  2  0  0  0  0  0  0
  161.3480  207.6770  151.8380 C   0  0  1  0  0  0  0  0  0  0  0  0
  162.2160  205.6150  146.7760 C   0  0  0  0  0  0  0  0  0  0  0  0
  161.1770  206.5080  146.9320 C   0  0  0  0  0  0  0  0  0  0  0  0
  161.5320  207.1320  149.3720 C   0  0  2  0  0  0  0  0  0  0  0  0
  161.2370  208.2170  150.4000 C   0  0  0  0  0  2  0  0  0  0  0  0
  162.1040  204.0620  151.3060 F   0  0  0  0  0  0  0  0  0  0  0  0
  163.5850  205.8670  147.8710 S   0  0  0  0  0  0  0  0  0  0  0  0
  161.3870  207.5980  147.9260 C   0  0  1  0  0  3  0  0  0  0  0  0
  162.2540  205.8720  153.2870 F   0  0  0  0  0  0  0  0  0  0  0  0
  162.7850  207.3890  148.5430 C   0  0  1  0  0  3  0  0  0  0  0  0
  1 14  1  6  0  0  0
  1  6  1  0  0  0  0
  3 15  1  6  0  0  0
  3  1  1  0  0  0  0
  5 16  1  0  0  0  0
  6 20  1  1  0  0  0
  6  8  1  0  0  0  0
  7  3  1  0  0  0  0
  7  1  1  0  0  0  0
  8 16  1  0  0  0  0
  8  4  1  0  0  0  0
  9  2  1  0  0  0  0
  9 15  1  0  0  0  0
 10 11  1  0  0  0  0
 11  7  1  0  0  0  0
 11 24  1  0  0  0  0
 12 15  2  0  0  0  0
 13  9  1  0  0  0  0
 13 10  1  0  0  0  0
 14  5  1  0  0  0  0
 17 13  1  0  0  0  0
 18 17  1  0  0  0  0
 20 21  1  0  0  0  0
 20 19  1  0  0  0  0
 21 23  1  0  0  0  0
 22 23  2  0  0  0  0
 24 27  1  0  0  0  0
 25 29  2  0  0  0  0
 25 30  1  0  0  0  0
 26 28  1  0  0  0  0
 28 39  1  0  0  0  0
 28 31  2  0  0  0  0
 29 32  1  0  0  0  0
 30 35  2  0  0  0  0
 31 42  1  0  0  0  0
 32 36  2  0  0  0  0
 33 27  1  0  0  0  0
 34 31  1  0  0  0  0
 34 33  1  0  0  0  0
 34 27  1  0  0  0  0
 35 36  1  0  0  0  0
 35 40  1  0  0  0  0
 36 41  1  0  0  0  0
 37 26  1  0  0  0  0
 37 38  1  0  0  0  0
 38 34  1  0  0  0  0
 40 43  1  0  0  0  0
 41 43  1  0  0  0  0
 41 37  1  0  0  0  0
 43 37  1  0  0  0  0
M  END
>  <MODEL>
3

>  <REMARK>
 VINA RESULT:       0.4      3.308      5.202
  Name = 
  6 active torsions:
  status: ('A' for Active; 'I' for Inactive)
    1  A    between atoms: C_4  and  C_21
    2  A    between atoms: O_5  and  C_33
    3  A    between atoms: C_13  and  C_14
    4  A    between atoms: C_13  and  C_42
    5  A    between atoms: C_19  and  C_42
    6  A    between atoms: C_21  and  C_31
                            x       y       z     vdW  Elec       q    Type
                         _______ _______ _______ _____ _____    ______ ____

>  <TORSDO>
F 6

$$$$
=
 OpenBabel11072410113D

 43 50  0  0  1  0  0  0  0  0999 V2000
  159.7690  212.4970  152.7950 C   0  0  2  0  0  0  0  0  0  0  0  0
  159.3620  209.6950  156.5190 O   0  0  0  0  0  1  0  0  0  0  0  0
  159.5200  211.4430  153.8690 C   0  0  1  0  0  3  0  0  0  0  0  0
  157.8720  211.4800  149.7570 O   0  0  0  0  0  1  0  0  0  0  0  0
  158.4480  214.4530  151.8670 C   0  0  0  0  0  2  0  0  0  0  0  0
  159.6510  211.9510  151.3620 C   0  0  1  0  0  3  0  0  0  0  0  0
  160.9120  212.0570  153.6940 C   0  0  1  0  0  3  0  0  0  0  0  0
  158.1560  212.0390  151.0030 C   0  0  1  0  0  3  0  0  0  0  0  0
  159.9540  210.9530  156.3780 C   0  0  1  0  0  3  0  0  0  0  0  0
  161.8330  210.0050  154.8810 C   0  0  0  0  0  2  0  0  0  0  0  0
  161.8540  210.8420  153.5790 C   0  0  1  0  0  3  0  0  0  0  0  0
  158.3580  212.5350  155.6240 O   0  0  0  0  0  0  0  0  0  0  0  0
  161.4770  210.8140  156.1460 C   0  0  2  0  0  3  0  0  0  0  0  0
  159.1020  213.8440  153.1100 C   0  0  0  0  0  2  0  0  0  0  0  0
  159.2320  211.7430  155.3100 C   0  0  0  0  0  0  0  0  0  0  0  0
  157.5520  213.4520  151.1220 C   0  0  0  0  0  2  0  0  0  0  0  0
  162.0700  210.2180  157.2600 O   0  0  0  0  0  0  0  0  0  0  0  0
  162.6930  209.1610  156.7810 O   0  0  0  0  0  1  0  0  0  0  0  0
  161.6740  211.9120  149.7690 C   0  0  0  0  0  1  0  0  0  0  0  0
  160.5400  212.7380  150.3620 C   0  0  1  0  0  3  0  0  0  0  0  0
  159.7440  213.4310  149.2510 C   0  0  0  0  0  2  0  0  0  0  0  0
  160.1050  214.4180  147.0760 N   0  0  0  0  0  2  0  0  0  0  0  0
  160.6110  214.0330  148.1890 C   0  0  0  0  0  3  0  0  0  0  0  0
  161.6180  209.9440  152.3690 C   0  0  0  0  0  2  0  0  0  0  0  0
  160.8640  204.4710  144.7630 C   0  0  0  0  0  3  0  0  0  0  0  0
  160.9830  205.6270  149.4580 C   0  0  0  0  0  2  0  0  0  0  0  0
  161.4490  208.4910  152.7910 C   0  0  1  0  0  3  0  0  0  0  0  0
  161.4980  205.2190  150.8090 C   0  0  0  0  0  0  0  0  0  0  0  0
  159.8400  205.4190  144.9140 C   0  0  0  0  0  3  0  0  0  0  0  0
  162.0090  204.5390  145.5670 C   0  0  0  0  0  3  0  0  0  0  0  0
  161.5950  206.1050  151.8140 C   0  0  0  0  0  0  0  0  0  0  0  0
  159.9600  206.4360  145.8700 C   0  0  0  0  0  3  0  0  0  0  0  0
  160.0560  207.9940  152.4340 C   0  0  0  0  0  2  0  0  0  0  0  0
  161.2400  207.5580  151.6000 C   0  0  1  0  0  0  0  0  0  0  0  0
  162.1130  205.5620  146.5110 C   0  0  0  0  0  0  0  0  0  0  0  0
  161.1050  206.4910  146.6690 C   0  0  0  0  0  0  0  0  0  0  0  0
  161.4430  207.0540  149.1260 C   0  0  2  0  0  0  0  0  0  0  0  0
  161.1730  208.1290  150.1710 C   0  0  0  0  0  2  0  0  0  0  0  0
  161.8690  203.9270  151.0080 F   0  0  0  0  0  0  0  0  0  0  0  0
  163.4730  205.7410  147.6330 S   0  0  0  0  0  0  0  0  0  0  0  0
  161.3400  207.5530  147.6870 C   0  0  1  0  0  3  0  0  0  0  0  0
  162.0540  205.6920  153.0270 F   0  0  0  0  0  0  0  0  0  0  0  0
  162.7190  207.2800  148.3220 C   0  0  1  0  0  3  0  0  0  0  0  0
  1 14  1  1  0  0  0
  1  7  1  0  0  0  0
  1  3  1  0  0  0  0
  3 15  1  1  0  0  0
  4  8  1  0  0  0  0
  5 14  1  0  0  0  0
  6 20  1  6  0  0  0
  6  1  1  0  0  0  0
  7  3  1  0  0  0  0
  8 16  1  0  0  0  0
  8  6  1  0  0  0  0
  9  2  1  0  0  0  0
 10 13  1  0  0  0  0
 11  7  1  0  0  0  0
 11 10  1  0  0  0  0
 13  9  1  0  0  0  0
 13 17  1  0  0  0  0
 15 12  2  0  0  0  0
 15  9  1  0  0  0  0
 16  5  1  0  0  0  0
 18 17  1  0  0  0  0
 19 20  1  0  0  0  0
 21 20  1  0  0  0  0
 22 23  2  0  0  0  0
 23 21  1  0  0  0  0
 24 27  1  0  0  0  0
 24 11  1  0  0  0  0
 25 29  2  0  0  0  0
 25 30  1  0  0  0  0
 26 28  1  0  0  0  0
 28 39  1  0  0  0  0
 28 31  2  0  0  0  0
 29 32  1  0  0  0  0
 30 35  2  0  0  0  0
 31 42  1  0  0  0  0
 32 36  2  0  0  0  0
 33 27  1  0  0  0  0
 34 31  1  0  0  0  0
 34 33  1  0  0  0  0
 34 27  1  0  0  0  0
 35 36  1  0  0  0  0
 35 40  1  0  0  0  0
 36 41  1  0  0  0  0
 37 26  1  0  0  0  0
 37 38  1  0  0  0  0
 38 34  1  0  0  0  0
 40 43  1  0  0  0  0
 41 43  1  0  0  0  0
 41 37  1  0  0  0  0
 43 37  1  0  0  0  0
M  END
>  <MODEL>
4

>  <REMARK>
 VINA RESULT:       0.6      2.400      3.331
  Name = 
  6 active torsions:
  status: ('A' for Active; 'I' for Inactive)
    1  A    between atoms: C_4  and  C_21
    2  A    between atoms: O_5  and  C_33
    3  A    between atoms: C_13  and  C_14
    4  A    between atoms: C_13  and  C_42
    5  A    between atoms: C_19  and  C_42
    6  A    between atoms: C_21  and  C_31
                            x       y       z     vdW  Elec       q    Type
                         _______ _______ _______ _____ _____    ______ ____

>  <TORSDO>
F 6

$$$$
=
 OpenBabel11072410113D

 43 50  0  0  1  0  0  0  0  0999 V2000
  160.9400  203.5800  148.1280 C   0  0  2  0  0  0  0  0  0  0  0  0
  162.3960  202.3010  152.3860 O   0  0  0  0  0  1  0  0  0  0  0  0
  161.6270  203.1650  149.4250 C   0  0  1  0  0  3  0  0  0  0  0  0
  163.5240  203.6160  145.4480 O   0  0  0  0  0  1  0  0  0  0  0  0
  160.1120  202.3510  146.0700 C   0  0  0  0  0  2  0  0  0  0  0  0
  161.8830  204.2750  147.1320 C   0  0  1  0  0  3  0  0  0  0  0  0
  160.5590  204.2630  149.4310 C   0  0  1  0  0  3  0  0  0  0  0  0
  162.5550  203.1430  146.3320 C   0  0  1  0  0  3  0  0  0  0  0  0
  161.1110  202.5300  151.8870 C   0  0  1  0  0  3  0  0  0  0  0  0
  161.5620  205.0600  151.6270 C   0  0  0  0  0  2  0  0  0  0  0  0
  161.2260  205.4420  150.1650 C   0  0  1  0  0  3  0  0  0  0  0  0
  160.6700  201.0890  150.0570 O   0  0  0  0  0  0  0  0  0  0  0  0
  160.6470  203.9680  152.2210 C   0  0  2  0  0  3  0  0  0  0  0  0
  159.9820  202.5080  147.5870 C   0  0  0  0  0  2  0  0  0  0  0  0
  161.0640  202.1870  150.4150 C   0  0  0  0  0  0  0  0  0  0  0  0
  161.5720  202.1960  145.6170 C   0  0  0  0  0  2  0  0  0  0  0  0
  160.5700  204.1280  153.6040 O   0  0  0  0  0  0  0  0  0  0  0  0
  161.2060  205.2550  153.8460 O   0  0  0  0  0  1  0  0  0  0  0  0
  160.1840  206.2030  146.9610 C   0  0  0  0  0  1  0  0  0  0  0  0
  161.1290  205.2720  146.2120 C   0  0  1  0  0  3  0  0  0  0  0  0
  162.0540  206.0750  145.2910 C   0  0  0  0  0  2  0  0  0  0  0  0
  160.8310  205.0780  143.4620 N   0  0  0  0  0  2  0  0  0  0  0  0
  161.8000  205.8290  143.8360 C   0  0  0  0  0  3  0  0  0  0  0  0
  162.4540  206.0310  149.4780 C   0  0  0  0  0  2  0  0  0  0  0  0
  159.4190  211.5950  156.4220 C   0  0  0  0  0  3  0  0  0  0  0  0
  160.6350  210.3010  151.9230 C   0  0  0  0  0  2  0  0  0  0  0  0
  162.1630  207.4240  148.9370 C   0  0  1  0  0  3  0  0  0  0  0  0
  161.3440  210.7340  150.6710 C   0  0  0  0  0  0  0  0  0  0  0  0
  158.5940  210.4950  156.1410 C   0  0  0  0  0  3  0  0  0  0  0  0
  160.6990  211.6750  155.8570 C   0  0  0  0  0  3  0  0  0  0  0  0
  161.7650  209.8370  149.7640 C   0  0  0  0  0  0  0  0  0  0  0  0
  159.0470  209.4750  155.2950 C   0  0  0  0  0  3  0  0  0  0  0  0
  160.6700  207.7120  148.9880 C   0  0  0  0  0  2  0  0  0  0  0  0
  161.5890  208.3560  150.0020 C   0  0  1  0  0  0  0  0  0  0  0  0
  161.1350  210.6470  155.0200 C   0  0  0  0  0  0  0  0  0  0  0  0
  160.3240  209.5680  154.7350 C   0  0  0  0  0  0  0  0  0  0  0  0
  161.2220  208.9750  152.4300 C   0  0  2  0  0  0  0  0  0  0  0  0
  161.3230  207.8340  151.4260 C   0  0  0  0  0  2  0  0  0  0  0  0
  161.5560  212.0590  150.4620 F   0  0  0  0  0  0  0  0  0  0  0  0
  162.7020  210.6400  154.1930 S   0  0  0  0  0  0  0  0  0  0  0  0
  160.9070  208.5190  153.8520 C   0  0  1  0  0  3  0  0  0  0  0  0
  162.3920  210.2720  148.6370 F   0  0  0  0  0  0  0  0  0  0  0  0
  162.3310  208.9790  153.4760 C   0  0  1  0  0  3  0  0  0  0  0  0
  1 14  1  6  0  0  0
  1  3  1  0  0  0  0
  1  7  1  0  0  0  0
  3  7  1  0  0  0  0
  3 15  1  1  0  0  0
  4  8  1  0  0  0  0
  5 14  1  0  0  0  0
  6 20  1  6  0  0  0
  6  1  1  0  0  0  0
  7 11  1  0  0  0  0
  8  6  1  0  0  0  0
  9 13  1  0  0  0  0
  9  2  1  0  0  0  0
 10 13  1  0  0  0  0
 11 10  1  0  0  0  0
 12 15  2  0  0  0  0
 13 17  1  0  0  0  0
 15  9  1  0  0  0  0
 16  5  1  0  0  0  0
 16  8  1  0  0  0  0
 17 18  1  0  0  0  0
 20 19  1  0  0  0  0
 21 20  1  0  0  0  0
 22 23  2  0  0  0  0
 23 21  1  0  0  0  0
 24 11  1  0  0  0  0
 26 37  1  0  0  0  0
 27 33  1  0  0  0  0
 27 24  1  0  0  0  0
 27 34  1  0  0  0  0
 28 26  1  0  0  0  0
 29 25  1  0  0  0  0
 30 25  2  0  0  0  0
 31 34  1  0  0  0  0
 31 28  2  0  0  0  0
 32 29  2  0  0  0  0
 33 34  1  0  0  0  0
 34 38  1  0  0  0  0
 35 30  1  0  0  0  0
 36 35  2  0  0  0  0
 36 32  1  0  0  0  0
 37 43  1  0  0  0  0
 37 41  1  0  0  0  0
 38 37  1  0  0  0  0
 39 28  1  0  0  0  0
 40 35  1  0  0  0  0
 41 36  1  0  0  0  0
 42 31  1  0  0  0  0
 43 41  1  0  0  0  0
 43 40  1  0  0  0  0
M  END
>  <MODEL>
5

>  <REMARK>
 VINA RESULT:       0.6      3.962      8.862
  Name = 
  6 active torsions:
  status: ('A' for Active; 'I' for Inactive)
    1  A    between atoms: C_4  and  C_21
    2  A    between atoms: O_5  and  C_33
    3  A    between atoms: C_13  and  C_14
    4  A    between atoms: C_13  and  C_42
    5  A    between atoms: C_19  and  C_42
    6  A    between atoms: C_21  and  C_31
                            x       y       z     vdW  Elec       q    Type
                         _______ _______ _______ _____ _____    ______ ____

>  <TORSDO>
F 6

$$$$
=
 OpenBabel11072410113D

 43 50  0  0  1  0  0  0  0  0999 V2000
  161.0330  205.1370  149.1900 C   0  0  2  0  0  0  0  0  0  0  0  0
  162.9030  206.3750  153.2960 O   0  0  0  0  0  1  0  0  0  0  0  0
  161.8390  205.5690  150.4110 C   0  0  1  0  0  3  0  0  0  0  0  0
  163.4030  204.7950  146.3400 O   0  0  0  0  0  1  0  0  0  0  0  0
  160.6620  202.9430  147.9760 C   0  0  0  0  0  2  0  0  0  0  0  0
  161.6580  205.5800  147.8570 C   0  0  1  0  0  3  0  0  0  0  0  0
  160.4540  206.1660  150.1470 C   0  0  1  0  0  3  0  0  0  0  0  0
  162.6740  204.4830  147.4860 C   0  0  1  0  0  3  0  0  0  0  0  0
  161.6130  205.9520  152.9660 C   0  0  1  0  0  3  0  0  0  0  0  0
  161.1430  208.1120  151.6320 C   0  0  0  0  0  2  0  0  0  0  0  0
  160.6740  207.6900  150.2180 C   0  0  1  0  0  3  0  0  0  0  0  0
  161.6810  203.7970  151.9790 O   0  0  0  0  0  0  0  0  0  0  0  0
  160.6780  207.1660  152.7600 C   0  0  2  0  0  3  0  0  0  0  0  0
  160.5060  203.6990  149.2970 C   0  0  0  0  0  2  0  0  0  0  0  0
  161.6690  205.0020  151.7900 C   0  0  0  0  0  0  0  0  0  0  0  0
  162.0770  203.0660  147.3900 C   0  0  0  0  0  2  0  0  0  0  0  0
  160.5690  207.8840  153.9510 O   0  0  0  0  0  0  0  0  0  0  0  0
  160.4430  206.9630  154.8840 O   0  0  0  0  0  1  0  0  0  0  0  0
  159.3730  206.5780  147.2110 C   0  0  0  0  0  1  0  0  0  0  0  0
  160.5890  205.7840  146.7500 C   0  0  1  0  0  3  0  0  0  0  0  0
  161.1560  206.3750  145.4550 C   0  0  0  0  0  2  0  0  0  0  0  0
  160.4540  204.3420  144.3530 N   0  0  0  0  0  2  0  0  0  0  0  0
  161.1780  205.3990  144.3190 C   0  0  0  0  0  3  0  0  0  0  0  0
  161.6070  208.2660  149.1590 C   0  0  0  0  0  2  0  0  0  0  0  0
  159.3820  214.4520  142.4380 C   0  0  0  0  0  3  0  0  0  0  0  0
  161.2810  212.8200  146.5760 C   0  0  0  0  0  2  0  0  0  0  0  0
  162.0910  209.6550  149.5520 C   0  0  1  0  0  3  0  0  0  0  0  0
  161.4740  213.1140  148.0370 C   0  0  0  0  0  0  0  0  0  0  0  0
  160.2650  213.4370  142.0390 C   0  0  0  0  0  3  0  0  0  0  0  0
  158.7220  214.3650  143.6710 C   0  0  0  0  0  3  0  0  0  0  0  0
  161.7550  212.1350  148.9120 C   0  0  0  0  0  0  0  0  0  0  0  0
  160.4890  212.3340  142.8730 C   0  0  0  0  0  3  0  0  0  0  0  0
  163.2140  210.1060  148.6300 C   0  0  0  0  0  2  0  0  0  0  0  0
  161.8300  210.6940  148.4630 C   0  0  1  0  0  0  0  0  0  0  0  0
  158.9560  213.2570  144.4870 C   0  0  0  0  0  0  0  0  0  0  0  0
  159.8290  212.2610  144.1030 C   0  0  0  0  0  0  0  0  0  0  0  0
  160.5830  211.4650  146.3970 C   0  0  2  0  0  0  0  0  0  0  0  0
  161.1890  210.2720  147.1280 C   0  0  0  0  0  2  0  0  0  0  0  0
  161.3620  214.3970  148.4690 F   0  0  0  0  0  0  0  0  0  0  0  0
  158.2380  213.0400  146.0920 S   0  0  0  0  0  0  0  0  0  0  0  0
  159.9760  211.1130  145.0420 C   0  0  1  0  0  3  0  0  0  0  0  0
  161.9350  212.4440  150.2260 F   0  0  0  0  0  0  0  0  0  0  0  0
  159.0660  211.3970  146.2550 C   0  0  1  0  0  3  0  0  0  0  0  0
  1 14  1  1  0  0  0
  1  7  1  0  0  0  0
  1  3  1  0  0  0  0
  3 15  1  1  0  0  0
  4  8  1  0  0  0  0
  5 14  1  0  0  0  0
  6 20  1  6  0  0  0
  6  1  1  0  0  0  0
  7 11  1  0  0  0  0
  7  3  1  0  0  0  0
  8  6  1  0  0  0  0
  9  2  1  0  0  0  0
 10 13  1  0  0  0  0
 11 10  1  0  0  0  0
 13  9  1  0  0  0  0
 13 17  1  0  0  0  0
 15 12  2  0  0  0  0
 15  9  1  0  0  0  0
 16  8  1  0  0  0  0
 16  5  1  0  0  0  0
 17 18  1  0  0  0  0
 20 19  1  0  0  0  0
 21 20  1  0  0  0  0
 23 22  2  0  0  0  0
 23 21  1  0  0  0  0
 24 27  1  0  0  0  0
 24 11  1  0  0  0  0
 25 30  1  0  0  0  0
 26 28  1  0  0  0  0
 28 39  1  0  0  0  0
 28 31  2  0  0  0  0
 29 25  2  0  0  0  0
 29 32  1  0  0  0  0
 30 35  2  0  0  0  0
 31 42  1  0  0  0  0
 32 36  2  0  0  0  0
 33 27  1  0  0  0  0
 34 33  1  0  0  0  0
 34 31  1  0  0  0  0
 34 27  1  0  0  0  0
 35 40  1  0  0  0  0
 36 35  1  0  0  0  0
 36 41  1  0  0  0  0
 37 26  1  0  0  0  0
 37 38  1  0  0  0  0
 38 34  1  0  0  0  0
 40 43  1  0  0  0  0
 41 43  1  0  0  0  0
 41 37  1  0  0  0  0
 43 37  1  0  0  0  0
M  END
>  <MODEL>
6

>  <REMARK>
 VINA RESULT:       0.6      4.607      8.789
  Name = 
  6 active torsions:
  status: ('A' for Active; 'I' for Inactive)
    1  A    between atoms: C_4  and  C_21
    2  A    between atoms: O_5  and  C_33
    3  A    between atoms: C_13  and  C_14
    4  A    between atoms: C_13  and  C_42
    5  A    between atoms: C_19  and  C_42
    6  A    between atoms: C_21  and  C_31
                            x       y       z     vdW  Elec       q    Type
                         _______ _______ _______ _____ _____    ______ ____

>  <TORSDO>
F 6

$$$$
