=
 OpenBabel11072415103D

 39 42  0  0  1  0  0  0  0  0999 V2000
  161.2630  207.2480  151.2360 C   0  0  2  0  0  3  0  0  0  0  0  0
  161.9630  209.5130  148.2770 C   0  0  0  0  0  3  0  0  0  0  0  0
  161.6840  208.3820  149.0490 C   0  0  0  0  0  3  0  0  0  0  0  0
  162.0760  210.8610  150.2840 C   0  0  0  0  0  3  0  0  0  0  0  0
  161.7910  209.7290  151.0590 C   0  0  0  0  0  3  0  0  0  0  0  0
  162.1520  210.7610  148.8870 C   0  0  0  0  0  0  0  0  0  0  0  0
  161.5940  208.4860  150.4410 C   0  0  0  0  0  0  0  0  0  0  0  0
  163.7560  212.2120  147.7490 O   0  0  0  0  0  0  0  0  0  0  0  0
  162.4530  211.9210  148.0920 N   0  0  0  0  0  0  0  0  0  0  0  0
  161.5360  212.6490  147.6580 O   0  0  0  0  0  0  0  0  0  0  0  0
  161.4230  206.0350  153.4570 C   0  0  0  0  0  1  0  0  0  0  0  0
  161.6870  207.3370  152.7130 C   0  0  2  0  0  3  0  0  0  0  0  0
  161.2490  208.8860  154.6030 C   0  0  0  0  0  3  0  0  0  0  0  0
  160.9620  208.4620  153.3720 C   0  0  0  0  0  3  0  0  0  0  0  0
  158.6520  211.4680  153.3380 C   0  0  1  0  0  3  0  0  0  0  0  0
  159.0180  212.6280  155.7120 C   0  0  0  0  0  0  0  0  0  0  0  0
  158.1950  210.4210  154.3920 C   0  0  2  0  0  3  0  0  0  0  0  0
  160.2660  212.2660  156.1070 C   0  0  0  0  0  3  0  0  0  0  0  0
  156.4020  212.5650  154.4700 S   0  0  0  0  0  1  0  0  0  0  0  0
  160.4950  209.9450  155.2090 N   0  0  0  0  0  0  0  0  0  0  0  0
  161.1830  211.1680  155.6020 C   0  0  0  0  0  2  0  0  0  0  0  0
  158.1010  211.9200  154.6750 C   0  0  2  0  0  0  0  0  0  0  0  0
  159.0690  209.7810  155.4720 C   0  0  0  0  0  2  0  0  0  0  0  0
  158.4220  213.7800  156.4550 C   0  0  0  0  0  3  0  0  0  0  0  0
  159.3770  214.4530  157.1950 F   0  0  0  0  0  0  0  0  0  0  0  0
  157.3780  213.3610  157.2610 F   0  0  0  0  0  0  0  0  0  0  0  0
  160.0310  211.6170  153.2100 O   0  0  0  0  0  0  0  0  0  0  0  0
  160.1800  212.7010  152.4780 O   0  0  0  0  0  1  0  0  0  0  0  0
  161.7570  206.0180  150.6080 N   0  0  0  0  0  2  0  0  0  0  0  0
  162.1030  205.2730  148.0090 O   0  0  0  0  0  0  0  0  0  0  0  0
  160.9320  202.8760  152.4150 O   0  0  0  0  0  0  0  0  0  0  0  0
  159.9420  201.3240  148.3880 O   0  0  0  0  0  0  0  0  0  0  0  0
  160.1040  204.2840  150.8010 O   0  0  0  0  0  0  0  0  0  0  0  0
  160.6830  205.2680  149.9370 C   0  0  2  0  0  3  0  0  0  0  0  0
  160.5620  202.3120  148.8690 C   0  0  0  0  0  0  0  0  0  0  0  0
  161.2610  202.1430  150.1780 C   0  0  0  0  0  2  0  0  0  0  0  0
  161.2030  204.6730  148.6510 C   0  0  0  0  0  0  0  0  0  0  0  0
  160.6850  203.4870  148.1260 O   0  0  0  0  0  0  0  0  0  0  0  0
  160.7720  203.1190  151.1900 C   0  0  0  0  0  0  0  0  0  0  0  0
  1 29  1  6  0  0  0
  1 12  1  0  0  0  0
  2  6  2  0  0  0  0
  2  3  1  0  0  0  0
  3  7  2  0  0  0  0
  4  5  2  0  0  0  0
  6  4  1  0  0  0  0
  7  5  1  0  0  0  0
  7  1  1  0  0  0  0
  8  9  2  0  0  0  0
  9  6  1  0  0  0  0
 10  9  2  0  0  0  0
 12 14  1  0  0  0  0
 12 11  1  1  0  0  0
 13 20  1  0  0  0  0
 14 13  2  0  0  0  0
 15 27  1  1  0  0  0
 15 17  1  0  0  0  0
 15 22  1  0  0  0  0
 16 18  2  0  0  0  0
 16 24  1  0  0  0  0
 17 22  1  0  0  0  0
 17 23  1  1  0  0  0
 20 23  1  0  0  0  0
 20 21  1  0  0  0  0
 21 18  1  0  0  0  0
 22 19  1  6  0  0  0
 22 16  1  0  0  0  0
 24 25  1  0  0  0  0
 24 26  1  0  0  0  0
 28 27  1  0  0  0  0
 30 37  2  0  0  0  0
 32 35  2  0  0  0  0
 33 39  1  0  0  0  0
 34 29  1  1  0  0  0
 34 33  1  0  0  0  0
 35 36  1  0  0  0  0
 36 39  1  0  0  0  0
 37 34  1  0  0  0  0
 38 37  1  0  0  0  0
 38 35  1  0  0  0  0
 39 31  2  0  0  0  0
M  END
>  <MODEL>
1

>  <REMARK>
 VINA RESULT:      -7.0      0.000      0.000
  Name = 
  9 active torsions:
  status: ('A' for Active; 'I' for Inactive)
    1  A    between atoms: C_1  and  O_8
    2  A    between atoms: C_3  and  N_27
    3  A    between atoms: C_6  and  C_17
    4  A    between atoms: N_7  and  C_15
    5  A    between atoms: N_7  and  C_22
    6  A    between atoms: C_15  and  C_16
    7  A    between atoms: C_15  and  C_35
    8  A    between atoms: C_16  and  C_26
    9  A    between atoms: C_23  and  N_29
                            x       y       z     vdW  Elec       q    Type
                         _______ _______ _______ _____ _____    ______ ____

>  <TORSDO>
F 9

$$$$
=
 OpenBabel11072415103D

 39 42  0  0  1  0  0  0  0  0999 V2000
  161.3750  206.2330  150.7640 C   0  0  2  0  0  3  0  0  0  0  0  0
  161.8970  209.9830  150.5680 C   0  0  0  0  0  3  0  0  0  0  0  0
  161.6740  208.6950  151.0640 C   0  0  0  0  0  3  0  0  0  0  0  0
  161.9360  209.1110  148.3100 C   0  0  0  0  0  3  0  0  0  0  0  0
  161.7180  207.8190  148.8070 C   0  0  0  0  0  3  0  0  0  0  0  0
  162.0380  210.1980  149.1900 C   0  0  0  0  0  0  0  0  0  0  0  0
  161.5870  207.6100  150.1870 C   0  0  0  0  0  0  0  0  0  0  0  0
  161.2000  212.4060  148.5630 O   0  0  0  0  0  0  0  0  0  0  0  0
  162.2530  211.5260  148.6800 N   0  0  0  0  0  0  0  0  0  0  0  0
  163.4030  211.9160  148.3880 O   0  0  0  0  0  0  0  0  0  0  0  0
  161.4040  204.7840  152.8450 C   0  0  0  0  0  1  0  0  0  0  0  0
  161.8520  206.0990  152.2210 C   0  0  2  0  0  3  0  0  0  0  0  0
  161.0430  207.1530  154.3180 C   0  0  0  0  0  3  0  0  0  0  0  0
  161.3380  207.2480  153.0210 C   0  0  0  0  0  3  0  0  0  0  0  0
  161.1810  210.9990  153.8650 C   0  0  1  0  0  3  0  0  0  0  0  0
  160.1610  211.0760  156.3280 C   0  0  0  0  0  0  0  0  0  0  0  0
  159.7970  210.2960  153.7700 C   0  0  2  0  0  3  0  0  0  0  0  0
  160.5460  209.9160  156.9200 C   0  0  0  0  0  3  0  0  0  0  0  0
  159.3560  213.0020  154.3200 S   0  0  0  0  0  1  0  0  0  0  0  0
  160.5120  208.2770  155.0340 N   0  0  0  0  0  0  0  0  0  0  0  0
  161.0960  208.6360  156.3200 C   0  0  0  0  0  2  0  0  0  0  0  0
  160.0600  211.3870  154.8080 C   0  0  2  0  0  0  0  0  0  0  0  0
  159.3750  209.0230  154.5040 C   0  0  0  0  0  2  0  0  0  0  0  0
  159.6670  212.1350  157.2610 C   0  0  0  0  0  3  0  0  0  0  0  0
  158.3180  212.3790  157.0800 F   0  0  0  0  0  0  0  0  0  0  0  0
  160.4030  213.2990  157.1200 F   0  0  0  0  0  0  0  0  0  0  0  0
  162.1890  210.2440  154.4580 O   0  0  0  0  0  0  0  0  0  0  0  0
  163.2770  210.5610  153.7890 O   0  0  0  0  0  1  0  0  0  0  0  0
  161.9260  205.1690  149.9180 N   0  0  0  0  0  2  0  0  0  0  0  0
  162.6650  204.9920  147.3000 O   0  0  0  0  0  0  0  0  0  0  0  0
  160.6700  201.7830  150.8010 O   0  0  0  0  0  0  0  0  0  0  0  0
  160.2930  201.2480  146.4220 O   0  0  0  0  0  0  0  0  0  0  0  0
  160.1860  203.5770  149.4510 O   0  0  0  0  0  0  0  0  0  0  0  0
  160.9450  204.6770  148.9370 C   0  0  2  0  0  3  0  0  0  0  0  0
  160.8690  202.0500  147.2070 C   0  0  0  0  0  0  0  0  0  0  0  0
  161.3330  201.5390  148.5320 C   0  0  0  0  0  2  0  0  0  0  0  0
  161.6440  204.3410  147.6420 C   0  0  0  0  0  0  0  0  0  0  0  0
  161.1660  203.3460  146.7840 O   0  0  0  0  0  0  0  0  0  0  0  0
  160.7270  202.3040  149.6560 C   0  0  0  0  0  0  0  0  0  0  0  0
  1 29  1  6  0  0  0
  1 12  1  0  0  0  0
  2  3  1  0  0  0  0
  4  5  2  0  0  0  0
  4  6  1  0  0  0  0
  5  7  1  0  0  0  0
  6  2  2  0  0  0  0
  7  1  1  0  0  0  0
  7  3  2  0  0  0  0
  8  9  2  0  0  0  0
  9  6  1  0  0  0  0
 10  9  2  0  0  0  0
 12 11  1  1  0  0  0
 12 14  1  0  0  0  0
 13 20  1  0  0  0  0
 14 13  2  0  0  0  0
 15 27  1  1  0  0  0
 15 22  1  0  0  0  0
 16 18  2  0  0  0  0
 16 24  1  0  0  0  0
 17 15  1  0  0  0  0
 17 23  1  1  0  0  0
 17 22  1  0  0  0  0
 20 21  1  0  0  0  0
 21 18  1  0  0  0  0
 22 19  1  6  0  0  0
 22 16  1  0  0  0  0
 23 20  1  0  0  0  0
 25 24  1  0  0  0  0
 26 24  1  0  0  0  0
 28 27  1  0  0  0  0
 30 37  2  0  0  0  0
 32 35  2  0  0  0  0
 33 39  1  0  0  0  0
 34 33  1  0  0  0  0
 34 29  1  1  0  0  0
 35 36  1  0  0  0  0
 36 39  1  0  0  0  0
 37 34  1  0  0  0  0
 38 35  1  0  0  0  0
 38 37  1  0  0  0  0
 39 31  2  0  0  0  0
M  END
>  <MODEL>
2

>  <REMARK>
 VINA RESULT:      -6.3      1.549      2.045
  Name = 
  9 active torsions:
  status: ('A' for Active; 'I' for Inactive)
    1  A    between atoms: C_1  and  O_8
    2  A    between atoms: C_3  and  N_27
    3  A    between atoms: C_6  and  C_17
    4  A    between atoms: N_7  and  C_15
    5  A    between atoms: N_7  and  C_22
    6  A    between atoms: C_15  and  C_16
    7  A    between atoms: C_15  and  C_35
    8  A    between atoms: C_16  and  C_26
    9  A    between atoms: C_23  and  N_29
                            x       y       z     vdW  Elec       q    Type
                         _______ _______ _______ _____ _____    ______ ____

>  <TORSDO>
F 9

$$$$
=
 OpenBabel11072415103D

 39 42  0  0  1  0  0  0  0  0999 V2000
  160.9340  211.0280  152.9690 C   0  0  2  0  0  3  0  0  0  0  0  0
  160.2740  213.2420  149.9620 C   0  0  0  0  0  3  0  0  0  0  0  0
  160.2080  212.6810  151.2410 C   0  0  0  0  0  3  0  0  0  0  0  0
  161.9440  211.6100  149.3270 C   0  0  0  0  0  3  0  0  0  0  0  0
  161.8830  211.0500  150.6100 C   0  0  0  0  0  3  0  0  0  0  0  0
  161.1480  212.7170  149.0010 C   0  0  0  0  0  0  0  0  0  0  0  0
  161.0130  211.5860  151.5700 C   0  0  0  0  0  0  0  0  0  0  0  0
  162.3010  213.0710  146.8760 O   0  0  0  0  0  0  0  0  0  0  0  0
  161.2040  213.2860  147.6810 N   0  0  0  0  0  0  0  0  0  0  0  0
  160.2390  213.9360  147.2280 O   0  0  0  0  0  0  0  0  0  0  0  0
  161.1420  208.7710  154.1070 C   0  0  0  0  0  1  0  0  0  0  0  0
  160.4370  209.5720  153.0200 C   0  0  2  0  0  3  0  0  0  0  0  0
  160.8020  207.6130  151.5410 C   0  0  0  0  0  3  0  0  0  0  0  0
  160.6430  208.9280  151.6910 C   0  0  0  0  0  3  0  0  0  0  0  0
  161.5130  204.0470  150.2030 C   0  0  1  0  0  3  0  0  0  0  0  0
  162.1200  205.2910  147.9230 C   0  0  0  0  0  0  0  0  0  0  0  0
  160.2050  204.7560  149.7500 C   0  0  2  0  0  3  0  0  0  0  0  0
  162.5030  206.5450  148.2820 C   0  0  0  0  0  3  0  0  0  0  0  0
  160.7720  202.7280  147.9090 S   0  0  0  0  0  1  0  0  0  0  0  0
  161.0390  207.0460  150.2450 N   0  0  0  0  0  0  0  0  0  0  0  0
  162.3110  207.3020  149.5820 C   0  0  0  0  0  2  0  0  0  0  0  0
  161.2460  204.2910  148.7310 C   0  0  2  0  0  0  0  0  0  0  0  0
  160.0040  206.2620  149.5790 C   0  0  0  0  0  2  0  0  0  0  0  0
  162.4940  204.8820  146.5350 C   0  0  0  0  0  3  0  0  0  0  0  0
  163.8630  204.7370  146.4030 F   0  0  0  0  0  0  0  0  0  0  0  0
  162.0000  205.7800  145.6050 F   0  0  0  0  0  0  0  0  0  0  0  0
  162.4800  204.8840  150.7530 O   0  0  0  0  0  0  0  0  0  0  0  0
  162.4180  204.6540  152.0470 O   0  0  0  0  0  1  0  0  0  0  0  0
  160.1760  211.8880  153.8840 N   0  0  0  0  0  2  0  0  0  0  0  0
  159.8750  211.3720  156.5430 O   0  0  0  0  0  0  0  0  0  0  0  0
  157.1740  213.8650  152.9340 O   0  0  0  0  0  0  0  0  0  0  0  0
  155.4370  212.2150  156.6580 O   0  0  0  0  0  0  0  0  0  0  0  0
  157.7840  211.7780  153.6730 O   0  0  0  0  0  0  0  0  0  0  0  0
  158.9330  211.2490  154.3440 C   0  0  2  0  0  3  0  0  0  0  0  0
  156.5840  212.3190  156.1420 C   0  0  0  0  0  0  0  0  0  0  0  0
  156.8630  213.4930  155.2610 C   0  0  0  0  0  2  0  0  0  0  0  0
  158.8280  211.3630  155.8460 C   0  0  0  0  0  0  0  0  0  0  0  0
  157.5910  211.4200  156.4940 O   0  0  0  0  0  0  0  0  0  0  0  0
  157.2910  213.0660  153.9000 C   0  0  0  0  0  0  0  0  0  0  0  0
  1 12  1  0  0  0  0
  1 29  1  1  0  0  0
  2  3  1  0  0  0  0
  3  7  2  0  0  0  0
  4  5  2  0  0  0  0
  5  7  1  0  0  0  0
  6  4  1  0  0  0  0
  6  2  2  0  0  0  0
  7  1  1  0  0  0  0
  8  9  2  0  0  0  0
  9  6  1  0  0  0  0
 10  9  2  0  0  0  0
 12 11  1  1  0  0  0
 13 14  2  0  0  0  0
 14 12  1  0  0  0  0
 15 27  1  1  0  0  0
 16 18  2  0  0  0  0
 16 22  1  0  0  0  0
 17 23  1  1  0  0  0
 17 15  1  0  0  0  0
 18 21  1  0  0  0  0
 20 13  1  0  0  0  0
 21 20  1  0  0  0  0
 22 19  1  6  0  0  0
 22 17  1  0  0  0  0
 22 15  1  0  0  0  0
 23 20  1  0  0  0  0
 24 16  1  0  0  0  0
 25 24  1  0  0  0  0
 26 24  1  0  0  0  0
 27 28  1  0  0  0  0
 31 39  2  0  0  0  0
 33 39  1  0  0  0  0
 33 34  1  0  0  0  0
 34 29  1  6  0  0  0
 34 37  1  0  0  0  0
 35 38  1  0  0  0  0
 35 32  2  0  0  0  0
 36 35  1  0  0  0  0
 37 38  1  0  0  0  0
 37 30  2  0  0  0  0
 39 36  1  0  0  0  0
M  END
>  <MODEL>
3

>  <REMARK>
 VINA RESULT:      -5.7      4.467      8.738
  Name = 
  9 active torsions:
  status: ('A' for Active; 'I' for Inactive)
    1  A    between atoms: C_1  and  O_8
    2  A    between atoms: C_3  and  N_27
    3  A    between atoms: C_6  and  C_17
    4  A    between atoms: N_7  and  C_15
    5  A    between atoms: N_7  and  C_22
    6  A    between atoms: C_15  and  C_16
    7  A    between atoms: C_15  and  C_35
    8  A    between atoms: C_16  and  C_26
    9  A    between atoms: C_23  and  N_29
                            x       y       z     vdW  Elec       q    Type
                         _______ _______ _______ _____ _____    ______ ____

>  <TORSDO>
F 9

$$$$
=
 OpenBabel11072415103D

 39 42  0  0  1  0  0  0  0  0999 V2000
  161.3220  208.6170  151.4790 C   0  0  2  0  0  3  0  0  0  0  0  0
  161.3500  204.8260  151.4360 C   0  0  0  0  0  3  0  0  0  0  0  0
  161.4420  206.1520  151.8690 C   0  0  0  0  0  3  0  0  0  0  0  0
  160.8730  205.5880  149.1890 C   0  0  0  0  0  3  0  0  0  0  0  0
  160.9590  206.9170  149.6230 C   0  0  0  0  0  3  0  0  0  0  0  0
  161.0570  204.5350  150.0970 C   0  0  0  0  0  0  0  0  0  0  0  0
  161.2440  207.2010  150.9660 C   0  0  0  0  0  0  0  0  0  0  0  0
  161.0020  202.1360  150.5600 O   0  0  0  0  0  0  0  0  0  0  0  0
  160.9780  203.1700  149.6500 N   0  0  0  0  0  0  0  0  0  0  0  0
  160.8310  202.9060  148.4380 O   0  0  0  0  0  0  0  0  0  0  0  0
  162.8890  210.6110  151.4970 C   0  0  0  0  0  1  0  0  0  0  0  0
  162.2520  209.5190  150.6480 C   0  0  2  0  0  3  0  0  0  0  0  0
  161.7080  211.3610  149.0760 C   0  0  0  0  0  3  0  0  0  0  0  0
  161.4830  210.1260  149.5230 C   0  0  0  0  0  3  0  0  0  0  0  0
  162.2210  214.1600  146.4450 C   0  0  1  0  0  3  0  0  0  0  0  0
  159.6050  213.8810  146.0030 C   0  0  0  0  0  0  0  0  0  0  0  0
  162.0330  212.7010  145.9410 C   0  0  2  0  0  3  0  0  0  0  0  0
  159.0890  213.3920  147.1610 C   0  0  0  0  0  3  0  0  0  0  0  0
  161.4350  214.4300  143.8260 S   0  0  0  0  0  1  0  0  0  0  0  0
  160.9130  211.9150  148.0180 N   0  0  0  0  0  0  0  0  0  0  0  0
  159.7720  212.7550  148.3560 C   0  0  0  0  0  2  0  0  0  0  0  0
  161.0790  213.8150  145.5110 C   0  0  2  0  0  0  0  0  0  0  0  0
  161.2160  211.6040  146.6250 C   0  0  0  0  0  2  0  0  0  0  0  0
  158.6050  214.4440  145.0450 C   0  0  0  0  0  3  0  0  0  0  0  0
  157.3320  214.4420  145.5850 F   0  0  0  0  0  0  0  0  0  0  0  0
  158.6330  213.7590  143.8420 F   0  0  0  0  0  0  0  0  0  0  0  0
  161.8310  214.3860  147.7630 O   0  0  0  0  0  0  0  0  0  0  0  0
  162.9600  214.4530  148.4350 O   0  0  0  0  0  1  0  0  0  0  0  0
  161.6400  208.6890  152.9090 N   0  0  0  0  0  2  0  0  0  0  0  0
  161.7440  207.9690  155.5350 O   0  0  0  0  0  0  0  0  0  0  0  0
  160.4470  212.2090  152.9160 O   0  0  0  0  0  0  0  0  0  0  0  0
  159.0410  211.2760  157.0090 O   0  0  0  0  0  0  0  0  0  0  0  0
  159.7590  210.0840  153.4490 O   0  0  0  0  0  0  0  0  0  0  0  0
  160.4350  208.8560  153.7370 C   0  0  2  0  0  3  0  0  0  0  0  0
  159.8240  210.7630  156.1630 C   0  0  0  0  0  0  0  0  0  0  0  0
  160.5540  211.6710  155.2280 C   0  0  0  0  0  2  0  0  0  0  0  0
  160.7980  208.7250  155.1970 C   0  0  0  0  0  0  0  0  0  0  0  0
  160.0830  209.3920  156.1950 O   0  0  0  0  0  0  0  0  0  0  0  0
  160.2650  211.3380  153.8060 C   0  0  0  0  0  0  0  0  0  0  0  0
  1 29  1  1  0  0  0
  2  3  1  0  0  0  0
  4  5  2  0  0  0  0
  4  6  1  0  0  0  0
  5  7  1  0  0  0  0
  6  2  2  0  0  0  0
  7  1  1  0  0  0  0
  7  3  2  0  0  0  0
  9  6  1  0  0  0  0
  9  8  2  0  0  0  0
 10  9  2  0  0  0  0
 12  1  1  0  0  0  0
 12 11  1  1  0  0  0
 13 14  2  0  0  0  0
 14 12  1  0  0  0  0
 15 27  1  1  0  0  0
 16 18  2  0  0  0  0
 17 15  1  0  0  0  0
 17 23  1  1  0  0  0
 18 21  1  0  0  0  0
 20 21  1  0  0  0  0
 20 13  1  0  0  0  0
 22 19  1  6  0  0  0
 22 17  1  0  0  0  0
 22 16  1  0  0  0  0
 22 15  1  0  0  0  0
 23 20  1  0  0  0  0
 24 25  1  0  0  0  0
 24 16  1  0  0  0  0
 26 24  1  0  0  0  0
 27 28  1  0  0  0  0
 31 39  2  0  0  0  0
 33 34  1  0  0  0  0
 33 39  1  0  0  0  0
 34 29  1  6  0  0  0
 34 37  1  0  0  0  0
 35 38  1  0  0  0  0
 35 32  2  0  0  0  0
 36 35  1  0  0  0  0
 37 30  2  0  0  0  0
 37 38  1  0  0  0  0
 39 36  1  0  0  0  0
M  END
>  <MODEL>
4

>  <REMARK>
 VINA RESULT:      -5.3      4.300      8.312
  Name = 
  9 active torsions:
  status: ('A' for Active; 'I' for Inactive)
    1  A    between atoms: C_1  and  O_8
    2  A    between atoms: C_3  and  N_27
    3  A    between atoms: C_6  and  C_17
    4  A    between atoms: N_7  and  C_15
    5  A    between atoms: N_7  and  C_22
    6  A    between atoms: C_15  and  C_16
    7  A    between atoms: C_15  and  C_35
    8  A    between atoms: C_16  and  C_26
    9  A    between atoms: C_23  and  N_29
                            x       y       z     vdW  Elec       q    Type
                         _______ _______ _______ _____ _____    ______ ____

>  <TORSDO>
F 9

$$$$
=
 OpenBabel11072415103D

 39 42  0  0  1  0  0  0  0  0999 V2000
  159.8270  210.8330  152.3300 C   0  0  2  0  0  3  0  0  0  0  0  0
  157.0100  212.8200  153.9080 C   0  0  0  0  0  3  0  0  0  0  0  0
  157.8870  212.2720  152.9670 C   0  0  0  0  0  3  0  0  0  0  0  0
  158.2030  211.6880  155.6840 C   0  0  0  0  0  3  0  0  0  0  0  0
  159.0790  211.1340  154.7420 C   0  0  0  0  0  3  0  0  0  0  0  0
  157.1560  212.5250  155.2700 C   0  0  0  0  0  0  0  0  0  0  0  0
  158.9210  211.4260  153.3790 C   0  0  0  0  0  0  0  0  0  0  0  0
  155.2890  212.3280  156.8340 O   0  0  0  0  0  0  0  0  0  0  0  0
  156.2620  213.1010  156.2390 N   0  0  0  0  0  0  0  0  0  0  0  0
  156.3900  214.2920  156.5920 O   0  0  0  0  0  0  0  0  0  0  0  0
  162.1230  210.1690  153.1800 C   0  0  0  0  0  1  0  0  0  0  0  0
  160.7130  209.6910  152.8610 C   0  0  2  0  0  3  0  0  0  0  0  0
  161.3060  208.7320  150.6500 C   0  0  0  0  0  3  0  0  0  0  0  0
  160.7590  208.5890  151.8560 C   0  0  0  0  0  3  0  0  0  0  0  0
  161.7040  204.8840  150.8760 C   0  0  1  0  0  3  0  0  0  0  0  0
  161.8920  204.9960  148.2180 C   0  0  0  0  0  0  0  0  0  0  0  0
  160.3450  205.4560  150.3820 C   0  0  2  0  0  3  0  0  0  0  0  0
  162.3530  206.2430  147.9360 C   0  0  0  0  0  3  0  0  0  0  0  0
  160.5290  202.8000  149.5250 S   0  0  0  0  0  1  0  0  0  0  0  0
  161.2890  207.6540  149.7030 N   0  0  0  0  0  0  0  0  0  0  0  0
  162.4190  207.4900  148.7980 C   0  0  0  0  0  2  0  0  0  0  0  0
  161.1710  204.5120  149.5070 C   0  0  2  0  0  0  0  0  0  0  0  0
  160.1370  206.7630  149.6170 C   0  0  0  0  0  2  0  0  0  0  0  0
  161.9950  204.0100  147.0990 C   0  0  0  0  0  3  0  0  0  0  0  0
  163.0920  204.2680  146.2970 F   0  0  0  0  0  0  0  0  0  0  0  0
  160.8310  203.9870  146.3520 F   0  0  0  0  0  0  0  0  0  0  0  0
  162.7690  205.7810  150.8490 O   0  0  0  0  0  0  0  0  0  0  0  0
  163.0770  205.9680  152.1140 O   0  0  0  0  0  1  0  0  0  0  0  0
  160.6200  211.8440  151.6240 N   0  0  0  0  0  2  0  0  0  0  0  0
  159.9640  214.4530  151.1870 O   0  0  0  0  0  0  0  0  0  0  0  0
  162.8030  210.9030  148.7660 O   0  0  0  0  0  0  0  0  0  0  0  0
  161.0290  214.4490  146.7960 O   0  0  0  0  0  0  0  0  0  0  0  0
  160.6480  211.5350  149.2400 O   0  0  0  0  0  0  0  0  0  0  0  0
  160.0210  212.2170  150.3330 C   0  0  2  0  0  3  0  0  0  0  0  0
  161.1040  213.9850  147.9670 C   0  0  0  0  0  0  0  0  0  0  0  0
  162.3110  213.1880  148.3400 C   0  0  0  0  0  2  0  0  0  0  0  0
  160.0510  213.7170  150.1710 C   0  0  0  0  0  0  0  0  0  0  0  0
  160.1340  214.3200  148.9130 O   0  0  0  0  0  0  0  0  0  0  0  0
  161.9440  211.8220  148.8020 C   0  0  0  0  0  0  0  0  0  0  0  0
  1 29  1  1  0  0  0
  1 12  1  0  0  0  0
  1  7  1  0  0  0  0
  2  6  1  0  0  0  0
  3  7  1  0  0  0  0
  3  2  2  0  0  0  0
  5  4  1  0  0  0  0
  6  4  2  0  0  0  0
  6  9  1  0  0  0  0
  7  5  2  0  0  0  0
  9 10  2  0  0  0  0
  9  8  2  0  0  0  0
 12 11  1  6  0  0  0
 13 14  2  0  0  0  0
 14 12  1  0  0  0  0
 15 27  1  6  0  0  0
 16 22  1  0  0  0  0
 17 23  1  6  0  0  0
 17 15  1  0  0  0  0
 18 16  2  0  0  0  0
 18 21  1  0  0  0  0
 20 13  1  0  0  0  0
 21 20  1  0  0  0  0
 22 19  1  6  0  0  0
 22 17  1  0  0  0  0
 22 15  1  0  0  0  0
 23 20  1  0  0  0  0
 24 16  1  0  0  0  0
 25 24  1  0  0  0  0
 26 24  1  0  0  0  0
 27 28  1  0  0  0  0
 31 39  2  0  0  0  0
 32 35  2  0  0  0  0
 33 34  1  0  0  0  0
 34 29  1  1  0  0  0
 35 36  1  0  0  0  0
 35 38  1  0  0  0  0
 36 39  1  0  0  0  0
 37 34  1  0  0  0  0
 37 30  2  0  0  0  0
 38 37  1  0  0  0  0
 39 33  1  0  0  0  0
M  END
>  <MODEL>
5

>  <REMARK>
 VINA RESULT:      -5.2      4.604      9.063
  Name = 
  9 active torsions:
  status: ('A' for Active; 'I' for Inactive)
    1  A    between atoms: C_1  and  O_8
    2  A    between atoms: C_3  and  N_27
    3  A    between atoms: C_6  and  C_17
    4  A    between atoms: N_7  and  C_15
    5  A    between atoms: N_7  and  C_22
    6  A    between atoms: C_15  and  C_16
    7  A    between atoms: C_15  and  C_35
    8  A    between atoms: C_16  and  C_26
    9  A    between atoms: C_23  and  N_29
                            x       y       z     vdW  Elec       q    Type
                         _______ _______ _______ _____ _____    ______ ____

>  <TORSDO>
F 9

$$$$
=
 OpenBabel11072415103D

 39 42  0  0  1  0  0  0  0  0999 V2000
  161.3600  209.8700  153.6740 C   0  0  2  0  0  3  0  0  0  0  0  0
  160.8150  211.9650  150.5610 C   0  0  0  0  0  3  0  0  0  0  0  0
  160.7170  211.4680  151.8640 C   0  0  0  0  0  3  0  0  0  0  0  0
  162.4190  210.2350  150.0190 C   0  0  0  0  0  3  0  0  0  0  0  0
  162.3250  209.7400  151.3260 C   0  0  0  0  0  3  0  0  0  0  0  0
  161.6730  211.3580  149.6330 C   0  0  0  0  0  0  0  0  0  0  0  0
  161.4730  210.3580  152.2510 C   0  0  0  0  0  0  0  0  0  0  0  0
  162.9580  212.3470  147.8050 O   0  0  0  0  0  0  0  0  0  0  0  0
  161.7620  211.8610  148.2880 N   0  0  0  0  0  0  0  0  0  0  0  0
  160.7750  211.8160  147.5260 O   0  0  0  0  0  0  0  0  0  0  0  0
  160.8630  207.8430  155.1150 C   0  0  0  0  0  1  0  0  0  0  0  0
  160.5490  208.5690  153.8140 C   0  0  2  0  0  3  0  0  0  0  0  0
  161.2910  206.4370  152.7820 C   0  0  0  0  0  3  0  0  0  0  0  0
  160.8290  207.6800  152.6490 C   0  0  0  0  0  3  0  0  0  0  0  0
  160.9680  206.9310  148.9520 C   0  0  1  0  0  3  0  0  0  0  0  0
  161.4660  204.3140  148.8230 C   0  0  0  0  0  0  0  0  0  0  0  0
  162.3900  206.7430  149.5520 C   0  0  2  0  0  3  0  0  0  0  0  0
  161.0550  203.8040  150.0130 C   0  0  0  0  0  3  0  0  0  0  0  0
  162.5150  206.1320  146.8270 S   0  0  0  0  0  1  0  0  0  0  0  0
  161.5840  205.6360  151.6290 N   0  0  0  0  0  0  0  0  0  0  0  0
  160.7310  204.4950  151.3250 C   0  0  0  0  0  2  0  0  0  0  0  0
  161.8460  205.7850  148.4930 C   0  0  2  0  0  0  0  0  0  0  0  0
  162.7470  205.9320  150.7980 C   0  0  0  0  0  2  0  0  0  0  0  0
  161.6850  203.3080  147.7390 C   0  0  0  0  0  3  0  0  0  0  0  0
  160.8490  203.5360  146.6610 F   0  0  0  0  0  0  0  0  0  0  0  0
  161.5280  202.0200  148.2210 F   0  0  0  0  0  0  0  0  0  0  0  0
  159.9180  206.5480  149.7830 O   0  0  0  0  0  0  0  0  0  0  0  0
  158.9370  206.2460  148.9600 O   0  0  0  0  0  1  0  0  0  0  0  0
  160.8780  210.9060  154.5950 N   0  0  0  0  0  2  0  0  0  0  0  0
  160.3990  210.5980  157.2600 O   0  0  0  0  0  0  0  0  0  0  0  0
  158.5560  213.5940  153.4970 O   0  0  0  0  0  0  0  0  0  0  0  0
  156.3660  212.6350  157.2250 O   0  0  0  0  0  0  0  0  0  0  0  0
  158.5530  211.4500  154.3210 O   0  0  0  0  0  0  0  0  0  0  0  0
  159.4990  210.6520  155.0410 C   0  0  2  0  0  3  0  0  0  0  0  0
  157.5060  212.3990  156.7380 C   0  0  0  0  0  0  0  0  0  0  0  0
  158.1130  213.4140  155.8250 C   0  0  0  0  0  2  0  0  0  0  0  0
  159.4030  210.8500  156.5350 C   0  0  0  0  0  0  0  0  0  0  0  0
  158.2190  211.2710  157.1470 O   0  0  0  0  0  0  0  0  0  0  0  0
  158.4300  212.8330  154.4920 C   0  0  0  0  0  0  0  0  0  0  0  0
  1 12  1  0  0  0  0
  1 29  1  1  0  0  0
  2  3  1  0  0  0  0
  3  7  2  0  0  0  0
  4  5  2  0  0  0  0
  5  7  1  0  0  0  0
  6  4  1  0  0  0  0
  6  2  2  0  0  0  0
  7  1  1  0  0  0  0
  8  9  2  0  0  0  0
  9  6  1  0  0  0  0
 10  9  2  0  0  0  0
 12 11  1  1  0  0  0
 14 13  2  0  0  0  0
 14 12  1  0  0  0  0
 15 17  1  0  0  0  0
 15 27  1  1  0  0  0
 16 18  2  0  0  0  0
 17 23  1  1  0  0  0
 18 21  1  0  0  0  0
 20 13  1  0  0  0  0
 21 20  1  0  0  0  0
 22 19  1  6  0  0  0
 22 16  1  0  0  0  0
 22 15  1  0  0  0  0
 22 17  1  0  0  0  0
 23 20  1  0  0  0  0
 24 26  1  0  0  0  0
 24 16  1  0  0  0  0
 25 24  1  0  0  0  0
 28 27  1  0  0  0  0
 31 39  2  0  0  0  0
 33 39  1  0  0  0  0
 33 34  1  0  0  0  0
 34 29  1  6  0  0  0
 34 37  1  0  0  0  0
 35 38  1  0  0  0  0
 35 32  2  0  0  0  0
 36 35  1  0  0  0  0
 37 38  1  0  0  0  0
 37 30  2  0  0  0  0
 39 36  1  0  0  0  0
M  END
>  <MODEL>
6

>  <REMARK>
 VINA RESULT:      -4.3      4.308      8.555
  Name = 
  9 active torsions:
  status: ('A' for Active; 'I' for Inactive)
    1  A    between atoms: C_1  and  O_8
    2  A    between atoms: C_3  and  N_27
    3  A    between atoms: C_6  and  C_17
    4  A    between atoms: N_7  and  C_15
    5  A    between atoms: N_7  and  C_22
    6  A    between atoms: C_15  and  C_16
    7  A    between atoms: C_15  and  C_35
    8  A    between atoms: C_16  and  C_26
    9  A    between atoms: C_23  and  N_29
                            x       y       z     vdW  Elec       q    Type
                         _______ _______ _______ _____ _____    ______ ____

>  <TORSDO>
F 9

$$$$
