=
 OpenBabel11072412473D

 55 60  0  0  1  0  0  0  0  0999 V2000
  161.8420  211.1760  149.2670 O   0  0  0  0  0  0  0  0  0  0  0  0
  161.6540  212.5740  148.3200 P   0  0  2  0  0  0  0  0  0  0  0  0
  163.0130  213.1090  147.9200 O   0  0  0  0  0  0  0  0  0  0  0  0
  160.8260  213.7520  149.2080 O   0  0  0  0  0  1  0  0  0  0  0  0
  160.7350  212.1580  146.9430 O   0  0  0  0  0  0  0  0  0  0  0  0
  162.5810  214.4520  144.7760 O   0  0  0  0  0  1  0  0  0  0  0  0
  162.3010  213.1810  145.2890 C   0  0  1  0  0  3  0  0  0  0  0  0
  160.9370  213.1490  145.9690 C   0  0  1  0  0  0  0  0  0  0  0  0
  161.0990  212.5220  144.6000 C   0  0  1  0  0  3  0  0  0  0  0  0
  159.5280  214.4520  144.4280 C   0  0  1  0  0  3  0  0  0  0  0  0
  158.5820  213.8150  145.4350 C   0  0  0  0  0  2  0  0  0  0  0  0
  159.9450  214.3110  145.8810 C   0  0  1  0  0  3  0  0  0  0  0  0
  160.3390  213.4240  143.6340 C   0  0  2  0  0  3  0  0  0  0  0  0
  159.4560  212.5840  142.7180 C   0  0  0  0  0  2  0  0  0  0  0  0
  162.2570  212.8170  141.3270 O   0  0  0  0  0  1  0  0  0  0  0  0
  159.8270  212.7970  141.2580 C   0  0  2  0  0  3  0  0  0  0  0  0
  161.2350  213.5320  138.6190 C   0  0  0  0  0  2  0  0  0  0  0  0
  159.8830  211.4520  140.5170 C   0  0  0  0  0  2  0  0  0  0  0  0
  160.0430  212.8070  138.5000 O   0  0  0  0  0  0  0  0  0  0  0  0
  161.1940  214.4190  139.8610 C   0  0  0  0  0  2  0  0  0  0  0  0
  161.1200  213.6150  141.1610 C   0  0  2  0  0  3  0  0  0  0  0  0
  160.3320  211.5530  139.0550 C   0  0  2  0  0  3  0  0  0  0  0  0
  160.4570  209.6360  137.6580 O   0  0  0  0  0  0  0  0  0  0  0  0
  159.7080  210.4650  138.2400 C   0  0  0  0  0  0  0  0  0  0  0  0
  157.7500  209.3420  137.5250 O   0  0  0  0  0  0  0  0  0  0  0  0
  158.2450  210.3430  138.1130 C   0  0  0  0  0  0  0  0  0  0  0  0
  157.4130  211.3320  138.6460 O   0  0  0  0  0  0  0  0  0  0  0  0
  156.1070  211.0410  139.1180 C   0  0  0  0  0  1  0  0  0  0  0  0
  161.2550  211.4640  150.5020 C   0  0  0  0  0  2  0  0  0  0  0  0
  161.6700  210.4280  151.5370 C   0  0  1  0  0  3  0  0  0  0  0  0
  162.3720  211.0630  152.5450 F   0  0  0  0  0  0  0  0  0  0  0  0
  160.5360  209.8060  152.0820 O   0  0  0  0  0  0  0  0  0  0  0  0
  160.9380  208.6620  152.8070 C   0  0  1  0  0  3  0  0  0  0  0  0
  159.9070  209.2840  154.8570 O   0  0  0  0  0  0  0  0  0  0  0  0
  160.8500  208.7450  154.3050 C   0  0  0  0  0  3  0  0  0  0  0  0
  160.7100  207.2930  152.1490 C   0  0  0  0  0  2  0  0  0  0  0  0
  163.1060  208.5940  148.2350 C   0  0  0  0  0  1  0  0  0  0  0  0
  162.8530  208.1020  149.6190 C   0  0  0  0  0  3  0  0  0  0  0  0
  161.1360  204.5490  150.5060 C   0  0  0  0  0  0  0  0  0  0  0  0
  161.9300  207.1960  149.9660 C   0  0  0  0  0  0  0  0  0  0  0  0
  161.8450  205.2330  151.4140 C   0  0  0  0  0  3  0  0  0  0  0  0
  161.9120  206.7320  151.3930 C   0  0  2  0  0  3  0  0  0  0  0  0
  160.3780  205.2900  149.4310 C   0  0  0  0  0  2  0  0  0  0  0  0
  161.0700  206.5160  149.0200 N   0  0  0  0  0  0  0  0  0  0  0  0
  161.0570  203.0800  150.5780 C   0  0  0  0  0  0  0  0  0  0  0  0
  161.3870  202.4860  151.6400 O   0  0  0  0  0  0  0  0  0  0  0  0
  160.6040  202.3270  149.4470 N   0  0  0  0  0  2  0  0  0  0  0  0
  160.7870  200.3940  150.7350 O   0  0  0  0  0  1  0  0  0  0  0  0
  161.5810  200.3230  148.4990 C   0  0  0  0  0  1  0  0  0  0  0  0
  160.5390  200.8740  149.4490 C   0  0  2  0  0  3  0  0  0  0  0  0
  160.6540  207.1150  147.7570 C   0  0  0  0  0  2  0  0  0  0  0  0
  160.0190  205.4620  146.1070 O   0  0  0  0  0  0  0  0  0  0  0  0
  161.0800  206.2490  146.5810 C   0  0  2  0  0  0  0  0  0  0  0  0
  162.3770  205.4670  146.6200 C   0  0  0  0  0  1  0  0  0  0  0  0
  160.4670  206.5030  145.2640 C   0  0  0  0  0  2  0  0  0  0  0  0
  1 29  1  0  0  0  0
  2  3  2  6  0  0  0
  2  4  1  0  0  0  0
  2  1  1  0  0  0  0
  5  2  1  0  0  0  0
  7  6  1  6  0  0  0
  7  8  1  0  0  0  0
  8  5  1  1  0  0  0
  9  7  1  0  0  0  0
  9  8  1  0  0  0  0
 10 11  1  0  0  0  0
 10 12  1  0  0  0  0
 11 12  1  0  0  0  0
 12  8  1  0  0  0  0
 13 10  1  0  0  0  0
 13  9  1  0  0  0  0
 14 13  1  0  0  0  0
 16 14  1  0  0  0  0
 17 20  1  0  0  0  0
 18 16  1  0  0  0  0
 19 17  1  0  0  0  0
 19 22  1  0  0  0  0
 20 21  1  0  0  0  0
 21 16  1  0  0  0  0
 21 15  1  0  0  0  0
 22 18  1  0  0  0  0
 23 24  2  0  0  0  0
 24 22  1  0  0  0  0
 25 26  2  0  0  0  0
 26 24  1  0  0  0  0
 26 27  1  0  0  0  0
 27 28  1  0  0  0  0
 29 30  1  0  0  0  0
 30 32  1  0  0  0  0
 30 31  1  0  0  0  0
 32 33  1  0  0  0  0
 33 35  1  0  0  0  0
 35 34  2  0  0  0  0
 36 33  1  0  0  0  0
 37 38  1  0  0  0  0
 38 40  2  0  0  0  0
 39 45  1  0  0  0  0
 39 41  2  0  0  0  0
 40 42  1  0  0  0  0
 42 41  1  0  0  0  0
 42 36  1  0  0  0  0
 43 39  1  0  0  0  0
 44 43  1  0  0  0  0
 44 40  1  0  0  0  0
 45 46  2  0  0  0  0
 47 50  1  0  0  0  0
 47 45  1  0  0  0  0
 49 50  1  0  0  0  0
 50 48  1  0  0  0  0
 51 44  1  0  0  0  0
 52 53  1  0  0  0  0
 53 54  1  0  0  0  0
 53 51  1  0  0  0  0
 55 52  1  0  0  0  0
 55 53  1  0  0  0  0
M  END
>  <MODEL>
1

>  <REMARK>
 VINA RESULT:      -5.1      0.000      0.000
  Name = 
  19 active torsions:
  status: ('A' for Active; 'I' for Inactive)
    1  A    between atoms: C_5  and  C_6
    2  A    between atoms: C_5  and  O_26
    3  A    between atoms: C_6  and  O_17
    4  A    between atoms: C_8  and  C_33
    5  A    between atoms: C_9  and  C_12
    6  A    between atoms: C_9  and  C_54
    7  A    between atoms: O_10  and  C_21
    8  A    between atoms: O_10  and  P_32
    9  A    between atoms: C_13  and  O_17
   10  A    between atoms: C_13  and  C_24
   11  A    between atoms: C_13  and  C_47
   12  A    between atoms: C_16  and  C_23
   13  A    between atoms: O_20  and  C_46
   14  A    between atoms: O_26  and  P_32
   15  A    between atoms: C_29  and  C_46
   16  A    between atoms: C_29  and  C_55
   17  A    between atoms: C_33  and  N_49
   18  A    between atoms: C_43  and  C_47
   19  A    between atoms: C_45  and  N_53
                            x       y       z     vdW  Elec       q    Type
                         _______ _______ _______ _____ _____    ______ ____

>  <TORSDO>
F 19

$$$$
=
 OpenBabel11072412473D

 55 60  0  0  1  0  0  0  0  0999 V2000
  162.2770  205.5250  143.6380 O   0  0  0  0  0  0  0  0  0  0  0  0
  161.3290  205.1330  144.9930 P   0  0  2  0  0  0  0  0  0  0  0  0
  160.7140  203.7610  144.8070 O   0  0  0  0  0  0  0  0  0  0  0  0
  160.0980  206.2790  145.1720 O   0  0  0  0  0  1  0  0  0  0  0  0
  162.3350  205.1680  146.3700 O   0  0  0  0  0  0  0  0  0  0  0  0
  160.1170  204.3430  149.1570 O   0  0  0  0  0  1  0  0  0  0  0  0
  161.2990  204.1950  148.4230 C   0  0  1  0  0  3  0  0  0  0  0  0
  161.5250  205.3840  147.4960 C   0  0  1  0  0  0  0  0  0  0  0  0
  162.3410  205.2680  148.7670 C   0  0  1  0  0  3  0  0  0  0  0  0
  160.9050  207.3030  148.9080 C   0  0  1  0  0  3  0  0  0  0  0  0
  161.5480  207.8840  147.6570 C   0  0  0  0  0  2  0  0  0  0  0  0
  160.6680  206.6520  147.5570 C   0  0  1  0  0  3  0  0  0  0  0  0
  161.8420  206.3760  149.6870 C   0  0  2  0  0  3  0  0  0  0  0  0
  163.0230  207.1310  150.2870 C   0  0  0  0  0  2  0  0  0  0  0  0
  160.8090  209.3310  150.5850 O   0  0  0  0  0  1  0  0  0  0  0  0
  162.5900  207.9500  151.4940 C   0  0  2  0  0  3  0  0  0  0  0  0
  161.4840  210.1180  153.3810 C   0  0  0  0  0  2  0  0  0  0  0  0
  161.5430  207.1820  152.3160 C   0  0  0  0  0  2  0  0  0  0  0  0
  161.8850  208.9220  153.9860 O   0  0  0  0  0  0  0  0  0  0  0  0
  162.3280  210.3930  152.1380 C   0  0  0  0  0  2  0  0  0  0  0  0
  162.1300  209.3410  151.0440 C   0  0  2  0  0  3  0  0  0  0  0  0
  160.9810  207.9620  153.5100 C   0  0  2  0  0  3  0  0  0  0  0  0
  160.5090  205.7930  154.3560 O   0  0  0  0  0  0  0  0  0  0  0  0
  160.5890  207.0250  154.6090 C   0  0  0  0  0  0  0  0  0  0  0  0
  159.6480  206.7910  156.7680 O   0  0  0  0  0  0  0  0  0  0  0  0
  160.3070  207.5120  155.9700 C   0  0  0  0  0  0  0  0  0  0  0  0
  160.7720  208.7670  156.3720 O   0  0  0  0  0  0  0  0  0  0  0  0
  159.8990  209.7620  156.8860 C   0  0  0  0  0  1  0  0  0  0  0  0
  161.3800  205.8700  142.6240 C   0  0  0  0  0  2  0  0  0  0  0  0
  162.1160  206.5450  141.4760 C   0  0  1  0  0  3  0  0  0  0  0  0
  162.8940  205.6010  140.8310 F   0  0  0  0  0  0  0  0  0  0  0  0
  161.1970  207.0910  140.5660 O   0  0  0  0  0  0  0  0  0  0  0  0
  161.8500  208.0620  139.7730 C   0  0  1  0  0  3  0  0  0  0  0  0
  162.3000  206.7130  137.8680 O   0  0  0  0  0  0  0  0  0  0  0  0
  161.9250  207.7900  138.2970 C   0  0  0  0  0  3  0  0  0  0  0  0
  161.7590  209.5240  140.2310 C   0  0  0  0  0  2  0  0  0  0  0  0
  163.5980  213.8560  139.4510 C   0  0  0  0  0  1  0  0  0  0  0  0
  163.1460  212.4620  139.1830 C   0  0  0  0  0  3  0  0  0  0  0  0
  159.2780  211.2780  139.1430 C   0  0  0  0  0  0  0  0  0  0  0  0
  161.9820  211.9310  139.5810 C   0  0  0  0  0  0  0  0  0  0  0  0
  160.2440  210.5440  138.5750 C   0  0  0  0  0  3  0  0  0  0  0  0
  161.6490  210.5480  139.1030 C   0  0  2  0  0  3  0  0  0  0  0  0
  159.5940  212.1340  140.3460 C   0  0  0  0  0  2  0  0  0  0  0  0
  160.9590  212.6680  140.2930 N   0  0  0  0  0  0  0  0  0  0  0  0
  157.9000  211.2200  138.6270 C   0  0  0  0  0  0  0  0  0  0  0  0
  157.4930  212.1050  137.8250 O   0  0  0  0  0  0  0  0  0  0  0  0
  157.0230  210.1630  139.0310 N   0  0  0  0  0  2  0  0  0  0  0  0
  154.8280  210.8450  139.4120 O   0  0  0  0  0  1  0  0  0  0  0  0
  155.1880  208.6320  138.6320 C   0  0  0  0  0  1  0  0  0  0  0  0
  155.6420  210.0750  138.5810 C   0  0  2  0  0  3  0  0  0  0  0  0
  161.2620  213.7890  141.1760 C   0  0  0  0  0  2  0  0  0  0  0  0
  162.8960  213.0390  142.7950 O   0  0  0  0  0  0  0  0  0  0  0  0
  161.5320  213.3050  142.5920 C   0  0  2  0  0  0  0  0  0  0  0  0
  160.6590  212.2460  143.2320 C   0  0  0  0  0  1  0  0  0  0  0  0
  162.3550  214.1500  143.4770 C   0  0  0  0  0  2  0  0  0  0  0  0
  1  2  1  0  0  0  0
  2  3  2  6  0  0  0
  2  4  1  0  0  0  0
  2  5  1  0  0  0  0
  7  9  1  0  0  0  0
  7  6  1  1  0  0  0
  8  5  1  6  0  0  0
  8 12  1  0  0  0  0
  8  7  1  0  0  0  0
  8  9  1  0  0  0  0
  9 13  1  0  0  0  0
 10 13  1  0  0  0  0
 11 10  1  0  0  0  0
 12 11  1  0  0  0  0
 12 10  1  0  0  0  0
 13 14  1  0  0  0  0
 14 16  1  0  0  0  0
 15 21  1  0  0  0  0
 16 18  1  0  0  0  0
 17 19  1  0  0  0  0
 18 22  1  0  0  0  0
 20 17  1  0  0  0  0
 21 16  1  0  0  0  0
 21 20  1  0  0  0  0
 22 19  1  0  0  0  0
 22 24  1  0  0  0  0
 23 24  2  0  0  0  0
 24 26  1  0  0  0  0
 26 27  1  0  0  0  0
 26 25  2  0  0  0  0
 27 28  1  0  0  0  0
 29  1  1  0  0  0  0
 30 29  1  0  0  0  0
 31 30  1  0  0  0  0
 32 30  1  0  0  0  0
 33 36  1  0  0  0  0
 33 32  1  0  0  0  0
 34 35  2  0  0  0  0
 35 33  1  0  0  0  0
 38 37  1  0  0  0  0
 38 40  2  0  0  0  0
 39 43  1  0  0  0  0
 40 44  1  0  0  0  0
 41 42  1  0  0  0  0
 41 39  2  0  0  0  0
 42 40  1  0  0  0  0
 42 36  1  0  0  0  0
 44 43  1  0  0  0  0
 44 51  1  0  0  0  0
 45 47  1  0  0  0  0
 45 39  1  0  0  0  0
 46 45  2  0  0  0  0
 50 49  1  0  0  0  0
 50 47  1  0  0  0  0
 50 48  1  0  0  0  0
 51 53  1  0  0  0  0
 52 55  1  0  0  0  0
 53 52  1  0  0  0  0
 53 54  1  0  0  0  0
 53 55  1  0  0  0  0
M  END
>  <MODEL>
2

>  <REMARK>
 VINA RESULT:      -3.8      3.839     12.599
  Name = 
  19 active torsions:
  status: ('A' for Active; 'I' for Inactive)
    1  A    between atoms: C_5  and  C_6
    2  A    between atoms: C_5  and  O_26
    3  A    between atoms: C_6  and  O_17
    4  A    between atoms: C_8  and  C_33
    5  A    between atoms: C_9  and  C_12
    6  A    between atoms: C_9  and  C_54
    7  A    between atoms: O_10  and  C_21
    8  A    between atoms: O_10  and  P_32
    9  A    between atoms: C_13  and  O_17
   10  A    between atoms: C_13  and  C_24
   11  A    between atoms: C_13  and  C_47
   12  A    between atoms: C_16  and  C_23
   13  A    between atoms: O_20  and  C_46
   14  A    between atoms: O_26  and  P_32
   15  A    between atoms: C_29  and  C_46
   16  A    between atoms: C_29  and  C_55
   17  A    between atoms: C_33  and  N_49
   18  A    between atoms: C_43  and  C_47
   19  A    between atoms: C_45  and  N_53
                            x       y       z     vdW  Elec       q    Type
                         _______ _______ _______ _____ _____    ______ ____

>  <TORSDO>
F 19

$$$$
=
 OpenBabel11072412473D

 55 60  0  0  1  0  0  0  0  0999 V2000
  162.4640  205.7810  143.5730 O   0  0  0  0  0  0  0  0  0  0  0  0
  161.5480  205.2490  144.9010 P   0  0  2  0  0  0  0  0  0  0  0  0
  161.4160  203.7400  144.8610 O   0  0  0  0  0  1  0  0  0  0  0  0
  160.0090  205.9480  144.8430 O   0  0  0  0  0  0  0  0  0  0  0  0
  162.3410  205.7520  146.3260 O   0  0  0  0  0  0  0  0  0  0  0  0
  159.0660  206.5760  147.7260 O   0  0  0  0  0  1  0  0  0  0  0  0
  160.0830  205.6760  147.3880 C   0  0  1  0  0  3  0  0  0  0  0  0
  161.4020  206.4000  147.1420 C   0  0  1  0  0  0  0  0  0  0  0  0
  161.2040  205.6360  148.4350 C   0  0  1  0  0  3  0  0  0  0  0  0
  161.4580  208.0610  148.9580 C   0  0  1  0  0  3  0  0  0  0  0  0
  162.8340  208.0910  148.3100 C   0  0  0  0  0  2  0  0  0  0  0  0
  161.5970  207.8860  147.4560 C   0  0  1  0  0  3  0  0  0  0  0  0
  161.0960  206.6890  149.5320 C   0  0  2  0  0  3  0  0  0  0  0  0
  161.9840  206.3110  150.7110 C   0  0  0  0  0  2  0  0  0  0  0  0
  163.1010  206.2070  153.6390 O   0  0  0  0  0  1  0  0  0  0  0  0
  161.3770  206.7800  152.0240 C   0  0  2  0  0  3  0  0  0  0  0  0
  160.6230  207.1770  154.9840 C   0  0  0  0  0  2  0  0  0  0  0  0
  161.6870  208.2670  152.2570 C   0  0  0  0  0  2  0  0  0  0  0  0
  160.0830  208.1010  154.0820 O   0  0  0  0  0  0  0  0  0  0  0  0
  160.8090  205.8210  154.3070 C   0  0  0  0  0  2  0  0  0  0  0  0
  161.8300  205.8640  153.1670 C   0  0  2  0  0  3  0  0  0  0  0  0
  161.1880  208.8150  153.5990 C   0  0  2  0  0  3  0  0  0  0  0  0
  161.1950  210.8850  152.4340 O   0  0  0  0  0  0  0  0  0  0  0  0
  160.8570  210.2690  153.4800 C   0  0  0  0  0  0  0  0  0  0  0  0
  160.6200  210.9990  155.7200 O   0  0  0  0  0  0  0  0  0  0  0  0
  160.1430  210.9850  154.5520 C   0  0  0  0  0  0  0  0  0  0  0  0
  158.9450  211.6460  154.2710 O   0  0  0  0  0  0  0  0  0  0  0  0
  158.8270  213.0580  154.3590 C   0  0  0  0  0  1  0  0  0  0  0  0
  161.5910  205.8000  142.4830 C   0  0  0  0  0  2  0  0  0  0  0  0
  162.0790  206.7870  141.4330 C   0  0  1  0  0  3  0  0  0  0  0  0
  163.4160  207.0550  141.6610 F   0  0  0  0  0  0  0  0  0  0  0  0
  161.9270  206.2420  140.1480 O   0  0  0  0  0  0  0  0  0  0  0  0
  161.9390  207.2870  139.1970 C   0  0  1  0  0  3  0  0  0  0  0  0
  162.7320  205.8070  137.5140 O   0  0  0  0  0  0  0  0  0  0  0  0
  162.3040  206.9150  137.7880 C   0  0  0  0  0  3  0  0  0  0  0  0
  160.9430  208.4380  139.4000 C   0  0  0  0  0  2  0  0  0  0  0  0
  162.5410  212.4520  137.3780 C   0  0  0  0  0  1  0  0  0  0  0  0
  162.0530  211.0500  137.5030 C   0  0  0  0  0  3  0  0  0  0  0  0
  158.2740  210.0250  138.5210 C   0  0  0  0  0  0  0  0  0  0  0  0
  161.0040  210.6540  138.2370 C   0  0  0  0  0  0  0  0  0  0  0  0
  159.1020  209.1560  137.9260 C   0  0  0  0  0  3  0  0  0  0  0  0
  160.5880  209.2150  138.1340 C   0  0  2  0  0  3  0  0  0  0  0  0
  158.8330  211.0950  139.4280 C   0  0  0  0  0  2  0  0  0  0  0  0
  160.1510  211.5570  138.9810 N   0  0  0  0  0  0  0  0  0  0  0  0
  156.8180  209.9140  138.3290 C   0  0  0  0  0  0  0  0  0  0  0  0
  156.3430  208.9380  137.6870 O   0  0  0  0  0  0  0  0  0  0  0  0
  155.9430  210.9090  138.8710 N   0  0  0  0  0  2  0  0  0  0  0  0
  154.1630  211.5350  137.5030 O   0  0  0  0  0  1  0  0  0  0  0  0
  153.8230  211.5510  139.8530 C   0  0  0  0  0  1  0  0  0  0  0  0
  154.5010  210.8710  138.6820 C   0  0  2  0  0  3  0  0  0  0  0  0
  160.6270  212.8210  139.5300 C   0  0  0  0  0  2  0  0  0  0  0  0
  160.9570  213.9010  141.6710 O   0  0  0  0  0  0  0  0  0  0  0  0
  160.9940  212.6690  140.9980 C   0  0  2  0  0  0  0  0  0  0  0  0
  162.1930  211.8430  141.4190 C   0  0  0  0  0  1  0  0  0  0  0  0
  159.9640  212.9570  142.0130 C   0  0  0  0  0  2  0  0  0  0  0  0
  1  2  1  0  0  0  0
  2  4  2  6  0  0  0
  2  5  1  0  0  0  0
  3  2  1  0  0  0  0
  7  6  1  1  0  0  0
  7  9  1  0  0  0  0
  8  5  1  6  0  0  0
  8  7  1  0  0  0  0
  8 12  1  0  0  0  0
  8  9  1  0  0  0  0
  9 13  1  0  0  0  0
 10 13  1  0  0  0  0
 11 10  1  0  0  0  0
 12 11  1  0  0  0  0
 12 10  1  0  0  0  0
 13 14  1  0  0  0  0
 14 16  1  0  0  0  0
 16 18  1  0  0  0  0
 16 21  1  0  0  0  0
 18 22  1  0  0  0  0
 19 17  1  0  0  0  0
 20 17  1  0  0  0  0
 21 15  1  0  0  0  0
 21 20  1  0  0  0  0
 22 19  1  0  0  0  0
 23 24  2  0  0  0  0
 24 22  1  0  0  0  0
 24 26  1  0  0  0  0
 26 25  2  0  0  0  0
 27 28  1  0  0  0  0
 27 26  1  0  0  0  0
 29  1  1  0  0  0  0
 30 31  1  0  0  0  0
 30 29  1  0  0  0  0
 32 30  1  0  0  0  0
 33 36  1  0  0  0  0
 33 32  1  0  0  0  0
 34 35  2  0  0  0  0
 35 33  1  0  0  0  0
 37 38  1  0  0  0  0
 38 40  2  0  0  0  0
 39 43  1  0  0  0  0
 40 44  1  0  0  0  0
 41 42  1  0  0  0  0
 41 39  2  0  0  0  0
 42 40  1  0  0  0  0
 42 36  1  0  0  0  0
 44 43  1  0  0  0  0
 44 51  1  0  0  0  0
 45 39  1  0  0  0  0
 45 47  1  0  0  0  0
 46 45  2  0  0  0  0
 48 50  1  0  0  0  0
 50 47  1  0  0  0  0
 50 49  1  0  0  0  0
 51 53  1  0  0  0  0
 52 55  1  0  0  0  0
 53 54  1  0  0  0  0
 53 52  1  0  0  0  0
 53 55  1  0  0  0  0
M  END
>  <MODEL>
3

>  <REMARK>
 VINA RESULT:      -3.2      4.131     12.769
  Name = 
  19 active torsions:
  status: ('A' for Active; 'I' for Inactive)
    1  A    between atoms: C_5  and  C_6
    2  A    between atoms: C_5  and  O_26
    3  A    between atoms: C_6  and  O_17
    4  A    between atoms: C_8  and  C_33
    5  A    between atoms: C_9  and  C_12
    6  A    between atoms: C_9  and  C_54
    7  A    between atoms: O_10  and  C_21
    8  A    between atoms: O_10  and  P_32
    9  A    between atoms: C_13  and  O_17
   10  A    between atoms: C_13  and  C_24
   11  A    between atoms: C_13  and  C_47
   12  A    between atoms: C_16  and  C_23
   13  A    between atoms: O_20  and  C_46
   14  A    between atoms: O_26  and  P_32
   15  A    between atoms: C_29  and  C_46
   16  A    between atoms: C_29  and  C_55
   17  A    between atoms: C_33  and  N_49
   18  A    between atoms: C_43  and  C_47
   19  A    between atoms: C_45  and  N_53
                            x       y       z     vdW  Elec       q    Type
                         _______ _______ _______ _____ _____    ______ ____

>  <TORSDO>
F 19

$$$$
=
 OpenBabel11072412473D

 55 60  0  0  1  0  0  0  0  0999 V2000
  161.1610  206.1520  142.6240 O   0  0  0  0  0  0  0  0  0  0  0  0
  161.4410  205.9530  144.2880 P   0  0  2  0  0  0  0  0  0  0  0  0
  160.5160  206.8590  145.0760 O   0  0  0  0  0  1  0  0  0  0  0  0
  163.0470  206.3480  144.6420 O   0  0  0  0  0  0  0  0  0  0  0  0
  161.1650  204.3150  144.6780 O   0  0  0  0  0  0  0  0  0  0  0  0
  163.9150  204.4120  147.0840 O   0  0  0  0  0  1  0  0  0  0  0  0
  162.9450  205.0200  146.2800 C   0  0  1  0  0  3  0  0  0  0  0  0
  161.8790  204.0190  145.8490 C   0  0  1  0  0  0  0  0  0  0  0  0
  161.5580  205.0240  146.9360 C   0  0  1  0  0  3  0  0  0  0  0  0
  161.4800  202.7280  147.9060 C   0  0  1  0  0  3  0  0  0  0  0  0
  160.3930  202.3140  146.9260 C   0  0  0  0  0  2  0  0  0  0  0  0
  161.7970  202.6030  146.4270 C   0  0  1  0  0  3  0  0  0  0  0  0
  161.4570  204.2240  148.2290 C   0  0  2  0  0  3  0  0  0  0  0  0
  160.2020  204.6240  148.9960 C   0  0  0  0  0  2  0  0  0  0  0  0
  162.7590  204.3960  150.7960 O   0  0  0  0  0  1  0  0  0  0  0  0
  160.5580  205.3040  150.3090 C   0  0  2  0  0  3  0  0  0  0  0  0
  161.7310  206.0410  153.0600 C   0  0  0  0  0  2  0  0  0  0  0  0
  161.2070  206.6720  150.0460 C   0  0  0  0  0  2  0  0  0  0  0  0
  160.9470  207.0220  152.4420 O   0  0  0  0  0  0  0  0  0  0  0  0
  161.2460  204.6480  152.6640 C   0  0  0  0  0  2  0  0  0  0  0  0
  161.4120  204.3660  151.1700 C   0  0  2  0  0  3  0  0  0  0  0  0
  161.6790  207.4020  151.3090 C   0  0  2  0  0  3  0  0  0  0  0  0
  161.9570  209.3670  150.0040 O   0  0  0  0  0  0  0  0  0  0  0  0
  161.6090  208.8830  151.1140 C   0  0  0  0  0  0  0  0  0  0  0  0
  159.9560  210.2220  152.1530 O   0  0  0  0  0  0  0  0  0  0  0  0
  161.1370  209.7770  152.1850 C   0  0  0  0  0  0  0  0  0  0  0  0
  161.9950  210.1260  153.2320 O   0  0  0  0  0  0  0  0  0  0  0  0
  161.5710  210.9480  154.3080 C   0  0  0  0  0  1  0  0  0  0  0  0
  162.3830  205.9050  141.9940 C   0  0  0  0  0  2  0  0  0  0  0  0
  162.4780  206.6980  140.6980 C   0  0  1  0  0  3  0  0  0  0  0  0
  162.2790  205.8380  139.6340 F   0  0  0  0  0  0  0  0  0  0  0  0
  161.4990  207.7030  140.6730 O   0  0  0  0  0  0  0  0  0  0  0  0
  161.7580  208.5760  139.5920 C   0  0  1  0  0  3  0  0  0  0  0  0
  161.0540  207.7880  137.4630 O   0  0  0  0  0  0  0  0  0  0  0  0
  161.9740  207.9420  138.2480 C   0  0  0  0  0  3  0  0  0  0  0  0
  161.1050  209.9650  139.6350 C   0  0  0  0  0  2  0  0  0  0  0  0
  159.3770  212.5820  143.2300 C   0  0  0  0  0  1  0  0  0  0  0  0
  160.2950  211.6890  142.4680 C   0  0  0  0  0  3  0  0  0  0  0  0
  162.4990  212.8540  139.2820 C   0  0  0  0  0  0  0  0  0  0  0  0
  160.6840  211.8730  141.2000 C   0  0  0  0  0  0  0  0  0  0  0  0
  162.7850  211.7380  139.9650 C   0  0  0  0  0  3  0  0  0  0  0  0
  161.7160  210.9340  140.6460 C   0  0  2  0  0  3  0  0  0  0  0  0
  161.0690  213.3280  139.1830 C   0  0  0  0  0  2  0  0  0  0  0  0
  160.3040  213.0160  140.3960 N   0  0  0  0  0  0  0  0  0  0  0  0
  163.5650  213.5980  138.5920 C   0  0  0  0  0  0  0  0  0  0  0  0
  163.2840  214.3170  137.5940 O   0  0  0  0  0  0  0  0  0  0  0  0
  164.9190  213.5080  139.0500 N   0  0  0  0  0  2  0  0  0  0  0  0
  166.5090  213.3970  137.3500 O   0  0  0  0  0  1  0  0  0  0  0  0
  167.1250  214.4530  139.3860 C   0  0  0  0  0  1  0  0  0  0  0  0
  166.0180  214.1920  138.3860 C   0  0  2  0  0  3  0  0  0  0  0  0
  159.0480  213.7330  140.5840 C   0  0  0  0  0  2  0  0  0  0  0  0
  157.7420  211.8590  139.7880 O   0  0  0  0  0  0  0  0  0  0  0  0
  157.9880  213.2310  139.6170 C   0  0  2  0  0  0  0  0  0  0  0  0
  158.0300  213.6090  138.1500 C   0  0  0  0  0  1  0  0  0  0  0  0
  156.7100  212.7440  140.1670 C   0  0  0  0  0  2  0  0  0  0  0  0
  1  2  1  0  0  0  0
  2  4  2  1  0  0  0
  2  5  1  0  0  0  0
  2  3  1  0  0  0  0
  7  9  1  0  0  0  0
  7  6  1  1  0  0  0
  8  5  1  6  0  0  0
  8  7  1  0  0  0  0
  8 12  1  0  0  0  0
  8  9  1  0  0  0  0
  9 13  1  0  0  0  0
 10 13  1  0  0  0  0
 11 10  1  0  0  0  0
 12 11  1  0  0  0  0
 12 10  1  0  0  0  0
 13 14  1  0  0  0  0
 14 16  1  0  0  0  0
 15 21  1  0  0  0  0
 16 21  1  0  0  0  0
 18 16  1  0  0  0  0
 18 22  1  0  0  0  0
 19 17  1  0  0  0  0
 20 17  1  0  0  0  0
 21 20  1  0  0  0  0
 22 19  1  0  0  0  0
 23 24  2  0  0  0  0
 24 22  1  0  0  0  0
 24 26  1  0  0  0  0
 25 26  2  0  0  0  0
 26 27  1  0  0  0  0
 27 28  1  0  0  0  0
 29  1  1  0  0  0  0
 30 29  1  0  0  0  0
 31 30  1  0  0  0  0
 32 30  1  0  0  0  0
 33 36  1  0  0  0  0
 33 32  1  0  0  0  0
 34 35  2  0  0  0  0
 35 33  1  0  0  0  0
 36 42  1  0  0  0  0
 38 37  1  0  0  0  0
 39 41  2  0  0  0  0
 40 38  2  0  0  0  0
 41 42  1  0  0  0  0
 42 40  1  0  0  0  0
 43 39  1  0  0  0  0
 43 44  1  0  0  0  0
 44 51  1  0  0  0  0
 44 40  1  0  0  0  0
 45 47  1  0  0  0  0
 45 39  1  0  0  0  0
 46 45  2  0  0  0  0
 48 50  1  0  0  0  0
 50 47  1  0  0  0  0
 50 49  1  0  0  0  0
 52 55  1  0  0  0  0
 53 52  1  0  0  0  0
 53 55  1  0  0  0  0
 53 51  1  0  0  0  0
 54 53  1  0  0  0  0
M  END
>  <MODEL>
4

>  <REMARK>
 VINA RESULT:      -2.7      4.066     12.763
  Name = 
  19 active torsions:
  status: ('A' for Active; 'I' for Inactive)
    1  A    between atoms: C_5  and  C_6
    2  A    between atoms: C_5  and  O_26
    3  A    between atoms: C_6  and  O_17
    4  A    between atoms: C_8  and  C_33
    5  A    between atoms: C_9  and  C_12
    6  A    between atoms: C_9  and  C_54
    7  A    between atoms: O_10  and  C_21
    8  A    between atoms: O_10  and  P_32
    9  A    between atoms: C_13  and  O_17
   10  A    between atoms: C_13  and  C_24
   11  A    between atoms: C_13  and  C_47
   12  A    between atoms: C_16  and  C_23
   13  A    between atoms: O_20  and  C_46
   14  A    between atoms: O_26  and  P_32
   15  A    between atoms: C_29  and  C_46
   16  A    between atoms: C_29  and  C_55
   17  A    between atoms: C_33  and  N_49
   18  A    between atoms: C_43  and  C_47
   19  A    between atoms: C_45  and  N_53
                            x       y       z     vdW  Elec       q    Type
                         _______ _______ _______ _____ _____    ______ ____

>  <TORSDO>
F 19

$$$$
