=
 OpenBabel11072413293D

 41 45  0  0  1  0  0  0  0  0999 V2000
  162.0160  209.0130  149.6470 C   0  0  0  0  0  0  0  0  0  0  0  0
  161.6860  207.4670  151.4890 C   0  0  0  0  0  0  0  0  0  0  0  0
  162.4460  207.7310  147.9900 N   0  0  0  0  0  0  0  0  0  0  0  0
  161.4250  208.5970  152.3220 C   0  0  0  0  0  0  0  0  0  0  0  0
  161.7690  210.1290  150.4340 C   0  0  0  0  0  3  0  0  0  0  0  0
  161.4720  209.9060  151.7870 C   0  0  0  0  0  3  0  0  0  0  0  0
  162.2960  208.9710  148.3720 O   0  0  0  0  0  0  0  0  0  0  0  0
  162.2550  206.9230  149.0610 C   0  0  0  0  0  3  0  0  0  0  0  0
  161.9800  207.7420  150.1420 C   0  0  0  0  0  0  0  0  0  0  0  0
  161.1660  205.0110  151.1500 N   0  0  0  0  0  2  0  0  0  0  0  0
  162.0200  205.8030  153.1650 O   0  0  0  0  0  0  0  0  0  0  0  0
  161.6440  206.0680  151.9930 C   0  0  0  0  0  0  0  0  0  0  0  0
  161.1150  203.6080  151.5420 C   0  0  1  0  0  3  0  0  0  0  0  0
  160.2860  203.4520  152.6560 O   0  0  0  0  0  1  0  0  0  0  0  0
  160.6190  202.7470  150.3900 C   0  0  0  0  0  2  0  0  0  0  0  0
  161.0040  203.3490  149.0480 C   0  0  0  0  0  2  0  0  0  0  0  0
  161.2460  201.0180  148.4050 C   0  0  0  0  0  2  0  0  0  0  0  0
  161.1470  202.2850  148.0070 C   0  0  0  0  0  0  0  0  0  0  0  0
  160.6360  201.7690  145.7020 O   0  0  0  0  0  1  0  0  0  0  0  0
  161.1490  202.6350  146.6090 N   0  0  0  0  0  0  0  0  0  0  0  0
  161.6050  203.9360  146.1340 C   0  0  0  0  0  2  0  0  0  0  0  0
  161.4870  205.4940  144.2170 C   0  0  0  0  0  2  0  0  0  0  0  0
  160.7560  204.3950  144.9630 C   0  0  0  0  0  3  0  0  0  0  0  0
  160.3710  205.8470  145.1790 C   0  0  0  0  0  2  0  0  0  0  0  0
  161.1340  208.4610  153.7810 C   0  0  0  0  0  2  0  0  0  0  0  0
  161.8050  209.5820  154.5650 C   0  0  0  0  0  2  0  0  0  0  0  0
  160.1880  211.9370  153.4610 O   0  0  0  0  0  1  0  0  0  0  0  0
  156.7690  213.7120  155.9950 C   0  0  2  0  0  3  0  0  0  0  0  0
  155.8430  211.1680  155.9400 S   0  0  0  0  0  0  0  0  0  0  0  0
  155.7550  212.8460  155.2540 C   0  0  0  0  0  2  0  0  0  0  0  0
  158.4530  210.5350  155.8780 C   0  0  0  0  0  0  0  0  0  0  0  0
  159.4550  209.7850  155.5270 C   0  0  0  0  0  0  0  0  0  0  0  0
  159.3900  208.3360  155.8650 C   0  0  0  0  0  1  0  0  0  0  0  0
  160.7420  211.9000  154.7500 C   0  0  1  0  0  3  0  0  0  0  0  0
  158.0190  212.8740  156.2220 C   0  0  2  0  0  3  0  0  0  0  0  0
  158.9310  213.1290  155.1810 O   0  0  0  0  0  0  0  0  0  0  0  0
  160.1290  212.8110  155.6540 O   0  0  0  0  0  0  0  0  0  0  0  0
  160.7950  210.4570  155.3150 C   0  0  2  0  0  3  0  0  0  0  0  0
  157.5800  211.4410  156.2050 C   0  0  0  0  0  0  0  0  0  0  0  0
  156.2410  214.1090  157.2230 O   0  0  0  0  0  0  0  0  0  0  0  0
  154.9110  214.4340  156.9520 C   0  0  0  0  0  1  0  0  0  0  0  0
  1  9  2  0  0  0  0
  1  5  1  0  0  0  0
  2 12  1  0  0  0  0
  2  4  2  0  0  0  0
  3  7  1  0  0  0  0
  3  8  2  0  0  0  0
  4 25  1  0  0  0  0
  5  6  2  0  0  0  0
  6  4  1  0  0  0  0
  7  1  1  0  0  0  0
  8  9  1  0  0  0  0
  9  2  1  0  0  0  0
 10 13  1  0  0  0  0
 10 12  1  0  0  0  0
 12 11  2  0  0  0  0
 13 14  1  1  0  0  0
 15 13  1  0  0  0  0
 16 15  1  0  0  0  0
 18 17  2  0  0  0  0
 18 16  1  0  0  0  0
 19 20  1  0  0  0  0
 20 18  1  0  0  0  0
 21 20  1  0  0  0  0
 22 23  1  0  0  0  0
 22 24  1  0  0  0  0
 23 24  1  0  0  0  0
 23 21  1  0  0  0  0
 25 26  1  0  0  0  0
 28 35  1  0  0  0  0
 28 40  1  1  0  0  0
 29 39  1  0  0  0  0
 30 29  1  0  0  0  0
 30 28  1  0  0  0  0
 31 39  2  0  0  0  0
 32 33  1  0  0  0  0
 32 31  2  0  0  0  0
 34 27  1  6  0  0  0
 34 38  1  0  0  0  0
 34 37  1  0  0  0  0
 35 36  1  6  0  0  0
 36 37  1  0  0  0  0
 38 26  1  6  0  0  0
 38 32  1  0  0  0  0
 39 35  1  0  0  0  0
 41 40  1  0  0  0  0
M  END
>  <MODEL>
1

>  <REMARK>
 VINA RESULT:      -8.3      0.000      0.000
  Name = 
  12 active torsions:
  status: ('A' for Active; 'I' for Inactive)
    1  A    between atoms: C_3  and  C_19
    2  A    between atoms: C_3  and  C_20
    3  A    between atoms: C_4  and  C_27
    4  A    between atoms: C_7  and  C_21
    5  A    between atoms: C_7  and  C_24
    6  A    between atoms: N_8  and  C_21
    7  A    between atoms: C_9  and  O_10
    8  A    between atoms: C_11  and  C_32
    9  A    between atoms: C_20  and  C_39
   10  A    between atoms: C_24  and  C_36
   11  A    between atoms: N_26  and  C_32
   12  A    between atoms: N_26  and  C_36
                            x       y       z     vdW  Elec       q    Type
                         _______ _______ _______ _____ _____    ______ ____

>  <TORSDO>
F 12

$$$$
=
 OpenBabel11072413293D

 41 45  0  0  1  0  0  0  0  0999 V2000
  160.8640  202.7670  150.6550 C   0  0  0  0  0  0  0  0  0  0  0  0
  161.0610  205.1480  150.2290 C   0  0  0  0  0  0  0  0  0  0  0  0
  160.8580  201.9070  148.6970 N   0  0  0  0  0  0  0  0  0  0  0  0
  161.0540  205.3490  151.6420 C   0  0  0  0  0  0  0  0  0  0  0  0
  160.8530  202.9330  152.0320 C   0  0  0  0  0  3  0  0  0  0  0  0
  160.9480  204.2450  152.5210 C   0  0  0  0  0  3  0  0  0  0  0  0
  160.8030  201.6520  149.9760 O   0  0  0  0  0  0  0  0  0  0  0  0
  160.9600  203.2480  148.5280 C   0  0  0  0  0  3  0  0  0  0  0  0
  160.9610  203.8160  149.7890 C   0  0  0  0  0  0  0  0  0  0  0  0
  162.2870  207.1720  149.3260 N   0  0  0  0  0  2  0  0  0  0  0  0
  160.2970  206.4340  148.3700 O   0  0  0  0  0  0  0  0  0  0  0  0
  161.1760  206.2680  149.2570 C   0  0  0  0  0  0  0  0  0  0  0  0
  162.5030  208.2790  148.4020 C   0  0  1  0  0  3  0  0  0  0  0  0
  162.3820  207.8330  147.0840 O   0  0  0  0  0  1  0  0  0  0  0  0
  161.5150  209.4040  148.6720 C   0  0  0  0  0  2  0  0  0  0  0  0
  162.1320  210.4780  149.5540 C   0  0  0  0  0  2  0  0  0  0  0  0
  163.0010  212.1650  148.0350 C   0  0  0  0  0  2  0  0  0  0  0  0
  162.0480  211.8200  148.8990 C   0  0  0  0  0  0  0  0  0  0  0  0
  160.4230  212.7340  150.4370 O   0  0  0  0  0  1  0  0  0  0  0  0
  160.9410  212.6980  149.1860 N   0  0  0  0  0  0  0  0  0  0  0  0
  160.4070  213.6240  148.1950 C   0  0  0  0  0  2  0  0  0  0  0  0
  159.9200  212.8430  145.9000 C   0  0  0  0  0  2  0  0  0  0  0  0
  159.3870  212.9230  147.3170 C   0  0  0  0  0  3  0  0  0  0  0  0
  158.8970  213.8980  146.2620 C   0  0  0  0  0  2  0  0  0  0  0  0
  161.1160  206.7100  152.2530 C   0  0  0  0  0  2  0  0  0  0  0  0
  161.2340  206.6090  153.7690 C   0  0  0  0  0  2  0  0  0  0  0  0
  160.2660  209.2670  152.5950 O   0  0  0  0  0  1  0  0  0  0  0  0
  159.7620  212.9100  155.3750 C   0  0  2  0  0  3  0  0  0  0  0  0
  158.1160  211.2410  156.7300 S   0  0  0  0  0  0  0  0  0  0  0  0
  158.2780  212.5980  155.5350 C   0  0  0  0  0  2  0  0  0  0  0  0
  159.8040  209.3450  155.8510 C   0  0  0  0  0  0  0  0  0  0  0  0
  160.0850  208.1420  155.4480 C   0  0  0  0  0  0  0  0  0  0  0  0
  159.6990  207.0060  156.3310 C   0  0  0  0  0  1  0  0  0  0  0  0
  161.3840  209.1390  153.4350 C   0  0  1  0  0  3  0  0  0  0  0  0
  160.5190  211.5900  155.3780 C   0  0  2  0  0  3  0  0  0  0  0  0
  160.7150  211.1780  154.0460 O   0  0  0  0  0  0  0  0  0  0  0  0
  161.7580  210.3590  154.0640 O   0  0  0  0  0  0  0  0  0  0  0  0
  161.2140  207.9810  154.4510 C   0  0  2  0  0  3  0  0  0  0  0  0
  159.6620  210.6090  156.1190 C   0  0  0  0  0  0  0  0  0  0  0  0
  160.1940  213.7010  156.4400 O   0  0  0  0  0  0  0  0  0  0  0  0
  159.0750  214.4500  156.8060 C   0  0  0  0  0  1  0  0  0  0  0  0
  1  5  1  0  0  0  0
  2  4  2  0  0  0  0
  3  7  1  0  0  0  0
  4 25  1  0  0  0  0
  4  6  1  0  0  0  0
  5  6  2  0  0  0  0
  7  1  1  0  0  0  0
  8  3  2  0  0  0  0
  8  9  1  0  0  0  0
  9  2  1  0  0  0  0
  9  1  2  0  0  0  0
 11 12  2  0  0  0  0
 12 10  1  0  0  0  0
 12  2  1  0  0  0  0
 13 14  1  6  0  0  0
 13 15  1  0  0  0  0
 13 10  1  0  0  0  0
 15 16  1  0  0  0  0
 17 18  2  0  0  0  0
 18 20  1  0  0  0  0
 18 16  1  0  0  0  0
 20 19  1  0  0  0  0
 21 20  1  0  0  0  0
 22 24  1  0  0  0  0
 22 23  1  0  0  0  0
 23 21  1  0  0  0  0
 24 23  1  0  0  0  0
 25 26  1  0  0  0  0
 28 35  1  0  0  0  0
 28 30  1  0  0  0  0
 28 40  1  1  0  0  0
 30 29  1  0  0  0  0
 31 39  2  0  0  0  0
 32 31  2  0  0  0  0
 32 33  1  0  0  0  0
 34 27  1  1  0  0  0
 34 37  1  0  0  0  0
 34 38  1  0  0  0  0
 35 36  1  6  0  0  0
 35 39  1  0  0  0  0
 36 37  1  0  0  0  0
 38 26  1  6  0  0  0
 38 32  1  0  0  0  0
 39 29  1  0  0  0  0
 40 41  1  0  0  0  0
M  END
>  <MODEL>
2

>  <REMARK>
 VINA RESULT:      -8.3      2.485      5.890
  Name = 
  12 active torsions:
  status: ('A' for Active; 'I' for Inactive)
    1  A    between atoms: C_3  and  C_19
    2  A    between atoms: C_3  and  C_20
    3  A    between atoms: C_4  and  C_27
    4  A    between atoms: C_7  and  C_21
    5  A    between atoms: C_7  and  C_24
    6  A    between atoms: N_8  and  C_21
    7  A    between atoms: C_9  and  O_10
    8  A    between atoms: C_11  and  C_32
    9  A    between atoms: C_20  and  C_39
   10  A    between atoms: C_24  and  C_36
   11  A    between atoms: N_26  and  C_32
   12  A    between atoms: N_26  and  C_36
                            x       y       z     vdW  Elec       q    Type
                         _______ _______ _______ _____ _____    ______ ____

>  <TORSDO>
F 12

$$$$
=
 OpenBabel11072413293D

 41 45  0  0  1  0  0  0  0  0999 V2000
  160.0510  209.5750  156.0540 C   0  0  0  0  0  0  0  0  0  0  0  0
  160.0790  210.4770  153.8010 C   0  0  0  0  0  0  0  0  0  0  0  0
  159.3290  211.2040  157.2370 N   0  0  0  0  0  0  0  0  0  0  0  0
  160.5510  209.2060  153.3530 C   0  0  0  0  0  0  0  0  0  0  0  0
  160.5110  208.3300  155.6470 C   0  0  0  0  0  3  0  0  0  0  0  0
  160.7620  208.1560  154.2770 C   0  0  0  0  0  3  0  0  0  0  0  0
  159.7390  209.9640  157.2610 O   0  0  0  0  0  0  0  0  0  0  0  0
  159.3750  211.6480  155.9570 C   0  0  0  0  0  3  0  0  0  0  0  0
  159.8450  210.6030  155.1820 C   0  0  0  0  0  0  0  0  0  0  0  0
  158.5190  212.1790  152.7600 N   0  0  0  0  0  2  0  0  0  0  0  0
  160.7720  212.0880  152.1840 O   0  0  0  0  0  0  0  0  0  0  0  0
  159.8320  211.6160  152.8760 C   0  0  0  0  0  0  0  0  0  0  0  0
  158.1840  213.3120  151.9050 C   0  0  1  0  0  3  0  0  0  0  0  0
  159.1230  214.3320  152.0740 O   0  0  0  0  0  1  0  0  0  0  0  0
  158.1250  212.8850  150.4460 C   0  0  0  0  0  2  0  0  0  0  0  0
  158.3320  214.0720  149.5170 C   0  0  0  0  0  2  0  0  0  0  0  0
  156.9370  213.6410  147.5750 C   0  0  0  0  0  2  0  0  0  0  0  0
  158.1650  213.6660  148.0880 C   0  0  0  0  0  0  0  0  0  0  0  0
  159.4430  213.8640  146.0460 O   0  0  0  0  0  1  0  0  0  0  0  0
  159.3190  213.3380  147.2880 N   0  0  0  0  0  0  0  0  0  0  0  0
  160.4150  212.5250  147.8020 C   0  0  0  0  0  2  0  0  0  0  0  0
  162.4970  213.3980  146.7920 C   0  0  0  0  0  2  0  0  0  0  0  0
  161.6400  213.3870  148.0430 C   0  0  0  0  0  3  0  0  0  0  0  0
  162.8770  212.5120  147.9590 C   0  0  0  0  0  2  0  0  0  0  0  0
  160.8770  208.9370  151.9210 C   0  0  0  0  0  2  0  0  0  0  0  0
  161.1890  207.4600  151.7140 C   0  0  0  0  0  2  0  0  0  0  0  0
  162.9830  207.7720  149.2500 O   0  0  0  0  0  1  0  0  0  0  0  0
  161.9010  205.5220  145.3740 C   0  0  2  0  0  3  0  0  0  0  0  0
  162.0190  203.3490  146.9850 S   0  0  0  0  0  0  0  0  0  0  0  0
  162.8500  204.3900  145.7510 C   0  0  0  0  0  2  0  0  0  0  0  0
  161.1540  205.0650  148.8620 C   0  0  0  0  0  0  0  0  0  0  0  0
  161.0830  205.5060  150.0830 C   0  0  0  0  0  0  0  0  0  0  0  0
  160.6500  204.5520  151.1420 C   0  0  0  0  0  1  0  0  0  0  0  0
  161.5850  207.9030  149.2270 C   0  0  1  0  0  3  0  0  0  0  0  0
  161.1950  205.9810  146.6410 C   0  0  2  0  0  3  0  0  0  0  0  0
  161.8960  207.0780  147.1770 O   0  0  0  0  0  0  0  0  0  0  0  0
  161.0250  207.7390  147.9300 O   0  0  0  0  0  0  0  0  0  0  0  0
  160.9010  206.9960  150.2820 C   0  0  2  0  0  3  0  0  0  0  0  0
  161.2210  204.8190  147.5880 C   0  0  0  0  0  0  0  0  0  0  0  0
  160.9590  205.0600  144.4540 O   0  0  0  0  0  0  0  0  0  0  0  0
  161.3560  205.6050  143.2320 C   0  0  0  0  0  1  0  0  0  0  0  0
  1  7  1  0  0  0  0
  2  9  1  0  0  0  0
  3  7  1  0  0  0  0
  4  2  2  0  0  0  0
  4  6  1  0  0  0  0
  5  1  1  0  0  0  0
  6  5  2  0  0  0  0
  8  3  2  0  0  0  0
  9  8  1  0  0  0  0
  9  1  2  0  0  0  0
 10 12  1  0  0  0  0
 11 12  2  0  0  0  0
 12  2  1  0  0  0  0
 13 14  1  6  0  0  0
 13 10  1  0  0  0  0
 15 13  1  0  0  0  0
 16 15  1  0  0  0  0
 17 18  2  0  0  0  0
 18 16  1  0  0  0  0
 19 20  1  0  0  0  0
 20 21  1  0  0  0  0
 20 18  1  0  0  0  0
 21 23  1  0  0  0  0
 22 24  1  0  0  0  0
 22 23  1  0  0  0  0
 24 23  1  0  0  0  0
 25  4  1  0  0  0  0
 26 25  1  0  0  0  0
 28 40  1  6  0  0  0
 28 30  1  0  0  0  0
 28 35  1  0  0  0  0
 29 39  1  0  0  0  0
 30 29  1  0  0  0  0
 31 32  2  0  0  0  0
 32 38  1  0  0  0  0
 32 33  1  0  0  0  0
 34 27  1  6  0  0  0
 34 38  1  0  0  0  0
 35 36  1  1  0  0  0
 35 39  1  0  0  0  0
 36 37  1  0  0  0  0
 37 34  1  0  0  0  0
 38 26  1  1  0  0  0
 39 31  2  0  0  0  0
 41 40  1  0  0  0  0
M  END
>  <MODEL>
3

>  <REMARK>
 VINA RESULT:      -8.0      4.090      9.700
  Name = 
  12 active torsions:
  status: ('A' for Active; 'I' for Inactive)
    1  A    between atoms: C_3  and  C_19
    2  A    between atoms: C_3  and  C_20
    3  A    between atoms: C_4  and  C_27
    4  A    between atoms: C_7  and  C_21
    5  A    between atoms: C_7  and  C_24
    6  A    between atoms: N_8  and  C_21
    7  A    between atoms: C_9  and  O_10
    8  A    between atoms: C_11  and  C_32
    9  A    between atoms: C_20  and  C_39
   10  A    between atoms: C_24  and  C_36
   11  A    between atoms: N_26  and  C_32
   12  A    between atoms: N_26  and  C_36
                            x       y       z     vdW  Elec       q    Type
                         _______ _______ _______ _____ _____    ______ ____

>  <TORSDO>
F 12

$$$$
=
 OpenBabel11072413293D

 41 45  0  0  1  0  0  0  0  0999 V2000
  160.9780  202.8590  151.4300 C   0  0  0  0  0  0  0  0  0  0  0  0
  160.8320  205.1730  150.7140 C   0  0  0  0  0  0  0  0  0  0  0  0
  160.8530  201.7600  149.6000 N   0  0  0  0  0  0  0  0  0  0  0  0
  160.9620  205.5510  152.0840 C   0  0  0  0  0  0  0  0  0  0  0  0
  161.1040  203.1980  152.7700 C   0  0  0  0  0  3  0  0  0  0  0  0
  161.0930  204.5640  153.0900 C   0  0  0  0  0  3  0  0  0  0  0  0
  160.9760  201.6670  150.8960 O   0  0  0  0  0  0  0  0  0  0  0  0
  160.7710  203.0710  149.2670 C   0  0  0  0  0  3  0  0  0  0  0  0
  160.8460  203.7930  150.4450 C   0  0  0  0  0  0  0  0  0  0  0  0
  161.7760  207.0640  149.3170 N   0  0  0  0  0  2  0  0  0  0  0  0
  159.6360  206.2290  148.9400 O   0  0  0  0  0  0  0  0  0  0  0  0
  160.6980  206.1660  149.6140 C   0  0  0  0  0  0  0  0  0  0  0  0
  161.7510  208.0480  148.2420 C   0  0  1  0  0  3  0  0  0  0  0  0
  162.4980  209.1710  148.6040 O   0  0  0  0  0  1  0  0  0  0  0  0
  162.2910  207.4480  146.9520 C   0  0  0  0  0  2  0  0  0  0  0  0
  161.2940  206.4780  146.3380 C   0  0  0  0  0  2  0  0  0  0  0  0
  163.2000  204.9730  146.4400 C   0  0  0  0  0  2  0  0  0  0  0  0
  161.9410  205.1600  146.0490 C   0  0  0  0  0  0  0  0  0  0  0  0
  160.2150  204.4490  144.5150 O   0  0  0  0  0  1  0  0  0  0  0  0
  161.1970  204.1190  145.3860 N   0  0  0  0  0  0  0  0  0  0  0  0
  161.5230  202.7070  145.5500 C   0  0  0  0  0  2  0  0  0  0  0  0
  160.6460  200.4610  146.1020 C   0  0  0  0  0  2  0  0  0  0  0  0
  160.2810  201.9230  145.9310 C   0  0  0  0  0  3  0  0  0  0  0  0
  159.9740  200.9270  144.8280 C   0  0  0  0  0  2  0  0  0  0  0  0
  160.9270  206.9780  152.5240 C   0  0  0  0  0  2  0  0  0  0  0  0
  161.5260  207.1220  153.9170 C   0  0  0  0  0  2  0  0  0  0  0  0
  160.4440  209.6430  152.5560 O   0  0  0  0  0  1  0  0  0  0  0  0
  158.8580  213.1060  155.1550 C   0  0  2  0  0  3  0  0  0  0  0  0
  157.2300  211.1850  156.1490 S   0  0  0  0  0  0  0  0  0  0  0  0
  157.4340  212.5810  155.0060 C   0  0  0  0  0  2  0  0  0  0  0  0
  159.3190  209.5730  155.6460 C   0  0  0  0  0  0  0  0  0  0  0  0
  159.8480  208.4320  155.3160 C   0  0  0  0  0  0  0  0  0  0  0  0
  159.4580  207.2310  156.1050 C   0  0  0  0  0  1  0  0  0  0  0  0
  161.3720  209.6560  153.6090 C   0  0  1  0  0  3  0  0  0  0  0  0
  159.7810  211.9080  155.3200 C   0  0  2  0  0  3  0  0  0  0  0  0
  160.3030  211.5620  154.0590 O   0  0  0  0  0  0  0  0  0  0  0  0
  161.4290  210.9000  154.2950 O   0  0  0  0  0  0  0  0  0  0  0  0
  161.1680  208.4600  154.5740 C   0  0  2  0  0  3  0  0  0  0  0  0
  158.9420  210.7960  155.8730 C   0  0  0  0  0  0  0  0  0  0  0  0
  158.9440  213.9230  156.2820 O   0  0  0  0  0  0  0  0  0  0  0  0
  160.3060  213.9770  156.5820 C   0  0  0  0  0  1  0  0  0  0  0  0
  1  5  1  0  0  0  0
  2  4  2  0  0  0  0
  3  7  1  0  0  0  0
  4 25  1  0  0  0  0
  4  6  1  0  0  0  0
  5  6  2  0  0  0  0
  7  1  1  0  0  0  0
  8  3  2  0  0  0  0
  8  9  1  0  0  0  0
  9  2  1  0  0  0  0
  9  1  2  0  0  0  0
 10 12  1  0  0  0  0
 11 12  2  0  0  0  0
 12  2  1  0  0  0  0
 13 14  1  1  0  0  0
 13 10  1  0  0  0  0
 15 13  1  0  0  0  0
 16 15  1  0  0  0  0
 18 16  1  0  0  0  0
 18 17  2  0  0  0  0
 19 20  1  0  0  0  0
 20 21  1  0  0  0  0
 20 18  1  0  0  0  0
 21 23  1  0  0  0  0
 23 22  1  0  0  0  0
 24 23  1  0  0  0  0
 24 22  1  0  0  0  0
 25 26  1  0  0  0  0
 28 35  1  0  0  0  0
 28 40  1  1  0  0  0
 30 28  1  0  0  0  0
 30 29  1  0  0  0  0
 31 39  2  0  0  0  0
 32 31  2  0  0  0  0
 32 33  1  0  0  0  0
 34 27  1  6  0  0  0
 34 37  1  0  0  0  0
 34 38  1  0  0  0  0
 35 36  1  6  0  0  0
 35 39  1  0  0  0  0
 36 37  1  0  0  0  0
 38 26  1  6  0  0  0
 38 32  1  0  0  0  0
 39 29  1  0  0  0  0
 40 41  1  0  0  0  0
M  END
>  <MODEL>
4

>  <REMARK>
 VINA RESULT:      -7.5      1.854      4.039
  Name = 
  12 active torsions:
  status: ('A' for Active; 'I' for Inactive)
    1  A    between atoms: C_3  and  C_19
    2  A    between atoms: C_3  and  C_20
    3  A    between atoms: C_4  and  C_27
    4  A    between atoms: C_7  and  C_21
    5  A    between atoms: C_7  and  C_24
    6  A    between atoms: N_8  and  C_21
    7  A    between atoms: C_9  and  O_10
    8  A    between atoms: C_11  and  C_32
    9  A    between atoms: C_20  and  C_39
   10  A    between atoms: C_24  and  C_36
   11  A    between atoms: N_26  and  C_32
   12  A    between atoms: N_26  and  C_36
                            x       y       z     vdW  Elec       q    Type
                         _______ _______ _______ _____ _____    ______ ____

>  <TORSDO>
F 12

$$$$
=
 OpenBabel11072413293D

 41 45  0  0  1  0  0  0  0  0999 V2000
  160.6110  206.9490  155.2000 C   0  0  0  0  0  0  0  0  0  0  0  0
  160.9460  208.6880  153.5420 C   0  0  0  0  0  0  0  0  0  0  0  0
  159.7100  207.9870  156.8390 N   0  0  0  0  0  0  0  0  0  0  0  0
  161.4910  207.6900  152.6800 C   0  0  0  0  0  0  0  0  0  0  0  0
  161.1380  205.9580  154.3840 C   0  0  0  0  0  3  0  0  0  0  0  0
  161.5820  206.3450  153.1110 C   0  0  0  0  0  3  0  0  0  0  0  0
  160.1270  206.8270  156.4070 O   0  0  0  0  0  0  0  0  0  0  0  0
  159.9300  208.9110  155.8720 C   0  0  0  0  0  3  0  0  0  0  0  0
  160.5180  208.2520  154.8080 C   0  0  0  0  0  0  0  0  0  0  0  0
  159.5450  210.6440  152.7500 N   0  0  0  0  0  2  0  0  0  0  0  0
  161.8290  210.8680  153.1360 O   0  0  0  0  0  0  0  0  0  0  0  0
  160.8190  210.1160  153.1410 C   0  0  0  0  0  0  0  0  0  0  0  0
  159.3140  212.0330  152.3700 C   0  0  1  0  0  3  0  0  0  0  0  0
  159.6990  212.8830  153.4090 O   0  0  0  0  0  1  0  0  0  0  0  0
  160.0760  212.3760  151.0990 C   0  0  0  0  0  2  0  0  0  0  0  0
  159.7220  213.7700  150.6040 C   0  0  0  0  0  2  0  0  0  0  0  0
  157.7060  213.4350  149.2890 C   0  0  0  0  0  2  0  0  0  0  0  0
  159.0100  213.7060  149.2910 C   0  0  0  0  0  0  0  0  0  0  0  0
  159.0360  214.1460  146.9150 O   0  0  0  0  0  1  0  0  0  0  0  0
  159.7250  213.9580  148.0660 N   0  0  0  0  0  0  0  0  0  0  0  0
  161.1750  214.1110  148.0290 C   0  0  0  0  0  2  0  0  0  0  0  0
  161.9030  211.7500  148.1550 C   0  0  0  0  0  2  0  0  0  0  0  0
  161.8040  212.9670  147.2550 C   0  0  0  0  0  3  0  0  0  0  0  0
  163.1270  212.6060  147.9050 C   0  0  0  0  0  2  0  0  0  0  0  0
  162.0200  208.0130  151.3210 C   0  0  0  0  0  2  0  0  0  0  0  0
  161.0800  207.4850  150.2430 C   0  0  0  0  0  2  0  0  0  0  0  0
  159.3380  204.9740  150.0450 O   0  0  0  0  0  1  0  0  0  0  0  0
  160.9250  201.3040  147.7490 C   0  0  2  0  0  3  0  0  0  0  0  0
  161.1460  203.0770  145.7150 S   0  0  0  0  0  0  0  0  0  0  0  0
  160.1810  201.7520  146.4950 C   0  0  0  0  0  2  0  0  0  0  0  0
  161.6310  204.8300  147.6910 C   0  0  0  0  0  0  0  0  0  0  0  0
  161.5840  206.0140  148.2260 C   0  0  0  0  0  0  0  0  0  0  0  0
  162.1470  207.1520  147.4460 C   0  0  0  0  0  1  0  0  0  0  0  0
  160.6900  204.9650  150.4240 C   0  0  1  0  0  3  0  0  0  0  0  0
  161.4970  202.5440  148.4190 C   0  0  2  0  0  3  0  0  0  0  0  0
  160.5960  202.9800  149.4080 O   0  0  0  0  0  0  0  0  0  0  0  0
  161.3100  203.6950  150.2690 O   0  0  0  0  0  0  0  0  0  0  0  0
  161.4910  206.0990  149.7350 C   0  0  2  0  0  3  0  0  0  0  0  0
  161.6490  203.5780  147.3440 C   0  0  0  0  0  0  0  0  0  0  0  0
  161.9620  200.4400  147.3970 O   0  0  0  0  0  0  0  0  0  0  0  0
  161.3740  199.5010  146.5480 C   0  0  0  0  0  1  0  0  0  0  0  0
  1  7  1  0  0  0  0
  2  9  2  0  0  0  0
  4  6  2  0  0  0  0
  4  2  1  0  0  0  0
  5  1  2  0  0  0  0
  6  5  1  0  0  0  0
  7  3  1  0  0  0  0
  8  3  2  0  0  0  0
  9  1  1  0  0  0  0
  9  8  1  0  0  0  0
 10 12  1  0  0  0  0
 11 12  2  0  0  0  0
 12  2  1  0  0  0  0
 13 10  1  0  0  0  0
 13 14  1  1  0  0  0
 15 13  1  0  0  0  0
 16 15  1  0  0  0  0
 17 18  2  0  0  0  0
 18 16  1  0  0  0  0
 19 20  1  0  0  0  0
 20 18  1  0  0  0  0
 21 20  1  0  0  0  0
 23 24  1  0  0  0  0
 23 21  1  0  0  0  0
 23 22  1  0  0  0  0
 24 22  1  0  0  0  0
 25  4  1  0  0  0  0
 26 25  1  0  0  0  0
 28 40  1  6  0  0  0
 28 35  1  0  0  0  0
 29 30  1  0  0  0  0
 29 39  1  0  0  0  0
 30 28  1  0  0  0  0
 31 32  2  0  0  0  0
 32 38  1  0  0  0  0
 33 32  1  0  0  0  0
 34 27  1  6  0  0  0
 35 39  1  6  0  0  0
 35 36  1  0  0  0  0
 36 37  1  0  0  0  0
 37 34  1  0  0  0  0
 38 26  1  6  0  0  0
 38 34  1  0  0  0  0
 39 31  2  0  0  0  0
 41 40  1  0  0  0  0
M  END
>  <MODEL>
5

>  <REMARK>
 VINA RESULT:      -7.4      4.028      9.982
  Name = 
  12 active torsions:
  status: ('A' for Active; 'I' for Inactive)
    1  A    between atoms: C_3  and  C_19
    2  A    between atoms: C_3  and  C_20
    3  A    between atoms: C_4  and  C_27
    4  A    between atoms: C_7  and  C_21
    5  A    between atoms: C_7  and  C_24
    6  A    between atoms: N_8  and  C_21
    7  A    between atoms: C_9  and  O_10
    8  A    between atoms: C_11  and  C_32
    9  A    between atoms: C_20  and  C_39
   10  A    between atoms: C_24  and  C_36
   11  A    between atoms: N_26  and  C_32
   12  A    between atoms: N_26  and  C_36
                            x       y       z     vdW  Elec       q    Type
                         _______ _______ _______ _____ _____    ______ ____

>  <TORSDO>
F 12

$$$$
=
 OpenBabel11072413293D

 41 45  0  0  1  0  0  0  0  0999 V2000
  158.6180  211.6990  154.2050 C   0  0  0  0  0  0  0  0  0  0  0  0
  160.0690  211.8400  152.2650 C   0  0  0  0  0  0  0  0  0  0  0  0
  157.3430  213.4040  154.0010 N   0  0  0  0  0  0  0  0  0  0  0  0
  160.6950  210.6360  152.7100 C   0  0  0  0  0  0  0  0  0  0  0  0
  159.2090  210.5300  154.6620 C   0  0  0  0  0  3  0  0  0  0  0  0
  160.2610  210.0020  153.8980 C   0  0  0  0  0  3  0  0  0  0  0  0
  157.6250  212.3610  154.7350 O   0  0  0  0  0  0  0  0  0  0  0  0
  158.1890  213.4280  152.9420 C   0  0  0  0  0  3  0  0  0  0  0  0
  159.0230  212.3310  153.0650 C   0  0  0  0  0  0  0  0  0  0  0  0
  161.1400  211.8330  149.9690 N   0  0  0  0  0  2  0  0  0  0  0  0
  160.2510  213.7790  150.8870 O   0  0  0  0  0  0  0  0  0  0  0  0
  160.4780  212.5470  151.0210 C   0  0  0  0  0  0  0  0  0  0  0  0
  161.5500  212.4310  148.7040 C   0  0  1  0  0  3  0  0  0  0  0  0
  162.6770  211.7730  148.2070 O   0  0  0  0  0  1  0  0  0  0  0  0
  160.4170  212.3750  147.6910 C   0  0  0  0  0  2  0  0  0  0  0  0
  160.5540  213.4760  146.6500 C   0  0  0  0  0  2  0  0  0  0  0  0
  159.4710  212.3970  144.7610 C   0  0  0  0  0  2  0  0  0  0  0  0
  160.5920  212.9040  145.2690 C   0  0  0  0  0  0  0  0  0  0  0  0
  162.9750  213.2740  145.1180 O   0  0  0  0  0  1  0  0  0  0  0  0
  161.8150  212.9330  144.5080 N   0  0  0  0  0  0  0  0  0  0  0  0
  161.8710  212.5180  143.1110 C   0  0  0  0  0  2  0  0  0  0  0  0
  161.2400  213.6670  141.0140 C   0  0  0  0  0  2  0  0  0  0  0  0
  162.1580  213.7130  142.2200 C   0  0  0  0  0  3  0  0  0  0  0  0
  162.6790  213.2130  140.8850 C   0  0  0  0  0  2  0  0  0  0  0  0
  161.8430  210.0190  151.9810 C   0  0  0  0  0  2  0  0  0  0  0  0
  161.7620  208.4980  152.0500 C   0  0  0  0  0  2  0  0  0  0  0  0
  163.2960  208.1580  149.4210 O   0  0  0  0  0  1  0  0  0  0  0  0
  161.4830  205.5590  146.0710 C   0  0  2  0  0  3  0  0  0  0  0  0
  161.4720  203.6560  147.9980 S   0  0  0  0  0  0  0  0  0  0  0  0
  162.3000  204.3600  146.5440 C   0  0  0  0  0  2  0  0  0  0  0  0
  161.0720  205.7440  149.6400 C   0  0  0  0  0  0  0  0  0  0  0  0
  161.2000  206.3660  150.7750 C   0  0  0  0  0  0  0  0  0  0  0  0
  160.7570  205.6590  152.0080 C   0  0  0  0  0  1  0  0  0  0  0  0
  161.9370  208.5020  149.4990 C   0  0  1  0  0  3  0  0  0  0  0  0
  160.9950  206.3050  147.3050 C   0  0  2  0  0  3  0  0  0  0  0  0
  161.8980  207.3450  147.5910 O   0  0  0  0  0  0  0  0  0  0  0  0
  161.2190  208.2390  148.3000 O   0  0  0  0  0  0  0  0  0  0  0  0
  161.2540  207.8790  150.7430 C   0  0  2  0  0  3  0  0  0  0  0  0
  160.9620  205.3060  148.4210 C   0  0  0  0  0  0  0  0  0  0  0  0
  160.3900  205.1200  145.3250 O   0  0  0  0  0  0  0  0  0  0  0  0
  160.9150  204.8090  144.0700 C   0  0  0  0  0  1  0  0  0  0  0  0
  1  5  1  0  0  0  0
  1  7  1  0  0  0  0
  2  4  2  0  0  0  0
  2  9  1  0  0  0  0
  3  7  1  0  0  0  0
  4  6  1  0  0  0  0
  6  5  2  0  0  0  0
  8  9  1  0  0  0  0
  8  3  2  0  0  0  0
  9  1  2  0  0  0  0
 10 12  1  0  0  0  0
 11 12  2  0  0  0  0
 12  2  1  0  0  0  0
 13 14  1  6  0  0  0
 13 10  1  0  0  0  0
 15 13  1  0  0  0  0
 16 15  1  0  0  0  0
 17 18  2  0  0  0  0
 18 16  1  0  0  0  0
 20 19  1  0  0  0  0
 20 18  1  0  0  0  0
 21 20  1  0  0  0  0
 22 23  1  0  0  0  0
 23 21  1  0  0  0  0
 24 22  1  0  0  0  0
 24 23  1  0  0  0  0
 25 26  1  0  0  0  0
 25  4  1  0  0  0  0
 28 40  1  1  0  0  0
 28 30  1  0  0  0  0
 28 35  1  0  0  0  0
 29 39  1  0  0  0  0
 30 29  1  0  0  0  0
 31 32  2  0  0  0  0
 32 33  1  0  0  0  0
 34 27  1  6  0  0  0
 34 38  1  0  0  0  0
 35 36  1  1  0  0  0
 35 39  1  0  0  0  0
 36 37  1  0  0  0  0
 37 34  1  0  0  0  0
 38 32  1  0  0  0  0
 38 26  1  1  0  0  0
 39 31  2  0  0  0  0
 41 40  1  0  0  0  0
M  END
>  <MODEL>
6

>  <REMARK>
 VINA RESULT:      -7.3      4.517      9.257
  Name = 
  12 active torsions:
  status: ('A' for Active; 'I' for Inactive)
    1  A    between atoms: C_3  and  C_19
    2  A    between atoms: C_3  and  C_20
    3  A    between atoms: C_4  and  C_27
    4  A    between atoms: C_7  and  C_21
    5  A    between atoms: C_7  and  C_24
    6  A    between atoms: N_8  and  C_21
    7  A    between atoms: C_9  and  O_10
    8  A    between atoms: C_11  and  C_32
    9  A    between atoms: C_20  and  C_39
   10  A    between atoms: C_24  and  C_36
   11  A    between atoms: N_26  and  C_32
   12  A    between atoms: N_26  and  C_36
                            x       y       z     vdW  Elec       q    Type
                         _______ _______ _______ _____ _____    ______ ____

>  <TORSDO>
F 12

$$$$
=
 OpenBabel11072413293D

 41 45  0  0  1  0  0  0  0  0999 V2000
  162.0670  207.9670  148.5210 C   0  0  0  0  0  0  0  0  0  0  0  0
  161.3570  206.6350  150.4210 C   0  0  0  0  0  0  0  0  0  0  0  0
  162.0380  206.5760  146.8960 N   0  0  0  0  0  0  0  0  0  0  0  0
  161.4720  207.8100  151.2230 C   0  0  0  0  0  0  0  0  0  0  0  0
  162.1900  209.1240  149.2760 C   0  0  0  0  0  3  0  0  0  0  0  0
  161.8870  209.0330  150.6440 C   0  0  0  0  0  3  0  0  0  0  0  0
  162.2770  207.8130  147.2410 O   0  0  0  0  0  0  0  0  0  0  0  0
  161.6540  205.8880  147.9990 C   0  0  0  0  0  3  0  0  0  0  0  0
  161.6720  206.7770  149.0580 C   0  0  0  0  0  0  0  0  0  0  0  0
  161.8500  204.2400  151.0840 N   0  0  0  0  0  2  0  0  0  0  0  0
  159.7250  205.1550  151.3380 O   0  0  0  0  0  0  0  0  0  0  0  0
  160.9180  205.3240  150.9720 C   0  0  0  0  0  0  0  0  0  0  0  0
  161.5240  202.9310  151.6370 C   0  0  1  0  0  3  0  0  0  0  0  0
  160.7110  203.0770  152.7640 O   0  0  0  0  0  1  0  0  0  0  0  0
  160.8300  202.0660  150.5950 C   0  0  0  0  0  2  0  0  0  0  0  0
  160.9280  202.6880  149.2100 C   0  0  0  0  0  2  0  0  0  0  0  0
  161.3000  200.3760  148.5590 C   0  0  0  0  0  2  0  0  0  0  0  0
  161.1300  201.6370  148.1660 C   0  0  0  0  0  0  0  0  0  0  0  0
  160.7610  201.0620  145.8480 O   0  0  0  0  0  1  0  0  0  0  0  0
  161.1120  201.9910  146.7690 N   0  0  0  0  0  0  0  0  0  0  0  0
  161.3730  203.3500  146.3080 C   0  0  0  0  0  2  0  0  0  0  0  0
  161.2120  204.9270  144.4100 C   0  0  0  0  0  2  0  0  0  0  0  0
  160.9710  203.4970  144.8520 C   0  0  0  0  0  3  0  0  0  0  0  0
  159.8110  204.4710  144.7620 C   0  0  0  0  0  2  0  0  0  0  0  0
  161.2040  207.8020  152.6920 C   0  0  0  0  0  2  0  0  0  0  0  0
  161.5260  209.1620  153.3000 C   0  0  0  0  0  2  0  0  0  0  0  0
  161.1800  210.1460  156.1800 O   0  0  0  0  0  1  0  0  0  0  0  0
  157.5240  212.7430  157.2530 C   0  0  2  0  0  3  0  0  0  0  0  0
  158.4840  214.3350  155.2850 S   0  0  0  0  0  0  0  0  0  0  0  0
  158.3540  214.0090  157.0660 C   0  0  0  0  0  2  0  0  0  0  0  0
  159.3120  212.0130  154.2190 C   0  0  0  0  0  0  0  0  0  0  0  0
  160.1370  211.2860  153.5250 C   0  0  0  0  0  0  0  0  0  0  0  0
  160.4470  211.7220  152.1350 C   0  0  0  0  0  1  0  0  0  0  0  0
  160.1640  209.5280  155.4330 C   0  0  1  0  0  3  0  0  0  0  0  0
  157.9230  211.7590  156.1630 C   0  0  2  0  0  3  0  0  0  0  0  0
  158.9080  210.8930  156.6740 O   0  0  0  0  0  0  0  0  0  0  0  0
  158.8580  209.7970  155.9280 O   0  0  0  0  0  0  0  0  0  0  0  0
  160.2940  209.8320  153.9190 C   0  0  2  0  0  3  0  0  0  0  0  0
  158.4680  212.5760  155.0300 C   0  0  0  0  0  0  0  0  0  0  0  0
  156.1680  213.0470  157.1370 O   0  0  0  0  0  0  0  0  0  0  0  0
  155.5210  211.8100  157.1510 C   0  0  0  0  0  1  0  0  0  0  0  0
  1  9  2  0  0  0  0
  1  5  1  0  0  0  0
  2 12  1  0  0  0  0
  2  4  2  0  0  0  0
  3  7  1  0  0  0  0
  3  8  2  0  0  0  0
  4 25  1  0  0  0  0
  5  6  2  0  0  0  0
  6  4  1  0  0  0  0
  7  1  1  0  0  0  0
  8  9  1  0  0  0  0
  9  2  1  0  0  0  0
 10 13  1  0  0  0  0
 12 10  1  0  0  0  0
 12 11  2  0  0  0  0
 13 14  1  1  0  0  0
 15 13  1  0  0  0  0
 16 15  1  0  0  0  0
 18 17  2  0  0  0  0
 18 16  1  0  0  0  0
 19 20  1  0  0  0  0
 20 18  1  0  0  0  0
 21 20  1  0  0  0  0
 22 24  1  0  0  0  0
 22 23  1  0  0  0  0
 23 21  1  0  0  0  0
 24 23  1  0  0  0  0
 25 26  1  0  0  0  0
 28 40  1  6  0  0  0
 29 30  1  0  0  0  0
 30 28  1  0  0  0  0
 31 39  2  0  0  0  0
 32 38  1  0  0  0  0
 32 31  2  0  0  0  0
 33 32  1  0  0  0  0
 34 37  1  0  0  0  0
 34 27  1  1  0  0  0
 35 39  1  6  0  0  0
 35 36  1  0  0  0  0
 35 28  1  0  0  0  0
 37 36  1  0  0  0  0
 38 26  1  1  0  0  0
 38 34  1  0  0  0  0
 39 29  1  0  0  0  0
 40 41  1  0  0  0  0
M  END
>  <MODEL>
7

>  <REMARK>
 VINA RESULT:      -7.1      1.583      2.020
  Name = 
  12 active torsions:
  status: ('A' for Active; 'I' for Inactive)
    1  A    between atoms: C_3  and  C_19
    2  A    between atoms: C_3  and  C_20
    3  A    between atoms: C_4  and  C_27
    4  A    between atoms: C_7  and  C_21
    5  A    between atoms: C_7  and  C_24
    6  A    between atoms: N_8  and  C_21
    7  A    between atoms: C_9  and  O_10
    8  A    between atoms: C_11  and  C_32
    9  A    between atoms: C_20  and  C_39
   10  A    between atoms: C_24  and  C_36
   11  A    between atoms: N_26  and  C_32
   12  A    between atoms: N_26  and  C_36
                            x       y       z     vdW  Elec       q    Type
                         _______ _______ _______ _____ _____    ______ ____

>  <TORSDO>
F 12

$$$$
=
 OpenBabel11072413293D

 41 45  0  0  1  0  0  0  0  0999 V2000
  156.8080  212.7420  155.0720 C   0  0  0  0  0  0  0  0  0  0  0  0
  158.8070  211.9810  153.9270 C   0  0  0  0  0  0  0  0  0  0  0  0
  156.7340  211.5130  156.8210 N   0  0  0  0  0  0  0  0  0  0  0  0
  158.5440  212.9620  152.9240 C   0  0  0  0  0  0  0  0  0  0  0  0
  156.5260  213.7030  154.1110 C   0  0  0  0  0  3  0  0  0  0  0  0
  157.4110  213.8040  153.0270 C   0  0  0  0  0  3  0  0  0  0  0  0
  156.1430  212.4760  156.1650 O   0  0  0  0  0  0  0  0  0  0  0  0
  157.8340  211.1310  156.1280 C   0  0  0  0  0  3  0  0  0  0  0  0
  157.8910  211.9170  154.9920 C   0  0  0  0  0  0  0  0  0  0  0  0
  159.9490  209.8900  153.0670 N   0  0  0  0  0  2  0  0  0  0  0  0
  161.0180  211.3330  154.5480 O   0  0  0  0  0  0  0  0  0  0  0  0
  159.9850  211.0730  153.8760 C   0  0  0  0  0  0  0  0  0  0  0  0
  161.0610  208.9570  152.9290 C   0  0  1  0  0  3  0  0  0  0  0  0
  161.2440  208.2510  154.1200 O   0  0  0  0  0  1  0  0  0  0  0  0
  160.8130  207.9930  151.7780 C   0  0  0  0  0  2  0  0  0  0  0  0
  161.9520  206.9930  151.6430 C   0  0  0  0  0  2  0  0  0  0  0  0
  161.0470  204.8900  152.4600 C   0  0  0  0  0  2  0  0  0  0  0  0
  161.4250  205.6140  151.4070 C   0  0  0  0  0  0  0  0  0  0  0  0
  160.9770  205.9420  149.0560 O   0  0  0  0  0  1  0  0  0  0  0  0
  161.3100  205.1020  150.0650 N   0  0  0  0  0  0  0  0  0  0  0  0
  161.6270  203.7190  149.7300 C   0  0  0  0  0  2  0  0  0  0  0  0
  160.1940  201.7040  149.6810 C   0  0  0  0  0  2  0  0  0  0  0  0
  160.4430  203.0590  149.0480 C   0  0  0  0  0  3  0  0  0  0  0  0
  160.9190  201.7960  148.3550 C   0  0  0  0  0  2  0  0  0  0  0  0
  159.4100  213.1210  151.7180 C   0  0  0  0  0  2  0  0  0  0  0  0
  158.5820  212.9880  150.4450 C   0  0  0  0  0  2  0  0  0  0  0  0
  160.7630  211.5620  148.8350 O   0  0  0  0  0  1  0  0  0  0  0  0
  162.0880  213.3180  144.7830 C   0  0  2  0  0  3  0  0  0  0  0  0
  159.4580  213.0790  144.1860 S   0  0  0  0  0  0  0  0  0  0  0  0
  161.1290  212.3840  144.0520 C   0  0  0  0  0  2  0  0  0  0  0  0
  159.1250  213.5670  146.8070 C   0  0  0  0  0  0  0  0  0  0  0  0
  158.4990  213.4360  147.9390 C   0  0  0  0  0  0  0  0  0  0  0  0
  157.0460  213.7580  147.9710 C   0  0  0  0  0  1  0  0  0  0  0  0
  160.7610  212.9390  149.1090 C   0  0  1  0  0  3  0  0  0  0  0  0
  161.3910  213.8050  146.0460 C   0  0  2  0  0  3  0  0  0  0  0  0
  161.7700  212.9760  147.1190 O   0  0  0  0  0  0  0  0  0  0  0  0
  161.5790  213.6910  148.2210 O   0  0  0  0  0  0  0  0  0  0  0  0
  159.3230  213.5070  149.2080 C   0  0  2  0  0  3  0  0  0  0  0  0
  159.9190  213.7020  145.7870 C   0  0  0  0  0  0  0  0  0  0  0  0
  162.3970  214.4070  143.9690 O   0  0  0  0  0  0  0  0  0  0  0  0
  163.7920  214.4530  143.9490 C   0  0  0  0  0  1  0  0  0  0  0  0
  1  7  1  0  0  0  0
  2  9  2  0  0  0  0
  4  6  2  0  0  0  0
  4  2  1  0  0  0  0
  5  1  2  0  0  0  0
  6  5  1  0  0  0  0
  7  3  1  0  0  0  0
  8  3  2  0  0  0  0
  9  1  1  0  0  0  0
  9  8  1  0  0  0  0
 10 12  1  0  0  0  0
 12  2  1  0  0  0  0
 12 11  2  0  0  0  0
 13 10  1  0  0  0  0
 13 14  1  1  0  0  0
 15 13  1  0  0  0  0
 16 15  1  0  0  0  0
 18 16  1  0  0  0  0
 18 17  2  0  0  0  0
 19 20  1  0  0  0  0
 20 18  1  0  0  0  0
 21 20  1  0  0  0  0
 23 22  1  0  0  0  0
 23 21  1  0  0  0  0
 24 23  1  0  0  0  0
 24 22  1  0  0  0  0
 25  4  1  0  0  0  0
 26 25  1  0  0  0  0
 28 40  1  6  0  0  0
 28 35  1  0  0  0  0
 29 39  1  0  0  0  0
 30 29  1  0  0  0  0
 30 28  1  0  0  0  0
 31 32  2  0  0  0  0
 32 33  1  0  0  0  0
 32 38  1  0  0  0  0
 34 27  1  6  0  0  0
 34 38  1  0  0  0  0
 35 39  1  6  0  0  0
 35 36  1  0  0  0  0
 36 37  1  0  0  0  0
 37 34  1  0  0  0  0
 38 26  1  1  0  0  0
 39 31  2  0  0  0  0
 41 40  1  0  0  0  0
M  END
>  <MODEL>
8

>  <REMARK>
 VINA RESULT:      -7.1      4.483      8.160
  Name = 
  12 active torsions:
  status: ('A' for Active; 'I' for Inactive)
    1  A    between atoms: C_3  and  C_19
    2  A    between atoms: C_3  and  C_20
    3  A    between atoms: C_4  and  C_27
    4  A    between atoms: C_7  and  C_21
    5  A    between atoms: C_7  and  C_24
    6  A    between atoms: N_8  and  C_21
    7  A    between atoms: C_9  and  O_10
    8  A    between atoms: C_11  and  C_32
    9  A    between atoms: C_20  and  C_39
   10  A    between atoms: C_24  and  C_36
   11  A    between atoms: N_26  and  C_32
   12  A    between atoms: N_26  and  C_36
                            x       y       z     vdW  Elec       q    Type
                         _______ _______ _______ _____ _____    ______ ____

>  <TORSDO>
F 12

$$$$
=
 OpenBabel11072413293D

 41 45  0  0  1  0  0  0  0  0999 V2000
  160.4810  207.0270  155.1630 C   0  0  0  0  0  0  0  0  0  0  0  0
  161.1140  208.6880  153.5110 C   0  0  0  0  0  0  0  0  0  0  0  0
  159.7470  208.1990  156.7950 N   0  0  0  0  0  0  0  0  0  0  0  0
  161.4950  207.6130  152.6520 C   0  0  0  0  0  0  0  0  0  0  0  0
  160.8450  205.9630  154.3500 C   0  0  0  0  0  3  0  0  0  0  0  0
  161.3590  206.2720  153.0820 C   0  0  0  0  0  3  0  0  0  0  0  0
  159.9710  206.9860  156.3650 O   0  0  0  0  0  0  0  0  0  0  0  0
  160.1260  209.0740  155.8320 C   0  0  0  0  0  3  0  0  0  0  0  0
  160.6070  208.3280  154.7720 C   0  0  0  0  0  0  0  0  0  0  0  0
  160.0770  210.8240  152.6290 N   0  0  0  0  0  2  0  0  0  0  0  0
  162.3340  210.7120  153.1880 O   0  0  0  0  0  0  0  0  0  0  0  0
  161.2270  210.1160  153.1120 C   0  0  0  0  0  0  0  0  0  0  0  0
  160.0810  212.2300  152.2430 C   0  0  1  0  0  3  0  0  0  0  0  0
  159.9590  212.3470  150.8560 O   0  0  0  0  0  1  0  0  0  0  0  0
  158.9540  212.9810  152.9370 C   0  0  0  0  0  2  0  0  0  0  0  0
  158.7250  212.4500  154.3440 C   0  0  0  0  0  2  0  0  0  0  0  0
  158.7000  214.2990  155.9220 C   0  0  0  0  0  2  0  0  0  0  0  0
  157.9920  213.4510  155.1790 C   0  0  0  0  0  0  0  0  0  0  0  0
  155.9120  213.6440  153.9630 O   0  0  0  0  0  1  0  0  0  0  0  0
  156.5520  213.5020  155.1490 N   0  0  0  0  0  0  0  0  0  0  0  0
  155.7420  213.3180  156.3470 C   0  0  0  0  0  2  0  0  0  0  0  0
  155.6610  210.8630  156.0650 C   0  0  0  0  0  2  0  0  0  0  0  0
  156.0640  211.9860  156.9990 C   0  0  0  0  0  3  0  0  0  0  0  0
  154.7700  211.2300  157.2330 C   0  0  0  0  0  2  0  0  0  0  0  0
  162.0830  207.8450  151.2990 C   0  0  0  0  0  2  0  0  0  0  0  0
  161.1330  207.3510  150.2140 C   0  0  0  0  0  2  0  0  0  0  0  0
  159.3520  204.8670  150.0150 O   0  0  0  0  0  1  0  0  0  0  0  0
  160.8550  201.1970  147.6630 C   0  0  2  0  0  3  0  0  0  0  0  0
  161.0750  202.9860  145.6430 S   0  0  0  0  0  0  0  0  0  0  0  0
  160.1010  201.6680  146.4230 C   0  0  0  0  0  2  0  0  0  0  0  0
  161.6120  204.7130  147.6290 C   0  0  0  0  0  0  0  0  0  0  0  0
  161.5900  205.8920  148.1760 C   0  0  0  0  0  0  0  0  0  0  0  0
  162.1580  207.0280  147.4000 C   0  0  0  0  0  1  0  0  0  0  0  0
  160.7080  204.8350  150.3750 C   0  0  1  0  0  3  0  0  0  0  0  0
  161.4540  202.4220  148.3380 C   0  0  2  0  0  3  0  0  0  0  0  0
  160.5720  202.8620  149.3430 O   0  0  0  0  0  0  0  0  0  0  0  0
  161.3080  203.5570  150.2000 O   0  0  0  0  0  0  0  0  0  0  0  0
  161.5170  205.9640  149.6870 C   0  0  2  0  0  3  0  0  0  0  0  0
  161.6070  203.4640  147.2710 C   0  0  0  0  0  0  0  0  0  0  0  0
  161.8740  200.3210  147.2900 O   0  0  0  0  0  0  0  0  0  0  0  0
  161.2820  199.4530  146.3710 C   0  0  0  0  0  1  0  0  0  0  0  0
  1  7  1  0  0  0  0
  2  9  2  0  0  0  0
  4  6  2  0  0  0  0
  4  2  1  0  0  0  0
  5  1  2  0  0  0  0
  6  5  1  0  0  0  0
  7  3  1  0  0  0  0
  8  3  2  0  0  0  0
  9  1  1  0  0  0  0
  9  8  1  0  0  0  0
 10 12  1  0  0  0  0
 12 11  2  0  0  0  0
 12  2  1  0  0  0  0
 13 14  1  6  0  0  0
 13 10  1  0  0  0  0
 13 15  1  0  0  0  0
 15 16  1  0  0  0  0
 16 18  1  0  0  0  0
 18 17  2  0  0  0  0
 19 20  1  0  0  0  0
 20 18  1  0  0  0  0
 20 21  1  0  0  0  0
 21 23  1  0  0  0  0
 22 23  1  0  0  0  0
 22 24  1  0  0  0  0
 23 24  1  0  0  0  0
 25  4  1  0  0  0  0
 26 25  1  0  0  0  0
 28 40  1  6  0  0  0
 28 35  1  0  0  0  0
 29 30  1  0  0  0  0
 29 39  1  0  0  0  0
 30 28  1  0  0  0  0
 31 32  2  0  0  0  0
 32 38  1  0  0  0  0
 33 32  1  0  0  0  0
 34 27  1  6  0  0  0
 35 39  1  6  0  0  0
 35 36  1  0  0  0  0
 36 37  1  0  0  0  0
 37 34  1  0  0  0  0
 38 26  1  6  0  0  0
 38 34  1  0  0  0  0
 39 31  2  0  0  0  0
 41 40  1  0  0  0  0
M  END
>  <MODEL>
9

>  <REMARK>
 VINA RESULT:      -7.0      3.682     11.013
  Name = 
  12 active torsions:
  status: ('A' for Active; 'I' for Inactive)
    1  A    between atoms: C_3  and  C_19
    2  A    between atoms: C_3  and  C_20
    3  A    between atoms: C_4  and  C_27
    4  A    between atoms: C_7  and  C_21
    5  A    between atoms: C_7  and  C_24
    6  A    between atoms: N_8  and  C_21
    7  A    between atoms: C_9  and  O_10
    8  A    between atoms: C_11  and  C_32
    9  A    between atoms: C_20  and  C_39
   10  A    between atoms: C_24  and  C_36
   11  A    between atoms: N_26  and  C_32
   12  A    between atoms: N_26  and  C_36
                            x       y       z     vdW  Elec       q    Type
                         _______ _______ _______ _____ _____    ______ ____

>  <TORSDO>
F 12

$$$$
