=
 OpenBabel11072414553D

 57 66  0  0  1  0  0  0  0  0999 V2000
  160.6290  208.4200  152.6810 C   0  0  2  0  0  0  0  0  0  0  0  0
  159.3800  208.8260  153.1830 O   0  0  0  0  0  1  0  0  0  0  0  0
  160.6850  207.6170  150.3230 C   0  0  1  0  0  0  0  0  0  0  0  0
  159.5830  207.2570  149.5520 O   0  0  0  0  0  1  0  0  0  0  0  0
  163.0180  207.9500  149.8420 O   0  0  0  0  0  0  0  0  0  0  0  0
  161.4160  206.3790  150.9790 C   0  0  2  0  0  0  0  0  0  0  0  0
  162.6350  206.3120  151.8940 C   0  0  0  0  0  1  0  0  0  0  0  0
  162.2040  205.2110  145.7250 F   0  0  0  0  0  0  0  0  0  0  0  0
  162.5380  204.9230  148.6530 O   0  0  0  0  0  0  0  0  0  0  0  0
  161.1530  204.8080  146.5360 C   0  0  2  0  0  0  0  0  0  0  0  0
  162.0380  206.2200  148.4340 C   0  0  2  0  0  0  0  0  0  0  0  0
  161.9440  207.0480  149.7180 C   0  0  1  0  0  0  0  0  0  0  0  0
  163.7870  207.8010  148.6700 C   0  0  0  0  0  2  0  0  0  0  0  0
  160.8040  205.7190  147.7000 C   0  0  2  0  0  3  0  0  0  0  0  0
  162.9930  207.0440  147.6200 C   0  0  0  0  0  2  0  0  0  0  0  0
  160.3550  207.2060  151.7350 C   0  0  1  0  0  3  0  0  0  0  0  0
  161.4510  204.3560  147.9530 C   0  0  2  0  0  0  0  0  0  0  0  0
  161.8350  200.8280  149.6220 O   0  0  0  0  0  0  0  0  0  0  0  0
  161.4450  201.7370  151.7880 N   0  0  0  0  0  0  0  0  0  0  0  0
  159.4280  201.2780  148.0170 F   0  0  0  0  0  0  0  0  0  0  0  0
  160.8510  203.0400  150.0700 C   0  0  0  0  0  0  0  0  0  0  0  0
  160.5520  203.3040  148.6260 C   0  0  2  0  0  3  0  0  0  0  0  0
  160.4560  203.7360  151.0750 N   0  0  0  0  0  0  0  0  0  0  0  0
  161.8120  201.1010  148.2160 C   0  0  0  0  0  2  0  0  0  0  0  0
  160.6020  201.9840  147.8250 C   0  0  1  0  0  3  0  0  0  0  0  0
  160.8490  202.9870  152.2760 C   0  0  0  0  0  2  0  0  0  0  0  0
  161.4310  201.8220  150.5080 C   0  0  0  0  0  0  0  0  0  0  0  0
  160.0160  204.2630  145.9220 O   0  0  0  0  0  0  0  0  0  0  0  0
  160.3060  204.1930  144.5550 C   0  0  0  0  0  1  0  0  0  0  0  0
  160.1980  206.9700  155.9680 C   0  0  0  0  0  2  0  0  0  0  0  0
  160.8240  206.7370  154.5720 C   0  0  0  0  0  2  0  0  0  0  0  0
  159.7970  208.3500  156.1860 N   0  0  0  0  0  0  0  0  0  0  0  0
  162.5140  210.2760  154.5680 C   0  0  0  0  0  1  0  0  0  0  0  0
  160.5260  209.3350  155.7860 C   0  0  0  0  0  3  0  0  0  0  0  0
  161.7670  209.0370  155.0120 C   0  0  1  0  0  3  0  0  0  0  0  0
  161.4660  207.9870  153.9210 C   0  0  2  0  0  3  0  0  0  0  0  0
  161.3120  209.5390  152.0010 N   0  0  0  0  0  2  0  0  0  0  0  0
  160.3980  210.5040  151.3950 C   0  0  0  0  0  2  0  0  0  0  0  0
  160.7570  211.9070  151.8570 C   0  0  1  0  0  3  0  0  0  0  0  0
  161.5790  213.2350  147.6470 O   0  0  0  0  0  0  0  0  0  0  0  0
  159.8810  214.3340  148.8960 C   0  0  2  0  0  3  0  0  0  0  0  0
  161.5200  212.6220  148.8790 C   0  0  0  0  0  0  0  0  0  0  0  0
  162.2620  211.6600  149.2040 O   0  0  0  0  0  0  0  0  0  0  0  0
  160.6340  214.2960  147.5500 C   0  0  0  0  0  2  0  0  0  0  0  0
  160.1620  212.9690  150.9710 C   0  0  0  0  0  3  0  0  0  0  0  0
  160.5040  213.2420  149.7040 C   0  0  0  0  0  0  0  0  0  0  0  0
  158.4230  214.0810  148.6780 C   0  0  0  0  0  0  0  0  0  0  0  0
  157.6340  214.1510  149.6580 O   0  0  0  0  0  0  0  0  0  0  0  0
  157.9500  213.7570  147.4050 O   0  0  0  0  0  0  0  0  0  0  0  0
  157.3600  212.4960  147.1230 C   0  0  0  0  0  1  0  0  0  0  0  0
  160.4120  212.1040  153.3280 C   0  0  0  0  0  2  0  0  0  0  0  0
  157.3230  214.2780  153.3460 C   0  0  0  0  0  3  0  0  0  0  0  0
  159.0010  212.5550  153.4940 C   0  0  0  0  0  0  0  0  0  0  0  0
  158.6420  213.8630  153.1560 C   0  0  0  0  0  3  0  0  0  0  0  0
  158.0430  211.6850  154.0200 C   0  0  0  0  0  3  0  0  0  0  0  0
  156.4020  213.4150  153.8560 N   0  0  0  0  0  0  0  0  0  0  0  0
  156.7330  212.1390  154.1930 C   0  0  0  0  0  3  0  0  0  0  0  0
  1  2  1  1  0  0  0
  1 36  1  0  0  0  0
  3  4  1  6  0  0  0
  3  6  1  0  0  0  0
  3 16  1  0  0  0  0
  6 16  1  0  0  0  0
  6  7  1  1  0  0  0
 10  8  1  6  0  0  0
 10 14  1  0  0  0  0
 10 17  1  0  0  0  0
 11 15  1  6  0  0  0
 11  9  1  0  0  0  0
 11 12  1  0  0  0  0
 12  5  1  1  0  0  0
 12  3  1  0  0  0  0
 12  6  1  0  0  0  0
 13  5  1  0  0  0  0
 14 17  1  0  0  0  0
 14 11  1  0  0  0  0
 15 13  1  0  0  0  0
 16  1  1  0  0  0  0
 17 22  1  0  0  0  0
 17  9  1  0  0  0  0
 18 27  1  0  0  0  0
 19 26  1  0  0  0  0
 21 27  1  0  0  0  0
 21 23  2  0  0  0  0
 22 21  1  0  0  0  0
 23 26  1  0  0  0  0
 24 18  1  0  0  0  0
 25 20  1  0  0  0  0
 25 24  1  0  0  0  0
 25 22  1  0  0  0  0
 27 19  2  0  0  0  0
 28 10  1  0  0  0  0
 29 28  1  0  0  0  0
 30 32  1  0  0  0  0
 31 30  1  0  0  0  0
 33 35  1  0  0  0  0
 34 32  2  0  0  0  0
 35 34  1  0  0  0  0
 36 31  1  0  0  0  0
 36 35  1  0  0  0  0
 37  1  1  0  0  0  0
 38 39  1  0  0  0  0
 38 37  1  0  0  0  0
 39 51  1  0  0  0  0
 40 42  1  0  0  0  0
 41 46  1  0  0  0  0
 42 43  2  0  0  0  0
 42 46  1  0  0  0  0
 44 40  1  0  0  0  0
 44 41  1  0  0  0  0
 45 39  1  0  0  0  0
 46 45  2  0  0  0  0
 47 41  1  0  0  0  0
 47 48  2  0  0  0  0
 49 47  1  0  0  0  0
 50 49  1  0  0  0  0
 51 53  1  0  0  0  0
 52 56  1  0  0  0  0
 53 55  2  0  0  0  0
 54 52  2  0  0  0  0
 54 53  1  0  0  0  0
 55 57  1  0  0  0  0
 56 57  2  0  0  0  0
M  END
>  <MODEL>
1

>  <REMARK>
 VINA RESULT:      -0.4      0.000      0.000
  Name = 
  12 active torsions:
  status: ('A' for Active; 'I' for Inactive)
    1  A    between atoms: C_10  and  C_12
    2  A    between atoms: C_12  and  C_23
    3  A    between atoms: O_20  and  C_24
    4  A    between atoms: C_22  and  C_39
    5  A    between atoms: C_23  and  C_31
    6  A    between atoms: C_23  and  C_44
    7  A    between atoms: C_26  and  C_46
    8  A    between atoms: C_26  and  C_48
    9  A    between atoms: C_26  and  N_51
   10  A    between atoms: C_31  and  N_51
   11  A    between atoms: O_33  and  C_39
   12  A    between atoms: C_37  and  C_50
                            x       y       z     vdW  Elec       q    Type
                         _______ _______ _______ _____ _____    ______ ____

>  <TORSDO>
F 12

$$$$
=
 OpenBabel11072414553D

 57 66  0  0  1  0  0  0  0  0999 V2000
  160.6920  208.4940  153.5240 C   0  0  2  0  0  0  0  0  0  0  0  0
  159.3660  208.4540  153.9880 O   0  0  0  0  0  1  0  0  0  0  0  0
  160.4500  207.7990  151.1440 C   0  0  1  0  0  0  0  0  0  0  0  0
  159.5450  206.8620  150.6500 O   0  0  0  0  0  1  0  0  0  0  0  0
  161.9500  209.3710  150.1130 O   0  0  0  0  0  0  0  0  0  0  0  0
  161.8920  207.2020  151.3860 C   0  0  2  0  0  0  0  0  0  0  0  0
  163.1640  207.8550  151.9210 C   0  0  0  0  0  1  0  0  0  0  0  0
  161.5350  206.5390  145.9980 F   0  0  0  0  0  0  0  0  0  0  0  0
  162.8480  206.5660  148.6520 O   0  0  0  0  0  0  0  0  0  0  0  0
  161.1780  205.6380  146.9910 C   0  0  2  0  0  0  0  0  0  0  0  0
  161.6880  207.3520  148.7730 C   0  0  2  0  0  0  0  0  0  0  0  0
  161.5580  208.0190  150.1450 C   0  0  1  0  0  0  0  0  0  0  0  0
  162.2740  209.6480  148.7690 C   0  0  0  0  0  2  0  0  0  0  0  0
  160.7680  206.2260  148.3290 C   0  0  2  0  0  3  0  0  0  0  0  0
  161.7410  208.5490  147.8680 C   0  0  0  0  0  2  0  0  0  0  0  0
  160.8460  207.3100  152.5140 C   0  0  1  0  0  3  0  0  0  0  0  0
  162.0890  205.4680  148.1910 C   0  0  2  0  0  0  0  0  0  0  0  0
  159.6120  202.8660  149.7640 O   0  0  0  0  0  0  0  0  0  0  0  0
  160.0090  201.3200  147.9970 N   0  0  0  0  0  0  0  0  0  0  0  0
  162.1480  203.2940  151.1650 F   0  0  0  0  0  0  0  0  0  0  0  0
  161.5050  202.9720  148.1930 C   0  0  0  0  0  0  0  0  0  0  0  0
  162.1610  204.1110  148.9120 C   0  0  2  0  0  3  0  0  0  0  0  0
  162.0110  202.2720  147.2410 N   0  0  0  0  0  0  0  0  0  0  0  0
  160.0360  204.0980  150.3600 C   0  0  0  0  0  2  0  0  0  0  0  0
  161.5770  204.2440  150.3370 C   0  0  1  0  0  3  0  0  0  0  0  0
  161.0680  201.1740  146.9910 C   0  0  0  0  0  2  0  0  0  0  0  0
  160.3040  202.3790  148.6590 C   0  0  0  0  0  0  0  0  0  0  0  0
  160.3950  204.5320  146.6270 O   0  0  0  0  0  0  0  0  0  0  0  0
  160.4020  204.4910  145.2290 C   0  0  0  0  0  1  0  0  0  0  0  0
  160.4400  207.4990  156.9940 C   0  0  0  0  0  2  0  0  0  0  0  0
  161.0330  207.1030  155.6210 C   0  0  0  0  0  2  0  0  0  0  0  0
  159.9740  208.8760  157.0340 N   0  0  0  0  0  0  0  0  0  0  0  0
  162.5350  210.6830  155.0630 C   0  0  0  0  0  1  0  0  0  0  0  0
  160.6380  209.8280  156.4740 C   0  0  0  0  0  3  0  0  0  0  0  0
  161.8680  209.4840  155.7030 C   0  0  1  0  0  3  0  0  0  0  0  0
  161.5890  208.2790  154.7790 C   0  0  2  0  0  3  0  0  0  0  0  0
  161.0020  209.8080  152.9250 N   0  0  0  0  0  2  0  0  0  0  0  0
  159.8210  210.5470  152.4870 C   0  0  0  0  0  2  0  0  0  0  0  0
  159.9760  212.0160  152.8450 C   0  0  1  0  0  3  0  0  0  0  0  0
  160.3790  213.6980  148.7010 O   0  0  0  0  0  0  0  0  0  0  0  0
  158.4440  214.2220  149.9790 C   0  0  2  0  0  3  0  0  0  0  0  0
  160.4980  213.0420  149.9060 C   0  0  0  0  0  0  0  0  0  0  0  0
  161.4820  212.3130  150.1980 O   0  0  0  0  0  0  0  0  0  0  0  0
  159.1730  214.4530  148.6390 C   0  0  0  0  0  2  0  0  0  0  0  0
  159.1040  212.9050  151.9980 C   0  0  0  0  0  3  0  0  0  0  0  0
  159.3510  213.3160  150.7460 C   0  0  0  0  0  0  0  0  0  0  0  0
  157.1150  213.5790  149.7390 C   0  0  0  0  0  0  0  0  0  0  0  0
  156.9980  212.7370  148.8080 O   0  0  0  0  0  0  0  0  0  0  0  0
  156.0170  213.9230  150.5290 O   0  0  0  0  0  0  0  0  0  0  0  0
  154.8180  214.4340  149.9640 C   0  0  0  0  0  1  0  0  0  0  0  0
  159.7730  212.2400  154.3390 C   0  0  0  0  0  2  0  0  0  0  0  0
  156.4290  213.8230  155.0990 C   0  0  0  0  0  3  0  0  0  0  0  0
  158.3290  212.4050  154.6670 C   0  0  0  0  0  0  0  0  0  0  0  0
  157.7760  213.6850  154.7620 C   0  0  0  0  0  3  0  0  0  0  0  0
  157.5320  211.2840  154.9150 C   0  0  0  0  0  3  0  0  0  0  0  0
  155.6680  212.7190  155.3330 N   0  0  0  0  0  0  0  0  0  0  0  0
  156.1880  211.4640  155.2480 C   0  0  0  0  0  3  0  0  0  0  0  0
  1  2  1  1  0  0  0
  1 36  1  0  0  0  0
  3  4  1  6  0  0  0
  3  6  1  0  0  0  0
  3 16  1  0  0  0  0
  6  7  1  1  0  0  0
  6 16  1  0  0  0  0
  9 11  1  0  0  0  0
 10  8  1  6  0  0  0
 10 17  1  0  0  0  0
 10 14  1  0  0  0  0
 11 15  1  6  0  0  0
 11 12  1  0  0  0  0
 12  5  1  1  0  0  0
 12  3  1  0  0  0  0
 12  6  1  0  0  0  0
 13  5  1  0  0  0  0
 14 11  1  0  0  0  0
 15 13  1  0  0  0  0
 16  1  1  0  0  0  0
 17 14  1  0  0  0  0
 17  9  1  0  0  0  0
 17 22  1  0  0  0  0
 18 24  1  0  0  0  0
 19 27  2  0  0  0  0
 21 27  1  0  0  0  0
 21 22  1  0  0  0  0
 22 25  1  0  0  0  0
 23 21  2  0  0  0  0
 25 24  1  0  0  0  0
 25 20  1  0  0  0  0
 26 23  1  0  0  0  0
 26 19  1  0  0  0  0
 27 18  1  0  0  0  0
 28 10  1  0  0  0  0
 29 28  1  0  0  0  0
 30 32  1  0  0  0  0
 31 30  1  0  0  0  0
 33 35  1  0  0  0  0
 34 32  2  0  0  0  0
 35 34  1  0  0  0  0
 36 31  1  0  0  0  0
 36 35  1  0  0  0  0
 37  1  1  0  0  0  0
 38 39  1  0  0  0  0
 38 37  1  0  0  0  0
 39 51  1  0  0  0  0
 40 42  1  0  0  0  0
 41 46  1  0  0  0  0
 42 43  2  0  0  0  0
 42 46  1  0  0  0  0
 44 40  1  0  0  0  0
 44 41  1  0  0  0  0
 45 39  1  0  0  0  0
 46 45  2  0  0  0  0
 47 41  1  0  0  0  0
 47 49  1  0  0  0  0
 48 47  2  0  0  0  0
 50 49  1  0  0  0  0
 51 53  1  0  0  0  0
 52 56  1  0  0  0  0
 53 54  1  0  0  0  0
 53 55  2  0  0  0  0
 54 52  2  0  0  0  0
 55 57  1  0  0  0  0
 57 56  2  0  0  0  0
M  END
>  <MODEL>
2

>  <REMARK>
 VINA RESULT:       0.1      1.696      2.120
  Name = 
  12 active torsions:
  status: ('A' for Active; 'I' for Inactive)
    1  A    between atoms: C_10  and  C_12
    2  A    between atoms: C_12  and  C_23
    3  A    between atoms: O_20  and  C_24
    4  A    between atoms: C_22  and  C_39
    5  A    between atoms: C_23  and  C_31
    6  A    between atoms: C_23  and  C_44
    7  A    between atoms: C_26  and  C_46
    8  A    between atoms: C_26  and  C_48
    9  A    between atoms: C_26  and  N_51
   10  A    between atoms: C_31  and  N_51
   11  A    between atoms: O_33  and  C_39
   12  A    between atoms: C_37  and  C_50
                            x       y       z     vdW  Elec       q    Type
                         _______ _______ _______ _____ _____    ______ ____

>  <TORSDO>
F 12

$$$$
=
 OpenBabel11072414553D

 57 66  0  0  1  0  0  0  0  0999 V2000
  160.7400  208.6670  152.3670 C   0  0  2  0  0  0  0  0  0  0  0  0
  159.5030  209.1750  152.8010 O   0  0  0  0  0  1  0  0  0  0  0  0
  160.7550  207.7090  150.0670 C   0  0  1  0  0  0  0  0  0  0  0  0
  159.6360  207.3310  149.3280 O   0  0  0  0  0  1  0  0  0  0  0  0
  163.0920  207.9410  149.5510 O   0  0  0  0  0  0  0  0  0  0  0  0
  161.4540  206.4960  150.7980 C   0  0  2  0  0  0  0  0  0  0  0  0
  162.6790  206.4540  151.7090 C   0  0  0  0  0  1  0  0  0  0  0  0
  162.1660  204.9620  145.6280 F   0  0  0  0  0  0  0  0  0  0  0  0
  162.5160  204.8580  148.5670 O   0  0  0  0  0  0  0  0  0  0  0  0
  161.1100  204.6440  146.4710 C   0  0  2  0  0  0  0  0  0  0  0  0
  162.0510  206.1520  148.2660 C   0  0  2  0  0  0  0  0  0  0  0  0
  161.9910  207.0650  149.4930 C   0  0  1  0  0  0  0  0  0  0  0  0
  163.8470  207.6930  148.3860 C   0  0  0  0  0  2  0  0  0  0  0  0
  160.7980  205.6400  147.5750 C   0  0  2  0  0  3  0  0  0  0  0  0
  163.0230  206.8920  147.3940 C   0  0  0  0  0  2  0  0  0  0  0  0
  160.4240  207.4010  151.5050 C   0  0  1  0  0  3  0  0  0  0  0  0
  161.4070  204.2780  147.9130 C   0  0  2  0  0  0  0  0  0  0  0  0
  161.6970  200.8390  149.7750 O   0  0  0  0  0  0  0  0  0  0  0  0
  161.3780  201.8820  151.8920 N   0  0  0  0  0  0  0  0  0  0  0  0
  159.2780  201.2830  148.1850 F   0  0  0  0  0  0  0  0  0  0  0  0
  160.7990  203.1070  150.1110 C   0  0  0  0  0  0  0  0  0  0  0  0
  160.4840  203.2990  148.6590 C   0  0  2  0  0  3  0  0  0  0  0  0
  160.4470  203.8720  151.0810 N   0  0  0  0  0  0  0  0  0  0  0  0
  161.6570  201.0320  148.3560 C   0  0  0  0  0  2  0  0  0  0  0  0
  160.4730  201.9340  147.9350 C   0  0  1  0  0  3  0  0  0  0  0  0
  160.8360  203.1790  152.3160 C   0  0  0  0  0  2  0  0  0  0  0  0
  161.3440  201.8950  150.6090 C   0  0  0  0  0  0  0  0  0  0  0  0
  159.9540  204.0930  145.9010 O   0  0  0  0  0  0  0  0  0  0  0  0
  160.2110  203.9740  144.5310 C   0  0  0  0  0  1  0  0  0  0  0  0
  160.2790  206.8690  155.4730 C   0  0  0  0  0  2  0  0  0  0  0  0
  161.0700  206.8830  154.1430 C   0  0  0  0  0  2  0  0  0  0  0  0
  159.6000  208.1260  155.7410 N   0  0  0  0  0  0  0  0  0  0  0  0
  162.0400  210.6580  154.5820 C   0  0  0  0  0  1  0  0  0  0  0  0
  160.1610  209.2610  155.4970 C   0  0  0  0  0  3  0  0  0  0  0  0
  161.5060  209.2670  154.8490 C   0  0  1  0  0  3  0  0  0  0  0  0
  161.5200  208.2840  153.6590 C   0  0  2  0  0  3  0  0  0  0  0  0
  161.5010  209.6930  151.6270 N   0  0  0  0  0  2  0  0  0  0  0  0
  161.5800  210.9790  152.3170 C   0  0  0  0  0  2  0  0  0  0  0  0
  160.3970  211.8460  151.9180 C   0  0  1  0  0  3  0  0  0  0  0  0
  156.3390  213.7230  152.3290 O   0  0  0  0  0  0  0  0  0  0  0  0
  157.5610  213.1690  154.2910 C   0  0  2  0  0  3  0  0  0  0  0  0
  157.5210  213.1470  151.9210 C   0  0  0  0  0  0  0  0  0  0  0  0
  157.8230  212.9780  150.7120 O   0  0  0  0  0  0  0  0  0  0  0  0
  156.2600  213.7970  153.7490 C   0  0  0  0  0  2  0  0  0  0  0  0
  159.5520  212.2380  153.1010 C   0  0  0  0  0  3  0  0  0  0  0  0
  158.3270  212.7830  153.0680 C   0  0  0  0  0  0  0  0  0  0  0  0
  157.2460  211.9730  155.1320 C   0  0  0  0  0  0  0  0  0  0  0  0
  157.6860  211.9160  156.3110 O   0  0  0  0  0  0  0  0  0  0  0  0
  156.4840  210.9270  154.6050 O   0  0  0  0  0  0  0  0  0  0  0  0
  155.3470  210.4130  155.2830 C   0  0  0  0  0  1  0  0  0  0  0  0
  160.8510  213.0450  151.0920 C   0  0  0  0  0  2  0  0  0  0  0  0
  161.8040  211.6050  147.7320 C   0  0  0  0  0  3  0  0  0  0  0  0
  160.8430  212.7280  149.6360 C   0  0  0  0  0  0  0  0  0  0  0  0
  161.8070  211.8680  149.1030 C   0  0  0  0  0  3  0  0  0  0  0  0
  159.8960  213.3170  148.7930 C   0  0  0  0  0  3  0  0  0  0  0  0
  160.8710  212.1850  146.9290 N   0  0  0  0  0  0  0  0  0  0  0  0
  159.9260  213.0280  147.4280 C   0  0  0  0  0  3  0  0  0  0  0  0
  1  2  1  1  0  0  0
  1 36  1  0  0  0  0
  3  4  1  6  0  0  0
  3  6  1  0  0  0  0
  3 16  1  0  0  0  0
  6 16  1  0  0  0  0
  6  7  1  1  0  0  0
 10  8  1  6  0  0  0
 10 14  1  0  0  0  0
 10 17  1  0  0  0  0
 11 15  1  6  0  0  0
 11  9  1  0  0  0  0
 11 12  1  0  0  0  0
 12  5  1  1  0  0  0
 12  3  1  0  0  0  0
 12  6  1  0  0  0  0
 13  5  1  0  0  0  0
 14 17  1  0  0  0  0
 14 11  1  0  0  0  0
 15 13  1  0  0  0  0
 16  1  1  0  0  0  0
 17  9  1  0  0  0  0
 17 22  1  0  0  0  0
 18 27  1  0  0  0  0
 19 26  1  0  0  0  0
 21 27  1  0  0  0  0
 21 23  2  0  0  0  0
 22 21  1  0  0  0  0
 23 26  1  0  0  0  0
 24 18  1  0  0  0  0
 25 20  1  0  0  0  0
 25 24  1  0  0  0  0
 25 22  1  0  0  0  0
 27 19  2  0  0  0  0
 28 10  1  0  0  0  0
 29 28  1  0  0  0  0
 30 32  1  0  0  0  0
 31 30  1  0  0  0  0
 33 35  1  0  0  0  0
 34 32  2  0  0  0  0
 35 34  1  0  0  0  0
 36 31  1  0  0  0  0
 36 35  1  0  0  0  0
 37 38  1  0  0  0  0
 37  1  1  0  0  0  0
 39 38  1  0  0  0  0
 39 45  1  0  0  0  0
 40 44  1  0  0  0  0
 41 47  1  0  0  0  0
 42 40  1  0  0  0  0
 42 46  1  0  0  0  0
 43 42  2  0  0  0  0
 44 41  1  0  0  0  0
 46 45  2  0  0  0  0
 46 41  1  0  0  0  0
 47 48  2  0  0  0  0
 49 47  1  0  0  0  0
 49 50  1  0  0  0  0
 51 39  1  0  0  0  0
 52 54  1  0  0  0  0
 53 51  1  0  0  0  0
 54 53  2  0  0  0  0
 55 53  1  0  0  0  0
 56 57  1  0  0  0  0
 56 52  2  0  0  0  0
 57 55  2  0  0  0  0
M  END
>  <MODEL>
3

>  <REMARK>
 VINA RESULT:       0.4      1.461      3.572
  Name = 
  12 active torsions:
  status: ('A' for Active; 'I' for Inactive)
    1  A    between atoms: C_10  and  C_12
    2  A    between atoms: C_12  and  C_23
    3  A    between atoms: O_20  and  C_24
    4  A    between atoms: C_22  and  C_39
    5  A    between atoms: C_23  and  C_31
    6  A    between atoms: C_23  and  C_44
    7  A    between atoms: C_26  and  C_46
    8  A    between atoms: C_26  and  C_48
    9  A    between atoms: C_26  and  N_51
   10  A    between atoms: C_31  and  N_51
   11  A    between atoms: O_33  and  C_39
   12  A    between atoms: C_37  and  C_50
                            x       y       z     vdW  Elec       q    Type
                         _______ _______ _______ _____ _____    ______ ____

>  <TORSDO>
F 12

$$$$
=
 OpenBabel11072414553D

 57 66  0  0  1  0  0  0  0  0999 V2000
  160.5900  209.9560  154.1170 C   0  0  2  0  0  0  0  0  0  0  0  0
  159.2610  209.8520  154.5620 O   0  0  0  0  0  1  0  0  0  0  0  0
  160.4210  209.0810  151.7900 C   0  0  1  0  0  0  0  0  0  0  0  0
  159.5990  208.0420  151.3610 O   0  0  0  0  0  1  0  0  0  0  0  0
  161.7940  210.6960  150.6540 O   0  0  0  0  0  0  0  0  0  0  0  0
  161.9060  208.6230  152.0740 C   0  0  2  0  0  0  0  0  0  0  0  0
  163.1160  209.4130  152.5640 C   0  0  0  0  0  1  0  0  0  0  0  0
  161.6400  207.5640  146.7450 F   0  0  0  0  0  0  0  0  0  0  0  0
  162.9290  207.8810  149.3920 O   0  0  0  0  0  0  0  0  0  0  0  0
  161.3510  206.7070  147.7970 C   0  0  2  0  0  0  0  0  0  0  0  0
  161.7070  208.5760  149.4570 C   0  0  2  0  0  0  0  0  0  0  0  0
  161.5150  209.3220  150.7800 C   0  0  1  0  0  0  0  0  0  0  0  0
  162.1040  210.9070  149.2950 C   0  0  0  0  0  2  0  0  0  0  0  0
  160.8860  207.3500  149.0910 C   0  0  2  0  0  3  0  0  0  0  0  0
  161.6680  209.7070  148.4710 C   0  0  0  0  0  2  0  0  0  0  0  0
  160.8460  208.7220  153.1900 C   0  0  1  0  0  3  0  0  0  0  0  0
  162.2660  206.6950  149.0070 C   0  0  2  0  0  0  0  0  0  0  0  0
  160.0440  204.2490  151.1180 O   0  0  0  0  0  0  0  0  0  0  0  0
  160.1980  202.5600  149.4460 N   0  0  0  0  0  0  0  0  0  0  0  0
  162.7480  204.7720  152.1120 F   0  0  0  0  0  0  0  0  0  0  0  0
  161.6990  204.2120  149.2950 C   0  0  0  0  0  0  0  0  0  0  0  0
  162.4430  205.4020  149.8200 C   0  0  2  0  0  3  0  0  0  0  0  0
  162.0700  203.4330  148.3430 N   0  0  0  0  0  0  0  0  0  0  0  0
  160.5410  205.5230  151.5460 C   0  0  0  0  0  2  0  0  0  0  0  0
  162.0630  205.6550  151.2960 C   0  0  1  0  0  3  0  0  0  0  0  0
  161.1060  202.3250  148.3180 C   0  0  0  0  0  2  0  0  0  0  0  0
  160.5760  203.6680  149.9720 C   0  0  0  0  0  0  0  0  0  0  0  0
  160.6640  205.5190  147.5100 O   0  0  0  0  0  0  0  0  0  0  0  0
  160.8610  205.2720  146.1470 C   0  0  0  0  0  1  0  0  0  0  0  0
  161.4000  207.7060  156.8320 C   0  0  0  0  0  2  0  0  0  0  0  0
  161.9850  208.4410  155.6020 C   0  0  0  0  0  2  0  0  0  0  0  0
  160.1030  208.2230  157.2370 N   0  0  0  0  0  0  0  0  0  0  0  0
  160.4630  211.8730  156.7370 C   0  0  0  0  0  1  0  0  0  0  0  0
  159.8500  209.4860  157.2340 C   0  0  0  0  0  3  0  0  0  0  0  0
  160.8950  210.4220  156.7240 C   0  0  1  0  0  3  0  0  0  0  0  0
  161.4750  209.8890  155.3960 C   0  0  2  0  0  3  0  0  0  0  0  0
  160.8180  211.2460  153.4350 N   0  0  0  0  0  2  0  0  0  0  0  0
  160.0630  212.3570  154.0110 C   0  0  0  0  0  2  0  0  0  0  0  0
  158.8990  212.7110  153.0990 C   0  0  1  0  0  3  0  0  0  0  0  0
  157.0240  214.4410  149.4050 O   0  0  0  0  0  0  0  0  0  0  0  0
  159.0840  213.2710  149.2170 C   0  0  2  0  0  3  0  0  0  0  0  0
  157.3820  214.0430  150.6740 C   0  0  0  0  0  0  0  0  0  0  0  0
  156.6910  214.2960  151.6950 O   0  0  0  0  0  0  0  0  0  0  0  0
  157.9810  214.0180  148.4390 C   0  0  0  0  0  2  0  0  0  0  0  0
  159.2980  212.7320  151.6480 C   0  0  0  0  0  3  0  0  0  0  0  0
  158.6340  213.3160  150.6410 C   0  0  0  0  0  0  0  0  0  0  0  0
  160.3980  213.9650  149.0430 C   0  0  0  0  0  0  0  0  0  0  0  0
  160.9740  214.4530  150.0520 O   0  0  0  0  0  0  0  0  0  0  0  0
  160.9660  214.0820  147.7720 O   0  0  0  0  0  0  0  0  0  0  0  0
  162.3590  213.9110  147.5560 C   0  0  0  0  0  1  0  0  0  0  0  0
  157.6990  211.8100  153.3690 C   0  0  0  0  0  2  0  0  0  0  0  0
  155.6390  214.1300  155.5240 C   0  0  0  0  0  3  0  0  0  0  0  0
  156.8750  212.3360  154.4940 C   0  0  0  0  0  0  0  0  0  0  0  0
  156.3840  213.6440  154.4490 C   0  0  0  0  0  3  0  0  0  0  0  0
  156.6190  211.5360  155.6110 C   0  0  0  0  0  3  0  0  0  0  0  0
  155.3970  213.3350  156.6020 N   0  0  0  0  0  0  0  0  0  0  0  0
  155.8680  212.0590  156.6660 C   0  0  0  0  0  3  0  0  0  0  0  0
  1  2  1  1  0  0  0
  1 36  1  0  0  0  0
  3  4  1  6  0  0  0
  3  6  1  0  0  0  0
  3 16  1  0  0  0  0
  6  7  1  1  0  0  0
  6 16  1  0  0  0  0
  9 11  1  0  0  0  0
 10  8  1  6  0  0  0
 10 17  1  0  0  0  0
 10 14  1  0  0  0  0
 11 15  1  6  0  0  0
 11 12  1  0  0  0  0
 12  5  1  6  0  0  0
 12  3  1  0  0  0  0
 12  6  1  0  0  0  0
 13  5  1  0  0  0  0
 14 11  1  0  0  0  0
 15 13  1  0  0  0  0
 16  1  1  0  0  0  0
 17 14  1  0  0  0  0
 17  9  1  0  0  0  0
 17 22  1  0  0  0  0
 18 24  1  0  0  0  0
 19 27  2  0  0  0  0
 21 22  1  0  0  0  0
 21 27  1  0  0  0  0
 22 25  1  0  0  0  0
 23 21  2  0  0  0  0
 25 24  1  0  0  0  0
 25 20  1  0  0  0  0
 26 23  1  0  0  0  0
 26 19  1  0  0  0  0
 27 18  1  0  0  0  0
 28 10  1  0  0  0  0
 29 28  1  0  0  0  0
 30 32  1  0  0  0  0
 31 30  1  0  0  0  0
 34 32  2  0  0  0  0
 35 33  1  0  0  0  0
 35 34  1  0  0  0  0
 36 31  1  0  0  0  0
 36 35  1  0  0  0  0
 37 38  1  0  0  0  0
 37  1  1  0  0  0  0
 39 51  1  0  0  0  0
 39 38  1  0  0  0  0
 40 42  1  0  0  0  0
 41 46  1  0  0  0  0
 42 43  2  0  0  0  0
 44 41  1  0  0  0  0
 44 40  1  0  0  0  0
 45 39  1  0  0  0  0
 46 42  1  0  0  0  0
 46 45  2  0  0  0  0
 47 41  1  0  0  0  0
 47 48  2  0  0  0  0
 49 47  1  0  0  0  0
 50 49  1  0  0  0  0
 51 53  1  0  0  0  0
 52 56  1  0  0  0  0
 53 55  2  0  0  0  0
 54 53  1  0  0  0  0
 54 52  2  0  0  0  0
 55 57  1  0  0  0  0
 56 57  2  0  0  0  0
M  END
>  <MODEL>
4

>  <REMARK>
 VINA RESULT:       0.5      1.916      3.119
  Name = 
  12 active torsions:
  status: ('A' for Active; 'I' for Inactive)
    1  A    between atoms: C_10  and  C_12
    2  A    between atoms: C_12  and  C_23
    3  A    between atoms: O_20  and  C_24
    4  A    between atoms: C_22  and  C_39
    5  A    between atoms: C_23  and  C_31
    6  A    between atoms: C_23  and  C_44
    7  A    between atoms: C_26  and  C_46
    8  A    between atoms: C_26  and  C_48
    9  A    between atoms: C_26  and  N_51
   10  A    between atoms: C_31  and  N_51
   11  A    between atoms: O_33  and  C_39
   12  A    between atoms: C_37  and  C_50
                            x       y       z     vdW  Elec       q    Type
                         _______ _______ _______ _____ _____    ______ ____

>  <TORSDO>
F 12

$$$$
=
 OpenBabel11072414553D

 57 66  0  0  1  0  0  0  0  0999 V2000
  160.5850  208.5850  153.6740 C   0  0  2  0  0  0  0  0  0  0  0  0
  159.3500  208.3730  154.3110 O   0  0  0  0  0  1  0  0  0  0  0  0
  160.4300  207.8840  151.2880 C   0  0  1  0  0  0  0  0  0  0  0  0
  159.5450  206.9430  150.7650 O   0  0  0  0  0  1  0  0  0  0  0  0
  161.9610  209.4580  150.3070 O   0  0  0  0  0  0  0  0  0  0  0  0
  161.8640  207.2920  151.5820 C   0  0  2  0  0  0  0  0  0  0  0  0
  163.1140  207.9490  152.1610 C   0  0  0  0  0  1  0  0  0  0  0  0
  161.6990  206.6160  146.1870 F   0  0  0  0  0  0  0  0  0  0  0  0
  162.9170  206.6520  148.8860 O   0  0  0  0  0  0  0  0  0  0  0  0
  161.3090  205.7160  147.1690 C   0  0  2  0  0  0  0  0  0  0  0  0
  161.7510  207.4360  148.9640 C   0  0  2  0  0  0  0  0  0  0  0  0
  161.5720  208.1050  150.3290 C   0  0  1  0  0  0  0  0  0  0  0  0
  162.3320  209.7330  148.9750 C   0  0  0  0  0  2  0  0  0  0  0  0
  160.8510  206.3060  148.4900 C   0  0  2  0  0  3  0  0  0  0  0  0
  161.8330  208.6300  148.0590 C   0  0  0  0  0  2  0  0  0  0  0  0
  160.7780  207.3990  152.6720 C   0  0  1  0  0  3  0  0  0  0  0  0
  162.1790  205.5510  148.4010 C   0  0  2  0  0  0  0  0  0  0  0  0
  159.6550  202.9490  149.8960 O   0  0  0  0  0  0  0  0  0  0  0  0
  160.1130  201.3990  148.1470 N   0  0  0  0  0  0  0  0  0  0  0  0
  162.1410  203.3840  151.3800 F   0  0  0  0  0  0  0  0  0  0  0  0
  161.5990  203.0540  148.3890 C   0  0  0  0  0  0  0  0  0  0  0  0
  162.2280  204.1960  149.1270 C   0  0  2  0  0  3  0  0  0  0  0  0
  162.1370  202.3530  147.4560 N   0  0  0  0  0  0  0  0  0  0  0  0
  160.0570  204.1830  150.5030 C   0  0  0  0  0  2  0  0  0  0  0  0
  161.5970  204.3310  150.5310 C   0  0  1  0  0  3  0  0  0  0  0  0
  161.2050  201.2530  147.1770 C   0  0  0  0  0  2  0  0  0  0  0  0
  160.3830  202.4600  148.8160 C   0  0  0  0  0  0  0  0  0  0  0  0
  160.5430  204.6080  146.7800 O   0  0  0  0  0  0  0  0  0  0  0  0
  160.4790  204.6460  145.3830 C   0  0  0  0  0  1  0  0  0  0  0  0
  160.9310  207.6970  157.1650 C   0  0  0  0  0  2  0  0  0  0  0  0
  161.3910  207.3350  155.7330 C   0  0  0  0  0  2  0  0  0  0  0  0
  160.2810  208.9950  157.2400 N   0  0  0  0  0  0  0  0  0  0  0  0
  162.2780  211.0670  154.9110 C   0  0  0  0  0  1  0  0  0  0  0  0
  160.7230  210.0090  156.5790 C   0  0  0  0  0  3  0  0  0  0  0  0
  161.8800  209.8110  155.6560 C   0  0  1  0  0  3  0  0  0  0  0  0
  161.6590  208.5450  154.8020 C   0  0  2  0  0  3  0  0  0  0  0  0
  160.6200  209.9070  153.0170 N   0  0  0  0  0  2  0  0  0  0  0  0
  159.3350  210.3190  152.4570 C   0  0  0  0  0  2  0  0  0  0  0  0
  159.2140  211.8330  152.5170 C   0  0  1  0  0  3  0  0  0  0  0  0
  155.8810  214.4280  154.0370 O   0  0  0  0  0  0  0  0  0  0  0  0
  157.4630  213.5550  155.5810 C   0  0  2  0  0  3  0  0  0  0  0  0
  156.7670  213.6580  153.3180 C   0  0  0  0  0  0  0  0  0  0  0  0
  156.6830  213.4930  152.0730 O   0  0  0  0  0  0  0  0  0  0  0  0
  156.2130  214.4450  155.4220 C   0  0  0  0  0  2  0  0  0  0  0  0
  158.8240  212.3210  153.8860 C   0  0  0  0  0  3  0  0  0  0  0  0
  157.7700  213.0900  154.1940 C   0  0  0  0  0  0  0  0  0  0  0  0
  157.1620  212.4010  156.4840 C   0  0  0  0  0  0  0  0  0  0  0  0
  158.0600  211.9760  157.2590 O   0  0  0  0  0  0  0  0  0  0  0  0
  155.9040  211.7960  156.4530 O   0  0  0  0  0  0  0  0  0  0  0  0
  155.6330  210.6730  155.6270 C   0  0  0  0  0  1  0  0  0  0  0  0
  160.4770  212.5040  151.9880 C   0  0  0  0  0  2  0  0  0  0  0  0
  158.8640  214.2910  149.0770 C   0  0  0  0  0  3  0  0  0  0  0  0
  160.2510  213.0820  150.6330 C   0  0  0  0  0  0  0  0  0  0  0  0
  159.0730  213.7820  150.3590 C   0  0  0  0  0  3  0  0  0  0  0  0
  161.2000  212.8980  149.6230 C   0  0  0  0  0  3  0  0  0  0  0  0
  159.8010  214.1050  148.1080 N   0  0  0  0  0  0  0  0  0  0  0  0
  160.9540  213.4250  148.3540 C   0  0  0  0  0  3  0  0  0  0  0  0
  1  2  1  1  0  0  0
  1 36  1  0  0  0  0
  3  4  1  6  0  0  0
  3  6  1  0  0  0  0
  3 16  1  0  0  0  0
  6  7  1  1  0  0  0
  6 16  1  0  0  0  0
  9 11  1  0  0  0  0
 10  8  1  6  0  0  0
 10 17  1  0  0  0  0
 10 14  1  0  0  0  0
 11 15  1  6  0  0  0
 11 12  1  0  0  0  0
 12  5  1  1  0  0  0
 12  3  1  0  0  0  0
 12  6  1  0  0  0  0
 13  5  1  0  0  0  0
 14 11  1  0  0  0  0
 15 13  1  0  0  0  0
 16  1  1  0  0  0  0
 17 14  1  0  0  0  0
 17  9  1  0  0  0  0
 17 22  1  0  0  0  0
 18 24  1  0  0  0  0
 19 27  2  0  0  0  0
 21 27  1  0  0  0  0
 21 22  1  0  0  0  0
 22 25  1  0  0  0  0
 23 21  2  0  0  0  0
 24 25  1  0  0  0  0
 25 20  1  0  0  0  0
 26 23  1  0  0  0  0
 26 19  1  0  0  0  0
 27 18  1  0  0  0  0
 28 10  1  0  0  0  0
 29 28  1  0  0  0  0
 30 32  1  0  0  0  0
 31 30  1  0  0  0  0
 33 35  1  0  0  0  0
 34 32  2  0  0  0  0
 35 34  1  0  0  0  0
 36 35  1  0  0  0  0
 36 31  1  0  0  0  0
 37  1  1  0  0  0  0
 38 39  1  0  0  0  0
 38 37  1  0  0  0  0
 39 45  1  0  0  0  0
 40 44  1  0  0  0  0
 41 47  1  0  0  0  0
 42 40  1  0  0  0  0
 42 46  1  0  0  0  0
 43 42  2  0  0  0  0
 44 41  1  0  0  0  0
 45 46  2  0  0  0  0
 46 41  1  0  0  0  0
 47 48  2  0  0  0  0
 49 47  1  0  0  0  0
 50 49  1  0  0  0  0
 51 39  1  0  0  0  0
 52 54  1  0  0  0  0
 53 51  1  0  0  0  0
 54 53  2  0  0  0  0
 55 53  1  0  0  0  0
 56 57  1  0  0  0  0
 56 52  2  0  0  0  0
 57 55  2  0  0  0  0
M  END
>  <MODEL>
5

>  <REMARK>
 VINA RESULT:       1.1      2.217      4.174
  Name = 
  12 active torsions:
  status: ('A' for Active; 'I' for Inactive)
    1  A    between atoms: C_10  and  C_12
    2  A    between atoms: C_12  and  C_23
    3  A    between atoms: O_20  and  C_24
    4  A    between atoms: C_22  and  C_39
    5  A    between atoms: C_23  and  C_31
    6  A    between atoms: C_23  and  C_44
    7  A    between atoms: C_26  and  C_46
    8  A    between atoms: C_26  and  C_48
    9  A    between atoms: C_26  and  N_51
   10  A    between atoms: C_31  and  N_51
   11  A    between atoms: O_33  and  C_39
   12  A    between atoms: C_37  and  C_50
                            x       y       z     vdW  Elec       q    Type
                         _______ _______ _______ _____ _____    ______ ____

>  <TORSDO>
F 12

$$$$
=
 OpenBabel11072414553D

 57 66  0  0  1  0  0  0  0  0999 V2000
  162.0090  210.9350  149.5930 C   0  0  2  0  0  0  0  0  0  0  0  0
  163.2100  211.0130  150.3180 O   0  0  0  0  0  1  0  0  0  0  0  0
  162.4230  208.6490  150.4930 C   0  0  1  0  0  0  0  0  0  0  0  0
  163.0920  207.6180  149.8380 O   0  0  0  0  0  1  0  0  0  0  0  0
  161.6170  208.9500  152.7390 O   0  0  0  0  0  0  0  0  0  0  0  0
  160.8520  208.5420  150.3780 C   0  0  2  0  0  0  0  0  0  0  0  0
  159.7480  209.4460  150.9200 C   0  0  0  0  0  1  0  0  0  0  0  0
  161.8670  203.9600  153.1280 F   0  0  0  0  0  0  0  0  0  0  0  0
  160.2070  206.0950  151.9230 O   0  0  0  0  0  0  0  0  0  0  0  0
  161.7900  204.1260  151.7530 C   0  0  2  0  0  0  0  0  0  0  0  0
  161.5070  206.6190  152.0390 C   0  0  2  0  0  0  0  0  0  0  0  0
  161.5980  208.0900  151.6250 C   0  0  1  0  0  0  0  0  0  0  0  0
  161.6050  208.1150  153.8740 C   0  0  0  0  0  2  0  0  0  0  0  0
  162.1290  205.5040  151.2140 C   0  0  2  0  0  3  0  0  0  0  0  0
  161.9420  206.6900  153.4750 C   0  0  0  0  0  2  0  0  0  0  0  0
  161.6900  209.4130  149.4210 C   0  0  1  0  0  3  0  0  0  0  0  0
  160.6870  204.9950  151.1790 C   0  0  2  0  0  0  0  0  0  0  0  0
  162.0390  204.0350  147.6260 O   0  0  0  0  0  0  0  0  0  0  0  0
  161.2160  201.8110  147.8390 N   0  0  0  0  0  0  0  0  0  0  0  0
  159.7450  205.8520  147.7230 F   0  0  0  0  0  0  0  0  0  0  0  0
  160.3740  203.2990  149.2830 C   0  0  0  0  0  0  0  0  0  0  0  0
  160.1190  204.6880  149.7830 C   0  0  2  0  0  3  0  0  0  0  0  0
  159.7020  202.2420  149.5730 N   0  0  0  0  0  0  0  0  0  0  0  0
  162.0390  205.3460  148.2060 C   0  0  0  0  0  2  0  0  0  0  0  0
  160.6460  205.7230  148.7640 C   0  0  1  0  0  3  0  0  0  0  0  0
  160.2200  201.1740  148.7090 C   0  0  0  0  0  2  0  0  0  0  0  0
  161.2750  203.0360  148.2180 C   0  0  0  0  0  0  0  0  0  0  0  0
  162.2750  203.0940  150.9360 O   0  0  0  0  0  0  0  0  0  0  0  0
  162.3220  201.9490  151.7380 C   0  0  0  0  0  1  0  0  0  0  0  0
  163.4750  213.9390  148.2080 C   0  0  0  0  0  2  0  0  0  0  0  0
  163.6250  212.4010  148.2940 C   0  0  0  0  0  2  0  0  0  0  0  0
  162.1700  214.4070  148.6450 N   0  0  0  0  0  0  0  0  0  0  0  0
  159.8700  211.8280  147.3160 C   0  0  0  0  0  1  0  0  0  0  0  0
  161.0900  213.7740  148.3370 C   0  0  0  0  0  3  0  0  0  0  0  0
  161.2040  212.4910  147.5830 C   0  0  1  0  0  3  0  0  0  0  0  0
  162.2980  211.6050  148.2170 C   0  0  2  0  0  3  0  0  0  0  0  0
  160.9300  211.6760  150.2770 N   0  0  0  0  0  2  0  0  0  0  0  0
  161.1640  211.8670  151.7070 C   0  0  0  0  0  2  0  0  0  0  0  0
  159.9070  212.4180  152.3610 C   0  0  1  0  0  3  0  0  0  0  0  0
  156.9120  211.2780  155.5050 O   0  0  0  0  0  0  0  0  0  0  0  0
  159.1000  211.9220  156.1720 C   0  0  2  0  0  3  0  0  0  0  0  0
  157.6230  211.5480  154.3570 C   0  0  0  0  0  0  0  0  0  0  0  0
  157.1320  211.4440  153.2030 O   0  0  0  0  0  0  0  0  0  0  0  0
  157.7080  211.4810  156.6680 C   0  0  0  0  0  2  0  0  0  0  0  0
  159.9630  212.3360  153.8630 C   0  0  0  0  0  3  0  0  0  0  0  0
  158.9740  211.9530  154.6830 C   0  0  0  0  0  0  0  0  0  0  0  0
  160.1390  210.9370  156.6060 C   0  0  0  0  0  0  0  0  0  0  0  0
  159.8630  209.7080  156.5950 O   0  0  0  0  0  0  0  0  0  0  0  0
  161.3920  211.3820  157.0340 O   0  0  0  0  0  0  0  0  0  0  0  0
  162.5860  211.0170  156.3580 C   0  0  0  0  0  1  0  0  0  0  0  0
  159.5990  213.8230  151.8570 C   0  0  0  0  0  2  0  0  0  0  0  0
  155.8820  214.4510  151.6140 C   0  0  0  0  0  3  0  0  0  0  0  0
  158.2120  213.9100  151.3190 C   0  0  0  0  0  0  0  0  0  0  0  0
  157.1810  214.4040  152.1220 C   0  0  0  0  0  3  0  0  0  0  0  0
  157.9310  213.4660  150.0240 C   0  0  0  0  0  3  0  0  0  0  0  0
  155.6290  214.0180  150.3490 N   0  0  0  0  0  0  0  0  0  0  0  0
  156.6190  213.5310  149.5520 C   0  0  0  0  0  3  0  0  0  0  0  0
  1 37  1  0  0  0  0
  1  2  1  1  0  0  0
  3  4  1  6  0  0  0
  3 12  1  0  0  0  0
  5 13  1  0  0  0  0
  6  3  1  0  0  0  0
  6  7  1  1  0  0  0
  6 12  1  0  0  0  0
  9 11  1  0  0  0  0
 10  8  1  1  0  0  0
 11 15  1  1  0  0  0
 12 11  1  0  0  0  0
 12  5  1  1  0  0  0
 14 10  1  0  0  0  0
 14 11  1  0  0  0  0
 15 13  1  0  0  0  0
 16  1  1  0  0  0  0
 16  6  1  0  0  0  0
 16  3  1  0  0  0  0
 17 14  1  0  0  0  0
 17 10  1  0  0  0  0
 17  9  1  0  0  0  0
 18 24  1  0  0  0  0
 18 27  1  0  0  0  0
 19 27  2  0  0  0  0
 19 26  1  0  0  0  0
 20 25  1  0  0  0  0
 21 23  2  0  0  0  0
 21 22  1  0  0  0  0
 22 17  1  0  0  0  0
 24 25  1  0  0  0  0
 25 22  1  0  0  0  0
 26 23  1  0  0  0  0
 27 21  1  0  0  0  0
 28 29  1  0  0  0  0
 28 10  1  0  0  0  0
 30 31  1  0  0  0  0
 30 32  1  0  0  0  0
 33 35  1  0  0  0  0
 34 32  2  0  0  0  0
 35 36  1  0  0  0  0
 35 34  1  0  0  0  0
 36 31  1  0  0  0  0
 36  1  1  0  0  0  0
 37 38  1  0  0  0  0
 38 39  1  0  0  0  0
 39 45  1  0  0  0  0
 40 44  1  0  0  0  0
 41 47  1  0  0  0  0
 41 44  1  0  0  0  0
 42 46  1  0  0  0  0
 42 40  1  0  0  0  0
 43 42  2  0  0  0  0
 45 46  2  0  0  0  0
 46 41  1  0  0  0  0
 47 49  1  0  0  0  0
 48 47  2  0  0  0  0
 50 49  1  0  0  0  0
 51 39  1  0  0  0  0
 52 54  1  0  0  0  0
 53 51  1  0  0  0  0
 53 54  2  0  0  0  0
 55 53  1  0  0  0  0
 56 52  2  0  0  0  0
 57 55  2  0  0  0  0
 57 56  1  0  0  0  0
M  END
>  <MODEL>
6

>  <REMARK>
 VINA RESULT:       1.2      2.371      5.799
  Name = 
  12 active torsions:
  status: ('A' for Active; 'I' for Inactive)
    1  A    between atoms: C_10  and  C_12
    2  A    between atoms: C_12  and  C_23
    3  A    between atoms: O_20  and  C_24
    4  A    between atoms: C_22  and  C_39
    5  A    between atoms: C_23  and  C_31
    6  A    between atoms: C_23  and  C_44
    7  A    between atoms: C_26  and  C_46
    8  A    between atoms: C_26  and  C_48
    9  A    between atoms: C_26  and  N_51
   10  A    between atoms: C_31  and  N_51
   11  A    between atoms: O_33  and  C_39
   12  A    between atoms: C_37  and  C_50
                            x       y       z     vdW  Elec       q    Type
                         _______ _______ _______ _____ _____    ______ ____

>  <TORSDO>
F 12

$$$$
=
 OpenBabel11072414553D

 57 66  0  0  1  0  0  0  0  0999 V2000
  160.2890  210.5220  153.8290 C   0  0  2  0  0  0  0  0  0  0  0  0
  158.9440  210.3660  154.2050 O   0  0  0  0  0  1  0  0  0  0  0  0
  160.3580  209.2130  151.7090 C   0  0  1  0  0  0  0  0  0  0  0  0
  159.6720  208.0280  151.4530 O   0  0  0  0  0  1  0  0  0  0  0  0
  161.6330  210.7280  150.3440 O   0  0  0  0  0  0  0  0  0  0  0  0
  161.8590  208.9820  152.1400 C   0  0  2  0  0  0  0  0  0  0  0  0
  162.9510  209.9780  152.5210 C   0  0  0  0  0  1  0  0  0  0  0  0
  162.0410  206.9210  147.1100 F   0  0  0  0  0  0  0  0  0  0  0  0
  163.1200  207.8680  149.6990 O   0  0  0  0  0  0  0  0  0  0  0  0
  161.7720  206.2500  148.2940 C   0  0  2  0  0  0  0  0  0  0  0  0
  161.8330  208.4250  149.5760 C   0  0  2  0  0  0  0  0  0  0  0  0
  161.4840  209.3800  150.7200 C   0  0  1  0  0  0  0  0  0  0  0  0
  162.0060  210.7130  148.9840 C   0  0  0  0  0  2  0  0  0  0  0  0
  161.1630  207.0700  149.4180 C   0  0  2  0  0  3  0  0  0  0  0  0
  161.7450  209.3400  148.3900 C   0  0  0  0  0  2  0  0  0  0  0  0
  160.7260  209.1720  153.1700 C   0  0  1  0  0  3  0  0  0  0  0  0
  162.6040  206.5660  149.5220 C   0  0  2  0  0  0  0  0  0  0  0  0
  161.0620  205.3900  152.9300 O   0  0  0  0  0  0  0  0  0  0  0  0
  160.1640  203.4280  151.9240 N   0  0  0  0  0  0  0  0  0  0  0  0
  163.9770  205.2670  152.6840 F   0  0  0  0  0  0  0  0  0  0  0  0
  161.7460  204.4840  150.7460 C   0  0  0  0  0  0  0  0  0  0  0  0
  162.8560  205.4750  150.5760 C   0  0  2  0  0  3  0  0  0  0  0  0
  161.5200  203.4510  150.0160 N   0  0  0  0  0  0  0  0  0  0  0  0
  161.9290  206.5150  152.7370 C   0  0  0  0  0  2  0  0  0  0  0  0
  163.1950  206.1280  151.9350 C   0  0  1  0  0  3  0  0  0  0  0  0
  160.4430  202.7040  150.6790 C   0  0  0  0  0  2  0  0  0  0  0  0
  160.9350  204.4540  151.9100 C   0  0  0  0  0  0  0  0  0  0  0  0
  161.2260  204.9610  148.2110 O   0  0  0  0  0  0  0  0  0  0  0  0
  161.2520  204.6110  146.8570 C   0  0  0  0  0  1  0  0  0  0  0  0
  161.8970  208.7110  156.5170 C   0  0  0  0  0  2  0  0  0  0  0  0
  162.1500  209.6810  155.3380 C   0  0  0  0  0  2  0  0  0  0  0  0
  160.4910  208.6040  156.8710 N   0  0  0  0  0  0  0  0  0  0  0  0
  159.2660  212.0760  156.4910 C   0  0  0  0  0  1  0  0  0  0  0  0
  159.7200  209.6360  156.8910 C   0  0  0  0  0  3  0  0  0  0  0  0
  160.2780  210.9520  156.4600 C   0  0  1  0  0  3  0  0  0  0  0  0
  161.0740  210.7800  155.1480 C   0  0  2  0  0  3  0  0  0  0  0  0
  160.4540  211.6820  152.9300 N   0  0  0  0  0  2  0  0  0  0  0  0
  160.0240  212.9480  153.5190 C   0  0  0  0  0  2  0  0  0  0  0  0
  158.6100  213.2690  153.0620 C   0  0  1  0  0  3  0  0  0  0  0  0
  154.2450  214.2780  153.3510 O   0  0  0  0  0  0  0  0  0  0  0  0
  155.4870  213.9320  155.3480 C   0  0  2  0  0  3  0  0  0  0  0  0
  155.5320  213.9630  152.9790 C   0  0  0  0  0  0  0  0  0  0  0  0
  155.9030  213.8890  151.7780 O   0  0  0  0  0  0  0  0  0  0  0  0
  154.1050  214.2980  154.7680 C   0  0  0  0  0  2  0  0  0  0  0  0
  157.6640  213.4530  154.2180 C   0  0  0  0  0  3  0  0  0  0  0  0
  156.3560  213.7400  154.1480 C   0  0  0  0  0  0  0  0  0  0  0  0
  155.3910  212.6750  156.1540 C   0  0  0  0  0  0  0  0  0  0  0  0
  154.7600  212.6900  157.2440 O   0  0  0  0  0  0  0  0  0  0  0  0
  156.0110  211.5060  155.7050 O   0  0  0  0  0  0  0  0  0  0  0  0
  155.2630  210.3550  155.3420 C   0  0  0  0  0  1  0  0  0  0  0  0
  158.6020  214.4510  152.0990 C   0  0  0  0  0  2  0  0  0  0  0  0
  160.8230  213.7160  149.1330 C   0  0  0  0  0  3  0  0  0  0  0  0
  159.0570  214.0410  150.7400 C   0  0  0  0  0  0  0  0  0  0  0  0
  160.4170  214.0750  150.4190 C   0  0  0  0  0  3  0  0  0  0  0  0
  158.1250  213.6540  149.7730 C   0  0  0  0  0  3  0  0  0  0  0  0
  159.9010  213.3390  148.2060 N   0  0  0  0  0  0  0  0  0  0  0  0
  158.5720  213.3010  148.4980 C   0  0  0  0  0  3  0  0  0  0  0  0
  1  2  1  1  0  0  0
  1 36  1  0  0  0  0
  3  4  1  6  0  0  0
  3  6  1  0  0  0  0
  3 16  1  0  0  0  0
  6  7  1  1  0  0  0
  6 16  1  0  0  0  0
 10  8  1  6  0  0  0
 10 14  1  0  0  0  0
 10 17  1  0  0  0  0
 11 15  1  6  0  0  0
 11  9  1  0  0  0  0
 11 12  1  0  0  0  0
 12  5  1  6  0  0  0
 12  3  1  0  0  0  0
 12  6  1  0  0  0  0
 13  5  1  0  0  0  0
 14 17  1  0  0  0  0
 14 11  1  0  0  0  0
 15 13  1  0  0  0  0
 16  1  1  0  0  0  0
 17  9  1  0  0  0  0
 17 22  1  0  0  0  0
 21 27  1  0  0  0  0
 22 21  1  0  0  0  0
 22 25  1  0  0  0  0
 23 26  1  0  0  0  0
 23 21  2  0  0  0  0
 24 18  1  0  0  0  0
 25 20  1  0  0  0  0
 25 24  1  0  0  0  0
 26 19  1  0  0  0  0
 27 19  2  0  0  0  0
 27 18  1  0  0  0  0
 28 10  1  0  0  0  0
 29 28  1  0  0  0  0
 30 32  1  0  0  0  0
 31 30  1  0  0  0  0
 32 34  2  0  0  0  0
 35 33  1  0  0  0  0
 35 34  1  0  0  0  0
 36 31  1  0  0  0  0
 36 35  1  0  0  0  0
 37 38  1  0  0  0  0
 37  1  1  0  0  0  0
 39 38  1  0  0  0  0
 39 45  1  0  0  0  0
 40 44  1  0  0  0  0
 41 47  1  0  0  0  0
 42 40  1  0  0  0  0
 42 46  1  0  0  0  0
 43 42  2  0  0  0  0
 44 41  1  0  0  0  0
 46 45  2  0  0  0  0
 46 41  1  0  0  0  0
 47 48  2  0  0  0  0
 49 47  1  0  0  0  0
 50 49  1  0  0  0  0
 51 39  1  0  0  0  0
 52 54  1  0  0  0  0
 53 51  1  0  0  0  0
 54 53  2  0  0  0  0
 55 53  1  0  0  0  0
 56 57  1  0  0  0  0
 56 52  2  0  0  0  0
 57 55  2  0  0  0  0
M  END
>  <MODEL>
7

>  <REMARK>
 VINA RESULT:       1.7      2.439      4.759
  Name = 
  12 active torsions:
  status: ('A' for Active; 'I' for Inactive)
    1  A    between atoms: C_10  and  C_12
    2  A    between atoms: C_12  and  C_23
    3  A    between atoms: O_20  and  C_24
    4  A    between atoms: C_22  and  C_39
    5  A    between atoms: C_23  and  C_31
    6  A    between atoms: C_23  and  C_44
    7  A    between atoms: C_26  and  C_46
    8  A    between atoms: C_26  and  C_48
    9  A    between atoms: C_26  and  N_51
   10  A    between atoms: C_31  and  N_51
   11  A    between atoms: O_33  and  C_39
   12  A    between atoms: C_37  and  C_50
                            x       y       z     vdW  Elec       q    Type
                         _______ _______ _______ _____ _____    ______ ____

>  <TORSDO>
F 12

$$$$
=
 OpenBabel11072414553D

 57 66  0  0  1  0  0  0  0  0999 V2000
  160.3900  210.9910  153.0060 C   0  0  2  0  0  0  0  0  0  0  0  0
  158.9940  211.0430  153.1630 O   0  0  0  0  0  1  0  0  0  0  0  0
  160.4840  209.1380  151.3430 C   0  0  1  0  0  0  0  0  0  0  0  0
  159.7220  207.9720  151.3680 O   0  0  0  0  0  1  0  0  0  0  0  0
  161.9590  210.1300  149.7220 O   0  0  0  0  0  0  0  0  0  0  0  0
  161.9320  208.9480  151.9420 C   0  0  2  0  0  0  0  0  0  0  0  0
  163.0750  209.9430  152.1230 C   0  0  0  0  0  1  0  0  0  0  0  0
  162.2590  205.5500  147.7070 F   0  0  0  0  0  0  0  0  0  0  0  0
  163.2480  207.1200  150.0150 O   0  0  0  0  0  0  0  0  0  0  0  0
  161.8640  205.2560  149.0040 C   0  0  2  0  0  0  0  0  0  0  0  0
  162.0210  207.6950  149.6380 C   0  0  2  0  0  0  0  0  0  0  0  0
  161.6790  208.9520  150.4420 C   0  0  1  0  0  0  0  0  0  0  0  0
  162.4130  209.7110  148.4550 C   0  0  0  0  0  2  0  0  0  0  0  0
  161.2540  206.3930  149.8050 C   0  0  2  0  0  3  0  0  0  0  0  0
  162.0800  208.2450  148.2420 C   0  0  0  0  0  2  0  0  0  0  0  0
  160.7560  209.4870  152.7830 C   0  0  1  0  0  3  0  0  0  0  0  0
  162.6410  205.8530  150.1620 C   0  0  2  0  0  0  0  0  0  0  0  0
  160.2790  204.8320  153.1200 O   0  0  0  0  0  0  0  0  0  0  0  0
  160.3130  202.5480  152.4470 N   0  0  0  0  0  0  0  0  0  0  0  0
  163.0170  205.5990  153.8170 F   0  0  0  0  0  0  0  0  0  0  0  0
  161.9160  203.8400  151.5730 C   0  0  0  0  0  0  0  0  0  0  0  0
  162.7390  205.0890  151.4930 C   0  0  2  0  0  3  0  0  0  0  0  0
  162.2310  202.6820  151.1110 N   0  0  0  0  0  0  0  0  0  0  0  0
  160.8600  206.1240  152.9090 C   0  0  0  0  0  2  0  0  0  0  0  0
  162.3850  206.0320  152.6650 C   0  0  1  0  0  3  0  0  0  0  0  0
  161.1970  201.7540  151.5860 C   0  0  0  0  0  2  0  0  0  0  0  0
  160.7660  203.7480  152.3970 C   0  0  0  0  0  0  0  0  0  0  0  0
  161.2220  204.0310  149.2360 O   0  0  0  0  0  0  0  0  0  0  0  0
  160.7740  203.5810  147.9890 C   0  0  0  0  0  1  0  0  0  0  0  0
  161.2480  209.8400  156.3280 C   0  0  0  0  0  2  0  0  0  0  0  0
  161.8330  210.4080  155.0120 C   0  0  0  0  0  2  0  0  0  0  0  0
  159.8050  209.9920  156.4180 N   0  0  0  0  0  0  0  0  0  0  0  0
  159.2200  213.3320  154.9320 C   0  0  0  0  0  1  0  0  0  0  0  0
  159.2140  211.0670  156.0230 C   0  0  0  0  0  3  0  0  0  0  0  0
  160.0340  212.1390  155.3860 C   0  0  1  0  0  3  0  0  0  0  0  0
  160.9890  211.5210  154.3420 C   0  0  2  0  0  3  0  0  0  0  0  0
  160.8290  211.8620  151.8980 N   0  0  0  0  0  2  0  0  0  0  0  0
  160.3540  213.2390  152.0100 C   0  0  0  0  0  2  0  0  0  0  0  0
  159.2140  213.4680  151.0300 C   0  0  1  0  0  3  0  0  0  0  0  0
  154.9750  213.9830  149.6450 O   0  0  0  0  0  0  0  0  0  0  0  0
  155.5080  214.4100  151.9220 C   0  0  2  0  0  3  0  0  0  0  0  0
  156.3180  213.7280  149.8020 C   0  0  0  0  0  0  0  0  0  0  0  0
  157.0590  213.3390  148.8620 O   0  0  0  0  0  0  0  0  0  0  0  0
  154.3820  214.4140  150.8670 C   0  0  0  0  0  2  0  0  0  0  0  0
  157.9420  213.8780  151.7220 C   0  0  0  0  0  3  0  0  0  0  0  0
  156.7230  213.9700  151.1710 C   0  0  0  0  0  0  0  0  0  0  0  0
  155.1780  213.4550  153.0250 C   0  0  0  0  0  0  0  0  0  0  0  0
  154.0790  212.8390  152.9960 O   0  0  0  0  0  0  0  0  0  0  0  0
  156.0740  213.2640  154.0790 O   0  0  0  0  0  0  0  0  0  0  0  0
  155.6320  213.1120  155.4200 C   0  0  0  0  0  1  0  0  0  0  0  0
  159.6260  214.4370  149.9280 C   0  0  0  0  0  2  0  0  0  0  0  0
  160.5760  212.2830  146.9730 C   0  0  0  0  0  3  0  0  0  0  0  0
  160.4340  213.7490  148.8810 C   0  0  0  0  0  0  0  0  0  0  0  0
  159.8030  212.9440  147.9280 C   0  0  0  0  0  3  0  0  0  0  0  0
  161.8250  213.8780  148.8690 C   0  0  0  0  0  3  0  0  0  0  0  0
  161.9300  212.4240  146.9750 N   0  0  0  0  0  0  0  0  0  0  0  0
  162.5630  213.2010  147.8960 C   0  0  0  0  0  3  0  0  0  0  0  0
  1  2  1  1  0  0  0
  1 36  1  0  0  0  0
  3  4  1  1  0  0  0
  3  6  1  0  0  0  0
  3 16  1  0  0  0  0
  6  7  1  6  0  0  0
  6 16  1  0  0  0  0
  9 17  1  0  0  0  0
 10  8  1  6  0  0  0
 10 28  1  0  0  0  0
 10 14  1  0  0  0  0
 10 17  1  0  0  0  0
 11 15  1  6  0  0  0
 11 14  1  0  0  0  0
 11  9  1  0  0  0  0
 11 12  1  0  0  0  0
 12  5  1  6  0  0  0
 12  3  1  0  0  0  0
 12  6  1  0  0  0  0
 13  5  1  0  0  0  0
 14 17  1  0  0  0  0
 15 13  1  0  0  0  0
 16  1  1  0  0  0  0
 17 22  1  0  0  0  0
 21 27  1  0  0  0  0
 22 21  1  0  0  0  0
 22 25  1  0  0  0  0
 23 21  2  0  0  0  0
 23 26  1  0  0  0  0
 24 18  1  0  0  0  0
 25 24  1  0  0  0  0
 25 20  1  0  0  0  0
 26 19  1  0  0  0  0
 27 19  2  0  0  0  0
 27 18  1  0  0  0  0
 29 28  1  0  0  0  0
 30 32  1  0  0  0  0
 31 30  1  0  0  0  0
 33 35  1  0  0  0  0
 34 32  2  0  0  0  0
 35 34  1  0  0  0  0
 36 31  1  0  0  0  0
 36 35  1  0  0  0  0
 37 38  1  0  0  0  0
 37  1  1  0  0  0  0
 39 45  1  0  0  0  0
 39 38  1  0  0  0  0
 40 42  1  0  0  0  0
 40 44  1  0  0  0  0
 41 47  1  0  0  0  0
 42 46  1  0  0  0  0
 43 42  2  0  0  0  0
 44 41  1  0  0  0  0
 46 45  2  0  0  0  0
 46 41  1  0  0  0  0
 47 49  1  0  0  0  0
 48 47  2  0  0  0  0
 49 50  1  0  0  0  0
 51 39  1  0  0  0  0
 52 56  2  0  0  0  0
 52 54  1  0  0  0  0
 53 51  1  0  0  0  0
 54 53  2  0  0  0  0
 55 53  1  0  0  0  0
 56 57  1  0  0  0  0
 57 55  2  0  0  0  0
M  END
>  <MODEL>
8

>  <REMARK>
 VINA RESULT:       2.0      2.359      4.505
  Name = 
  12 active torsions:
  status: ('A' for Active; 'I' for Inactive)
    1  A    between atoms: C_10  and  C_12
    2  A    between atoms: C_12  and  C_23
    3  A    between atoms: O_20  and  C_24
    4  A    between atoms: C_22  and  C_39
    5  A    between atoms: C_23  and  C_31
    6  A    between atoms: C_23  and  C_44
    7  A    between atoms: C_26  and  C_46
    8  A    between atoms: C_26  and  C_48
    9  A    between atoms: C_26  and  N_51
   10  A    between atoms: C_31  and  N_51
   11  A    between atoms: O_33  and  C_39
   12  A    between atoms: C_37  and  C_50
                            x       y       z     vdW  Elec       q    Type
                         _______ _______ _______ _____ _____    ______ ____

>  <TORSDO>
F 12

$$$$
=
 OpenBabel11072414553D

 57 66  0  0  1  0  0  0  0  0999 V2000
  160.0210  212.7550  151.1330 C   0  0  2  0  0  0  0  0  0  0  0  0
  161.1590  213.5420  151.3800 O   0  0  0  0  0  1  0  0  0  0  0  0
  160.9290  213.5350  148.9470 C   0  0  1  0  0  0  0  0  0  0  0  0
  160.3250  214.4490  148.0870 O   0  0  0  0  0  1  0  0  0  0  0  0
  163.0960  212.4950  149.0190 O   0  0  0  0  0  0  0  0  0  0  0  0
  160.6720  212.0310  148.5370 C   0  0  2  0  0  0  0  0  0  0  0  0
  161.1230  210.7280  149.1910 C   0  0  0  0  0  1  0  0  0  0  0  0
  163.4490  213.6940  144.1660 F   0  0  0  0  0  0  0  0  0  0  0  0
  162.1240  211.7540  145.9680 O   0  0  0  0  0  0  0  0  0  0  0  0
  162.0750  213.7040  144.3530 C   0  0  2  0  0  0  0  0  0  0  0  0
  162.3630  212.9100  146.7330 C   0  0  2  0  0  0  0  0  0  0  0  0
  161.9750  212.7430  148.2040 C   0  0  1  0  0  0  0  0  0  0  0  0
  164.2170  212.5510  148.1650 C   0  0  0  0  0  2  0  0  0  0  0  0
  161.5840  213.8080  145.7860 C   0  0  2  0  0  3  0  0  0  0  0  0
  163.8320  213.1970  146.8460 C   0  0  0  0  0  2  0  0  0  0  0  0
  159.8040  212.7600  149.5840 C   0  0  1  0  0  3  0  0  0  0  0  0
  161.4140  212.5040  145.0050 C   0  0  2  0  0  0  0  0  0  0  0  0
  158.0990  214.3310  143.9820 O   0  0  0  0  0  0  0  0  0  0  0  0
  158.2860  213.5580  141.7380 N   0  0  0  0  0  0  0  0  0  0  0  0
  157.8370  211.9870  145.7170 F   0  0  0  0  0  0  0  0  0  0  0  0
  159.5560  212.4910  143.2390 C   0  0  0  0  0  0  0  0  0  0  0  0
  159.9690  212.1300  144.6330 C   0  0  2  0  0  3  0  0  0  0  0  0
  159.7970  211.8210  142.1690 N   0  0  0  0  0  0  0  0  0  0  0  0
  158.6260  214.2150  145.3090 C   0  0  0  0  0  2  0  0  0  0  0  0
  158.9890  212.7500  145.6530 C   0  0  1  0  0  3  0  0  0  0  0  0
  159.0440  212.4790  141.0930 C   0  0  0  0  0  2  0  0  0  0  0  0
  158.6250  213.5280  142.9750 C   0  0  0  0  0  0  0  0  0  0  0  0
  161.2930  214.4520  143.4610 O   0  0  0  0  0  0  0  0  0  0  0  0
  161.7710  214.1570  142.1800 C   0  0  0  0  0  1  0  0  0  0  0  0
  158.2290  212.6570  154.2740 C   0  0  0  0  0  2  0  0  0  0  0  0
  159.1430  213.5330  153.3840 C   0  0  0  0  0  2  0  0  0  0  0  0
  157.6660  211.5210  153.5630 N   0  0  0  0  0  0  0  0  0  0  0  0
  156.9070  212.9200  150.2200 C   0  0  0  0  0  1  0  0  0  0  0  0
  157.2410  211.6280  152.3510 C   0  0  0  0  0  3  0  0  0  0  0  0
  157.4110  212.9340  151.6470 C   0  0  1  0  0  3  0  0  0  0  0  0
  158.8440  213.4640  151.8650 C   0  0  2  0  0  3  0  0  0  0  0  0
  160.1900  211.3960  151.6870 N   0  0  0  0  0  2  0  0  0  0  0  0
  161.5700  211.0740  152.0410 C   0  0  0  0  0  2  0  0  0  0  0  0
  161.6390  209.6570  152.5880 C   0  0  1  0  0  3  0  0  0  0  0  0
  161.2600  205.2080  152.1210 O   0  0  0  0  0  0  0  0  0  0  0  0
  162.4980  206.4390  150.5080 C   0  0  2  0  0  3  0  0  0  0  0  0
  161.1960  206.5340  152.4850 C   0  0  0  0  0  0  0  0  0  0  0  0
  160.5720  206.9390  153.5000 O   0  0  0  0  0  0  0  0  0  0  0  0
  162.0340  205.0320  150.9380 C   0  0  0  0  0  2  0  0  0  0  0  0
  162.1490  208.6750  151.5660 C   0  0  0  0  0  3  0  0  0  0  0  0
  161.9350  207.3520  151.5470 C   0  0  0  0  0  0  0  0  0  0  0  0
  161.9610  206.7660  149.1510 C   0  0  0  0  0  0  0  0  0  0  0  0
  162.6480  207.4830  148.3740 O   0  0  0  0  0  0  0  0  0  0  0  0
  160.7070  206.2920  148.7600 O   0  0  0  0  0  0  0  0  0  0  0  0
  160.3600  206.1300  147.3930 C   0  0  0  0  0  1  0  0  0  0  0  0
  162.4250  209.6110  153.8930 C   0  0  0  0  0  2  0  0  0  0  0  0
  159.8370  209.6870  156.6440 C   0  0  0  0  0  3  0  0  0  0  0  0
  161.5910  210.0760  155.0390 C   0  0  0  0  0  0  0  0  0  0  0  0
  160.6290  209.2270  155.5920 C   0  0  0  0  0  3  0  0  0  0  0  0
  161.7450  211.3720  155.5390 C   0  0  0  0  0  3  0  0  0  0  0  0
  160.0030  210.9510  157.1210 N   0  0  0  0  0  0  0  0  0  0  0  0
  160.9330  211.7940  156.5940 C   0  0  0  0  0  3  0  0  0  0  0  0
  1  2  1  1  0  0  0
  1 37  1  0  0  0  0
  1 36  1  0  0  0  0
  3  4  1  6  0  0  0
  3 16  1  0  0  0  0
  6  3  1  0  0  0  0
  6  7  1  1  0  0  0
  6 16  1  0  0  0  0
  9 11  1  0  0  0  0
 10  8  1  6  0  0  0
 10 17  1  0  0  0  0
 10 14  1  0  0  0  0
 11 15  1  6  0  0  0
 11 12  1  0  0  0  0
 12  6  1  0  0  0  0
 12  3  1  0  0  0  0
 12  5  1  1  0  0  0
 13  5  1  0  0  0  0
 14 11  1  0  0  0  0
 15 13  1  0  0  0  0
 16  1  1  0  0  0  0
 17 14  1  0  0  0  0
 17  9  1  0  0  0  0
 18 24  1  0  0  0  0
 19 27  2  0  0  0  0
 21 22  1  0  0  0  0
 22 17  1  0  0  0  0
 22 25  1  0  0  0  0
 23 21  2  0  0  0  0
 24 25  1  0  0  0  0
 25 20  1  0  0  0  0
 26 19  1  0  0  0  0
 26 23  1  0  0  0  0
 27 21  1  0  0  0  0
 27 18  1  0  0  0  0
 28 10  1  0  0  0  0
 29 28  1  0  0  0  0
 31 30  1  0  0  0  0
 32 30  1  0  0  0  0
 33 35  1  0  0  0  0
 34 32  2  0  0  0  0
 35 36  1  0  0  0  0
 35 34  1  0  0  0  0
 36 31  1  0  0  0  0
 37 38  1  0  0  0  0
 38 39  1  0  0  0  0
 39 51  1  0  0  0  0
 40 42  1  0  0  0  0
 41 44  1  0  0  0  0
 41 46  1  0  0  0  0
 42 43  2  0  0  0  0
 44 40  1  0  0  0  0
 45 39  1  0  0  0  0
 46 45  2  0  0  0  0
 46 42  1  0  0  0  0
 47 41  1  0  0  0  0
 48 47  2  0  0  0  0
 49 47  1  0  0  0  0
 50 49  1  0  0  0  0
 51 53  1  0  0  0  0
 52 56  1  0  0  0  0
 53 55  2  0  0  0  0
 53 54  1  0  0  0  0
 54 52  2  0  0  0  0
 55 57  1  0  0  0  0
 57 56  2  0  0  0  0
M  END
>  <MODEL>
9

>  <REMARK>
 VINA RESULT:       2.2      3.520      8.193
  Name = 
  12 active torsions:
  status: ('A' for Active; 'I' for Inactive)
    1  A    between atoms: C_10  and  C_12
    2  A    between atoms: C_12  and  C_23
    3  A    between atoms: O_20  and  C_24
    4  A    between atoms: C_22  and  C_39
    5  A    between atoms: C_23  and  C_31
    6  A    between atoms: C_23  and  C_44
    7  A    between atoms: C_26  and  C_46
    8  A    between atoms: C_26  and  C_48
    9  A    between atoms: C_26  and  N_51
   10  A    between atoms: C_31  and  N_51
   11  A    between atoms: O_33  and  C_39
   12  A    between atoms: C_37  and  C_50
                            x       y       z     vdW  Elec       q    Type
                         _______ _______ _______ _____ _____    ______ ____

>  <TORSDO>
F 12

$$$$
