=
 OpenBabel11072414033D

 62 66  0  0  1  0  0  0  0  0999 V2000
  161.6370  204.4980  148.2520 C   0  0  0  0  0  3  0  0  0  0  0  0
  160.8830  202.8020  149.8480 N   0  0  1  0  0  0  0  0  0  0  0  0
  161.5640  205.1930  147.1170 C   0  0  0  0  0  0  0  0  0  0  0  0
  161.3640  200.5110  149.4250 N   0  0  0  0  0  2  0  0  0  0  0  0
  160.3740  201.4330  149.9610 C   0  0  0  0  0  2  0  0  0  0  0  0
  161.4330  202.0900  147.5170 C   0  0  0  0  0  0  0  0  0  0  0  0
  160.8250  204.5940  145.9480 C   0  0  2  0  0  3  0  0  0  0  0  0
  160.9010  203.1960  148.4270 C   0  0  2  0  0  3  0  0  0  0  0  0
  161.6420  202.2370  146.2340 N   0  0  0  0  0  0  0  0  0  0  0  0
  161.4840  200.7620  148.0480 N   0  0  0  0  0  2  0  0  0  0  0  0
  162.3170  206.4810  147.0260 C   0  0  0  0  0  1  0  0  0  0  0  0
  161.6570  203.4470  145.4000 C   0  0  0  0  0  2  0  0  0  0  0  0
  160.4410  205.7600  144.6450 S   0  0  0  0  0  0  0  0  0  0  0  0
  159.0340  205.5520  144.1570 O   0  0  0  0  0  0  0  0  0  0  0  0
  160.5730  207.1580  145.1830 O   0  0  0  0  0  0  0  0  0  0  0  0
  161.5880  205.5510  143.3020 C   0  0  0  0  0  2  0  0  0  0  0  0
  161.8360  207.7170  140.1410 N   0  0  0  0  0  0  0  0  0  0  0  0
  162.0430  206.6290  141.0660 C   0  0  0  0  0  0  0  0  0  0  0  0
  161.4620  206.6600  142.3710 N   0  0  0  0  0  2  0  0  0  0  0  0
  162.7640  205.6490  140.7310 O   0  0  0  0  0  0  0  0  0  0  0  0
  162.2590  206.6330  137.9860 C   0  0  0  0  0  1  0  0  0  0  0  0
  162.6250  207.7790  138.9140 C   0  0  0  0  0  2  0  0  0  0  0  0
  160.9560  208.8670  140.4050 C   0  0  2  0  0  3  0  0  0  0  0  0
  157.7200  209.2340  137.5590 C   0  0  0  0  0  2  0  0  0  0  0  0
  158.0390  210.4450  138.4390 C   0  0  2  0  0  3  0  0  0  0  0  0
  159.9600  209.1440  139.3160 C   0  0  0  0  0  0  0  0  0  0  0  0
  159.9320  208.3580  138.1160 N   0  0  0  0  0  2  0  0  0  0  0  0
  159.0480  210.1050  139.5020 C   0  0  0  0  0  3  0  0  0  0  0  0
  159.0230  208.6640  137.0140 C   0  0  0  0  0  2  0  0  0  0  0  0
  156.7790  212.4300  139.4920 C   0  0  0  0  0  1  0  0  0  0  0  0
  155.7940  210.3230  139.1820 O   0  0  0  0  0  0  0  0  0  0  0  0
  156.7940  211.0110  139.0440 C   0  0  0  0  0  0  0  0  0  0  0  0
  161.6600  210.1260  140.9440 C   0  0  2  0  0  3  0  0  0  0  0  0
  160.8010  210.9580  141.6380 F   0  0  0  0  0  0  0  0  0  0  0  0
  163.7860  210.5680  139.9470 F   0  0  0  0  0  0  0  0  0  0  0  0
  161.9550  210.6130  138.6210 F   0  0  0  0  0  0  0  0  0  0  0  0
  162.4430  210.8970  139.8840 C   0  0  0  0  0  0  0  0  0  0  0  0
  162.3030  212.2540  140.1190 F   0  0  0  0  0  0  0  0  0  0  0  0
  160.6060  204.7240  151.4270 C   0  0  2  0  0  3  0  0  0  0  0  0
  160.0100  203.4810  152.0510 C   0  0  0  0  0  2  0  0  0  0  0  0
  159.9230  203.6660  150.5440 C   0  0  2  0  0  3  0  0  0  0  0  0
  162.1270  204.6160  151.4930 C   0  0  0  0  0  2  0  0  0  0  0  0
  161.9780  206.3850  153.2350 C   0  0  0  0  0  1  0  0  0  0  0  0
  162.7310  205.9150  152.0030 C   0  0  2  0  0  3  0  0  0  0  0  0
  162.6360  206.9300  150.9650 N   0  0  0  0  0  2  0  0  0  0  0  0
  162.2490  209.3380  149.6050 O   0  0  0  0  0  0  0  0  0  0  0  0
  162.0890  208.0770  151.5590 N   0  0  0  0  0  2  0  0  0  0  0  0
  161.8810  209.2730  150.8090 C   0  0  0  0  0  0  0  0  0  0  0  0
  161.2540  210.4000  151.4160 N   0  0  0  0  0  2  0  0  0  0  0  0
  160.6610  210.3270  152.7400 C   0  0  0  0  0  2  0  0  0  0  0  0
  161.7040  210.6580  153.7880 C   0  0  0  0  0  2  0  0  0  0  0  0
  161.1640  211.5480  154.7270 O   0  0  0  0  0  0  0  0  0  0  0  0
  161.0330  210.8020  155.9000 C   0  0  1  0  0  3  0  0  0  0  0  0
  159.6180  210.2780  156.0330 C   0  0  0  0  0  0  0  0  0  0  0  0
  159.3780  209.0350  156.3580 N   0  0  0  0  0  0  0  0  0  0  0  0
  161.7300  208.6310  156.9300 C   0  0  0  0  0  2  0  0  0  0  0  0
  160.4080  208.0090  156.5160 C   0  0  0  0  0  2  0  0  0  0  0  0
  162.0850  209.6970  155.9090 C   0  0  0  0  0  2  0  0  0  0  0  0
  158.5590  211.1810  155.8700 O   0  0  0  0  0  0  0  0  0  0  0  0
  157.6570  211.4920  156.9250 C   0  0  0  0  0  2  0  0  0  0  0  0
  158.8310  213.6260  156.8500 N   0  0  0  0  0  1  0  0  0  0  0  0
  157.5410  212.9990  157.0850 C   0  0  0  0  0  2  0  0  0  0  0  0
  2  5  1  6  0  0  0
  2 41  1  0  0  0  0
  3  1  2  0  0  0  0
  4  5  1  0  0  0  0
  6 10  1  0  0  0  0
  6  8  1  0  0  0  0
  7 13  1  6  0  0  0
  7  3  1  0  0  0  0
  8  1  1  1  0  0  0
  8  2  1  0  0  0  0
  9  6  2  0  0  0  0
 10  4  1  0  0  0  0
 11  3  1  0  0  0  0
 12  7  1  0  0  0  0
 12  9  1  0  0  0  0
 13 15  2  0  0  0  0
 14 13  2  0  0  0  0
 16 13  1  0  0  0  0
 17 18  1  0  0  0  0
 18 19  1  0  0  0  0
 19 16  1  0  0  0  0
 20 18  2  0  0  0  0
 21 22  1  0  0  0  0
 22 17  1  0  0  0  0
 23 17  1  6  0  0  0
 23 33  1  0  0  0  0
 24 25  1  0  0  0  0
 25 32  1  1  0  0  0
 25 28  1  0  0  0  0
 26 28  2  0  0  0  0
 26 23  1  0  0  0  0
 27 26  1  0  0  0  0
 29 24  1  0  0  0  0
 29 27  1  0  0  0  0
 32 31  2  0  0  0  0
 32 30  1  0  0  0  0
 33 34  1  6  0  0  0
 36 37  1  0  0  0  0
 37 35  1  0  0  0  0
 37 38  1  0  0  0  0
 37 33  1  0  0  0  0
 39 42  1  6  0  0  0
 39 40  1  0  0  0  0
 41 39  1  0  0  0  0
 41 40  1  1  0  0  0
 42 44  1  0  0  0  0
 44 43  1  1  0  0  0
 45 47  1  0  0  0  0
 45 44  1  0  0  0  0
 46 48  2  0  0  0  0
 48 49  1  0  0  0  0
 48 47  1  0  0  0  0
 49 50  1  0  0  0  0
 50 51  1  0  0  0  0
 51 52  1  0  0  0  0
 53 52  1  6  0  0  0
 53 58  1  0  0  0  0
 53 54  1  0  0  0  0
 54 55  2  0  0  0  0
 55 57  1  0  0  0  0
 57 56  1  0  0  0  0
 58 56  1  0  0  0  0
 59 54  1  0  0  0  0
 59 60  1  0  0  0  0
 60 62  1  0  0  0  0
 61 62  1  0  0  0  0
M  END
>  <MODEL>
1

>  <REMARK>
 VINA RESULT:      -2.8      0.000      0.000
  Name = 
  21 active torsions:
  status: ('A' for Active; 'I' for Inactive)
    1  A    between atoms: N_1  and  C_35
    2  A    between atoms: N_1  and  C_62
    3  A    between atoms: C_3  and  N_20
    4  A    between atoms: C_3  and  S_30
    5  A    between atoms: N_4  and  C_29
    6  A    between atoms: C_6  and  O_41
    7  A    between atoms: C_14  and  C_23
    8  A    between atoms: C_15  and  C_62
    9  A    between atoms: C_19  and  C_37
   10  A    between atoms: C_21  and  O_22
   11  A    between atoms: O_22  and  C_53
   12  A    between atoms: C_24  and  S_30
   13  A    between atoms: N_27  and  N_54
   14  A    between atoms: C_37  and  C_38
   15  A    between atoms: C_38  and  N_54
   16  A    between atoms: O_41  and  C_45
   17  A    between atoms: N_42  and  C_43
   18  A    between atoms: C_43  and  C_45
   19  A    between atoms: C_51  and  C_59
   20  A    between atoms: C_51  and  C_62
   21  A    between atoms: C_53  and  C_56
                            x       y       z     vdW  Elec       q    Type
                         _______ _______ _______ _____ _____    ______ ____

>  <TORSDO>
F 21

$$$$
=
 OpenBabel11072414033D

 62 66  0  0  1  0  0  0  0  0999 V2000
  161.6600  204.6200  148.1310 C   0  0  0  0  0  3  0  0  0  0  0  0
  160.8810  202.8680  149.6520 N   0  0  1  0  0  0  0  0  0  0  0  0
  161.6080  205.3540  147.0200 C   0  0  0  0  0  0  0  0  0  0  0  0
  161.3780  200.5940  149.1590 N   0  0  0  0  0  2  0  0  0  0  0  0
  160.3750  201.4940  149.7070 C   0  0  0  0  0  2  0  0  0  0  0  0
  161.4790  202.2390  147.3090 C   0  0  0  0  0  0  0  0  0  0  0  0
  160.8930  204.7940  145.8160 C   0  0  2  0  0  3  0  0  0  0  0  0
  160.9260  203.3110  148.2450 C   0  0  2  0  0  3  0  0  0  0  0  0
  161.7130  202.4310  146.0370 N   0  0  0  0  0  0  0  0  0  0  0  0
  161.5240  200.8930  147.7940 N   0  0  0  0  0  2  0  0  0  0  0  0
  162.3580  206.6470  146.9890 C   0  0  0  0  0  1  0  0  0  0  0  0
  161.7400  203.6690  145.2450 C   0  0  0  0  0  2  0  0  0  0  0  0
  160.5310  206.0040  144.5470 S   0  0  0  0  0  0  0  0  0  0  0  0
  159.0860  205.9170  144.1420 O   0  0  0  0  0  0  0  0  0  0  0  0
  160.8090  207.3790  145.0870 O   0  0  0  0  0  0  0  0  0  0  0  0
  161.5770  205.7180  143.1370 C   0  0  0  0  0  2  0  0  0  0  0  0
  161.8600  207.9430  140.0200 N   0  0  0  0  0  0  0  0  0  0  0  0
  161.9950  206.8060  140.8980 C   0  0  0  0  0  0  0  0  0  0  0  0
  161.5250  206.8660  142.2460 N   0  0  0  0  0  2  0  0  0  0  0  0
  162.5540  205.7540  140.4830 O   0  0  0  0  0  0  0  0  0  0  0  0
  162.2400  206.6790  137.9570 C   0  0  0  0  0  1  0  0  0  0  0  0
  162.5540  207.9450  138.7350 C   0  0  0  0  0  2  0  0  0  0  0  0
  161.1610  209.1860  140.3820 C   0  0  2  0  0  3  0  0  0  0  0  0
  157.3950  209.8970  138.3780 C   0  0  0  0  0  2  0  0  0  0  0  0
  158.2670  211.1090  138.7110 C   0  0  2  0  0  3  0  0  0  0  0  0
  159.9750  209.5020  139.5150 C   0  0  0  0  0  0  0  0  0  0  0  0
  159.3750  208.4980  138.6830 N   0  0  0  0  0  2  0  0  0  0  0  0
  159.4400  210.7260  139.5710 C   0  0  0  0  0  3  0  0  0  0  0  0
  158.2720  208.8080  137.7750 C   0  0  0  0  0  2  0  0  0  0  0  0
  157.9730  212.8500  140.5870 C   0  0  0  0  0  1  0  0  0  0  0  0
  156.3830  212.5320  138.8910 O   0  0  0  0  0  0  0  0  0  0  0  0
  157.4600  212.1900  139.3560 C   0  0  0  0  0  0  0  0  0  0  0  0
  162.0700  210.3970  140.6630 C   0  0  2  0  0  3  0  0  0  0  0  0
  163.3750  210.0280  140.9340 F   0  0  0  0  0  0  0  0  0  0  0  0
  160.5010  210.7340  142.4320 F   0  0  0  0  0  0  0  0  0  0  0  0
  162.5340  211.7080  142.6080 F   0  0  0  0  0  0  0  0  0  0  0  0
  161.5280  211.3420  141.7310 C   0  0  0  0  0  0  0  0  0  0  0  0
  161.0370  212.4820  141.1170 F   0  0  0  0  0  0  0  0  0  0  0  0
  160.5650  204.7290  151.2950 C   0  0  2  0  0  3  0  0  0  0  0  0
  159.9570  203.4630  151.8590 C   0  0  0  0  0  2  0  0  0  0  0  0
  159.9040  203.7030  150.3580 C   0  0  2  0  0  3  0  0  0  0  0  0
  162.0840  204.6200  151.3900 C   0  0  0  0  0  2  0  0  0  0  0  0
  161.7470  206.3210  153.1730 C   0  0  0  0  0  1  0  0  0  0  0  0
  162.6650  205.8570  152.0570 C   0  0  2  0  0  3  0  0  0  0  0  0
  162.7970  206.9190  151.0710 N   0  0  0  0  0  2  0  0  0  0  0  0
  162.0870  209.1990  149.6240 O   0  0  0  0  0  0  0  0  0  0  0  0
  162.3150  208.0950  151.6650 N   0  0  0  0  0  2  0  0  0  0  0  0
  161.9340  209.2210  150.8760 C   0  0  0  0  0  0  0  0  0  0  0  0
  161.3780  210.3770  151.4980 N   0  0  0  0  0  2  0  0  0  0  0  0
  161.0250  210.3950  152.9070 C   0  0  0  0  0  2  0  0  0  0  0  0
  160.4080  211.7320  153.2640 C   0  0  0  0  0  2  0  0  0  0  0  0
  159.0190  211.6720  153.0900 O   0  0  0  0  0  0  0  0  0  0  0  0
  158.4850  212.2780  154.2300 C   0  0  1  0  0  3  0  0  0  0  0  0
  157.3610  213.2180  153.8460 C   0  0  0  0  0  0  0  0  0  0  0  0
  156.2230  213.2200  154.4880 N   0  0  0  0  0  0  0  0  0  0  0  0
  157.1110  211.7720  156.2590 C   0  0  0  0  0  2  0  0  0  0  0  0
  155.8690  212.2720  155.5430 C   0  0  0  0  0  2  0  0  0  0  0  0
  158.0510  211.1960  155.2140 C   0  0  0  0  0  2  0  0  0  0  0  0
  157.5950  214.1470  152.8240 O   0  0  0  0  0  0  0  0  0  0  0  0
  156.8280  214.1710  151.6270 C   0  0  0  0  0  2  0  0  0  0  0  0
  159.0700  213.9620  150.6970 N   0  0  0  0  0  1  0  0  0  0  0  0
  157.7270  214.4530  150.4350 C   0  0  0  0  0  2  0  0  0  0  0  0
  2  5  1  6  0  0  0
  2 41  1  0  0  0  0
  3  1  2  0  0  0  0
  4  5  1  0  0  0  0
  6 10  1  0  0  0  0
  6  8  1  0  0  0  0
  7 13  1  6  0  0  0
  7  3  1  0  0  0  0
  8  1  1  1  0  0  0
  8  2  1  0  0  0  0
  9  6  2  0  0  0  0
 10  4  1  0  0  0  0
 11  3  1  0  0  0  0
 12  7  1  0  0  0  0
 12  9  1  0  0  0  0
 13 15  2  0  0  0  0
 14 13  2  0  0  0  0
 16 13  1  0  0  0  0
 17 18  1  0  0  0  0
 18 19  1  0  0  0  0
 19 16  1  0  0  0  0
 20 18  2  0  0  0  0
 21 22  1  0  0  0  0
 22 17  1  0  0  0  0
 23 17  1  6  0  0  0
 23 33  1  0  0  0  0
 24 25  1  0  0  0  0
 25 32  1  1  0  0  0
 25 28  1  0  0  0  0
 26 28  2  0  0  0  0
 26 23  1  0  0  0  0
 27 26  1  0  0  0  0
 29 24  1  0  0  0  0
 29 27  1  0  0  0  0
 31 32  2  0  0  0  0
 32 30  1  0  0  0  0
 33 34  1  1  0  0  0
 33 37  1  0  0  0  0
 37 35  1  0  0  0  0
 37 36  1  0  0  0  0
 38 37  1  0  0  0  0
 39 42  1  6  0  0  0
 39 40  1  0  0  0  0
 41 39  1  0  0  0  0
 41 40  1  1  0  0  0
 42 44  1  0  0  0  0
 44 43  1  1  0  0  0
 45 47  1  0  0  0  0
 45 44  1  0  0  0  0
 46 48  2  0  0  0  0
 48 49  1  0  0  0  0
 48 47  1  0  0  0  0
 49 50  1  0  0  0  0
 50 51  1  0  0  0  0
 52 51  1  0  0  0  0
 53 52  1  6  0  0  0
 53 58  1  0  0  0  0
 54 53  1  0  0  0  0
 54 55  2  0  0  0  0
 55 57  1  0  0  0  0
 57 56  1  0  0  0  0
 58 56  1  0  0  0  0
 59 54  1  0  0  0  0
 60 59  1  0  0  0  0
 62 61  1  0  0  0  0
 62 60  1  0  0  0  0
M  END
>  <MODEL>
2

>  <REMARK>
 VINA RESULT:      -2.2      1.682      2.434
  Name = 
  21 active torsions:
  status: ('A' for Active; 'I' for Inactive)
    1  A    between atoms: N_1  and  C_35
    2  A    between atoms: N_1  and  C_62
    3  A    between atoms: C_3  and  N_20
    4  A    between atoms: C_3  and  S_30
    5  A    between atoms: N_4  and  C_29
    6  A    between atoms: C_6  and  O_41
    7  A    between atoms: C_14  and  C_23
    8  A    between atoms: C_15  and  C_62
    9  A    between atoms: C_19  and  C_37
   10  A    between atoms: C_21  and  O_22
   11  A    between atoms: O_22  and  C_53
   12  A    between atoms: C_24  and  S_30
   13  A    between atoms: N_27  and  N_54
   14  A    between atoms: C_37  and  C_38
   15  A    between atoms: C_38  and  N_54
   16  A    between atoms: O_41  and  C_45
   17  A    between atoms: N_42  and  C_43
   18  A    between atoms: C_43  and  C_45
   19  A    between atoms: C_51  and  C_59
   20  A    between atoms: C_51  and  C_62
   21  A    between atoms: C_53  and  C_56
                            x       y       z     vdW  Elec       q    Type
                         _______ _______ _______ _____ _____    ______ ____

>  <TORSDO>
F 21

$$$$
=
 OpenBabel11072414033D

 62 66  0  0  1  0  0  0  0  0999 V2000
  161.7210  204.5320  148.1750 C   0  0  0  0  0  3  0  0  0  0  0  0
  160.7950  202.6610  149.4520 N   0  0  1  0  0  0  0  0  0  0  0  0
  161.7800  205.3590  147.1320 C   0  0  0  0  0  0  0  0  0  0  0  0
  161.3460  200.4350  148.8200 N   0  0  0  0  0  2  0  0  0  0  0  0
  160.2900  201.2910  149.3370 C   0  0  0  0  0  2  0  0  0  0  0  0
  161.6320  202.2310  147.1370 C   0  0  0  0  0  0  0  0  0  0  0  0
  161.1940  204.9090  145.8180 C   0  0  2  0  0  3  0  0  0  0  0  0
  160.9820  203.2220  148.1010 C   0  0  2  0  0  3  0  0  0  0  0  0
  161.9940  202.5300  145.9170 N   0  0  0  0  0  0  0  0  0  0  0  0
  161.6310  200.8480  147.5070 N   0  0  0  0  0  2  0  0  0  0  0  0
  162.5260  206.6450  147.2880 C   0  0  0  0  0  1  0  0  0  0  0  0
  162.0990  203.8310  145.2410 C   0  0  0  0  0  2  0  0  0  0  0  0
  160.9600  206.2250  144.6270 S   0  0  0  0  0  0  0  0  0  0  0  0
  159.5620  206.7710  144.7220 O   0  0  0  0  0  0  0  0  0  0  0  0
  161.9400  207.3270  144.9160 O   0  0  0  0  0  0  0  0  0  0  0  0
  161.2610  205.6040  142.9870 C   0  0  0  0  0  2  0  0  0  0  0  0
  162.0780  207.7080  139.8800 N   0  0  0  0  0  0  0  0  0  0  0  0
  162.0690  206.6120  140.8200 C   0  0  0  0  0  0  0  0  0  0  0  0
  161.3530  206.7130  142.0510 N   0  0  0  0  0  2  0  0  0  0  0  0
  162.7200  205.5610  140.5640 O   0  0  0  0  0  0  0  0  0  0  0  0
  162.4470  206.8150  137.6300 C   0  0  0  0  0  1  0  0  0  0  0  0
  163.0020  207.6790  138.7500 C   0  0  0  0  0  2  0  0  0  0  0  0
  161.2960  208.9430  140.0480 C   0  0  2  0  0  3  0  0  0  0  0  0
  157.8440  209.4010  137.4820 C   0  0  0  0  0  2  0  0  0  0  0  0
  158.6700  210.6490  137.7980 C   0  0  2  0  0  3  0  0  0  0  0  0
  160.2420  209.1530  138.9980 C   0  0  0  0  0  0  0  0  0  0  0  0
  159.7550  208.0610  138.2050 N   0  0  0  0  0  2  0  0  0  0  0  0
  159.7120  210.3720  138.8480 C   0  0  0  0  0  3  0  0  0  0  0  0
  158.7890  208.2610  137.1270 C   0  0  0  0  0  2  0  0  0  0  0  0
  156.5500  212.0660  137.4320 C   0  0  0  0  0  1  0  0  0  0  0  0
  158.0780  212.4930  139.1600 O   0  0  0  0  0  0  0  0  0  0  0  0
  157.7900  211.7870  138.2060 C   0  0  0  0  0  0  0  0  0  0  0  0
  162.1160  210.2050  140.3710 C   0  0  2  0  0  3  0  0  0  0  0  0
  163.4050  209.9100  140.7760 F   0  0  0  0  0  0  0  0  0  0  0  0
  160.3090  210.5530  141.8930 F   0  0  0  0  0  0  0  0  0  0  0  0
  162.3010  211.5090  142.3670 F   0  0  0  0  0  0  0  0  0  0  0  0
  161.4310  211.1540  141.3510 C   0  0  0  0  0  0  0  0  0  0  0  0
  161.0460  212.2980  140.6750 F   0  0  0  0  0  0  0  0  0  0  0  0
  160.3180  204.5590  151.0120 C   0  0  2  0  0  3  0  0  0  0  0  0
  159.8220  203.2710  151.6340 C   0  0  0  0  0  2  0  0  0  0  0  0
  159.7490  203.4390  150.1240 C   0  0  2  0  0  3  0  0  0  0  0  0
  161.8410  204.5870  151.1070 C   0  0  0  0  0  2  0  0  0  0  0  0
  161.1280  206.4780  152.5570 C   0  0  0  0  0  1  0  0  0  0  0  0
  162.3040  205.8320  151.8470 C   0  0  2  0  0  3  0  0  0  0  0  0
  162.8680  206.7760  150.8950 N   0  0  0  0  0  2  0  0  0  0  0  0
  162.1450  208.8740  149.2010 O   0  0  0  0  0  0  0  0  0  0  0  0
  162.5440  208.0630  151.3500 N   0  0  0  0  0  2  0  0  0  0  0  0
  162.1470  209.0910  150.4430 C   0  0  0  0  0  0  0  0  0  0  0  0
  161.7490  210.3670  150.9360 N   0  0  0  0  0  2  0  0  0  0  0  0
  161.5720  210.6210  152.3550 C   0  0  0  0  0  2  0  0  0  0  0  0
  160.4360  211.6010  152.5640 C   0  0  0  0  0  2  0  0  0  0  0  0
  159.2360  210.9010  152.7440 O   0  0  0  0  0  0  0  0  0  0  0  0
  158.7310  211.3560  153.9640 C   0  0  1  0  0  3  0  0  0  0  0  0
  159.6090  210.8830  155.1040 C   0  0  0  0  0  0  0  0  0  0  0  0
  159.9870  211.6940  156.0560 N   0  0  0  0  0  0  0  0  0  0  0  0
  158.4400  213.4460  155.3090 C   0  0  0  0  0  2  0  0  0  0  0  0
  159.7110  213.1300  156.0760 C   0  0  0  0  0  2  0  0  0  0  0  0
  158.5850  212.8730  153.9100 C   0  0  0  0  0  2  0  0  0  0  0  0
  159.9520  209.5260  155.1570 O   0  0  0  0  0  0  0  0  0  0  0  0
  159.6100  208.6970  156.2620 C   0  0  0  0  0  2  0  0  0  0  0  0
  160.3340  206.5950  157.2570 N   0  0  0  0  0  1  0  0  0  0  0  0
  160.0540  207.2680  156.0000 C   0  0  0  0  0  2  0  0  0  0  0  0
  2  5  1  6  0  0  0
  2 41  1  0  0  0  0
  3 11  1  0  0  0  0
  3  1  2  0  0  0  0
  4  5  1  0  0  0  0
  6 10  1  0  0  0  0
  6  8  1  0  0  0  0
  7 13  1  6  0  0  0
  7  3  1  0  0  0  0
  8  1  1  1  0  0  0
  8  2  1  0  0  0  0
  9  6  2  0  0  0  0
 10  4  1  0  0  0  0
 12  7  1  0  0  0  0
 12  9  1  0  0  0  0
 13 14  2  0  0  0  0
 13 15  2  0  0  0  0
 16 13  1  0  0  0  0
 17 18  1  0  0  0  0
 18 19  1  0  0  0  0
 19 16  1  0  0  0  0
 20 18  2  0  0  0  0
 21 22  1  0  0  0  0
 22 17  1  0  0  0  0
 23 17  1  6  0  0  0
 23 33  1  0  0  0  0
 24 25  1  0  0  0  0
 25 32  1  1  0  0  0
 25 28  1  0  0  0  0
 26 23  1  0  0  0  0
 27 26  1  0  0  0  0
 28 26  2  0  0  0  0
 29 24  1  0  0  0  0
 29 27  1  0  0  0  0
 30 32  1  0  0  0  0
 32 31  2  0  0  0  0
 33 34  1  1  0  0  0
 33 37  1  0  0  0  0
 37 35  1  0  0  0  0
 37 36  1  0  0  0  0
 38 37  1  0  0  0  0
 39 42  1  6  0  0  0
 39 40  1  0  0  0  0
 41 39  1  0  0  0  0
 41 40  1  1  0  0  0
 42 44  1  0  0  0  0
 44 43  1  6  0  0  0
 45 47  1  0  0  0  0
 45 44  1  0  0  0  0
 46 48  2  0  0  0  0
 48 49  1  0  0  0  0
 48 47  1  0  0  0  0
 49 50  1  0  0  0  0
 50 51  1  0  0  0  0
 51 52  1  0  0  0  0
 53 52  1  6  0  0  0
 53 54  1  0  0  0  0
 54 59  1  0  0  0  0
 54 55  2  0  0  0  0
 55 57  1  0  0  0  0
 56 57  1  0  0  0  0
 58 53  1  0  0  0  0
 58 56  1  0  0  0  0
 59 60  1  0  0  0  0
 62 60  1  0  0  0  0
 62 61  1  0  0  0  0
M  END
>  <MODEL>
3

>  <REMARK>
 VINA RESULT:      -0.4      1.259      2.225
  Name = 
  21 active torsions:
  status: ('A' for Active; 'I' for Inactive)
    1  A    between atoms: N_1  and  C_35
    2  A    between atoms: N_1  and  C_62
    3  A    between atoms: C_3  and  N_20
    4  A    between atoms: C_3  and  S_30
    5  A    between atoms: N_4  and  C_29
    6  A    between atoms: C_6  and  O_41
    7  A    between atoms: C_14  and  C_23
    8  A    between atoms: C_15  and  C_62
    9  A    between atoms: C_19  and  C_37
   10  A    between atoms: C_21  and  O_22
   11  A    between atoms: O_22  and  C_53
   12  A    between atoms: C_24  and  S_30
   13  A    between atoms: N_27  and  N_54
   14  A    between atoms: C_37  and  C_38
   15  A    between atoms: C_38  and  N_54
   16  A    between atoms: O_41  and  C_45
   17  A    between atoms: N_42  and  C_43
   18  A    between atoms: C_43  and  C_45
   19  A    between atoms: C_51  and  C_59
   20  A    between atoms: C_51  and  C_62
   21  A    between atoms: C_53  and  C_56
                            x       y       z     vdW  Elec       q    Type
                         _______ _______ _______ _____ _____    ______ ____

>  <TORSDO>
F 21

$$$$
