=
 OpenBabel11072414133D

 34 37  0  0  1  0  0  0  0  0999 V2000
  160.5780  208.8450  152.4030 C   0  0  1  0  0  3  0  0  0  0  0  0
  159.8240  212.3670  152.5350 C   0  0  0  0  0  3  0  0  0  0  0  0
  161.3410  209.8700  154.6470 C   0  0  0  0  0  0  0  0  0  0  0  0
  161.3130  207.4840  154.3540 C   0  0  0  0  0  3  0  0  0  0  0  0
  161.6050  208.6790  155.0940 N   0  0  0  0  0  0  0  0  0  0  0  0
  160.2720  211.2060  152.9280 C   0  0  0  0  0  0  0  0  0  0  0  0
  161.6450  211.0030  155.4550 N   0  0  0  0  0  1  0  0  0  0  0  0
  160.8190  207.5370  153.1130 C   0  0  0  0  0  3  0  0  0  0  0  0
  160.7150  210.0380  153.3180 C   0  0  0  0  0  0  0  0  0  0  0  0
  156.5730  213.8840  151.4370 C   0  0  0  0  0  2  0  0  0  0  0  0
  157.9950  212.9690  149.1870 C   0  0  0  0  0  2  0  0  0  0  0  0
  158.6170  212.4700  151.6510 C   0  0  2  0  0  3  0  0  0  0  0  0
  158.8360  213.3380  150.4130 C   0  0  2  0  0  0  0  0  0  0  0  0
  156.8360  213.9080  149.0450 C   0  0  0  0  0  0  0  0  0  0  0  0
  158.0930  213.9080  151.6230 C   0  0  1  0  0  3  0  0  0  0  0  0
  156.4250  214.3330  147.7510 N   0  0  0  0  0  1  0  0  0  0  0  0
  156.2040  214.3310  150.0960 N   0  0  0  0  0  0  0  0  0  0  0  0
  160.1500  213.9620  150.1820 C   0  0  0  0  0  0  0  0  0  0  0  0
  161.1810  214.4530  150.0000 N   0  0  0  0  0  0  0  0  0  0  0  0
  161.1750  208.2890  150.0730 C   0  0  0  0  0  3  0  0  0  0  0  0
  162.5760  209.7860  151.2540 O   0  0  0  0  0  1  0  0  0  0  0  0
  161.4570  208.9630  151.1900 C   0  0  0  0  0  0  0  0  0  0  0  0
  162.0140  208.3750  148.8410 C   0  0  0  0  0  2  0  0  0  0  0  0
  162.6380  207.0180  148.5270 C   0  0  0  0  0  2  0  0  0  0  0  0
  161.7690  206.1300  147.6300 C   0  0  1  0  0  0  0  0  0  0  0  0
  161.1080  206.9590  146.7270 O   0  0  0  0  0  1  0  0  0  0  0  0
  162.6220  205.1560  146.8270 C   0  0  0  0  0  1  0  0  0  0  0  0
  160.7040  205.3810  148.4400 C   0  0  0  0  0  2  0  0  0  0  0  0
  161.1570  202.1790  150.8790 C   0  0  0  0  0  2  0  0  0  0  0  0
  161.2480  203.5190  151.6080 C   0  0  0  0  0  2  0  0  0  0  0  0
  161.2820  204.3570  149.3000 N   0  0  0  0  0  0  0  0  0  0  0  0
  160.7710  203.0550  148.8240 C   0  0  0  0  0  2  0  0  0  0  0  0
  160.2050  202.2620  149.8510 O   0  0  0  0  0  0  0  0  0  0  0  0
  160.8280  204.6430  150.6630 C   0  0  0  0  0  2  0  0  0  0  0  0
  1 22  1  6  0  0  0
  1  8  1  0  0  0  0
  1  9  1  0  0  0  0
  2  6  2  0  0  0  0
  3  5  2  0  0  0  0
  3  7  1  0  0  0  0
  4  5  1  0  0  0  0
  6  9  2  0  0  0  0
  8  4  2  0  0  0  0
  9  3  1  0  0  0  0
 11 13  1  0  0  0  0
 12  2  1  1  0  0  0
 13 18  1  6  0  0  0
 13 15  1  0  0  0  0
 13 12  1  0  0  0  0
 14 11  1  0  0  0  0
 14 17  2  0  0  0  0
 15 10  1  6  0  0  0
 15 12  1  0  0  0  0
 16 14  1  0  0  0  0
 17 10  1  0  0  0  0
 19 18  3  0  0  0  0
 20 22  2  0  0  0  0
 22 21  1  0  0  0  0
 23 20  1  0  0  0  0
 24 23  1  0  0  0  0
 25 27  1  6  0  0  0
 25 28  1  0  0  0  0
 25 24  1  0  0  0  0
 26 25  1  0  0  0  0
 28 31  1  0  0  0  0
 29 30  1  0  0  0  0
 31 34  1  0  0  0  0
 32 31  1  0  0  0  0
 32 33  1  0  0  0  0
 33 29  1  0  0  0  0
 34 30  1  0  0  0  0
M  END
>  <MODEL>
1

>  <REMARK>
 VINA RESULT:      -7.2      0.000      0.000
  Name = 
  8 active torsions:
  status: ('A' for Active; 'I' for Inactive)
    1  A    between atoms: C_2  and  C_29
    2  A    between atoms: C_5  and  C_12
    3  A    between atoms: C_5  and  C_27
    4  A    between atoms: C_6  and  C_10
    5  A    between atoms: C_12  and  C_15
    6  A    between atoms: C_13  and  C_19
    7  A    between atoms: C_14  and  C_15
    8  A    between atoms: N_18  and  C_27
                            x       y       z     vdW  Elec       q    Type
                         _______ _______ _______ _____ _____    ______ ____

>  <TORSDO>
F 8

$$$$
=
 OpenBabel11072414133D

 34 37  0  0  1  0  0  0  0  0999 V2000
  160.7500  206.9920  149.5680 C   0  0  1  0  0  3  0  0  0  0  0  0
  161.1740  207.3540  153.1280 C   0  0  0  0  0  3  0  0  0  0  0  0
  161.5230  204.7730  150.6360 C   0  0  0  0  0  0  0  0  0  0  0  0
  160.7560  204.8160  148.3590 C   0  0  0  0  0  3  0  0  0  0  0  0
  161.3280  204.1660  149.5040 N   0  0  0  0  0  0  0  0  0  0  0  0
  161.1670  206.7730  151.9600 C   0  0  0  0  0  0  0  0  0  0  0  0
  162.0780  204.0480  151.7300 N   0  0  0  0  0  1  0  0  0  0  0  0
  160.4620  206.1190  148.3720 C   0  0  0  0  0  3  0  0  0  0  0  0
  161.1540  206.1970  150.7860 C   0  0  0  0  0  0  0  0  0  0  0  0
  159.5680  209.8630  155.4090 C   0  0  0  0  0  2  0  0  0  0  0  0
  159.5730  210.8510  152.7730 C   0  0  0  0  0  2  0  0  0  0  0  0
  160.1850  208.4300  153.4620 C   0  0  2  0  0  3  0  0  0  0  0  0
  160.6700  209.8370  153.1170 C   0  0  2  0  0  0  0  0  0  0  0  0
  159.3100  211.7520  153.9400 C   0  0  0  0  0  0  0  0  0  0  0  0
  160.7340  209.3420  154.5630 C   0  0  1  0  0  3  0  0  0  0  0  0
  159.0320  213.1300  153.7210 N   0  0  0  0  0  1  0  0  0  0  0  0
  159.3280  211.2810  155.1490 N   0  0  0  0  0  0  0  0  0  0  0  0
  161.9930  210.0210  152.4990 C   0  0  0  0  0  0  0  0  0  0  0  0
  163.0330  210.1680  152.0130 N   0  0  0  0  0  0  0  0  0  0  0  0
  161.3830  209.3100  148.9980 C   0  0  0  0  0  3  0  0  0  0  0  0
  163.1020  207.6900  149.1450 O   0  0  0  0  0  1  0  0  0  0  0  0
  161.7610  208.0490  149.2260 C   0  0  0  0  0  0  0  0  0  0  0  0
  162.3490  210.3960  148.6580 C   0  0  0  0  0  2  0  0  0  0  0  0
  161.6940  211.7630  148.8330 C   0  0  0  0  0  2  0  0  0  0  0  0
  162.2780  212.8510  147.9250 C   0  0  1  0  0  0  0  0  0  0  0  0
  162.3020  214.0400  148.6510 O   0  0  0  0  0  1  0  0  0  0  0  0
  163.7100  212.5230  147.5230 C   0  0  0  0  0  1  0  0  0  0  0  0
  161.4030  213.0800  146.6870 C   0  0  0  0  0  2  0  0  0  0  0  0
  157.4360  212.4070  146.2250 C   0  0  0  0  0  2  0  0  0  0  0  0
  157.7650  213.3480  147.3830 C   0  0  0  0  0  2  0  0  0  0  0  0
  160.0440  212.5910  146.8710 N   0  0  0  0  0  0  0  0  0  0  0  0
  159.5800  212.0960  145.5590 C   0  0  0  0  0  2  0  0  0  0  0  0
  158.3290  212.6290  145.1650 O   0  0  0  0  0  0  0  0  0  0  0  0
  159.2420  213.7300  147.3260 C   0  0  0  0  0  2  0  0  0  0  0  0
  1 22  1  6  0  0  0
  1  9  1  0  0  0  0
  3  9  1  0  0  0  0
  3  7  1  0  0  0  0
  4  8  2  0  0  0  0
  4  5  1  0  0  0  0
  5  3  2  0  0  0  0
  6  2  2  0  0  0  0
  8  1  1  0  0  0  0
  9  6  2  0  0  0  0
 11 13  1  0  0  0  0
 11 14  1  0  0  0  0
 12  2  1  6  0  0  0
 12 15  1  0  0  0  0
 13 18  1  6  0  0  0
 13 12  1  0  0  0  0
 13 15  1  0  0  0  0
 14 17  2  0  0  0  0
 15 10  1  1  0  0  0
 16 14  1  0  0  0  0
 17 10  1  0  0  0  0
 19 18  3  0  0  0  0
 20 22  2  0  0  0  0
 21 22  1  0  0  0  0
 23 24  1  0  0  0  0
 23 20  1  0  0  0  0
 25 27  1  6  0  0  0
 25 26  1  0  0  0  0
 25 24  1  0  0  0  0
 28 31  1  0  0  0  0
 28 25  1  0  0  0  0
 29 30  1  0  0  0  0
 31 34  1  0  0  0  0
 32 31  1  0  0  0  0
 33 32  1  0  0  0  0
 33 29  1  0  0  0  0
 34 30  1  0  0  0  0
M  END
>  <MODEL>
2

>  <REMARK>
 VINA RESULT:      -6.9      2.698      6.751
  Name = 
  8 active torsions:
  status: ('A' for Active; 'I' for Inactive)
    1  A    between atoms: C_2  and  C_29
    2  A    between atoms: C_5  and  C_12
    3  A    between atoms: C_5  and  C_27
    4  A    between atoms: C_6  and  C_10
    5  A    between atoms: C_12  and  C_15
    6  A    between atoms: C_13  and  C_19
    7  A    between atoms: C_14  and  C_15
    8  A    between atoms: N_18  and  C_27
                            x       y       z     vdW  Elec       q    Type
                         _______ _______ _______ _____ _____    ______ ____

>  <TORSDO>
F 8

$$$$
=
 OpenBabel11072414133D

 34 37  0  0  1  0  0  0  0  0999 V2000
  160.7560  207.0220  149.4610 C   0  0  1  0  0  3  0  0  0  0  0  0
  161.1820  207.4150  153.0180 C   0  0  0  0  0  3  0  0  0  0  0  0
  161.5190  204.8090  150.5500 C   0  0  0  0  0  0  0  0  0  0  0  0
  160.7520  204.8340  148.2720 C   0  0  0  0  0  3  0  0  0  0  0  0
  161.3210  204.1930  149.4230 N   0  0  0  0  0  0  0  0  0  0  0  0
  161.1730  206.8240  151.8550 C   0  0  0  0  0  0  0  0  0  0  0  0
  162.0710  204.0910  151.6500 N   0  0  0  0  0  1  0  0  0  0  0  0
  160.4640  206.1390  148.2730 C   0  0  0  0  0  3  0  0  0  0  0  0
  161.1570  206.2360  150.6860 C   0  0  0  0  0  0  0  0  0  0  0  0
  159.5310  209.8940  155.2980 C   0  0  0  0  0  2  0  0  0  0  0  0
  159.6500  210.9450  152.6900 C   0  0  0  0  0  2  0  0  0  0  0  0
  160.1980  208.4990  153.3410 C   0  0  2  0  0  3  0  0  0  0  0  0
  160.7170  209.9050  153.0490 C   0  0  2  0  0  0  0  0  0  0  0  0
  159.3570  211.8220  153.8690 C   0  0  0  0  0  0  0  0  0  0  0  0
  160.7190  209.3740  154.4840 C   0  0  1  0  0  3  0  0  0  0  0  0
  159.1090  213.2100  153.6730 N   0  0  0  0  0  1  0  0  0  0  0  0
  159.3230  211.3220  155.0650 N   0  0  0  0  0  0  0  0  0  0  0  0
  162.0650  210.0830  152.4850 C   0  0  0  0  0  0  0  0  0  0  0  0
  163.1250  210.2230  152.0430 N   0  0  0  0  0  0  0  0  0  0  0  0
  161.4210  209.3550  149.0040 C   0  0  0  0  0  3  0  0  0  0  0  0
  163.0880  207.6790  148.8890 O   0  0  0  0  0  1  0  0  0  0  0  0
  161.7720  208.0710  149.1090 C   0  0  0  0  0  0  0  0  0  0  0  0
  162.3930  210.4350  148.6590 C   0  0  0  0  0  2  0  0  0  0  0  0
  161.8810  211.7870  149.1480 C   0  0  0  0  0  2  0  0  0  0  0  0
  161.6290  212.7970  148.0240 C   0  0  1  0  0  0  0  0  0  0  0  0
  161.5780  214.0650  148.5980 O   0  0  0  0  0  1  0  0  0  0  0  0
  162.7670  212.7910  147.0110 C   0  0  0  0  0  1  0  0  0  0  0  0
  160.2840  212.5460  147.3320 C   0  0  0  0  0  2  0  0  0  0  0  0
  158.9150  214.1220  143.8610 C   0  0  0  0  0  2  0  0  0  0  0  0
  159.4990  212.7190  143.7050 C   0  0  0  0  0  2  0  0  0  0  0  0
  160.2170  213.1590  146.0120 N   0  0  0  0  0  0  0  0  0  0  0  0
  159.2450  214.2680  146.0990 C   0  0  0  0  0  2  0  0  0  0  0  0
  158.2500  214.2250  145.0930 O   0  0  0  0  0  0  0  0  0  0  0  0
  159.7610  212.1200  145.0850 C   0  0  0  0  0  2  0  0  0  0  0  0
  1 22  1  6  0  0  0
  1  9  1  0  0  0  0
  3  9  1  0  0  0  0
  3  7  1  0  0  0  0
  4  8  2  0  0  0  0
  4  5  1  0  0  0  0
  5  3  2  0  0  0  0
  6  2  2  0  0  0  0
  8  1  1  0  0  0  0
  9  6  2  0  0  0  0
 11 13  1  0  0  0  0
 11 14  1  0  0  0  0
 12  2  1  6  0  0  0
 12 15  1  0  0  0  0
 13 18  1  6  0  0  0
 13 12  1  0  0  0  0
 13 15  1  0  0  0  0
 14 17  2  0  0  0  0
 15 10  1  1  0  0  0
 16 14  1  0  0  0  0
 17 10  1  0  0  0  0
 19 18  3  0  0  0  0
 20 22  2  0  0  0  0
 21 22  1  0  0  0  0
 23 20  1  0  0  0  0
 23 24  1  0  0  0  0
 25 27  1  6  0  0  0
 25 26  1  0  0  0  0
 25 24  1  0  0  0  0
 28 25  1  0  0  0  0
 29 33  1  0  0  0  0
 30 29  1  0  0  0  0
 30 34  1  0  0  0  0
 31 32  1  0  0  0  0
 31 28  1  0  0  0  0
 33 32  1  0  0  0  0
 34 31  1  0  0  0  0
M  END
>  <MODEL>
3

>  <REMARK>
 VINA RESULT:      -6.7      3.086      7.077
  Name = 
  8 active torsions:
  status: ('A' for Active; 'I' for Inactive)
    1  A    between atoms: C_2  and  C_29
    2  A    between atoms: C_5  and  C_12
    3  A    between atoms: C_5  and  C_27
    4  A    between atoms: C_6  and  C_10
    5  A    between atoms: C_12  and  C_15
    6  A    between atoms: C_13  and  C_19
    7  A    between atoms: C_14  and  C_15
    8  A    between atoms: N_18  and  C_27
                            x       y       z     vdW  Elec       q    Type
                         _______ _______ _______ _____ _____    ______ ____

>  <TORSDO>
F 8

$$$$
=
 OpenBabel11072414133D

 34 37  0  0  1  0  0  0  0  0999 V2000
  160.2420  208.6970  154.2450 C   0  0  1  0  0  3  0  0  0  0  0  0
  160.1210  212.1840  153.3430 C   0  0  0  0  0  3  0  0  0  0  0  0
  161.7400  210.1080  155.8050 C   0  0  0  0  0  0  0  0  0  0  0  0
  161.2550  207.8150  156.3410 C   0  0  0  0  0  3  0  0  0  0  0  0
  161.9230  209.0660  156.5600 N   0  0  0  0  0  0  0  0  0  0  0  0
  160.4700  211.1120  154.0000 C   0  0  0  0  0  0  0  0  0  0  0  0
  162.4290  211.3180  156.1050 N   0  0  0  0  0  1  0  0  0  0  0  0
  160.4560  207.6280  155.2860 C   0  0  0  0  0  3  0  0  0  0  0  0
  160.8110  210.0340  154.6570 C   0  0  0  0  0  0  0  0  0  0  0  0
  156.7070  213.7110  153.0510 C   0  0  0  0  0  2  0  0  0  0  0  0
  157.6110  212.9260  150.5040 C   0  0  0  0  0  2  0  0  0  0  0  0
  158.7520  212.3150  152.7470 C   0  0  2  0  0  3  0  0  0  0  0  0
  158.6960  213.2450  151.5370 C   0  0  2  0  0  0  0  0  0  0  0  0
  156.4470  213.8560  150.6630 C   0  0  0  0  0  0  0  0  0  0  0  0
  158.2310  213.7460  152.9060 C   0  0  1  0  0  3  0  0  0  0  0  0
  155.7640  214.3380  149.5120 N   0  0  0  0  0  1  0  0  0  0  0  0
  156.0560  214.2190  151.8460 N   0  0  0  0  0  0  0  0  0  0  0  0
  159.9270  213.8970  151.0590 C   0  0  0  0  0  0  0  0  0  0  0  0
  160.8940  214.4090  150.6830 N   0  0  0  0  0  0  0  0  0  0  0  0
  161.4500  207.1140  152.7850 C   0  0  0  0  0  3  0  0  0  0  0  0
  160.5240  209.0560  151.7980 O   0  0  0  0  0  1  0  0  0  0  0  0
  160.7640  208.2530  152.9080 C   0  0  0  0  0  0  0  0  0  0  0  0
  161.9870  206.6290  151.4790 C   0  0  0  0  0  2  0  0  0  0  0  0
  161.9030  205.1070  151.4030 C   0  0  0  0  0  2  0  0  0  0  0  0
  160.9840  204.5930  150.2890 C   0  0  1  0  0  0  0  0  0  0  0  0
  159.8920  203.9750  150.8940 O   0  0  0  0  0  1  0  0  0  0  0  0
  160.4560  205.7390  149.4360 C   0  0  0  0  0  1  0  0  0  0  0  0
  161.6870  203.5460  149.4170 C   0  0  0  0  0  2  0  0  0  0  0  0
  160.6170  202.0830  145.7950 C   0  0  0  0  0  2  0  0  0  0  0  0
  161.3730  203.4080  145.7190 C   0  0  0  0  0  2  0  0  0  0  0  0
  161.0080  203.3370  148.1460 N   0  0  0  0  0  0  0  0  0  0  0  0
  160.6990  201.8950  148.0530 C   0  0  0  0  0  2  0  0  0  0  0  0
  161.1320  201.3030  146.8430 O   0  0  0  0  0  0  0  0  0  0  0  0
  161.9390  203.7520  147.0940 C   0  0  0  0  0  2  0  0  0  0  0  0
  1 22  1  6  0  0  0
  1  9  1  0  0  0  0
  1  8  1  0  0  0  0
  2  6  2  0  0  0  0
  3  7  1  0  0  0  0
  3  5  2  0  0  0  0
  4  5  1  0  0  0  0
  6  9  2  0  0  0  0
  8  4  2  0  0  0  0
  9  3  1  0  0  0  0
 11 14  1  0  0  0  0
 11 13  1  0  0  0  0
 12 15  1  0  0  0  0
 12  2  1  1  0  0  0
 13 18  1  6  0  0  0
 13 12  1  0  0  0  0
 13 15  1  0  0  0  0
 14 17  2  0  0  0  0
 15 10  1  6  0  0  0
 16 14  1  0  0  0  0
 17 10  1  0  0  0  0
 19 18  3  0  0  0  0
 20 22  2  0  0  0  0
 21 22  1  0  0  0  0
 23 20  1  0  0  0  0
 24 23  1  0  0  0  0
 25 27  1  6  0  0  0
 25 26  1  0  0  0  0
 25 24  1  0  0  0  0
 28 25  1  0  0  0  0
 29 33  1  0  0  0  0
 30 29  1  0  0  0  0
 30 34  1  0  0  0  0
 31 28  1  0  0  0  0
 32 31  1  0  0  0  0
 33 32  1  0  0  0  0
 34 31  1  0  0  0  0
M  END
>  <MODEL>
4

>  <REMARK>
 VINA RESULT:      -6.3      1.774      2.583
  Name = 
  8 active torsions:
  status: ('A' for Active; 'I' for Inactive)
    1  A    between atoms: C_2  and  C_29
    2  A    between atoms: C_5  and  C_12
    3  A    between atoms: C_5  and  C_27
    4  A    between atoms: C_6  and  C_10
    5  A    between atoms: C_12  and  C_15
    6  A    between atoms: C_13  and  C_19
    7  A    between atoms: C_14  and  C_15
    8  A    between atoms: N_18  and  C_27
                            x       y       z     vdW  Elec       q    Type
                         _______ _______ _______ _____ _____    ______ ____

>  <TORSDO>
F 8

$$$$
=
 OpenBabel11072414133D

 34 37  0  0  1  0  0  0  0  0999 V2000
  161.4000  210.3440  154.7420 C   0  0  1  0  0  3  0  0  0  0  0  0
  160.4550  207.2570  153.1400 C   0  0  0  0  0  3  0  0  0  0  0  0
  161.7060  208.3410  156.3420 C   0  0  0  0  0  0  0  0  0  0  0  0
  162.6020  210.4960  156.9170 C   0  0  0  0  0  3  0  0  0  0  0  0
  162.3000  209.1210  157.1950 N   0  0  0  0  0  0  0  0  0  0  0  0
  160.8780  208.0560  154.0800 C   0  0  0  0  0  0  0  0  0  0  0  0
  161.4610  206.9820  156.6920 N   0  0  0  0  0  1  0  0  0  0  0  0
  162.2120  211.0780  155.7790 C   0  0  0  0  0  3  0  0  0  0  0  0
  161.3050  208.8630  155.0180 C   0  0  0  0  0  0  0  0  0  0  0  0
  162.7030  208.0670  150.2470 C   0  0  0  0  0  2  0  0  0  0  0  0
  160.6130  206.3950  149.3780 C   0  0  0  0  0  2  0  0  0  0  0  0
  160.7410  207.5440  151.6960 C   0  0  2  0  0  3  0  0  0  0  0  0
  160.9900  206.2900  150.8600 C   0  0  2  0  0  0  0  0  0  0  0  0
  161.8360  206.6090  148.5400 C   0  0  0  0  0  0  0  0  0  0  0  0
  162.1730  207.1340  151.3400 C   0  0  1  0  0  3  0  0  0  0  0  0
  161.9420  205.9790  147.2690 N   0  0  0  0  0  1  0  0  0  0  0  0
  162.7960  207.3710  148.9660 N   0  0  0  0  0  0  0  0  0  0  0  0
  160.9180  204.9640  151.4940 C   0  0  0  0  0  0  0  0  0  0  0  0
  160.8630  203.9200  151.9910 N   0  0  0  0  0  0  0  0  0  0  0  0
  159.8190  211.8780  153.6270 C   0  0  0  0  0  3  0  0  0  0  0  0
  159.0280  210.5990  155.4540 O   0  0  0  0  0  1  0  0  0  0  0  0
  160.0450  210.9730  154.5820 C   0  0  0  0  0  0  0  0  0  0  0  0
  158.4900  212.5290  153.4260 C   0  0  0  0  0  2  0  0  0  0  0  0
  158.6480  213.8250  152.6350 C   0  0  0  0  0  2  0  0  0  0  0  0
  158.0140  213.7810  151.2400 C   0  0  1  0  0  0  0  0  0  0  0  0
  157.8320  212.4420  150.9010 O   0  0  0  0  0  1  0  0  0  0  0  0
  156.6460  214.4520  151.2350 C   0  0  0  0  0  1  0  0  0  0  0  0
  158.9320  214.4080  150.1850 C   0  0  0  0  0  2  0  0  0  0  0  0
  161.0500  212.5830  147.2540 C   0  0  0  0  0  2  0  0  0  0  0  0
  159.6600  213.0360  146.8110 C   0  0  0  0  0  2  0  0  0  0  0  0
  159.4190  213.4290  149.2220 N   0  0  0  0  0  0  0  0  0  0  0  0
  160.8870  213.3640  149.3760 C   0  0  0  0  0  2  0  0  0  0  0  0
  161.5880  213.5150  148.1560 O   0  0  0  0  0  0  0  0  0  0  0  0
  159.0410  213.9170  147.8940 C   0  0  0  0  0  2  0  0  0  0  0  0
  1 22  1  1  0  0  0
  1  9  1  0  0  0  0
  1  8  1  0  0  0  0
  2  6  2  0  0  0  0
  3  7  1  0  0  0  0
  3  5  2  0  0  0  0
  4  5  1  0  0  0  0
  6  9  2  0  0  0  0
  8  4  2  0  0  0  0
  9  3  1  0  0  0  0
 11 13  1  0  0  0  0
 12  2  1  1  0  0  0
 13 15  1  0  0  0  0
 13 18  1  1  0  0  0
 13 12  1  0  0  0  0
 14 17  2  0  0  0  0
 14 11  1  0  0  0  0
 15 10  1  6  0  0  0
 15 12  1  0  0  0  0
 16 14  1  0  0  0  0
 17 10  1  0  0  0  0
 18 19  3  0  0  0  0
 20 22  2  0  0  0  0
 22 21  1  0  0  0  0
 23 20  1  0  0  0  0
 24 23  1  0  0  0  0
 25 27  1  1  0  0  0
 25 24  1  0  0  0  0
 26 25  1  0  0  0  0
 28 25  1  0  0  0  0
 29 33  1  0  0  0  0
 30 29  1  0  0  0  0
 30 34  1  0  0  0  0
 31 32  1  0  0  0  0
 31 28  1  0  0  0  0
 33 32  1  0  0  0  0
 34 31  1  0  0  0  0
M  END
>  <MODEL>
5

>  <REMARK>
 VINA RESULT:      -6.0      2.879      7.849
  Name = 
  8 active torsions:
  status: ('A' for Active; 'I' for Inactive)
    1  A    between atoms: C_2  and  C_29
    2  A    between atoms: C_5  and  C_12
    3  A    between atoms: C_5  and  C_27
    4  A    between atoms: C_6  and  C_10
    5  A    between atoms: C_12  and  C_15
    6  A    between atoms: C_13  and  C_19
    7  A    between atoms: C_14  and  C_15
    8  A    between atoms: N_18  and  C_27
                            x       y       z     vdW  Elec       q    Type
                         _______ _______ _______ _____ _____    ______ ____

>  <TORSDO>
F 8

$$$$
=
 OpenBabel11072414133D

 34 37  0  0  1  0  0  0  0  0999 V2000
  161.9000  210.4040  154.7440 C   0  0  1  0  0  3  0  0  0  0  0  0
  160.3790  207.5120  153.2230 C   0  0  0  0  0  3  0  0  0  0  0  0
  161.8660  208.4090  156.3820 C   0  0  0  0  0  0  0  0  0  0  0  0
  163.1500  210.3740  156.8960 C   0  0  0  0  0  3  0  0  0  0  0  0
  162.6080  209.0830  157.2090 N   0  0  0  0  0  0  0  0  0  0  0  0
  160.9580  208.2370  154.1400 C   0  0  0  0  0  0  0  0  0  0  0  0
  161.3840  207.1240  156.7650 N   0  0  0  0  0  1  0  0  0  0  0  0
  162.8510  210.9960  155.7520 C   0  0  0  0  0  3  0  0  0  0  0  0
  161.5420  208.9700  155.0530 C   0  0  0  0  0  0  0  0  0  0  0  0
  162.6580  208.2120  150.3270 C   0  0  0  0  0  2  0  0  0  0  0  0
  160.6440  206.4140  149.5300 C   0  0  0  0  0  2  0  0  0  0  0  0
  160.6850  207.7140  151.7700 C   0  0  2  0  0  3  0  0  0  0  0  0
  160.9940  206.4190  151.0220 C   0  0  2  0  0  0  0  0  0  0  0  0
  161.8770  206.6160  148.7030 C   0  0  0  0  0  0  0  0  0  0  0  0
  162.1370  207.3330  151.4680 C   0  0  1  0  0  3  0  0  0  0  0  0
  162.0310  205.9090  147.4780 N   0  0  0  0  0  1  0  0  0  0  0  0
  162.8010  207.4380  149.0960 N   0  0  0  0  0  0  0  0  0  0  0  0
  160.9540  205.1340  151.7400 C   0  0  0  0  0  0  0  0  0  0  0  0
  160.9230  204.1250  152.3060 N   0  0  0  0  0  0  0  0  0  0  0  0
  160.2110  211.9790  155.6190 C   0  0  0  0  0  3  0  0  0  0  0  0
  160.0390  211.3050  153.3560 O   0  0  0  0  0  1  0  0  0  0  0  0
  160.6790  211.2660  154.5910 C   0  0  0  0  0  0  0  0  0  0  0  0
  159.0040  212.8520  155.5160 C   0  0  0  0  0  2  0  0  0  0  0  0
  157.7340  212.0070  155.5370 C   0  0  0  0  0  2  0  0  0  0  0  0
  156.4570  212.8020  155.2420 C   0  0  1  0  0  0  0  0  0  0  0  0
  155.5440  211.9310  154.6520 O   0  0  0  0  0  1  0  0  0  0  0  0
  155.8300  213.3340  156.5250 C   0  0  0  0  0  1  0  0  0  0  0  0
  156.7190  213.9420  154.2510 C   0  0  0  0  0  2  0  0  0  0  0  0
  156.5840  213.8860  150.2030 C   0  0  0  0  0  2  0  0  0  0  0  0
  155.2420  214.2170  150.8540 C   0  0  0  0  0  2  0  0  0  0  0  0
  156.4690  213.5450  152.8720 N   0  0  0  0  0  0  0  0  0  0  0  0
  157.7440  213.6940  152.1410 C   0  0  0  0  0  2  0  0  0  0  0  0
  157.6270  214.4530  150.9520 O   0  0  0  0  0  0  0  0  0  0  0  0
  155.4440  214.4520  152.3490 C   0  0  0  0  0  2  0  0  0  0  0  0
  1 22  1  1  0  0  0
  1  9  1  0  0  0  0
  1  8  1  0  0  0  0
  2  6  2  0  0  0  0
  3  7  1  0  0  0  0
  3  5  2  0  0  0  0
  4  5  1  0  0  0  0
  6  9  2  0  0  0  0
  8  4  2  0  0  0  0
  9  3  1  0  0  0  0
 11 13  1  0  0  0  0
 12  2  1  1  0  0  0
 13 15  1  0  0  0  0
 13 18  1  1  0  0  0
 13 12  1  0  0  0  0
 14 17  2  0  0  0  0
 14 11  1  0  0  0  0
 15 10  1  6  0  0  0
 15 12  1  0  0  0  0
 16 14  1  0  0  0  0
 17 10  1  0  0  0  0
 18 19  3  0  0  0  0
 21 22  1  0  0  0  0
 22 20  2  0  0  0  0
 23 24  1  0  0  0  0
 23 20  1  0  0  0  0
 25 24  1  0  0  0  0
 25 27  1  1  0  0  0
 26 25  1  0  0  0  0
 28 25  1  0  0  0  0
 29 30  1  0  0  0  0
 29 33  1  0  0  0  0
 30 34  1  0  0  0  0
 31 28  1  0  0  0  0
 32 31  1  0  0  0  0
 33 32  1  0  0  0  0
 34 31  1  0  0  0  0
M  END
>  <MODEL>
6

>  <REMARK>
 VINA RESULT:      -5.7      3.161      8.608
  Name = 
  8 active torsions:
  status: ('A' for Active; 'I' for Inactive)
    1  A    between atoms: C_2  and  C_29
    2  A    between atoms: C_5  and  C_12
    3  A    between atoms: C_5  and  C_27
    4  A    between atoms: C_6  and  C_10
    5  A    between atoms: C_12  and  C_15
    6  A    between atoms: C_13  and  C_19
    7  A    between atoms: C_14  and  C_15
    8  A    between atoms: N_18  and  C_27
                            x       y       z     vdW  Elec       q    Type
                         _______ _______ _______ _____ _____    ______ ____

>  <TORSDO>
F 8

$$$$
=
 OpenBabel11072414133D

 34 37  0  0  1  0  0  0  0  0999 V2000
  160.3180  208.3350  154.5990 C   0  0  1  0  0  3  0  0  0  0  0  0
  160.0950  211.9270  154.7930 C   0  0  0  0  0  3  0  0  0  0  0  0
  161.7330  209.2440  156.5570 C   0  0  0  0  0  0  0  0  0  0  0  0
  161.3170  206.8850  156.3580 C   0  0  0  0  0  3  0  0  0  0  0  0
  161.9370  208.0270  156.9660 N   0  0  0  0  0  0  0  0  0  0  0  0
  160.4660  210.7150  155.1050 C   0  0  0  0  0  0  0  0  0  0  0  0
  162.3730  210.3230  157.2310 N   0  0  0  0  0  1  0  0  0  0  0  0
  160.5480  207.0060  155.2720 C   0  0  0  0  0  3  0  0  0  0  0  0
  160.8310  209.4970  155.4140 C   0  0  0  0  0  0  0  0  0  0  0  0
  156.4150  211.2980  154.4200 C   0  0  0  0  0  2  0  0  0  0  0  0
  156.9310  214.0540  154.1780 C   0  0  0  0  0  2  0  0  0  0  0  0
  158.7340  212.1960  154.2240 C   0  0  2  0  0  3  0  0  0  0  0  0
  157.9430  213.2470  154.9990 C   0  0  2  0  0  0  0  0  0  0  0  0
  155.5420  213.5400  154.4080 C   0  0  0  0  0  0  0  0  0  0  0  0
  157.6450  211.7610  155.2080 C   0  0  1  0  0  3  0  0  0  0  0  0
  154.4540  214.4530  154.4820 N   0  0  0  0  0  1  0  0  0  0  0  0
  155.3280  212.2670  154.5320 N   0  0  0  0  0  0  0  0  0  0  0  0
  158.5470  213.8960  156.1740 C   0  0  0  0  0  0  0  0  0  0  0  0
  159.0220  214.4080  157.0970 N   0  0  0  0  0  0  0  0  0  0  0  0
  161.6860  207.3480  152.7950 C   0  0  0  0  0  3  0  0  0  0  0  0
  160.5570  209.3810  152.3520 O   0  0  0  0  0  1  0  0  0  0  0  0
  160.8830  208.3330  153.2060 C   0  0  0  0  0  0  0  0  0  0  0  0
  162.2700  207.3000  151.4220 C   0  0  0  0  0  2  0  0  0  0  0  0
  161.8120  206.0390  150.6940 C   0  0  0  0  0  2  0  0  0  0  0  0
  161.3180  206.2940  149.2660 C   0  0  1  0  0  0  0  0  0  0  0  0
  160.4330  207.3690  149.3090 O   0  0  0  0  0  1  0  0  0  0  0  0
  162.4690  206.6760  148.3440 C   0  0  0  0  0  1  0  0  0  0  0  0
  160.5540  205.0850  148.7100 C   0  0  0  0  0  2  0  0  0  0  0  0
  161.5980  201.1720  148.7670 C   0  0  0  0  0  2  0  0  0  0  0  0
  160.7620  201.5980  149.9730 C   0  0  0  0  0  2  0  0  0  0  0  0
  161.2060  203.8230  149.0330 N   0  0  0  0  0  0  0  0  0  0  0  0
  161.5980  203.1990  147.7530 C   0  0  0  0  0  2  0  0  0  0  0  0
  161.1640  201.8580  147.6220 O   0  0  0  0  0  0  0  0  0  0  0  0
  160.2190  203.0070  149.7440 C   0  0  0  0  0  2  0  0  0  0  0  0
  1 22  1  6  0  0  0
  1  8  1  0  0  0  0
  1  9  1  0  0  0  0
  2  6  2  0  0  0  0
  3  5  2  0  0  0  0
  3  7  1  0  0  0  0
  4  5  1  0  0  0  0
  6  9  2  0  0  0  0
  8  4  2  0  0  0  0
  9  3  1  0  0  0  0
 10 17  1  0  0  0  0
 11 14  1  0  0  0  0
 11 13  1  0  0  0  0
 12  2  1  1  0  0  0
 12 13  1  0  0  0  0
 12 15  1  0  0  0  0
 13 15  1  0  0  0  0
 13 18  1  1  0  0  0
 14 16  1  0  0  0  0
 14 17  2  0  0  0  0
 15 10  1  6  0  0  0
 18 19  3  0  0  0  0
 20 22  2  0  0  0  0
 21 22  1  0  0  0  0
 23 20  1  0  0  0  0
 24 23  1  0  0  0  0
 25 27  1  6  0  0  0
 25 26  1  0  0  0  0
 25 24  1  0  0  0  0
 28 31  1  0  0  0  0
 28 25  1  0  0  0  0
 29 30  1  0  0  0  0
 31 34  1  0  0  0  0
 32 31  1  0  0  0  0
 33 32  1  0  0  0  0
 33 29  1  0  0  0  0
 34 30  1  0  0  0  0
M  END
>  <MODEL>
7

>  <REMARK>
 VINA RESULT:      -5.5      3.015      3.437
  Name = 
  8 active torsions:
  status: ('A' for Active; 'I' for Inactive)
    1  A    between atoms: C_2  and  C_29
    2  A    between atoms: C_5  and  C_12
    3  A    between atoms: C_5  and  C_27
    4  A    between atoms: C_6  and  C_10
    5  A    between atoms: C_12  and  C_15
    6  A    between atoms: C_13  and  C_19
    7  A    between atoms: C_14  and  C_15
    8  A    between atoms: N_18  and  C_27
                            x       y       z     vdW  Elec       q    Type
                         _______ _______ _______ _____ _____    ______ ____

>  <TORSDO>
F 8

$$$$
=
 OpenBabel11072414133D

 34 37  0  0  1  0  0  0  0  0999 V2000
  160.6110  207.1140  150.3330 C   0  0  1  0  0  3  0  0  0  0  0  0
  161.6440  208.7680  153.3630 C   0  0  0  0  0  3  0  0  0  0  0  0
  161.9910  205.5250  151.8280 C   0  0  0  0  0  0  0  0  0  0  0  0
  160.8000  204.6660  149.9250 C   0  0  0  0  0  3  0  0  0  0  0  0
  161.6990  204.5370  151.0370 N   0  0  0  0  0  0  0  0  0  0  0  0
  161.5220  207.8120  152.4840 C   0  0  0  0  0  0  0  0  0  0  0  0
  162.8780  205.3060  152.9210 N   0  0  0  0  0  1  0  0  0  0  0  0
  160.2690  205.8460  149.5920 C   0  0  0  0  0  3  0  0  0  0  0  0
  161.3910  206.8570  151.5990 C   0  0  0  0  0  0  0  0  0  0  0  0
  158.5080  210.0500  154.9750 C   0  0  0  0  0  2  0  0  0  0  0  0
  160.2180  212.2080  154.3880 C   0  0  0  0  0  2  0  0  0  0  0  0
  160.5500  209.7730  153.5700 C   0  0  2  0  0  3  0  0  0  0  0  0
  160.8930  210.8490  154.5990 C   0  0  2  0  0  0  0  0  0  0  0  0
  159.0580  212.3670  155.3240 C   0  0  0  0  0  0  0  0  0  0  0  0
  159.9930  209.6760  154.9920 C   0  0  1  0  0  3  0  0  0  0  0  0
  158.7940  213.6340  155.9130 N   0  0  0  0  0  1  0  0  0  0  0  0
  158.2920  211.3560  155.5940 N   0  0  0  0  0  0  0  0  0  0  0  0
  162.2070  210.8310  155.2640 C   0  0  0  0  0  0  0  0  0  0  0  0
  163.2390  210.8160  155.7860 N   0  0  0  0  0  0  0  0  0  0  0  0
  161.6210  209.3150  149.8530 C   0  0  0  0  0  3  0  0  0  0  0  0
  161.6300  207.6870  148.1350 O   0  0  0  0  0  1  0  0  0  0  0  0
  161.3120  208.0870  149.4280 C   0  0  0  0  0  0  0  0  0  0  0  0
  162.3200  210.3170  148.9940 C   0  0  0  0  0  2  0  0  0  0  0  0
  162.0740  211.7290  149.5170 C   0  0  0  0  0  2  0  0  0  0  0  0
  161.9340  212.7830  148.4140 C   0  0  1  0  0  0  0  0  0  0  0  0
  163.2040  213.2920  148.1520 O   0  0  0  0  0  1  0  0  0  0  0  0
  161.4060  212.1660  147.1250 C   0  0  0  0  0  1  0  0  0  0  0  0
  161.0480  213.9530  148.8610 C   0  0  0  0  0  2  0  0  0  0  0  0
  157.4050  213.7970  150.6230 C   0  0  0  0  0  2  0  0  0  0  0  0
  158.5480  214.0460  151.6060 C   0  0  0  0  0  2  0  0  0  0  0  0
  159.8870  213.5080  149.6190 N   0  0  0  0  0  0  0  0  0  0  0  0
  158.7020  213.7310  148.7650 C   0  0  0  0  0  2  0  0  0  0  0  0
  157.6690  214.4530  149.4110 O   0  0  0  0  0  0  0  0  0  0  0  0
  159.8330  214.3290  150.8320 C   0  0  0  0  0  2  0  0  0  0  0  0
  1 22  1  6  0  0  0
  1  9  1  0  0  0  0
  3  7  1  0  0  0  0
  4  5  1  0  0  0  0
  5  3  2  0  0  0  0
  6  2  2  0  0  0  0
  8  4  2  0  0  0  0
  8  1  1  0  0  0  0
  9  3  1  0  0  0  0
  9  6  2  0  0  0  0
 10 17  1  0  0  0  0
 11 13  1  0  0  0  0
 11 14  1  0  0  0  0
 12  2  1  1  0  0  0
 12 13  1  0  0  0  0
 12 15  1  0  0  0  0
 13 15  1  0  0  0  0
 13 18  1  1  0  0  0
 14 17  2  0  0  0  0
 14 16  1  0  0  0  0
 15 10  1  6  0  0  0
 18 19  3  0  0  0  0
 21 22  1  0  0  0  0
 22 20  2  0  0  0  0
 23 24  1  0  0  0  0
 23 20  1  0  0  0  0
 25 27  1  6  0  0  0
 25 28  1  0  0  0  0
 25 24  1  0  0  0  0
 26 25  1  0  0  0  0
 28 31  1  0  0  0  0
 29 30  1  0  0  0  0
 31 34  1  0  0  0  0
 32 33  1  0  0  0  0
 32 31  1  0  0  0  0
 33 29  1  0  0  0  0
 34 30  1  0  0  0  0
M  END
>  <MODEL>
8

>  <REMARK>
 VINA RESULT:      -4.8      2.467      6.803
  Name = 
  8 active torsions:
  status: ('A' for Active; 'I' for Inactive)
    1  A    between atoms: C_2  and  C_29
    2  A    between atoms: C_5  and  C_12
    3  A    between atoms: C_5  and  C_27
    4  A    between atoms: C_6  and  C_10
    5  A    between atoms: C_12  and  C_15
    6  A    between atoms: C_13  and  C_19
    7  A    between atoms: C_14  and  C_15
    8  A    between atoms: N_18  and  C_27
                            x       y       z     vdW  Elec       q    Type
                         _______ _______ _______ _____ _____    ______ ____

>  <TORSDO>
F 8

$$$$
=
 OpenBabel11072414133D

 34 37  0  0  1  0  0  0  0  0999 V2000
  159.6110  212.8640  148.5540 C   0  0  1  0  0  3  0  0  0  0  0  0
  162.2820  210.4560  148.7860 C   0  0  0  0  0  3  0  0  0  0  0  0
  161.4130  213.3080  146.7600 C   0  0  0  0  0  0  0  0  0  0  0  0
  159.3020  214.4530  146.6630 C   0  0  0  0  0  3  0  0  0  0  0  0
  160.6410  214.2000  146.2140 N   0  0  0  0  0  0  0  0  0  0  0  0
  161.6070  211.4810  148.3420 C   0  0  0  0  0  0  0  0  0  0  0  0
  162.7240  213.1070  146.2390 N   0  0  0  0  0  1  0  0  0  0  0  0
  158.7970  213.8310  147.7320 C   0  0  0  0  0  3  0  0  0  0  0  0
  160.9230  212.5040  147.8990 C   0  0  0  0  0  0  0  0  0  0  0  0
  161.9930  206.8060  149.6030 C   0  0  0  0  0  2  0  0  0  0  0  0
  160.7240  208.3250  151.6040 C   0  0  0  0  0  2  0  0  0  0  0  0
  161.5830  209.2530  149.3440 C   0  0  2  0  0  3  0  0  0  0  0  0
  161.8450  209.0280  150.8320 C   0  0  2  0  0  0  0  0  0  0  0  0
  161.0630  206.8820  151.8210 C   0  0  0  0  0  0  0  0  0  0  0  0
  162.6010  208.2000  149.7910 C   0  0  1  0  0  3  0  0  0  0  0  0
  160.7190  206.2520  153.0490 N   0  0  0  0  0  1  0  0  0  0  0  0
  161.6630  206.2030  150.8920 N   0  0  0  0  0  0  0  0  0  0  0  0
  162.7040  209.9670  151.5730 C   0  0  0  0  0  0  0  0  0  0  0  0
  163.3780  210.7050  152.1560 N   0  0  0  0  0  0  0  0  0  0  0  0
  159.1560  212.8280  150.9800 C   0  0  0  0  0  3  0  0  0  0  0  0
  160.6660  214.4520  150.1540 O   0  0  0  0  0  1  0  0  0  0  0  0
  159.8030  213.3810  149.9510 C   0  0  0  0  0  0  0  0  0  0  0  0
  159.3160  213.3040  152.3870 C   0  0  0  0  0  2  0  0  0  0  0  0
  158.3940  212.5230  153.3190 C   0  0  0  0  0  2  0  0  0  0  0  0
  159.0410  212.1440  154.6560 C   0  0  1  0  0  0  0  0  0  0  0  0
  159.3680  213.3260  155.3170 O   0  0  0  0  0  1  0  0  0  0  0  0
  158.0700  211.3710  155.5390 C   0  0  0  0  0  1  0  0  0  0  0  0
  160.3380  211.3530  154.4500 C   0  0  0  0  0  2  0  0  0  0  0  0
  162.3740  209.1680  157.1860 C   0  0  0  0  0  2  0  0  0  0  0  0
  161.5570  208.3200  156.2130 C   0  0  0  0  0  2  0  0  0  0  0  0
  160.6720  210.5270  155.6020 N   0  0  0  0  0  0  0  0  0  0  0  0
  161.8190  211.1690  156.2760 C   0  0  0  0  0  2  0  0  0  0  0  0
  162.8980  210.2860  156.5170 O   0  0  0  0  0  0  0  0  0  0  0  0
  161.0290  209.2030  155.0850 C   0  0  0  0  0  2  0  0  0  0  0  0
  1 22  1  1  0  0  0
  3  9  1  0  0  0  0
  4  8  2  0  0  0  0
  5  4  1  0  0  0  0
  5  3  2  0  0  0  0
  6  2  2  0  0  0  0
  7  3  1  0  0  0  0
  8  1  1  0  0  0  0
  9  6  2  0  0  0  0
  9  1  1  0  0  0  0
 10 17  1  0  0  0  0
 11 14  1  0  0  0  0
 12  2  1  6  0  0  0
 12 15  1  0  0  0  0
 12 13  1  0  0  0  0
 13 18  1  1  0  0  0
 13 11  1  0  0  0  0
 14 16  1  0  0  0  0
 15 10  1  1  0  0  0
 15 13  1  0  0  0  0
 17 14  2  0  0  0  0
 18 19  3  0  0  0  0
 20 23  1  0  0  0  0
 22 21  1  0  0  0  0
 22 20  2  0  0  0  0
 23 24  1  0  0  0  0
 24 25  1  0  0  0  0
 25 26  1  0  0  0  0
 25 27  1  1  0  0  0
 28 25  1  0  0  0  0
 28 31  1  0  0  0  0
 30 29  1  0  0  0  0
 31 32  1  0  0  0  0
 32 33  1  0  0  0  0
 33 29  1  0  0  0  0
 34 31  1  0  0  0  0
 34 30  1  0  0  0  0
M  END
>  <MODEL>
9

>  <REMARK>
 VINA RESULT:      -4.8      3.470      8.101
  Name = 
  8 active torsions:
  status: ('A' for Active; 'I' for Inactive)
    1  A    between atoms: C_2  and  C_29
    2  A    between atoms: C_5  and  C_12
    3  A    between atoms: C_5  and  C_27
    4  A    between atoms: C_6  and  C_10
    5  A    between atoms: C_12  and  C_15
    6  A    between atoms: C_13  and  C_19
    7  A    between atoms: C_14  and  C_15
    8  A    between atoms: N_18  and  C_27
                            x       y       z     vdW  Elec       q    Type
                         _______ _______ _______ _____ _____    ______ ____

>  <TORSDO>
F 8

$$$$
