=
 OpenBabel11072415013D

 39 42  0  0  1  0  0  0  0  0999 V2000
  161.6590  208.0640  148.6800 C   0  0  0  0  0  2  0  0  0  0  0  0
  162.2970  209.0440  149.6530 C   0  0  2  0  0  3  0  0  0  0  0  0
  162.1760  206.6590  148.9360 C   0  0  0  0  0  2  0  0  0  0  0  0
  162.5490  206.1890  152.0090 C   0  0  0  0  0  0  0  0  0  0  0  0
  161.2070  205.8740  149.8180 C   0  0  2  0  0  3  0  0  0  0  0  0
  163.8900  205.7180  151.5680 C   0  0  0  0  0  1  0  0  0  0  0  0
  161.2170  209.6750  150.5280 C   0  0  1  0  0  3  0  0  0  0  0  0
  163.0160  211.4680  149.6930 C   0  0  0  0  0  1  0  0  0  0  0  0
  162.2800  206.6380  153.2070 O   0  0  0  0  0  0  0  0  0  0  0  0
  161.8000  209.9660  151.8990 C   0  0  0  0  0  2  0  0  0  0  0  0
  160.3050  207.5740  154.3810 C   0  0  0  0  0  2  0  0  0  0  0  0
  161.8770  210.4910  149.4150 C   0  0  1  0  0  0  0  0  0  0  0  0
  161.0070  206.9670  153.2100 C   0  0  0  0  0  0  0  0  0  0  0  0
  160.6780  210.0720  152.9160 C   0  0  0  0  0  2  0  0  0  0  0  0
  161.3890  206.2430  151.2620 C   0  0  0  0  0  0  0  0  0  0  0  0
  161.9800  210.8900  154.9030 N   0  0  0  0  0  2  0  0  0  0  0  0
  161.0580  208.7100  154.9080 N   0  0  0  0  0  0  0  0  0  0  0  0
  161.2240  209.8450  154.2890 C   0  0  0  0  0  0  0  0  0  0  0  0
  160.3960  206.7360  152.0280 N   0  0  0  0  0  0  0  0  0  0  0  0
  162.5480  210.7650  156.2370 C   0  0  0  0  0  2  0  0  0  0  0  0
  161.7160  211.4830  157.1840 N   0  0  0  0  0  1  0  0  0  0  0  0
  161.1140  210.6880  148.2510 O   0  0  0  0  0  0  0  0  0  0  0  0
  161.4570  211.9540  147.7630 C   0  0  0  0  0  2  0  0  0  0  0  0
  160.8370  212.6760  145.4570 O   0  0  0  0  0  0  0  0  0  0  0  0
  160.4490  212.3970  146.7610 C   0  0  0  0  0  0  0  0  0  0  0  0
  159.2410  212.5130  147.0960 O   0  0  0  0  0  1  0  0  0  0  0  0
  161.2910  204.3520  149.5920 C   0  0  2  0  0  3  0  0  0  0  0  0
  161.1270  204.0350  148.0910 C   0  0  2  0  0  3  0  0  0  0  0  0
  160.9610  204.1740  145.1620 C   0  0  0  0  0  2  0  0  0  0  0  0
  160.4680  202.2570  146.4110 C   0  0  0  0  0  2  0  0  0  0  0  0
  161.0580  202.5340  147.7910 C   0  0  0  0  0  2  0  0  0  0  0  0
  161.3320  202.7800  145.3600 N   0  0  0  0  0  2  0  0  0  0  0  0
  161.9050  205.1140  145.9130 C   0  0  0  0  0  2  0  0  0  0  0  0
  162.2980  204.6350  147.3140 C   0  0  0  0  0  2  0  0  0  0  0  0
  160.2840  203.7170  150.3480 O   0  0  0  0  0  0  0  0  0  0  0  0
  160.8900  202.8510  151.2850 C   0  0  0  0  0  0  0  0  0  0  0  0
  160.4960  203.1520  152.5780 F   0  0  0  0  0  0  0  0  0  0  0  0
  160.5900  201.5300  151.0040 F   0  0  0  0  0  0  0  0  0  0  0  0
  162.2590  203.0090  151.2040 F   0  0  0  0  0  0  0  0  0  0  0  0
  1  3  1  0  0  0  0
  2  1  1  6  0  0  0
  2  7  1  0  0  0  0
  3  5  1  0  0  0  0
  4  9  1  0  0  0  0
  5 27  1  1  0  0  0
  5 15  1  0  0  0  0
  6  4  1  0  0  0  0
  7 10  1  1  0  0  0
  9 13  1  0  0  0  0
 10 14  1  0  0  0  0
 11 17  1  0  0  0  0
 12  2  1  0  0  0  0
 12  8  1  1  0  0  0
 12  7  1  0  0  0  0
 13 11  1  0  0  0  0
 14 18  1  0  0  0  0
 15  4  2  0  0  0  0
 15 19  1  0  0  0  0
 16 20  1  0  0  0  0
 18 16  1  0  0  0  0
 18 17  2  0  0  0  0
 19 13  2  0  0  0  0
 20 21  1  0  0  0  0
 22 12  1  0  0  0  0
 23 22  1  0  0  0  0
 24 25  2  0  0  0  0
 25 26  1  0  0  0  0
 25 23  1  0  0  0  0
 27 35  1  1  0  0  0
 28 27  1  1  0  0  0
 29 32  1  0  0  0  0
 29 33  1  0  0  0  0
 30 31  1  0  0  0  0
 31 28  1  0  0  0  0
 32 30  1  0  0  0  0
 33 34  1  0  0  0  0
 34 28  1  0  0  0  0
 35 36  1  0  0  0  0
 36 37  1  0  0  0  0
 38 36  1  0  0  0  0
 39 36  1  0  0  0  0
M  END
>  <MODEL>
1

>  <REMARK>
 VINA RESULT:      -5.3      0.000      0.000
  Name = 
  8 active torsions:
  status: ('A' for Active; 'I' for Inactive)
    1  A    between atoms: O_1  and  C_23
    2  A    between atoms: O_1  and  C_30
    3  A    between atoms: C_3  and  O_14
    4  A    between atoms: C_7  and  C_31
    5  A    between atoms: C_10  and  C_31
    6  A    between atoms: C_13  and  C_30
    7  A    between atoms: O_14  and  C_31
    8  A    between atoms: C_25  and  N_34
                            x       y       z     vdW  Elec       q    Type
                         _______ _______ _______ _____ _____    ______ ____

>  <TORSDO>
F 8

$$$$
=
 OpenBabel11072415013D

 39 42  0  0  1  0  0  0  0  0999 V2000
  161.1350  205.6840  152.3230 C   0  0  0  0  0  2  0  0  0  0  0  0
  160.5660  207.0940  152.2770 C   0  0  2  0  0  3  0  0  0  0  0  0
  160.6720  204.8920  151.1130 C   0  0  0  0  0  2  0  0  0  0  0  0
  160.5850  206.7370  148.5840 C   0  0  0  0  0  0  0  0  0  0  0  0
  161.7320  204.9080  150.0130 C   0  0  2  0  0  3  0  0  0  0  0  0
  159.2190  206.1570  148.4590 C   0  0  0  0  0  1  0  0  0  0  0  0
  161.7060  208.1050  152.1880 C   0  0  1  0  0  3  0  0  0  0  0  0
  159.8030  208.8770  153.9000 C   0  0  0  0  0  1  0  0  0  0  0  0
  160.9500  207.8850  148.0760 O   0  0  0  0  0  0  0  0  0  0  0  0
  161.2410  209.3030  151.3810 C   0  0  0  0  0  2  0  0  0  0  0  0
  163.0020  209.2790  148.0600 C   0  0  0  0  0  2  0  0  0  0  0  0
  160.9330  207.9340  153.4970 C   0  0  1  0  0  0  0  0  0  0  0  0
  162.2110  208.0590  148.4040 C   0  0  0  0  0  0  0  0  0  0  0  0
  162.4470  210.0390  150.8250 C   0  0  0  0  0  2  0  0  0  0  0  0
  161.6720  206.1940  149.2400 C   0  0  0  0  0  0  0  0  0  0  0  0
  161.3110  212.0790  149.8980 N   0  0  0  0  0  2  0  0  0  0  0  0
  162.2750  210.4910  148.4310 N   0  0  0  0  0  0  0  0  0  0  0  0
  162.0310  210.8700  149.6530 C   0  0  0  0  0  0  0  0  0  0  0  0
  162.7180  207.0340  149.1240 N   0  0  0  0  0  0  0  0  0  0  0  0
  160.8670  212.9550  148.8240 C   0  0  0  0  0  2  0  0  0  0  0  0
  161.8660  213.9820  148.5960 N   0  0  0  0  0  1  0  0  0  0  0  0
  161.5840  207.2180  154.5160 O   0  0  0  0  0  0  0  0  0  0  0  0
  160.7090  207.2010  155.6090 C   0  0  0  0  0  2  0  0  0  0  0  0
  160.1770  208.9930  157.2600 O   0  0  0  0  0  1  0  0  0  0  0  0
  161.1300  208.2230  156.6060 C   0  0  0  0  0  0  0  0  0  0  0  0
  162.3520  208.3860  156.8600 O   0  0  0  0  0  0  0  0  0  0  0  0
  161.6600  203.6730  149.0940 C   0  0  2  0  0  3  0  0  0  0  0  0
  161.5970  204.1200  147.6190 C   0  0  2  0  0  3  0  0  0  0  0  0
  161.9800  205.4880  145.0480 C   0  0  0  0  0  2  0  0  0  0  0  0
  160.4200  203.7780  145.4020 C   0  0  0  0  0  2  0  0  0  0  0  0
  160.8470  203.1330  146.7180 C   0  0  0  0  0  2  0  0  0  0  0  0
  161.5810  204.1580  144.6070 N   0  0  0  0  0  2  0  0  0  0  0  0
  163.1340  205.4190  146.0490 C   0  0  0  0  0  2  0  0  0  0  0  0
  163.0160  204.2910  147.0800 C   0  0  0  0  0  2  0  0  0  0  0  0
  160.5210  202.9120  149.4330 O   0  0  0  0  0  0  0  0  0  0  0  0
  160.9340  201.6290  149.8530 C   0  0  0  0  0  0  0  0  0  0  0  0
  161.7100  201.0070  148.8880 F   0  0  0  0  0  0  0  0  0  0  0  0
  161.6410  201.7000  151.0400 F   0  0  0  0  0  0  0  0  0  0  0  0
  159.8100  200.8550  150.0650 F   0  0  0  0  0  0  0  0  0  0  0  0
  2  1  1  1  0  0  0
  2 12  1  0  0  0  0
  3  1  1  0  0  0  0
  4 15  2  0  0  0  0
  5 27  1  6  0  0  0
  5  3  1  0  0  0  0
  6  4  1  0  0  0  0
  7 10  1  6  0  0  0
  7  2  1  0  0  0  0
  7 12  1  0  0  0  0
  9 13  1  0  0  0  0
  9  4  1  0  0  0  0
 11 13  1  0  0  0  0
 11 17  1  0  0  0  0
 12  8  1  1  0  0  0
 12 22  1  0  0  0  0
 13 19  2  0  0  0  0
 14 10  1  0  0  0  0
 15  5  1  0  0  0  0
 17 18  2  0  0  0  0
 18 16  1  0  0  0  0
 18 14  1  0  0  0  0
 19 15  1  0  0  0  0
 20 16  1  0  0  0  0
 21 20  1  0  0  0  0
 22 23  1  0  0  0  0
 23 25  1  0  0  0  0
 25 26  2  0  0  0  0
 25 24  1  0  0  0  0
 27 35  1  1  0  0  0
 28 27  1  1  0  0  0
 29 33  1  0  0  0  0
 30 31  1  0  0  0  0
 31 28  1  0  0  0  0
 32 29  1  0  0  0  0
 32 30  1  0  0  0  0
 33 34  1  0  0  0  0
 34 28  1  0  0  0  0
 35 36  1  0  0  0  0
 36 39  1  0  0  0  0
 36 38  1  0  0  0  0
 37 36  1  0  0  0  0
M  END
>  <MODEL>
2

>  <REMARK>
 VINA RESULT:      -3.8      2.594      5.324
  Name = 
  8 active torsions:
  status: ('A' for Active; 'I' for Inactive)
    1  A    between atoms: O_1  and  C_23
    2  A    between atoms: O_1  and  C_30
    3  A    between atoms: C_3  and  O_14
    4  A    between atoms: C_7  and  C_31
    5  A    between atoms: C_10  and  C_31
    6  A    between atoms: C_13  and  C_30
    7  A    between atoms: O_14  and  C_31
    8  A    between atoms: C_25  and  N_34
                            x       y       z     vdW  Elec       q    Type
                         _______ _______ _______ _____ _____    ______ ____

>  <TORSDO>
F 8

$$$$
=
 OpenBabel11072415013D

 39 42  0  0  1  0  0  0  0  0999 V2000
  160.8910  207.1070  151.6970 C   0  0  0  0  0  2  0  0  0  0  0  0
  161.8450  207.7390  150.6940 C   0  0  2  0  0  3  0  0  0  0  0  0
  161.1270  207.6840  153.0810 C   0  0  0  0  0  2  0  0  0  0  0  0
  161.7940  210.7380  152.8780 C   0  0  0  0  0  0  0  0  0  0  0  0
  160.1390  208.8100  153.3780 C   0  0  2  0  0  3  0  0  0  0  0  0
  162.9350  210.3390  153.7470 C   0  0  0  0  0  1  0  0  0  0  0  0
  161.0480  208.4940  149.6330 C   0  0  1  0  0  3  0  0  0  0  0  0
  163.0610  207.0880  148.5740 C   0  0  0  0  0  1  0  0  0  0  0  0
  161.7860  211.7920  152.1050 O   0  0  0  0  0  0  0  0  0  0  0  0
  161.8560  209.6930  149.1710 C   0  0  0  0  0  2  0  0  0  0  0  0
  160.2270  212.8200  150.4730 C   0  0  0  0  0  2  0  0  0  0  0  0
  161.7140  207.1610  149.2880 C   0  0  1  0  0  0  0  0  0  0  0  0
  160.6230  211.8020  151.4920 C   0  0  0  0  0  0  0  0  0  0  0  0
  160.9260  210.7260  148.5600 C   0  0  0  0  0  2  0  0  0  0  0  0
  160.5830  210.0890  152.7290 C   0  0  0  0  0  0  0  0  0  0  0  0
  162.6210  212.3280  147.6260 N   0  0  0  0  0  2  0  0  0  0  0  0
  161.2660  212.9730  149.4570 N   0  0  0  0  0  0  0  0  0  0  0  0
  161.5870  212.0680  148.5770 C   0  0  0  0  0  0  0  0  0  0  0  0
  159.8280  210.7690  151.8460 N   0  0  0  0  0  0  0  0  0  0  0  0
  163.3200  213.6030  147.5610 C   0  0  0  0  0  2  0  0  0  0  0  0
  162.6810  214.4530  146.5750 N   0  0  0  0  0  1  0  0  0  0  0  0
  160.8640  206.0450  149.1990 O   0  0  0  0  0  0  0  0  0  0  0  0
  161.4620  205.1640  148.2900 C   0  0  0  0  0  2  0  0  0  0  0  0
  161.0420  203.4830  150.0840 O   0  0  0  0  0  1  0  0  0  0  0  0
  161.2560  203.7600  148.7400 C   0  0  0  0  0  0  0  0  0  0  0  0
  161.2700  202.8230  147.8990 O   0  0  0  0  0  0  0  0  0  0  0  0
  159.8680  208.9860  154.8850 C   0  0  2  0  0  3  0  0  0  0  0  0
  159.5430  210.4630  155.1910 C   0  0  2  0  0  3  0  0  0  0  0  0
  158.4100  213.1720  155.2240 C   0  0  0  0  0  2  0  0  0  0  0  0
  160.2620  212.5120  156.4960 C   0  0  0  0  0  2  0  0  0  0  0  0
  160.2320  210.9860  156.4550 C   0  0  0  0  0  2  0  0  0  0  0  0
  158.9120  213.0570  156.5870 N   0  0  0  0  0  2  0  0  0  0  0  0
  157.5210  211.9840  154.8560 C   0  0  0  0  0  2  0  0  0  0  0  0
  158.0330  210.6280  155.3540 C   0  0  0  0  0  2  0  0  0  0  0  0
  161.0020  208.5650  155.6100 O   0  0  0  0  0  0  0  0  0  0  0  0
  160.6420  207.4770  156.4350 C   0  0  0  0  0  0  0  0  0  0  0  0
  159.5740  207.7970  157.2570 F   0  0  0  0  0  0  0  0  0  0  0  0
  160.3250  206.3640  155.6760 F   0  0  0  0  0  0  0  0  0  0  0  0
  161.7220  207.1590  157.2360 F   0  0  0  0  0  0  0  0  0  0  0  0
  1  3  1  0  0  0  0
  2  1  1  1  0  0  0
  3  5  1  0  0  0  0
  4  6  1  0  0  0  0
  5 27  1  1  0  0  0
  7 10  1  6  0  0  0
  7  2  1  0  0  0  0
  9  4  1  0  0  0  0
 11 13  1  0  0  0  0
 12  8  1  6  0  0  0
 12  7  1  0  0  0  0
 12  2  1  0  0  0  0
 13 19  2  0  0  0  0
 13  9  1  0  0  0  0
 14 18  1  0  0  0  0
 14 10  1  0  0  0  0
 15  4  2  0  0  0  0
 15  5  1  0  0  0  0
 16 18  1  0  0  0  0
 17 11  1  0  0  0  0
 18 17  2  0  0  0  0
 19 15  1  0  0  0  0
 20 16  1  0  0  0  0
 21 20  1  0  0  0  0
 22 12  1  0  0  0  0
 23 25  1  0  0  0  0
 23 22  1  0  0  0  0
 25 24  1  0  0  0  0
 26 25  2  0  0  0  0
 27 35  1  1  0  0  0
 28 27  1  1  0  0  0
 28 34  1  0  0  0  0
 28 31  1  0  0  0  0
 29 32  1  0  0  0  0
 30 32  1  0  0  0  0
 31 30  1  0  0  0  0
 33 29  1  0  0  0  0
 33 34  1  0  0  0  0
 35 36  1  0  0  0  0
 36 39  1  0  0  0  0
 36 37  1  0  0  0  0
 38 36  1  0  0  0  0
M  END
>  <MODEL>
3

>  <REMARK>
 VINA RESULT:      -2.5      3.426      7.895
  Name = 
  8 active torsions:
  status: ('A' for Active; 'I' for Inactive)
    1  A    between atoms: O_1  and  C_23
    2  A    between atoms: O_1  and  C_30
    3  A    between atoms: C_3  and  O_14
    4  A    between atoms: C_7  and  C_31
    5  A    between atoms: C_10  and  C_31
    6  A    between atoms: C_13  and  C_30
    7  A    between atoms: O_14  and  C_31
    8  A    between atoms: C_25  and  N_34
                            x       y       z     vdW  Elec       q    Type
                         _______ _______ _______ _____ _____    ______ ____

>  <TORSDO>
F 8

$$$$
