=
 OpenBabel11072411033D

 30 32  0  0  1  0  0  0  0  0999 V2000
  158.8740  211.9480  152.3860 C   0  0  1  0  0  3  0  0  0  0  0  0
  159.3700  210.8970  154.6010 C   0  0  2  0  0  3  0  0  0  0  0  0
  161.1210  209.4680  154.2240 C   0  0  2  0  0  3  0  0  0  0  0  0
  160.2050  211.1760  152.4460 C   0  0  0  0  0  2  0  0  0  0  0  0
  159.3250  209.8600  155.6840 C   0  0  0  0  0  2  0  0  0  0  0  0
  160.5970  209.1190  155.5630 N   0  0  0  0  0  0  0  0  0  0  0  0
  157.8620  211.5440  153.8830 S   0  0  0  0  0  0  0  0  0  0  0  0
  159.9750  210.1420  153.5090 C   0  0  2  0  0  3  0  0  0  0  0  0
  161.5660  205.9590  151.7460 C   0  0  0  0  0  0  0  0  0  0  0  0
  160.8500  206.9490  153.8910 C   0  0  0  0  0  2  0  0  0  0  0  0
  161.0090  205.1430  150.8970 C   0  0  0  0  0  0  0  0  0  0  0  0
  161.6090  208.4160  151.9820 C   0  0  0  0  0  2  0  0  0  0  0  0
  160.4820  204.3660  150.0900 O   0  0  0  0  0  0  0  0  0  0  0  0
  162.2290  207.2120  151.2750 C   0  0  0  0  0  2  0  0  0  0  0  0
  161.4530  205.7190  153.2170 C   0  0  0  0  0  2  0  0  0  0  0  0
  161.6260  208.2150  153.5000 C   0  0  0  0  0  3  0  0  0  0  0  0
  161.5350  209.6290  156.5720 C   0  0  1  0  0  3  0  0  0  0  0  0
  162.3660  208.5990  157.0260 O   0  0  0  0  0  1  0  0  0  0  0  0
  163.6060  210.8120  156.6920 O   0  0  0  0  0  1  0  0  0  0  0  0
  162.4070  210.7310  155.9850 C   0  0  0  0  0  2  0  0  0  0  0  0
  159.1720  213.4380  152.3240 C   0  0  0  0  0  2  0  0  0  0  0  0
  158.3520  214.1150  151.2730 C   0  0  0  0  0  0  0  0  0  0  0  0
  157.1510  214.3980  151.5120 O   0  0  0  0  0  0  0  0  0  0  0  0
  158.9180  214.4530  150.0040 N   0  0  0  0  0  2  0  0  0  0  0  0
  160.2600  214.1940  149.6880 N   0  0  0  0  0  2  0  0  0  0  0  0
  160.2840  213.4810  148.4220 C   0  0  0  0  0  2  0  0  0  0  0  0
  162.4850  212.2690  148.2630 C   0  0  0  0  0  0  0  0  0  0  0  0
  161.9860  211.1850  149.0390 N   0  0  0  0  0  1  0  0  0  0  0  0
  163.6760  212.2470  147.8560 O   0  0  0  0  0  0  0  0  0  0  0  0
  161.6540  213.3850  147.9480 N   0  0  0  0  0  2  0  0  0  0  0  0
  1 21  1  1  0  0  0
  1  4  1  0  0  0  0
  1  7  1  0  0  0  0
  2  5  1  1  0  0  0
  3 16  1  6  0  0  0
  3  6  1  0  0  0  0
  6  5  1  0  0  0  0
  6 17  1  0  0  0  0
  7  2  1  0  0  0  0
  8  4  1  6  0  0  0
  8  3  1  0  0  0  0
  8  2  1  0  0  0  0
  9 15  1  0  0  0  0
 11  9  2  0  0  0  0
 12 16  1  0  0  0  0
 13 11  2  0  0  0  0
 14  9  1  0  0  0  0
 14 12  1  0  0  0  0
 15 10  1  0  0  0  0
 16 10  1  0  0  0  0
 17 18  1  6  0  0  0
 20 17  1  0  0  0  0
 20 19  1  0  0  0  0
 22 23  2  0  0  0  0
 22 21  1  0  0  0  0
 24 22  1  0  0  0  0
 25 24  1  0  0  0  0
 26 25  1  0  0  0  0
 27 28  1  0  0  0  0
 29 27  2  0  0  0  0
 30 27  1  0  0  0  0
 30 26  1  0  0  0  0
M  END
>  <MODEL>
1

>  <REMARK>
 VINA RESULT:      -6.5      0.000      0.000
  Name = 
  8 active torsions:
  status: ('A' for Active; 'I' for Inactive)
    1  A    between atoms: C_4  and  C_25
    2  A    between atoms: N_5  and  C_7
    3  A    between atoms: N_5  and  N_26
    4  A    between atoms: C_6  and  C_21
    5  A    between atoms: C_7  and  N_29
    6  A    between atoms: C_10  and  C_24
    7  A    between atoms: C_13  and  C_21
    8  A    between atoms: N_22  and  C_25
                            x       y       z     vdW  Elec       q    Type
                         _______ _______ _______ _____ _____    ______ ____

>  <TORSDO>
F 8

$$$$
=
 OpenBabel11072411033D

 30 32  0  0  1  0  0  0  0  0999 V2000
  161.7710  206.6730  149.6950 C   0  0  1  0  0  3  0  0  0  0  0  0
  161.3590  208.2780  151.5690 C   0  0  2  0  0  3  0  0  0  0  0  0
  161.2140  210.3430  150.5880 C   0  0  2  0  0  3  0  0  0  0  0  0
  161.3400  208.0820  149.2500 C   0  0  0  0  0  2  0  0  0  0  0  0
  161.6920  209.2870  152.6280 C   0  0  0  0  0  2  0  0  0  0  0  0
  161.3430  210.5960  152.0390 N   0  0  0  0  0  0  0  0  0  0  0  0
  162.2150  206.7070  151.4930 S   0  0  0  0  0  0  0  0  0  0  0  0
  161.8040  208.9720  150.3650 C   0  0  2  0  0  3  0  0  0  0  0  0
  162.5120  213.1470  147.5700 C   0  0  0  0  0  0  0  0  0  0  0  0
  162.6670  210.8900  148.5580 C   0  0  0  0  0  2  0  0  0  0  0  0
  162.3600  213.5930  146.3550 C   0  0  0  0  0  0  0  0  0  0  0  0
  160.9440  212.5420  149.3790 C   0  0  0  0  0  2  0  0  0  0  0  0
  162.2180  214.0180  145.2010 O   0  0  0  0  0  0  0  0  0  0  0  0
  161.6820  213.6880  148.6890 C   0  0  0  0  0  2  0  0  0  0  0  0
  163.4340  212.0050  147.8500 C   0  0  0  0  0  2  0  0  0  0  0  0
  161.9240  211.4390  149.7850 C   0  0  0  0  0  3  0  0  0  0  0  0
  160.0300  211.0070  152.5550 C   0  0  1  0  0  3  0  0  0  0  0  0
  159.8060  210.4430  153.8150 O   0  0  0  0  0  1  0  0  0  0  0  0
  158.7120  212.9730  152.2410 O   0  0  0  0  0  1  0  0  0  0  0  0
  159.9560  212.5230  152.6820 C   0  0  0  0  0  2  0  0  0  0  0  0
  160.6250  205.7050  149.4430 C   0  0  0  0  0  2  0  0  0  0  0  0
  161.0710  204.2850  149.5800 C   0  0  0  0  0  0  0  0  0  0  0  0
  160.7980  203.6490  150.6300 O   0  0  0  0  0  0  0  0  0  0  0  0
  161.7950  203.6370  148.5310 N   0  0  0  0  0  2  0  0  0  0  0  0
  162.1020  204.2810  147.3230 N   0  0  0  0  0  2  0  0  0  0  0  0
  161.3390  203.6300  146.2710 C   0  0  0  0  0  2  0  0  0  0  0  0
  161.1300  205.3700  144.4640 C   0  0  0  0  0  0  0  0  0  0  0  0
  160.1460  206.0800  145.2100 N   0  0  0  0  0  1  0  0  0  0  0  0
  161.4740  205.7920  143.3300 O   0  0  0  0  0  0  0  0  0  0  0  0
  161.7240  204.1820  144.9840 N   0  0  0  0  0  2  0  0  0  0  0  0
  1 21  1  1  0  0  0
  1  7  1  0  0  0  0
  2  5  1  1  0  0  0
  3 16  1  6  0  0  0
  3  6  1  0  0  0  0
  4  1  1  0  0  0  0
  6 17  1  0  0  0  0
  6  5  1  0  0  0  0
  7  2  1  0  0  0  0
  8  4  1  6  0  0  0
  8  3  1  0  0  0  0
  8  2  1  0  0  0  0
  9 15  1  0  0  0  0
  9 14  1  0  0  0  0
 10 16  1  0  0  0  0
 11  9  2  0  0  0  0
 12 16  1  0  0  0  0
 13 11  2  0  0  0  0
 14 12  1  0  0  0  0
 15 10  1  0  0  0  0
 17 20  1  0  0  0  0
 17 18  1  1  0  0  0
 19 20  1  0  0  0  0
 21 22  1  0  0  0  0
 22 23  2  0  0  0  0
 24 22  1  0  0  0  0
 25 24  1  0  0  0  0
 26 25  1  0  0  0  0
 27 30  1  0  0  0  0
 27 28  1  0  0  0  0
 29 27  2  0  0  0  0
 30 26  1  0  0  0  0
M  END
>  <MODEL>
2

>  <REMARK>
 VINA RESULT:      -6.1      3.959      7.559
  Name = 
  8 active torsions:
  status: ('A' for Active; 'I' for Inactive)
    1  A    between atoms: C_4  and  C_25
    2  A    between atoms: N_5  and  C_7
    3  A    between atoms: N_5  and  N_26
    4  A    between atoms: C_6  and  C_21
    5  A    between atoms: C_7  and  N_29
    6  A    between atoms: C_10  and  C_24
    7  A    between atoms: C_13  and  C_21
    8  A    between atoms: N_22  and  C_25
                            x       y       z     vdW  Elec       q    Type
                         _______ _______ _______ _____ _____    ______ ____

>  <TORSDO>
F 8

$$$$
=
 OpenBabel11072411033D

 30 32  0  0  1  0  0  0  0  0999 V2000
  161.8180  206.7760  149.6990 C   0  0  1  0  0  3  0  0  0  0  0  0
  161.4030  208.3690  151.5820 C   0  0  2  0  0  3  0  0  0  0  0  0
  161.2110  210.4340  150.6080 C   0  0  2  0  0  3  0  0  0  0  0  0
  161.3570  208.1790  149.2620 C   0  0  0  0  0  2  0  0  0  0  0  0
  161.7330  209.3810  152.6390 C   0  0  0  0  0  2  0  0  0  0  0  0
  161.3540  210.6850  152.0590 N   0  0  0  0  0  0  0  0  0  0  0  0
  162.2850  206.8130  151.4910 S   0  0  0  0  0  0  0  0  0  0  0  0
  161.8210  209.0730  150.3740 C   0  0  2  0  0  3  0  0  0  0  0  0
  162.4660  213.2230  147.5580 C   0  0  0  0  0  0  0  0  0  0  0  0
  162.7010  211.0020  148.6110 C   0  0  0  0  0  2  0  0  0  0  0  0
  162.3330  213.6300  146.3280 C   0  0  0  0  0  0  0  0  0  0  0  0
  160.8710  212.5850  149.3320 C   0  0  0  0  0  2  0  0  0  0  0  0
  162.2080  214.0180  145.1590 O   0  0  0  0  0  0  0  0  0  0  0  0
  161.5740  213.7490  148.6360 C   0  0  0  0  0  2  0  0  0  0  0  0
  163.4340  212.1360  147.8980 C   0  0  0  0  0  2  0  0  0  0  0  0
  161.8920  211.5440  149.7990 C   0  0  0  0  0  3  0  0  0  0  0  0
  160.0410  211.0720  152.5920 C   0  0  1  0  0  3  0  0  0  0  0  0
  159.8660  210.5480  153.8770 O   0  0  0  0  0  1  0  0  0  0  0  0
  158.6950  212.9920  152.1350 O   0  0  0  0  0  1  0  0  0  0  0  0
  159.9200  212.5880  152.6670 C   0  0  0  0  0  2  0  0  0  0  0  0
  160.6860  205.7890  149.4580 C   0  0  0  0  0  2  0  0  0  0  0  0
  161.2030  204.3970  149.2870 C   0  0  0  0  0  0  0  0  0  0  0  0
  161.2440  203.6250  150.2780 O   0  0  0  0  0  0  0  0  0  0  0  0
  161.6420  203.9280  148.0090 N   0  0  0  0  0  2  0  0  0  0  0  0
  161.5910  204.7290  146.8590 N   0  0  0  0  0  2  0  0  0  0  0  0
  162.0100  203.9100  145.7330 C   0  0  0  0  0  2  0  0  0  0  0  0
  160.3390  202.0880  145.2570 C   0  0  0  0  0  0  0  0  0  0  0  0
  160.9670  201.2170  146.1920 N   0  0  0  0  0  1  0  0  0  0  0  0
  159.3380  201.6880  144.6080 O   0  0  0  0  0  0  0  0  0  0  0  0
  160.8370  203.4080  145.0400 N   0  0  0  0  0  2  0  0  0  0  0  0
  1 21  1  1  0  0  0
  1  7  1  0  0  0  0
  2  5  1  1  0  0  0
  3 16  1  6  0  0  0
  3  6  1  0  0  0  0
  4  1  1  0  0  0  0
  6 17  1  0  0  0  0
  6  5  1  0  0  0  0
  7  2  1  0  0  0  0
  8  4  1  6  0  0  0
  8  3  1  0  0  0  0
  8  2  1  0  0  0  0
  9 15  1  0  0  0  0
  9 14  1  0  0  0  0
 10 16  1  0  0  0  0
 11  9  2  0  0  0  0
 12 16  1  0  0  0  0
 13 11  2  0  0  0  0
 14 12  1  0  0  0  0
 15 10  1  0  0  0  0
 17 20  1  0  0  0  0
 17 18  1  1  0  0  0
 19 20  1  0  0  0  0
 22 21  1  0  0  0  0
 22 23  2  0  0  0  0
 24 22  1  0  0  0  0
 25 24  1  0  0  0  0
 26 25  1  0  0  0  0
 27 28  1  0  0  0  0
 29 27  2  0  0  0  0
 30 27  1  0  0  0  0
 30 26  1  0  0  0  0
M  END
>  <MODEL>
3

>  <REMARK>
 VINA RESULT:      -6.0      4.220      7.991
  Name = 
  8 active torsions:
  status: ('A' for Active; 'I' for Inactive)
    1  A    between atoms: C_4  and  C_25
    2  A    between atoms: N_5  and  C_7
    3  A    between atoms: N_5  and  N_26
    4  A    between atoms: C_6  and  C_21
    5  A    between atoms: C_7  and  N_29
    6  A    between atoms: C_10  and  C_24
    7  A    between atoms: C_13  and  C_21
    8  A    between atoms: N_22  and  C_25
                            x       y       z     vdW  Elec       q    Type
                         _______ _______ _______ _____ _____    ______ ____

>  <TORSDO>
F 8

$$$$
=
 OpenBabel11072411033D

 30 32  0  0  1  0  0  0  0  0999 V2000
  160.8440  203.3160  151.3740 C   0  0  1  0  0  3  0  0  0  0  0  0
  160.8830  205.4090  150.0050 C   0  0  2  0  0  3  0  0  0  0  0  0
  161.8990  206.9850  151.3230 C   0  0  2  0  0  3  0  0  0  0  0  0
  161.7460  204.4310  151.9330 C   0  0  0  0  0  2  0  0  0  0  0  0
  160.4270  206.7500  149.5100 C   0  0  0  0  0  2  0  0  0  0  0  0
  161.2870  207.7310  150.2020 N   0  0  0  0  0  0  0  0  0  0  0  0
  159.7640  204.0120  150.0390 S   0  0  0  0  0  0  0  0  0  0  0  0
  161.1220  205.6940  151.4160 C   0  0  2  0  0  3  0  0  0  0  0  0
  160.7000  209.3200  154.7520 C   0  0  0  0  0  0  0  0  0  0  0  0
  161.3670  209.2510  152.3760 C   0  0  0  0  0  2  0  0  0  0  0  0
  159.7220  209.8880  155.4000 C   0  0  0  0  0  0  0  0  0  0  0  0
  160.9850  207.1190  153.6720 C   0  0  0  0  0  2  0  0  0  0  0  0
  158.7950  210.4290  156.0170 O   0  0  0  0  0  0  0  0  0  0  0  0
  161.0400  207.8850  154.9920 C   0  0  0  0  0  2  0  0  0  0  0  0
  161.4250  210.0560  153.6730 C   0  0  0  0  0  2  0  0  0  0  0  0
  161.8470  207.8110  152.6120 C   0  0  0  0  0  3  0  0  0  0  0  0
  162.3560  208.1470  149.2850 C   0  0  1  0  0  3  0  0  0  0  0  0
  162.5780  207.1590  148.3180 O   0  0  0  0  0  1  0  0  0  0  0  0
  162.2100  210.5270  149.4230 O   0  0  0  0  0  1  0  0  0  0  0  0
  161.9820  209.4420  148.5760 C   0  0  0  0  0  2  0  0  0  0  0  0
  161.7220  202.2000  150.8280 C   0  0  0  0  0  2  0  0  0  0  0  0
  160.9330  201.2480  149.9880 C   0  0  0  0  0  0  0  0  0  0  0  0
  160.1090  200.4730  150.5380 O   0  0  0  0  0  0  0  0  0  0  0  0
  161.0940  201.2120  148.5670 N   0  0  0  0  0  2  0  0  0  0  0  0
  161.9720  202.0730  147.8910 N   0  0  0  0  0  2  0  0  0  0  0  0
  161.1850  202.8570  146.9550 C   0  0  0  0  0  2  0  0  0  0  0  0
  161.6470  204.8310  145.4620 C   0  0  0  0  0  0  0  0  0  0  0  0
  160.7000  204.3740  144.5020 N   0  0  0  0  0  1  0  0  0  0  0  0
  162.2950  205.8870  145.2430 O   0  0  0  0  0  0  0  0  0  0  0  0
  161.8770  204.1010  146.6660 N   0  0  0  0  0  2  0  0  0  0  0  0
  1 21  1  6  0  0  0
  1  4  1  0  0  0  0
  2  5  1  1  0  0  0
  2  7  1  0  0  0  0
  2  8  1  0  0  0  0
  3  8  1  0  0  0  0
  3 16  1  1  0  0  0
  5  6  1  0  0  0  0
  6  3  1  0  0  0  0
  7  1  1  0  0  0  0
  8  4  1  6  0  0  0
  9 14  1  0  0  0  0
  9 11  2  0  0  0  0
 10 16  1  0  0  0  0
 10 15  1  0  0  0  0
 11 13  2  0  0  0  0
 12 14  1  0  0  0  0
 15  9  1  0  0  0  0
 16 12  1  0  0  0  0
 17 18  1  6  0  0  0
 17  6  1  0  0  0  0
 20 17  1  0  0  0  0
 20 19  1  0  0  0  0
 22 23  2  0  0  0  0
 22 21  1  0  0  0  0
 24 22  1  0  0  0  0
 25 24  1  0  0  0  0
 26 25  1  0  0  0  0
 27 30  1  0  0  0  0
 28 27  1  0  0  0  0
 29 27  2  0  0  0  0
 30 26  1  0  0  0  0
M  END
>  <MODEL>
4

>  <REMARK>
 VINA RESULT:      -6.0      4.432      8.255
  Name = 
  8 active torsions:
  status: ('A' for Active; 'I' for Inactive)
    1  A    between atoms: C_4  and  C_25
    2  A    between atoms: N_5  and  C_7
    3  A    between atoms: N_5  and  N_26
    4  A    between atoms: C_6  and  C_21
    5  A    between atoms: C_7  and  N_29
    6  A    between atoms: C_10  and  C_24
    7  A    between atoms: C_13  and  C_21
    8  A    between atoms: N_22  and  C_25
                            x       y       z     vdW  Elec       q    Type
                         _______ _______ _______ _____ _____    ______ ____

>  <TORSDO>
F 8

$$$$
=
 OpenBabel11072411033D

 30 32  0  0  1  0  0  0  0  0999 V2000
  161.2150  203.8900  149.9920 C   0  0  1  0  0  3  0  0  0  0  0  0
  161.3270  205.1450  152.1520 C   0  0  2  0  0  3  0  0  0  0  0  0
  161.1810  207.3600  151.5830 C   0  0  2  0  0  3  0  0  0  0  0  0
  160.8350  205.3780  149.8890 C   0  0  0  0  0  2  0  0  0  0  0  0
  161.9530  205.9240  153.2720 C   0  0  0  0  0  2  0  0  0  0  0  0
  161.6150  207.3350  152.9970 N   0  0  0  0  0  0  0  0  0  0  0  0
  162.0060  203.5700  151.6360 S   0  0  0  0  0  0  0  0  0  0  0  0
  161.5890  206.0220  151.0150 C   0  0  2  0  0  3  0  0  0  0  0  0
  161.9610  210.8740  149.1950 C   0  0  0  0  0  0  0  0  0  0  0  0
  161.7040  208.4210  149.3180 C   0  0  0  0  0  2  0  0  0  0  0  0
  161.4710  211.7950  148.4150 C   0  0  0  0  0  0  0  0  0  0  0  0
  161.2260  209.8710  151.3280 C   0  0  0  0  0  2  0  0  0  0  0  0
  161.0080  212.6720  147.6730 O   0  0  0  0  0  0  0  0  0  0  0  0
  161.9510  211.0480  150.6790 C   0  0  0  0  0  2  0  0  0  0  0  0
  162.4340  209.5730  148.6310 C   0  0  0  0  0  2  0  0  0  0  0  0
  161.8170  208.5440  150.8450 C   0  0  0  0  0  3  0  0  0  0  0  0
  160.4720  207.7160  153.8370 C   0  0  1  0  0  3  0  0  0  0  0  0
  160.1580  206.6830  154.7260 O   0  0  0  0  0  1  0  0  0  0  0  0
  161.2750  208.6070  155.9030 O   0  0  0  0  0  1  0  0  0  0  0  0
  160.7940  208.9680  154.6440 C   0  0  0  0  0  2  0  0  0  0  0  0
  159.9590  203.0480  149.8260 C   0  0  0  0  0  2  0  0  0  0  0  0
  160.2670  201.7270  149.1990 C   0  0  0  0  0  0  0  0  0  0  0  0
  160.0380  200.6700  149.8400 O   0  0  0  0  0  0  0  0  0  0  0  0
  160.8080  201.6480  147.8780 N   0  0  0  0  0  2  0  0  0  0  0  0
  161.0550  202.7890  147.1000 N   0  0  0  0  0  2  0  0  0  0  0  0
  160.9170  202.4080  145.7040 C   0  0  0  0  0  2  0  0  0  0  0  0
  161.5120  204.7080  144.8730 C   0  0  0  0  0  0  0  0  0  0  0  0
  162.7340  204.6970  145.6050 N   0  0  0  0  0  1  0  0  0  0  0  0
  161.2040  205.7210  144.1920 O   0  0  0  0  0  0  0  0  0  0  0  0
  160.6300  203.5880  144.9080 N   0  0  0  0  0  2  0  0  0  0  0  0
  1 21  1  1  0  0  0
  1  7  1  0  0  0  0
  2  5  1  1  0  0  0
  3 16  1  6  0  0  0
  3  6  1  0  0  0  0
  4  1  1  0  0  0  0
  6  5  1  0  0  0  0
  6 17  1  0  0  0  0
  7  2  1  0  0  0  0
  8  4  1  6  0  0  0
  8  3  1  0  0  0  0
  8  2  1  0  0  0  0
  9 14  1  0  0  0  0
 10 16  1  0  0  0  0
 11  9  2  0  0  0  0
 13 11  2  0  0  0  0
 14 12  1  0  0  0  0
 15  9  1  0  0  0  0
 15 10  1  0  0  0  0
 16 12  1  0  0  0  0
 17 20  1  0  0  0  0
 17 18  1  1  0  0  0
 20 19  1  0  0  0  0
 22 21  1  0  0  0  0
 22 23  2  0  0  0  0
 24 22  1  0  0  0  0
 25 24  1  0  0  0  0
 26 25  1  0  0  0  0
 27 30  1  0  0  0  0
 27 28  1  0  0  0  0
 29 27  2  0  0  0  0
 30 26  1  0  0  0  0
M  END
>  <MODEL>
5

>  <REMARK>
 VINA RESULT:      -5.9      4.470      7.782
  Name = 
  8 active torsions:
  status: ('A' for Active; 'I' for Inactive)
    1  A    between atoms: C_4  and  C_25
    2  A    between atoms: N_5  and  C_7
    3  A    between atoms: N_5  and  N_26
    4  A    between atoms: C_6  and  C_21
    5  A    between atoms: C_7  and  N_29
    6  A    between atoms: C_10  and  C_24
    7  A    between atoms: C_13  and  C_21
    8  A    between atoms: N_22  and  C_25
                            x       y       z     vdW  Elec       q    Type
                         _______ _______ _______ _____ _____    ______ ____

>  <TORSDO>
F 8

$$$$
=
 OpenBabel11072411033D

 30 32  0  0  1  0  0  0  0  0999 V2000
  160.8180  208.8300  154.9740 C   0  0  1  0  0  3  0  0  0  0  0  0
  161.7350  209.5680  152.7670 C   0  0  2  0  0  3  0  0  0  0  0  0
  161.3820  207.8120  151.3380 C   0  0  2  0  0  3  0  0  0  0  0  0
  160.4250  207.9350  153.7850 C   0  0  0  0  0  2  0  0  0  0  0  0
  162.7360  209.7030  151.6570 C   0  0  0  0  0  2  0  0  0  0  0  0
  162.3180  208.7190  150.6380 N   0  0  0  0  0  0  0  0  0  0  0  0
  162.1710  209.9840  154.4540 S   0  0  0  0  0  0  0  0  0  0  0  0
  161.5470  208.1220  152.8060 C   0  0  2  0  0  3  0  0  0  0  0  0
  161.1820  203.6140  150.3430 C   0  0  0  0  0  0  0  0  0  0  0  0
  161.2100  205.3720  152.0770 C   0  0  0  0  0  2  0  0  0  0  0  0
  160.4230  202.5800  150.1190 C   0  0  0  0  0  0  0  0  0  0  0  0
  161.1110  205.9760  149.6280 C   0  0  0  0  0  2  0  0  0  0  0  0
  159.7030  201.5950  149.9050 O   0  0  0  0  0  0  0  0  0  0  0  0
  161.5290  204.5590  149.2390 C   0  0  0  0  0  2  0  0  0  0  0  0
  161.6250  203.9430  151.7320 C   0  0  0  0  0  2  0  0  0  0  0  0
  161.6900  206.3510  150.9950 C   0  0  0  0  0  3  0  0  0  0  0  0
  161.5760  209.4230  149.5840 C   0  0  1  0  0  3  0  0  0  0  0  0
  161.9570  210.7690  149.5380 O   0  0  0  0  0  1  0  0  0  0  0  0
  163.0640  208.1050  148.2600 O   0  0  0  0  0  1  0  0  0  0  0  0
  161.8520  208.7950  148.2240 C   0  0  0  0  0  2  0  0  0  0  0  0
  159.5930  209.6090  155.4300 C   0  0  0  0  0  2  0  0  0  0  0  0
  159.9800  210.8450  156.1760 C   0  0  0  0  0  0  0  0  0  0  0  0
  160.6080  210.7430  157.2610 O   0  0  0  0  0  0  0  0  0  0  0  0
  159.6550  212.1420  155.6690 N   0  0  0  0  0  2  0  0  0  0  0  0
  158.9860  212.3240  154.4500 N   0  0  0  0  0  2  0  0  0  0  0  0
  157.6020  212.6510  154.7520 C   0  0  0  0  0  2  0  0  0  0  0  0
  155.8500  210.9480  155.3570 C   0  0  0  0  0  0  0  0  0  0  0  0
  155.7260  211.4870  156.6700 N   0  0  0  0  0  1  0  0  0  0  0  0
  155.1590  209.9490  155.0270 O   0  0  0  0  0  0  0  0  0  0  0  0
  156.7550  211.5220  154.4150 N   0  0  0  0  0  2  0  0  0  0  0  0
  1 21  1  6  0  0  0
  2  5  1  6  0  0  0
  2  8  1  0  0  0  0
  2  7  1  0  0  0  0
  3 16  1  1  0  0  0
  3  8  1  0  0  0  0
  4  1  1  0  0  0  0
  6  3  1  0  0  0  0
  6  5  1  0  0  0  0
  7  1  1  0  0  0  0
  8  4  1  1  0  0  0
  9 15  1  0  0  0  0
 11  9  2  0  0  0  0
 12 16  1  0  0  0  0
 13 11  2  0  0  0  0
 14 12  1  0  0  0  0
 14  9  1  0  0  0  0
 15 10  1  0  0  0  0
 16 10  1  0  0  0  0
 17 18  1  6  0  0  0
 17  6  1  0  0  0  0
 20 19  1  0  0  0  0
 20 17  1  0  0  0  0
 21 22  1  0  0  0  0
 22 23  2  0  0  0  0
 24 22  1  0  0  0  0
 25 26  1  0  0  0  0
 25 24  1  0  0  0  0
 27 28  1  0  0  0  0
 29 27  2  0  0  0  0
 30 26  1  0  0  0  0
 30 27  1  0  0  0  0
M  END
>  <MODEL>
6

>  <REMARK>
 VINA RESULT:      -5.8      3.067      6.014
  Name = 
  8 active torsions:
  status: ('A' for Active; 'I' for Inactive)
    1  A    between atoms: C_4  and  C_25
    2  A    between atoms: N_5  and  C_7
    3  A    between atoms: N_5  and  N_26
    4  A    between atoms: C_6  and  C_21
    5  A    between atoms: C_7  and  N_29
    6  A    between atoms: C_10  and  C_24
    7  A    between atoms: C_13  and  C_21
    8  A    between atoms: N_22  and  C_25
                            x       y       z     vdW  Elec       q    Type
                         _______ _______ _______ _____ _____    ______ ____

>  <TORSDO>
F 8

$$$$
=
 OpenBabel11072411033D

 30 32  0  0  1  0  0  0  0  0999 V2000
  161.4870  209.2840  152.9390 C   0  0  1  0  0  3  0  0  0  0  0  0
  159.8380  210.5690  154.3120 C   0  0  2  0  0  3  0  0  0  0  0  0
  158.7260  211.9190  152.8310 C   0  0  2  0  0  3  0  0  0  0  0  0
  160.4210  210.0370  152.1220 C   0  0  0  0  0  2  0  0  0  0  0  0
  159.2910  211.7220  155.1010 C   0  0  0  0  0  2  0  0  0  0  0  0
  158.3780  212.4240  154.1770 N   0  0  0  0  0  0  0  0  0  0  0  0
  161.4410  209.8700  154.6960 S   0  0  0  0  0  0  0  0  0  0  0  0
  160.0350  211.1870  153.0050 C   0  0  2  0  0  3  0  0  0  0  0  0
  158.9810  214.3760  149.2890 C   0  0  0  0  0  0  0  0  0  0  0  0
  160.1370  213.0840  151.0470 C   0  0  0  0  0  2  0  0  0  0  0  0
  159.0710  214.4150  147.9900 C   0  0  0  0  0  0  0  0  0  0  0  0
  157.6180  213.0610  150.8720 C   0  0  0  0  0  2  0  0  0  0  0  0
  159.1560  214.4530  146.7550 O   0  0  0  0  0  0  0  0  0  0  0  0
  157.6490  214.2840  149.9580 C   0  0  0  0  0  2  0  0  0  0  0  0
  160.2120  214.3050  150.1330 C   0  0  0  0  0  2  0  0  0  0  0  0
  158.8140  213.0740  151.8280 C   0  0  0  0  0  3  0  0  0  0  0  0
  156.9990  212.0170  154.4800 C   0  0  1  0  0  3  0  0  0  0  0  0
  156.9840  211.1090  155.5440 O   0  0  0  0  0  1  0  0  0  0  0  0
  156.5420  214.3320  154.1060 O   0  0  0  0  0  1  0  0  0  0  0  0
  156.1550  213.2260  154.8630 C   0  0  0  0  0  2  0  0  0  0  0  0
  161.2030  207.7910  152.8620 C   0  0  0  0  0  2  0  0  0  0  0  0
  161.9180  207.1590  151.7130 C   0  0  0  0  0  0  0  0  0  0  0  0
  162.5840  207.8790  150.9260 O   0  0  0  0  0  0  0  0  0  0  0  0
  161.8640  205.7460  151.5000 N   0  0  0  0  0  2  0  0  0  0  0  0
  161.1670  204.8850  152.3600 N   0  0  0  0  0  2  0  0  0  0  0  0
  160.8150  203.6950  151.6030 C   0  0  0  0  0  2  0  0  0  0  0  0
  160.8560  202.9260  149.2060 C   0  0  0  0  0  0  0  0  0  0  0  0
  160.1030  201.7620  149.5280 N   0  0  0  0  0  1  0  0  0  0  0  0
  161.2350  203.1140  148.0210 O   0  0  0  0  0  0  0  0  0  0  0  0
  161.1950  203.8790  150.2130 N   0  0  0  0  0  2  0  0  0  0  0  0
  1 21  1  1  0  0  0
  1  7  1  0  0  0  0
  2  7  1  0  0  0  0
  2  5  1  1  0  0  0
  3 16  1  6  0  0  0
  3  8  1  0  0  0  0
  3  6  1  0  0  0  0
  4  1  1  0  0  0  0
  6 17  1  0  0  0  0
  6  5  1  0  0  0  0
  8  4  1  6  0  0  0
  8  2  1  0  0  0  0
  9 14  1  0  0  0  0
  9 15  1  0  0  0  0
 10 16  1  0  0  0  0
 11  9  2  0  0  0  0
 12 16  1  0  0  0  0
 13 11  2  0  0  0  0
 14 12  1  0  0  0  0
 15 10  1  0  0  0  0
 17 20  1  0  0  0  0
 17 18  1  1  0  0  0
 19 20  1  0  0  0  0
 22 21  1  0  0  0  0
 23 22  2  0  0  0  0
 24 22  1  0  0  0  0
 24 25  1  0  0  0  0
 26 25  1  0  0  0  0
 27 28  1  0  0  0  0
 27 30  1  0  0  0  0
 29 27  2  0  0  0  0
 30 26  1  0  0  0  0
M  END
>  <MODEL>
7

>  <REMARK>
 VINA RESULT:      -5.8      3.549      7.420
  Name = 
  8 active torsions:
  status: ('A' for Active; 'I' for Inactive)
    1  A    between atoms: C_4  and  C_25
    2  A    between atoms: N_5  and  C_7
    3  A    between atoms: N_5  and  N_26
    4  A    between atoms: C_6  and  C_21
    5  A    between atoms: C_7  and  N_29
    6  A    between atoms: C_10  and  C_24
    7  A    between atoms: C_13  and  C_21
    8  A    between atoms: N_22  and  C_25
                            x       y       z     vdW  Elec       q    Type
                         _______ _______ _______ _____ _____    ______ ____

>  <TORSDO>
F 8

$$$$
=
 OpenBabel11072411033D

 30 32  0  0  1  0  0  0  0  0999 V2000
  158.7070  212.1270  152.3930 C   0  0  1  0  0  3  0  0  0  0  0  0
  159.2870  211.0090  154.5540 C   0  0  2  0  0  3  0  0  0  0  0  0
  161.0650  209.6440  154.0810 C   0  0  2  0  0  3  0  0  0  0  0  0
  160.0590  211.3910  152.3920 C   0  0  0  0  0  2  0  0  0  0  0  0
  159.2980  209.9310  155.5980 C   0  0  0  0  0  2  0  0  0  0  0  0
  160.5860  209.2310  155.4180 N   0  0  0  0  0  0  0  0  0  0  0  0
  157.7440  211.6390  153.8990 S   0  0  0  0  0  0  0  0  0  0  0  0
  159.8840  210.3120  153.4200 C   0  0  2  0  0  3  0  0  0  0  0  0
  161.5420  206.2400  151.4660 C   0  0  0  0  0  0  0  0  0  0  0  0
  160.8600  207.1320  153.6650 C   0  0  0  0  0  2  0  0  0  0  0  0
  160.9840  205.4380  150.6040 C   0  0  0  0  0  0  0  0  0  0  0  0
  161.5180  208.6880  151.7900 C   0  0  0  0  0  2  0  0  0  0  0  0
  160.4560  204.6740  149.7850 O   0  0  0  0  0  0  0  0  0  0  0  0
  162.1530  207.5290  151.0220 C   0  0  0  0  0  2  0  0  0  0  0  0
  161.4790  205.9450  152.9300 C   0  0  0  0  0  2  0  0  0  0  0  0
  161.5860  208.4340  153.2980 C   0  0  0  0  0  3  0  0  0  0  0  0
  161.5340  209.7290  156.4230 C   0  0  1  0  0  3  0  0  0  0  0  0
  162.3260  208.6810  156.9040 O   0  0  0  0  0  1  0  0  0  0  0  0
  163.5490  210.9920  156.6500 O   0  0  0  0  0  1  0  0  0  0  0  0
  162.4480  210.7880  155.8180 C   0  0  0  0  0  2  0  0  0  0  0  0
  158.9620  213.6260  152.3810 C   0  0  0  0  0  2  0  0  0  0  0  0
  159.3160  214.1080  151.0110 C   0  0  0  0  0  0  0  0  0  0  0  0
  160.5150  214.3690  150.7360 O   0  0  0  0  0  0  0  0  0  0  0  0
  158.3110  214.2660  150.0050 N   0  0  0  0  0  2  0  0  0  0  0  0
  156.9620  213.9610  150.2380 N   0  0  0  0  0  2  0  0  0  0  0  0
  156.3030  213.8640  148.9460 C   0  0  0  0  0  2  0  0  0  0  0  0
  157.5830  213.5480  146.8010 C   0  0  0  0  0  0  0  0  0  0  0  0
  157.0820  212.2240  146.6540 N   0  0  0  0  0  1  0  0  0  0  0  0
  158.3830  214.0100  145.9460 O   0  0  0  0  0  0  0  0  0  0  0  0
  157.1950  214.3560  147.9110 N   0  0  0  0  0  2  0  0  0  0  0  0
  1 21  1  1  0  0  0
  1  7  1  0  0  0  0
  2  5  1  1  0  0  0
  3 16  1  6  0  0  0
  3  6  1  0  0  0  0
  4  1  1  0  0  0  0
  6  5  1  0  0  0  0
  6 17  1  0  0  0  0
  7  2  1  0  0  0  0
  8  4  1  6  0  0  0
  8  3  1  0  0  0  0
  8  2  1  0  0  0  0
  9 15  1  0  0  0  0
 11  9  2  0  0  0  0
 12 16  1  0  0  0  0
 13 11  2  0  0  0  0
 14  9  1  0  0  0  0
 14 12  1  0  0  0  0
 15 10  1  0  0  0  0
 16 10  1  0  0  0  0
 17 18  1  6  0  0  0
 20 17  1  0  0  0  0
 20 19  1  0  0  0  0
 22 21  1  0  0  0  0
 23 22  2  0  0  0  0
 24 25  1  0  0  0  0
 24 22  1  0  0  0  0
 26 25  1  0  0  0  0
 27 30  1  0  0  0  0
 28 27  1  0  0  0  0
 29 27  2  0  0  0  0
 30 26  1  0  0  0  0
M  END
>  <MODEL>
8

>  <REMARK>
 VINA RESULT:      -5.7      1.922      2.285
  Name = 
  8 active torsions:
  status: ('A' for Active; 'I' for Inactive)
    1  A    between atoms: C_4  and  C_25
    2  A    between atoms: N_5  and  C_7
    3  A    between atoms: N_5  and  N_26
    4  A    between atoms: C_6  and  C_21
    5  A    between atoms: C_7  and  N_29
    6  A    between atoms: C_10  and  C_24
    7  A    between atoms: C_13  and  C_21
    8  A    between atoms: N_22  and  C_25
                            x       y       z     vdW  Elec       q    Type
                         _______ _______ _______ _____ _____    ______ ____

>  <TORSDO>
F 8

$$$$
=
 OpenBabel11072411033D

 30 32  0  0  1  0  0  0  0  0999 V2000
  161.4950  206.2560  146.3570 C   0  0  1  0  0  3  0  0  0  0  0  0
  161.5550  204.7420  148.3460 C   0  0  2  0  0  3  0  0  0  0  0  0
  161.0790  206.0760  150.1470 C   0  0  2  0  0  3  0  0  0  0  0  0
  160.9120  206.8660  147.6440 C   0  0  0  0  0  2  0  0  0  0  0  0
  162.1300  204.0630  149.5540 C   0  0  0  0  0  2  0  0  0  0  0  0
  161.5900  204.8070  150.7100 N   0  0  0  0  0  0  0  0  0  0  0  0
  162.4110  204.7010  146.7740 S   0  0  0  0  0  0  0  0  0  0  0  0
  161.6320  206.1430  148.7440 C   0  0  2  0  0  3  0  0  0  0  0  0
  161.3420  209.8190  152.2850 C   0  0  0  0  0  0  0  0  0  0  0  0
  161.7290  208.5460  150.2050 C   0  0  0  0  0  2  0  0  0  0  0  0
  160.7860  210.9670  152.5520 C   0  0  0  0  0  0  0  0  0  0  0  0
  160.5030  207.5010  152.1490 C   0  0  0  0  0  2  0  0  0  0  0  0
  160.2590  212.0580  152.8070 O   0  0  0  0  0  0  0  0  0  0  0  0
  161.0000  208.6030  153.0830 C   0  0  0  0  0  2  0  0  0  0  0  0
  162.2450  209.6690  151.1040 C   0  0  0  0  0  2  0  0  0  0  0  0
  161.5070  207.2620  151.0180 C   0  0  0  0  0  3  0  0  0  0  0  0
  160.4540  204.0570  151.2610 C   0  0  1  0  0  3  0  0  0  0  0  0
  160.2220  202.9020  150.5060 O   0  0  0  0  0  1  0  0  0  0  0  0
  161.2060  204.7420  153.4220 O   0  0  0  0  0  1  0  0  0  0  0  0
  160.7320  203.6460  152.7010 C   0  0  0  0  0  2  0  0  0  0  0  0
  160.3570  205.9670  145.3890 C   0  0  0  0  0  2  0  0  0  0  0  0
  160.8320  205.1870  144.2060 C   0  0  0  0  0  0  0  0  0  0  0  0
  161.5610  205.7460  143.3480 O   0  0  0  0  0  0  0  0  0  0  0  0
  160.4780  203.8110  144.0430 N   0  0  0  0  0  2  0  0  0  0  0  0
  159.6960  203.1220  144.9810 N   0  0  0  0  0  2  0  0  0  0  0  0
  160.3560  201.8580  145.2610 C   0  0  0  0  0  2  0  0  0  0  0  0
  161.2100  200.5940  147.2640 C   0  0  0  0  0  0  0  0  0  0  0  0
  161.5770  199.4830  146.4520 N   0  0  0  0  0  1  0  0  0  0  0  0
  161.3960  200.5440  148.5080 O   0  0  0  0  0  0  0  0  0  0  0  0
  160.6260  201.7590  146.6850 N   0  0  0  0  0  2  0  0  0  0  0  0
  1 21  1  6  0  0  0
  1  7  1  0  0  0  0
  1  4  1  0  0  0  0
  2  8  1  0  0  0  0
  2  5  1  1  0  0  0
  3  6  1  0  0  0  0
  3 16  1  1  0  0  0
  5  6  1  0  0  0  0
  6 17  1  0  0  0  0
  7  2  1  0  0  0  0
  8  4  1  6  0  0  0
  8  3  1  0  0  0  0
  9 11  2  0  0  0  0
  9 14  1  0  0  0  0
 10 16  1  0  0  0  0
 10 15  1  0  0  0  0
 11 13  2  0  0  0  0
 12 14  1  0  0  0  0
 15  9  1  0  0  0  0
 16 12  1  0  0  0  0
 17 18  1  6  0  0  0
 17 20  1  0  0  0  0
 20 19  1  0  0  0  0
 22 21  1  0  0  0  0
 23 22  2  0  0  0  0
 24 22  1  0  0  0  0
 24 25  1  0  0  0  0
 25 26  1  0  0  0  0
 26 30  1  0  0  0  0
 27 29  2  0  0  0  0
 28 27  1  0  0  0  0
 30 27  1  0  0  0  0
M  END
>  <MODEL>
9

>  <REMARK>
 VINA RESULT:      -5.4      5.456      8.841
  Name = 
  8 active torsions:
  status: ('A' for Active; 'I' for Inactive)
    1  A    between atoms: C_4  and  C_25
    2  A    between atoms: N_5  and  C_7
    3  A    between atoms: N_5  and  N_26
    4  A    between atoms: C_6  and  C_21
    5  A    between atoms: C_7  and  N_29
    6  A    between atoms: C_10  and  C_24
    7  A    between atoms: C_13  and  C_21
    8  A    between atoms: N_22  and  C_25
                            x       y       z     vdW  Elec       q    Type
                         _______ _______ _______ _____ _____    ______ ____

>  <TORSDO>
F 8

$$$$
