=
 OpenBabel11072411393D

 61 65  0  0  1  0  0  0  0  0999 V2000
  160.0090  210.6950  155.3520 C   0  0  0  0  0  0  0  0  0  0  0  0
  160.0130  210.3350  156.5670 O   0  0  0  0  0  0  0  0  0  0  0  0
  161.2200  208.5780  154.6290 C   0  0  2  0  0  3  0  0  0  0  0  0
  160.6690  208.6360  152.2640 C   0  0  1  0  0  3  0  0  0  0  0  0
  160.3580  209.7390  154.3310 N   0  0  0  0  0  0  0  0  0  0  0  0
  161.7660  208.1650  153.2360 C   0  0  0  0  0  2  0  0  0  0  0  0
  160.0960  209.8570  152.9340 C   0  0  0  0  0  2  0  0  0  0  0  0
  159.2760  213.1930  156.1770 C   0  0  0  0  0  0  0  0  0  0  0  0
  158.6600  213.4140  153.0900 C   0  0  0  0  0  2  0  0  0  0  0  0
  156.8150  213.5740  155.5860 C   0  0  0  0  0  3  0  0  0  0  0  0
  157.3650  212.7400  153.3830 N   0  0  0  0  0  2  0  0  0  0  0  0
  159.7110  212.1610  155.0570 C   0  0  1  0  0  3  0  0  0  0  0  0
  156.4380  213.2080  154.3510 C   0  0  0  0  0  0  0  0  0  0  0  0
  159.8860  212.8210  153.6730 C   0  0  1  0  0  3  0  0  0  0  0  0
  158.0730  213.7050  156.2750 C   0  0  0  0  0  3  0  0  0  0  0  0
  154.2020  213.9150  155.0130 O   0  0  0  0  0  1  0  0  0  0  0  0
  154.4930  212.8280  153.0240 O   0  0  0  0  0  0  0  0  0  0  0  0
  155.0320  213.2870  154.0530 C   0  0  0  0  0  0  0  0  0  0  0  0
  160.8440  212.4250  151.2650 C   0  0  0  0  0  0  0  0  0  0  0  0
  160.5830  213.5520  150.8570 O   0  0  0  0  0  0  0  0  0  0  0  0
  160.5760  211.9920  152.5960 N   0  0  0  0  0  2  0  0  0  0  0  0
  161.4750  211.3880  150.3250 C   0  0  0  0  0  2  0  0  0  0  0  0
  161.5980  211.6560  148.8390 N   0  0  0  0  0  0  0  0  0  0  0  0
  162.9070  211.1470  148.4060 C   0  0  0  0  0  1  0  0  0  0  0  0
  161.5670  213.0580  148.4260 C   0  0  0  0  0  2  0  0  0  0  0  0
  161.8860  213.2950  146.9350 C   0  0  0  0  0  2  0  0  0  0  0  0
  160.5780  213.1330  144.8430 C   0  0  0  0  0  0  0  0  0  0  0  0
  159.4350  212.7040  144.1460 N   0  0  0  0  0  1  0  0  0  0  0  0
  161.5150  213.9450  144.1860 N   0  0  0  0  0  1  0  0  0  0  0  0
  160.6680  212.9850  146.1560 N   0  0  0  0  0  0  0  0  0  0  0  0
  161.5500  213.0750  157.2390 C   0  0  0  0  0  1  0  0  0  0  0  0
  160.1800  213.4770  157.2600 O   0  0  0  0  0  0  0  0  0  0  0  0
  159.0310  207.4510  154.9550 F   0  0  0  0  0  0  0  0  0  0  0  0
  160.8340  206.2640  154.5830 F   0  0  0  0  0  0  0  0  0  0  0  0
  160.5990  207.2820  156.5290 F   0  0  0  0  0  0  0  0  0  0  0  0
  160.4170  207.4060  155.1960 C   0  0  0  0  0  0  0  0  0  0  0  0
  161.1180  208.9200  150.8330 C   0  0  0  0  0  2  0  0  0  0  0  0
  162.0180  207.9360  150.1140 C   0  0  1  0  0  3  0  0  0  0  0  0
  163.2990  207.7920  150.6210 O   0  0  0  0  0  1  0  0  0  0  0  0
  160.1280  205.9640  147.8410 C   0  0  0  0  0  1  0  0  0  0  0  0
  161.1660  204.1420  150.2610 C   0  0  1  0  0  3  0  0  0  0  0  0
  161.3550  206.5200  150.0400 C   0  0  2  0  0  0  0  0  0  0  0  0
  159.9960  206.2690  150.7280 C   0  0  0  0  0  3  0  0  0  0  0  0
  162.0100  205.2650  149.6620 C   0  0  2  0  0  3  0  0  0  0  0  0
  162.4520  206.7130  147.8060 O   0  0  0  0  0  1  0  0  0  0  0  0
  159.8970  204.7920  150.9780 C   0  0  0  0  0  3  0  0  0  0  0  0
  161.4400  206.1700  148.5490 C   0  0  1  0  0  0  0  0  0  0  0  0
  161.0510  202.9080  149.2950 C   0  0  1  0  0  3  0  0  0  0  0  0
  160.6930  201.7680  150.0900 C   0  0  0  0  0  3  0  0  0  0  0  0
  161.6710  201.6460  151.2200 C   0  0  0  0  0  2  0  0  0  0  0  0
  161.8250  200.7070  150.0650 C   0  0  0  0  0  2  0  0  0  0  0  0
  160.0650  203.0140  148.0980 C   0  0  0  0  0  2  0  0  0  0  0  0
  160.4470  201.1430  146.3690 O   0  0  0  0  0  1  0  0  0  0  0  0
  160.7810  202.4500  146.7160 C   0  0  2  0  0  3  0  0  0  0  0  0
  162.1610  202.8750  146.0760 C   0  0  0  0  0  2  0  0  0  0  0  0
  162.1730  204.0310  145.0550 N   0  0  0  0  0  0  0  0  0  0  0  0
  160.9260  204.6940  144.9860 C   0  0  0  0  0  3  0  0  0  0  0  0
  159.9060  203.9130  144.1660 C   0  0  0  0  0  1  0  0  0  0  0  0
  161.1220  206.1670  144.3330 C   0  0  0  0  0  1  0  0  0  0  0  0
  164.1820  204.3190  146.0550 O   0  0  0  0  0  1  0  0  0  0  0  0
  163.2030  204.9400  145.3240 N   0  0  0  0  0  2  0  0  0  0  0  0
  1  2  2  0  0  0  0
  3 36  1  6  0  0  0
  4 37  1  6  0  0  0
  4  7  1  0  0  0  0
  4  6  1  0  0  0  0
  5  3  1  0  0  0  0
  5  1  1  0  0  0  0
  6  3  1  0  0  0  0
  7  5  1  0  0  0  0
  8 15  2  0  0  0  0
  8 32  1  0  0  0  0
  9 11  1  0  0  0  0
  9 14  1  0  0  0  0
 10 15  1  0  0  0  0
 11 13  1  0  0  0  0
 12  1  1  1  0  0  0
 12  8  1  0  0  0  0
 13 10  2  0  0  0  0
 14 21  1  6  0  0  0
 14 12  1  0  0  0  0
 17 18  2  0  0  0  0
 18 13  1  0  0  0  0
 18 16  1  0  0  0  0
 19 21  1  0  0  0  0
 20 19  2  0  0  0  0
 22 19  1  0  0  0  0
 23 22  1  0  0  0  0
 24 23  1  0  0  0  0
 25 23  1  0  0  0  0
 26 25  1  0  0  0  0
 27 30  2  0  0  0  0
 28 27  1  0  0  0  0
 29 27  1  0  0  0  0
 30 26  1  0  0  0  0
 31 32  1  0  0  0  0
 33 36  1  0  0  0  0
 34 36  1  0  0  0  0
 36 35  1  0  0  0  0
 38 39  1  1  0  0  0
 38 37  1  0  0  0  0
 40 47  1  0  0  0  0
 41 48  1  6  0  0  0
 41 46  1  0  0  0  0
 42 38  1  1  0  0  0
 42 43  1  0  0  0  0
 43 46  2  0  0  0  0
 44 42  1  0  0  0  0
 44 41  1  0  0  0  0
 45 47  1  0  0  0  0
 47 44  1  0  0  0  0
 47 42  1  0  0  0  0
 48 49  1  0  0  0  0
 49 50  1  0  0  0  0
 51 49  1  0  0  0  0
 51 50  1  0  0  0  0
 52 48  1  0  0  0  0
 53 54  1  0  0  0  0
 54 52  1  0  0  0  0
 55 54  1  0  0  0  0
 56 61  1  0  0  0  0
 56 55  1  0  0  0  0
 57 56  1  0  0  0  0
 58 57  1  0  0  0  0
 59 57  1  0  0  0  0
 61 60  1  0  0  0  0
M  END
>  <MODEL>
1

>  <REMARK>
 VINA RESULT:      -2.1      0.000      0.000
  Name = 
  21 active torsions:
  status: ('A' for Active; 'I' for Inactive)
    1  A    between atoms: N_1  and  C_32
    2  A    between atoms: N_1  and  C_60
    3  A    between atoms: C_4  and  O_44
    4  A    between atoms: C_7  and  C_47
    5  A    between atoms: C_8  and  N_28
    6  A    between atoms: C_11  and  C_45
    7  A    between atoms: C_18  and  C_20
    8  A    between atoms: C_18  and  C_21
    9  A    between atoms: C_19  and  C_60
   10  A    between atoms: C_21  and  C_24
   11  A    between atoms: C_23  and  C_54
   12  A    between atoms: N_28  and  N_43
   13  A    between atoms: N_28  and  C_53
   14  A    between atoms: C_31  and  C_47
   15  A    between atoms: C_32  and  C_36
   16  A    between atoms: N_34  and  C_52
   17  A    between atoms: C_36  and  N_61
   18  A    between atoms: C_39  and  C_40
   19  A    between atoms: C_39  and  C_53
   20  A    between atoms: C_40  and  C_47
   21  A    between atoms: CA_49  and  C_50
                            x       y       z     vdW  Elec       q    Type
                         _______ _______ _______ _____ _____    ______ ____

>  <TORSDO>
F 21

$$$$
=
 OpenBabel11072411393D

 61 65  0  0  1  0  0  0  0  0999 V2000
  161.1350  210.2800  147.6050 C   0  0  0  0  0  0  0  0  0  0  0  0
  160.7930  209.7300  146.5160 O   0  0  0  0  0  0  0  0  0  0  0  0
  160.9000  208.0950  148.8850 C   0  0  2  0  0  3  0  0  0  0  0  0
  162.2270  208.6730  150.8360 C   0  0  1  0  0  3  0  0  0  0  0  0
  161.4550  209.4550  148.7430 N   0  0  0  0  0  0  0  0  0  0  0  0
  161.0300  207.8070  150.4050 C   0  0  0  0  0  2  0  0  0  0  0  0
  162.1600  209.8620  149.9150 C   0  0  0  0  0  2  0  0  0  0  0  0
  161.5890  212.6270  148.9230 C   0  0  0  0  0  0  0  0  0  0  0  0
  159.5330  213.5980  146.7350 C   0  0  0  0  0  2  0  0  0  0  0  0
  159.3670  213.5100  149.8370 C   0  0  0  0  0  3  0  0  0  0  0  0
  158.4610  213.0900  147.6330 N   0  0  0  0  0  2  0  0  0  0  0  0
  161.1030  211.8030  147.6610 C   0  0  1  0  0  3  0  0  0  0  0  0
  158.3250  213.4810  148.9920 C   0  0  0  0  0  0  0  0  0  0  0  0
  160.6900  212.7080  146.4810 C   0  0  1  0  0  3  0  0  0  0  0  0
  160.7850  213.2900  149.7200 C   0  0  0  0  0  3  0  0  0  0  0  0
  157.0010  214.2400  150.8920 O   0  0  0  0  0  1  0  0  0  0  0  0
  155.9640  213.8130  148.9010 O   0  0  0  0  0  0  0  0  0  0  0  0
  157.0410  213.8430  149.5340 C   0  0  0  0  0  0  0  0  0  0  0  0
  160.9230  212.5410  143.8750 C   0  0  0  0  0  0  0  0  0  0  0  0
  161.5650  213.5800  143.7560 O   0  0  0  0  0  0  0  0  0  0  0  0
  160.4860  212.0300  145.1320 N   0  0  0  0  0  2  0  0  0  0  0  0
  160.5320  211.7260  142.6330 C   0  0  0  0  0  2  0  0  0  0  0  0
  160.5280  212.3580  141.2560 N   0  0  0  0  0  0  0  0  0  0  0  0
  159.1410  212.7300  140.9460 C   0  0  0  0  0  1  0  0  0  0  0  0
  160.9630  211.5070  140.1500 C   0  0  0  0  0  2  0  0  0  0  0  0
  160.8450  209.9930  140.4210 C   0  0  0  0  0  2  0  0  0  0  0  0
  161.4830  208.0280  139.0620 C   0  0  0  0  0  0  0  0  0  0  0  0
  161.5570  207.3720  137.8210 N   0  0  0  0  0  1  0  0  0  0  0  0
  162.0870  207.4390  140.1840 N   0  0  0  0  0  1  0  0  0  0  0  0
  161.0690  209.2830  139.1430 N   0  0  0  0  0  0  0  0  0  0  0  0
  164.0510  212.6010  148.4210 C   0  0  0  0  0  1  0  0  0  0  0  0
  162.9610  212.5280  149.3430 O   0  0  0  0  0  0  0  0  0  0  0  0
  162.7660  207.5840  147.3270 F   0  0  0  0  0  0  0  0  0  0  0  0
  162.3750  206.2760  149.0400 F   0  0  0  0  0  0  0  0  0  0  0  0
  160.9600  206.2790  147.3450 F   0  0  0  0  0  0  0  0  0  0  0  0
  161.7350  207.0590  148.1290 C   0  0  0  0  0  0  0  0  0  0  0  0
  162.2650  209.0830  152.3050 C   0  0  0  0  0  2  0  0  0  0  0  0
  161.3220  208.4300  153.2960 C   0  0  1  0  0  3  0  0  0  0  0  0
  161.8620  207.4320  154.0900 O   0  0  0  0  0  1  0  0  0  0  0  0
  162.2120  210.5900  155.9740 C   0  0  0  0  0  1  0  0  0  0  0  0
  159.3300  211.3950  154.8360 C   0  0  1  0  0  3  0  0  0  0  0  0
  160.6600  209.4980  154.2280 C   0  0  2  0  0  0  0  0  0  0  0  0
  159.8100  209.0460  155.4360 C   0  0  0  0  0  3  0  0  0  0  0  0
  160.4630  210.9190  153.9300 C   0  0  2  0  0  3  0  0  0  0  0  0
  162.8130  210.5960  153.6060 O   0  0  0  0  0  1  0  0  0  0  0  0
  158.8870  210.1810  155.7720 C   0  0  0  0  0  3  0  0  0  0  0  0
  161.8110  210.4650  154.5280 C   0  0  1  0  0  0  0  0  0  0  0  0
  159.5860  212.8430  155.3930 C   0  0  1  0  0  3  0  0  0  0  0  0
  158.7390  213.7430  154.6630 C   0  0  0  0  0  3  0  0  0  0  0  0
  158.4200  213.1290  153.3340 C   0  0  0  0  0  2  0  0  0  0  0  0
  159.4410  214.2220  153.3650 C   0  0  0  0  0  2  0  0  0  0  0  0
  159.3770  213.0800  156.9140 C   0  0  0  0  0  2  0  0  0  0  0  0
  157.0590  211.9990  157.2220 O   0  0  0  0  0  1  0  0  0  0  0  0
  157.7620  213.2010  157.2570 C   0  0  2  0  0  3  0  0  0  0  0  0
  156.7980  214.4330  157.0400 C   0  0  0  0  0  2  0  0  0  0  0  0
  155.4060  214.1780  156.4240 N   0  0  0  0  0  0  0  0  0  0  0  0
  155.4920  213.6150  155.1300 C   0  0  0  0  0  3  0  0  0  0  0  0
  154.7510  214.4500  154.0920 C   0  0  0  0  0  1  0  0  0  0  0  0
  154.8780  212.1120  155.1420 C   0  0  0  0  0  1  0  0  0  0  0  0
  153.3290  213.8520  157.2610 O   0  0  0  0  0  1  0  0  0  0  0  0
  154.6160  213.3800  157.2600 N   0  0  0  0  0  2  0  0  0  0  0  0
  1  5  1  0  0  0  0
  2  1  2  0  0  0  0
  3 36  1  6  0  0  0
  3  6  1  0  0  0  0
  4 37  1  1  0  0  0
  5  3  1  0  0  0  0
  5  7  1  0  0  0  0
  6  4  1  0  0  0  0
  7  4  1  0  0  0  0
  8 32  1  0  0  0  0
  8 15  2  0  0  0  0
  9 11  1  0  0  0  0
 11 13  1  0  0  0  0
 12  1  1  6  0  0  0
 12  8  1  0  0  0  0
 13 18  1  0  0  0  0
 13 10  2  0  0  0  0
 14 21  1  6  0  0  0
 14  9  1  0  0  0  0
 14 12  1  0  0  0  0
 15 10  1  0  0  0  0
 17 18  2  0  0  0  0
 18 16  1  0  0  0  0
 19 21  1  0  0  0  0
 20 19  2  0  0  0  0
 22 19  1  0  0  0  0
 23 22  1  0  0  0  0
 24 23  1  0  0  0  0
 25 26  1  0  0  0  0
 25 23  1  0  0  0  0
 27 30  2  0  0  0  0
 27 29  1  0  0  0  0
 28 27  1  0  0  0  0
 30 26  1  0  0  0  0
 31 32  1  0  0  0  0
 33 36  1  0  0  0  0
 35 36  1  0  0  0  0
 36 34  1  0  0  0  0
 37 38  1  0  0  0  0
 38 39  1  1  0  0  0
 41 48  1  1  0  0  0
 41 46  1  0  0  0  0
 42 38  1  6  0  0  0
 42 47  1  0  0  0  0
 42 43  1  0  0  0  0
 43 46  2  0  0  0  0
 44 42  1  0  0  0  0
 44 47  1  0  0  0  0
 44 41  1  0  0  0  0
 45 47  1  0  0  0  0
 47 40  1  0  0  0  0
 48 52  1  0  0  0  0
 49 48  1  0  0  0  0
 50 51  1  0  0  0  0
 50 49  1  0  0  0  0
 51 49  1  0  0  0  0
 52 54  1  0  0  0  0
 53 54  1  0  0  0  0
 55 54  1  0  0  0  0
 56 55  1  0  0  0  0
 56 61  1  0  0  0  0
 57 59  1  0  0  0  0
 57 56  1  0  0  0  0
 58 57  1  0  0  0  0
 61 60  1  0  0  0  0
M  END
>  <MODEL>
2

>  <REMARK>
 VINA RESULT:      -1.9      3.689      9.428
  Name = 
  21 active torsions:
  status: ('A' for Active; 'I' for Inactive)
    1  A    between atoms: N_1  and  C_32
    2  A    between atoms: N_1  and  C_60
    3  A    between atoms: C_4  and  O_44
    4  A    between atoms: C_7  and  C_47
    5  A    between atoms: C_8  and  N_28
    6  A    between atoms: C_11  and  C_45
    7  A    between atoms: C_18  and  C_20
    8  A    between atoms: C_18  and  C_21
    9  A    between atoms: C_19  and  C_60
   10  A    between atoms: C_21  and  C_24
   11  A    between atoms: C_23  and  C_54
   12  A    between atoms: N_28  and  N_43
   13  A    between atoms: N_28  and  C_53
   14  A    between atoms: C_31  and  C_47
   15  A    between atoms: C_32  and  C_36
   16  A    between atoms: N_34  and  C_52
   17  A    between atoms: C_36  and  N_61
   18  A    between atoms: C_39  and  C_40
   19  A    between atoms: C_39  and  C_53
   20  A    between atoms: C_40  and  C_47
   21  A    between atoms: CA_49  and  C_50
                            x       y       z     vdW  Elec       q    Type
                         _______ _______ _______ _____ _____    ______ ____

>  <TORSDO>
F 21

$$$$
=
 OpenBabel11072411393D

 61 65  0  0  1  0  0  0  0  0999 V2000
  160.1800  210.3690  155.4300 C   0  0  0  0  0  0  0  0  0  0  0  0
  160.0000  209.9740  156.6200 O   0  0  0  0  0  0  0  0  0  0  0  0
  161.2570  208.1620  154.7670 C   0  0  2  0  0  3  0  0  0  0  0  0
  161.0080  208.3460  152.3580 C   0  0  1  0  0  3  0  0  0  0  0  0
  160.5560  209.4130  154.4190 N   0  0  0  0  0  0  0  0  0  0  0  0
  161.9260  207.7360  153.4330 C   0  0  0  0  0  2  0  0  0  0  0  0
  160.4800  209.5980  153.0060 C   0  0  0  0  0  2  0  0  0  0  0  0
  159.9660  212.9400  156.3220 C   0  0  0  0  0  0  0  0  0  0  0  0
  158.9310  213.2820  153.3610 C   0  0  0  0  0  2  0  0  0  0  0  0
  157.5300  213.6960  156.1040 C   0  0  0  0  0  3  0  0  0  0  0  0
  157.6090  212.8090  153.8540 N   0  0  0  0  0  2  0  0  0  0  0  0
  160.0660  211.8650  155.1630 C   0  0  1  0  0  3  0  0  0  0  0  0
  156.9200  213.4020  154.9450 C   0  0  0  0  0  0  0  0  0  0  0  0
  160.1280  212.5040  153.7610 C   0  0  1  0  0  3  0  0  0  0  0  0
  158.8830  213.6280  156.5930 C   0  0  0  0  0  3  0  0  0  0  0  0
  154.7680  213.6400  156.0640 O   0  0  0  0  0  1  0  0  0  0  0  0
  154.9040  213.9770  153.8070 O   0  0  0  0  0  0  0  0  0  0  0  0
  155.5140  213.6960  154.8610 C   0  0  0  0  0  0  0  0  0  0  0  0
  160.7470  212.0110  151.2610 C   0  0  0  0  0  0  0  0  0  0  0  0
  160.7070  213.1840  150.9050 O   0  0  0  0  0  0  0  0  0  0  0  0
  160.5140  211.5910  152.6030 N   0  0  0  0  0  2  0  0  0  0  0  0
  161.0430  210.9020  150.2410 C   0  0  0  0  0  2  0  0  0  0  0  0
  161.3500  211.2340  148.7960 N   0  0  0  0  0  0  0  0  0  0  0  0
  162.7710  211.6040  148.7210 C   0  0  0  0  0  1  0  0  0  0  0  0
  160.6210  212.3620  148.2180 C   0  0  0  0  0  2  0  0  0  0  0  0
  161.3110  213.0180  147.0040 C   0  0  0  0  0  2  0  0  0  0  0  0
  159.3020  213.3590  145.6050 C   0  0  0  0  0  0  0  0  0  0  0  0
  158.6090  213.1760  144.3960 N   0  0  0  0  0  1  0  0  0  0  0  0
  158.6400  213.9580  146.6880 N   0  0  0  0  0  1  0  0  0  0  0  0
  160.4700  212.7720  145.8140 N   0  0  0  0  0  0  0  0  0  0  0  0
  162.1870  212.2030  157.2380 C   0  0  0  0  0  1  0  0  0  0  0  0
  161.0550  213.0750  157.2530 O   0  0  0  0  0  0  0  0  0  0  0  0
  158.9170  207.4030  155.1080 F   0  0  0  0  0  0  0  0  0  0  0  0
  160.4200  206.0140  154.3260 F   0  0  0  0  0  0  0  0  0  0  0  0
  160.5270  206.6350  156.4430 F   0  0  0  0  0  0  0  0  0  0  0  0
  160.2800  207.0610  155.1850 C   0  0  0  0  0  0  0  0  0  0  0  0
  161.6540  208.6250  151.0040 C   0  0  0  0  0  2  0  0  0  0  0  0
  162.5490  207.5830  150.3640 C   0  0  1  0  0  3  0  0  0  0  0  0
  163.4260  206.9250  151.2100 O   0  0  0  0  0  1  0  0  0  0  0  0
  160.6170  207.2950  147.3950 C   0  0  0  0  0  1  0  0  0  0  0  0
  161.1620  204.3900  148.6260 C   0  0  1  0  0  3  0  0  0  0  0  0
  161.7030  206.5110  149.5990 C   0  0  2  0  0  0  0  0  0  0  0  0
  160.2640  206.1920  150.0600 C   0  0  0  0  0  3  0  0  0  0  0  0
  162.2070  205.5030  148.6630 C   0  0  2  0  0  3  0  0  0  0  0  0
  163.0170  207.5670  147.7580 O   0  0  0  0  0  1  0  0  0  0  0  0
  159.9360  204.8170  149.5540 C   0  0  0  0  0  3  0  0  0  0  0  0
  161.8750  206.9120  148.1290 C   0  0  1  0  0  0  0  0  0  0  0  0
  160.9650  203.8110  147.1780 C   0  0  1  0  0  3  0  0  0  0  0  0
  162.2470  203.8090  146.5350 C   0  0  0  0  0  3  0  0  0  0  0  0
  162.3570  205.0370  145.6820 C   0  0  0  0  0  2  0  0  0  0  0  0
  162.0850  203.7370  144.9930 C   0  0  0  0  0  2  0  0  0  0  0  0
  160.3340  202.3970  147.0450 C   0  0  0  0  0  2  0  0  0  0  0  0
  161.4850  200.1030  146.8230 O   0  0  0  0  0  1  0  0  0  0  0  0
  161.3830  201.2480  147.6100 C   0  0  2  0  0  3  0  0  0  0  0  0
  161.8180  200.9570  149.1000 C   0  0  0  0  0  2  0  0  0  0  0  0
  160.8520  201.3520  150.2380 N   0  0  0  0  0  0  0  0  0  0  0  0
  161.4380  202.2680  151.1400 C   0  0  0  0  0  3  0  0  0  0  0  0
  162.5050  201.6140  152.0100 C   0  0  0  0  0  1  0  0  0  0  0  0
  160.2920  202.9090  152.0940 C   0  0  0  0  0  1  0  0  0  0  0  0
  158.7350  200.8370  149.6280 O   0  0  0  0  0  1  0  0  0  0  0  0
  159.6470  201.8550  149.7330 N   0  0  0  0  0  2  0  0  0  0  0  0
  1  2  2  0  0  0  0
  3 36  1  6  0  0  0
  4 37  1  6  0  0  0
  4  7  1  0  0  0  0
  4  6  1  0  0  0  0
  5  3  1  0  0  0  0
  5  1  1  0  0  0  0
  6  3  1  0  0  0  0
  7  5  1  0  0  0  0
  8 15  2  0  0  0  0
  8 32  1  0  0  0  0
  9 14  1  0  0  0  0
  9 11  1  0  0  0  0
 10 15  1  0  0  0  0
 11 13  1  0  0  0  0
 12  1  1  1  0  0  0
 12  8  1  0  0  0  0
 13 10  2  0  0  0  0
 14 21  1  6  0  0  0
 14 12  1  0  0  0  0
 17 18  2  0  0  0  0
 18 13  1  0  0  0  0
 18 16  1  0  0  0  0
 19 21  1  0  0  0  0
 20 19  2  0  0  0  0
 22 19  1  0  0  0  0
 23 22  1  0  0  0  0
 24 23  1  0  0  0  0
 25 23  1  0  0  0  0
 26 25  1  0  0  0  0
 27 30  2  0  0  0  0
 27 29  1  0  0  0  0
 28 27  1  0  0  0  0
 30 26  1  0  0  0  0
 31 32  1  0  0  0  0
 33 36  1  0  0  0  0
 34 36  1  0  0  0  0
 36 35  1  0  0  0  0
 38 37  1  0  0  0  0
 38 39  1  1  0  0  0
 40 47  1  0  0  0  0
 41 48  1  6  0  0  0
 41 44  1  0  0  0  0
 41 46  1  0  0  0  0
 42 43  1  0  0  0  0
 42 38  1  1  0  0  0
 44 42  1  0  0  0  0
 45 47  1  0  0  0  0
 46 43  2  0  0  0  0
 47 44  1  0  0  0  0
 47 42  1  0  0  0  0
 49 48  1  0  0  0  0
 50 49  1  0  0  0  0
 51 50  1  0  0  0  0
 51 49  1  0  0  0  0
 52 48  1  0  0  0  0
 52 54  1  0  0  0  0
 53 54  1  0  0  0  0
 54 55  1  0  0  0  0
 55 56  1  0  0  0  0
 56 57  1  0  0  0  0
 57 58  1  0  0  0  0
 57 59  1  0  0  0  0
 60 61  1  0  0  0  0
 61 56  1  0  0  0  0
M  END
>  <MODEL>
3

>  <REMARK>
 VINA RESULT:      -1.4      1.564      2.832
  Name = 
  21 active torsions:
  status: ('A' for Active; 'I' for Inactive)
    1  A    between atoms: N_1  and  C_32
    2  A    between atoms: N_1  and  C_60
    3  A    between atoms: C_4  and  O_44
    4  A    between atoms: C_7  and  C_47
    5  A    between atoms: C_8  and  N_28
    6  A    between atoms: C_11  and  C_45
    7  A    between atoms: C_18  and  C_20
    8  A    between atoms: C_18  and  C_21
    9  A    between atoms: C_19  and  C_60
   10  A    between atoms: C_21  and  C_24
   11  A    between atoms: C_23  and  C_54
   12  A    between atoms: N_28  and  N_43
   13  A    between atoms: N_28  and  C_53
   14  A    between atoms: C_31  and  C_47
   15  A    between atoms: C_32  and  C_36
   16  A    between atoms: N_34  and  C_52
   17  A    between atoms: C_36  and  N_61
   18  A    between atoms: C_39  and  C_40
   19  A    between atoms: C_39  and  C_53
   20  A    between atoms: C_40  and  C_47
   21  A    between atoms: CA_49  and  C_50
                            x       y       z     vdW  Elec       q    Type
                         _______ _______ _______ _____ _____    ______ ____

>  <TORSDO>
F 21

$$$$
=
 OpenBabel11072411393D

 61 65  0  0  1  0  0  0  0  0999 V2000
  161.1670  210.2660  147.3670 C   0  0  0  0  0  0  0  0  0  0  0  0
  160.8720  209.7150  146.2650 O   0  0  0  0  0  0  0  0  0  0  0  0
  160.9840  208.0600  148.6210 C   0  0  2  0  0  3  0  0  0  0  0  0
  162.2420  208.6670  150.6080 C   0  0  1  0  0  3  0  0  0  0  0  0
  161.4910  209.4410  148.5040 N   0  0  0  0  0  0  0  0  0  0  0  0
  161.0890  207.7610  150.1400 C   0  0  0  0  0  2  0  0  0  0  0  0
  162.1520  209.8620  149.6970 C   0  0  0  0  0  2  0  0  0  0  0  0
  161.6390  212.6250  148.6570 C   0  0  0  0  0  0  0  0  0  0  0  0
  159.3570  213.5160  146.6670 C   0  0  0  0  0  2  0  0  0  0  0  0
  159.4720  213.4100  149.7710 C   0  0  0  0  0  3  0  0  0  0  0  0
  158.3910  212.9590  147.6540 N   0  0  0  0  0  2  0  0  0  0  0  0
  161.0760  211.7860  147.4370 C   0  0  1  0  0  3  0  0  0  0  0  0
  158.3600  213.3390  149.0220 C   0  0  0  0  0  0  0  0  0  0  0  0
  160.5220  212.6760  146.3050 C   0  0  1  0  0  3  0  0  0  0  0  0
  160.8820  213.2510  149.5260 C   0  0  0  0  0  3  0  0  0  0  0  0
  157.1110  213.6280  151.0940 O   0  0  0  0  0  1  0  0  0  0  0  0
  156.0440  213.9030  149.0920 O   0  0  0  0  0  0  0  0  0  0  0  0
  157.1170  213.6450  149.6790 C   0  0  0  0  0  0  0  0  0  0  0  0
  160.9480  212.2010  143.7610 C   0  0  0  0  0  0  0  0  0  0  0  0
  161.9320  212.9290  143.6780 O   0  0  0  0  0  0  0  0  0  0  0  0
  160.2270  211.9950  144.9740 N   0  0  0  0  0  2  0  0  0  0  0  0
  160.4180  211.4690  142.5200 C   0  0  0  0  0  2  0  0  0  0  0  0
  161.1000  211.6210  141.1760 N   0  0  0  0  0  0  0  0  0  0  0  0
  161.0590  210.3110  140.5110 C   0  0  0  0  0  1  0  0  0  0  0  0
  162.5110  212.0030  141.2020 C   0  0  0  0  0  2  0  0  0  0  0  0
  162.7740  213.5010  140.9420 C   0  0  0  0  0  2  0  0  0  0  0  0
  163.4990  213.6620  138.5840 C   0  0  0  0  0  0  0  0  0  0  0  0
  163.1940  213.7980  137.2180 N   0  0  0  0  0  1  0  0  0  0  0  0
  164.8420  213.6740  138.9890 N   0  0  0  0  0  1  0  0  0  0  0  0
  162.5510  213.7590  139.5030 N   0  0  0  0  0  0  0  0  0  0  0  0
  164.0310  213.1060  148.0590 C   0  0  0  0  0  1  0  0  0  0  0  0
  163.0460  212.5820  148.9510 O   0  0  0  0  0  0  0  0  0  0  0  0
  162.3570  205.9900  148.6470 F   0  0  0  0  0  0  0  0  0  0  0  0
  161.1350  206.4750  146.8960 F   0  0  0  0  0  0  0  0  0  0  0  0
  162.9400  207.6780  147.3140 F   0  0  0  0  0  0  0  0  0  0  0  0
  161.8750  207.0640  147.8750 C   0  0  0  0  0  0  0  0  0  0  0  0
  162.2290  209.0630  152.0810 C   0  0  0  0  0  2  0  0  0  0  0  0
  161.5200  208.1850  153.0930 C   0  0  1  0  0  3  0  0  0  0  0  0
  162.3180  207.3180  153.8200 O   0  0  0  0  0  1  0  0  0  0  0  0
  162.0260  210.7280  155.5240 C   0  0  0  0  0  1  0  0  0  0  0  0
  158.9030  210.4460  154.8750 C   0  0  1  0  0  3  0  0  0  0  0  0
  160.6860  209.0480  154.0980 C   0  0  2  0  0  0  0  0  0  0  0  0
  160.2340  208.4420  155.4440 C   0  0  0  0  0  3  0  0  0  0  0  0
  159.9780  210.2960  153.8020 C   0  0  2  0  0  3  0  0  0  0  0  0
  162.2210  210.7380  153.0890 O   0  0  0  0  0  1  0  0  0  0  0  0
  159.0440  209.2340  155.9040 C   0  0  0  0  0  3  0  0  0  0  0  0
  161.4750  210.3610  154.1720 C   0  0  1  0  0  0  0  0  0  0  0  0
  158.7370  211.9370  155.3440 C   0  0  1  0  0  3  0  0  0  0  0  0
  158.3890  212.7170  154.1900 C   0  0  0  0  0  3  0  0  0  0  0  0
  159.6390  213.3160  153.6210 C   0  0  0  0  0  2  0  0  0  0  0  0
  158.7390  214.2110  154.4140 C   0  0  0  0  0  2  0  0  0  0  0  0
  157.7140  212.2310  156.4760 C   0  0  0  0  0  2  0  0  0  0  0  0
  155.7650  210.5560  156.2900 O   0  0  0  0  0  1  0  0  0  0  0  0
  156.1830  211.8470  155.9750 C   0  0  2  0  0  3  0  0  0  0  0  0
  155.3720  212.4270  154.7500 C   0  0  0  0  0  2  0  0  0  0  0  0
  154.4020  213.6010  155.0010 N   0  0  0  0  0  0  0  0  0  0  0  0
  154.8190  214.4170  156.0770 C   0  0  0  0  0  3  0  0  0  0  0  0
  156.1660  213.9780  156.6400 C   0  0  0  0  0  1  0  0  0  0  0  0
  153.7080  214.3780  157.2600 C   0  0  0  0  0  1  0  0  0  0  0  0
  154.8980  213.7920  152.8010 O   0  0  0  0  0  1  0  0  0  0  0  0
  154.2170  214.3660  153.8420 N   0  0  0  0  0  2  0  0  0  0  0  0
  1  5  1  0  0  0  0
  2  1  2  0  0  0  0
  3 36  1  6  0  0  0
  3  6  1  0  0  0  0
  4 37  1  1  0  0  0
  5  3  1  0  0  0  0
  5  7  1  0  0  0  0
  6  4  1  0  0  0  0
  7  4  1  0  0  0  0
  8 32  1  0  0  0  0
  8 15  2  0  0  0  0
  9 11  1  0  0  0  0
 11 13  1  0  0  0  0
 12  1  1  6  0  0  0
 12  8  1  0  0  0  0
 13 18  1  0  0  0  0
 13 10  2  0  0  0  0
 14 21  1  6  0  0  0
 14  9  1  0  0  0  0
 14 12  1  0  0  0  0
 15 10  1  0  0  0  0
 17 18  2  0  0  0  0
 18 16  1  0  0  0  0
 19 21  1  0  0  0  0
 20 19  2  0  0  0  0
 22 19  1  0  0  0  0
 23 25  1  0  0  0  0
 23 22  1  0  0  0  0
 24 23  1  0  0  0  0
 26 25  1  0  0  0  0
 27 29  1  0  0  0  0
 27 30  2  0  0  0  0
 28 27  1  0  0  0  0
 30 26  1  0  0  0  0
 31 32  1  0  0  0  0
 34 36  1  0  0  0  0
 35 36  1  0  0  0  0
 36 33  1  0  0  0  0
 37 38  1  0  0  0  0
 38 39  1  1  0  0  0
 41 48  1  1  0  0  0
 41 46  1  0  0  0  0
 42 38  1  6  0  0  0
 42 47  1  0  0  0  0
 42 43  1  0  0  0  0
 43 46  2  0  0  0  0
 44 42  1  0  0  0  0
 44 47  1  0  0  0  0
 44 41  1  0  0  0  0
 45 47  1  0  0  0  0
 47 40  1  0  0  0  0
 48 52  1  0  0  0  0
 49 51  1  0  0  0  0
 49 48  1  0  0  0  0
 50 49  1  0  0  0  0
 50 51  1  0  0  0  0
 54 53  1  0  0  0  0
 54 52  1  0  0  0  0
 55 56  1  0  0  0  0
 55 54  1  0  0  0  0
 56 57  1  0  0  0  0
 57 58  1  0  0  0  0
 57 59  1  0  0  0  0
 60 61  1  0  0  0  0
 61 56  1  0  0  0  0
M  END
>  <MODEL>
4

>  <REMARK>
 VINA RESULT:       0.2      3.772      9.172
  Name = 
  21 active torsions:
  status: ('A' for Active; 'I' for Inactive)
    1  A    between atoms: N_1  and  C_32
    2  A    between atoms: N_1  and  C_60
    3  A    between atoms: C_4  and  O_44
    4  A    between atoms: C_7  and  C_47
    5  A    between atoms: C_8  and  N_28
    6  A    between atoms: C_11  and  C_45
    7  A    between atoms: C_18  and  C_20
    8  A    between atoms: C_18  and  C_21
    9  A    between atoms: C_19  and  C_60
   10  A    between atoms: C_21  and  C_24
   11  A    between atoms: C_23  and  C_54
   12  A    between atoms: N_28  and  N_43
   13  A    between atoms: N_28  and  C_53
   14  A    between atoms: C_31  and  C_47
   15  A    between atoms: C_32  and  C_36
   16  A    between atoms: N_34  and  C_52
   17  A    between atoms: C_36  and  N_61
   18  A    between atoms: C_39  and  C_40
   19  A    between atoms: C_39  and  C_53
   20  A    between atoms: C_40  and  C_47
   21  A    between atoms: CA_49  and  C_50
                            x       y       z     vdW  Elec       q    Type
                         _______ _______ _______ _____ _____    ______ ____

>  <TORSDO>
F 21

$$$$
=
 OpenBabel11072411393D

 61 65  0  0  1  0  0  0  0  0999 V2000
  161.0710  208.8510  154.4230 C   0  0  0  0  0  0  0  0  0  0  0  0
  161.1830  208.1910  155.4980 O   0  0  0  0  0  0  0  0  0  0  0  0
  162.1000  206.9680  153.0560 C   0  0  2  0  0  3  0  0  0  0  0  0
  161.3120  207.6420  150.8590 C   0  0  1  0  0  3  0  0  0  0  0  0
  161.2680  208.1820  153.1600 N   0  0  0  0  0  0  0  0  0  0  0  0
  162.4800  206.9160  151.5510 C   0  0  0  0  0  2  0  0  0  0  0  0
  160.8690  208.6600  151.8760 C   0  0  0  0  0  2  0  0  0  0  0  0
  160.6300  211.0800  155.9360 C   0  0  0  0  0  0  0  0  0  0  0  0
  159.5250  212.0620  153.1480 C   0  0  0  0  0  2  0  0  0  0  0  0
  158.1300  211.6330  155.8920 C   0  0  0  0  0  3  0  0  0  0  0  0
  158.2600  211.3570  153.4910 N   0  0  0  0  0  2  0  0  0  0  0  0
  160.8130  210.3480  154.5430 C   0  0  1  0  0  3  0  0  0  0  0  0
  157.5340  211.5870  154.6900 C   0  0  0  0  0  0  0  0  0  0  0  0
  160.7950  211.3250  153.3490 C   0  0  1  0  0  3  0  0  0  0  0  0
  159.4900  211.5710  156.3610 C   0  0  0  0  0  3  0  0  0  0  0  0
  155.3260  210.6470  154.2670 O   0  0  0  0  0  0  0  0  0  0  0  0
  155.5090  212.8180  154.9610 O   0  0  0  0  0  1  0  0  0  0  0  0
  156.1050  211.7590  154.6690 C   0  0  0  0  0  0  0  0  0  0  0  0
  161.3440  211.5260  150.7930 C   0  0  0  0  0  0  0  0  0  0  0  0
  161.1120  212.7280  150.7250 O   0  0  0  0  0  0  0  0  0  0  0  0
  161.2480  210.7750  152.0020 N   0  0  0  0  0  2  0  0  0  0  0  0
  161.7450  210.7420  149.5350 C   0  0  0  0  0  2  0  0  0  0  0  0
  161.8420  211.4280  148.1880 N   0  0  0  0  0  0  0  0  0  0  0  0
  162.9070  212.4370  148.2830 C   0  0  0  0  0  1  0  0  0  0  0  0
  160.6540  212.1540  147.7400 C   0  0  0  0  0  2  0  0  0  0  0  0
  160.9120  213.1660  146.6040 C   0  0  0  0  0  2  0  0  0  0  0  0
  159.9040  212.2950  144.5210 C   0  0  0  0  0  0  0  0  0  0  0  0
  160.0350  211.6790  143.2650 N   0  0  0  0  0  1  0  0  0  0  0  0
  158.6200  212.5510  145.0260 N   0  0  0  0  0  1  0  0  0  0  0  0
  160.9460  212.4190  145.3280 N   0  0  0  0  0  0  0  0  0  0  0  0
  163.0590  210.7810  156.5010 C   0  0  0  0  0  1  0  0  0  0  0  0
  161.7140  211.0760  156.8810 O   0  0  0  0  0  0  0  0  0  0  0  0
  159.9590  205.7120  152.9870 F   0  0  0  0  0  0  0  0  0  0  0  0
  161.8600  204.6570  152.7220 F   0  0  0  0  0  0  0  0  0  0  0  0
  161.3350  205.4430  154.7190 F   0  0  0  0  0  0  0  0  0  0  0  0
  161.3060  205.7050  153.3930 C   0  0  0  0  0  0  0  0  0  0  0  0
  161.6230  208.2750  149.5070 C   0  0  0  0  0  2  0  0  0  0  0  0
  162.7430  207.7180  148.6510 C   0  0  1  0  0  3  0  0  0  0  0  0
  163.8760  207.2910  149.3240 O   0  0  0  0  0  1  0  0  0  0  0  0
  159.6820  206.1510  147.7530 C   0  0  0  0  0  1  0  0  0  0  0  0
  162.0230  205.1670  145.8030 C   0  0  1  0  0  3  0  0  0  0  0  0
  162.2310  206.5430  147.7520 C   0  0  2  0  0  0  0  0  0  0  0  0
  162.3390  205.0860  148.2530 C   0  0  0  0  0  3  0  0  0  0  0  0
  161.9370  206.6010  146.3180 C   0  0  2  0  0  3  0  0  0  0  0  0
  160.5950  208.3580  147.2410 O   0  0  0  0  0  1  0  0  0  0  0  0
  162.3200  204.2030  147.0390 C   0  0  0  0  0  3  0  0  0  0  0  0
  160.8370  207.0130  147.3200 C   0  0  1  0  0  0  0  0  0  0  0  0
  160.9130  204.8540  144.7350 C   0  0  1  0  0  3  0  0  0  0  0  0
  161.5680  204.6660  143.4720 C   0  0  0  0  0  3  0  0  0  0  0  0
  162.5680  205.7660  143.2820 C   0  0  0  0  0  2  0  0  0  0  0  0
  161.2820  205.8600  142.5240 C   0  0  0  0  0  2  0  0  0  0  0  0
  159.9750  203.6430  144.9990 C   0  0  0  0  0  2  0  0  0  0  0  0
  161.5440  201.7340  145.7280 O   0  0  0  0  0  1  0  0  0  0  0  0
  160.6160  202.6710  146.1760 C   0  0  2  0  0  3  0  0  0  0  0  0
  159.9690  202.2240  147.5460 C   0  0  0  0  0  2  0  0  0  0  0  0
  160.8950  201.6760  148.6520 N   0  0  0  0  0  0  0  0  0  0  0  0
  160.5110  202.1200  149.9370 C   0  0  0  0  0  3  0  0  0  0  0  0
  160.3250  203.6320  149.9900 C   0  0  0  0  0  1  0  0  0  0  0  0
  161.6300  201.6820  151.0280 C   0  0  0  0  0  1  0  0  0  0  0  0
  161.9140  199.8950  147.6990 O   0  0  0  0  0  1  0  0  0  0  0  0
  160.9660  200.2780  148.6110 N   0  0  0  0  0  2  0  0  0  0  0  0
  1  2  2  0  0  0  0
  3  5  1  0  0  0  0
  3 36  1  6  0  0  0
  4 37  1  6  0  0  0
  4  6  1  0  0  0  0
  4  7  1  0  0  0  0
  5  1  1  0  0  0  0
  6  3  1  0  0  0  0
  7  5  1  0  0  0  0
  8 15  2  0  0  0  0
  8 32  1  0  0  0  0
  9 14  1  0  0  0  0
  9 11  1  0  0  0  0
 10 15  1  0  0  0  0
 11 13  1  0  0  0  0
 12  1  1  1  0  0  0
 12  8  1  0  0  0  0
 13 10  2  0  0  0  0
 14 21  1  6  0  0  0
 14 12  1  0  0  0  0
 16 18  2  0  0  0  0
 18 13  1  0  0  0  0
 18 17  1  0  0  0  0
 19 21  1  0  0  0  0
 20 19  2  0  0  0  0
 22 19  1  0  0  0  0
 23 24  1  0  0  0  0
 23 22  1  0  0  0  0
 25 23  1  0  0  0  0
 26 25  1  0  0  0  0
 27 29  1  0  0  0  0
 27 30  2  0  0  0  0
 28 27  1  0  0  0  0
 30 26  1  0  0  0  0
 31 32  1  0  0  0  0
 33 36  1  0  0  0  0
 34 36  1  0  0  0  0
 36 35  1  0  0  0  0
 38 39  1  1  0  0  0
 38 37  1  0  0  0  0
 41 48  1  1  0  0  0
 41 44  1  0  0  0  0
 41 46  1  0  0  0  0
 42 43  1  0  0  0  0
 42 38  1  1  0  0  0
 44 47  1  0  0  0  0
 44 42  1  0  0  0  0
 45 47  1  0  0  0  0
 46 43  2  0  0  0  0
 47 42  1  0  0  0  0
 47 40  1  0  0  0  0
 48 52  1  0  0  0  0
 49 48  1  0  0  0  0
 50 49  1  0  0  0  0
 51 50  1  0  0  0  0
 51 49  1  0  0  0  0
 52 54  1  0  0  0  0
 53 54  1  0  0  0  0
 54 55  1  0  0  0  0
 55 56  1  0  0  0  0
 56 57  1  0  0  0  0
 57 58  1  0  0  0  0
 57 59  1  0  0  0  0
 60 61  1  0  0  0  0
 61 56  1  0  0  0  0
M  END
>  <MODEL>
5

>  <REMARK>
 VINA RESULT:       0.5      1.784      3.466
  Name = 
  21 active torsions:
  status: ('A' for Active; 'I' for Inactive)
    1  A    between atoms: N_1  and  C_32
    2  A    between atoms: N_1  and  C_60
    3  A    between atoms: C_4  and  O_44
    4  A    between atoms: C_7  and  C_47
    5  A    between atoms: C_8  and  N_28
    6  A    between atoms: C_11  and  C_45
    7  A    between atoms: C_18  and  C_20
    8  A    between atoms: C_18  and  C_21
    9  A    between atoms: C_19  and  C_60
   10  A    between atoms: C_21  and  C_24
   11  A    between atoms: C_23  and  C_54
   12  A    between atoms: N_28  and  N_43
   13  A    between atoms: N_28  and  C_53
   14  A    between atoms: C_31  and  C_47
   15  A    between atoms: C_32  and  C_36
   16  A    between atoms: N_34  and  C_52
   17  A    between atoms: C_36  and  N_61
   18  A    between atoms: C_39  and  C_40
   19  A    between atoms: C_39  and  C_53
   20  A    between atoms: C_40  and  C_47
   21  A    between atoms: CA_49  and  C_50
                            x       y       z     vdW  Elec       q    Type
                         _______ _______ _______ _____ _____    ______ ____

>  <TORSDO>
F 21

$$$$
