=
 OpenBabel11072411263D

 35 38  0  0  1  0  0  0  0  0999 V2000
  159.5860  209.1310  155.5010 N   0  0  0  0  0  2  0  0  0  0  0  0
  160.9850  208.8060  153.5400 C   0  0  0  0  0  0  0  0  0  0  0  0
  160.4230  208.1700  156.1240 N   0  0  0  0  0  2  0  0  0  0  0  0
  161.9180  207.6830  151.7690 C   0  0  1  0  0  3  0  0  0  0  0  0
  160.9940  205.8130  150.4230 C   0  0  0  0  0  3  0  0  0  0  0  0
  161.3360  208.9830  152.2690 C   0  0  2  0  0  3  0  0  0  0  0  0
  161.2860  204.8620  151.5330 C   0  0  0  0  0  0  0  0  0  0  0  0
  161.5550  205.3210  152.7610 C   0  0  0  0  0  3  0  0  0  0  0  0
  161.6770  206.7710  152.9410 C   0  0  2  0  0  3  0  0  0  0  0  0
  160.5810  207.0030  155.2360 C   0  0  0  0  0  2  0  0  0  0  0  0
  161.2080  207.4630  153.9630 C   0  0  0  0  0  0  0  0  0  0  0  0
  161.2330  207.1280  150.5440 C   0  0  0  0  0  3  0  0  0  0  0  0
  160.2710  209.6910  154.3990 N   0  0  0  0  0  2  0  0  0  0  0  0
  161.9630  210.3920  150.3110 C   0  0  0  0  0  3  0  0  0  0  0  0
  161.2240  210.2340  151.4840 C   0  0  0  0  0  0  0  0  0  0  0  0
  160.9230  213.6500  149.3330 O   0  0  0  0  0  0  0  0  0  0  0  0
  161.0120  212.5880  150.0090 C   0  0  0  0  0  0  0  0  0  0  0  0
  162.5880  211.7110  148.4340 F   0  0  0  0  0  0  0  0  0  0  0  0
  160.2860  212.4330  151.1610 N   0  0  0  0  0  0  0  0  0  0  0  0
  161.8620  211.5670  149.5700 C   0  0  0  0  0  0  0  0  0  0  0  0
  160.3870  211.2810  151.8900 C   0  0  0  0  0  3  0  0  0  0  0  0
  159.4170  213.4930  151.5980 C   0  0  0  0  0  3  0  0  0  0  0  0
  158.1820  213.2760  152.0470 C   0  0  0  0  0  2  0  0  0  0  0  0
  161.1370  203.3890  151.3250 C   0  0  1  0  0  3  0  0  0  0  0  0
  160.5590  202.8080  152.4540 O   0  0  0  0  0  1  0  0  0  0  0  0
  160.3080  203.1180  150.1590 N   0  0  0  0  0  2  0  0  0  0  0  0
  160.8050  201.9000  149.5330 C   0  0  0  0  0  2  0  0  0  0  0  0
  161.0360  202.1250  148.0480 C   0  0  0  0  0  2  0  0  0  0  0  0
  161.6540  203.3590  147.8440 O   0  0  0  0  0  0  0  0  0  0  0  0
  161.6470  203.5320  146.4590 C   0  0  0  0  0  2  0  0  0  0  0  0
  162.7940  204.4370  146.0450 C   0  0  0  0  0  2  0  0  0  0  0  0
  162.2750  205.7890  145.5790 C   0  0  2  0  0  3  0  0  0  0  0  0
  161.9000  206.5550  146.6830 O   0  0  0  0  0  1  0  0  0  0  0  0
  161.0710  205.5990  144.6750 C   0  0  0  0  0  2  0  0  0  0  0  0
  159.9530  206.2240  145.2300 O   0  0  0  0  0  1  0  0  0  0  0  0
  1  3  1  0  0  0  0
  2 11  2  0  0  0  0
  2 13  1  0  0  0  0
  4 12  1  6  0  0  0
  4  6  1  0  0  0  0
  4  9  1  0  0  0  0
  5 12  2  0  0  0  0
  5  7  1  0  0  0  0
  6 15  1  1  0  0  0
  6  2  1  0  0  0  0
  7  8  2  0  0  0  0
  9  8  1  6  0  0  0
  9 11  1  0  0  0  0
 10  3  1  0  0  0  0
 11 10  1  0  0  0  0
 13  1  1  0  0  0  0
 14 15  1  0  0  0  0
 15 21  2  0  0  0  0
 16 17  2  0  0  0  0
 17 19  1  0  0  0  0
 18 20  1  0  0  0  0
 19 22  1  0  0  0  0
 19 21  1  0  0  0  0
 20 17  1  0  0  0  0
 20 14  2  0  0  0  0
 22 23  2  0  0  0  0
 24  7  1  0  0  0  0
 24 25  1  1  0  0  0
 26 24  1  0  0  0  0
 27 26  1  0  0  0  0
 28 27  1  0  0  0  0
 29 28  1  0  0  0  0
 30 29  1  0  0  0  0
 31 30  1  0  0  0  0
 32 31  1  0  0  0  0
 32 33  1  1  0  0  0
 34 35  1  0  0  0  0
 34 32  1  0  0  0  0
M  END
>  <MODEL>
1

>  <REMARK>
 VINA RESULT:      -7.9      0.000      0.000
  Name = 
  11 active torsions:
  status: ('A' for Active; 'I' for Inactive)
    1  A    between atoms: N_2  and  C_16
    2  A    between atoms: N_2  and  C_21
    3  A    between atoms: C_4  and  N_27
    4  A    between atoms: C_6  and  C_8
    5  A    between atoms: C_6  and  O_18
    6  A    between atoms: C_7  and  C_14
    7  A    between atoms: C_8  and  C_17
    8  A    between atoms: C_11  and  C_17
    9  A    between atoms: C_16  and  C_19
   10  A    between atoms: O_18  and  C_19
   11  A    between atoms: C_20  and  C_21
                            x       y       z     vdW  Elec       q    Type
                         _______ _______ _______ _____ _____    ______ ____

>  <TORSDO>
F 11

$$$$
=
 OpenBabel11072411263D

 35 38  0  0  1  0  0  0  0  0999 V2000
  162.7140  210.4130  149.6390 N   0  0  0  0  0  2  0  0  0  0  0  0
  161.3690  209.2730  151.3110 C   0  0  0  0  0  0  0  0  0  0  0  0
  161.9150  209.7300  148.6870 N   0  0  0  0  0  2  0  0  0  0  0  0
  160.5250  207.4970  152.4970 C   0  0  1  0  0  3  0  0  0  0  0  0
  161.5650  205.3010  153.0030 C   0  0  0  0  0  3  0  0  0  0  0  0
  161.0330  208.9180  152.5490 C   0  0  2  0  0  3  0  0  0  0  0  0
  161.3000  204.8470  151.6090 C   0  0  0  0  0  0  0  0  0  0  0  0
  160.9870  205.7360  150.6580 C   0  0  0  0  0  3  0  0  0  0  0  0
  160.7900  207.1320  151.0620 C   0  0  2  0  0  3  0  0  0  0  0  0
  161.8300  208.3030  149.0450 C   0  0  0  0  0  2  0  0  0  0  0  0
  161.2050  208.1930  150.3950 C   0  0  0  0  0  0  0  0  0  0  0  0
  161.2590  206.5440  153.4080 C   0  0  0  0  0  3  0  0  0  0  0  0
  162.0220  210.4590  150.8700 N   0  0  0  0  0  2  0  0  0  0  0  0
  162.3050  209.9190  154.4450 C   0  0  0  0  0  3  0  0  0  0  0  0
  161.0970  209.7650  153.7620 C   0  0  0  0  0  0  0  0  0  0  0  0
  161.2820  212.0770  157.0800 O   0  0  0  0  0  0  0  0  0  0  0  0
  161.2170  211.3580  156.0460 C   0  0  0  0  0  0  0  0  0  0  0  0
  163.5490  210.8520  156.2430 F   0  0  0  0  0  0  0  0  0  0  0  0
  160.0310  211.2060  155.3760 N   0  0  0  0  0  0  0  0  0  0  0  0
  162.3710  210.7130  155.5860 C   0  0  0  0  0  0  0  0  0  0  0  0
  159.9650  210.4250  154.2560 C   0  0  0  0  0  3  0  0  0  0  0  0
  158.8530  211.8760  155.8610 C   0  0  0  0  0  3  0  0  0  0  0  0
  157.6210  211.4230  155.6410 C   0  0  0  0  0  2  0  0  0  0  0  0
  161.5250  203.4200  151.2220 C   0  0  1  0  0  3  0  0  0  0  0  0
  161.1260  202.5800  152.2620 O   0  0  0  0  0  1  0  0  0  0  0  0
  160.7770  203.0930  150.0160 N   0  0  0  0  0  2  0  0  0  0  0  0
  160.7960  201.6450  149.8600 C   0  0  0  0  0  2  0  0  0  0  0  0
  161.1360  201.2730  148.4260 C   0  0  0  0  0  2  0  0  0  0  0  0
  160.3000  201.9590  147.5440 O   0  0  0  0  0  0  0  0  0  0  0  0
  161.1310  202.3240  146.4850 C   0  0  0  0  0  2  0  0  0  0  0  0
  161.6970  203.7130  146.7270 C   0  0  0  0  0  2  0  0  0  0  0  0
  162.0660  204.3840  145.4120 C   0  0  2  0  0  3  0  0  0  0  0  0
  162.6840  205.6080  145.6670 O   0  0  0  0  0  1  0  0  0  0  0  0
  160.8170  204.6200  144.5830 C   0  0  0  0  0  2  0  0  0  0  0  0
  160.1950  205.8040  144.9840 O   0  0  0  0  0  1  0  0  0  0  0  0
  1 13  1  0  0  0  0
  2  6  1  0  0  0  0
  3 10  1  0  0  0  0
  3  1  1  0  0  0  0
  4  6  1  0  0  0  0
  4 12  1  1  0  0  0
  5 12  2  0  0  0  0
  6 15  1  6  0  0  0
  7  5  1  0  0  0  0
  8  7  2  0  0  0  0
  9  8  1  1  0  0  0
  9  4  1  0  0  0  0
 10 11  1  0  0  0  0
 11  9  1  0  0  0  0
 11  2  2  0  0  0  0
 13  2  1  0  0  0  0
 14 20  2  0  0  0  0
 15 21  2  0  0  0  0
 15 14  1  0  0  0  0
 17 16  2  0  0  0  0
 19 22  1  0  0  0  0
 19 17  1  0  0  0  0
 20 17  1  0  0  0  0
 20 18  1  0  0  0  0
 21 19  1  0  0  0  0
 23 22  2  0  0  0  0
 24  7  1  0  0  0  0
 24 25  1  1  0  0  0
 26 24  1  0  0  0  0
 27 26  1  0  0  0  0
 28 27  1  0  0  0  0
 29 28  1  0  0  0  0
 30 31  1  0  0  0  0
 30 29  1  0  0  0  0
 32 33  1  1  0  0  0
 32 31  1  0  0  0  0
 34 35  1  0  0  0  0
 34 32  1  0  0  0  0
M  END
>  <MODEL>
2

>  <REMARK>
 VINA RESULT:      -7.9      2.677      3.826
  Name = 
  11 active torsions:
  status: ('A' for Active; 'I' for Inactive)
    1  A    between atoms: N_2  and  C_16
    2  A    between atoms: N_2  and  C_21
    3  A    between atoms: C_4  and  N_27
    4  A    between atoms: C_6  and  C_8
    5  A    between atoms: C_6  and  O_18
    6  A    between atoms: C_7  and  C_14
    7  A    between atoms: C_8  and  C_17
    8  A    between atoms: C_11  and  C_17
    9  A    between atoms: C_16  and  C_19
   10  A    between atoms: O_18  and  C_19
   11  A    between atoms: C_20  and  C_21
                            x       y       z     vdW  Elec       q    Type
                         _______ _______ _______ _____ _____    ______ ____

>  <TORSDO>
F 11

$$$$
=
 OpenBabel11072411263D

 35 38  0  0  1  0  0  0  0  0999 V2000
  159.4720  209.4270  155.5940 N   0  0  0  0  0  2  0  0  0  0  0  0
  160.8570  209.1500  153.6160 C   0  0  0  0  0  0  0  0  0  0  0  0
  160.3540  208.5020  156.2090 N   0  0  0  0  0  2  0  0  0  0  0  0
  161.8110  208.0570  151.8360 C   0  0  1  0  0  3  0  0  0  0  0  0
  160.9440  206.1460  150.5100 C   0  0  0  0  0  3  0  0  0  0  0  0
  161.1840  209.3350  152.3390 C   0  0  0  0  0  0  0  0  0  0  0  0
  161.2880  205.2120  151.6190 C   0  0  0  0  0  0  0  0  0  0  0  0
  161.5540  205.6860  152.8420 C   0  0  0  0  0  3  0  0  0  0  0  0
  161.6210  207.1410  153.0150 C   0  0  2  0  0  3  0  0  0  0  0  0
  160.5470  207.3390  155.3240 C   0  0  0  0  0  2  0  0  0  0  0  0
  161.1380  207.8180  154.0400 C   0  0  0  0  0  0  0  0  0  0  0  0
  161.1320  207.4700  150.6230 C   0  0  0  0  0  3  0  0  0  0  0  0
  160.1200  210.0090  154.4810 N   0  0  0  0  0  2  0  0  0  0  0  0
  160.2570  211.6320  152.0650 C   0  0  0  0  0  3  0  0  0  0  0  0
  161.0120  210.5770  151.5510 C   0  0  0  0  0  0  0  0  0  0  0  0
  160.5360  213.9760  149.4040 O   0  0  0  0  0  0  0  0  0  0  0  0
  160.6880  212.9130  150.0670 C   0  0  0  0  0  0  0  0  0  0  0  0
  159.3520  213.8190  151.8360 F   0  0  0  0  0  0  0  0  0  0  0  0
  161.4290  211.8770  149.5620 N   0  0  0  0  0  0  0  0  0  0  0  0
  160.0910  212.8020  151.3280 C   0  0  0  0  0  0  0  0  0  0  0  0
  161.5910  210.7270  150.2850 C   0  0  0  0  0  2  0  0  0  0  0  0
  162.0370  212.0070  148.2650 C   0  0  0  0  0  3  0  0  0  0  0  0
  163.2690  212.4790  148.0880 C   0  0  0  0  0  2  0  0  0  0  0  0
  161.1950  203.7330  151.4190 C   0  0  1  0  0  3  0  0  0  0  0  0
  160.6110  203.1400  152.5380 O   0  0  0  0  0  1  0  0  0  0  0  0
  160.4040  203.4260  150.2360 N   0  0  0  0  0  2  0  0  0  0  0  0
  160.8640  202.1470  149.7120 C   0  0  0  0  0  2  0  0  0  0  0  0
  161.0680  202.2350  148.2080 C   0  0  0  0  0  2  0  0  0  0  0  0
  161.1460  203.5720  147.8140 O   0  0  0  0  0  0  0  0  0  0  0  0
  161.5490  203.5230  146.4800 C   0  0  0  0  0  2  0  0  0  0  0  0
  162.7170  204.4670  146.2580 C   0  0  0  0  0  2  0  0  0  0  0  0
  162.2280  205.8410  145.8230 C   0  0  2  0  0  3  0  0  0  0  0  0
  161.9270  206.6100  146.9470 O   0  0  0  0  0  1  0  0  0  0  0  0
  160.9830  205.7000  144.9680 C   0  0  0  0  0  2  0  0  0  0  0  0
  161.3390  205.5590  143.6260 O   0  0  0  0  0  1  0  0  0  0  0  0
  1  3  1  0  0  0  0
  2 11  2  0  0  0  0
  2 13  1  0  0  0  0
  4 12  1  6  0  0  0
  4  6  1  0  0  0  0
  4  9  1  0  0  0  0
  5 12  2  0  0  0  0
  5  7  1  0  0  0  0
  6  2  1  0  0  0  0
  7  8  2  0  0  0  0
  9  8  1  6  0  0  0
  9 11  1  0  0  0  0
 10  3  1  0  0  0  0
 11 10  1  0  0  0  0
 13  1  1  0  0  0  0
 15 14  1  0  0  0  0
 15  6  2  0  0  0  0
 16 17  2  0  0  0  0
 17 20  1  0  0  0  0
 19 17  1  0  0  0  0
 19 21  1  0  0  0  0
 20 18  1  0  0  0  0
 20 14  2  0  0  0  0
 21 15  1  0  0  0  0
 22 19  1  0  0  0  0
 23 22  2  0  0  0  0
 24  7  1  0  0  0  0
 24 25  1  1  0  0  0
 26 24  1  0  0  0  0
 27 26  1  0  0  0  0
 28 27  1  0  0  0  0
 29 28  1  0  0  0  0
 30 29  1  0  0  0  0
 31 30  1  0  0  0  0
 32 31  1  0  0  0  0
 32 33  1  1  0  0  0
 34 32  1  0  0  0  0
 35 34  1  0  0  0  0
M  END
>  <MODEL>
3

>  <REMARK>
 VINA RESULT:      -7.8      1.164      1.860
  Name = 
  11 active torsions:
  status: ('A' for Active; 'I' for Inactive)
    1  A    between atoms: N_2  and  C_16
    2  A    between atoms: N_2  and  C_21
    3  A    between atoms: C_4  and  N_27
    4  A    between atoms: C_6  and  C_8
    5  A    between atoms: C_6  and  O_18
    6  A    between atoms: C_7  and  C_14
    7  A    between atoms: C_8  and  C_17
    8  A    between atoms: C_11  and  C_17
    9  A    between atoms: C_16  and  C_19
   10  A    between atoms: O_18  and  C_19
   11  A    between atoms: C_20  and  C_21
                            x       y       z     vdW  Elec       q    Type
                         _______ _______ _______ _____ _____    ______ ____

>  <TORSDO>
F 11

$$$$
=
 OpenBabel11072411263D

 35 38  0  0  1  0  0  0  0  0999 V2000
  161.3020  208.6910  148.3190 N   0  0  0  0  0  2  0  0  0  0  0  0
  161.8400  206.8970  149.8690 C   0  0  0  0  0  0  0  0  0  0  0  0
  162.2220  209.4680  149.0680 N   0  0  0  0  0  2  0  0  0  0  0  0
  161.9490  205.8020  151.8840 C   0  0  1  0  0  3  0  0  0  0  0  0
  160.4330  205.9510  153.8440 C   0  0  0  0  0  3  0  0  0  0  0  0
  161.7090  205.6830  150.3990 C   0  0  0  0  0  0  0  0  0  0  0  0
  161.0310  207.2650  154.2150 C   0  0  0  0  0  0  0  0  0  0  0  0
  161.7750  207.9410  153.3310 C   0  0  0  0  0  3  0  0  0  0  0  0
  162.0810  207.2920  152.0520 C   0  0  2  0  0  3  0  0  0  0  0  0
  161.9380  209.3200  150.5070 C   0  0  0  0  0  2  0  0  0  0  0  0
  162.0860  207.8810  150.8710 C   0  0  0  0  0  0  0  0  0  0  0  0
  160.8130  205.2930  152.7370 C   0  0  0  0  0  3  0  0  0  0  0  0
  161.5760  207.3210  148.5350 N   0  0  0  0  0  2  0  0  0  0  0  0
  161.0500  203.2800  150.3750 C   0  0  0  0  0  3  0  0  0  0  0  0
  161.4230  204.4250  149.6710 C   0  0  0  0  0  0  0  0  0  0  0  0
  160.6410  200.9810  147.6920 O   0  0  0  0  0  0  0  0  0  0  0  0
  160.8870  202.0580  148.3020 C   0  0  0  0  0  0  0  0  0  0  0  0
  160.4220  200.9860  150.3920 F   0  0  0  0  0  0  0  0  0  0  0  0
  161.2540  203.1830  147.6100 N   0  0  0  0  0  0  0  0  0  0  0  0
  160.7810  202.0940  149.6960 C   0  0  0  0  0  0  0  0  0  0  0  0
  161.5200  204.3470  148.2770 C   0  0  0  0  0  2  0  0  0  0  0  0
  161.3580  203.1300  146.1760 C   0  0  0  0  0  3  0  0  0  0  0  0
  161.9270  204.0940  145.4560 C   0  0  0  0  0  2  0  0  0  0  0  0
  160.6890  207.9110  155.5190 C   0  0  1  0  0  3  0  0  0  0  0  0
  159.8900  207.0530  156.2760 O   0  0  0  0  0  1  0  0  0  0  0  0
  161.8980  208.2340  156.2630 N   0  0  0  0  0  2  0  0  0  0  0  0
  161.7410  209.5760  156.8060 C   0  0  0  0  0  2  0  0  0  0  0  0
  162.1390  210.6150  155.7700 C   0  0  0  0  0  2  0  0  0  0  0  0
  161.1040  211.5340  155.5950 O   0  0  0  0  0  0  0  0  0  0  0  0
  160.7620  211.4270  154.2460 C   0  0  0  0  0  2  0  0  0  0  0  0
  159.3450  210.8980  154.1130 C   0  0  0  0  0  2  0  0  0  0  0  0
  158.4310  211.9450  153.4950 C   0  0  2  0  0  3  0  0  0  0  0  0
  159.0470  213.1960  153.5500 O   0  0  0  0  0  1  0  0  0  0  0  0
  157.1200  212.0030  154.2550 C   0  0  0  0  0  2  0  0  0  0  0  0
  157.1840  211.1810  155.3810 O   0  0  0  0  0  1  0  0  0  0  0  0
  1 13  1  0  0  0  0
  1  3  1  0  0  0  0
  2  6  1  0  0  0  0
  2 11  2  0  0  0  0
  3 10  1  0  0  0  0
  4  9  1  0  0  0  0
  4 12  1  1  0  0  0
  5  7  1  0  0  0  0
  6  4  1  0  0  0  0
  7 24  1  0  0  0  0
  8  7  2  0  0  0  0
  9  8  1  1  0  0  0
 10 11  1  0  0  0  0
 11  9  1  0  0  0  0
 12  5  2  0  0  0  0
 13  2  1  0  0  0  0
 15 14  1  0  0  0  0
 15  6  2  0  0  0  0
 16 17  2  0  0  0  0
 17 20  1  0  0  0  0
 19 21  1  0  0  0  0
 19 17  1  0  0  0  0
 20 14  2  0  0  0  0
 20 18  1  0  0  0  0
 21 15  1  0  0  0  0
 22 19  1  0  0  0  0
 23 22  2  0  0  0  0
 24 26  1  0  0  0  0
 24 25  1  1  0  0  0
 26 27  1  0  0  0  0
 28 27  1  0  0  0  0
 29 28  1  0  0  0  0
 30 29  1  0  0  0  0
 31 30  1  0  0  0  0
 32 33  1  1  0  0  0
 32 31  1  0  0  0  0
 32 34  1  0  0  0  0
 34 35  1  0  0  0  0
M  END
>  <MODEL>
4

>  <REMARK>
 VINA RESULT:      -7.6      3.463      8.525
  Name = 
  11 active torsions:
  status: ('A' for Active; 'I' for Inactive)
    1  A    between atoms: N_2  and  C_16
    2  A    between atoms: N_2  and  C_21
    3  A    between atoms: C_4  and  N_27
    4  A    between atoms: C_6  and  C_8
    5  A    between atoms: C_6  and  O_18
    6  A    between atoms: C_7  and  C_14
    7  A    between atoms: C_8  and  C_17
    8  A    between atoms: C_11  and  C_17
    9  A    between atoms: C_16  and  C_19
   10  A    between atoms: O_18  and  C_19
   11  A    between atoms: C_20  and  C_21
                            x       y       z     vdW  Elec       q    Type
                         _______ _______ _______ _____ _____    ______ ____

>  <TORSDO>
F 11

$$$$
=
 OpenBabel11072411263D

 35 38  0  0  1  0  0  0  0  0999 V2000
  161.4300  209.7080  148.2760 N   0  0  0  0  0  2  0  0  0  0  0  0
  161.9740  207.7370  149.5900 C   0  0  0  0  0  0  0  0  0  0  0  0
  162.2980  210.4020  149.1590 N   0  0  0  0  0  2  0  0  0  0  0  0
  162.0500  206.3810  151.4410 C   0  0  1  0  0  3  0  0  0  0  0  0
  160.4620  206.2180  153.3420 C   0  0  0  0  0  3  0  0  0  0  0  0
  161.8660  206.4590  149.9450 C   0  0  2  0  0  3  0  0  0  0  0  0
  161.0020  207.4860  153.9110 C   0  0  0  0  0  0  0  0  0  0  0  0
  161.7530  208.2970  153.1560 C   0  0  0  0  0  3  0  0  0  0  0  0
  162.1250  207.8370  151.8140 C   0  0  2  0  0  3  0  0  0  0  0  0
  161.9680  210.0520  150.5530 C   0  0  0  0  0  2  0  0  0  0  0  0
  162.1520  208.5820  150.7240 C   0  0  0  0  0  0  0  0  0  0  0  0
  160.9020  205.7280  152.1730 C   0  0  0  0  0  3  0  0  0  0  0  0
  161.7430  208.3300  148.3160 N   0  0  0  0  0  2  0  0  0  0  0  0
  162.0010  205.3910  147.6970 C   0  0  0  0  0  3  0  0  0  0  0  0
  161.6480  205.3030  149.0440 C   0  0  0  0  0  0  0  0  0  0  0  0
  161.0560  202.1510  146.5740 O   0  0  0  0  0  0  0  0  0  0  0  0
  161.2370  203.1300  147.3500 C   0  0  0  0  0  0  0  0  0  0  0  0
  162.1410  204.4070  145.5370 F   0  0  0  0  0  0  0  0  0  0  0  0
  160.8900  203.0430  148.6730 N   0  0  0  0  0  0  0  0  0  0  0  0
  161.7980  204.3080  146.8450 C   0  0  0  0  0  0  0  0  0  0  0  0
  161.0880  204.1070  149.5090 C   0  0  0  0  0  3  0  0  0  0  0  0
  160.3160  201.8240  149.1760 C   0  0  0  0  0  3  0  0  0  0  0  0
  160.9570  201.0160  150.0170 C   0  0  0  0  0  2  0  0  0  0  0  0
  160.5930  207.9380  155.2760 C   0  0  1  0  0  3  0  0  0  0  0  0
  159.7420  206.9930  155.8510 O   0  0  0  0  0  1  0  0  0  0  0  0
  161.7610  208.1230  156.1250 N   0  0  0  0  0  2  0  0  0  0  0  0
  161.5680  209.3490  156.8860 C   0  0  0  0  0  2  0  0  0  0  0  0
  162.0760  210.5460  156.0980 C   0  0  0  0  0  2  0  0  0  0  0  0
  161.0630  211.4970  155.9690 O   0  0  0  0  0  0  0  0  0  0  0  0
  160.7600  211.5060  154.6080 C   0  0  0  0  0  2  0  0  0  0  0  0
  159.5890  212.4380  154.3460 C   0  0  0  0  0  2  0  0  0  0  0  0
  158.6700  211.8640  153.2770 C   0  0  2  0  0  3  0  0  0  0  0  0
  159.2520  210.7250  152.7190 O   0  0  0  0  0  1  0  0  0  0  0  0
  158.4410  212.8920  152.1840 C   0  0  0  0  0  2  0  0  0  0  0  0
  159.6660  213.3820  151.7260 O   0  0  0  0  0  1  0  0  0  0  0  0
  1 13  1  0  0  0  0
  1  3  1  0  0  0  0
  2  6  1  0  0  0  0
  2 11  2  0  0  0  0
  3 10  1  0  0  0  0
  4  9  1  0  0  0  0
  4 12  1  1  0  0  0
  5  7  1  0  0  0  0
  6 15  1  6  0  0  0
  6  4  1  0  0  0  0
  7 24  1  0  0  0  0
  8  7  2  0  0  0  0
  9  8  1  1  0  0  0
 10 11  1  0  0  0  0
 11  9  1  0  0  0  0
 12  5  2  0  0  0  0
 13  2  1  0  0  0  0
 14 15  1  0  0  0  0
 15 21  2  0  0  0  0
 16 17  2  0  0  0  0
 17 19  1  0  0  0  0
 18 20  1  0  0  0  0
 19 22  1  0  0  0  0
 19 21  1  0  0  0  0
 20 17  1  0  0  0  0
 20 14  2  0  0  0  0
 22 23  2  0  0  0  0
 24 25  1  1  0  0  0
 24 26  1  0  0  0  0
 26 27  1  0  0  0  0
 28 27  1  0  0  0  0
 29 28  1  0  0  0  0
 30 29  1  0  0  0  0
 31 30  1  0  0  0  0
 32 33  1  6  0  0  0
 32 31  1  0  0  0  0
 34 32  1  0  0  0  0
 35 34  1  0  0  0  0
M  END
>  <MODEL>
5

>  <REMARK>
 VINA RESULT:      -7.4      2.927      8.124
  Name = 
  11 active torsions:
  status: ('A' for Active; 'I' for Inactive)
    1  A    between atoms: N_2  and  C_16
    2  A    between atoms: N_2  and  C_21
    3  A    between atoms: C_4  and  N_27
    4  A    between atoms: C_6  and  C_8
    5  A    between atoms: C_6  and  O_18
    6  A    between atoms: C_7  and  C_14
    7  A    between atoms: C_8  and  C_17
    8  A    between atoms: C_11  and  C_17
    9  A    between atoms: C_16  and  C_19
   10  A    between atoms: O_18  and  C_19
   11  A    between atoms: C_20  and  C_21
                            x       y       z     vdW  Elec       q    Type
                         _______ _______ _______ _____ _____    ______ ____

>  <TORSDO>
F 11

$$$$
=
 OpenBabel11072411263D

 35 38  0  0  1  0  0  0  0  0999 V2000
  161.6610  205.4870  153.8060 N   0  0  0  0  0  2  0  0  0  0  0  0
  160.9360  205.9780  151.5380 C   0  0  0  0  0  0  0  0  0  0  0  0
  160.8880  206.6160  154.1810 N   0  0  0  0  0  2  0  0  0  0  0  0
  160.7520  207.1730  149.5870 C   0  0  1  0  0  3  0  0  0  0  0  0
  162.3490  208.7740  148.5610 C   0  0  0  0  0  3  0  0  0  0  0  0
  160.9150  205.8120  150.2180 C   0  0  2  0  0  3  0  0  0  0  0  0
  161.9560  209.8130  149.5550 C   0  0  0  0  0  0  0  0  0  0  0  0
  161.2810  209.4690  150.6590 C   0  0  0  0  0  3  0  0  0  0  0  0
  160.8380  208.0770  150.7870 C   0  0  2  0  0  3  0  0  0  0  0  0
  161.2040  207.7490  153.2930 C   0  0  0  0  0  2  0  0  0  0  0  0
  160.8700  207.3570  151.8930 C   0  0  0  0  0  0  0  0  0  0  0  0
  161.8370  207.5330  148.6020 C   0  0  0  0  0  3  0  0  0  0  0  0
  161.2060  205.0160  152.5540 N   0  0  0  0  0  2  0  0  0  0  0  0
  160.8120  203.3220  150.1640 C   0  0  0  0  0  3  0  0  0  0  0  0
  160.9930  204.5270  149.4850 C   0  0  0  0  0  0  0  0  0  0  0  0
  161.2060  201.0120  147.4890 O   0  0  0  0  0  0  0  0  0  0  0  0
  161.1410  202.1110  148.1040 C   0  0  0  0  0  0  0  0  0  0  0  0
  160.7100  200.9470  150.1520 F   0  0  0  0  0  0  0  0  0  0  0  0
  161.3200  203.2950  147.4370 N   0  0  0  0  0  0  0  0  0  0  0  0
  160.8850  202.1120  149.4800 C   0  0  0  0  0  0  0  0  0  0  0  0
  161.2500  204.4840  148.1090 C   0  0  0  0  0  3  0  0  0  0  0  0
  161.5820  203.2780  146.0220 C   0  0  0  0  0  3  0  0  0  0  0  0
  162.0630  204.3290  145.3630 C   0  0  0  0  0  2  0  0  0  0  0  0
  162.4350  211.2210  149.4070 C   0  0  1  0  0  3  0  0  0  0  0  0
  163.1790  211.3460  148.2330 O   0  0  0  0  0  1  0  0  0  0  0  0
  161.3100  212.1440  149.3710 N   0  0  0  0  0  2  0  0  0  0  0  0
  161.3800  212.8830  148.1180 C   0  0  0  0  0  2  0  0  0  0  0  0
  159.9940  213.0220  147.5090 C   0  0  0  0  0  2  0  0  0  0  0  0
  160.0600  212.8400  146.1270 O   0  0  0  0  0  0  0  0  0  0  0  0
  161.4060  213.0260  145.8120 C   0  0  0  0  0  2  0  0  0  0  0  0
  161.5340  213.6020  144.4120 C   0  0  0  0  0  2  0  0  0  0  0  0
  162.6880  212.9530  143.6620 C   0  0  2  0  0  3  0  0  0  0  0  0
  163.8270  213.7520  143.7720 O   0  0  0  0  0  1  0  0  0  0  0  0
  162.3310  212.7960  142.1960 C   0  0  0  0  0  2  0  0  0  0  0  0
  161.4790  211.7030  142.0280 O   0  0  0  0  0  1  0  0  0  0  0  0
  1  3  1  0  0  0  0
  2 11  2  0  0  0  0
  2 13  1  0  0  0  0
  4 12  1  6  0  0  0
  4  6  1  0  0  0  0
  4  9  1  0  0  0  0
  5 12  2  0  0  0  0
  5  7  1  0  0  0  0
  6 15  1  1  0  0  0
  6  2  1  0  0  0  0
  7  8  2  0  0  0  0
  9  8  1  6  0  0  0
  9 11  1  0  0  0  0
 10  3  1  0  0  0  0
 11 10  1  0  0  0  0
 13  1  1  0  0  0  0
 15 14  1  0  0  0  0
 16 17  2  0  0  0  0
 17 20  1  0  0  0  0
 19 17  1  0  0  0  0
 19 21  1  0  0  0  0
 20 18  1  0  0  0  0
 20 14  2  0  0  0  0
 21 15  2  0  0  0  0
 22 19  1  0  0  0  0
 23 22  2  0  0  0  0
 24 25  1  6  0  0  0
 24  7  1  0  0  0  0
 26 24  1  0  0  0  0
 27 26  1  0  0  0  0
 28 27  1  0  0  0  0
 29 28  1  0  0  0  0
 30 29  1  0  0  0  0
 31 30  1  0  0  0  0
 32 33  1  6  0  0  0
 32 31  1  0  0  0  0
 34 32  1  0  0  0  0
 35 34  1  0  0  0  0
M  END
>  <MODEL>
6

>  <REMARK>
 VINA RESULT:      -7.2      3.611      7.881
  Name = 
  11 active torsions:
  status: ('A' for Active; 'I' for Inactive)
    1  A    between atoms: N_2  and  C_16
    2  A    between atoms: N_2  and  C_21
    3  A    between atoms: C_4  and  N_27
    4  A    between atoms: C_6  and  C_8
    5  A    between atoms: C_6  and  O_18
    6  A    between atoms: C_7  and  C_14
    7  A    between atoms: C_8  and  C_17
    8  A    between atoms: C_11  and  C_17
    9  A    between atoms: C_16  and  C_19
   10  A    between atoms: O_18  and  C_19
   11  A    between atoms: C_20  and  C_21
                            x       y       z     vdW  Elec       q    Type
                         _______ _______ _______ _____ _____    ______ ____

>  <TORSDO>
F 11

$$$$
=
 OpenBabel11072411263D

 35 38  0  0  1  0  0  0  0  0999 V2000
  161.3840  208.9520  148.4350 N   0  0  0  0  0  2  0  0  0  0  0  0
  161.8860  207.0510  149.8650 C   0  0  0  0  0  0  0  0  0  0  0  0
  162.3220  209.6600  149.2300 N   0  0  0  0  0  2  0  0  0  0  0  0
  161.9740  205.8270  151.8050 C   0  0  1  0  0  3  0  0  0  0  0  0
  160.4630  205.8810  153.7740 C   0  0  0  0  0  3  0  0  0  0  0  0
  161.7310  205.8090  150.3150 C   0  0  2  0  0  3  0  0  0  0  0  0
  161.0900  207.1550  154.2280 C   0  0  0  0  0  0  0  0  0  0  0  0
  161.8470  207.8710  153.3870 C   0  0  0  0  0  3  0  0  0  0  0  0
  162.1370  207.3000  152.0690 C   0  0  2  0  0  3  0  0  0  0  0  0
  162.0360  209.4260  150.6570 C   0  0  0  0  0  2  0  0  0  0  0  0
  162.1540  207.9630  150.9270 C   0  0  0  0  0  0  0  0  0  0  0  0
  160.8290  205.2880  152.6270 C   0  0  0  0  0  3  0  0  0  0  0  0
  161.6300  207.5660  148.5620 N   0  0  0  0  0  2  0  0  0  0  0  0
  160.8910  203.4700  150.1240 C   0  0  0  0  0  3  0  0  0  0  0  0
  161.4180  204.6060  149.5090 C   0  0  0  0  0  0  0  0  0  0  0  0
  160.5610  201.3150  147.3140 O   0  0  0  0  0  0  0  0  0  0  0  0
  160.8310  202.3440  147.9920 C   0  0  0  0  0  0  0  0  0  0  0  0
  160.0880  201.2370  149.9810 F   0  0  0  0  0  0  0  0  0  0  0  0
  161.3490  203.4600  147.3880 N   0  0  0  0  0  0  0  0  0  0  0  0
  160.5960  202.3360  149.3710 C   0  0  0  0  0  0  0  0  0  0  0  0
  161.6400  204.5730  148.1270 C   0  0  0  0  0  3  0  0  0  0  0  0
  161.5840  203.4520  145.9690 C   0  0  0  0  0  3  0  0  0  0  0  0
  161.7460  204.5650  145.2570 C   0  0  0  0  0  2  0  0  0  0  0  0
  160.7620  207.7230  155.5710 C   0  0  1  0  0  3  0  0  0  0  0  0
  161.9210  208.2150  156.1720 O   0  0  0  0  0  1  0  0  0  0  0  0
  159.7830  208.7940  155.4500 N   0  0  0  0  0  2  0  0  0  0  0  0
  160.3410  209.9810  156.0820 C   0  0  0  0  0  2  0  0  0  0  0  0
  159.2340  210.8250  156.6920 C   0  0  0  0  0  2  0  0  0  0  0  0
  159.1900  212.0750  156.0720 O   0  0  0  0  0  0  0  0  0  0  0  0
  157.8780  212.1950  155.6150 C   0  0  0  0  0  2  0  0  0  0  0  0
  157.8560  212.1700  154.0960 C   0  0  0  0  0  2  0  0  0  0  0  0
  159.0480  212.9230  153.5250 C   0  0  2  0  0  3  0  0  0  0  0  0
  158.5990  213.9930  152.7500 O   0  0  0  0  0  1  0  0  0  0  0  0
  159.8790  211.9960  152.6580 C   0  0  0  0  0  2  0  0  0  0  0  0
  159.3620  210.7000  152.7120 O   0  0  0  0  0  1  0  0  0  0  0  0
  1 13  1  0  0  0  0
  1  3  1  0  0  0  0
  2  6  1  0  0  0  0
  2 11  2  0  0  0  0
  3 10  1  0  0  0  0
  4  9  1  0  0  0  0
  4 12  1  1  0  0  0
  5  7  1  0  0  0  0
  6 15  1  6  0  0  0
  6  4  1  0  0  0  0
  7 24  1  0  0  0  0
  8  7  2  0  0  0  0
  9  8  1  1  0  0  0
 10 11  1  0  0  0  0
 11  9  1  0  0  0  0
 12  5  2  0  0  0  0
 13  2  1  0  0  0  0
 15 14  1  0  0  0  0
 16 17  2  0  0  0  0
 17 20  1  0  0  0  0
 19 17  1  0  0  0  0
 19 21  1  0  0  0  0
 20 18  1  0  0  0  0
 20 14  2  0  0  0  0
 21 15  2  0  0  0  0
 22 19  1  0  0  0  0
 23 22  2  0  0  0  0
 24 25  1  6  0  0  0
 26 24  1  0  0  0  0
 26 27  1  0  0  0  0
 27 28  1  0  0  0  0
 29 28  1  0  0  0  0
 30 29  1  0  0  0  0
 31 30  1  0  0  0  0
 32 33  1  6  0  0  0
 32 31  1  0  0  0  0
 34 35  1  0  0  0  0
 34 32  1  0  0  0  0
M  END
>  <MODEL>
7

>  <REMARK>
 VINA RESULT:      -7.2      3.373      8.504
  Name = 
  11 active torsions:
  status: ('A' for Active; 'I' for Inactive)
    1  A    between atoms: N_2  and  C_16
    2  A    between atoms: N_2  and  C_21
    3  A    between atoms: C_4  and  N_27
    4  A    between atoms: C_6  and  C_8
    5  A    between atoms: C_6  and  O_18
    6  A    between atoms: C_7  and  C_14
    7  A    between atoms: C_8  and  C_17
    8  A    between atoms: C_11  and  C_17
    9  A    between atoms: C_16  and  C_19
   10  A    between atoms: O_18  and  C_19
   11  A    between atoms: C_20  and  C_21
                            x       y       z     vdW  Elec       q    Type
                         _______ _______ _______ _____ _____    ______ ____

>  <TORSDO>
F 11

$$$$
=
 OpenBabel11072411263D

 35 38  0  0  1  0  0  0  0  0999 V2000
  161.6420  205.4390  153.8440 N   0  0  0  0  0  2  0  0  0  0  0  0
  160.9230  205.8500  151.5590 C   0  0  0  0  0  0  0  0  0  0  0  0
  160.8700  206.5820  154.1780 N   0  0  0  0  0  2  0  0  0  0  0  0
  160.7460  206.9750  149.5660 C   0  0  1  0  0  3  0  0  0  0  0  0
  162.3490  208.5350  148.4880 C   0  0  0  0  0  3  0  0  0  0  0  0
  160.9060  205.6370  150.2450 C   0  0  0  0  0  0  0  0  0  0  0  0
  161.9550  209.6100  149.4430 C   0  0  0  0  0  0  0  0  0  0  0  0
  161.2770  209.3070  150.5570 C   0  0  0  0  0  3  0  0  0  0  0  0
  160.8310  207.9210  150.7330 C   0  0  2  0  0  3  0  0  0  0  0  0
  161.1900  207.6820  153.2500 C   0  0  0  0  0  2  0  0  0  0  0  0
  160.8590  207.2410  151.8640 C   0  0  0  0  0  0  0  0  0  0  0  0
  161.8350  207.2980  148.5710 C   0  0  0  0  0  3  0  0  0  0  0  0
  161.1890  204.9240  152.6080 N   0  0  0  0  0  2  0  0  0  0  0  0
  160.8290  203.1460  150.2850 C   0  0  0  0  0  3  0  0  0  0  0  0
  160.9830  204.3270  149.5580 C   0  0  0  0  0  0  0  0  0  0  0  0
  161.1930  200.7420  147.6890 O   0  0  0  0  0  0  0  0  0  0  0  0
  161.1290  201.8630  148.2650 C   0  0  0  0  0  0  0  0  0  0  0  0
  160.7550  200.7710  150.3630 F   0  0  0  0  0  0  0  0  0  0  0  0
  161.2810  203.0230  147.5510 N   0  0  0  0  0  0  0  0  0  0  0  0
  160.9020  201.9120  149.6450 C   0  0  0  0  0  0  0  0  0  0  0  0
  161.2110  204.2350  148.1800 C   0  0  0  0  0  2  0  0  0  0  0  0
  161.5130  202.9560  146.1330 C   0  0  0  0  0  3  0  0  0  0  0  0
  161.3500  204.0000  145.3230 C   0  0  0  0  0  2  0  0  0  0  0  0
  162.4380  211.0110  149.2460 C   0  0  1  0  0  3  0  0  0  0  0  0
  162.4520  211.3190  147.8860 O   0  0  0  0  0  1  0  0  0  0  0  0
  161.5790  211.9520  149.9510 N   0  0  0  0  0  2  0  0  0  0  0  0
  161.1940  212.9940  149.0090 C   0  0  0  0  0  2  0  0  0  0  0  0
  159.7440  213.3940  149.2280 C   0  0  0  0  0  2  0  0  0  0  0  0
  159.6390  214.2040  150.3600 O   0  0  0  0  0  0  0  0  0  0  0  0
  158.5840  213.6540  151.0890 C   0  0  0  0  0  2  0  0  0  0  0  0
  159.0500  213.3130  152.4950 C   0  0  0  0  0  2  0  0  0  0  0  0
  159.0330  211.8090  152.7200 C   0  0  2  0  0  3  0  0  0  0  0  0
  157.9650  211.4700  153.5520 O   0  0  0  0  0  1  0  0  0  0  0  0
  160.3310  211.3680  153.3720 C   0  0  0  0  0  2  0  0  0  0  0  0
  160.0780  210.8780  154.6550 O   0  0  0  0  0  1  0  0  0  0  0  0
  1  3  1  0  0  0  0
  2 11  2  0  0  0  0
  2 13  1  0  0  0  0
  4 12  1  6  0  0  0
  4  6  1  0  0  0  0
  4  9  1  0  0  0  0
  5 12  2  0  0  0  0
  5  7  1  0  0  0  0
  6  2  1  0  0  0  0
  7  8  2  0  0  0  0
  9  8  1  6  0  0  0
  9 11  1  0  0  0  0
 10  3  1  0  0  0  0
 11 10  1  0  0  0  0
 13  1  1  0  0  0  0
 15  6  2  0  0  0  0
 15 14  1  0  0  0  0
 16 17  2  0  0  0  0
 17 20  1  0  0  0  0
 19 21  1  0  0  0  0
 19 17  1  0  0  0  0
 20 14  2  0  0  0  0
 20 18  1  0  0  0  0
 21 15  1  0  0  0  0
 22 19  1  0  0  0  0
 23 22  2  0  0  0  0
 24 25  1  6  0  0  0
 24  7  1  0  0  0  0
 24 26  1  0  0  0  0
 27 28  1  0  0  0  0
 27 26  1  0  0  0  0
 28 29  1  0  0  0  0
 29 30  1  0  0  0  0
 30 31  1  0  0  0  0
 31 32  1  0  0  0  0
 32 34  1  0  0  0  0
 32 33  1  1  0  0  0
 34 35  1  0  0  0  0
M  END
>  <MODEL>
8

>  <REMARK>
 VINA RESULT:      -7.1      2.932      8.484
  Name = 
  11 active torsions:
  status: ('A' for Active; 'I' for Inactive)
    1  A    between atoms: N_2  and  C_16
    2  A    between atoms: N_2  and  C_21
    3  A    between atoms: C_4  and  N_27
    4  A    between atoms: C_6  and  C_8
    5  A    between atoms: C_6  and  O_18
    6  A    between atoms: C_7  and  C_14
    7  A    between atoms: C_8  and  C_17
    8  A    between atoms: C_11  and  C_17
    9  A    between atoms: C_16  and  C_19
   10  A    between atoms: O_18  and  C_19
   11  A    between atoms: C_20  and  C_21
                            x       y       z     vdW  Elec       q    Type
                         _______ _______ _______ _____ _____    ______ ____

>  <TORSDO>
F 11

$$$$
=
 OpenBabel11072411263D

 35 38  0  0  1  0  0  0  0  0999 V2000
  162.7410  210.3970  149.5740 N   0  0  0  0  0  2  0  0  0  0  0  0
  161.3510  209.3000  151.2390 C   0  0  0  0  0  0  0  0  0  0  0  0
  161.9710  209.6840  148.6190 N   0  0  0  0  0  2  0  0  0  0  0  0
  160.4770  207.5570  152.4510 C   0  0  1  0  0  3  0  0  0  0  0  0
  161.5070  205.3790  153.0500 C   0  0  0  0  0  3  0  0  0  0  0  0
  160.9800  208.9800  152.4760 C   0  0  2  0  0  3  0  0  0  0  0  0
  161.2840  204.8840  151.6620 C   0  0  0  0  0  0  0  0  0  0  0  0
  160.9960  205.7450  150.6770 C   0  0  0  0  0  3  0  0  0  0  0  0
  160.7840  207.1510  151.0350 C   0  0  2  0  0  3  0  0  0  0  0  0
  161.8800  208.2670  149.0160 C   0  0  0  0  0  2  0  0  0  0  0  0
  161.2160  208.1940  150.3500 C   0  0  0  0  0  0  0  0  0  0  0  0
  161.1870  206.6320  153.4090 C   0  0  0  0  0  3  0  0  0  0  0  0
  162.0130  210.4750  150.7830 N   0  0  0  0  0  2  0  0  0  0  0  0
  160.2180  211.0120  153.7020 C   0  0  0  0  0  3  0  0  0  0  0  0
  161.0070  209.8620  153.6660 C   0  0  0  0  0  0  0  0  0  0  0  0
  161.0760  212.2780  156.9130 O   0  0  0  0  0  0  0  0  0  0  0  0
  161.0600  211.5200  155.9040 C   0  0  0  0  0  0  0  0  0  0  0  0
  159.4710  212.9620  154.8400 F   0  0  0  0  0  0  0  0  0  0  0  0
  161.8360  210.3910  155.8690 N   0  0  0  0  0  0  0  0  0  0  0  0
  160.2400  211.8450  154.8180 C   0  0  0  0  0  0  0  0  0  0  0  0
  161.8150  209.5740  154.7720 C   0  0  0  0  0  3  0  0  0  0  0  0
  162.6720  210.0710  156.9940 C   0  0  0  0  0  3  0  0  0  0  0  0
  163.8060  210.7160  157.2590 C   0  0  0  0  0  2  0  0  0  0  0  0
  161.5240  203.4480  151.3230 C   0  0  1  0  0  3  0  0  0  0  0  0
  161.6870  202.7080  152.4940 O   0  0  0  0  0  1  0  0  0  0  0  0
  160.4080  202.9100  150.5580 N   0  0  0  0  0  2  0  0  0  0  0  0
  160.8440  201.6570  149.9560 C   0  0  0  0  0  2  0  0  0  0  0  0
  160.3800  201.5760  148.5110 C   0  0  0  0  0  2  0  0  0  0  0  0
  160.8460  202.6800  147.7970 O   0  0  0  0  0  0  0  0  0  0  0  0
  161.2170  202.1650  146.5550 C   0  0  0  0  0  2  0  0  0  0  0  0
  161.6810  203.2910  145.6470 C   0  0  0  0  0  2  0  0  0  0  0  0
  160.5000  204.1200  145.1650 C   0  0  2  0  0  3  0  0  0  0  0  0
  159.8430  203.4470  144.1340 O   0  0  0  0  0  1  0  0  0  0  0  0
  160.9840  205.4630  144.6520 C   0  0  0  0  0  2  0  0  0  0  0  0
  160.3030  206.4950  145.3000 O   0  0  0  0  0  1  0  0  0  0  0  0
  1 13  1  0  0  0  0
  2  6  1  0  0  0  0
  3 10  1  0  0  0  0
  3  1  1  0  0  0  0
  4  6  1  0  0  0  0
  4 12  1  1  0  0  0
  5 12  2  0  0  0  0
  6 15  1  6  0  0  0
  7  5  1  0  0  0  0
  8  7  2  0  0  0  0
  9  8  1  1  0  0  0
  9  4  1  0  0  0  0
 10 11  1  0  0  0  0
 11  9  1  0  0  0  0
 11  2  2  0  0  0  0
 13  2  1  0  0  0  0
 14 20  2  0  0  0  0
 15 14  1  0  0  0  0
 15 21  2  0  0  0  0
 17 16  2  0  0  0  0
 19 17  1  0  0  0  0
 19 22  1  0  0  0  0
 20 18  1  0  0  0  0
 20 17  1  0  0  0  0
 21 19  1  0  0  0  0
 22 23  2  0  0  0  0
 24  7  1  0  0  0  0
 24 25  1  1  0  0  0
 26 24  1  0  0  0  0
 27 26  1  0  0  0  0
 28 27  1  0  0  0  0
 29 28  1  0  0  0  0
 30 29  1  0  0  0  0
 31 30  1  0  0  0  0
 32 33  1  6  0  0  0
 32 31  1  0  0  0  0
 34 32  1  0  0  0  0
 34 35  1  0  0  0  0
M  END
>  <MODEL>
9

>  <REMARK>
 VINA RESULT:      -6.6      2.687      4.160
  Name = 
  11 active torsions:
  status: ('A' for Active; 'I' for Inactive)
    1  A    between atoms: N_2  and  C_16
    2  A    between atoms: N_2  and  C_21
    3  A    between atoms: C_4  and  N_27
    4  A    between atoms: C_6  and  C_8
    5  A    between atoms: C_6  and  O_18
    6  A    between atoms: C_7  and  C_14
    7  A    between atoms: C_8  and  C_17
    8  A    between atoms: C_11  and  C_17
    9  A    between atoms: C_16  and  C_19
   10  A    between atoms: O_18  and  C_19
   11  A    between atoms: C_20  and  C_21
                            x       y       z     vdW  Elec       q    Type
                         _______ _______ _______ _____ _____    ______ ____

>  <TORSDO>
F 11

$$$$
