=
 OpenBabel11072414413D

 60 66  0  0  1  0  0  0  0  0999 V2000
  159.2630  209.6330  155.2930 C   0  0  0  0  0  2  0  0  0  0  0  0
  161.1490  210.6110  150.5190 C   0  0  1  0  0  3  0  0  0  0  0  0
  162.2120  210.9300  149.4810 C   0  0  0  0  0  2  0  0  0  0  0  0
  158.6980  210.8290  157.2390 O   0  0  0  0  0  0  0  0  0  0  0  0
  161.7710  209.9440  151.7680 C   0  0  1  0  0  3  0  0  0  0  0  0
  161.4310  210.6560  153.0520 C   0  0  0  0  0  3  0  0  0  0  0  0
  162.1070  208.5420  148.9610 O   0  0  0  0  0  0  0  0  0  0  0  0
  161.1780  208.0120  155.7730 O   0  0  0  0  0  0  0  0  0  0  0  0
  163.0960  208.3470  149.8200 O   0  0  0  0  0  0  0  0  0  0  0  0
  159.5480  210.1820  156.6440 C   0  0  0  0  0  0  0  0  0  0  0  0
  160.8940  209.9780  157.2490 C   0  0  0  0  0  2  0  0  0  0  0  0
  162.5520  207.6450  150.9160 C   0  0  1  0  0  3  0  0  0  0  0  0
  162.9060  208.6170  157.2610 C   0  0  0  0  0  1  0  0  0  0  0  0
  161.3600  207.7340  153.0750 C   0  0  0  0  0  2  0  0  0  0  0  0
  161.4760  208.4170  151.7130 C   0  0  1  0  0  3  0  0  0  0  0  0
  162.3040  209.8240  148.4260 C   0  0  0  0  0  2  0  0  0  0  0  0
  159.9430  207.8520  153.6340 C   0  0  0  0  0  2  0  0  0  0  0  0
  161.8210  209.1480  156.3490 C   0  0  1  0  0  0  0  0  0  0  0  0
  162.0000  210.3580  154.1890 C   0  0  0  0  0  0  0  0  0  0  0  0
  159.9310  208.2600  155.1130 C   0  0  2  0  0  3  0  0  0  0  0  0
  162.5360  210.0020  155.3240 C   0  0  0  0  0  3  0  0  0  0  0  0
  159.0310  211.3680  151.4190 O   0  0  0  0  0  1  0  0  0  0  0  0
  160.1590  211.7670  150.6970 C   0  0  2  0  0  3  0  0  0  0  0  0
  159.7770  212.2840  149.4300 O   0  0  0  0  0  0  0  0  0  0  0  0
  160.2980  213.4710  148.9230 C   0  0  0  0  0  0  0  0  0  0  0  0
  160.5340  214.4520  149.6860 O   0  0  0  0  0  0  0  0  0  0  0  0
  160.5800  213.5870  147.4490 C   0  0  2  0  0  0  0  0  0  0  0  0
  161.5710  212.6130  146.8230 C   0  0  1  0  0  3  0  0  0  0  0  0
  161.3170  212.4340  145.4650 O   0  0  0  0  0  1  0  0  0  0  0  0
  161.9800  214.0550  147.0680 C   0  0  2  0  0  3  0  0  0  0  0  0
  162.8360  214.1010  148.1650 O   0  0  0  0  0  1  0  0  0  0  0  0
  159.5960  214.1350  146.6040 O   0  0  0  0  0  0  0  0  0  0  0  0
  158.3870  213.4690  146.8640 C   0  0  2  0  0  3  0  0  0  0  0  0
  157.7450  213.5920  144.5490 O   0  0  0  0  0  1  0  0  0  0  0  0
  157.8930  212.7230  145.6280 C   0  0  0  0  0  2  0  0  0  0  0  0
  157.3400  214.4430  147.3920 C   0  0  0  0  0  2  0  0  0  0  0  0
  156.4000  213.7790  148.1900 O   0  0  0  0  0  0  0  0  0  0  0  0
  156.4250  214.4530  149.4110 C   0  0  0  0  0  2  0  0  0  0  0  0
  156.7710  213.4780  150.5190 C   0  0  0  0  0  1  0  0  0  0  0  0
  162.0520  206.2560  150.5100 C   0  0  0  0  0  2  0  0  0  0  0  0
  161.3250  206.3010  149.1740 C   0  0  2  0  0  3  0  0  0  0  0  0
  159.9210  206.8520  149.3750 C   0  0  0  0  0  1  0  0  0  0  0  0
  161.3470  204.9250  148.4730 C   0  0  2  0  0  3  0  0  0  0  0  0
  161.0600  200.3760  148.1390 C   0  0  0  0  0  3  0  0  0  0  0  0
  162.3240  201.6730  149.9620 C   0  0  0  0  0  3  0  0  0  0  0  0
  160.6700  203.7490  149.2010 C   0  0  2  0  0  0  0  0  0  0  0  0
  160.4800  202.5570  148.4910 C   0  0  0  0  0  0  0  0  0  0  0  0
  162.0670  200.4790  149.1960 C   0  0  0  0  0  3  0  0  0  0  0  0
  159.6020  204.0470  150.2320 C   0  0  0  0  0  1  0  0  0  0  0  0
  161.4890  202.6640  149.5540 C   0  0  0  0  0  0  0  0  0  0  0  0
  160.2020  201.4580  147.7330 C   0  0  0  0  0  3  0  0  0  0  0  0
  162.6750  204.5540  147.7990 C   0  0  0  0  0  2  0  0  0  0  0  0
  162.8770  205.2580  146.4540 C   0  0  1  0  0  3  0  0  0  0  0  0
  163.1860  204.2590  145.3360 C   0  0  0  0  0  2  0  0  0  0  0  0
  160.4290  205.2700  145.7660 C   0  0  2  0  0  3  0  0  0  0  0  0
  159.3940  206.1230  145.3610 O   0  0  0  0  0  1  0  0  0  0  0  0
  161.6590  206.1240  146.0950 C   0  0  0  0  0  2  0  0  0  0  0  0
  161.9590  203.4050  145.0020 C   0  0  0  0  0  2  0  0  0  0  0  0
  160.7550  204.2720  144.6420 C   0  0  1  0  0  3  0  0  0  0  0  0
  159.5660  203.3660  144.3780 C   0  0  0  0  0  1  0  0  0  0  0  0
  1 10  1  0  0  0  0
  2 23  1  1  0  0  0
  2  5  1  0  0  0  0
  3  2  1  0  0  0  0
  5  6  1  1  0  0  0
  6 19  2  0  0  0  0
  7  9  1  0  0  0  0
  8 18  1  0  0  0  0
  9 12  1  0  0  0  0
 10  4  2  0  0  0  0
 10 11  1  0  0  0  0
 12 40  1  6  0  0  0
 12 15  1  0  0  0  0
 14 17  1  0  0  0  0
 15  5  1  0  0  0  0
 15 14  1  1  0  0  0
 16  7  1  0  0  0  0
 16  3  1  0  0  0  0
 18 11  1  0  0  0  0
 18 13  1  1  0  0  0
 19 21  2  0  0  0  0
 20 17  1  6  0  0  0
 20  1  1  0  0  0  0
 20  8  1  0  0  0  0
 21 18  1  0  0  0  0
 23 22  1  6  0  0  0
 24 23  1  0  0  0  0
 25 24  1  0  0  0  0
 25 26  2  0  0  0  0
 27 32  1  6  0  0  0
 27 25  1  0  0  0  0
 28 29  1  6  0  0  0
 28 30  1  0  0  0  0
 28 27  1  0  0  0  0
 30 27  1  0  0  0  0
 30 31  1  1  0  0  0
 32 33  1  0  0  0  0
 33 35  1  6  0  0  0
 33 36  1  0  0  0  0
 34 35  1  0  0  0  0
 36 37  1  0  0  0  0
 37 38  1  0  0  0  0
 38 39  1  0  0  0  0
 41 42  1  1  0  0  0
 41 40  1  0  0  0  0
 43 52  1  1  0  0  0
 43 41  1  0  0  0  0
 43 46  1  0  0  0  0
 44 48  1  0  0  0  0
 46 50  1  0  0  0  0
 46 49  1  1  0  0  0
 47 46  1  0  0  0  0
 47 50  2  0  0  0  0
 48 45  2  0  0  0  0
 50 45  1  0  0  0  0
 51 44  2  0  0  0  0
 51 47  1  0  0  0  0
 53 52  1  1  0  0  0
 54 53  1  0  0  0  0
 55 56  1  6  0  0  0
 55 57  1  0  0  0  0
 57 53  1  0  0  0  0
 58 54  1  0  0  0  0
 59 60  1  1  0  0  0
 59 58  1  0  0  0  0
 59 55  1  0  0  0  0
M  END
>  <MODEL>
1

>  <REMARK>
 VINA RESULT:      -0.8      0.000      0.000
  Name = 
  16 active torsions:
  status: ('A' for Active; 'I' for Inactive)
    1  A    between atoms: C_2  and  O_52
    2  A    between atoms: C_4  and  C_19
    3  A    between atoms: C_5  and  C_48
    4  A    between atoms: C_7  and  C_11
    5  A    between atoms: C_7  and  O_27
    6  A    between atoms: C_11  and  O_45
    7  A    between atoms: C_14  and  C_20
    8  A    between atoms: C_14  and  C_32
    9  A    between atoms: C_19  and  C_23
   10  A    between atoms: C_20  and  C_23
   11  A    between atoms: C_23  and  C_26
   12  A    between atoms: O_27  and  C_48
   13  A    between atoms: C_29  and  C_39
   14  A    between atoms: C_29  and  O_52
   15  A    between atoms: C_39  and  O_45
   16  A    between atoms: C_39  and  C_47
                            x       y       z     vdW  Elec       q    Type
                         _______ _______ _______ _____ _____    ______ ____

>  <TORSDO>
F 16

$$$$
=
 OpenBabel11072414413D

 60 66  0  0  1  0  0  0  0  0999 V2000
  160.2750  204.7990  148.1520 C   0  0  0  0  0  2  0  0  0  0  0  0
  161.8310  208.5610  151.4280 C   0  0  1  0  0  3  0  0  0  0  0  0
  162.8170  209.5080  152.0920 C   0  0  0  0  0  2  0  0  0  0  0  0
  160.3600  202.4530  148.0020 O   0  0  0  0  0  0  0  0  0  0  0  0
  162.3330  208.1220  150.0330 C   0  0  1  0  0  3  0  0  0  0  0  0
  162.3940  206.6250  149.8670 C   0  0  0  0  0  3  0  0  0  0  0  0
  161.8690  211.1930  150.5920 O   0  0  0  0  0  0  0  0  0  0  0  0
  161.5860  205.8590  146.2320 O   0  0  0  0  0  0  0  0  0  0  0  0
  162.8280  210.9090  149.7230 O   0  0  0  0  0  0  0  0  0  0  0  0
  160.8750  203.5190  147.6960 C   0  0  0  0  0  0  0  0  0  0  0  0
  162.1360  203.5410  146.9040 C   0  0  0  0  0  2  0  0  0  0  0  0
  162.2080  210.2740  148.6260 C   0  0  1  0  0  3  0  0  0  0  0  0
  163.5730  204.8540  145.4490 C   0  0  0  0  0  1  0  0  0  0  0  0
  161.3620  208.1850  147.6210 C   0  0  0  0  0  2  0  0  0  0  0  0
  161.5450  208.9160  148.9500 C   0  0  1  0  0  3  0  0  0  0  0  0
  162.4180  210.9690  151.8640 C   0  0  0  0  0  2  0  0  0  0  0  0
  160.1370  207.2740  147.6540 C   0  0  0  0  0  2  0  0  0  0  0  0
  162.6290  204.9690  146.6280 C   0  0  1  0  0  0  0  0  0  0  0  0
  162.9560  206.0580  148.8350 C   0  0  0  0  0  0  0  0  0  0  0  0
  160.4260  205.8830  147.0720 C   0  0  2  0  0  3  0  0  0  0  0  0
  163.4670  205.5140  147.7640 C   0  0  0  0  0  3  0  0  0  0  0  0
  160.4920  206.5700  151.7600 O   0  0  0  0  0  1  0  0  0  0  0  0
  161.3070  207.5050  152.4060 C   0  0  2  0  0  3  0  0  0  0  0  0
  160.5980  208.1290  153.4670 O   0  0  0  0  0  0  0  0  0  0  0  0
  160.2020  209.4620  153.4140 C   0  0  0  0  0  0  0  0  0  0  0  0
  159.6120  209.9220  152.3940 O   0  0  0  0  0  0  0  0  0  0  0  0
  160.4840  210.3670  154.5830 C   0  0  2  0  0  0  0  0  0  0  0  0
  161.5670  209.9530  155.5740 C   0  0  1  0  0  3  0  0  0  0  0  0
  162.1140  211.0600  156.2180 O   0  0  0  0  0  1  0  0  0  0  0  0
  160.1020  209.8270  155.9570 C   0  0  2  0  0  3  0  0  0  0  0  0
  159.7370  208.4850  155.9120 O   0  0  0  0  0  1  0  0  0  0  0  0
  160.2120  211.7430  154.4660 O   0  0  0  0  0  0  0  0  0  0  0  0
  158.8880  211.8850  154.0210 C   0  0  2  0  0  3  0  0  0  0  0  0
  158.0960  212.8530  151.9660 O   0  0  0  0  0  1  0  0  0  0  0  0
  158.7250  213.1440  153.1750 C   0  0  0  0  0  2  0  0  0  0  0  0
  157.9200  211.8650  155.1980 C   0  0  0  0  0  2  0  0  0  0  0  0
  156.5980  211.9910  154.7570 O   0  0  0  0  0  0  0  0  0  0  0  0
  155.8910  212.4580  155.8660 C   0  0  0  0  0  2  0  0  0  0  0  0
  156.7290  213.4830  156.6040 C   0  0  0  0  0  1  0  0  0  0  0  0
  161.2340  211.2090  147.9050 C   0  0  0  0  0  2  0  0  0  0  0  0
  161.9760  212.1960  147.0150 C   0  0  2  0  0  3  0  0  0  0  0  0
  163.3130  212.5500  147.6490 C   0  0  0  0  0  1  0  0  0  0  0  0
  161.1050  213.4310  146.6950 C   0  0  2  0  0  3  0  0  0  0  0  0
  156.6460  213.4050  145.6920 C   0  0  0  0  0  3  0  0  0  0  0  0
  157.9220  211.5430  146.9210 C   0  0  0  0  0  3  0  0  0  0  0  0
  159.7520  213.5500  147.4210 C   0  0  2  0  0  0  0  0  0  0  0  0
  158.6360  213.9460  146.6730 C   0  0  0  0  0  0  0  0  0  0  0  0
  156.7990  212.0260  146.1560 C   0  0  0  0  0  3  0  0  0  0  0  0
  159.7370  214.0000  148.8670 C   0  0  0  0  0  1  0  0  0  0  0  0
  158.7930  212.5630  147.1420 C   0  0  0  0  0  0  0  0  0  0  0  0
  157.6010  214.4510  145.9430 C   0  0  0  0  0  3  0  0  0  0  0  0
  161.0510  213.8300  145.2150 C   0  0  0  0  0  2  0  0  0  0  0  0
  161.3370  212.6570  144.2720 C   0  0  1  0  0  3  0  0  0  0  0  0
  160.0470  211.9580  143.8350 C   0  0  0  0  0  2  0  0  0  0  0  0
  161.3310  214.0110  142.1200 C   0  0  2  0  0  3  0  0  0  0  0  0
  162.1100  214.3090  140.9950 O   0  0  0  0  0  1  0  0  0  0  0  0
  162.1530  213.1150  143.0530 C   0  0  0  0  0  2  0  0  0  0  0  0
  159.2230  212.8500  142.9010 C   0  0  0  0  0  2  0  0  0  0  0  0
  160.0400  213.2960  141.6910 C   0  0  1  0  0  3  0  0  0  0  0  0
  159.1840  214.2170  140.8400 C   0  0  0  0  0  1  0  0  0  0  0  0
  2  3  1  0  0  0  0
  2 23  1  1  0  0  0
  5  6  1  6  0  0  0
  5  2  1  0  0  0  0
  7 16  1  0  0  0  0
  8 18  1  0  0  0  0
  8 20  1  0  0  0  0
  9  7  1  0  0  0  0
 10  4  2  0  0  0  0
 10  1  1  0  0  0  0
 11 10  1  0  0  0  0
 12 40  1  1  0  0  0
 12 15  1  0  0  0  0
 12  9  1  0  0  0  0
 14 17  1  0  0  0  0
 15 14  1  6  0  0  0
 15  5  1  0  0  0  0
 16  3  1  0  0  0  0
 18 13  1  6  0  0  0
 18 11  1  0  0  0  0
 18 21  1  0  0  0  0
 19  6  2  0  0  0  0
 20 17  1  1  0  0  0
 20  1  1  0  0  0  0
 21 19  2  0  0  0  0
 23 22  1  6  0  0  0
 23 24  1  0  0  0  0
 25 24  1  0  0  0  0
 26 25  2  0  0  0  0
 27 25  1  6  0  0  0
 27 28  1  0  0  0  0
 27 30  1  0  0  0  0
 28 30  1  0  0  0  0
 28 29  1  1  0  0  0
 30 31  1  6  0  0  0
 32 27  1  0  0  0  0
 33 35  1  1  0  0  0
 33 32  1  0  0  0  0
 33 36  1  0  0  0  0
 34 35  1  0  0  0  0
 37 36  1  0  0  0  0
 37 38  1  0  0  0  0
 38 39  1  0  0  0  0
 41 42  1  1  0  0  0
 41 40  1  0  0  0  0
 43 52  1  6  0  0  0
 43 41  1  0  0  0  0
 43 46  1  0  0  0  0
 44 51  2  0  0  0  0
 44 48  1  0  0  0  0
 45 50  1  0  0  0  0
 46 49  1  1  0  0  0
 47 50  2  0  0  0  0
 47 46  1  0  0  0  0
 48 45  2  0  0  0  0
 50 46  1  0  0  0  0
 51 47  1  0  0  0  0
 53 52  1  1  0  0  0
 54 53  1  0  0  0  0
 55 56  1  6  0  0  0
 55 57  1  0  0  0  0
 57 53  1  0  0  0  0
 58 54  1  0  0  0  0
 59 60  1  6  0  0  0
 59 55  1  0  0  0  0
 59 58  1  0  0  0  0
M  END
>  <MODEL>
2

>  <REMARK>
 VINA RESULT:       0.4      2.439      8.548
  Name = 
  16 active torsions:
  status: ('A' for Active; 'I' for Inactive)
    1  A    between atoms: C_2  and  O_52
    2  A    between atoms: C_4  and  C_19
    3  A    between atoms: C_5  and  C_48
    4  A    between atoms: C_7  and  C_11
    5  A    between atoms: C_7  and  O_27
    6  A    between atoms: C_11  and  O_45
    7  A    between atoms: C_14  and  C_20
    8  A    between atoms: C_14  and  C_32
    9  A    between atoms: C_19  and  C_23
   10  A    between atoms: C_20  and  C_23
   11  A    between atoms: C_23  and  C_26
   12  A    between atoms: O_27  and  C_48
   13  A    between atoms: C_29  and  C_39
   14  A    between atoms: C_29  and  O_52
   15  A    between atoms: C_39  and  O_45
   16  A    between atoms: C_39  and  C_47
                            x       y       z     vdW  Elec       q    Type
                         _______ _______ _______ _____ _____    ______ ____

>  <TORSDO>
F 16

$$$$
=
 OpenBabel11072414413D

 60 66  0  0  1  0  0  0  0  0999 V2000
  159.4230  210.0630  155.2250 C   0  0  0  0  0  2  0  0  0  0  0  0
  161.3360  211.1290  150.4800 C   0  0  1  0  0  3  0  0  0  0  0  0
  162.4140  211.3830  149.4390 C   0  0  0  0  0  2  0  0  0  0  0  0
  159.0480  211.1810  157.2610 O   0  0  0  0  0  0  0  0  0  0  0  0
  161.8900  210.3030  151.6650 C   0  0  1  0  0  3  0  0  0  0  0  0
  161.6650  210.9600  153.0030 C   0  0  0  0  0  3  0  0  0  0  0  0
  161.9970  209.0700  148.7620 O   0  0  0  0  0  0  0  0  0  0  0  0
  161.1240  208.1840  155.5440 O   0  0  0  0  0  0  0  0  0  0  0  0
  162.9680  208.6920  149.5800 O   0  0  0  0  0  0  0  0  0  0  0  0
  159.7980  210.4750  156.6010 C   0  0  0  0  0  0  0  0  0  0  0  0
  161.1170  210.0620  157.1570 C   0  0  0  0  0  2  0  0  0  0  0  0
  162.3570  207.9890  150.6400 C   0  0  1  0  0  3  0  0  0  0  0  0
  162.9410  208.4620  157.0250 C   0  0  0  0  0  1  0  0  0  0  0  0
  161.2230  208.0760  152.8300 C   0  0  0  0  0  2  0  0  0  0  0  0
  161.4020  208.8330  151.5140 C   0  0  1  0  0  3  0  0  0  0  0  0
  162.3460  210.3520  148.3100 C   0  0  0  0  0  2  0  0  0  0  0  0
  159.8430  208.3310  153.4320 C   0  0  0  0  0  2  0  0  0  0  0  0
  161.9160  209.1870  156.1790 C   0  0  1  0  0  0  0  0  0  0  0  0
  162.2100  210.5140  154.1020 C   0  0  0  0  0  0  0  0  0  0  0  0
  159.9080  208.6330  154.9360 C   0  0  2  0  0  3  0  0  0  0  0  0
  162.7170  210.0140  155.1960 C   0  0  0  0  0  3  0  0  0  0  0  0
  159.5230  212.1420  151.7260 O   0  0  0  0  0  1  0  0  0  0  0  0
  160.5050  212.3850  150.7610 C   0  0  2  0  0  3  0  0  0  0  0  0
  159.9120  212.8580  149.5600 O   0  0  0  0  0  0  0  0  0  0  0  0
  160.5770  213.7200  148.6920 C   0  0  0  0  0  0  0  0  0  0  0  0
  161.5270  214.4470  149.1030 O   0  0  0  0  0  0  0  0  0  0  0  0
  160.1570  213.7870  147.2480 C   0  0  2  0  0  0  0  0  0  0  0  0
  160.6290  212.6860  146.3050 C   0  0  1  0  0  3  0  0  0  0  0  0
  159.7570  212.5320  145.2300 O   0  0  0  0  0  1  0  0  0  0  0  0
  161.2650  214.0630  146.2390 C   0  0  2  0  0  3  0  0  0  0  0  0
  162.5300  214.0050  146.8170 O   0  0  0  0  0  1  0  0  0  0  0  0
  158.9630  214.4530  146.9120 O   0  0  0  0  0  0  0  0  0  0  0  0
  157.8910  213.6120  147.2520 C   0  0  2  0  0  3  0  0  0  0  0  0
  156.9300  212.1430  145.6080 O   0  0  0  0  0  1  0  0  0  0  0  0
  156.9250  213.4530  146.0810 C   0  0  0  0  0  2  0  0  0  0  0  0
  157.1840  214.1210  148.5030 C   0  0  0  0  0  2  0  0  0  0  0  0
  156.9340  213.0710  149.3950 O   0  0  0  0  0  0  0  0  0  0  0  0
  156.2600  213.6600  150.4650 C   0  0  0  0  0  2  0  0  0  0  0  0
  157.2410  214.4520  151.3060 C   0  0  0  0  0  1  0  0  0  0  0  0
  161.6780  206.7060  150.1540 C   0  0  0  0  0  2  0  0  0  0  0  0
  161.8710  206.5140  148.6570 C   0  0  2  0  0  3  0  0  0  0  0  0
  160.8630  207.3660  147.8990 C   0  0  0  0  0  1  0  0  0  0  0  0
  161.8230  205.0200  148.2690 C   0  0  2  0  0  3  0  0  0  0  0  0
  160.1490  202.9350  144.5620 C   0  0  0  0  0  3  0  0  0  0  0  0
  160.6220  205.4510  144.7880 C   0  0  0  0  0  3  0  0  0  0  0  0
  162.2760  204.6430  146.8460 C   0  0  2  0  0  0  0  0  0  0  0  0
  161.6010  203.6040  146.1940 C   0  0  0  0  0  0  0  0  0  0  0  0
  159.9680  204.3300  144.1590 C   0  0  0  0  0  3  0  0  0  0  0  0
  163.7430  204.7640  146.4920 C   0  0  0  0  0  1  0  0  0  0  0  0
  161.4230  205.0050  145.7910 C   0  0  0  0  0  0  0  0  0  0  0  0
  161.0030  202.5100  145.6400 C   0  0  0  0  0  3  0  0  0  0  0  0
  160.5790  204.2590  148.7450 C   0  0  0  0  0  2  0  0  0  0  0  0
  160.8590  203.3520  149.9480 C   0  0  1  0  0  3  0  0  0  0  0  0
  159.7100  202.3720  150.1930 C   0  0  0  0  0  2  0  0  0  0  0  0
  162.1190  201.5550  148.6650 C   0  0  2  0  0  3  0  0  0  0  0  0
  163.3340  200.8590  148.6350 O   0  0  0  0  0  1  0  0  0  0  0  0
  162.1910  202.6060  149.7780 C   0  0  0  0  0  2  0  0  0  0  0  0
  159.6350  201.3180  149.0840 C   0  0  0  0  0  2  0  0  0  0  0  0
  160.9600  200.5780  148.9260 C   0  0  1  0  0  3  0  0  0  0  0  0
  160.8320  199.5930  147.7780 C   0  0  0  0  0  1  0  0  0  0  0  0
  1 10  1  0  0  0  0
  2 23  1  1  0  0  0
  2  5  1  0  0  0  0
  3  2  1  0  0  0  0
  5  6  1  1  0  0  0
  6 19  2  0  0  0  0
  7  9  1  0  0  0  0
  8 18  1  0  0  0  0
  9 12  1  0  0  0  0
 10 11  1  0  0  0  0
 10  4  2  0  0  0  0
 12 40  1  6  0  0  0
 12 15  1  0  0  0  0
 14 17  1  0  0  0  0
 15  5  1  0  0  0  0
 15 14  1  1  0  0  0
 16  7  1  0  0  0  0
 16  3  1  0  0  0  0
 18 13  1  1  0  0  0
 18 11  1  0  0  0  0
 19 21  2  0  0  0  0
 20 17  1  6  0  0  0
 20  1  1  0  0  0  0
 20  8  1  0  0  0  0
 21 18  1  0  0  0  0
 23 22  1  1  0  0  0
 24 23  1  0  0  0  0
 25 26  2  0  0  0  0
 25 24  1  0  0  0  0
 27 32  1  6  0  0  0
 27 25  1  0  0  0  0
 28 29  1  6  0  0  0
 28 27  1  0  0  0  0
 30 28  1  0  0  0  0
 30 31  1  1  0  0  0
 30 27  1  0  0  0  0
 32 33  1  0  0  0  0
 33 35  1  6  0  0  0
 33 36  1  0  0  0  0
 34 35  1  0  0  0  0
 36 37  1  0  0  0  0
 37 38  1  0  0  0  0
 38 39  1  0  0  0  0
 41 42  1  6  0  0  0
 41 40  1  0  0  0  0
 43 41  1  0  0  0  0
 43 52  1  6  0  0  0
 44 51  1  0  0  0  0
 45 50  2  0  0  0  0
 46 49  1  6  0  0  0
 46 43  1  0  0  0  0
 47 46  1  0  0  0  0
 48 44  2  0  0  0  0
 48 45  1  0  0  0  0
 50 47  1  0  0  0  0
 50 46  1  0  0  0  0
 51 47  2  0  0  0  0
 53 52  1  6  0  0  0
 53 54  1  0  0  0  0
 55 56  1  1  0  0  0
 55 59  1  0  0  0  0
 55 57  1  0  0  0  0
 57 53  1  0  0  0  0
 58 54  1  0  0  0  0
 59 60  1  6  0  0  0
 59 58  1  0  0  0  0
M  END
>  <MODEL>
3

>  <REMARK>
 VINA RESULT:       0.6      1.313      2.801
  Name = 
  16 active torsions:
  status: ('A' for Active; 'I' for Inactive)
    1  A    between atoms: C_2  and  O_52
    2  A    between atoms: C_4  and  C_19
    3  A    between atoms: C_5  and  C_48
    4  A    between atoms: C_7  and  C_11
    5  A    between atoms: C_7  and  O_27
    6  A    between atoms: C_11  and  O_45
    7  A    between atoms: C_14  and  C_20
    8  A    between atoms: C_14  and  C_32
    9  A    between atoms: C_19  and  C_23
   10  A    between atoms: C_20  and  C_23
   11  A    between atoms: C_23  and  C_26
   12  A    between atoms: O_27  and  C_48
   13  A    between atoms: C_29  and  C_39
   14  A    between atoms: C_29  and  O_52
   15  A    between atoms: C_39  and  O_45
   16  A    between atoms: C_39  and  C_47
                            x       y       z     vdW  Elec       q    Type
                         _______ _______ _______ _____ _____    ______ ____

>  <TORSDO>
F 16

$$$$
=
 OpenBabel11072414413D

 60 66  0  0  1  0  0  0  0  0999 V2000
  162.7560  204.2160  151.8000 C   0  0  0  0  0  2  0  0  0  0  0  0
  162.1780  208.7220  149.2180 C   0  0  1  0  0  3  0  0  0  0  0  0
  161.4210  209.8310  148.5070 C   0  0  0  0  0  2  0  0  0  0  0  0
  162.7780  201.9110  151.3290 O   0  0  0  0  0  0  0  0  0  0  0  0
  161.2560  207.9570  150.1970 C   0  0  1  0  0  3  0  0  0  0  0  0
  161.2410  206.4690  149.9570 C   0  0  0  0  0  3  0  0  0  0  0  0
  161.6820  211.0570  150.6070 O   0  0  0  0  0  0  0  0  0  0  0  0
  160.7980  204.7880  153.3390 O   0  0  0  0  0  0  0  0  0  0  0  0
  160.5040  210.5870  150.9880 O   0  0  0  0  0  0  0  0  0  0  0  0
  162.1210  202.8780  151.6880 C   0  0  0  0  0  0  0  0  0  0  0  0
  160.6660  202.7300  151.9700 C   0  0  0  0  0  2  0  0  0  0  0  0
  160.7500  209.6790  152.0410 C   0  0  1  0  0  3  0  0  0  0  0  0
  158.7340  203.6680  153.1060 C   0  0  0  0  0  1  0  0  0  0  0  0
  161.3330  207.3830  152.7320 C   0  0  0  0  0  2  0  0  0  0  0  0
  161.5710  208.4310  151.6460 C   0  0  1  0  0  3  0  0  0  0  0  0
  161.6200  211.1760  149.2100 C   0  0  0  0  0  2  0  0  0  0  0  0
  162.5520  206.4800  152.9060 C   0  0  0  0  0  2  0  0  0  0  0  0
  160.0150  204.0540  152.3980 C   0  0  1  0  0  0  0  0  0  0  0  0
  160.3970  205.6730  150.5560 C   0  0  0  0  0  0  0  0  0  0  0  0
  162.1720  204.9950  152.9900 C   0  0  2  0  0  3  0  0  0  0  0  0
  159.5850  204.8900  151.2120 C   0  0  0  0  0  3  0  0  0  0  0  0
  163.9110  208.7850  147.5280 O   0  0  0  0  0  1  0  0  0  0  0  0
  163.0740  207.9350  148.2570 C   0  0  2  0  0  3  0  0  0  0  0  0
  162.2800  207.1500  147.3780 O   0  0  0  0  0  0  0  0  0  0  0  0
  162.6670  205.8790  146.9630 C   0  0  0  0  0  0  0  0  0  0  0  0
  163.6880  205.3190  147.4550 O   0  0  0  0  0  0  0  0  0  0  0  0
  161.8590  205.1660  145.9120 C   0  0  2  0  0  0  0  0  0  0  0  0
  161.3730  205.9630  144.7060 C   0  0  1  0  0  3  0  0  0  0  0  0
  161.1770  205.1400  143.6000 O   0  0  0  0  0  1  0  0  0  0  0  0
  160.3940  205.5710  145.8000 C   0  0  2  0  0  3  0  0  0  0  0  0
  160.1000  206.6950  146.5660 O   0  0  0  0  0  1  0  0  0  0  0  0
  162.0350  203.7790  145.7360 O   0  0  0  0  0  0  0  0  0  0  0  0
  160.9810  203.1250  146.3950 C   0  0  2  0  0  3  0  0  0  0  0  0
  160.2510  202.3140  148.5380 O   0  0  0  0  0  1  0  0  0  0  0  0
  161.3530  202.7990  147.8380 C   0  0  0  0  0  2  0  0  0  0  0  0
  160.5580  201.8790  145.6250 C   0  0  0  0  0  2  0  0  0  0  0  0
  161.2750  200.7580  146.0590 O   0  0  0  0  0  0  0  0  0  0  0  0
  160.5650  199.6630  145.5660 C   0  0  0  0  0  2  0  0  0  0  0  0
  161.4870  198.4640  145.4700 C   0  0  0  0  0  1  0  0  0  0  0  0
  161.3520  210.3770  153.2630 C   0  0  0  0  0  2  0  0  0  0  0  0
  160.2750  210.7500  154.2710 C   0  0  2  0  0  3  0  0  0  0  0  0
  159.1710  209.7030  154.2510 C   0  0  0  0  0  1  0  0  0  0  0  0
  159.7590  212.1880  154.0380 C   0  0  2  0  0  3  0  0  0  0  0  0
  155.8090  212.7270  156.2730 C   0  0  0  0  0  3  0  0  0  0  0  0
  157.8590  211.4370  157.1320 C   0  0  0  0  0  3  0  0  0  0  0  0
  159.2120  212.9500  155.2590 C   0  0  2  0  0  0  0  0  0  0  0  0
  157.8330  213.1890  155.3220 C   0  0  0  0  0  0  0  0  0  0  0  0
  156.4500  211.7430  157.1460 C   0  0  0  0  0  3  0  0  0  0  0  0
  160.0690  214.0250  155.8920 C   0  0  0  0  0  1  0  0  0  0  0  0
  158.4810  212.2040  156.1980 C   0  0  0  0  0  0  0  0  0  0  0  0
  156.5080  213.5100  155.2890 C   0  0  0  0  0  3  0  0  0  0  0  0
  158.9330  212.3880  152.7610 C   0  0  0  0  0  2  0  0  0  0  0  0
  158.6820  213.8650  152.4400 C   0  0  1  0  0  3  0  0  0  0  0  0
  159.8040  214.4530  151.5810 C   0  0  0  0  0  2  0  0  0  0  0  0
  157.2900  213.4710  150.3490 C   0  0  2  0  0  3  0  0  0  0  0  0
  156.0500  213.7680  149.7700 O   0  0  0  0  0  1  0  0  0  0  0  0
  157.3150  214.0580  151.7650 C   0  0  0  0  0  2  0  0  0  0  0  0
  159.7820  213.8710  150.1650 C   0  0  0  0  0  2  0  0  0  0  0  0
  158.4230  214.0720  149.5000 C   0  0  1  0  0  3  0  0  0  0  0  0
  158.4540  213.4250  148.1270 C   0  0  0  0  0  1  0  0  0  0  0  0
  2 23  1  6  0  0  0
  2  5  1  0  0  0  0
  3 16  1  0  0  0  0
  3  2  1  0  0  0  0
  4 10  2  0  0  0  0
  5  6  1  1  0  0  0
  5 15  1  0  0  0  0
  6 19  2  0  0  0  0
  7  9  1  0  0  0  0
  9 12  1  0  0  0  0
 10  1  1  0  0  0  0
 10 11  1  0  0  0  0
 11 18  1  0  0  0  0
 12 40  1  1  0  0  0
 14 17  1  0  0  0  0
 15 12  1  0  0  0  0
 15 14  1  1  0  0  0
 16  7  1  0  0  0  0
 17 20  1  0  0  0  0
 18 13  1  1  0  0  0
 18  8  1  0  0  0  0
 19 21  2  0  0  0  0
 20  1  1  6  0  0  0
 20  8  1  0  0  0  0
 21 18  1  0  0  0  0
 23 22  1  6  0  0  0
 24 23  1  0  0  0  0
 25 24  1  0  0  0  0
 25 26  2  0  0  0  0
 27 32  1  6  0  0  0
 27 25  1  0  0  0  0
 28 29  1  6  0  0  0
 28 30  1  0  0  0  0
 28 27  1  0  0  0  0
 30 27  1  0  0  0  0
 30 31  1  1  0  0  0
 32 33  1  0  0  0  0
 33 36  1  6  0  0  0
 33 35  1  0  0  0  0
 35 34  1  0  0  0  0
 36 37  1  0  0  0  0
 38 37  1  0  0  0  0
 39 38  1  0  0  0  0
 40 41  1  0  0  0  0
 41 42  1  6  0  0  0
 43 52  1  6  0  0  0
 43 41  1  0  0  0  0
 43 46  1  0  0  0  0
 44 48  1  0  0  0  0
 45 48  2  0  0  0  0
 46 47  1  0  0  0  0
 46 49  1  1  0  0  0
 46 50  1  0  0  0  0
 47 50  2  0  0  0  0
 50 45  1  0  0  0  0
 51 47  1  0  0  0  0
 51 44  2  0  0  0  0
 53 52  1  6  0  0  0
 54 53  1  0  0  0  0
 55 56  1  6  0  0  0
 55 57  1  0  0  0  0
 57 53  1  0  0  0  0
 58 54  1  0  0  0  0
 59 60  1  6  0  0  0
 59 58  1  0  0  0  0
 59 55  1  0  0  0  0
M  END
>  <MODEL>
4

>  <REMARK>
 VINA RESULT:       1.5      2.623      9.419
  Name = 
  16 active torsions:
  status: ('A' for Active; 'I' for Inactive)
    1  A    between atoms: C_2  and  O_52
    2  A    between atoms: C_4  and  C_19
    3  A    between atoms: C_5  and  C_48
    4  A    between atoms: C_7  and  C_11
    5  A    between atoms: C_7  and  O_27
    6  A    between atoms: C_11  and  O_45
    7  A    between atoms: C_14  and  C_20
    8  A    between atoms: C_14  and  C_32
    9  A    between atoms: C_19  and  C_23
   10  A    between atoms: C_20  and  C_23
   11  A    between atoms: C_23  and  C_26
   12  A    between atoms: O_27  and  C_48
   13  A    between atoms: C_29  and  C_39
   14  A    between atoms: C_29  and  O_52
   15  A    between atoms: C_39  and  O_45
   16  A    between atoms: C_39  and  C_47
                            x       y       z     vdW  Elec       q    Type
                         _______ _______ _______ _____ _____    ______ ____

>  <TORSDO>
F 16

$$$$
=
 OpenBabel11072414413D

 60 66  0  0  1  0  0  0  0  0999 V2000
  162.2170  209.2280  155.0210 C   0  0  0  0  0  2  0  0  0  0  0  0
  161.6540  207.7990  150.0270 C   0  0  1  0  0  3  0  0  0  0  0  0
  160.9100  207.5530  148.7250 C   0  0  0  0  0  2  0  0  0  0  0  0
  161.7720  208.3560  157.1600 O   0  0  0  0  0  0  0  0  0  0  0  0
  160.9210  208.8440  150.9000 C   0  0  1  0  0  3  0  0  0  0  0  0
  160.6220  208.3490  152.2920 C   0  0  0  0  0  3  0  0  0  0  0  0
  161.8960  209.6760  148.0160 O   0  0  0  0  0  0  0  0  0  0  0  0
  160.8430  211.3450  154.6230 O   0  0  0  0  0  0  0  0  0  0  0  0
  160.8040  210.2880  148.4490 O   0  0  0  0  0  0  0  0  0  0  0  0
  161.3840  209.0600  156.2400 C   0  0  0  0  0  0  0  0  0  0  0  0
  160.0500  209.7190  156.3120 C   0  0  0  0  0  2  0  0  0  0  0  0
  161.1810  211.0400  149.5830 C   0  0  1  0  0  3  0  0  0  0  0  0
  158.6480  211.5170  155.4720 C   0  0  0  0  0  1  0  0  0  0  0  0
  161.5780  211.0980  152.0180 C   0  0  0  0  0  2  0  0  0  0  0  0
  161.6740  210.2010  150.7840 C   0  0  1  0  0  3  0  0  0  0  0  0
  161.4850  208.4040  147.5900 C   0  0  0  0  0  2  0  0  0  0  0  0
  162.6520  210.7430  153.0440 C   0  0  0  0  0  2  0  0  0  0  0  0
  159.7400  210.5530  155.0600 C   0  0  1  0  0  0  0  0  0  0  0  0
  159.8570  209.0090  153.1190 C   0  0  0  0  0  0  0  0  0  0  0  0
  162.0910  210.6590  154.4710 C   0  0  2  0  0  3  0  0  0  0  0  0
  159.1410  209.7160  153.9500 C   0  0  0  0  0  3  0  0  0  0  0  0
  163.4080  206.1370  150.2000 O   0  0  0  0  0  1  0  0  0  0  0  0
  162.1380  206.4920  150.6640 C   0  0  2  0  0  3  0  0  0  0  0  0
  161.2090  205.4480  150.4060 O   0  0  0  0  0  0  0  0  0  0  0  0
  161.3540  204.1730  150.9460 C   0  0  0  0  0  0  0  0  0  0  0  0
  161.9050  204.0060  152.0720 O   0  0  0  0  0  0  0  0  0  0  0  0
  160.8520  202.9810  150.1770 C   0  0  2  0  0  0  0  0  0  0  0  0
  160.3190  201.7860  150.9600 C   0  0  1  0  0  3  0  0  0  0  0  0
  159.4010  201.0570  150.2100 O   0  0  0  0  0  1  0  0  0  0  0  0
  161.6820  201.7080  150.2940 C   0  0  2  0  0  3  0  0  0  0  0  0
  162.6690  201.8110  151.2700 O   0  0  0  0  0  1  0  0  0  0  0  0
  160.3570  203.1660  148.8720 O   0  0  0  0  0  0  0  0  0  0  0  0
  161.4030  202.9040  147.9730 C   0  0  2  0  0  3  0  0  0  0  0  0
  162.1460  204.4020  146.2450 O   0  0  0  0  0  1  0  0  0  0  0  0
  162.1580  204.1820  147.6200 C   0  0  0  0  0  2  0  0  0  0  0  0
  160.8770  202.1960  146.7290 C   0  0  0  0  0  2  0  0  0  0  0  0
  161.3110  200.8650  146.6950 O   0  0  0  0  0  0  0  0  0  0  0  0
  160.5470  200.2630  145.6940 C   0  0  0  0  0  2  0  0  0  0  0  0
  159.6210  201.2930  145.0770 C   0  0  0  0  0  1  0  0  0  0  0  0
  162.1810  212.1420  149.2270 C   0  0  0  0  0  2  0  0  0  0  0  0
  161.5390  213.5190  149.3150 C   0  0  2  0  0  3  0  0  0  0  0  0
  160.6460  213.5880  150.5450 C   0  0  0  0  0  1  0  0  0  0  0  0
  160.8050  213.8830  148.0060 C   0  0  2  0  0  3  0  0  0  0  0  0
  156.3190  213.7990  148.8780 C   0  0  0  0  0  3  0  0  0  0  0  0
  157.4040  214.4520  146.6420 C   0  0  0  0  0  3  0  0  0  0  0  0
  159.5660  213.0470  147.6330 C   0  0  2  0  0  0  0  0  0  0  0  0
  158.4570  213.0970  148.4870 C   0  0  0  0  0  0  0  0  0  0  0  0
  156.3000  214.4530  147.5690 C   0  0  0  0  0  3  0  0  0  0  0  0
  159.7650  211.7210  146.9320 C   0  0  0  0  0  1  0  0  0  0  0  0
  158.4410  213.7510  147.1710 C   0  0  0  0  0  0  0  0  0  0  0  0
  157.4460  213.0750  149.4020 C   0  0  0  0  0  3  0  0  0  0  0  0
  161.7140  214.2100  146.8140 C   0  0  0  0  0  2  0  0  0  0  0  0
  162.2230  212.9580  146.0920 C   0  0  1  0  0  3  0  0  0  0  0  0
  161.1380  212.3370  145.2100 C   0  0  0  0  0  2  0  0  0  0  0  0
  163.1790  214.1630  144.0680 C   0  0  2  0  0  3  0  0  0  0  0  0
  164.3560  214.3230  143.3260 O   0  0  0  0  0  1  0  0  0  0  0  0
  163.4850  213.2680  145.2740 C   0  0  0  0  0  2  0  0  0  0  0  0
  160.8290  213.2270  144.0020 C   0  0  0  0  0  2  0  0  0  0  0  0
  162.0880  213.5260  143.1920 C   0  0  1  0  0  3  0  0  0  0  0  0
  161.7200  214.4530  142.0480 C   0  0  0  0  0  1  0  0  0  0  0  0
  1 10  1  0  0  0  0
  2 23  1  1  0  0  0
  2  5  1  0  0  0  0
  3  2  1  0  0  0  0
  5  6  1  1  0  0  0
  6 19  2  0  0  0  0
  7  9  1  0  0  0  0
  8 18  1  0  0  0  0
  9 12  1  0  0  0  0
 10 11  1  0  0  0  0
 10  4  2  0  0  0  0
 12 40  1  6  0  0  0
 12 15  1  0  0  0  0
 14 17  1  0  0  0  0
 15  5  1  0  0  0  0
 15 14  1  1  0  0  0
 16  7  1  0  0  0  0
 16  3  1  0  0  0  0
 18 13  1  1  0  0  0
 18 11  1  0  0  0  0
 19 21  2  0  0  0  0
 20 17  1  6  0  0  0
 20  8  1  0  0  0  0
 20  1  1  0  0  0  0
 21 18  1  0  0  0  0
 23 22  1  6  0  0  0
 24 23  1  0  0  0  0
 24 25  1  0  0  0  0
 25 26  2  0  0  0  0
 27 32  1  6  0  0  0
 27 30  1  0  0  0  0
 27 25  1  0  0  0  0
 27 28  1  0  0  0  0
 28 29  1  6  0  0  0
 30 28  1  0  0  0  0
 30 31  1  1  0  0  0
 33 36  1  6  0  0  0
 33 32  1  0  0  0  0
 34 35  1  0  0  0  0
 35 33  1  0  0  0  0
 37 36  1  0  0  0  0
 38 37  1  0  0  0  0
 39 38  1  0  0  0  0
 40 41  1  0  0  0  0
 41 42  1  1  0  0  0
 43 52  1  6  0  0  0
 43 41  1  0  0  0  0
 44 51  1  0  0  0  0
 45 50  2  0  0  0  0
 45 48  1  0  0  0  0
 46 49  1  6  0  0  0
 46 43  1  0  0  0  0
 46 47  1  0  0  0  0
 47 51  2  0  0  0  0
 48 44  2  0  0  0  0
 50 46  1  0  0  0  0
 50 47  1  0  0  0  0
 53 52  1  6  0  0  0
 54 53  1  0  0  0  0
 55 56  1  6  0  0  0
 55 57  1  0  0  0  0
 57 53  1  0  0  0  0
 58 54  1  0  0  0  0
 59 60  1  6  0  0  0
 59 58  1  0  0  0  0
 59 55  1  0  0  0  0
M  END
>  <MODEL>
5

>  <REMARK>
 VINA RESULT:       1.7      2.509      8.851
  Name = 
  16 active torsions:
  status: ('A' for Active; 'I' for Inactive)
    1  A    between atoms: C_2  and  O_52
    2  A    between atoms: C_4  and  C_19
    3  A    between atoms: C_5  and  C_48
    4  A    between atoms: C_7  and  C_11
    5  A    between atoms: C_7  and  O_27
    6  A    between atoms: C_11  and  O_45
    7  A    between atoms: C_14  and  C_20
    8  A    between atoms: C_14  and  C_32
    9  A    between atoms: C_19  and  C_23
   10  A    between atoms: C_20  and  C_23
   11  A    between atoms: C_23  and  C_26
   12  A    between atoms: O_27  and  C_48
   13  A    between atoms: C_29  and  C_39
   14  A    between atoms: C_29  and  O_52
   15  A    between atoms: C_39  and  O_45
   16  A    between atoms: C_39  and  C_47
                            x       y       z     vdW  Elec       q    Type
                         _______ _______ _______ _____ _____    ______ ____

>  <TORSDO>
F 16

$$$$
