=
 OpenBabel11072413083D

 35 37  0  0  1  0  0  0  0  0999 V2000
  161.1900  207.2430  147.4150 O   0  0  0  0  0  0  0  0  0  0  0  0
  162.7490  206.5100  149.1990 C   0  0  0  0  0  2  0  0  0  0  0  0
  161.8780  204.8380  147.5410 C   0  0  2  0  0  3  0  0  0  0  0  0
  161.1670  203.5260  147.2730 C   0  0  0  0  0  0  0  0  0  0  0  0
  161.9870  205.1950  149.0430 C   0  0  2  0  0  3  0  0  0  0  0  0
  161.3190  203.6730  144.8140 N   0  0  0  0  0  0  0  0  0  0  0  0
  162.0530  207.6760  148.4730 C   0  0  2  0  0  3  0  0  0  0  0  0
  161.3940  204.9380  144.5410 C   0  0  0  0  0  3  0  0  0  0  0  0
  161.0050  203.0260  146.0510 C   0  0  0  0  0  3  0  0  0  0  0  0
  161.3570  206.0200  146.7560 C   0  0  0  0  0  0  0  0  0  0  0  0
  161.1810  206.0020  145.4720 N   0  0  0  0  0  0  0  0  0  0  0  0
  160.6270  201.8670  149.1990 N   0  0  0  0  0  0  0  0  0  0  0  0
  160.8660  202.6110  148.3460 C   0  0  0  0  0  0  0  0  0  0  0  0
  160.6220  205.2900  149.7370 C   0  0  0  0  0  2  0  0  0  0  0  0
  160.7710  205.1080  151.2420 C   0  0  1  0  0  3  0  0  0  0  0  0
  161.2030  202.8320  152.1680 C   0  0  0  0  0  1  0  0  0  0  0  0
  161.8370  204.0620  151.5450 C   0  0  0  0  0  2  0  0  0  0  0  0
  161.0560  206.4390  151.9410 C   0  0  0  0  0  2  0  0  0  0  0  0
  161.5310  206.2510  153.3760 C   0  0  0  0  0  2  0  0  0  0  0  0
  160.5840  206.8710  154.2880 N   0  0  0  0  0  2  0  0  0  0  0  0
  160.7210  210.3080  154.5010 C   0  0  1  0  0  3  0  0  0  0  0  0
  160.0940  209.9430  155.8350 C   0  0  2  0  0  0  0  0  0  0  0  0
  160.8930  209.1250  153.7650 O   0  0  0  0  0  0  0  0  0  0  0  0
  160.5730  208.5430  156.0600 C   0  0  0  0  0  2  0  0  0  0  0  0
  161.1650  208.1320  154.7210 C   0  0  1  0  0  3  0  0  0  0  0  0
  158.6970  209.9530  155.7820 O   0  0  0  0  0  1  0  0  0  0  0  0
  160.5810  210.8600  156.9400 C   0  0  0  0  0  1  0  0  0  0  0  0
  159.9420  211.3180  153.7160 C   0  0  0  0  0  0  0  0  0  0  0  0
  159.9590  212.5270  154.0640 O   0  0  0  0  0  1  0  0  0  0  0  0
  159.1660  210.9240  152.6330 O   0  0  0  0  0  0  0  0  0  0  0  0
  161.2700  208.5410  149.4460 C   0  0  0  0  0  2  0  0  0  0  0  0
  162.0190  209.6630  149.7990 O   0  0  0  0  0  0  0  0  0  0  0  0
  162.2660  210.3150  148.5920 C   0  0  0  0  0  2  0  0  0  0  0  0
  161.9850  211.7960  148.7510 C   0  0  0  0  0  2  0  0  0  0  0  0
  161.0060  212.1850  147.8370 O   0  0  0  0  0  1  0  0  0  0  0  0
  1  7  1  0  0  0  0
  3 10  1  6  0  0  0
  3  5  1  0  0  0  0
  4  3  1  0  0  0  0
  4 13  1  0  0  0  0
  5  2  1  0  0  0  0
  5 14  1  6  0  0  0
  6  9  1  0  0  0  0
  7  2  1  0  0  0  0
  7 31  1  1  0  0  0
  8  6  2  0  0  0  0
  8 11  1  0  0  0  0
  9  4  2  0  0  0  0
 10  1  1  0  0  0  0
 11 10  2  0  0  0  0
 13 12  3  0  0  0  0
 15 14  1  6  0  0  0
 15 17  1  0  0  0  0
 15 18  1  0  0  0  0
 17 16  1  0  0  0  0
 18 19  1  0  0  0  0
 19 20  1  0  0  0  0
 21 28  1  6  0  0  0
 21 22  1  0  0  0  0
 22 24  1  0  0  0  0
 22 27  1  1  0  0  0
 23 21  1  0  0  0  0
 23 25  1  0  0  0  0
 25 20  1  6  0  0  0
 25 24  1  0  0  0  0
 26 22  1  0  0  0  0
 28 29  1  0  0  0  0
 30 28  2  0  0  0  0
 31 32  1  0  0  0  0
 33 34  1  0  0  0  0
 33 32  1  0  0  0  0
 35 34  1  0  0  0  0
M  END
>  <MODEL>
1

>  <REMARK>
 VINA RESULT:      -6.6      0.000      0.000
  Name = 
  13 active torsions:
  status: ('A' for Active; 'I' for Inactive)
    1  A    between atoms: O_3  and  C_15
    2  A    between atoms: O_3  and  C_29
    3  A    between atoms: C_4  and  C_10
    4  A    between atoms: C_6  and  C_9
    5  A    between atoms: C_11  and  C_29
    6  A    between atoms: C_13  and  C_14
    7  A    between atoms: C_14  and  C_32
    8  A    between atoms: C_15  and  C_21
    9  A    between atoms: C_20  and  C_22
   10  A    between atoms: C_20  and  C_32
   11  A    between atoms: C_22  and  N_31
   12  A    between atoms: C_25  and  C_32
   13  A    between atoms: C_27  and  N_31
                            x       y       z     vdW  Elec       q    Type
                         _______ _______ _______ _____ _____    ______ ____

>  <TORSDO>
F 13

$$$$
=
 OpenBabel11072413083D

 35 37  0  0  1  0  0  0  0  0999 V2000
  161.4550  207.3080  147.6420 O   0  0  0  0  0  0  0  0  0  0  0  0
  162.9150  207.5080  149.6370 C   0  0  0  0  0  2  0  0  0  0  0  0
  161.9390  205.2770  149.0260 C   0  0  2  0  0  3  0  0  0  0  0  0
  161.1260  204.0620  149.4300 C   0  0  0  0  0  0  0  0  0  0  0  0
  162.0500  206.3510  150.1350 C   0  0  2  0  0  3  0  0  0  0  0  0
  161.3330  202.9070  147.2590 N   0  0  0  0  0  0  0  0  0  0  0  0
  162.3320  208.1710  148.3760 C   0  0  2  0  0  3  0  0  0  0  0  0
  161.5190  203.8410  146.3790 C   0  0  0  0  0  3  0  0  0  0  0  0
  160.9450  203.0140  148.6310 C   0  0  0  0  0  3  0  0  0  0  0  0
  161.5320  205.9130  147.7170 C   0  0  0  0  0  0  0  0  0  0  0  0
  161.3780  205.2450  146.6160 N   0  0  0  0  0  0  0  0  0  0  0  0
  160.4210  203.6770  151.9010 N   0  0  0  0  0  0  0  0  0  0  0  0
  160.7310  203.8540  150.8010 C   0  0  0  0  0  0  0  0  0  0  0  0
  160.6850  206.8760  150.6000 C   0  0  0  0  0  2  0  0  0  0  0  0
  160.7910  207.4860  151.9920 C   0  0  1  0  0  3  0  0  0  0  0  0
  161.1530  206.3840  154.2010 C   0  0  0  0  0  1  0  0  0  0  0  0
  161.7670  206.6860  152.8470 C   0  0  0  0  0  2  0  0  0  0  0  0
  161.1630  208.9680  151.9270 C   0  0  0  0  0  2  0  0  0  0  0  0
  160.2680  209.8310  152.8070 C   0  0  0  0  0  2  0  0  0  0  0  0
  160.9430  210.1120  154.0620 N   0  0  0  0  0  2  0  0  0  0  0  0
  159.0570  212.9870  153.8320 C   0  0  1  0  0  3  0  0  0  0  0  0
  158.2820  212.1950  154.8690 C   0  0  2  0  0  0  0  0  0  0  0  0
  160.1230  212.1910  153.3850 O   0  0  0  0  0  0  0  0  0  0  0  0
  159.3240  211.2910  155.4500 C   0  0  0  0  0  2  0  0  0  0  0  0
  160.5060  211.4280  154.5020 C   0  0  1  0  0  3  0  0  0  0  0  0
  157.2670  211.4240  154.2950 O   0  0  0  0  0  1  0  0  0  0  0  0
  157.7060  213.1040  155.9370 C   0  0  0  0  0  1  0  0  0  0  0  0
  158.2260  213.4620  152.6800 C   0  0  0  0  0  0  0  0  0  0  0  0
  157.4620  214.4510  152.8260 O   0  0  0  0  0  1  0  0  0  0  0  0
  158.2580  212.7910  151.4630 O   0  0  0  0  0  0  0  0  0  0  0  0
  161.6060  209.4600  148.7180 C   0  0  0  0  0  2  0  0  0  0  0  0
  162.3960  210.5590  148.3780 O   0  0  0  0  0  0  0  0  0  0  0  0
  161.8810  211.6110  149.1340 C   0  0  0  0  0  2  0  0  0  0  0  0
  162.0730  212.9140  148.3850 C   0  0  0  0  0  2  0  0  0  0  0  0
  163.2280  212.8390  147.6070 O   0  0  0  0  0  1  0  0  0  0  0  0
  1 10  1  0  0  0  0
  1  7  1  0  0  0  0
  2  5  1  0  0  0  0
  3 10  1  6  0  0  0
  3  4  1  0  0  0  0
  3  5  1  0  0  0  0
  4 13  1  0  0  0  0
  5 14  1  6  0  0  0
  6  9  1  0  0  0  0
  7 31  1  1  0  0  0
  7  2  1  0  0  0  0
  8 11  1  0  0  0  0
  8  6  2  0  0  0  0
  9  4  2  0  0  0  0
 11 10  2  0  0  0  0
 13 12  3  0  0  0  0
 15 14  1  6  0  0  0
 15 17  1  0  0  0  0
 17 16  1  0  0  0  0
 18 15  1  0  0  0  0
 18 19  1  0  0  0  0
 19 20  1  0  0  0  0
 21 28  1  6  0  0  0
 21 22  1  0  0  0  0
 22 24  1  0  0  0  0
 22 27  1  1  0  0  0
 23 21  1  0  0  0  0
 23 25  1  0  0  0  0
 25 20  1  6  0  0  0
 25 24  1  0  0  0  0
 26 22  1  0  0  0  0
 28 29  1  0  0  0  0
 30 28  2  0  0  0  0
 32 31  1  0  0  0  0
 32 33  1  0  0  0  0
 34 33  1  0  0  0  0
 35 34  1  0  0  0  0
M  END
>  <MODEL>
2

>  <REMARK>
 VINA RESULT:      -6.5      1.857      2.550
  Name = 
  13 active torsions:
  status: ('A' for Active; 'I' for Inactive)
    1  A    between atoms: O_3  and  C_15
    2  A    between atoms: O_3  and  C_29
    3  A    between atoms: C_4  and  C_10
    4  A    between atoms: C_6  and  C_9
    5  A    between atoms: C_11  and  C_29
    6  A    between atoms: C_13  and  C_14
    7  A    between atoms: C_14  and  C_32
    8  A    between atoms: C_15  and  C_21
    9  A    between atoms: C_20  and  C_22
   10  A    between atoms: C_20  and  C_32
   11  A    between atoms: C_22  and  N_31
   12  A    between atoms: C_25  and  C_32
   13  A    between atoms: C_27  and  N_31
                            x       y       z     vdW  Elec       q    Type
                         _______ _______ _______ _____ _____    ______ ____

>  <TORSDO>
F 13

$$$$
=
 OpenBabel11072413083D

 35 37  0  0  1  0  0  0  0  0999 V2000
  160.8340  205.5630  153.4720 O   0  0  0  0  0  0  0  0  0  0  0  0
  162.6280  206.3840  151.9680 C   0  0  0  0  0  2  0  0  0  0  0  0
  161.5040  207.9750  153.5520 C   0  0  2  0  0  3  0  0  0  0  0  0
  160.7450  209.2710  153.7690 C   0  0  0  0  0  0  0  0  0  0  0  0
  161.8360  207.6870  152.0680 C   0  0  2  0  0  3  0  0  0  0  0  0
  160.5380  209.0150  156.2150 N   0  0  0  0  0  0  0  0  0  0  0  0
  161.8480  205.1830  152.5330 C   0  0  2  0  0  3  0  0  0  0  0  0
  160.5880  207.7400  156.4420 C   0  0  0  0  0  3  0  0  0  0  0  0
  160.4010  209.7140  154.9750 C   0  0  0  0  0  3  0  0  0  0  0  0
  160.8890  206.7570  154.2000 C   0  0  0  0  0  0  0  0  0  0  0  0
  160.5260  206.7160  155.4440 N   0  0  0  0  0  0  0  0  0  0  0  0
  160.4760  211.0100  151.8580 N   0  0  0  0  0  0  0  0  0  0  0  0
  160.5930  210.2310  152.7050 C   0  0  0  0  0  0  0  0  0  0  0  0
  160.5880  207.6150  151.1780 C   0  0  0  0  0  2  0  0  0  0  0  0
  160.9240  208.0220  149.7490 C   0  0  1  0  0  3  0  0  0  0  0  0
  162.2400  209.9650  148.9010 C   0  0  0  0  0  1  0  0  0  0  0  0
  162.3000  208.6730  149.6950 C   0  0  0  0  0  2  0  0  0  0  0  0
  160.8080  206.8380  148.7880 C   0  0  0  0  0  2  0  0  0  0  0  0
  162.1060  206.5710  148.0370 C   0  0  0  0  0  2  0  0  0  0  0  0
  162.3820  205.1440  148.0310 N   0  0  0  0  0  2  0  0  0  0  0  0
  161.3380  203.7230  145.0710 C   0  0  1  0  0  3  0  0  0  0  0  0
  161.1190  205.1990  144.7940 C   0  0  2  0  0  0  0  0  0  0  0  0
  161.7850  203.5900  146.3940 O   0  0  0  0  0  0  0  0  0  0  0  0
  162.0900  205.8620  145.7210 C   0  0  0  0  0  2  0  0  0  0  0  0
  162.5490  204.7430  146.6430 C   0  0  1  0  0  3  0  0  0  0  0  0
  159.8210  205.6090  145.1120 O   0  0  0  0  0  1  0  0  0  0  0  0
  161.4360  205.5420  143.3530 C   0  0  0  0  0  1  0  0  0  0  0  0
  160.1320  202.8690  144.8250 C   0  0  0  0  0  0  0  0  0  0  0  0
  160.0460  201.7380  145.3690 O   0  0  0  0  0  1  0  0  0  0  0  0
  159.1280  203.2990  143.9660 O   0  0  0  0  0  0  0  0  0  0  0  0
  161.2260  204.3580  151.4200 C   0  0  0  0  0  2  0  0  0  0  0  0
  160.7780  203.1370  151.9230 O   0  0  0  0  0  0  0  0  0  0  0  0
  161.2060  202.1940  150.9900 C   0  0  0  0  0  2  0  0  0  0  0  0
  160.5550  202.4760  149.6510 C   0  0  0  0  0  2  0  0  0  0  0  0
  159.7750  201.3830  149.2720 O   0  0  0  0  0  1  0  0  0  0  0  0
  1 10  1  0  0  0  0
  2  5  1  0  0  0  0
  2  7  1  0  0  0  0
  3  4  1  6  0  0  0
  3 10  1  0  0  0  0
  4  9  2  0  0  0  0
  5 14  1  6  0  0  0
  5  3  1  0  0  0  0
  6  8  2  0  0  0  0
  7 31  1  6  0  0  0
  7  1  1  0  0  0  0
  9  6  1  0  0  0  0
 10 11  2  0  0  0  0
 11  8  1  0  0  0  0
 12 13  3  0  0  0  0
 13  4  1  0  0  0  0
 15 18  1  6  0  0  0
 15 14  1  0  0  0  0
 16 17  1  0  0  0  0
 17 15  1  0  0  0  0
 19 18  1  0  0  0  0
 20 19  1  0  0  0  0
 21 28  1  1  0  0  0
 21 23  1  0  0  0  0
 22 27  1  6  0  0  0
 22 21  1  0  0  0  0
 22 26  1  0  0  0  0
 22 24  1  0  0  0  0
 23 25  1  0  0  0  0
 24 25  1  0  0  0  0
 25 20  1  1  0  0  0
 28 29  1  0  0  0  0
 30 28  2  0  0  0  0
 31 32  1  0  0  0  0
 33 32  1  0  0  0  0
 34 33  1  0  0  0  0
 35 34  1  0  0  0  0
M  END
>  <MODEL>
3

>  <REMARK>
 VINA RESULT:      -6.4      2.920      9.088
  Name = 
  13 active torsions:
  status: ('A' for Active; 'I' for Inactive)
    1  A    between atoms: O_3  and  C_15
    2  A    between atoms: O_3  and  C_29
    3  A    between atoms: C_4  and  C_10
    4  A    between atoms: C_6  and  C_9
    5  A    between atoms: C_11  and  C_29
    6  A    between atoms: C_13  and  C_14
    7  A    between atoms: C_14  and  C_32
    8  A    between atoms: C_15  and  C_21
    9  A    between atoms: C_20  and  C_22
   10  A    between atoms: C_20  and  C_32
   11  A    between atoms: C_22  and  N_31
   12  A    between atoms: C_25  and  C_32
   13  A    between atoms: C_27  and  N_31
                            x       y       z     vdW  Elec       q    Type
                         _______ _______ _______ _____ _____    ______ ____

>  <TORSDO>
F 13

$$$$
=
 OpenBabel11072413083D

 35 37  0  0  1  0  0  0  0  0999 V2000
  161.9550  204.5200  151.4910 O   0  0  0  0  0  0  0  0  0  0  0  0
  160.4100  205.9940  150.2300 C   0  0  0  0  0  2  0  0  0  0  0  0
  160.7580  203.6220  149.4830 C   0  0  2  0  0  3  0  0  0  0  0  0
  161.1350  202.6510  148.3800 C   0  0  0  0  0  0  0  0  0  0  0  0
  160.8440  205.1090  149.0610 C   0  0  2  0  0  3  0  0  0  0  0  0
  160.8370  200.6170  149.7460 N   0  0  0  0  0  0  0  0  0  0  0  0
  161.2920  205.7900  151.4740 C   0  0  2  0  0  3  0  0  0  0  0  0
  161.0260  200.9860  150.9740 C   0  0  0  0  0  3  0  0  0  0  0  0
  161.0890  201.3300  148.5320 C   0  0  0  0  0  3  0  0  0  0  0  0
  161.4700  203.4060  150.7980 C   0  0  0  0  0  0  0  0  0  0  0  0
  161.5420  202.2550  151.3900 N   0  0  0  0  0  0  0  0  0  0  0  0
  161.4310  203.4480  145.9250 N   0  0  0  0  0  0  0  0  0  0  0  0
  161.3030  203.0990  147.0200 C   0  0  0  0  0  0  0  0  0  0  0  0
  162.2430  205.5160  148.5830 C   0  0  0  0  0  2  0  0  0  0  0  0
  162.1560  206.6560  147.5760 C   0  0  1  0  0  3  0  0  0  0  0  0
  160.6530  206.4000  145.6000 C   0  0  0  0  0  1  0  0  0  0  0  0
  160.7280  206.7980  147.0620 C   0  0  0  0  0  2  0  0  0  0  0  0
  162.6910  207.9640  148.1620 C   0  0  0  0  0  2  0  0  0  0  0  0
  161.5770  208.8660  148.6800 C   0  0  0  0  0  2  0  0  0  0  0  0
  162.1400  210.1310  149.1210 N   0  0  0  0  0  2  0  0  0  0  0  0
  160.8600  212.6240  147.1160 C   0  0  1  0  0  3  0  0  0  0  0  0
  161.8880  213.3860  147.9320 C   0  0  2  0  0  0  0  0  0  0  0  0
  160.8350  211.2990  147.5770 O   0  0  0  0  0  0  0  0  0  0  0  0
  162.8610  212.3190  148.3290 C   0  0  0  0  0  2  0  0  0  0  0  0
  162.1550  211.0200  147.9710 C   0  0  1  0  0  3  0  0  0  0  0  0
  161.3320  213.9570  149.0810 O   0  0  0  0  0  1  0  0  0  0  0  0
  162.5720  214.4510  147.0990 C   0  0  0  0  0  1  0  0  0  0  0  0
  159.4890  213.2260  147.1440 C   0  0  0  0  0  0  0  0  0  0  0  0
  158.5420  212.5990  147.6860 O   0  0  0  0  0  1  0  0  0  0  0  0
  159.2450  214.4530  146.5380 O   0  0  0  0  0  0  0  0  0  0  0  0
  162.3190  206.9010  151.6080 C   0  0  0  0  0  2  0  0  0  0  0  0
  161.7440  208.0140  152.2200 O   0  0  0  0  0  0  0  0  0  0  0  0
  161.3250  207.5530  153.4670 C   0  0  0  0  0  2  0  0  0  0  0  0
  160.8380  208.7210  154.3000 C   0  0  0  0  0  2  0  0  0  0  0  0
  161.5390  209.8730  153.9450 O   0  0  0  0  0  1  0  0  0  0  0  0
  2  7  1  0  0  0  0
  3  4  1  6  0  0  0
  3 10  1  0  0  0  0
  4  9  2  0  0  0  0
  5 14  1  1  0  0  0
  5  3  1  0  0  0  0
  5  2  1  0  0  0  0
  6  8  2  0  0  0  0
  7  1  1  0  0  0  0
  7 31  1  6  0  0  0
  8 11  1  0  0  0  0
  9  6  1  0  0  0  0
 10 11  2  0  0  0  0
 10  1  1  0  0  0  0
 12 13  3  0  0  0  0
 13  4  1  0  0  0  0
 15 17  1  1  0  0  0
 15 18  1  0  0  0  0
 15 14  1  0  0  0  0
 16 17  1  0  0  0  0
 18 19  1  0  0  0  0
 19 20  1  0  0  0  0
 21 28  1  1  0  0  0
 21 23  1  0  0  0  0
 21 22  1  0  0  0  0
 22 27  1  6  0  0  0
 22 24  1  0  0  0  0
 22 26  1  0  0  0  0
 23 25  1  0  0  0  0
 25 24  1  0  0  0  0
 25 20  1  1  0  0  0
 28 29  1  0  0  0  0
 30 28  2  0  0  0  0
 31 32  1  0  0  0  0
 32 33  1  0  0  0  0
 33 34  1  0  0  0  0
 35 34  1  0  0  0  0
M  END
>  <MODEL>
4

>  <REMARK>
 VINA RESULT:      -6.4      2.057      5.872
  Name = 
  13 active torsions:
  status: ('A' for Active; 'I' for Inactive)
    1  A    between atoms: O_3  and  C_15
    2  A    between atoms: O_3  and  C_29
    3  A    between atoms: C_4  and  C_10
    4  A    between atoms: C_6  and  C_9
    5  A    between atoms: C_11  and  C_29
    6  A    between atoms: C_13  and  C_14
    7  A    between atoms: C_14  and  C_32
    8  A    between atoms: C_15  and  C_21
    9  A    between atoms: C_20  and  C_22
   10  A    between atoms: C_20  and  C_32
   11  A    between atoms: C_22  and  N_31
   12  A    between atoms: C_25  and  C_32
   13  A    between atoms: C_27  and  N_31
                            x       y       z     vdW  Elec       q    Type
                         _______ _______ _______ _____ _____    ______ ____

>  <TORSDO>
F 13

$$$$
=
 OpenBabel11072413083D

 35 37  0  0  1  0  0  0  0  0999 V2000
  161.6530  204.2160  152.2100 O   0  0  0  0  0  0  0  0  0  0  0  0
  160.3310  206.2230  151.5990 C   0  0  0  0  0  2  0  0  0  0  0  0
  160.7800  204.4540  149.8750 C   0  0  2  0  0  3  0  0  0  0  0  0
  161.3200  204.0830  148.5070 C   0  0  0  0  0  0  0  0  0  0  0  0
  160.9380  205.9550  150.2230 C   0  0  2  0  0  3  0  0  0  0  0  0
  160.8030  201.6770  148.6950 N   0  0  0  0  0  0  0  0  0  0  0  0
  161.0070  205.3950  152.7060 C   0  0  2  0  0  3  0  0  0  0  0  0
  160.7990  201.4150  149.9650 C   0  0  0  0  0  3  0  0  0  0  0  0
  161.2450  202.8520  148.0100 C   0  0  0  0  0  3  0  0  0  0  0  0
  161.2760  203.5950  151.0150 C   0  0  0  0  0  0  0  0  0  0  0  0
  161.2490  202.2990  150.9960 N   0  0  0  0  0  0  0  0  0  0  0  0
  162.0120  205.9040  146.7880 N   0  0  0  0  0  0  0  0  0  0  0  0
  161.7010  205.0980  147.5570 C   0  0  0  0  0  0  0  0  0  0  0  0
  162.3970  206.4270  150.1880 C   0  0  0  0  0  2  0  0  0  0  0  0
  162.4670  207.9430  150.0570 C   0  0  1  0  0  3  0  0  0  0  0  0
  161.9190  209.8110  148.4950 C   0  0  0  0  0  1  0  0  0  0  0  0
  162.3300  208.3540  148.5960 C   0  0  0  0  0  2  0  0  0  0  0  0
  161.4300  208.6310  150.9480 C   0  0  0  0  0  2  0  0  0  0  0  0
  162.0490  209.7030  151.8360 C   0  0  0  0  0  2  0  0  0  0  0  0
  161.1370  210.8290  151.9470 N   0  0  0  0  0  2  0  0  0  0  0  0
  159.4150  210.7910  154.9320 C   0  0  1  0  0  3  0  0  0  0  0  0
  158.6120  211.7970  154.1290 C   0  0  2  0  0  0  0  0  0  0  0  0
  160.5120  210.3900  154.1540 O   0  0  0  0  0  0  0  0  0  0  0  0
  158.8960  211.4020  152.7130 C   0  0  0  0  0  2  0  0  0  0  0  0
  160.0530  210.4200  152.8260 C   0  0  1  0  0  3  0  0  0  0  0  0
  159.0470  213.1090  154.3400 O   0  0  0  0  0  1  0  0  0  0  0  0
  157.1310  211.6840  154.4280 C   0  0  0  0  0  1  0  0  0  0  0  0
  159.8630  211.2940  156.2690 C   0  0  0  0  0  0  0  0  0  0  0  0
  159.0330  211.3960  157.2090 O   0  0  0  0  0  1  0  0  0  0  0  0
  161.1800  211.6920  156.4670 O   0  0  0  0  0  0  0  0  0  0  0  0
  162.0060  206.2320  153.4870 C   0  0  0  0  0  2  0  0  0  0  0  0
  161.3610  207.3140  154.0840 O   0  0  0  0  0  0  0  0  0  0  0  0
  160.5860  206.7490  155.0950 C   0  0  0  0  0  2  0  0  0  0  0  0
  160.6420  207.6300  156.3270 C   0  0  0  0  0  2  0  0  0  0  0  0
  161.9210  208.1700  156.4570 O   0  0  0  0  0  1  0  0  0  0  0  0
  1  7  1  0  0  0  0
  2  7  1  0  0  0  0
  3  4  1  6  0  0  0
  3  5  1  0  0  0  0
  3 10  1  0  0  0  0
  5 14  1  1  0  0  0
  5  2  1  0  0  0  0
  6  8  2  0  0  0  0
  7 31  1  6  0  0  0
  8 11  1  0  0  0  0
  9  4  2  0  0  0  0
  9  6  1  0  0  0  0
 10  1  1  0  0  0  0
 11 10  2  0  0  0  0
 12 13  3  0  0  0  0
 13  4  1  0  0  0  0
 15 17  1  6  0  0  0
 15 14  1  0  0  0  0
 15 18  1  0  0  0  0
 16 17  1  0  0  0  0
 18 19  1  0  0  0  0
 19 20  1  0  0  0  0
 21 28  1  1  0  0  0
 22 26  1  0  0  0  0
 22 27  1  1  0  0  0
 22 21  1  0  0  0  0
 23 21  1  0  0  0  0
 24 25  1  0  0  0  0
 24 22  1  0  0  0  0
 25 20  1  6  0  0  0
 25 23  1  0  0  0  0
 28 30  2  0  0  0  0
 28 29  1  0  0  0  0
 31 32  1  0  0  0  0
 32 33  1  0  0  0  0
 33 34  1  0  0  0  0
 34 35  1  0  0  0  0
M  END
>  <MODEL>
5

>  <REMARK>
 VINA RESULT:      -6.2      2.300      4.721
  Name = 
  13 active torsions:
  status: ('A' for Active; 'I' for Inactive)
    1  A    between atoms: O_3  and  C_15
    2  A    between atoms: O_3  and  C_29
    3  A    between atoms: C_4  and  C_10
    4  A    between atoms: C_6  and  C_9
    5  A    between atoms: C_11  and  C_29
    6  A    between atoms: C_13  and  C_14
    7  A    between atoms: C_14  and  C_32
    8  A    between atoms: C_15  and  C_21
    9  A    between atoms: C_20  and  C_22
   10  A    between atoms: C_20  and  C_32
   11  A    between atoms: C_22  and  N_31
   12  A    between atoms: C_25  and  C_32
   13  A    between atoms: C_27  and  N_31
                            x       y       z     vdW  Elec       q    Type
                         _______ _______ _______ _____ _____    ______ ____

>  <TORSDO>
F 13

$$$$
=
 OpenBabel11072413083D

 35 37  0  0  1  0  0  0  0  0999 V2000
  160.9430  204.8290  148.0920 O   0  0  0  0  0  0  0  0  0  0  0  0
  162.8250  206.3510  148.6330 C   0  0  0  0  0  2  0  0  0  0  0  0
  161.8300  204.9110  150.4330 C   0  0  2  0  0  3  0  0  0  0  0  0
  161.1910  204.8040  151.8040 C   0  0  0  0  0  0  0  0  0  0  0  0
  162.1550  206.3630  150.0060 C   0  0  2  0  0  3  0  0  0  0  0  0
  160.9260  202.3510  151.7510 N   0  0  0  0  0  0  0  0  0  0  0  0
  161.9300  205.7160  147.5530 C   0  0  2  0  0  3  0  0  0  0  0  0
  160.8560  202.0310  150.4960 C   0  0  0  0  0  3  0  0  0  0  0  0
  160.8710  203.6420  152.3650 C   0  0  0  0  0  3  0  0  0  0  0  0
  161.0970  204.1890  149.3260 C   0  0  0  0  0  0  0  0  0  0  0  0
  160.7140  202.9530  149.4120 N   0  0  0  0  0  0  0  0  0  0  0  0
  161.1020  206.8420  153.4140 N   0  0  0  0  0  0  0  0  0  0  0  0
  161.1420  205.9390  152.6920 C   0  0  0  0  0  0  0  0  0  0  0  0
  160.9180  207.2710  149.9810 C   0  0  0  0  0  2  0  0  0  0  0  0
  161.3190  208.7280  150.1690 C   0  0  1  0  0  3  0  0  0  0  0  0
  161.9340  210.1750  152.1060 C   0  0  0  0  0  1  0  0  0  0  0  0
  162.2280  208.8740  151.3830 C   0  0  0  0  0  2  0  0  0  0  0  0
  161.9540  209.3020  148.9010 C   0  0  0  0  0  2  0  0  0  0  0  0
  161.5170  210.7360  148.6300 C   0  0  0  0  0  2  0  0  0  0  0  0
  162.6850  211.5980  148.5660 N   0  0  0  0  0  2  0  0  0  0  0  0
  161.8700  213.7670  146.0160 C   0  0  1  0  0  3  0  0  0  0  0  0
  160.4990  213.2970  146.4660 C   0  0  2  0  0  0  0  0  0  0  0  0
  162.8350  213.0750  146.7640 O   0  0  0  0  0  0  0  0  0  0  0  0
  160.7340  212.8900  147.8880 C   0  0  0  0  0  2  0  0  0  0  0  0
  162.2480  212.8760  148.0260 C   0  0  1  0  0  3  0  0  0  0  0  0
  160.0530  212.1920  145.7350 O   0  0  0  0  0  1  0  0  0  0  0  0
  159.4810  214.4170  146.3910 C   0  0  0  0  0  1  0  0  0  0  0  0
  162.1190  213.6080  144.5470 C   0  0  0  0  0  0  0  0  0  0  0  0
  163.1320  212.9770  144.1490 O   0  0  0  0  0  1  0  0  0  0  0  0
  161.2620  214.1900  143.6200 O   0  0  0  0  0  0  0  0  0  0  0  0
  161.2510  206.7790  146.7070 C   0  0  0  0  0  2  0  0  0  0  0  0
  160.2660  206.1980  145.9090 O   0  0  0  0  0  0  0  0  0  0  0  0
  160.9550  205.7050  144.8020 C   0  0  0  0  0  2  0  0  0  0  0  0
  160.3930  204.3500  144.4190 C   0  0  0  0  0  2  0  0  0  0  0  0
  160.9710  203.3630  145.2170 O   0  0  0  0  0  1  0  0  0  0  0  0
  1 10  1  0  0  0  0
  2  5  1  0  0  0  0
  3 10  1  6  0  0  0
  3  4  1  0  0  0  0
  4  9  2  0  0  0  0
  4 13  1  0  0  0  0
  5 14  1  6  0  0  0
  5  3  1  0  0  0  0
  6  9  1  0  0  0  0
  7 31  1  1  0  0  0
  7  1  1  0  0  0  0
  7  2  1  0  0  0  0
  8  6  2  0  0  0  0
 10 11  2  0  0  0  0
 11  8  1  0  0  0  0
 13 12  3  0  0  0  0
 14 15  1  0  0  0  0
 15 18  1  6  0  0  0
 15 17  1  0  0  0  0
 17 16  1  0  0  0  0
 19 18  1  0  0  0  0
 20 19  1  0  0  0  0
 21 28  1  6  0  0  0
 21 22  1  0  0  0  0
 21 23  1  0  0  0  0
 22 27  1  6  0  0  0
 22 24  1  0  0  0  0
 23 25  1  0  0  0  0
 24 25  1  0  0  0  0
 25 20  1  6  0  0  0
 26 22  1  0  0  0  0
 29 28  1  0  0  0  0
 30 28  2  0  0  0  0
 32 31  1  0  0  0  0
 33 32  1  0  0  0  0
 34 33  1  0  0  0  0
 34 35  1  0  0  0  0
M  END
>  <MODEL>
6

>  <REMARK>
 VINA RESULT:      -6.1      3.573      6.932
  Name = 
  13 active torsions:
  status: ('A' for Active; 'I' for Inactive)
    1  A    between atoms: O_3  and  C_15
    2  A    between atoms: O_3  and  C_29
    3  A    between atoms: C_4  and  C_10
    4  A    between atoms: C_6  and  C_9
    5  A    between atoms: C_11  and  C_29
    6  A    between atoms: C_13  and  C_14
    7  A    between atoms: C_14  and  C_32
    8  A    between atoms: C_15  and  C_21
    9  A    between atoms: C_20  and  C_22
   10  A    between atoms: C_20  and  C_32
   11  A    between atoms: C_22  and  N_31
   12  A    between atoms: C_25  and  C_32
   13  A    between atoms: C_27  and  N_31
                            x       y       z     vdW  Elec       q    Type
                         _______ _______ _______ _____ _____    ______ ____

>  <TORSDO>
F 13

$$$$
=
 OpenBabel11072413083D

 35 37  0  0  1  0  0  0  0  0999 V2000
  161.0790  207.5480  149.4100 O   0  0  0  0  0  0  0  0  0  0  0  0
  162.7080  208.8190  150.7810 C   0  0  0  0  0  2  0  0  0  0  0  0
  161.7910  206.6440  151.6350 C   0  0  2  0  0  3  0  0  0  0  0  0
  161.0800  205.8780  152.7340 C   0  0  0  0  0  0  0  0  0  0  0  0
  161.9520  208.1550  151.9300 C   0  0  2  0  0  3  0  0  0  0  0  0
  161.1400  203.6980  151.5790 N   0  0  0  0  0  0  0  0  0  0  0  0
  161.9770  208.6640  149.4350 C   0  0  2  0  0  3  0  0  0  0  0  0
  161.1950  203.9710  150.3130 C   0  0  0  0  0  3  0  0  0  0  0  0
  160.8770  204.5640  152.6860 C   0  0  0  0  0  3  0  0  0  0  0  0
  161.2320  206.4370  150.2460 C   0  0  0  0  0  0  0  0  0  0  0  0
  161.0080  205.2660  149.7350 N   0  0  0  0  0  0  0  0  0  0  0  0
  160.6120  206.9630  155.0490 N   0  0  0  0  0  0  0  0  0  0  0  0
  160.8260  206.4840  154.0180 C   0  0  0  0  0  0  0  0  0  0  0  0
  160.6130  208.8670  152.1610 C   0  0  0  0  0  2  0  0  0  0  0  0
  160.8400  210.2850  152.6710 C   0  0  1  0  0  3  0  0  0  0  0  0
  159.9490  212.4510  151.8110 C   0  0  0  0  0  1  0  0  0  0  0  0
  159.5880  211.1280  152.4610 C   0  0  0  0  0  2  0  0  0  0  0  0
  161.3000  210.2880  154.1300 C   0  0  0  0  0  2  0  0  0  0  0  0
  160.2090  210.7630  155.0810 C   0  0  0  0  0  2  0  0  0  0  0  0
  160.4540  212.1460  155.4530 N   0  0  0  0  0  2  0  0  0  0  0  0
  157.2300  213.3500  155.2810 C   0  0  1  0  0  3  0  0  0  0  0  0
  156.9940  211.9000  155.6620 C   0  0  2  0  0  0  0  0  0  0  0  0
  158.6090  213.5340  155.1000 O   0  0  0  0  0  0  0  0  0  0  0  0
  158.2740  211.5190  156.3400 C   0  0  0  0  0  2  0  0  0  0  0  0
  159.2210  212.6650  156.0210 C   0  0  1  0  0  3  0  0  0  0  0  0
  156.8020  211.0850  154.5430 O   0  0  0  0  0  1  0  0  0  0  0  0
  155.8230  211.7640  156.6140 C   0  0  0  0  0  1  0  0  0  0  0  0
  156.4680  213.7950  154.0710 C   0  0  0  0  0  0  0  0  0  0  0  0
  157.0850  214.0550  153.0050 O   0  0  0  0  0  0  0  0  0  0  0  0
  155.0900  213.9660  154.1280 O   0  0  0  0  0  1  0  0  0  0  0  0
  161.2240  209.9300  149.0690 C   0  0  0  0  0  2  0  0  0  0  0  0
  162.0250  211.0480  149.3010 O   0  0  0  0  0  0  0  0  0  0  0  0
  161.8110  211.8720  148.1980 C   0  0  0  0  0  2  0  0  0  0  0  0
  163.0750  212.6500  147.8940 C   0  0  0  0  0  2  0  0  0  0  0  0
  162.7760  214.0080  147.7990 O   0  0  0  0  0  1  0  0  0  0  0  0
  1  7  1  0  0  0  0
  1 10  1  0  0  0  0
  2  5  1  0  0  0  0
  3 10  1  6  0  0  0
  3  5  1  0  0  0  0
  3  4  1  0  0  0  0
  4 13  1  0  0  0  0
  5 14  1  6  0  0  0
  6  9  1  0  0  0  0
  7 31  1  1  0  0  0
  7  2  1  0  0  0  0
  8  6  2  0  0  0  0
  9  4  2  0  0  0  0
 11 10  2  0  0  0  0
 11  8  1  0  0  0  0
 13 12  3  0  0  0  0
 15 14  1  1  0  0  0
 15 18  1  0  0  0  0
 16 17  1  0  0  0  0
 17 15  1  0  0  0  0
 18 19  1  0  0  0  0
 19 20  1  0  0  0  0
 21 28  1  6  0  0  0
 21 22  1  0  0  0  0
 22 24  1  0  0  0  0
 22 27  1  1  0  0  0
 23 21  1  0  0  0  0
 23 25  1  0  0  0  0
 25 20  1  6  0  0  0
 25 24  1  0  0  0  0
 26 22  1  0  0  0  0
 28 30  1  0  0  0  0
 29 28  2  0  0  0  0
 31 32  1  0  0  0  0
 33 32  1  0  0  0  0
 34 33  1  0  0  0  0
 35 34  1  0  0  0  0
M  END
>  <MODEL>
7

>  <REMARK>
 VINA RESULT:      -6.0      2.594      4.867
  Name = 
  13 active torsions:
  status: ('A' for Active; 'I' for Inactive)
    1  A    between atoms: O_3  and  C_15
    2  A    between atoms: O_3  and  C_29
    3  A    between atoms: C_4  and  C_10
    4  A    between atoms: C_6  and  C_9
    5  A    between atoms: C_11  and  C_29
    6  A    between atoms: C_13  and  C_14
    7  A    between atoms: C_14  and  C_32
    8  A    between atoms: C_15  and  C_21
    9  A    between atoms: C_20  and  C_22
   10  A    between atoms: C_20  and  C_32
   11  A    between atoms: C_22  and  N_31
   12  A    between atoms: C_25  and  C_32
   13  A    between atoms: C_27  and  N_31
                            x       y       z     vdW  Elec       q    Type
                         _______ _______ _______ _____ _____    ______ ____

>  <TORSDO>
F 13

$$$$
=
 OpenBabel11072413083D

 35 37  0  0  1  0  0  0  0  0999 V2000
  161.6910  203.9400  151.6160 O   0  0  0  0  0  0  0  0  0  0  0  0
  160.0070  205.7220  151.2410 C   0  0  0  0  0  2  0  0  0  0  0  0
  160.7050  204.2460  149.3330 C   0  0  2  0  0  3  0  0  0  0  0  0
  161.2540  204.1180  147.9250 C   0  0  0  0  0  0  0  0  0  0  0  0
  160.6020  205.7070  149.8340 C   0  0  2  0  0  3  0  0  0  0  0  0
  161.1860  201.6520  147.8690 N   0  0  0  0  0  0  0  0  0  0  0  0
  160.8610  204.9250  152.2430 C   0  0  2  0  0  3  0  0  0  0  0  0
  161.2760  201.2680  149.1040 C   0  0  0  0  0  3  0  0  0  0  0  0
  161.3840  202.9500  147.3030 C   0  0  0  0  0  3  0  0  0  0  0  0
  161.3900  203.3830  150.3680 C   0  0  0  0  0  0  0  0  0  0  0  0
  161.5960  202.1120  150.2140 N   0  0  0  0  0  0  0  0  0  0  0  0
  161.5370  206.1970  146.3920 N   0  0  0  0  0  0  0  0  0  0  0  0
  161.4100  205.2760  147.0800 C   0  0  0  0  0  0  0  0  0  0  0  0
  161.9500  206.4400  149.8230 C   0  0  0  0  0  2  0  0  0  0  0  0
  161.7410  207.9480  149.8860 C   0  0  1  0  0  3  0  0  0  0  0  0
  161.3050  209.3720  151.8870 C   0  0  0  0  0  1  0  0  0  0  0  0
  162.3300  208.5110  151.1740 C   0  0  0  0  0  2  0  0  0  0  0  0
  162.3030  208.6430  148.6430 C   0  0  0  0  0  2  0  0  0  0  0  0
  161.8340  210.0870  148.5240 C   0  0  0  0  0  2  0  0  0  0  0  0
  162.9800  210.9570  148.3190 N   0  0  0  0  0  2  0  0  0  0  0  0
  161.9040  213.4940  146.2510 C   0  0  1  0  0  3  0  0  0  0  0  0
  160.5870  212.8980  146.7140 C   0  0  2  0  0  0  0  0  0  0  0  0
  162.9440  212.7250  146.7940 O   0  0  0  0  0  0  0  0  0  0  0  0
  160.9460  212.2640  148.0220 C   0  0  0  0  0  2  0  0  0  0  0  0
  162.4660  212.2880  148.0420 C   0  0  1  0  0  3  0  0  0  0  0  0
  160.1140  211.9170  145.8370 O   0  0  0  0  0  1  0  0  0  0  0  0
  159.5360  213.9720  146.9100 C   0  0  0  0  0  1  0  0  0  0  0  0
  162.0380  213.5980  144.7620 C   0  0  0  0  0  0  0  0  0  0  0  0
  162.9310  212.9410  144.1680 O   0  0  0  0  0  1  0  0  0  0  0  0
  161.2110  214.4490  144.0380 O   0  0  0  0  0  0  0  0  0  0  0  0
  161.7200  205.8480  153.0890 C   0  0  0  0  0  2  0  0  0  0  0  0
  161.0810  206.1230  154.2980 O   0  0  0  0  0  0  0  0  0  0  0  0
  161.4520  207.4310  154.6040 C   0  0  0  0  0  2  0  0  0  0  0  0
  160.4480  208.0290  155.5690 C   0  0  0  0  0  2  0  0  0  0  0  0
  160.1460  207.1000  156.5630 O   0  0  0  0  0  1  0  0  0  0  0  0
  1  7  1  0  0  0  0
  2  7  1  0  0  0  0
  3  4  1  6  0  0  0
  3  5  1  0  0  0  0
  3 10  1  0  0  0  0
  5 14  1  1  0  0  0
  5  2  1  0  0  0  0
  6  8  2  0  0  0  0
  7 31  1  6  0  0  0
  8 11  1  0  0  0  0
  9  6  1  0  0  0  0
  9  4  2  0  0  0  0
 10  1  1  0  0  0  0
 11 10  2  0  0  0  0
 12 13  3  0  0  0  0
 13  4  1  0  0  0  0
 14 15  1  0  0  0  0
 15 18  1  6  0  0  0
 15 17  1  0  0  0  0
 17 16  1  0  0  0  0
 19 18  1  0  0  0  0
 20 19  1  0  0  0  0
 21 28  1  6  0  0  0
 21 22  1  0  0  0  0
 21 23  1  0  0  0  0
 22 27  1  1  0  0  0
 22 24  1  0  0  0  0
 23 25  1  0  0  0  0
 24 25  1  0  0  0  0
 25 20  1  6  0  0  0
 26 22  1  0  0  0  0
 29 28  1  0  0  0  0
 30 28  2  0  0  0  0
 31 32  1  0  0  0  0
 32 33  1  0  0  0  0
 33 34  1  0  0  0  0
 34 35  1  0  0  0  0
M  END
>  <MODEL>
8

>  <REMARK>
 VINA RESULT:      -6.0      2.642      6.667
  Name = 
  13 active torsions:
  status: ('A' for Active; 'I' for Inactive)
    1  A    between atoms: O_3  and  C_15
    2  A    between atoms: O_3  and  C_29
    3  A    between atoms: C_4  and  C_10
    4  A    between atoms: C_6  and  C_9
    5  A    between atoms: C_11  and  C_29
    6  A    between atoms: C_13  and  C_14
    7  A    between atoms: C_14  and  C_32
    8  A    between atoms: C_15  and  C_21
    9  A    between atoms: C_20  and  C_22
   10  A    between atoms: C_20  and  C_32
   11  A    between atoms: C_22  and  N_31
   12  A    between atoms: C_25  and  C_32
   13  A    between atoms: C_27  and  N_31
                            x       y       z     vdW  Elec       q    Type
                         _______ _______ _______ _____ _____    ______ ____

>  <TORSDO>
F 13

$$$$
=
 OpenBabel11072413083D

 35 37  0  0  1  0  0  0  0  0999 V2000
  161.2780  207.1880  147.5490 O   0  0  0  0  0  0  0  0  0  0  0  0
  163.0290  207.3340  149.3000 C   0  0  0  0  0  2  0  0  0  0  0  0
  161.9590  205.1210  148.7880 C   0  0  2  0  0  3  0  0  0  0  0  0
  161.2120  203.8960  149.2800 C   0  0  0  0  0  0  0  0  0  0  0  0
  162.2450  206.1650  149.8950 C   0  0  2  0  0  3  0  0  0  0  0  0
  161.0780  202.7990  147.0730 N   0  0  0  0  0  0  0  0  0  0  0  0
  162.2620  208.0310  148.1610 C   0  0  2  0  0  3  0  0  0  0  0  0
  161.1300  203.7560  146.2000 C   0  0  0  0  0  3  0  0  0  0  0  0
  160.9060  202.8700  148.4910 C   0  0  0  0  0  3  0  0  0  0  0  0
  161.3590  205.7920  147.5740 C   0  0  0  0  0  0  0  0  0  0  0  0
  161.0340  205.1530  146.4930 N   0  0  0  0  0  0  0  0  0  0  0  0
  160.8990  203.4510  151.8210 N   0  0  0  0  0  0  0  0  0  0  0  0
  161.0320  203.6520  150.6890 C   0  0  0  0  0  0  0  0  0  0  0  0
  160.9700  206.6780  150.5780 C   0  0  0  0  0  2  0  0  0  0  0  0
  161.3100  207.3850  151.8840 C   0  0  1  0  0  3  0  0  0  0  0  0
  161.9600  209.7850  152.0930 C   0  0  0  0  0  1  0  0  0  0  0  0
  160.8100  208.8240  151.8500 C   0  0  0  0  0  2  0  0  0  0  0  0
  160.7720  206.6160  153.0920 C   0  0  0  0  0  2  0  0  0  0  0  0
  161.2860  207.1780  154.4120 C   0  0  0  0  0  2  0  0  0  0  0  0
  160.4190  206.7470  155.4960 N   0  0  0  0  0  2  0  0  0  0  0  0
  161.5570  209.6910  156.8770 C   0  0  1  0  0  3  0  0  0  0  0  0
  160.2140  210.1180  156.3110 C   0  0  2  0  0  0  0  0  0  0  0  0
  161.7660  208.3470  156.5330 O   0  0  0  0  0  0  0  0  0  0  0  0
  159.4410  208.8370  156.2780 C   0  0  0  0  0  2  0  0  0  0  0  0
  160.4880  207.7630  156.5330 C   0  0  1  0  0  3  0  0  0  0  0  0
  160.3260  210.6260  155.0140 O   0  0  0  0  0  1  0  0  0  0  0  0
  159.5350  211.1300  157.2110 C   0  0  0  0  0  1  0  0  0  0  0  0
  162.7060  210.5420  156.4320 C   0  0  0  0  0  0  0  0  0  0  0  0
  163.2760  211.3040  157.2560 O   0  0  0  0  0  1  0  0  0  0  0  0
  163.1190  210.5310  155.1050 O   0  0  0  0  0  0  0  0  0  0  0  0
  161.6030  209.3110  148.6450 C   0  0  0  0  0  2  0  0  0  0  0  0
  162.4820  210.3850  148.5030 O   0  0  0  0  0  0  0  0  0  0  0  0
  161.6770  211.5170  148.6180 C   0  0  0  0  0  2  0  0  0  0  0  0
  162.4850  212.7490  148.2630 C   0  0  0  0  0  2  0  0  0  0  0  0
  163.0900  212.5680  147.0200 O   0  0  0  0  0  1  0  0  0  0  0  0
  1 10  1  0  0  0  0
  1  7  1  0  0  0  0
  2  5  1  0  0  0  0
  3 10  1  6  0  0  0
  3  4  1  0  0  0  0
  3  5  1  0  0  0  0
  4 13  1  0  0  0  0
  5 14  1  6  0  0  0
  6  9  1  0  0  0  0
  7 31  1  1  0  0  0
  7  2  1  0  0  0  0
  8 11  1  0  0  0  0
  8  6  2  0  0  0  0
  9  4  2  0  0  0  0
 11 10  2  0  0  0  0
 13 12  3  0  0  0  0
 15 14  1  6  0  0  0
 15 18  1  0  0  0  0
 17 15  1  0  0  0  0
 17 16  1  0  0  0  0
 18 19  1  0  0  0  0
 19 20  1  0  0  0  0
 21 28  1  6  0  0  0
 22 21  1  0  0  0  0
 22 27  1  1  0  0  0
 23 25  1  0  0  0  0
 23 21  1  0  0  0  0
 24 22  1  0  0  0  0
 24 25  1  0  0  0  0
 25 20  1  6  0  0  0
 26 22  1  0  0  0  0
 28 29  1  0  0  0  0
 30 28  2  0  0  0  0
 32 33  1  0  0  0  0
 32 31  1  0  0  0  0
 34 33  1  0  0  0  0
 35 34  1  0  0  0  0
M  END
>  <MODEL>
9

>  <REMARK>
 VINA RESULT:      -5.9      1.766      2.553
  Name = 
  13 active torsions:
  status: ('A' for Active; 'I' for Inactive)
    1  A    between atoms: O_3  and  C_15
    2  A    between atoms: O_3  and  C_29
    3  A    between atoms: C_4  and  C_10
    4  A    between atoms: C_6  and  C_9
    5  A    between atoms: C_11  and  C_29
    6  A    between atoms: C_13  and  C_14
    7  A    between atoms: C_14  and  C_32
    8  A    between atoms: C_15  and  C_21
    9  A    between atoms: C_20  and  C_22
   10  A    between atoms: C_20  and  C_32
   11  A    between atoms: C_22  and  N_31
   12  A    between atoms: C_25  and  C_32
   13  A    between atoms: C_27  and  N_31
                            x       y       z     vdW  Elec       q    Type
                         _______ _______ _______ _____ _____    ______ ____

>  <TORSDO>
F 13

$$$$
