=
 OpenBabel11072412253D

 33 37  0  0  1  0  0  0  0  0999 V2000
  160.8160  207.0350  150.8490 C   0  0  0  0  0  3  0  0  0  0  0  0
  161.3240  207.9090  149.8930 C   0  0  0  0  0  0  0  0  0  0  0  0
  161.4050  207.8650  148.5190 C   0  0  0  0  0  0  0  0  0  0  0  0
  161.4930  208.6670  152.5580 C   0  0  0  0  0  0  0  0  0  0  0  0
  161.9920  209.0000  148.0750 N   0  0  0  0  0  0  0  0  0  0  0  0
  162.2880  209.7640  149.1240 N   0  0  0  0  0  2  0  0  0  0  0  0
  161.9920  209.5260  151.5500 C   0  0  0  0  0  3  0  0  0  0  0  0
  160.9070  207.4310  152.1970 C   0  0  0  0  0  3  0  0  0  0  0  0
  161.8870  209.1070  150.2270 C   0  0  0  0  0  0  0  0  0  0  0  0
  158.9530  211.2500  154.9390 C   0  0  1  0  0  3  0  0  0  0  0  0
  157.6620  210.7840  155.1050 F   0  0  0  0  0  0  0  0  0  0  0  0
  160.8670  210.0960  156.0450 C   0  0  1  0  0  3  0  0  0  0  0  0
  159.4810  211.6470  157.2380 O   0  0  0  0  0  0  0  0  0  0  0  0
  160.7220  209.7840  154.5970 C   0  0  0  0  0  0  0  0  0  0  0  0
  159.7270  211.0530  156.2010 C   0  0  0  0  0  0  0  0  0  0  0  0
  159.6390  210.4280  154.0100 O   0  0  0  0  0  0  0  0  0  0  0  0
  161.5460  209.0130  153.9510 N   0  0  0  0  0  0  0  0  0  0  0  0
  161.8140  208.1320  157.0180 F   0  0  0  0  0  0  0  0  0  0  0  0
  159.6800  208.0400  156.3090 F   0  0  0  0  0  0  0  0  0  0  0  0
  160.6370  208.8490  156.8970 C   0  0  0  0  0  3  0  0  0  0  0  0
  160.9700  206.8140  147.6520 N   0  0  0  0  0  2  0  0  0  0  0  0
  162.1070  204.1070  146.9320 C   0  0  1  0  0  3  0  0  0  0  0  0
  161.2120  204.9490  146.2480 O   0  0  0  0  0  0  0  0  0  0  0  0
  162.8360  205.2700  147.5540 C   0  0  0  0  0  2  0  0  0  0  0  0
  161.8610  206.0910  146.7540 C   0  0  2  0  0  3  0  0  0  0  0  0
  161.4000  203.2800  147.9660 C   0  0  0  0  0  0  0  0  0  0  0  0
  161.2320  201.9790  147.7150 C   0  0  0  0  0  3  0  0  0  0  0  0
  160.8050  203.9270  149.1800 C   0  0  0  0  0  2  0  0  0  0  0  0
  161.9810  204.2320  151.3070 F   0  0  0  0  0  0  0  0  0  0  0  0
  161.2140  202.1060  150.8030 C   0  0  0  0  0  3  0  0  0  0  0  0
  161.3830  203.3790  150.4420 C   0  0  0  0  0  0  0  0  0  0  0  0
  160.6070  201.0530  149.9660 C   0  0  0  0  0  3  0  0  0  0  0  0
  160.6120  200.9990  148.6280 C   0  0  0  0  0  3  0  0  0  0  0  0
  1  8  1  0  0  0  0
  2  9  1  0  0  0  0
  2  1  2  0  0  0  0
  3  2  1  0  0  0  0
  4 17  1  0  0  0  0
  5  3  2  0  0  0  0
  5  6  1  0  0  0  0
  6  9  1  0  0  0  0
  7  4  1  0  0  0  0
  8  4  2  0  0  0  0
  9  7  2  0  0  0  0
 10 11  1  1  0  0  0
 10 15  1  0  0  0  0
 12 15  1  0  0  0  0
 12 20  1  1  0  0  0
 14 12  1  0  0  0  0
 15 13  2  0  0  0  0
 16 14  1  0  0  0  0
 16 10  1  0  0  0  0
 17 14  2  0  0  0  0
 19 20  1  0  0  0  0
 20 18  1  0  0  0  0
 21  3  1  0  0  0  0
 22 24  1  0  0  0  0
 22 26  1  1  0  0  0
 23 25  1  0  0  0  0
 23 22  1  0  0  0  0
 25 24  1  0  0  0  0
 25 21  1  1  0  0  0
 26 28  1  0  0  0  0
 27 26  2  0  0  0  0
 27 33  1  0  0  0  0
 28 31  1  0  0  0  0
 31 30  2  0  0  0  0
 31 29  1  0  0  0  0
 32 30  1  0  0  0  0
 33 32  2  0  0  0  0
M  END
>  <MODEL>
1

>  <REMARK>
 VINA RESULT:      -9.3      0.000      0.000
  Name = 
  5 active torsions:
  status: ('A' for Active; 'I' for Inactive)
    1  A    between atoms: N_1  and  C_10
    2  A    between atoms: N_1  and  C_32
    3  A    between atoms: C_2  and  C_7
    4  A    between atoms: C_11  and  N_31
    5  A    between atoms: C_16  and  C_19
                            x       y       z     vdW  Elec       q    Type
                         _______ _______ _______ _____ _____    ______ ____

>  <TORSDO>
F 5

$$$$
=
 OpenBabel11072412253D

 33 37  0  0  1  0  0  0  0  0999 V2000
  161.5590  210.0050  151.2160 C   0  0  0  0  0  3  0  0  0  0  0  0
  161.6690  208.6830  151.6350 C   0  0  0  0  0  0  0  0  0  0  0  0
  162.0900  207.5260  151.0170 C   0  0  0  0  0  0  0  0  0  0  0  0
  160.7270  210.5440  153.4640 C   0  0  0  0  0  0  0  0  0  0  0  0
  162.0060  206.5000  151.8940 N   0  0  0  0  0  0  0  0  0  0  0  0
  161.5430  206.9680  153.0520 N   0  0  0  0  0  2  0  0  0  0  0  0
  160.8600  209.1890  153.8470 C   0  0  0  0  0  3  0  0  0  0  0  0
  161.0810  210.9390  152.1530 C   0  0  0  0  0  3  0  0  0  0  0  0
  161.3360  208.2880  152.8980 C   0  0  0  0  0  0  0  0  0  0  0  0
  156.6980  211.6710  154.5980 C   0  0  1  0  0  3  0  0  0  0  0  0
  156.0170  210.7050  155.3150 F   0  0  0  0  0  0  0  0  0  0  0  0
  158.6190  212.8880  155.6230 C   0  0  1  0  0  3  0  0  0  0  0  0
  156.3500  213.5170  156.0790 O   0  0  0  0  0  0  0  0  0  0  0  0
  159.0150  211.8090  154.6760 C   0  0  0  0  0  0  0  0  0  0  0  0
  157.1310  212.7680  155.5140 C   0  0  0  0  0  0  0  0  0  0  0  0
  157.9260  211.1390  154.1320 O   0  0  0  0  0  0  0  0  0  0  0  0
  160.2530  211.5520  154.3730 N   0  0  0  0  0  0  0  0  0  0  0  0
  160.3800  212.9900  157.2320 F   0  0  0  0  0  0  0  0  0  0  0  0
  159.0210  211.1960  157.2610 F   0  0  0  0  0  0  0  0  0  0  0  0
  159.0780  212.5620  157.0430 C   0  0  0  0  0  3  0  0  0  0  0  0
  162.5400  207.3700  149.6670 N   0  0  0  0  0  2  0  0  0  0  0  0
  160.8300  205.6620  147.8520 C   0  0  1  0  0  3  0  0  0  0  0  0
  160.4850  206.6330  148.8080 O   0  0  0  0  0  0  0  0  0  0  0  0
  162.1200  206.3610  147.5050 C   0  0  0  0  0  2  0  0  0  0  0  0
  161.6470  207.3700  148.5160 C   0  0  2  0  0  3  0  0  0  0  0  0
  161.0800  204.3270  148.4930 C   0  0  0  0  0  0  0  0  0  0  0  0
  160.8270  204.2060  149.7980 C   0  0  0  0  0  3  0  0  0  0  0  0
  161.7020  203.2110  147.7090 C   0  0  0  0  0  2  0  0  0  0  0  0
  160.4430  201.5330  146.4440 F   0  0  0  0  0  0  0  0  0  0  0  0
  160.5000  201.3180  148.7490 C   0  0  0  0  0  3  0  0  0  0  0  0
  160.8190  202.0100  147.6550 C   0  0  0  0  0  0  0  0  0  0  0  0
  160.8140  201.7160  150.1350 C   0  0  0  0  0  3  0  0  0  0  0  0
  160.9580  202.9670  150.5900 C   0  0  0  0  0  3  0  0  0  0  0  0
  1  2  2  0  0  0  0
  1  8  1  0  0  0  0
  2  9  1  0  0  0  0
  3  2  1  0  0  0  0
  3  5  2  0  0  0  0
  4  7  1  0  0  0  0
  4 17  1  0  0  0  0
  5  6  1  0  0  0  0
  8  4  2  0  0  0  0
  9  6  1  0  0  0  0
  9  7  2  0  0  0  0
 10 11  1  1  0  0  0
 10 15  1  0  0  0  0
 12 20  1  1  0  0  0
 14 12  1  0  0  0  0
 15 12  1  0  0  0  0
 15 13  2  0  0  0  0
 16 10  1  0  0  0  0
 16 14  1  0  0  0  0
 17 14  2  0  0  0  0
 20 18  1  0  0  0  0
 20 19  1  0  0  0  0
 21  3  1  0  0  0  0
 22 26  1  1  0  0  0
 22 23  1  0  0  0  0
 24 22  1  0  0  0  0
 24 25  1  0  0  0  0
 25 23  1  0  0  0  0
 25 21  1  1  0  0  0
 26 27  2  0  0  0  0
 27 33  1  0  0  0  0
 28 26  1  0  0  0  0
 29 31  1  0  0  0  0
 30 32  1  0  0  0  0
 31 28  1  0  0  0  0
 31 30  2  0  0  0  0
 32 33  2  0  0  0  0
M  END
>  <MODEL>
2

>  <REMARK>
 VINA RESULT:      -9.2      2.139      3.086
  Name = 
  5 active torsions:
  status: ('A' for Active; 'I' for Inactive)
    1  A    between atoms: N_1  and  C_10
    2  A    between atoms: N_1  and  C_32
    3  A    between atoms: C_2  and  C_7
    4  A    between atoms: C_11  and  N_31
    5  A    between atoms: C_16  and  C_19
                            x       y       z     vdW  Elec       q    Type
                         _______ _______ _______ _____ _____    ______ ____

>  <TORSDO>
F 5

$$$$
=
 OpenBabel11072412253D

 33 37  0  0  1  0  0  0  0  0999 V2000
  161.2090  206.7060  151.8840 C   0  0  0  0  0  3  0  0  0  0  0  0
  161.5340  207.7120  150.9790 C   0  0  0  0  0  0  0  0  0  0  0  0
  161.8390  209.0480  151.1180 C   0  0  0  0  0  0  0  0  0  0  0  0
  161.0350  205.1760  149.9690 C   0  0  0  0  0  0  0  0  0  0  0  0
  162.0920  209.5720  149.8970 N   0  0  0  0  0  0  0  0  0  0  0  0
  161.9550  208.6120  148.9850 N   0  0  0  0  0  2  0  0  0  0  0  0
  161.3730  206.2290  149.0870 C   0  0  0  0  0  3  0  0  0  0  0  0
  160.9590  205.4250  151.3590 C   0  0  0  0  0  3  0  0  0  0  0  0
  161.6160  207.4850  149.6360 C   0  0  0  0  0  0  0  0  0  0  0  0
  161.2830  203.4620  145.9950 C   0  0  1  0  0  3  0  0  0  0  0  0
  162.5660  203.3890  145.4850 F   0  0  0  0  0  0  0  0  0  0  0  0
  160.5900  202.0000  147.8920 C   0  0  1  0  0  3  0  0  0  0  0  0
  160.6330  201.1880  145.6360 O   0  0  0  0  0  0  0  0  0  0  0  0
  160.8980  203.4030  148.2840 C   0  0  0  0  0  0  0  0  0  0  0  0
  160.8300  202.1040  146.4190 C   0  0  0  0  0  0  0  0  0  0  0  0
  161.2960  204.1900  147.2110 O   0  0  0  0  0  0  0  0  0  0  0  0
  160.7740  203.8420  149.5030 N   0  0  0  0  0  0  0  0  0  0  0  0
  161.5810  199.8280  147.8360 F   0  0  0  0  0  0  0  0  0  0  0  0
  161.2350  200.7830  149.8440 F   0  0  0  0  0  0  0  0  0  0  0  0
  161.5820  201.0270  148.5270 C   0  0  0  0  0  3  0  0  0  0  0  0
  161.8850  209.8120  152.3260 N   0  0  0  0  0  2  0  0  0  0  0  0
  159.9740  210.9370  154.3810 C   0  0  1  0  0  3  0  0  0  0  0  0
  161.2170  211.4040  153.9160 O   0  0  0  0  0  0  0  0  0  0  0  0
  159.6280  210.3200  153.0500 C   0  0  0  0  0  2  0  0  0  0  0  0
  160.9560  210.8920  152.6310 C   0  0  2  0  0  3  0  0  0  0  0  0
  160.1460  209.8950  155.4470 C   0  0  0  0  0  0  0  0  0  0  0  0
  159.6030  208.6930  155.2360 C   0  0  0  0  0  3  0  0  0  0  0  0
  160.8060  210.2380  156.7490 C   0  0  0  0  0  2  0  0  0  0  0  0
  163.2050  210.0150  157.1890 F   0  0  0  0  0  0  0  0  0  0  0  0
  161.9350  208.0790  157.1680 C   0  0  0  0  0  3  0  0  0  0  0  0
  162.0140  209.3990  156.9980 C   0  0  0  0  0  0  0  0  0  0  0  0
  160.7210  207.2620  156.9730 C   0  0  0  0  0  3  0  0  0  0  0  0
  159.7090  207.5290  156.1370 C   0  0  0  0  0  3  0  0  0  0  0  0
  2  3  1  0  0  0  0
  2  1  2  0  0  0  0
  3 21  1  0  0  0  0
  4  8  2  0  0  0  0
  5  3  2  0  0  0  0
  6  9  1  0  0  0  0
  6  5  1  0  0  0  0
  7  9  2  0  0  0  0
  7  4  1  0  0  0  0
  8  1  1  0  0  0  0
  9  2  1  0  0  0  0
 10 11  1  1  0  0  0
 10 15  1  0  0  0  0
 10 16  1  0  0  0  0
 12 14  1  0  0  0  0
 12 20  1  1  0  0  0
 13 15  2  0  0  0  0
 14 17  2  0  0  0  0
 15 12  1  0  0  0  0
 16 14  1  0  0  0  0
 17  4  1  0  0  0  0
 18 20  1  0  0  0  0
 20 19  1  0  0  0  0
 22 26  1  1  0  0  0
 23 22  1  0  0  0  0
 24 22  1  0  0  0  0
 25 21  1  1  0  0  0
 25 24  1  0  0  0  0
 25 23  1  0  0  0  0
 26 28  1  0  0  0  0
 27 26  2  0  0  0  0
 27 33  1  0  0  0  0
 28 31  1  0  0  0  0
 31 30  2  0  0  0  0
 31 29  1  0  0  0  0
 32 30  1  0  0  0  0
 33 32  2  0  0  0  0
M  END
>  <MODEL>
3

>  <REMARK>
 VINA RESULT:      -9.1      2.229      8.892
  Name = 
  5 active torsions:
  status: ('A' for Active; 'I' for Inactive)
    1  A    between atoms: N_1  and  C_10
    2  A    between atoms: N_1  and  C_32
    3  A    between atoms: C_2  and  C_7
    4  A    between atoms: C_11  and  N_31
    5  A    between atoms: C_16  and  C_19
                            x       y       z     vdW  Elec       q    Type
                         _______ _______ _______ _____ _____    ______ ____

>  <TORSDO>
F 5

$$$$
=
 OpenBabel11072412253D

 33 37  0  0  1  0  0  0  0  0999 V2000
  162.1700  207.3590  151.1060 C   0  0  0  0  0  3  0  0  0  0  0  0
  162.1550  208.3620  150.1420 C   0  0  0  0  0  0  0  0  0  0  0  0
  162.3290  208.3630  148.7750 C   0  0  0  0  0  0  0  0  0  0  0  0
  161.7100  209.0980  152.7800 C   0  0  0  0  0  0  0  0  0  0  0  0
  162.2020  209.6290  148.3160 N   0  0  0  0  0  0  0  0  0  0  0  0
  161.9540  210.4330  149.3470 N   0  0  0  0  0  2  0  0  0  0  0  0
  161.6990  210.0830  151.7640 C   0  0  0  0  0  3  0  0  0  0  0  0
  161.9430  207.7450  152.4400 C   0  0  0  0  0  3  0  0  0  0  0  0
  161.9270  209.6700  150.4550 C   0  0  0  0  0  0  0  0  0  0  0  0
  158.5130  211.3360  154.6680 C   0  0  1  0  0  3  0  0  0  0  0  0
  157.2740  210.7260  154.6030 F   0  0  0  0  0  0  0  0  0  0  0  0
  160.3200  210.3830  156.0980 C   0  0  1  0  0  3  0  0  0  0  0  0
  158.5780  211.7470  157.0230 O   0  0  0  0  0  0  0  0  0  0  0  0
  160.4690  210.0840  154.6470 C   0  0  0  0  0  0  0  0  0  0  0  0
  159.0700  211.2040  156.0470 C   0  0  0  0  0  0  0  0  0  0  0  0
  159.4410  210.6140  153.8770 O   0  0  0  0  0  0  0  0  0  0  0  0
  161.4760  209.4220  154.1600 N   0  0  0  0  0  0  0  0  0  0  0  0
  161.2960  208.5400  157.2600 F   0  0  0  0  0  0  0  0  0  0  0  0
  159.3780  208.1890  156.1370 F   0  0  0  0  0  0  0  0  0  0  0  0
  160.0850  209.1030  156.8980 C   0  0  0  0  0  3  0  0  0  0  0  0
  162.6120  207.2450  147.9290 N   0  0  0  0  0  2  0  0  0  0  0  0
  160.8380  204.8930  147.2550 C   0  0  1  0  0  3  0  0  0  0  0  0
  160.5270  206.2080  147.6410 O   0  0  0  0  0  0  0  0  0  0  0  0
  162.0970  205.3230  146.5470 C   0  0  0  0  0  2  0  0  0  0  0  0
  161.6620  206.7000  146.9700 C   0  0  2  0  0  3  0  0  0  0  0  0
  161.1400  204.0300  148.4460 C   0  0  0  0  0  0  0  0  0  0  0  0
  160.8320  204.5060  149.6540 C   0  0  0  0  0  3  0  0  0  0  0  0
  161.8690  202.7310  148.2790 C   0  0  0  0  0  2  0  0  0  0  0  0
  160.7820  200.5650  147.9210 F   0  0  0  0  0  0  0  0  0  0  0  0
  160.7400  201.4450  150.0630 C   0  0  0  0  0  3  0  0  0  0  0  0
  161.0680  201.5750  148.7770 C   0  0  0  0  0  0  0  0  0  0  0  0
  160.9610  202.4610  151.1100 C   0  0  0  0  0  3  0  0  0  0  0  0
  161.0030  203.7880  150.9330 C   0  0  0  0  0  3  0  0  0  0  0  0
  1  8  1  0  0  0  0
  2  9  1  0  0  0  0
  2  1  2  0  0  0  0
  3  2  1  0  0  0  0
  4 17  1  0  0  0  0
  5  3  2  0  0  0  0
  5  6  1  0  0  0  0
  6  9  1  0  0  0  0
  7  4  1  0  0  0  0
  8  4  2  0  0  0  0
  9  7  2  0  0  0  0
 10 11  1  1  0  0  0
 10 15  1  0  0  0  0
 12 20  1  1  0  0  0
 14 12  1  0  0  0  0
 15 12  1  0  0  0  0
 15 13  2  0  0  0  0
 16 14  1  0  0  0  0
 16 10  1  0  0  0  0
 17 14  2  0  0  0  0
 19 20  1  0  0  0  0
 20 18  1  0  0  0  0
 21  3  1  0  0  0  0
 22 23  1  0  0  0  0
 22 26  1  1  0  0  0
 24 25  1  0  0  0  0
 24 22  1  0  0  0  0
 25 23  1  0  0  0  0
 25 21  1  1  0  0  0
 26 27  2  0  0  0  0
 27 33  1  0  0  0  0
 28 26  1  0  0  0  0
 28 31  1  0  0  0  0
 29 31  1  0  0  0  0
 30 32  1  0  0  0  0
 31 30  2  0  0  0  0
 33 32  2  0  0  0  0
M  END
>  <MODEL>
4

>  <REMARK>
 VINA RESULT:      -8.9      1.261      1.630
  Name = 
  5 active torsions:
  status: ('A' for Active; 'I' for Inactive)
    1  A    between atoms: N_1  and  C_10
    2  A    between atoms: N_1  and  C_32
    3  A    between atoms: C_2  and  C_7
    4  A    between atoms: C_11  and  N_31
    5  A    between atoms: C_16  and  C_19
                            x       y       z     vdW  Elec       q    Type
                         _______ _______ _______ _____ _____    ______ ____

>  <TORSDO>
F 5

$$$$
=
 OpenBabel11072412253D

 33 37  0  0  1  0  0  0  0  0999 V2000
  160.6150  206.2840  149.8820 C   0  0  0  0  0  3  0  0  0  0  0  0
  161.2900  207.4510  149.5400 C   0  0  0  0  0  0  0  0  0  0  0  0
  161.4810  208.6560  150.1800 C   0  0  0  0  0  0  0  0  0  0  0  0
  161.3300  205.3560  147.7210 C   0  0  0  0  0  0  0  0  0  0  0  0
  162.2380  209.4570  149.3970 N   0  0  0  0  0  0  0  0  0  0  0  0
  162.5350  208.8000  148.2780 N   0  0  0  0  0  2  0  0  0  0  0  0
  162.0060  206.5610  147.4190 C   0  0  0  0  0  3  0  0  0  0  0  0
  160.6430  205.2290  148.9510 C   0  0  0  0  0  3  0  0  0  0  0  0
  161.9610  207.5860  148.3600 C   0  0  0  0  0  0  0  0  0  0  0  0
  161.2900  201.0920  148.4980 C   0  0  1  0  0  3  0  0  0  0  0  0
  160.1240  200.6280  149.0780 F   0  0  0  0  0  0  0  0  0  0  0  0
  161.2990  201.8820  146.1330 C   0  0  1  0  0  3  0  0  0  0  0  0
  161.4090  199.5480  146.6740 O   0  0  0  0  0  0  0  0  0  0  0  0
  161.2870  202.9760  147.1420 C   0  0  0  0  0  0  0  0  0  0  0  0
  161.3240  200.7040  147.0560 C   0  0  0  0  0  0  0  0  0  0  0  0
  161.2670  202.5070  148.4490 O   0  0  0  0  0  0  0  0  0  0  0  0
  161.3240  204.2360  146.8210 N   0  0  0  0  0  0  0  0  0  0  0  0
  159.9680  200.7730  144.4890 F   0  0  0  0  0  0  0  0  0  0  0  0
  159.9540  203.0230  144.5220 F   0  0  0  0  0  0  0  0  0  0  0  0
  160.0120  201.8860  145.3090 C   0  0  0  0  0  3  0  0  0  0  0  0
  160.9750  209.0560  151.4570 N   0  0  0  0  0  2  0  0  0  0  0  0
  161.0920  210.7670  153.9460 C   0  0  1  0  0  3  0  0  0  0  0  0
  162.0610  210.4870  152.9670 O   0  0  0  0  0  0  0  0  0  0  0  0
  159.9600  210.6680  152.9560 C   0  0  0  0  0  2  0  0  0  0  0  0
  161.0700  210.4160  151.9710 C   0  0  2  0  0  3  0  0  0  0  0  0
  161.0240  209.6770  154.9760 C   0  0  0  0  0  0  0  0  0  0  0  0
  160.4510  209.9620  156.1480 C   0  0  0  0  0  3  0  0  0  0  0  0
  161.6820  208.3530  154.7280 C   0  0  0  0  0  2  0  0  0  0  0  0
  160.5780  206.4260  153.6960 F   0  0  0  0  0  0  0  0  0  0  0  0
  160.0530  206.9080  155.8990 C   0  0  0  0  0  3  0  0  0  0  0  0
  160.7040  207.2280  154.7800 C   0  0  0  0  0  0  0  0  0  0  0  0
  160.0680  207.6900  157.1510 C   0  0  0  0  0  3  0  0  0  0  0  0
  160.2430  209.0140  157.2590 C   0  0  0  0  0  3  0  0  0  0  0  0
  2  1  1  0  0  0  0
  2  3  1  0  0  0  0
  3 21  1  0  0  0  0
  4  8  1  0  0  0  0
  5  3  2  0  0  0  0
  6  9  1  0  0  0  0
  6  5  1  0  0  0  0
  7  4  2  0  0  0  0
  7  9  1  0  0  0  0
  8  1  2  0  0  0  0
  9  2  2  0  0  0  0
 10 11  1  6  0  0  0
 12 20  1  1  0  0  0
 12 15  1  0  0  0  0
 12 14  1  0  0  0  0
 13 15  2  0  0  0  0
 14 16  1  0  0  0  0
 15 10  1  0  0  0  0
 16 10  1  0  0  0  0
 17 14  2  0  0  0  0
 17  4  1  0  0  0  0
 18 20  1  0  0  0  0
 19 20  1  0  0  0  0
 22 26  1  1  0  0  0
 23 22  1  0  0  0  0
 24 22  1  0  0  0  0
 25 21  1  1  0  0  0
 25 24  1  0  0  0  0
 25 23  1  0  0  0  0
 26 27  2  0  0  0  0
 27 33  1  0  0  0  0
 28 31  1  0  0  0  0
 28 26  1  0  0  0  0
 29 31  1  0  0  0  0
 30 32  1  0  0  0  0
 31 30  2  0  0  0  0
 32 33  2  0  0  0  0
M  END
>  <MODEL>
5

>  <REMARK>
 VINA RESULT:      -8.7      2.764      9.135
  Name = 
  5 active torsions:
  status: ('A' for Active; 'I' for Inactive)
    1  A    between atoms: N_1  and  C_10
    2  A    between atoms: N_1  and  C_32
    3  A    between atoms: C_2  and  C_7
    4  A    between atoms: C_11  and  N_31
    5  A    between atoms: C_16  and  C_19
                            x       y       z     vdW  Elec       q    Type
                         _______ _______ _______ _____ _____    ______ ____

>  <TORSDO>
F 5

$$$$
=
 OpenBabel11072412253D

 33 37  0  0  1  0  0  0  0  0999 V2000
  161.5330  206.6810  151.9060 C   0  0  0  0  0  3  0  0  0  0  0  0
  161.6710  207.7210  150.9930 C   0  0  0  0  0  0  0  0  0  0  0  0
  161.9400  209.0660  151.1240 C   0  0  0  0  0  0  0  0  0  0  0  0
  161.1190  205.1910  149.9960 C   0  0  0  0  0  0  0  0  0  0  0  0
  161.9750  209.6300  149.8950 N   0  0  0  0  0  0  0  0  0  0  0  0
  161.7350  208.6870  148.9870 N   0  0  0  0  0  2  0  0  0  0  0  0
  161.2720  206.2790  149.1050 C   0  0  0  0  0  3  0  0  0  0  0  0
  161.2540  205.4030  151.3880 C   0  0  0  0  0  3  0  0  0  0  0  0
  161.5480  207.5310  149.6470 C   0  0  0  0  0  0  0  0  0  0  0  0
  161.3210  203.4650  146.0250 C   0  0  1  0  0  3  0  0  0  0  0  0
  162.5990  203.3770  145.5050 F   0  0  0  0  0  0  0  0  0  0  0  0
  160.6280  202.0150  147.9310 C   0  0  1  0  0  3  0  0  0  0  0  0
  160.6460  201.1970  145.6770 O   0  0  0  0  0  0  0  0  0  0  0  0
  160.9530  203.4150  148.3170 C   0  0  0  0  0  0  0  0  0  0  0  0
  160.8580  202.1120  146.4560 C   0  0  0  0  0  0  0  0  0  0  0  0
  161.3500  204.1950  147.2390 O   0  0  0  0  0  0  0  0  0  0  0  0
  160.8420  203.8580  149.5350 N   0  0  0  0  0  0  0  0  0  0  0  0
  161.6710  199.8700  147.8130 F   0  0  0  0  0  0  0  0  0  0  0  0
  161.2170  200.7170  149.8480 F   0  0  0  0  0  0  0  0  0  0  0  0
  161.6140  201.0330  148.5610 C   0  0  0  0  0  3  0  0  0  0  0  0
  162.1450  209.8020  152.3330 N   0  0  0  0  0  2  0  0  0  0  0  0
  160.1030  210.3780  154.4870 C   0  0  1  0  0  3  0  0  0  0  0  0
  160.2170  209.3120  153.5770 O   0  0  0  0  0  0  0  0  0  0  0  0
  161.5980  210.5600  154.5690 C   0  0  0  0  0  2  0  0  0  0  0  0
  161.6210  209.3860  153.6270 C   0  0  2  0  0  3  0  0  0  0  0  0
  159.4360  211.5660  153.8560 C   0  0  0  0  0  0  0  0  0  0  0  0
  159.0720  212.5720  154.6550 C   0  0  0  0  0  3  0  0  0  0  0  0
  159.0920  211.5600  152.3970 C   0  0  0  0  0  2  0  0  0  0  0  0
  160.5650  212.3830  150.6200 F   0  0  0  0  0  0  0  0  0  0  0  0
  159.4720  213.9570  151.9210 C   0  0  0  0  0  3  0  0  0  0  0  0
  159.7550  212.6790  151.6650 C   0  0  0  0  0  0  0  0  0  0  0  0
  158.6310  214.4410  153.0330 C   0  0  0  0  0  3  0  0  0  0  0  0
  158.4550  213.8400  154.2170 C   0  0  0  0  0  3  0  0  0  0  0  0
  2  3  1  0  0  0  0
  2  1  2  0  0  0  0
  3 21  1  0  0  0  0
  4  8  2  0  0  0  0
  5  3  2  0  0  0  0
  6  9  1  0  0  0  0
  6  5  1  0  0  0  0
  7  9  2  0  0  0  0
  7  4  1  0  0  0  0
  8  1  1  0  0  0  0
  9  2  1  0  0  0  0
 10 11  1  1  0  0  0
 10 15  1  0  0  0  0
 10 16  1  0  0  0  0
 12 14  1  0  0  0  0
 12 20  1  1  0  0  0
 13 15  2  0  0  0  0
 14 17  2  0  0  0  0
 15 12  1  0  0  0  0
 16 14  1  0  0  0  0
 17  4  1  0  0  0  0
 18 20  1  0  0  0  0
 20 19  1  0  0  0  0
 22 26  1  6  0  0  0
 22 24  1  0  0  0  0
 23 25  1  0  0  0  0
 23 22  1  0  0  0  0
 25 21  1  6  0  0  0
 25 24  1  0  0  0  0
 26 27  2  0  0  0  0
 28 26  1  0  0  0  0
 29 31  1  0  0  0  0
 30 32  1  0  0  0  0
 31 30  2  0  0  0  0
 31 28  1  0  0  0  0
 32 33  2  0  0  0  0
 33 27  1  0  0  0  0
M  END
>  <MODEL>
6

>  <REMARK>
 VINA RESULT:      -8.7      2.730      9.391
  Name = 
  5 active torsions:
  status: ('A' for Active; 'I' for Inactive)
    1  A    between atoms: N_1  and  C_10
    2  A    between atoms: N_1  and  C_32
    3  A    between atoms: C_2  and  C_7
    4  A    between atoms: C_11  and  N_31
    5  A    between atoms: C_16  and  C_19
                            x       y       z     vdW  Elec       q    Type
                         _______ _______ _______ _____ _____    ______ ____

>  <TORSDO>
F 5

$$$$
=
 OpenBabel11072412253D

 33 37  0  0  1  0  0  0  0  0999 V2000
  161.3710  205.7060  153.1140 C   0  0  0  0  0  3  0  0  0  0  0  0
  161.3240  206.9540  152.5000 C   0  0  0  0  0  0  0  0  0  0  0  0
  161.4870  208.2420  152.9620 C   0  0  0  0  0  0  0  0  0  0  0  0
  160.8970  204.7180  150.9140 C   0  0  0  0  0  0  0  0  0  0  0  0
  161.3480  209.1020  151.9280 N   0  0  0  0  0  0  0  0  0  0  0  0
  161.1000  208.4020  150.8220 N   0  0  0  0  0  2  0  0  0  0  0  0
  160.8630  206.0080  150.3330 C   0  0  0  0  0  3  0  0  0  0  0  0
  161.1530  204.5800  152.2980 C   0  0  0  0  0  3  0  0  0  0  0  0
  161.0820  207.1020  151.1650 C   0  0  0  0  0  0  0  0  0  0  0  0
  161.4950  203.9420  146.6910 C   0  0  1  0  0  3  0  0  0  0  0  0
  162.8170  203.9750  146.2870 F   0  0  0  0  0  0  0  0  0  0  0  0
  160.6630  202.0950  148.1450 C   0  0  1  0  0  3  0  0  0  0  0  0
  160.9030  201.8130  145.7760 O   0  0  0  0  0  0  0  0  0  0  0  0
  160.9210  203.3710  148.8680 C   0  0  0  0  0  0  0  0  0  0  0  0
  161.0240  202.5260  146.7590 C   0  0  0  0  0  0  0  0  0  0  0  0
  161.3980  204.3770  148.0360 O   0  0  0  0  0  0  0  0  0  0  0  0
  160.6910  203.5250  150.1390 N   0  0  0  0  0  0  0  0  0  0  0  0
  161.5290  199.9000  147.7850 F   0  0  0  0  0  0  0  0  0  0  0  0
  161.2700  200.6020  149.9080 F   0  0  0  0  0  0  0  0  0  0  0  0
  161.6090  200.9960  148.6250 C   0  0  0  0  0  3  0  0  0  0  0  0
  161.7490  208.6620  154.3040 N   0  0  0  0  0  2  0  0  0  0  0  0
  159.9970  209.0020  156.7440 C   0  0  1  0  0  3  0  0  0  0  0  0
  159.8100  208.2610  155.5630 O   0  0  0  0  0  0  0  0  0  0  0  0
  161.4920  208.8140  156.7090 C   0  0  0  0  0  2  0  0  0  0  0  0
  161.1910  208.0030  155.4770 C   0  0  2  0  0  3  0  0  0  0  0  0
  159.6170  210.4410  156.5530 C   0  0  0  0  0  0  0  0  0  0  0  0
  160.2810  211.3600  157.2570 C   0  0  0  0  0  3  0  0  0  0  0  0
  158.4510  210.8110  155.6860 C   0  0  0  0  0  2  0  0  0  0  0  0
  158.6040  211.3080  153.2910 F   0  0  0  0  0  0  0  0  0  0  0  0
  159.3330  212.9330  154.7720 C   0  0  0  0  0  3  0  0  0  0  0  0
  158.8560  211.7050  154.5620 C   0  0  0  0  0  0  0  0  0  0  0  0
  159.6800  213.5020  156.0880 C   0  0  0  0  0  3  0  0  0  0  0  0
  160.0890  212.8210  157.1660 C   0  0  0  0  0  3  0  0  0  0  0  0
  2  3  1  0  0  0  0
  2  1  1  0  0  0  0
  3 21  1  0  0  0  0
  4  8  1  0  0  0  0
  5  3  2  0  0  0  0
  6  9  1  0  0  0  0
  6  5  1  0  0  0  0
  7  4  2  0  0  0  0
  7  9  1  0  0  0  0
  8  1  2  0  0  0  0
  9  2  2  0  0  0  0
 10 11  1  1  0  0  0
 10 15  1  0  0  0  0
 10 16  1  0  0  0  0
 12 20  1  1  0  0  0
 12 14  1  0  0  0  0
 13 15  2  0  0  0  0
 14 17  2  0  0  0  0
 15 12  1  0  0  0  0
 16 14  1  0  0  0  0
 17  4  1  0  0  0  0
 18 20  1  0  0  0  0
 20 19  1  0  0  0  0
 22 26  1  6  0  0  0
 23 22  1  0  0  0  0
 24 22  1  0  0  0  0
 25 21  1  6  0  0  0
 25 23  1  0  0  0  0
 25 24  1  0  0  0  0
 26 27  2  0  0  0  0
 28 26  1  0  0  0  0
 29 31  1  0  0  0  0
 30 32  1  0  0  0  0
 31 30  2  0  0  0  0
 31 28  1  0  0  0  0
 32 33  2  0  0  0  0
 33 27  1  0  0  0  0
M  END
>  <MODEL>
7

>  <REMARK>
 VINA RESULT:      -8.6      2.325      9.591
  Name = 
  5 active torsions:
  status: ('A' for Active; 'I' for Inactive)
    1  A    between atoms: N_1  and  C_10
    2  A    between atoms: N_1  and  C_32
    3  A    between atoms: C_2  and  C_7
    4  A    between atoms: C_11  and  N_31
    5  A    between atoms: C_16  and  C_19
                            x       y       z     vdW  Elec       q    Type
                         _______ _______ _______ _____ _____    ______ ____

>  <TORSDO>
F 5

$$$$
=
 OpenBabel11072412253D

 33 37  0  0  1  0  0  0  0  0999 V2000
  161.1120  206.5220  153.9150 C   0  0  0  0  0  3  0  0  0  0  0  0
  161.5680  206.8180  152.6340 C   0  0  0  0  0  0  0  0  0  0  0  0
  162.0590  206.0490  151.6030 C   0  0  0  0  0  0  0  0  0  0  0  0
  160.6920  208.9250  154.2140 C   0  0  0  0  0  0  0  0  0  0  0  0
  162.3510  206.8500  150.5540 N   0  0  0  0  0  0  0  0  0  0  0  0
  162.0630  208.1070  150.8860 N   0  0  0  0  0  2  0  0  0  0  0  0
  161.1610  209.1780  152.9030 C   0  0  0  0  0  3  0  0  0  0  0  0
  160.6710  207.5990  154.7060 C   0  0  0  0  0  3  0  0  0  0  0  0
  161.5900  208.0920  152.1450 C   0  0  0  0  0  0  0  0  0  0  0  0
  159.0780  212.8380  153.2810 C   0  0  1  0  0  3  0  0  0  0  0  0
  157.8530  212.8120  152.6410 F   0  0  0  0  0  0  0  0  0  0  0  0
  159.2710  212.1570  155.6720 C   0  0  1  0  0  3  0  0  0  0  0  0
  158.5160  214.3460  155.0500 O   0  0  0  0  0  0  0  0  0  0  0  0
  159.7240  211.1210  154.7040 C   0  0  0  0  0  0  0  0  0  0  0  0
  158.8930  213.2370  154.7080 C   0  0  0  0  0  0  0  0  0  0  0  0
  159.5910  211.5210  153.3810 O   0  0  0  0  0  0  0  0  0  0  0  0
  160.2200  209.9760  155.0730 N   0  0  0  0  0  0  0  0  0  0  0  0
  157.0420  211.3060  155.5690 F   0  0  0  0  0  0  0  0  0  0  0  0
  157.5690  212.6950  157.2600 F   0  0  0  0  0  0  0  0  0  0  0  0
  158.0440  211.6800  156.4470 C   0  0  0  0  0  3  0  0  0  0  0  0
  162.2620  204.6320  151.5900 N   0  0  0  0  0  2  0  0  0  0  0  0
  160.4660  202.7980  149.9930 C   0  0  1  0  0  3  0  0  0  0  0  0
  161.5020  202.5210  150.9030 O   0  0  0  0  0  0  0  0  0  0  0  0
  160.0750  204.0620  150.7140 C   0  0  0  0  0  2  0  0  0  0  0  0
  161.1770  203.6630  151.6590 C   0  0  2  0  0  3  0  0  0  0  0  0
  161.0060  203.0870  148.6220 C   0  0  0  0  0  0  0  0  0  0  0  0
  160.7830  202.1860  147.6620 C   0  0  0  0  0  3  0  0  0  0  0  0
  161.8630  204.2930  148.3810 C   0  0  0  0  0  2  0  0  0  0  0  0
  161.0110  206.4860  147.6950 F   0  0  0  0  0  0  0  0  0  0  0  0
  161.1100  204.8240  146.0860 C   0  0  0  0  0  3  0  0  0  0  0  0
  161.2690  205.2000  147.3550 C   0  0  0  0  0  0  0  0  0  0  0  0
  161.3250  203.4600  145.5650 C   0  0  0  0  0  3  0  0  0  0  0  0
  161.1850  202.3160  146.2480 C   0  0  0  0  0  3  0  0  0  0  0  0
  1  8  1  0  0  0  0
  2  1  2  0  0  0  0
  3  2  1  0  0  0  0
  4  8  2  0  0  0  0
  4 17  1  0  0  0  0
  5  6  1  0  0  0  0
  5  3  2  0  0  0  0
  6  9  1  0  0  0  0
  7  4  1  0  0  0  0
  9  2  1  0  0  0  0
  9  7  2  0  0  0  0
 10 11  1  6  0  0  0
 10 16  1  0  0  0  0
 10 15  1  0  0  0  0
 12 20  1  6  0  0  0
 14 17  2  0  0  0  0
 14 12  1  0  0  0  0
 15 13  2  0  0  0  0
 15 12  1  0  0  0  0
 16 14  1  0  0  0  0
 18 20  1  0  0  0  0
 20 19  1  0  0  0  0
 21  3  1  0  0  0  0
 22 26  1  6  0  0  0
 22 24  1  0  0  0  0
 22 23  1  0  0  0  0
 23 25  1  0  0  0  0
 24 25  1  0  0  0  0
 25 21  1  6  0  0  0
 27 26  2  0  0  0  0
 28 26  1  0  0  0  0
 30 31  2  0  0  0  0
 31 29  1  0  0  0  0
 31 28  1  0  0  0  0
 32 30  1  0  0  0  0
 32 33  2  0  0  0  0
 33 27  1  0  0  0  0
M  END
>  <MODEL>
8

>  <REMARK>
 VINA RESULT:      -8.3      2.462      3.502
  Name = 
  5 active torsions:
  status: ('A' for Active; 'I' for Inactive)
    1  A    between atoms: N_1  and  C_10
    2  A    between atoms: N_1  and  C_32
    3  A    between atoms: C_2  and  C_7
    4  A    between atoms: C_11  and  N_31
    5  A    between atoms: C_16  and  C_19
                            x       y       z     vdW  Elec       q    Type
                         _______ _______ _______ _____ _____    ______ ____

>  <TORSDO>
F 5

$$$$
=
 OpenBabel11072412253D

 33 37  0  0  1  0  0  0  0  0999 V2000
  161.2130  208.1990  151.0650 C   0  0  0  0  0  3  0  0  0  0  0  0
  161.1710  207.4590  152.2420 C   0  0  0  0  0  0  0  0  0  0  0  0
  161.0100  207.7980  153.5680 C   0  0  0  0  0  0  0  0  0  0  0  0
  161.5240  206.0790  149.8610 C   0  0  0  0  0  0  0  0  0  0  0  0
  161.0340  206.6730  154.3180 N   0  0  0  0  0  0  0  0  0  0  0  0
  161.2060  205.6280  153.5110 N   0  0  0  0  0  2  0  0  0  0  0  0
  161.4700  205.3680  151.0840 C   0  0  0  0  0  3  0  0  0  0  0  0
  161.3920  207.4870  149.8640 C   0  0  0  0  0  3  0  0  0  0  0  0
  161.2910  206.1000  152.2540 C   0  0  0  0  0  0  0  0  0  0  0  0
  160.6400  202.0110  148.6520 C   0  0  1  0  0  3  0  0  0  0  0  0
  159.2930  201.7030  148.6280 F   0  0  0  0  0  0  0  0  0  0  0  0
  161.6090  203.5800  146.9730 C   0  0  1  0  0  3  0  0  0  0  0  0
  161.2060  201.2750  146.4470 O   0  0  0  0  0  0  0  0  0  0  0  0
  161.3790  204.1860  148.3130 C   0  0  0  0  0  0  0  0  0  0  0  0
  161.1420  202.1870  147.2560 C   0  0  0  0  0  0  0  0  0  0  0  0
  160.8250  203.2950  149.2230 O   0  0  0  0  0  0  0  0  0  0  0  0
  161.6960  205.4150  148.5990 N   0  0  0  0  0  0  0  0  0  0  0  0
  160.7450  203.4960  144.7490 F   0  0  0  0  0  0  0  0  0  0  0  0
  161.1710  205.5160  145.6450 F   0  0  0  0  0  0  0  0  0  0  0  0
  160.7210  204.2360  145.9180 C   0  0  0  0  0  3  0  0  0  0  0  0
  160.8540  209.1080  154.1210 N   0  0  0  0  0  2  0  0  0  0  0  0
  160.3930  211.0720  156.3730 C   0  0  1  0  0  3  0  0  0  0  0  0
  160.0000  209.7310  156.2160 O   0  0  0  0  0  0  0  0  0  0  0  0
  161.6590  210.8670  155.5810 C   0  0  0  0  0  2  0  0  0  0  0  0
  161.1770  209.4430  155.5010 C   0  0  2  0  0  3  0  0  0  0  0  0
  159.4480  212.0050  155.6720 C   0  0  0  0  0  0  0  0  0  0  0  0
  159.5470  213.3090  155.9390 C   0  0  0  0  0  3  0  0  0  0  0  0
  158.3580  211.4660  154.7940 C   0  0  0  0  0  2  0  0  0  0  0  0
  158.5810  211.0780  152.3860 F   0  0  0  0  0  0  0  0  0  0  0  0
  158.3300  213.2660  153.1000 C   0  0  0  0  0  3  0  0  0  0  0  0
  158.4700  211.9740  153.3960 C   0  0  0  0  0  0  0  0  0  0  0  0
  158.2220  214.3620  154.0820 C   0  0  0  0  0  3  0  0  0  0  0  0
  158.7480  214.3800  155.3140 C   0  0  0  0  0  3  0  0  0  0  0  0
  1  2  1  0  0  0  0
  2  9  2  0  0  0  0
  2  3  1  0  0  0  0
  3 21  1  0  0  0  0
  3  5  2  0  0  0  0
  4  8  1  0  0  0  0
  4  7  2  0  0  0  0
  6  5  1  0  0  0  0
  7  9  1  0  0  0  0
  8  1  2  0  0  0  0
  9  6  1  0  0  0  0
 10 11  1  6  0  0  0
 10 16  1  0  0  0  0
 12 20  1  6  0  0  0
 12 15  1  0  0  0  0
 12 14  1  0  0  0  0
 13 15  2  0  0  0  0
 14 17  2  0  0  0  0
 14 16  1  0  0  0  0
 15 10  1  0  0  0  0
 17  4  1  0  0  0  0
 18 20  1  0  0  0  0
 19 20  1  0  0  0  0
 22 26  1  6  0  0  0
 23 22  1  0  0  0  0
 24 22  1  0  0  0  0
 25 21  1  6  0  0  0
 25 24  1  0  0  0  0
 25 23  1  0  0  0  0
 26 27  2  0  0  0  0
 28 26  1  0  0  0  0
 29 31  1  0  0  0  0
 30 31  2  0  0  0  0
 30 32  1  0  0  0  0
 31 28  1  0  0  0  0
 32 33  2  0  0  0  0
 33 27  1  0  0  0  0
M  END
>  <MODEL>
9

>  <REMARK>
 VINA RESULT:      -8.3      2.576      9.855
  Name = 
  5 active torsions:
  status: ('A' for Active; 'I' for Inactive)
    1  A    between atoms: N_1  and  C_10
    2  A    between atoms: N_1  and  C_32
    3  A    between atoms: C_2  and  C_7
    4  A    between atoms: C_11  and  N_31
    5  A    between atoms: C_16  and  C_19
                            x       y       z     vdW  Elec       q    Type
                         _______ _______ _______ _____ _____    ______ ____

>  <TORSDO>
F 5

$$$$
