=
 OpenBabel11072410313D

 32 35  0  0  1  0  0  0  0  0999 V2000
  160.1900  211.1540  152.3670 C   0  0  1  0  0  3  0  0  0  0  0  0
  161.7600  210.5220  154.2990 C   0  0  1  0  0  3  0  0  0  0  0  0
  157.2060  213.6150  151.2200 C   0  0  0  0  0  2  0  0  0  0  0  0
  159.5640  213.6010  151.8530 C   0  0  1  0  0  3  0  0  0  0  0  0
  160.2990  212.3350  151.4010 C   0  0  0  0  0  2  0  0  0  0  0  0
  157.8060  213.0400  153.5450 C   0  0  0  0  0  3  0  0  0  0  0  0
  160.6610  208.7380  152.8260 C   0  0  2  0  0  3  0  0  0  0  0  0
  159.4930  211.5860  154.7740 C   0  0  2  0  0  3  0  0  0  0  0  0
  158.6050  210.5120  154.6420 O   0  0  0  0  0  1  0  0  0  0  0  0
  158.7750  212.9360  154.6920 C   0  0  2  0  0  3  0  0  0  0  0  0
  157.9860  214.1290  150.0980 N   0  0  0  0  0  2  0  0  0  0  0  0
  159.3160  214.4530  150.6240 C   0  0  0  0  0  2  0  0  0  0  0  0
  162.1160  210.8050  155.6190 O   0  0  0  0  0  1  0  0  0  0  0  0
  158.1800  213.3120  152.2890 C   0  0  0  0  0  0  0  0  0  0  0  0
  160.7650  209.8560  151.7740 C   0  0  2  0  0  3  0  0  0  0  0  0
  161.3720  209.0460  154.1560 C   0  0  0  0  0  2  0  0  0  0  0  0
  160.6710  211.4870  153.7960 C   0  0  2  0  0  3  0  0  0  0  0  0
  160.9810  207.3740  152.2870 C   0  0  0  0  0  0  0  0  0  0  0  0
  160.8950  206.9880  151.0190 C   0  0  0  0  0  3  0  0  0  0  0  0
  161.3110  206.1970  153.0700 C   0  0  0  0  0  0  0  0  0  0  0  0
  161.3990  205.0690  152.2150 N   0  0  0  0  0  0  0  0  0  0  0  0
  161.1530  206.0970  154.3480 N   0  0  0  0  0  2  0  0  0  0  0  0
  161.1750  204.7290  149.8700 N   0  0  0  0  0  1  0  0  0  0  0  0
  161.1850  205.5480  151.0330 C   0  0  0  0  0  0  0  0  0  0  0  0
  157.9080  213.2750  156.2530 P   0  0  0  0  0  0  0  0  0  0  0  0
  156.2890  213.6430  155.9290 O   0  0  0  0  0  0  0  0  0  0  0  0
  157.9840  211.9190  157.2590 O   0  0  0  0  0  1  0  0  0  0  0  0
  158.5560  214.4520  156.9460 O   0  0  0  0  0  1  0  0  0  0  0  0
  162.1970  210.0470  151.2520 C   0  0  0  0  0  2  0  0  0  0  0  0
  162.3340  209.5140  149.9430 O   0  0  0  0  0  0  0  0  0  0  0  0
  161.9760  210.2640  148.8280 C   0  0  0  0  0  3  0  0  0  0  0  0
  162.3560  211.5270  148.7320 C   0  0  0  0  0  2  0  0  0  0  0  0
  1  5  1  6  0  0  0
  1 17  1  0  0  0  0
  2 13  1  1  0  0  0
  3 14  1  0  0  0  0
  4 12  1  6  0  0  0
  4 14  1  0  0  0  0
  5  4  1  0  0  0  0
  6 10  1  0  0  0  0
  7 18  1  6  0  0  0
  7 16  1  0  0  0  0
  8  9  1  6  0  0  0
 10  8  1  0  0  0  0
 10 25  1  1  0  0  0
 11 12  1  0  0  0  0
 11  3  1  0  0  0  0
 14  6  2  0  0  0  0
 15 29  1  1  0  0  0
 15  1  1  0  0  0  0
 15  7  1  0  0  0  0
 16  2  1  0  0  0  0
 17  2  1  0  0  0  0
 17  8  1  0  0  0  0
 18 20  1  0  0  0  0
 19 24  1  0  0  0  0
 19 18  2  0  0  0  0
 20 22  2  0  0  0  0
 21 20  1  0  0  0  0
 23 24  1  0  0  0  0
 24 21  2  0  0  0  0
 25 28  1  0  0  0  0
 25 27  1  0  0  0  0
 26 25  2  0  0  0  0
 30 29  1  0  0  0  0
 31 30  1  0  0  0  0
 32 31  2  0  0  0  0
M  END
>  <MODEL>
1

>  <REMARK>
 VINA RESULT:      -6.3      0.000      0.000
  Name = 
  5 active torsions:
  status: ('A' for Active; 'I' for Inactive)
    1  A    between atoms: P_1  and  C_17
    2  A    between atoms: C_4  and  C_13
    3  A    between atoms: C_5  and  O_28
    4  A    between atoms: C_14  and  C_26
    5  A    between atoms: C_14  and  O_28
                            x       y       z     vdW  Elec       q    Type
                         _______ _______ _______ _____ _____    ______ ____

>  <TORSDO>
F 5

$$$$
=
 OpenBabel11072410313D

 32 35  0  0  1  0  0  0  0  0999 V2000
  160.2750  210.9830  152.3900 C   0  0  1  0  0  3  0  0  0  0  0  0
  161.4330  210.1310  154.5190 C   0  0  1  0  0  3  0  0  0  0  0  0
  157.5940  213.6220  150.9340 C   0  0  0  0  0  2  0  0  0  0  0  0
  159.7850  213.4840  152.0040 C   0  0  1  0  0  3  0  0  0  0  0  0
  160.5810  212.2450  151.5820 C   0  0  0  0  0  2  0  0  0  0  0  0
  157.7260  212.8190  153.2640 C   0  0  0  0  0  3  0  0  0  0  0  0
  160.6240  208.5220  152.6970 C   0  0  2  0  0  3  0  0  0  0  0  0
  159.1290  211.2100  154.6490 C   0  0  2  0  0  3  0  0  0  0  0  0
  158.2720  210.1780  154.2460 O   0  0  0  0  0  1  0  0  0  0  0  0
  158.4530  212.5810  154.5610 C   0  0  2  0  0  3  0  0  0  0  0  0
  158.5820  214.2160  150.0370 N   0  0  0  0  0  2  0  0  0  0  0  0
  159.7880  214.4520  150.8380 C   0  0  0  0  0  2  0  0  0  0  0  0
  161.5300  210.2810  155.9030 O   0  0  0  0  0  1  0  0  0  0  0  0
  158.3390  213.1940  152.1350 C   0  0  0  0  0  0  0  0  0  0  0  0
  160.9420  209.7300  151.7970 C   0  0  2  0  0  3  0  0  0  0  0  0
  161.0670  208.6860  154.1620 C   0  0  0  0  0  2  0  0  0  0  0  0
  160.4720  211.1680  153.9110 C   0  0  2  0  0  3  0  0  0  0  0  0
  161.0290  207.2060  152.1010 C   0  0  0  0  0  0  0  0  0  0  0  0
  160.6240  206.7100  150.9370 C   0  0  0  0  0  3  0  0  0  0  0  0
  161.8290  206.1800  152.7470 C   0  0  0  0  0  0  0  0  0  0  0  0
  161.8700  205.0250  151.9260 N   0  0  0  0  0  0  0  0  0  0  0  0
  162.1130  206.1550  154.0070 N   0  0  0  0  0  2  0  0  0  0  0  0
  160.9820  204.4600  149.7910 N   0  0  0  0  0  1  0  0  0  0  0  0
  161.1940  205.3570  150.8740 C   0  0  0  0  0  0  0  0  0  0  0  0
  157.3030  212.7990  155.9520 P   0  0  0  0  0  0  0  0  0  0  0  0
  157.1420  214.4480  156.2950 O   0  0  0  0  0  1  0  0  0  0  0  0
  155.7900  212.1590  155.5530 O   0  0  0  0  0  0  0  0  0  0  0  0
  157.8450  212.0880  157.1710 O   0  0  0  0  0  1  0  0  0  0  0  0
  162.4490  209.9280  151.5820 C   0  0  0  0  0  2  0  0  0  0  0  0
  162.7670  209.9280  150.1970 O   0  0  0  0  0  0  0  0  0  0  0  0
  161.8890  209.3830  149.2660 C   0  0  0  0  0  3  0  0  0  0  0  0
  162.3030  208.4320  148.4460 C   0  0  0  0  0  2  0  0  0  0  0  0
  1  5  1  6  0  0  0
  1 17  1  0  0  0  0
  2 13  1  1  0  0  0
  3 14  1  0  0  0  0
  4 12  1  6  0  0  0
  4 14  1  0  0  0  0
  5  4  1  0  0  0  0
  6 10  1  0  0  0  0
  7 18  1  6  0  0  0
  7 16  1  0  0  0  0
  8  9  1  6  0  0  0
 10  8  1  0  0  0  0
 10 25  1  1  0  0  0
 11 12  1  0  0  0  0
 11  3  1  0  0  0  0
 14  6  2  0  0  0  0
 15 29  1  1  0  0  0
 15  1  1  0  0  0  0
 15  7  1  0  0  0  0
 16  2  1  0  0  0  0
 17  2  1  0  0  0  0
 17  8  1  0  0  0  0
 18 20  1  0  0  0  0
 19 18  2  0  0  0  0
 20 22  2  0  0  0  0
 21 20  1  0  0  0  0
 23 24  1  0  0  0  0
 24 19  1  0  0  0  0
 24 21  2  0  0  0  0
 25 26  1  0  0  0  0
 25 28  1  0  0  0  0
 27 25  2  0  0  0  0
 30 29  1  0  0  0  0
 31 30  1  0  0  0  0
 32 31  2  0  0  0  0
M  END
>  <MODEL>
2

>  <REMARK>
 VINA RESULT:      -5.3      0.733      1.019
  Name = 
  5 active torsions:
  status: ('A' for Active; 'I' for Inactive)
    1  A    between atoms: P_1  and  C_17
    2  A    between atoms: C_4  and  C_13
    3  A    between atoms: C_5  and  O_28
    4  A    between atoms: C_14  and  C_26
    5  A    between atoms: C_14  and  O_28
                            x       y       z     vdW  Elec       q    Type
                         _______ _______ _______ _____ _____    ______ ____

>  <TORSDO>
F 5

$$$$
