=
 OpenBabel11072411133D

 30 34  0  0  1  0  0  0  0  0999 V2000
  160.9940  204.6630  149.5350 N   0  0  0  0  0  2  0  0  0  0  0  0
  162.5450  207.0490  150.1450 N   0  0  0  0  0  2  0  0  0  0  0  0
  160.9240  204.4980  151.8530 O   0  0  0  0  0  0  0  0  0  0  0  0
  161.0120  204.4760  147.2290 O   0  0  0  0  0  0  0  0  0  0  0  0
  160.2630  207.2340  153.1110 C   0  0  0  0  0  1  0  0  0  0  0  0
  162.5010  206.4600  153.1970 O   0  0  0  0  0  1  0  0  0  0  0  0
  161.4190  209.6200  151.6460 C   0  0  2  0  0  3  0  0  0  0  0  0
  161.2180  205.2250  148.2210 C   0  0  0  0  0  0  0  0  0  0  0  0
  161.6400  207.2700  152.4550 C   0  0  1  0  0  0  0  0  0  0  0  0
  161.6920  206.6120  147.9520 C   0  0  0  0  0  0  0  0  0  0  0  0
  161.9360  209.9300  152.9940 N   0  0  2  0  0  0  0  0  0  0  0  0
  161.4720  206.6770  151.0370 C   0  0  2  0  0  3  0  0  0  0  0  0
  161.8250  207.6280  149.0410 C   0  0  2  0  0  3  0  0  0  0  0  0
  161.7090  209.9770  149.1760 C   0  0  1  0  0  3  0  0  0  0  0  0
  162.4770  208.8620  148.6200 N   0  0  0  0  0  2  0  0  0  0  0  0
  161.9390  206.9510  146.7610 O   0  0  0  0  0  0  0  0  0  0  0  0
  162.3310  208.6740  152.2940 C   0  0  2  0  0  3  0  0  0  0  0  0
  162.1990  210.3690  150.5730 C   0  0  0  0  0  2  0  0  0  0  0  0
  161.1320  205.2300  150.8510 C   0  0  0  0  0  0  0  0  0  0  0  0
  160.8570  209.7870  153.9600 C   0  0  2  0  0  3  0  0  0  0  0  0
  159.7620  210.7940  153.6760 C   0  0  0  0  0  2  0  0  0  0  0  0
  160.0810  212.2340  155.6760 C   0  0  2  0  0  3  0  0  0  0  0  0
  159.1880  211.1980  155.0220 C   0  0  2  0  0  3  0  0  0  0  0  0
  160.1950  210.7760  156.0780 C   0  0  1  0  0  3  0  0  0  0  0  0
  161.3560  210.1270  155.3480 C   0  0  0  0  0  2  0  0  0  0  0  0
  159.3540  212.9230  156.6450 O   0  0  0  0  0  0  0  0  0  0  0  0
  158.2850  212.0800  156.9480 C   0  0  0  0  0  1  0  0  0  0  0  0
  161.7970  211.1520  148.2610 C   0  0  0  0  0  0  0  0  0  0  0  0
  162.9590  211.9120  148.2300 O   0  0  0  0  0  1  0  0  0  0  0  0
  160.8310  211.4530  147.5110 O   0  0  0  0  0  0  0  0  0  0  0  0
  1 19  1  0  0  0  0
  4  8  2  0  0  0  0
  7 18  1  6  0  0  0
  7 17  1  0  0  0  0
  7 11  1  0  0  0  0
  8  1  1  0  0  0  0
  9  5  1  1  0  0  0
  9  6  1  0  0  0  0
 10  8  1  0  0  0  0
 11 20  1  1  0  0  0
 12  2  1  6  0  0  0
 12  9  1  0  0  0  0
 13 10  1  6  0  0  0
 13  2  1  0  0  0  0
 14 28  1  6  0  0  0
 14 18  1  0  0  0  0
 15 13  1  0  0  0  0
 15 14  1  0  0  0  0
 16 10  2  0  0  0  0
 17  9  1  0  0  0  0
 17 11  1  0  0  0  0
 19 12  1  0  0  0  0
 19  3  2  0  0  0  0
 20 25  1  0  0  0  0
 21 20  1  0  0  0  0
 21 23  1  0  0  0  0
 22 24  1  0  0  0  0
 22 26  1  0  0  0  0
 23 22  1  0  0  0  0
 23 24  1  0  0  0  0
 25 24  1  0  0  0  0
 26 27  1  0  0  0  0
 29 28  1  0  0  0  0
 30 28  2  0  0  0  0
M  END
>  <MODEL>
1

>  <REMARK>
 VINA RESULT:      -6.0      0.000      0.000
  Name = 
  3 active torsions:
  status: ('A' for Active; 'I' for Inactive)
    1  A    between atoms: C_1  and  N_17
    2  A    between atoms: O_5  and  C_8
    3  A    between atoms: C_6  and  CA_22
                            x       y       z     vdW  Elec       q    Type
                         _______ _______ _______ _____ _____    ______ ____

>  <TORSDO>
F 3

$$$$
=
 OpenBabel11072411133D

 30 34  0  0  1  0  0  0  0  0999 V2000
  161.1650  211.2350  150.1030 N   0  0  0  0  0  2  0  0  0  0  0  0
  162.2590  209.0550  151.6920 N   0  0  0  0  0  2  0  0  0  0  0  0
  161.6460  209.7830  148.3530 O   0  0  0  0  0  0  0  0  0  0  0  0
  160.7120  212.9380  151.6030 O   0  0  0  0  0  0  0  0  0  0  0  0
  160.7040  206.9260  149.0290 C   0  0  0  0  0  1  0  0  0  0  0  0
  163.0190  207.4160  149.1620 O   0  0  0  0  0  1  0  0  0  0  0  0
  160.9640  206.1590  151.9480 C   0  0  2  0  0  3  0  0  0  0  0  0
  160.9660  211.7130  151.4540 C   0  0  0  0  0  0  0  0  0  0  0  0
  161.8610  207.3330  149.9370 C   0  0  1  0  0  0  0  0  0  0  0  0
  161.0570  210.8730  152.6820 C   0  0  0  0  0  0  0  0  0  0  0  0
  161.6870  205.0120  151.3640 N   0  0  2  0  0  0  0  0  0  0  0  0
  161.5160  208.7330  150.4970 C   0  0  2  0  0  3  0  0  0  0  0  0
  161.2040  209.3860  152.6150 C   0  0  2  0  0  3  0  0  0  0  0  0
  160.6160  207.5720  153.9960 C   0  0  1  0  0  3  0  0  0  0  0  0
  161.4650  208.7600  153.9050 N   0  0  0  0  0  2  0  0  0  0  0  0
  160.9550  211.4300  153.8110 O   0  0  0  0  0  0  0  0  0  0  0  0
  162.1790  206.4060  151.1670 C   0  0  2  0  0  3  0  0  0  0  0  0
  161.3070  206.3300  153.4220 C   0  0  0  0  0  2  0  0  0  0  0  0
  161.4640  209.9240  149.5900 C   0  0  0  0  0  0  0  0  0  0  0  0
  160.9050  204.4700  150.2620 C   0  0  2  0  0  3  0  0  0  0  0  0
  160.1530  203.2340  150.7100 C   0  0  0  0  0  2  0  0  0  0  0  0
  161.4160  201.5540  149.3850 C   0  0  2  0  0  3  0  0  0  0  0  0
  160.1030  202.3020  149.5140 C   0  0  2  0  0  3  0  0  0  0  0  0
  161.1590  202.7820  148.5330 C   0  0  1  0  0  3  0  0  0  0  0  0
  161.8260  203.9940  149.1590 C   0  0  0  0  0  2  0  0  0  0  0  0
  161.2200  200.4090  148.6140 O   0  0  0  0  0  0  0  0  0  0  0  0
  161.1790  200.8740  147.3000 C   0  0  0  0  0  1  0  0  0  0  0  0
  160.2430  207.3290  155.4210 C   0  0  0  0  0  0  0  0  0  0  0  0
  161.1860  207.5280  156.4200 O   0  0  0  0  0  1  0  0  0  0  0  0
  159.0790  206.9570  155.7230 O   0  0  0  0  0  0  0  0  0  0  0  0
  1  8  1  0  0  0  0
  3 19  2  0  0  0  0
  6  9  1  0  0  0  0
  7 18  1  1  0  0  0
  8  4  2  0  0  0  0
  8 10  1  0  0  0  0
  9  5  1  6  0  0  0
  9 12  1  0  0  0  0
  9 17  1  0  0  0  0
 10 16  2  0  0  0  0
 11 20  1  6  0  0  0
 11  7  1  0  0  0  0
 12 19  1  6  0  0  0
 12  2  1  0  0  0  0
 13  2  1  6  0  0  0
 13 10  1  0  0  0  0
 13 15  1  0  0  0  0
 14 28  1  1  0  0  0
 15 14  1  0  0  0  0
 17 11  1  0  0  0  0
 17  7  1  0  0  0  0
 18 14  1  0  0  0  0
 19  1  1  0  0  0  0
 20 21  1  0  0  0  0
 22 23  1  0  0  0  0
 23 21  1  0  0  0  0
 24 25  1  0  0  0  0
 24 22  1  0  0  0  0
 24 23  1  0  0  0  0
 25 20  1  0  0  0  0
 26 22  1  0  0  0  0
 27 26  1  0  0  0  0
 28 30  2  0  0  0  0
 28 29  1  0  0  0  0
M  END
>  <MODEL>
2

>  <REMARK>
 VINA RESULT:      -5.4      2.544      7.817
  Name = 
  3 active torsions:
  status: ('A' for Active; 'I' for Inactive)
    1  A    between atoms: C_1  and  N_17
    2  A    between atoms: O_5  and  C_8
    3  A    between atoms: C_6  and  CA_22
                            x       y       z     vdW  Elec       q    Type
                         _______ _______ _______ _____ _____    ______ ____

>  <TORSDO>
F 3

$$$$
=
 OpenBabel11072411133D

 30 34  0  0  1  0  0  0  0  0999 V2000
  161.6130  207.5670  154.6060 N   0  0  0  0  0  2  0  0  0  0  0  0
  160.4480  208.3390  152.0530 N   0  0  0  0  0  2  0  0  0  0  0  0
  161.3020  205.4310  153.7460 O   0  0  0  0  0  0  0  0  0  0  0  0
  161.9110  209.5380  155.7800 O   0  0  0  0  0  0  0  0  0  0  0  0
  162.2510  205.2960  150.8150 C   0  0  0  0  0  1  0  0  0  0  0  0
  159.9230  205.3830  151.2480 O   0  0  0  0  0  1  0  0  0  0  0  0
  161.7820  207.8220  149.2100 C   0  0  2  0  0  3  0  0  0  0  0  0
  161.6970  209.0100  154.6570 C   0  0  0  0  0  0  0  0  0  0  0  0
  161.0190  206.1880  150.9340 C   0  0  1  0  0  0  0  0  0  0  0  0
  161.5290  209.9200  153.4880 C   0  0  0  0  0  0  0  0  0  0  0  0
  161.1330  206.8660  148.2920 N   0  0  2  0  0  0  0  0  0  0  0  0
  161.2880  207.1660  152.1020 C   0  0  2  0  0  3  0  0  0  0  0  0
  161.4200  209.4010  152.0900 C   0  0  2  0  0  3  0  0  0  0  0  0
  161.9390  210.2200  149.9440 C   0  0  1  0  0  3  0  0  0  0  0  0
  161.0740  210.4200  151.1070 N   0  0  0  0  0  2  0  0  0  0  0  0
  161.5310  211.1680  153.6820 O   0  0  0  0  0  0  0  0  0  0  0  0
  160.6260  207.0550  149.6820 C   0  0  2  0  0  3  0  0  0  0  0  0
  161.3230  209.2470  148.9330 C   0  0  0  0  0  2  0  0  0  0  0  0
  161.3840  206.6640  153.5090 C   0  0  0  0  0  0  0  0  0  0  0  0
  162.0090  205.7190  148.1030 C   0  0  2  0  0  3  0  0  0  0  0  0
  162.5080  205.6700  146.6740 C   0  0  0  0  0  2  0  0  0  0  0  0
  161.2740  203.6410  145.9400 C   0  0  2  0  0  3  0  0  0  0  0  0
  162.6330  204.2010  146.3120 C   0  0  2  0  0  3  0  0  0  0  0  0
  161.8270  203.4210  147.3360 C   0  0  1  0  0  3  0  0  0  0  0  0
  161.2310  204.4350  148.2940 C   0  0  0  0  0  2  0  0  0  0  0  0
  161.4440  202.4790  145.1890 O   0  0  0  0  0  0  0  0  0  0  0  0
  160.2000  201.8490  145.2310 C   0  0  0  0  0  1  0  0  0  0  0  0
  162.2060  211.5320  149.2850 C   0  0  0  0  0  0  0  0  0  0  0  0
  161.3870  212.6180  149.5620 O   0  0  0  0  0  1  0  0  0  0  0  0
  163.1730  211.6640  148.4890 O   0  0  0  0  0  0  0  0  0  0  0  0
  1  8  1  0  0  0  0
  2 13  1  0  0  0  0
  7 18  1  6  0  0  0
  7 17  1  0  0  0  0
  8  4  2  0  0  0  0
  9  5  1  6  0  0  0
  9  6  1  0  0  0  0
  9 12  1  0  0  0  0
 10 16  2  0  0  0  0
 10  8  1  0  0  0  0
 11 20  1  1  0  0  0
 11  7  1  0  0  0  0
 11 17  1  0  0  0  0
 12  2  1  1  0  0  0
 12 19  1  0  0  0  0
 13 15  1  6  0  0  0
 13 10  1  0  0  0  0
 14 28  1  6  0  0  0
 14 15  1  0  0  0  0
 17  9  1  0  0  0  0
 18 14  1  0  0  0  0
 19  3  2  0  0  0  0
 19  1  1  0  0  0  0
 20 25  1  0  0  0  0
 21 20  1  0  0  0  0
 22 23  1  0  0  0  0
 22 24  1  0  0  0  0
 23 21  1  0  0  0  0
 23 24  1  0  0  0  0
 24 25  1  0  0  0  0
 26 27  1  0  0  0  0
 26 22  1  0  0  0  0
 28 29  1  0  0  0  0
 30 28  2  0  0  0  0
M  END
>  <MODEL>
3

>  <REMARK>
 VINA RESULT:      -4.5      2.251      7.288
  Name = 
  3 active torsions:
  status: ('A' for Active; 'I' for Inactive)
    1  A    between atoms: C_1  and  N_17
    2  A    between atoms: O_5  and  C_8
    3  A    between atoms: C_6  and  CA_22
                            x       y       z     vdW  Elec       q    Type
                         _______ _______ _______ _____ _____    ______ ____

>  <TORSDO>
F 3

$$$$
=
 OpenBabel11072411133D

 30 34  0  0  1  0  0  0  0  0999 V2000
  160.9620  204.0610  148.2370 N   0  0  0  0  0  2  0  0  0  0  0  0
  162.5480  206.2560  149.3020 N   0  0  0  0  0  2  0  0  0  0  0  0
  160.8640  203.4570  150.4790 O   0  0  0  0  0  0  0  0  0  0  0  0
  161.0000  204.3190  145.9370 O   0  0  0  0  0  0  0  0  0  0  0  0
  160.2390  205.9150  152.2330 C   0  0  0  0  0  1  0  0  0  0  0  0
  162.4610  205.0950  152.1850 O   0  0  0  0  0  1  0  0  0  0  0  0
  161.4520  208.5140  151.2600 C   0  0  2  0  0  3  0  0  0  0  0  0
  161.2090  204.8590  147.0560 C   0  0  0  0  0  0  0  0  0  0  0  0
  161.6230  206.0490  151.6060 C   0  0  1  0  0  0  0  0  0  0  0  0
  161.7100  206.2630  147.0600 C   0  0  0  0  0  0  0  0  0  0  0  0
  161.9610  208.5500  152.6460 N   0  0  2  0  0  0  0  0  0  0  0  0
  161.4590  205.7410  150.0990 C   0  0  2  0  0  3  0  0  0  0  0  0
  161.8500  207.0500  148.3250 C   0  0  2  0  0  3  0  0  0  0  0  0
  161.7740  209.3310  148.9060 C   0  0  1  0  0  3  0  0  0  0  0  0
  162.5290  208.3280  148.1520 N   0  0  0  0  0  2  0  0  0  0  0  0
  161.9760  206.8190  145.9580 O   0  0  0  0  0  0  0  0  0  0  0  0
  162.3410  207.4440  151.7210 C   0  0  2  0  0  3  0  0  0  0  0  0
  162.2570  209.4380  150.3560 C   0  0  0  0  0  2  0  0  0  0  0  0
  161.0960  204.3640  149.6370 C   0  0  0  0  0  0  0  0  0  0  0  0
  160.8690  208.2460  153.5600 C   0  0  2  0  0  3  0  0  0  0  0  0
  159.9630  209.4500  153.7130 C   0  0  0  0  0  2  0  0  0  0  0  0
  160.5150  210.0080  156.0710 C   0  0  2  0  0  3  0  0  0  0  0  0
  159.4610  209.4320  155.1450 C   0  0  2  0  0  3  0  0  0  0  0  0
  160.3770  208.5040  155.9240 C   0  0  1  0  0  3  0  0  0  0  0  0
  161.4140  207.9820  154.9470 C   0  0  0  0  0  2  0  0  0  0  0  0
  159.9120  210.4110  157.2610 O   0  0  0  0  0  0  0  0  0  0  0  0
  159.1420  211.5190  156.9060 C   0  0  0  0  0  1  0  0  0  0  0  0
  161.8930  210.6580  148.2340 C   0  0  0  0  0  0  0  0  0  0  0  0
  160.7850  211.2080  147.6030 O   0  0  0  0  0  0  0  0  0  0  0  0
  162.9840  211.2850  148.2440 O   0  0  0  0  0  1  0  0  0  0  0  0
  1 19  1  0  0  0  0
  4  8  2  0  0  0  0
  7 18  1  6  0  0  0
  7 17  1  0  0  0  0
  7 11  1  0  0  0  0
  8 10  1  0  0  0  0
  8  1  1  0  0  0  0
  9 17  1  0  0  0  0
  9  6  1  0  0  0  0
  9  5  1  1  0  0  0
 11 20  1  1  0  0  0
 12  2  1  6  0  0  0
 12  9  1  0  0  0  0
 13 10  1  6  0  0  0
 13  2  1  0  0  0  0
 14 28  1  6  0  0  0
 14 18  1  0  0  0  0
 15 13  1  0  0  0  0
 15 14  1  0  0  0  0
 16 10  2  0  0  0  0
 17 11  1  0  0  0  0
 19 12  1  0  0  0  0
 19  3  2  0  0  0  0
 20 21  1  0  0  0  0
 20 25  1  0  0  0  0
 21 23  1  0  0  0  0
 22 26  1  0  0  0  0
 23 24  1  0  0  0  0
 23 22  1  0  0  0  0
 24 22  1  0  0  0  0
 25 24  1  0  0  0  0
 27 26  1  0  0  0  0
 28 30  1  0  0  0  0
 29 28  2  0  0  0  0
M  END
>  <MODEL>
4

>  <REMARK>
 VINA RESULT:      -4.5      1.301      1.557
  Name = 
  3 active torsions:
  status: ('A' for Active; 'I' for Inactive)
    1  A    between atoms: C_1  and  N_17
    2  A    between atoms: O_5  and  C_8
    3  A    between atoms: C_6  and  CA_22
                            x       y       z     vdW  Elec       q    Type
                         _______ _______ _______ _____ _____    ______ ____

>  <TORSDO>
F 3

$$$$
=
 OpenBabel11072411133D

 30 34  0  0  1  0  0  0  0  0999 V2000
  162.0490  206.9220  151.2060 N   0  0  0  0  0  2  0  0  0  0  0  0
  162.2350  209.7130  152.0090 N   0  0  0  0  0  2  0  0  0  0  0  0
  161.6770  206.6180  153.4800 O   0  0  0  0  0  0  0  0  0  0  0  0
  162.5320  206.8880  148.9430 O   0  0  0  0  0  0  0  0  0  0  0  0
  159.6570  208.6970  154.5310 C   0  0  0  0  0  1  0  0  0  0  0  0
  161.9550  209.0020  155.0230 O   0  0  0  0  0  1  0  0  0  0  0  0
  159.8410  211.4230  153.2240 C   0  0  2  0  0  3  0  0  0  0  0  0
  162.2110  207.5950  149.9360 C   0  0  0  0  0  0  0  0  0  0  0  0
  160.9580  209.3810  154.1220 C   0  0  1  0  0  0  0  0  0  0  0  0
  162.0470  209.0600  149.7140 C   0  0  0  0  0  0  0  0  0  0  0  0
  159.9310  211.8580  154.6320 N   0  0  2  0  0  0  0  0  0  0  0  0
  161.3130  208.8530  152.7120 C   0  0  2  0  0  3  0  0  0  0  0  0
  161.5260  209.9680  150.7820 C   0  0  2  0  0  3  0  0  0  0  0  0
  160.3450  212.0050  150.8320 C   0  0  1  0  0  3  0  0  0  0  0  0
  161.6130  211.3840  150.4480 N   0  0  0  0  0  2  0  0  0  0  0  0
  162.3090  209.5380  148.5750 O   0  0  0  0  0  0  0  0  0  0  0  0
  160.9600  210.9520  154.0450 C   0  0  2  0  0  3  0  0  0  0  0  0
  160.3660  212.4980  152.2830 C   0  0  0  0  0  2  0  0  0  0  0  0
  161.6970  207.4200  152.5100 C   0  0  0  0  0  0  0  0  0  0  0  0
  158.8890  211.1960  155.4020 C   0  0  2  0  0  3  0  0  0  0  0  0
  157.5520  211.3370  154.7040 C   0  0  0  0  0  2  0  0  0  0  0  0
  156.4630  212.8610  156.3380 C   0  0  2  0  0  3  0  0  0  0  0  0
  156.5050  211.4440  155.7970 C   0  0  2  0  0  3  0  0  0  0  0  0
  157.2380  211.7900  157.0810 C   0  0  1  0  0  3  0  0  0  0  0  0
  158.7130  211.8850  156.7370 C   0  0  0  0  0  2  0  0  0  0  0  0
  155.2430  213.0740  156.9770 O   0  0  0  0  0  0  0  0  0  0  0  0
  154.7660  211.7950  157.2610 C   0  0  0  0  0  1  0  0  0  0  0  0
  160.0440  213.1430  149.9150 C   0  0  0  0  0  0  0  0  0  0  0  0
  160.7710  213.2880  148.7410 O   0  0  0  0  0  0  0  0  0  0  0  0
  159.1320  213.9650  150.1930 O   0  0  0  0  0  1  0  0  0  0  0  0
  1 19  1  0  0  0  0
  4  8  2  0  0  0  0
  7 18  1  6  0  0  0
  7 17  1  0  0  0  0
  7 11  1  0  0  0  0
  8  1  1  0  0  0  0
  9  5  1  1  0  0  0
  9  6  1  0  0  0  0
 10  8  1  0  0  0  0
 11 20  1  1  0  0  0
 12  2  1  1  0  0  0
 12  9  1  0  0  0  0
 13 10  1  6  0  0  0
 13  2  1  0  0  0  0
 14 28  1  6  0  0  0
 14 18  1  0  0  0  0
 15 13  1  0  0  0  0
 15 14  1  0  0  0  0
 16 10  2  0  0  0  0
 17  9  1  0  0  0  0
 17 11  1  0  0  0  0
 19 12  1  0  0  0  0
 19  3  2  0  0  0  0
 20 25  1  0  0  0  0
 21 20  1  0  0  0  0
 21 23  1  0  0  0  0
 22 26  1  0  0  0  0
 22 24  1  0  0  0  0
 23 22  1  0  0  0  0
 23 24  1  0  0  0  0
 25 24  1  0  0  0  0
 26 27  1  0  0  0  0
 28 30  1  0  0  0  0
 29 28  2  0  0  0  0
M  END
>  <MODEL>
5

>  <REMARK>
 VINA RESULT:      -4.3      2.151      3.130
  Name = 
  3 active torsions:
  status: ('A' for Active; 'I' for Inactive)
    1  A    between atoms: C_1  and  N_17
    2  A    between atoms: O_5  and  C_8
    3  A    between atoms: C_6  and  CA_22
                            x       y       z     vdW  Elec       q    Type
                         _______ _______ _______ _____ _____    ______ ____

>  <TORSDO>
F 3

$$$$
=
 OpenBabel11072411133D

 30 34  0  0  1  0  0  0  0  0999 V2000
  159.7150  212.9200  152.3500 N   0  0  0  0  0  2  0  0  0  0  0  0
  161.5800  210.7180  152.7250 N   0  0  0  0  0  2  0  0  0  0  0  0
  160.6410  212.9280  150.2180 O   0  0  0  0  0  0  0  0  0  0  0  0
  158.7160  213.2530  154.4100 O   0  0  0  0  0  0  0  0  0  0  0  0
  160.8340  210.0570  149.1130 C   0  0  0  0  0  1  0  0  0  0  0  0
  162.8100  211.1030  149.8960 O   0  0  0  0  0  1  0  0  0  0  0  0
  161.4470  207.9350  151.1860 C   0  0  2  0  0  3  0  0  0  0  0  0
  159.3960  212.4760  153.6890 C   0  0  0  0  0  0  0  0  0  0  0  0
  161.7880  210.2380  150.2890 C   0  0  1  0  0  0  0  0  0  0  0  0
  159.8270  211.1800  154.2870 C   0  0  0  0  0  0  0  0  0  0  0  0
  162.5220  207.6090  150.2270 N   0  0  2  0  0  0  0  0  0  0  0  0
  160.9710  210.8930  151.4270 C   0  0  2  0  0  3  0  0  0  0  0  0
  160.5070  210.1220  153.4780 C   0  0  2  0  0  3  0  0  0  0  0  0
  160.6680  207.7740  153.5690 C   0  0  1  0  0  3  0  0  0  0  0  0
  161.0190  209.0110  154.2700 N   0  0  0  0  0  2  0  0  0  0  0  0
  159.5620  210.9500  155.5000 O   0  0  0  0  0  0  0  0  0  0  0  0
  162.4620  208.9470  150.8840 C   0  0  2  0  0  3  0  0  0  0  0  0
  161.7480  207.3610  152.5640 C   0  0  0  0  0  2  0  0  0  0  0  0
  160.4580  212.2930  151.2890 C   0  0  0  0  0  0  0  0  0  0  0  0
  161.9600  207.5520  148.8860 C   0  0  2  0  0  3  0  0  0  0  0  0
  160.8000  206.5780  148.8440 C   0  0  0  0  0  2  0  0  0  0  0  0
  161.8650  204.8240  147.4420 C   0  0  2  0  0  3  0  0  0  0  0  0
  160.8290  205.9320  147.4710 C   0  0  2  0  0  3  0  0  0  0  0  0
  162.2070  206.1940  146.8870 C   0  0  1  0  0  3  0  0  0  0  0  0
  162.9810  206.9920  147.9200 C   0  0  0  0  0  2  0  0  0  0  0  0
  161.5830  203.9580  146.3870 O   0  0  0  0  0  0  0  0  0  0  0  0
  161.6730  204.7530  145.2450 C   0  0  0  0  0  1  0  0  0  0  0  0
  160.4550  206.6790  154.5610 C   0  0  0  0  0  0  0  0  0  0  0  0
  159.8150  206.9560  155.7610 O   0  0  0  0  0  1  0  0  0  0  0  0
  160.8400  205.5060  154.3120 O   0  0  0  0  0  0  0  0  0  0  0  0
  1  8  1  0  0  0  0
  3 19  2  0  0  0  0
  6  9  1  0  0  0  0
  7 18  1  1  0  0  0
  8 10  1  0  0  0  0
  8  4  2  0  0  0  0
  9  5  1  6  0  0  0
  9 17  1  0  0  0  0
  9 12  1  0  0  0  0
 10 16  2  0  0  0  0
 11 20  1  6  0  0  0
 11 17  1  0  0  0  0
 11  7  1  0  0  0  0
 12 19  1  6  0  0  0
 12  2  1  0  0  0  0
 13  2  1  1  0  0  0
 13 15  1  0  0  0  0
 13 10  1  0  0  0  0
 14 15  1  0  0  0  0
 14 28  1  1  0  0  0
 17  7  1  0  0  0  0
 18 14  1  0  0  0  0
 19  1  1  0  0  0  0
 21 20  1  0  0  0  0
 22 23  1  0  0  0  0
 23 21  1  0  0  0  0
 24 22  1  0  0  0  0
 24 23  1  0  0  0  0
 24 25  1  0  0  0  0
 25 20  1  0  0  0  0
 26 22  1  0  0  0  0
 27 26  1  0  0  0  0
 28 29  1  0  0  0  0
 30 28  2  0  0  0  0
M  END
>  <MODEL>
6

>  <REMARK>
 VINA RESULT:      -3.8      1.829      7.967
  Name = 
  3 active torsions:
  status: ('A' for Active; 'I' for Inactive)
    1  A    between atoms: C_1  and  N_17
    2  A    between atoms: O_5  and  C_8
    3  A    between atoms: C_6  and  CA_22
                            x       y       z     vdW  Elec       q    Type
                         _______ _______ _______ _____ _____    ______ ____

>  <TORSDO>
F 3

$$$$
=
 OpenBabel11072411133D

 30 34  0  0  1  0  0  0  0  0999 V2000
  162.8460  206.5780  146.5940 N   0  0  0  0  0  2  0  0  0  0  0  0
  160.7710  205.6310  148.4020 N   0  0  0  0  0  2  0  0  0  0  0  0
  162.7060  208.4740  147.9310 O   0  0  0  0  0  0  0  0  0  0  0  0
  163.1100  204.9090  145.0130 O   0  0  0  0  0  0  0  0  0  0  0  0
  162.6390  207.6920  150.9120 C   0  0  0  0  0  1  0  0  0  0  0  0
  160.6190  208.3650  149.8730 O   0  0  0  0  0  1  0  0  0  0  0  0
  161.1650  205.1160  151.5180 C   0  0  2  0  0  3  0  0  0  0  0  0
  162.6480  205.2180  146.1440 C   0  0  0  0  0  0  0  0  0  0  0  0
  161.3620  207.2340  150.2150 C   0  0  1  0  0  0  0  0  0  0  0  0
  161.9230  204.1610  146.9040 C   0  0  0  0  0  0  0  0  0  0  0  0
  160.4560  205.9920  152.4710 N   0  0  2  0  0  0  0  0  0  0  0  0
  161.7990  206.4990  148.9260 C   0  0  2  0  0  3  0  0  0  0  0  0
  161.4650  204.3720  148.3120 C   0  0  2  0  0  3  0  0  0  0  0  0
  161.0680  202.9920  150.1790 C   0  0  1  0  0  3  0  0  0  0  0  0
  160.6140  203.3040  148.8230 N   0  0  0  0  0  2  0  0  0  0  0  0
  161.7360  203.0370  146.3600 O   0  0  0  0  0  0  0  0  0  0  0  0
  160.4110  206.2620  151.0050 C   0  0  2  0  0  3  0  0  0  0  0  0
  160.3620  203.8540  151.2300 C   0  0  0  0  0  2  0  0  0  0  0  0
  162.4540  207.2480  147.8070 C   0  0  0  0  0  0  0  0  0  0  0  0
  161.4330  206.7740  153.2140 C   0  0  2  0  0  3  0  0  0  0  0  0
  161.5810  206.2290  154.6200 C   0  0  0  0  0  2  0  0  0  0  0  0
  160.5470  208.1280  155.8440 C   0  0  2  0  0  3  0  0  0  0  0  0
  161.8490  207.4220  155.5180 C   0  0  2  0  0  3  0  0  0  0  0  0
  161.4420  208.6620  154.7420 C   0  0  1  0  0  3  0  0  0  0  0  0
  160.9360  208.1920  153.3910 C   0  0  0  0  0  2  0  0  0  0  0  0
  160.7160  208.9020  156.9910 O   0  0  0  0  0  0  0  0  0  0  0  0
  162.0730  209.2250  156.9990 C   0  0  0  0  0  1  0  0  0  0  0  0
  160.8300  201.5470  150.4680 C   0  0  0  0  0  0  0  0  0  0  0  0
  159.7780  200.8870  149.8460 O   0  0  0  0  0  0  0  0  0  0  0  0
  161.5810  200.9210  151.2610 O   0  0  0  0  0  1  0  0  0  0  0  0
  1 19  1  0  0  0  0
  2 12  1  0  0  0  0
  4  8  2  0  0  0  0
  6  9  1  0  0  0  0
  7 18  1  6  0  0  0
  7 11  1  0  0  0  0
  8  1  1  0  0  0  0
  8 10  1  0  0  0  0
  9  5  1  1  0  0  0
  9 17  1  0  0  0  0
 11 20  1  1  0  0  0
 12 19  1  6  0  0  0
 12  9  1  0  0  0  0
 13 10  1  6  0  0  0
 13  2  1  0  0  0  0
 13 15  1  0  0  0  0
 14 28  1  1  0  0  0
 14 18  1  0  0  0  0
 15 14  1  0  0  0  0
 16 10  2  0  0  0  0
 17  7  1  0  0  0  0
 17 11  1  0  0  0  0
 19  3  2  0  0  0  0
 20 25  1  0  0  0  0
 20 21  1  0  0  0  0
 21 23  1  0  0  0  0
 22 26  1  0  0  0  0
 23 22  1  0  0  0  0
 24 23  1  0  0  0  0
 24 22  1  0  0  0  0
 25 24  1  0  0  0  0
 26 27  1  0  0  0  0
 28 30  1  0  0  0  0
 29 28  2  0  0  0  0
M  END
>  <MODEL>
7

>  <REMARK>
 VINA RESULT:      -3.5      2.800      5.260
  Name = 
  3 active torsions:
  status: ('A' for Active; 'I' for Inactive)
    1  A    between atoms: C_1  and  N_17
    2  A    between atoms: O_5  and  C_8
    3  A    between atoms: C_6  and  CA_22
                            x       y       z     vdW  Elec       q    Type
                         _______ _______ _______ _____ _____    ______ ____

>  <TORSDO>
F 3

$$$$
=
 OpenBabel11072411133D

 30 34  0  0  1  0  0  0  0  0999 V2000
  156.6650  208.5050  137.1980 N   0  0  0  0  0  2  0  0  0  0  0  0
  157.1230  211.3670  137.4650 N   0  0  0  0  0  2  0  0  0  0  0  0
  158.9890  208.4510  137.2100 O   0  0  0  0  0  0  0  0  0  0  0  0
  154.3730  208.2520  137.0110 O   0  0  0  0  0  0  0  0  0  0  0  0
  160.1010  210.2550  139.4480 C   0  0  0  0  0  1  0  0  0  0  0  0
  160.2030  211.0330  137.2120 O   0  0  0  0  0  1  0  0  0  0  0  0
  158.4920  212.7670  139.9740 C   0  0  2  0  0  3  0  0  0  0  0  0
  155.3200  209.0170  137.3350 C   0  0  0  0  0  0  0  0  0  0  0  0
  159.4280  211.1000  138.3710 C   0  0  1  0  0  0  0  0  0  0  0  0
  154.9680  210.3850  137.8110 C   0  0  0  0  0  0  0  0  0  0  0  0
  159.8140  213.3990  139.7920 N   0  0  2  0  0  0  0  0  0  0  0  0
  158.0460  210.4580  138.1010 C   0  0  2  0  0  3  0  0  0  0  0  0
  155.9970  211.3210  138.3610 C   0  0  2  0  0  3  0  0  0  0  0  0
  156.0020  213.1000  139.9040 C   0  0  1  0  0  3  0  0  0  0  0  0
  155.5010  212.6710  138.5980 N   0  0  0  0  0  2  0  0  0  0  0  0
  153.7570  210.7430  137.7970 O   0  0  0  0  0  0  0  0  0  0  0  0
  159.1800  212.6200  138.6890 C   0  0  2  0  0  3  0  0  0  0  0  0
  157.3700  213.7820  139.7950 C   0  0  0  0  0  2  0  0  0  0  0  0
  157.9450  209.1030  137.4720 C   0  0  0  0  0  0  0  0  0  0  0  0
  160.8000  212.6700  140.5770 C   0  0  2  0  0  3  0  0  0  0  0  0
  160.3190  212.5100  142.0040 C   0  0  0  0  0  2  0  0  0  0  0  0
  161.9640  214.0170  143.1000 C   0  0  2  0  0  3  0  0  0  0  0  0
  161.5540  212.5730  142.8840 C   0  0  2  0  0  3  0  0  0  0  0  0
  162.6650  213.1810  142.0460 C   0  0  1  0  0  3  0  0  0  0  0  0
  162.0780  213.4740  140.6780 C   0  0  0  0  0  2  0  0  0  0  0  0
  162.7720  214.1020  144.2330 O   0  0  0  0  0  0  0  0  0  0  0  0
  161.9010  213.8920  145.3020 C   0  0  0  0  0  1  0  0  0  0  0  0
  155.0230  214.0310  140.5370 C   0  0  0  0  0  0  0  0  0  0  0  0
  153.9130  214.4530  139.8170 O   0  0  0  0  0  0  0  0  0  0  0  0
  155.1890  214.4260  141.7210 O   0  0  0  0  0  1  0  0  0  0  0  0
  1  8  1  0  0  0  0
  1 19  1  0  0  0  0
  3 19  2  0  0  0  0
  4  8  2  0  0  0  0
  6  9  1  0  0  0  0
  7 18  1  6  0  0  0
  8 10  1  0  0  0  0
  9 17  1  0  0  0  0
  9  5  1  1  0  0  0
 10 13  1  0  0  0  0
 11  7  1  0  0  0  0
 11 20  1  1  0  0  0
 12  2  1  6  0  0  0
 12  9  1  0  0  0  0
 13  2  1  6  0  0  0
 13 15  1  0  0  0  0
 14 28  1  6  0  0  0
 15 14  1  0  0  0  0
 16 10  2  0  0  0  0
 17 11  1  0  0  0  0
 17  7  1  0  0  0  0
 18 14  1  0  0  0  0
 19 12  1  0  0  0  0
 20 25  1  0  0  0  0
 20 21  1  0  0  0  0
 21 23  1  0  0  0  0
 22 26  1  0  0  0  0
 23 22  1  0  0  0  0
 24 23  1  0  0  0  0
 24 22  1  0  0  0  0
 25 24  1  0  0  0  0
 26 27  1  0  0  0  0
 28 30  1  0  0  0  0
 29 28  2  0  0  0  0
M  END
>  <MODEL>
8

>  <REMARK>
 VINA RESULT:      -3.5      9.980     13.273
  Name = 
  3 active torsions:
  status: ('A' for Active; 'I' for Inactive)
    1  A    between atoms: C_1  and  N_17
    2  A    between atoms: O_5  and  C_8
    3  A    between atoms: C_6  and  CA_22
                            x       y       z     vdW  Elec       q    Type
                         _______ _______ _______ _____ _____    ______ ____

>  <TORSDO>
F 3

$$$$
=
 OpenBabel11072411133D

 30 34  0  0  1  0  0  0  0  0999 V2000
  160.6430  212.0900  151.1900 N   0  0  0  0  0  2  0  0  0  0  0  0
  162.3080  209.7050  151.3030 N   0  0  0  0  0  2  0  0  0  0  0  0
  161.3570  212.1020  148.9780 O   0  0  0  0  0  0  0  0  0  0  0  0
  159.8830  212.4260  153.3500 O   0  0  0  0  0  0  0  0  0  0  0  0
  161.1570  209.2750  147.7630 C   0  0  0  0  0  1  0  0  0  0  0  0
  163.2940  210.0940  148.3810 O   0  0  0  0  0  1  0  0  0  0  0  0
  161.7520  207.0170  149.6920 C   0  0  2  0  0  3  0  0  0  0  0  0
  160.4110  211.6200  152.5380 C   0  0  0  0  0  0  0  0  0  0  0  0
  162.2330  209.3140  148.8440 C   0  0  1  0  0  0  0  0  0  0  0  0
  160.7660  210.2640  153.0470 C   0  0  0  0  0  0  0  0  0  0  0  0
  162.6920  206.6320  148.6210 N   0  0  2  0  0  0  0  0  0  0  0  0
  161.5980  209.9940  150.0790 C   0  0  2  0  0  3  0  0  0  0  0  0
  161.2580  209.1830  152.1380 C   0  0  2  0  0  3  0  0  0  0  0  0
  161.1930  206.8280  152.1340 C   0  0  1  0  0  3  0  0  0  0  0  0
  161.7300  207.9940  152.8380 N   0  0  0  0  0  2  0  0  0  0  0  0
  160.5970  210.0090  154.2710 O   0  0  0  0  0  0  0  0  0  0  0  0
  162.8290  207.9400  149.3250 C   0  0  2  0  0  3  0  0  0  0  0  0
  162.1250  206.3580  151.0130 C   0  0  0  0  0  2  0  0  0  0  0  0
  161.2160  211.4410  150.0400 C   0  0  0  0  0  0  0  0  0  0  0  0
  162.0020  206.6870  147.3410 C   0  0  2  0  0  3  0  0  0  0  0  0
  160.6820  205.9480  147.4250 C   0  0  0  0  0  2  0  0  0  0  0  0
  161.2580  204.0320  145.9510 C   0  0  2  0  0  3  0  0  0  0  0  0
  160.4560  205.3140  146.0650 C   0  0  2  0  0  3  0  0  0  0  0  0
  161.7950  205.3150  145.3470 C   0  0  1  0  0  3  0  0  0  0  0  0
  162.8020  205.9490  146.2890 C   0  0  0  0  0  2  0  0  0  0  0  0
  160.7170  203.2380  144.9410 O   0  0  0  0  0  0  0  0  0  0  0  0
  160.6440  201.9620  145.4990 C   0  0  0  0  0  1  0  0  0  0  0  0
  160.9670  205.7170  153.1040 C   0  0  0  0  0  0  0  0  0  0  0  0
  160.9440  204.4050  152.6510 O   0  0  0  0  0  0  0  0  0  0  0  0
  160.8090  205.9590  154.3300 O   0  0  0  0  0  1  0  0  0  0  0  0
  1  8  1  0  0  0  0
  3 19  2  0  0  0  0
  6  9  1  0  0  0  0
  7 18  1  1  0  0  0
  8 10  1  0  0  0  0
  8  4  2  0  0  0  0
  9  5  1  6  0  0  0
  9 17  1  0  0  0  0
  9 12  1  0  0  0  0
 10 16  2  0  0  0  0
 11 20  1  6  0  0  0
 11 17  1  0  0  0  0
 11  7  1  0  0  0  0
 12 19  1  6  0  0  0
 12  2  1  0  0  0  0
 13  2  1  1  0  0  0
 13 15  1  0  0  0  0
 13 10  1  0  0  0  0
 14 15  1  0  0  0  0
 14 28  1  1  0  0  0
 17  7  1  0  0  0  0
 18 14  1  0  0  0  0
 19  1  1  0  0  0  0
 20 21  1  0  0  0  0
 22 23  1  0  0  0  0
 23 21  1  0  0  0  0
 24 22  1  0  0  0  0
 24 23  1  0  0  0  0
 24 25  1  0  0  0  0
 25 20  1  0  0  0  0
 26 27  1  0  0  0  0
 26 22  1  0  0  0  0
 28 30  1  0  0  0  0
 29 28  2  0  0  0  0
M  END
>  <MODEL>
9

>  <REMARK>
 VINA RESULT:      -3.5      2.136      8.141
  Name = 
  3 active torsions:
  status: ('A' for Active; 'I' for Inactive)
    1  A    between atoms: C_1  and  N_17
    2  A    between atoms: O_5  and  C_8
    3  A    between atoms: C_6  and  CA_22
                            x       y       z     vdW  Elec       q    Type
                         _______ _______ _______ _____ _____    ______ ____

>  <TORSDO>
F 3

$$$$
