=
 OpenBabel11072413063D

 35 39  0  0  1  0  0  0  0  0999 V2000
  162.6430  208.9270  150.1790 O   0  0  0  0  0  0  0  0  0  0  0  0
  160.8280  207.2330  152.8060 N   0  0  0  0  0  0  0  0  0  0  0  0
  160.9160  208.3330  153.5740 C   0  0  0  0  0  0  0  0  0  0  0  0
  161.9540  208.3790  157.0750 O   0  0  0  0  0  0  0  0  0  0  0  0
  160.8500  209.7230  153.0020 C   0  0  1  0  0  3  0  0  0  0  0  0
  161.9780  207.8630  149.5380 C   0  0  2  0  0  3  0  0  0  0  0  0
  160.4440  210.8330  153.9500 C   0  0  0  0  0  0  0  0  0  0  0  0
  162.0970  209.9810  152.1840 C   0  0  2  0  0  3  0  0  0  0  0  0
  162.2440  210.2460  155.5920 C   0  0  1  0  0  3  0  0  0  0  0  0
  161.5660  206.7390  150.5260 C   0  0  1  0  0  3  0  0  0  0  0  0
  160.6030  207.2430  151.4460 O   0  0  0  0  0  0  0  0  0  0  0  0
  161.4890  206.5680  154.8300 C   0  0  0  0  0  3  0  0  0  0  0  0
  161.0870  211.0520  155.1080 C   0  0  0  0  0  3  0  0  0  0  0  0
  162.0610  211.0980  151.1590 C   0  0  0  0  0  2  0  0  0  0  0  0
  162.8300  210.8920  156.7560 N   0  0  0  0  0  1  0  0  0  0  0  0
  161.1630  206.1590  153.5420 C   0  0  0  0  0  3  0  0  0  0  0  0
  161.6410  209.6990  150.7660 C   0  0  1  0  0  3  0  0  0  0  0  0
  161.8320  208.8350  155.9050 C   0  0  0  0  0  0  0  0  0  0  0  0
  161.3630  207.9530  154.8280 C   0  0  0  0  0  0  0  0  0  0  0  0
  159.3040  211.7030  153.5690 C   0  0  0  0  0  0  0  0  0  0  0  0
  157.1250  213.3470  152.8680 C   0  0  0  0  0  0  0  0  0  0  0  0
  158.2680  213.3140  152.0640 C   0  0  0  0  0  3  0  0  0  0  0  0
  158.1520  211.7430  154.3700 C   0  0  0  0  0  3  0  0  0  0  0  0
  159.3490  212.4980  152.4110 C   0  0  0  0  0  3  0  0  0  0  0  0
  157.0680  212.5530  154.0200 C   0  0  0  0  0  3  0  0  0  0  0  0
  156.0570  214.1700  152.5110 O   0  0  0  0  0  0  0  0  0  0  0  0
  154.7920  213.7320  152.5790 O   0  0  0  0  0  0  0  0  0  0  0  0
  154.2410  214.4530  153.5340 O   0  0  0  0  0  1  0  0  0  0  0  0
  160.8250  205.3150  149.6570 P   0  0  1  0  0  0  0  0  0  0  0  0
  160.1470  204.1480  150.8720 C   0  0  0  0  0  1  0  0  0  0  0  0
  159.7150  205.7830  148.7420 O   0  0  0  0  0  0  0  0  0  0  0  0
  162.0530  204.4990  148.7070 N   0  0  0  0  0  2  0  0  0  0  0  0
  161.5090  204.2410  147.4940 O   0  0  0  0  0  1  0  0  0  0  0  0
  162.1940  207.5120  147.3220 O   0  0  0  0  0  1  0  0  0  0  0  0
  162.8460  207.3410  148.4960 N   0  0  0  0  0  2  0  0  0  0  0  0
  1 17  1  0  0  0  0
  2 16  1  0  0  0  0
  2  3  1  0  0  0  0
  3 19  2  0  0  0  0
  5  3  1  1  0  0  0
  5  7  1  0  0  0  0
  6 35  1  6  0  0  0
  6  1  1  0  0  0  0
  6 10  1  0  0  0  0
  7 13  2  0  0  0  0
  8 14  1  6  0  0  0
  8  5  1  0  0  0  0
  9 18  1  0  0  0  0
  9 15  1  1  0  0  0
 10 29  1  6  0  0  0
 10 11  1  0  0  0  0
 11  2  1  0  0  0  0
 13  9  1  0  0  0  0
 16 12  2  0  0  0  0
 17 14  1  6  0  0  0
 17  8  1  0  0  0  0
 18  4  2  0  0  0  0
 19 12  1  0  0  0  0
 19 18  1  0  0  0  0
 20  7  1  0  0  0  0
 20 23  1  0  0  0  0
 21 25  1  0  0  0  0
 22 24  1  0  0  0  0
 22 21  2  0  0  0  0
 24 20  2  0  0  0  0
 25 23  2  0  0  0  0
 26 27  1  0  0  0  0
 26 21  1  0  0  0  0
 27 28  1  0  0  0  0
 29 30  1  1  0  0  0
 31 29  2  0  0  0  0
 32 29  1  0  0  0  0
 33 32  1  0  0  0  0
 34 35  1  0  0  0  0
M  END
>  <MODEL>
1

>  <REMARK>
 VINA RESULT:      -5.5      0.000      0.000
  Name = 
  6 active torsions:
  status: ('A' for Active; 'I' for Inactive)
    1  A    between atoms: N_1  and  P_5
    2  A    between atoms: P_5  and  C_21
    3  A    between atoms: O_7  and  O_25
    4  A    between atoms: C_11  and  N_18
    5  A    between atoms: C_12  and  C_13
    6  A    between atoms: C_15  and  O_25
                            x       y       z     vdW  Elec       q    Type
                         _______ _______ _______ _____ _____    ______ ____

>  <TORSDO>
F 6

$$$$
=
 OpenBabel11072413063D

 35 39  0  0  1  0  0  0  0  0999 V2000
  161.1960  211.5160  155.3810 O   0  0  0  0  0  0  0  0  0  0  0  0
  158.8110  211.9080  152.6920 N   0  0  0  0  0  0  0  0  0  0  0  0
  159.7180  211.4320  151.8210 C   0  0  0  0  0  0  0  0  0  0  0  0
  160.5550  212.9560  148.6100 O   0  0  0  0  0  0  0  0  0  0  0  0
  160.6940  210.3470  152.1870 C   0  0  1  0  0  3  0  0  0  0  0  0
  159.9380  211.5800  156.0120 C   0  0  2  0  0  3  0  0  0  0  0  0
  161.2870  209.5490  151.0440 C   0  0  0  0  0  0  0  0  0  0  0  0
  161.6870  210.8940  153.1900 C   0  0  2  0  0  3  0  0  0  0  0  0
  162.0950  211.6100  149.8690 C   0  0  1  0  0  3  0  0  0  0  0  0
  158.8570  212.2410  155.1160 C   0  0  1  0  0  3  0  0  0  0  0  0
  158.6250  211.4270  153.9710 O   0  0  0  0  0  0  0  0  0  0  0  0
  158.8180  213.2830  150.9360 C   0  0  0  0  0  3  0  0  0  0  0  0
  161.9150  210.1360  150.0130 C   0  0  0  0  0  3  0  0  0  0  0  0
  162.4660  209.9060  154.0370 C   0  0  0  0  0  2  0  0  0  0  0  0
  163.0050  211.8800  148.7670 N   0  0  0  0  0  1  0  0  0  0  0  0
  158.2540  213.0190  152.1790 C   0  0  0  0  0  3  0  0  0  0  0  0
  161.1290  210.4230  154.5180 C   0  0  1  0  0  3  0  0  0  0  0  0
  160.7760  212.3020  149.6660 C   0  0  0  0  0  0  0  0  0  0  0  0
  159.7710  212.2910  150.7370 C   0  0  0  0  0  0  0  0  0  0  0  0
  161.1700  208.0700  151.0830 C   0  0  0  0  0  0  0  0  0  0  0  0
  160.9450  205.2610  151.1290 C   0  0  0  0  0  0  0  0  0  0  0  0
  161.0660  205.9760  152.3230 C   0  0  0  0  0  3  0  0  0  0  0  0
  161.0490  207.3430  149.8880 C   0  0  0  0  0  3  0  0  0  0  0  0
  161.1760  207.3700  152.3020 C   0  0  0  0  0  3  0  0  0  0  0  0
  160.9320  205.9510  149.9100 C   0  0  0  0  0  3  0  0  0  0  0  0
  160.8410  203.8710  151.1670 O   0  0  0  0  0  0  0  0  0  0  0  0
  160.7740  203.1500  150.0400 O   0  0  0  0  0  0  0  0  0  0  0  0
  160.7330  201.8980  150.4470 O   0  0  0  0  0  1  0  0  0  0  0  0
  157.2710  212.4330  156.0010 P   0  0  1  0  0  0  0  0  0  0  0  0
  155.8980  212.0470  154.8780 C   0  0  0  0  0  1  0  0  0  0  0  0
  157.2210  211.4970  157.1900 O   0  0  0  0  0  0  0  0  0  0  0  0
  157.1040  214.0870  156.5600 N   0  0  0  0  0  2  0  0  0  0  0  0
  155.7770  214.3590  156.5990 O   0  0  0  0  0  1  0  0  0  0  0  0
  160.6200  213.5150  156.9470 O   0  0  0  0  0  1  0  0  0  0  0  0
  160.0890  212.3090  157.2610 N   0  0  0  0  0  2  0  0  0  0  0  0
  1  6  1  0  0  0  0
  2 11  1  0  0  0  0
  3  5  1  0  0  0  0
  3  2  1  0  0  0  0
  4 18  2  0  0  0  0
  5  7  1  6  0  0  0
  5  8  1  0  0  0  0
  6 35  1  1  0  0  0
  7 20  1  0  0  0  0
  8 14  1  6  0  0  0
  8 17  1  0  0  0  0
  9 15  1  6  0  0  0
  9 13  1  0  0  0  0
 10 29  1  1  0  0  0
 10  6  1  0  0  0  0
 11 10  1  0  0  0  0
 12 16  2  0  0  0  0
 13  7  2  0  0  0  0
 16  2  1  0  0  0  0
 17 14  1  1  0  0  0
 17  1  1  0  0  0  0
 18  9  1  0  0  0  0
 18 19  1  0  0  0  0
 19 12  1  0  0  0  0
 19  3  2  0  0  0  0
 20 24  1  0  0  0  0
 21 26  1  0  0  0  0
 21 22  1  0  0  0  0
 23 25  1  0  0  0  0
 23 20  2  0  0  0  0
 24 22  2  0  0  0  0
 25 21  2  0  0  0  0
 27 28  1  0  0  0  0
 27 26  1  0  0  0  0
 29 30  1  6  0  0  0
 29 32  1  0  0  0  0
 29 31  2  0  0  0  0
 32 33  1  0  0  0  0
 34 35  1  0  0  0  0
M  END
>  <MODEL>
2

>  <REMARK>
 VINA RESULT:      -4.8      3.382      8.382
  Name = 
  6 active torsions:
  status: ('A' for Active; 'I' for Inactive)
    1  A    between atoms: N_1  and  P_5
    2  A    between atoms: P_5  and  C_21
    3  A    between atoms: O_7  and  O_25
    4  A    between atoms: C_11  and  N_18
    5  A    between atoms: C_12  and  C_13
    6  A    between atoms: C_15  and  O_25
                            x       y       z     vdW  Elec       q    Type
                         _______ _______ _______ _____ _____    ______ ____

>  <TORSDO>
F 6

$$$$
=
 OpenBabel11072413063D

 35 39  0  0  1  0  0  0  0  0999 V2000
  161.0850  211.5380  154.4260 O   0  0  0  0  0  0  0  0  0  0  0  0
  159.1090  212.2500  151.4830 N   0  0  0  0  0  0  0  0  0  0  0  0
  160.1220  211.8320  150.7040 C   0  0  0  0  0  0  0  0  0  0  0  0
  161.4270  213.6270  147.8030 O   0  0  0  0  0  0  0  0  0  0  0  0
  161.0210  210.6910  151.0950 C   0  0  1  0  0  3  0  0  0  0  0  0
  159.7510  211.5790  154.8790 C   0  0  2  0  0  3  0  0  0  0  0  0
  161.7560  209.9860  149.9730 C   0  0  0  0  0  0  0  0  0  0  0  0
  161.8710  211.1120  152.2740 C   0  0  2  0  0  3  0  0  0  0  0  0
  162.7530  212.1250  149.1270 C   0  0  1  0  0  3  0  0  0  0  0  0
  158.8180  212.3520  153.9100 C   0  0  1  0  0  3  0  0  0  0  0  0
  158.7370  211.6560  152.6700 O   0  0  0  0  0  0  0  0  0  0  0  0
  159.3850  213.7840  149.8870 C   0  0  0  0  0  3  0  0  0  0  0  0
  162.5330  210.6500  149.1010 C   0  0  0  0  0  3  0  0  0  0  0  0
  162.5070  210.0260  153.1210 C   0  0  0  0  0  2  0  0  0  0  0  0
  163.8140  212.4710  148.1940 N   0  0  0  0  0  1  0  0  0  0  0  0
  158.6470  213.4200  151.0080 C   0  0  0  0  0  3  0  0  0  0  0  0
  161.1230  210.5340  153.4590 C   0  0  1  0  0  3  0  0  0  0  0  0
  161.4870  212.8710  148.8120 C   0  0  0  0  0  0  0  0  0  0  0  0
  160.3410  212.7870  149.7260 C   0  0  0  0  0  0  0  0  0  0  0  0
  161.6130  208.5150  149.8510 C   0  0  0  0  0  0  0  0  0  0  0  0
  161.3440  205.7170  149.6460 C   0  0  0  0  0  0  0  0  0  0  0  0
  161.3140  206.5110  148.4970 C   0  0  0  0  0  3  0  0  0  0  0  0
  161.6420  207.7080  150.9990 C   0  0  0  0  0  3  0  0  0  0  0  0
  161.4490  207.9000  148.5970 C   0  0  0  0  0  3  0  0  0  0  0  0
  161.5150  206.3200  150.8980 C   0  0  0  0  0  3  0  0  0  0  0  0
  161.2030  204.3340  149.5290 O   0  0  0  0  0  0  0  0  0  0  0  0
  160.8410  203.7710  148.3680 O   0  0  0  0  0  0  0  0  0  0  0  0
  161.9780  203.5210  147.7500 O   0  0  0  0  0  1  0  0  0  0  0  0
  157.1260  212.5050  154.5810 P   0  0  1  0  0  0  0  0  0  0  0  0
  157.1470  213.5890  156.0380 C   0  0  0  0  0  1  0  0  0  0  0  0
  156.2020  213.0910  153.5360 O   0  0  0  0  0  0  0  0  0  0  0  0
  156.5340  210.9240  155.0560 N   0  0  0  0  0  2  0  0  0  0  0  0
  155.2190  210.8800  154.7350 O   0  0  0  0  0  1  0  0  0  0  0  0
  160.4320  213.3400  156.1100 O   0  0  0  0  0  1  0  0  0  0  0  0
  159.7360  212.1820  156.2010 N   0  0  0  0  0  2  0  0  0  0  0  0
  1  6  1  0  0  0  0
  2 11  1  0  0  0  0
  3  5  1  0  0  0  0
  3  2  1  0  0  0  0
  4 18  2  0  0  0  0
  5  7  1  6  0  0  0
  5  8  1  0  0  0  0
  6 35  1  1  0  0  0
  8 14  1  6  0  0  0
  8 17  1  0  0  0  0
  9 15  1  6  0  0  0
 10 29  1  1  0  0  0
 10  6  1  0  0  0  0
 11 10  1  0  0  0  0
 12 16  2  0  0  0  0
 13  9  1  0  0  0  0
 13  7  2  0  0  0  0
 16  2  1  0  0  0  0
 17 14  1  1  0  0  0
 17  1  1  0  0  0  0
 18  9  1  0  0  0  0
 18 19  1  0  0  0  0
 19 12  1  0  0  0  0
 19  3  2  0  0  0  0
 20  7  1  0  0  0  0
 20 23  1  0  0  0  0
 21 25  1  0  0  0  0
 22 24  1  0  0  0  0
 22 21  2  0  0  0  0
 24 20  2  0  0  0  0
 25 23  2  0  0  0  0
 26 21  1  0  0  0  0
 27 26  1  0  0  0  0
 28 27  1  0  0  0  0
 29 32  1  0  0  0  0
 29 30  1  1  0  0  0
 31 29  2  0  0  0  0
 33 32  1  0  0  0  0
 34 35  1  0  0  0  0
M  END
>  <MODEL>
3

>  <REMARK>
 VINA RESULT:      -3.3      3.340      8.220
  Name = 
  6 active torsions:
  status: ('A' for Active; 'I' for Inactive)
    1  A    between atoms: N_1  and  P_5
    2  A    between atoms: P_5  and  C_21
    3  A    between atoms: O_7  and  O_25
    4  A    between atoms: C_11  and  N_18
    5  A    between atoms: C_12  and  C_13
    6  A    between atoms: C_15  and  O_25
                            x       y       z     vdW  Elec       q    Type
                         _______ _______ _______ _____ _____    ______ ____

>  <TORSDO>
F 6

$$$$
=
 OpenBabel11072413063D

 35 39  0  0  1  0  0  0  0  0999 V2000
  162.3830  213.9590  143.2700 O   0  0  0  0  0  0  0  0  0  0  0  0
  158.9090  213.1570  142.6660 N   0  0  0  0  0  0  0  0  0  0  0  0
  159.1750  213.0020  141.3570 C   0  0  0  0  0  0  0  0  0  0  0  0
  157.2310  214.4530  138.6270 O   0  0  0  0  0  0  0  0  0  0  0  0
  160.4720  212.4210  140.8610 C   0  0  1  0  0  3  0  0  0  0  0  0
  161.8690  213.5790  144.5260 C   0  0  2  0  0  3  0  0  0  0  0  0
  160.4640  211.8250  139.4680 C   0  0  0  0  0  0  0  0  0  0  0  0
  161.5920  213.3960  141.1510 C   0  0  2  0  0  3  0  0  0  0  0  0
  159.5680  213.9300  138.4450 C   0  0  1  0  0  3  0  0  0  0  0  0
  160.3230  213.6850  144.5920 C   0  0  1  0  0  3  0  0  0  0  0  0
  159.7420  212.7520  143.6870 O   0  0  0  0  0  0  0  0  0  0  0  0
  157.3380  214.2710  141.5410 C   0  0  0  0  0  3  0  0  0  0  0  0
  160.0570  212.5210  138.3950 C   0  0  0  0  0  3  0  0  0  0  0  0
  163.0140  212.8670  141.1670 C   0  0  0  0  0  2  0  0  0  0  0  0
  159.4270  214.4390  137.0900 N   0  0  0  0  0  1  0  0  0  0  0  0
  157.8060  213.9140  142.8000 C   0  0  0  0  0  3  0  0  0  0  0  0
  162.1910  212.8580  142.4360 C   0  0  1  0  0  3  0  0  0  0  0  0
  158.2730  214.0310  139.2000 C   0  0  0  0  0  0  0  0  0  0  0  0
  158.2350  213.7170  140.6350 C   0  0  0  0  0  0  0  0  0  0  0  0
  160.9330  210.4270  139.2980 C   0  0  0  0  0  0  0  0  0  0  0  0
  161.8120  207.7720  138.9490 C   0  0  0  0  0  0  0  0  0  0  0  0
  162.0530  208.4400  140.1530 C   0  0  0  0  0  3  0  0  0  0  0  0
  160.6960  209.7480  138.0930 C   0  0  0  0  0  3  0  0  0  0  0  0
  161.6160  209.7570  140.3280 C   0  0  0  0  0  3  0  0  0  0  0  0
  161.1260  208.4300  137.9210 C   0  0  0  0  0  3  0  0  0  0  0  0
  162.2580  206.4610  138.7900 O   0  0  0  0  0  0  0  0  0  0  0  0
  163.0230  205.8720  139.7200 O   0  0  0  0  0  0  0  0  0  0  0  0
  162.2550  205.8020  140.7880 O   0  0  0  0  0  1  0  0  0  0  0  0
  159.6920  213.3160  146.2650 P   0  0  1  0  0  0  0  0  0  0  0  0
  160.4000  211.7490  146.8490 C   0  0  0  0  0  1  0  0  0  0  0  0
  160.0740  214.4240  147.2230 O   0  0  0  0  0  0  0  0  0  0  0  0
  157.9450  213.1690  146.2180 N   0  0  0  0  0  2  0  0  0  0  0  0
  157.4480  214.0630  147.1060 O   0  0  0  0  0  1  0  0  0  0  0  0
  163.1640  213.5810  146.3710 O   0  0  0  0  0  1  0  0  0  0  0  0
  162.4880  214.4120  145.5440 N   0  0  0  0  0  2  0  0  0  0  0  0
  1  6  1  0  0  0  0
  2 16  1  0  0  0  0
  2 11  1  0  0  0  0
  3  2  1  0  0  0  0
  4 18  2  0  0  0  0
  5  7  1  6  0  0  0
  5  8  1  0  0  0  0
  5  3  1  0  0  0  0
  6 10  1  0  0  0  0
  6 35  1  1  0  0  0
  8 14  1  6  0  0  0
  8 17  1  0  0  0  0
  9 15  1  6  0  0  0
  9 18  1  0  0  0  0
 10 29  1  1  0  0  0
 11 10  1  0  0  0  0
 12 16  2  0  0  0  0
 13  9  1  0  0  0  0
 13  7  2  0  0  0  0
 17 14  1  6  0  0  0
 17  1  1  0  0  0  0
 18 19  1  0  0  0  0
 19  3  2  0  0  0  0
 19 12  1  0  0  0  0
 20  7  1  0  0  0  0
 20 24  1  0  0  0  0
 21 22  1  0  0  0  0
 22 24  2  0  0  0  0
 23 20  2  0  0  0  0
 25 23  1  0  0  0  0
 25 21  2  0  0  0  0
 26 21  1  0  0  0  0
 26 27  1  0  0  0  0
 27 28  1  0  0  0  0
 29 30  1  1  0  0  0
 29 31  2  0  0  0  0
 32 29  1  0  0  0  0
 32 33  1  0  0  0  0
 35 34  1  0  0  0  0
M  END
>  <MODEL>
4

>  <REMARK>
 VINA RESULT:      -3.3      9.577     13.625
  Name = 
  6 active torsions:
  status: ('A' for Active; 'I' for Inactive)
    1  A    between atoms: N_1  and  P_5
    2  A    between atoms: P_5  and  C_21
    3  A    between atoms: O_7  and  O_25
    4  A    between atoms: C_11  and  N_18
    5  A    between atoms: C_12  and  C_13
    6  A    between atoms: C_15  and  O_25
                            x       y       z     vdW  Elec       q    Type
                         _______ _______ _______ _____ _____    ______ ____

>  <TORSDO>
F 6

$$$$
