=
 OpenBabel11072411503D

 32 39  0  0  1  0  0  0  0  0999 V2000
  157.8390  213.2030  152.2770 C   0  0  0  0  0  0  0  0  0  0  0  0
  161.5260  209.0040  155.6320 N   0  0  1  0  0  0  0  0  0  0  0  0
  160.6610  209.1630  153.3480 C   0  0  2  0  0  3  0  0  0  0  0  0
  157.9960  213.8350  146.5800 N   0  0  0  0  0  0  0  0  0  0  0  0
  160.6730  209.4080  156.6510 O   0  0  0  0  0  0  0  0  0  0  0  0
  156.6990  214.0650  146.7630 N   0  0  0  0  0  0  0  0  0  0  0  0
  160.2540  210.9430  154.9840 C   0  0  1  0  0  0  0  0  0  0  0  0
  159.3300  213.1950  151.9450 C   0  0  2  0  0  3  0  0  0  0  0  0
  160.9630  207.7720  153.7080 C   0  0  0  0  0  0  0  0  0  0  0  0
  155.2060  214.4530  148.6650 N   0  0  0  0  0  1  0  0  0  0  0  0
  157.8260  212.1050  154.5530 C   0  0  0  0  0  0  0  0  0  0  0  0
  157.3160  212.1800  155.7010 O   0  0  0  0  0  0  0  0  0  0  0  0
  161.2090  207.6490  155.1710 C   0  0  0  0  0  2  0  0  0  0  0  0
  160.8940  206.8260  152.9400 O   0  0  0  0  0  0  0  0  0  0  0  0
  156.4640  214.1170  148.0900 C   0  0  0  0  0  0  0  0  0  0  0  0
  157.2160  212.8350  153.4170 C   0  0  0  0  0  3  0  0  0  0  0  0
  158.9220  211.1370  154.2540 C   0  0  1  0  0  3  0  0  0  0  0  0
  158.0260  214.1000  150.1900 C   0  0  2  0  0  3  0  0  0  0  0  0
  157.6280  213.8880  148.7750 C   0  0  0  0  0  0  0  0  0  0  0  0
  159.2430  213.2340  150.4330 C   0  0  1  0  0  3  0  0  0  0  0  0
  160.0490  210.6190  156.3940 C   0  0  0  0  0  0  0  0  0  0  0  0
  160.1160  212.0410  152.5170 C   0  0  0  0  0  0  0  0  0  0  0  0
  162.6960  209.9550  152.0060 C   0  0  0  0  0  1  0  0  0  0  0  0
  161.1810  209.7950  152.0590 C   0  0  2  0  0  3  0  0  0  0  0  0
  160.4080  213.7310  149.5770 C   0  0  0  0  0  2  0  0  0  0  0  0
  157.1170  213.6960  151.1940 O   0  0  0  0  0  0  0  0  0  0  0  0
  159.4420  211.3050  157.2560 O   0  0  0  0  0  0  0  0  0  0  0  0
  160.0540  213.5370  148.0730 C   0  0  0  0  0  2  0  0  0  0  0  0
  161.2310  209.9160  154.5080 C   0  0  1  0  0  3  0  0  0  0  0  0
  160.0820  212.0960  154.0330 C   0  0  2  0  0  3  0  0  0  0  0  0
  158.5790  213.7530  147.7920 C   0  0  1  0  0  3  0  0  0  0  0  0
  160.5110  211.0580  151.7430 N   0  0  0  0  0  0  0  0  0  0  0  0
  1 16  2  0  0  0  0
  2 13  1  6  0  0  0
  2  5  1  0  0  0  0
  3  9  1  1  0  0  0
  3 29  1  0  0  0  0
  4  6  2  0  0  0  0
  4 31  1  0  0  0  0
  6 15  1  0  0  0  0
  7 21  1  1  0  0  0
  8  1  1  1  0  0  0
  8 22  1  0  0  0  0
  9 13  1  0  0  0  0
 11 12  2  0  0  0  0
 14  9  2  0  0  0  0
 15 10  1  0  0  0  0
 15 19  2  0  0  0  0
 16 11  1  0  0  0  0
 17 11  1  1  0  0  0
 17  7  1  0  0  0  0
 18 19  1  6  0  0  0
 18 20  1  0  0  0  0
 18 26  1  0  0  0  0
 20 25  1  6  0  0  0
 20  8  1  0  0  0  0
 21  5  1  0  0  0  0
 21 27  2  0  0  0  0
 22 30  1  0  0  0  0
 24 23  1  1  0  0  0
 24  3  1  0  0  0  0
 26  1  1  0  0  0  0
 28 25  1  0  0  0  0
 29  7  1  0  0  0  0
 29  2  1  0  0  0  0
 30 17  1  0  0  0  0
 30  7  1  0  0  0  0
 31 28  1  0  0  0  0
 31 19  1  0  0  0  0
 32 24  1  0  0  0  0
 32 22  2  0  0  0  0
M  END
>  <MODEL>
1

>  <REMARK>
 VINA RESULT:      -6.7      0.000      0.000
  Name = 
  0 active torsions:
  status: ('A' for Active; 'I' for Inactive)
                            x       y       z     vdW  Elec       q    Type
                         _______ _______ _______ _____ _____    ______ ____

>  <TORSDO>
F 0

$$$$
=
 OpenBabel11072411503D

 32 39  0  0  1  0  0  0  0  0999 V2000
  158.1480  213.4370  150.8310 C   0  0  0  0  0  0  0  0  0  0  0  0
  160.3980  210.5320  156.2140 N   0  0  1  0  0  0  0  0  0  0  0  0
  160.2020  209.9540  153.8440 C   0  0  2  0  0  3  0  0  0  0  0  0
  159.8980  212.2220  145.5070 N   0  0  0  0  0  0  0  0  0  0  0  0
  159.3410  211.2380  156.7730 O   0  0  0  0  0  0  0  0  0  0  0  0
  158.6260  212.4970  145.2340 N   0  0  0  0  0  0  0  0  0  0  0  0
  159.5270  212.1620  154.6690 C   0  0  1  0  0  0  0  0  0  0  0  0
  159.6650  213.3270  150.9570 C   0  0  2  0  0  3  0  0  0  0  0  0
  160.2700  208.7500  154.6820 C   0  0  0  0  0  0  0  0  0  0  0  0
  156.7140  213.4670  146.4170 N   0  0  0  0  0  1  0  0  0  0  0  0
  157.4210  213.1210  153.2310 C   0  0  0  0  0  0  0  0  0  0  0  0
  156.6280  213.5570  154.1050 O   0  0  0  0  0  0  0  0  0  0  0  0
  160.0990  209.1000  156.1190 C   0  0  0  0  0  2  0  0  0  0  0  0
  160.3280  207.6090  154.2540 O   0  0  0  0  0  0  0  0  0  0  0  0
  158.0450  212.9680  146.3560 C   0  0  0  0  0  0  0  0  0  0  0  0
  157.2080  213.4510  151.8010 C   0  0  0  0  0  3  0  0  0  0  0  0
  158.4660  212.1100  153.5670 C   0  0  1  0  0  3  0  0  0  0  0  0
  158.9720  213.6240  148.7140 C   0  0  2  0  0  3  0  0  0  0  0  0
  158.9550  212.9710  147.3810 C   0  0  0  0  0  0  0  0  0  0  0  0
  159.9950  212.8820  149.5470 C   0  0  1  0  0  3  0  0  0  0  0  0
  158.9200  212.3030  155.9910 C   0  0  0  0  0  0  0  0  0  0  0  0
  160.1610  212.4170  152.0540 C   0  0  0  0  0  0  0  0  0  0  0  0
  162.5870  210.2810  152.9630 C   0  0  0  0  0  1  0  0  0  0  0  0
  161.1060  210.1430  152.6280 C   0  0  2  0  0  3  0  0  0  0  0  0
  161.3890  213.0830  148.9500 C   0  0  0  0  0  2  0  0  0  0  0  0
  157.7930  213.5580  149.4910 O   0  0  0  0  0  0  0  0  0  0  0  0
  158.1660  213.2270  156.3920 O   0  0  0  0  0  0  0  0  0  0  0  0
  161.4390  212.4190  147.5420 C   0  0  0  0  0  2  0  0  0  0  0  0
  160.5010  211.0380  154.8300 C   0  0  1  0  0  3  0  0  0  0  0  0
  159.7230  212.9510  153.4040 C   0  0  2  0  0  3  0  0  0  0  0  0
  160.1210  212.5320  146.8000 C   0  0  1  0  0  3  0  0  0  0  0  0
  160.6620  211.2390  151.7640 N   0  0  0  0  0  0  0  0  0  0  0  0
  1 16  2  0  0  0  0
  2 13  1  6  0  0  0
  2  5  1  0  0  0  0
  3  9  1  1  0  0  0
  3 29  1  0  0  0  0
  4 31  1  0  0  0  0
  6  4  2  0  0  0  0
  6 15  1  0  0  0  0
  7 29  1  0  0  0  0
  7 21  1  1  0  0  0
  8  1  1  6  0  0  0
  8 22  1  0  0  0  0
  9 13  1  0  0  0  0
 11 12  2  0  0  0  0
 14  9  2  0  0  0  0
 15 10  1  0  0  0  0
 15 19  2  0  0  0  0
 16 11  1  0  0  0  0
 17 11  1  1  0  0  0
 17  7  1  0  0  0  0
 18 19  1  6  0  0  0
 18 26  1  0  0  0  0
 18 20  1  0  0  0  0
 20 25  1  6  0  0  0
 20  8  1  0  0  0  0
 21 27  2  0  0  0  0
 21  5  1  0  0  0  0
 22 30  1  0  0  0  0
 24 23  1  1  0  0  0
 24  3  1  0  0  0  0
 26  1  1  0  0  0  0
 28 25  1  0  0  0  0
 29  2  1  0  0  0  0
 30 17  1  0  0  0  0
 30  7  1  0  0  0  0
 31 19  1  0  0  0  0
 31 28  1  0  0  0  0
 32 22  2  0  0  0  0
 32 24  1  0  0  0  0
M  END
>  <MODEL>
2

>  <REMARK>
 VINA RESULT:      -5.6      1.362      1.825
  Name = 
  0 active torsions:
  status: ('A' for Active; 'I' for Inactive)
                            x       y       z     vdW  Elec       q    Type
                         _______ _______ _______ _____ _____    ______ ____

>  <TORSDO>
F 0

$$$$
=
 OpenBabel11072411503D

 32 39  0  0  1  0  0  0  0  0999 V2000
  160.8880  204.4580  151.6110 C   0  0  0  0  0  0  0  0  0  0  0  0
  161.1670  202.9950  145.2660 N   0  0  1  0  0  0  0  0  0  0  0  0
  160.4170  204.8970  146.6100 C   0  0  2  0  0  3  0  0  0  0  0  0
  160.8950  209.7890  153.7220 N   0  0  0  0  0  0  0  0  0  0  0  0
  160.8940  201.7300  145.7700 O   0  0  0  0  0  0  0  0  0  0  0  0
  160.0990  209.2250  154.6260 N   0  0  0  0  0  2  0  0  0  0  0  0
  161.4430  202.9330  147.6580 C   0  0  1  0  0  0  0  0  0  0  0  0
  161.9620  205.1760  150.7970 C   0  0  2  0  0  3  0  0  0  0  0  0
  159.7550  204.8770  145.2990 C   0  0  0  0  0  0  0  0  0  0  0  0
  159.4200  206.9530  155.2390 N   0  0  0  0  0  1  0  0  0  0  0  0
  160.3640  202.4860  150.1200 C   0  0  0  0  0  0  0  0  0  0  0  0
  160.1400  201.2480  150.1350 O   0  0  0  0  0  0  0  0  0  0  0  0
  159.9920  203.5780  144.6110 C   0  0  0  0  0  2  0  0  0  0  0  0
  159.0070  205.7480  144.8860 O   0  0  0  0  0  0  0  0  0  0  0  0
  160.0810  207.8960  154.4010 C   0  0  0  0  0  0  0  0  0  0  0  0
  160.2870  203.2720  151.3740 C   0  0  0  0  0  3  0  0  0  0  0  0
  160.5120  203.2310  148.8360 C   0  0  1  0  0  3  0  0  0  0  0  0
  161.4270  206.3310  152.7920 C   0  0  2  0  0  3  0  0  0  0  0  0
  160.8600  207.6000  153.3130 C   0  0  0  0  0  0  0  0  0  0  0  0
  161.7830  206.5780  151.3420 C   0  0  1  0  0  3  0  0  0  0  0  0
  161.2070  201.5970  147.1140 C   0  0  0  0  0  0  0  0  0  0  0  0
  161.8370  205.0440  149.2990 C   0  0  0  0  0  0  0  0  0  0  0  0
  162.3310  206.5830  146.3570 C   0  0  0  0  0  1  0  0  0  0  0  0
  161.1020  206.1510  147.1490 C   0  0  2  0  0  3  0  0  0  0  0  0
  162.9000  207.6180  151.2560 C   0  0  0  0  0  2  0  0  0  0  0  0
  160.5760  205.2030  152.7440 O   0  0  0  0  0  0  0  0  0  0  0  0
  161.2880  200.4980  147.7220 O   0  0  0  0  0  0  0  0  0  0  0  0
  162.3680  208.9810  151.7910 C   0  0  0  0  0  2  0  0  0  0  0  0
  161.4470  203.8240  146.4570 C   0  0  1  0  0  3  0  0  0  0  0  0
  161.9880  203.5890  148.8960 C   0  0  2  0  0  3  0  0  0  0  0  0
  161.3870  208.8120  152.9350 C   0  0  0  0  0  0  0  0  0  0  0  0
  161.4100  206.0520  148.5780 N   0  0  0  0  0  0  0  0  0  0  0  0
  1 26  1  0  0  0  0
  2 13  1  1  0  0  0
  2  5  1  0  0  0  0
  2 29  1  0  0  0  0
  3  9  1  6  0  0  0
  3 24  1  0  0  0  0
  4  6  1  0  0  0  0
  5 21  1  0  0  0  0
  7 21  1  6  0  0  0
  7 17  1  0  0  0  0
  7 30  1  0  0  0  0
  8 22  1  6  0  0  0
  8 20  1  0  0  0  0
  8  1  1  0  0  0  0
 11 12  2  0  0  0  0
 11 16  1  0  0  0  0
 13  9  1  0  0  0  0
 14  9  2  0  0  0  0
 15  6  1  0  0  0  0
 15 10  1  0  0  0  0
 16  1  2  0  0  0  0
 17 30  1  0  0  0  0
 17 11  1  1  0  0  0
 18 26  1  6  0  0  0
 18 19  1  0  0  0  0
 19 15  2  0  0  0  0
 20 25  1  1  0  0  0
 20 18  1  0  0  0  0
 21 27  2  0  0  0  0
 24 23  1  6  0  0  0
 24 32  1  0  0  0  0
 25 28  1  0  0  0  0
 28 31  1  0  0  0  0
 29  3  1  0  0  0  0
 29  7  1  0  0  0  0
 30 22  1  0  0  0  0
 31 19  1  0  0  0  0
 31  4  2  0  0  0  0
 32 22  2  0  0  0  0
M  END
>  <MODEL>
3

>  <REMARK>
 VINA RESULT:      -4.9      6.024      9.676
  Name = 
  0 active torsions:
  status: ('A' for Active; 'I' for Inactive)
                            x       y       z     vdW  Elec       q    Type
                         _______ _______ _______ _____ _____    ______ ____

>  <TORSDO>
F 0

$$$$
=
 OpenBabel11072411503D

 32 39  0  0  1  0  0  0  0  0999 V2000
  160.6740  210.7340  151.4750 C   0  0  0  0  0  0  0  0  0  0  0  0
  162.1610  204.3910  151.6410 N   0  0  1  0  0  0  0  0  0  0  0  0
  161.1560  205.9280  150.0250 C   0  0  2  0  0  3  0  0  0  0  0  0
  160.2420  213.8480  146.6790 N   0  0  0  0  0  0  0  0  0  0  0  0
  161.8070  204.5670  152.9730 O   0  0  0  0  0  0  0  0  0  0  0  0
  159.2940  214.4530  147.3870 N   0  0  0  0  0  0  0  0  0  0  0  0
  161.9780  206.7280  152.1910 C   0  0  1  0  0  0  0  0  0  0  0  0
  161.8770  210.2990  150.6430 C   0  0  2  0  0  3  0  0  0  0  0  0
  160.7550  204.5410  149.7600 C   0  0  0  0  0  0  0  0  0  0  0  0
  158.5260  214.4530  149.7130 N   0  0  0  0  0  1  0  0  0  0  0  0
  160.4550  208.8020  153.0890 C   0  0  0  0  0  0  0  0  0  0  0  0
  160.2420  208.5230  154.2970 O   0  0  0  0  0  0  0  0  0  0  0  0
  161.1280  203.6600  150.9010 C   0  0  0  0  0  2  0  0  0  0  0  0
  160.0930  204.1810  148.8010 O   0  0  0  0  0  0  0  0  0  0  0  0
  159.3280  213.9640  148.6440 C   0  0  0  0  0  0  0  0  0  0  0  0
  160.1360  210.1530  152.5700 C   0  0  0  0  0  3  0  0  0  0  0  0
  160.8390  207.7470  152.1060 C   0  0  1  0  0  3  0  0  0  0  0  0
  160.9660  212.3500  149.8950 C   0  0  2  0  0  3  0  0  0  0  0  0
  160.3010  213.0030  148.7390 C   0  0  0  0  0  0  0  0  0  0  0  0
  161.5890  211.0740  149.3730 C   0  0  1  0  0  3  0  0  0  0  0  0
  161.8590  205.8900  153.3830 C   0  0  0  0  0  0  0  0  0  0  0  0
  162.0400  208.8090  150.4670 C   0  0  0  0  0  0  0  0  0  0  0  0
  163.0720  206.3860  148.3840 C   0  0  0  0  0  1  0  0  0  0  0  0
  161.7180  206.8300  148.9270 C   0  0  2  0  0  3  0  0  0  0  0  0
  162.6940  211.4110  148.3730 C   0  0  0  0  0  2  0  0  0  0  0  0
  160.1470  211.9160  150.9620 O   0  0  0  0  0  0  0  0  0  0  0  0
  161.8310  206.2660  154.5830 O   0  0  0  0  0  0  0  0  0  0  0  0
  162.0610  212.1030  147.1290 C   0  0  0  0  0  2  0  0  0  0  0  0
  162.2040  205.7560  151.0780 C   0  0  1  0  0  3  0  0  0  0  0  0
  162.2750  208.1540  151.8150 C   0  0  2  0  0  3  0  0  0  0  0  0
  160.8820  212.9850  147.4940 C   0  0  1  0  0  3  0  0  0  0  0  0
  161.7500  208.2400  149.3210 N   0  0  0  0  0  0  0  0  0  0  0  0
  1 16  2  0  0  0  0
  2 13  1  6  0  0  0
  2  5  1  0  0  0  0
  3  9  1  6  0  0  0
  3 29  1  0  0  0  0
  4  6  2  0  0  0  0
  4 31  1  0  0  0  0
  5 21  1  0  0  0  0
  6 15  1  0  0  0  0
  7 21  1  1  0  0  0
  8 22  1  6  0  0  0
  8  1  1  0  0  0  0
  9 13  1  0  0  0  0
 11 12  2  0  0  0  0
 14  9  2  0  0  0  0
 15 19  2  0  0  0  0
 15 10  1  0  0  0  0
 16 11  1  0  0  0  0
 17  7  1  0  0  0  0
 17 11  1  1  0  0  0
 18 19  1  6  0  0  0
 18 26  1  0  0  0  0
 20 25  1  1  0  0  0
 20 18  1  0  0  0  0
 20  8  1  0  0  0  0
 21 27  2  0  0  0  0
 22 30  1  0  0  0  0
 24 23  1  1  0  0  0
 24 32  1  0  0  0  0
 24  3  1  0  0  0  0
 26  1  1  0  0  0  0
 28 31  1  0  0  0  0
 28 25  1  0  0  0  0
 29  2  1  0  0  0  0
 29  7  1  0  0  0  0
 30 17  1  0  0  0  0
 30  7  1  0  0  0  0
 31 19  1  0  0  0  0
 32 22  2  0  0  0  0
M  END
>  <MODEL>
4

>  <REMARK>
 VINA RESULT:      -4.7      3.093      4.440
  Name = 
  0 active torsions:
  status: ('A' for Active; 'I' for Inactive)
                            x       y       z     vdW  Elec       q    Type
                         _______ _______ _______ _____ _____    ______ ____

>  <TORSDO>
F 0

$$$$
=
 OpenBabel11072411503D

 32 39  0  0  1  0  0  0  0  0999 V2000
  161.2390  211.8100  151.0700 C   0  0  0  0  0  0  0  0  0  0  0  0
  159.0740  214.0600  145.3490 N   0  0  1  0  0  0  0  0  0  0  0  0
  158.1500  212.7470  147.1960 C   0  0  2  0  0  3  0  0  0  0  0  0
  157.8920  210.6140  155.5700 N   0  0  0  0  0  0  0  0  0  0  0  0
  160.3910  213.7980  144.9960 O   0  0  0  0  0  0  0  0  0  0  0  0
  158.8020  209.6600  155.7480 N   0  0  0  0  0  2  0  0  0  0  0  0
  160.4300  213.6430  147.2950 C   0  0  1  0  0  0  0  0  0  0  0  0
  160.2650  212.9850  151.1290 C   0  0  2  0  0  3  0  0  0  0  0  0
  157.4200  212.4970  145.9470 C   0  0  0  0  0  0  0  0  0  0  0  0
  160.9980  209.0930  154.8250 N   0  0  0  0  0  1  0  0  0  0  0  0
  162.0620  211.9590  148.6850 C   0  0  0  0  0  0  0  0  0  0  0  0
  163.0960  211.8810  147.9730 O   0  0  0  0  0  0  0  0  0  0  0  0
  158.1570  213.0650  144.7850 C   0  0  0  0  0  2  0  0  0  0  0  0
  156.4180  211.8060  145.8550 O   0  0  0  0  0  0  0  0  0  0  0  0
  159.7980  209.8570  154.8600 C   0  0  0  0  0  0  0  0  0  0  0  0
  162.0710  211.4380  150.0730 C   0  0  0  0  0  3  0  0  0  0  0  0
  160.7530  212.3860  148.1070 C   0  0  1  0  0  3  0  0  0  0  0  0
  160.3330  211.7740  153.1610 C   0  0  2  0  0  3  0  0  0  0  0  0
  159.5100  210.9430  154.0760 C   0  0  0  0  0  0  0  0  0  0  0  0
  159.3680  212.5020  152.2500 C   0  0  1  0  0  3  0  0  0  0  0  0
  161.2460  213.7240  146.0850 C   0  0  0  0  0  0  0  0  0  0  0  0
  159.5630  213.3110  149.8340 C   0  0  0  0  0  0  0  0  0  0  0  0
  156.7180  214.4530  148.4660 C   0  0  0  0  0  1  0  0  0  0  0  0
  157.4290  213.1050  148.4940 C   0  0  2  0  0  3  0  0  0  0  0  0
  158.5180  213.4720  153.0690 C   0  0  0  0  0  2  0  0  0  0  0  0
  161.2010  211.1050  152.2690 O   0  0  0  0  0  0  0  0  0  0  0  0
  162.5010  213.7490  146.0100 O   0  0  0  0  0  0  0  0  0  0  0  0
  157.6260  212.6600  154.0550 C   0  0  0  0  0  2  0  0  0  0  0  0
  159.0350  213.8910  146.8170 C   0  0  1  0  0  3  0  0  0  0  0  0
  160.5780  213.7330  148.7890 C   0  0  2  0  0  3  0  0  0  0  0  0
  158.3220  211.4180  154.5770 C   0  0  0  0  0  0  0  0  0  0  0  0
  158.3000  212.9980  149.6670 N   0  0  0  0  0  0  0  0  0  0  0  0
  1  8  1  0  0  0  0
  1 26  1  0  0  0  0
  2 13  1  6  0  0  0
  2 29  1  0  0  0  0
  3  9  1  6  0  0  0
  3 24  1  0  0  0  0
  4  6  1  0  0  0  0
  5  2  1  0  0  0  0
  5 21  1  0  0  0  0
  7 21  1  6  0  0  0
  7 17  1  0  0  0  0
  7 30  1  0  0  0  0
  8 22  1  6  0  0  0
  8 20  1  0  0  0  0
 10 15  1  0  0  0  0
 11 16  1  0  0  0  0
 12 11  2  0  0  0  0
 13  9  1  0  0  0  0
 14  9  2  0  0  0  0
 15  6  1  0  0  0  0
 16  1  2  0  0  0  0
 17 11  1  6  0  0  0
 17 30  1  0  0  0  0
 18 26  1  6  0  0  0
 18 19  1  0  0  0  0
 19 31  1  0  0  0  0
 19 15  2  0  0  0  0
 20 25  1  1  0  0  0
 20 18  1  0  0  0  0
 24 23  1  6  0  0  0
 24 32  1  0  0  0  0
 25 28  1  0  0  0  0
 27 21  2  0  0  0  0
 28 31  1  0  0  0  0
 29  3  1  0  0  0  0
 29  7  1  0  0  0  0
 30 22  1  0  0  0  0
 31  4  2  0  0  0  0
 32 22  2  0  0  0  0
M  END
>  <MODEL>
5

>  <REMARK>
 VINA RESULT:      -4.5      3.039      8.025
  Name = 
  0 active torsions:
  status: ('A' for Active; 'I' for Inactive)
                            x       y       z     vdW  Elec       q    Type
                         _______ _______ _______ _____ _____    ______ ____

>  <TORSDO>
F 0

$$$$
=
 OpenBabel11072411503D

 32 39  0  0  1  0  0  0  0  0999 V2000
  161.2630  205.1590  150.6220 C   0  0  0  0  0  0  0  0  0  0  0  0
  160.7770  201.7180  145.1080 N   0  0  1  0  0  0  0  0  0  0  0  0
  160.0590  203.9250  145.8830 C   0  0  2  0  0  3  0  0  0  0  0  0
  161.1000  210.8830  150.9070 N   0  0  0  0  0  0  0  0  0  0  0  0
  160.6890  200.6770  146.0230 O   0  0  0  0  0  0  0  0  0  0  0  0
  160.4910  210.6160  152.0590 N   0  0  0  0  0  2  0  0  0  0  0  0
  161.3890  202.4490  147.3190 C   0  0  1  0  0  0  0  0  0  0  0  0
  162.1450  205.6110  149.4610 C   0  0  2  0  0  3  0  0  0  0  0  0
  159.2250  203.4540  144.7700 C   0  0  0  0  0  0  0  0  0  0  0  0
  160.1050  208.6440  153.4590 N   0  0  0  0  0  1  0  0  0  0  0  0
  160.7090  202.7900  149.9360 C   0  0  0  0  0  0  0  0  0  0  0  0
  160.5980  201.6170  150.3770 O   0  0  0  0  0  0  0  0  0  0  0  0
  159.4760  202.0120  144.4990 C   0  0  0  0  0  2  0  0  0  0  0  0
  158.3540  204.1140  144.2280 O   0  0  0  0  0  0  0  0  0  0  0  0
  160.5580  209.2860  152.2720 C   0  0  0  0  0  0  0  0  0  0  0  0
  160.7400  203.9390  150.8730 C   0  0  0  0  0  3  0  0  0  0  0  0
  160.6100  203.0810  148.4760 C   0  0  1  0  0  3  0  0  0  0  0  0
  161.7970  207.3330  151.0460 C   0  0  2  0  0  3  0  0  0  0  0  0
  161.1990  208.6810  151.2230 C   0  0  0  0  0  0  0  0  0  0  0  0
  161.9230  207.1070  149.5550 C   0  0  1  0  0  3  0  0  0  0  0  0
  161.1970  201.0010  147.2710 C   0  0  0  0  0  0  0  0  0  0  0  0
  161.8240  204.9940  148.1220 C   0  0  0  0  0  0  0  0  0  0  0  0
  161.7650  205.5070  144.8050 C   0  0  0  0  0  1  0  0  0  0  0  0
  160.7020  205.3110  145.8800 C   0  0  2  0  0  3  0  0  0  0  0  0
  162.9220  208.1030  148.9660 C   0  0  0  0  0  2  0  0  0  0  0  0
  161.0490  206.2210  151.4950 O   0  0  0  0  0  0  0  0  0  0  0  0
  161.4580  200.1650  148.1740 O   0  0  0  0  0  0  0  0  0  0  0  0
  162.3530  209.5450  149.1210 C   0  0  0  0  0  2  0  0  0  0  0  0
  161.1470  202.9000  145.9140 C   0  0  1  0  0  3  0  0  0  0  0  0
  162.0430  203.4940  148.1810 C   0  0  2  0  0  3  0  0  0  0  0  0
  161.5610  209.7220  150.4010 C   0  0  0  0  0  0  0  0  0  0  0  0
  161.2130  205.6950  147.1970 N   0  0  0  0  0  0  0  0  0  0  0  0
  1 16  2  0  0  0  0
  1 26  1  0  0  0  0
  2 13  1  1  0  0  0
  2 29  1  0  0  0  0
  2  5  1  0  0  0  0
  3  9  1  6  0  0  0
  3 29  1  0  0  0  0
  4  6  1  0  0  0  0
  5 21  1  0  0  0  0
  6 15  1  0  0  0  0
  7 21  1  1  0  0  0
  7 30  1  0  0  0  0
  7 17  1  0  0  0  0
  8 22  1  6  0  0  0
  8 20  1  0  0  0  0
  8  1  1  0  0  0  0
 11 12  2  0  0  0  0
 11 16  1  0  0  0  0
 13  9  1  0  0  0  0
 14  9  2  0  0  0  0
 15 10  1  0  0  0  0
 17 11  1  1  0  0  0
 18 19  1  6  0  0  0
 18 26  1  0  0  0  0
 19 15  2  0  0  0  0
 20 25  1  1  0  0  0
 20 18  1  0  0  0  0
 21 27  2  0  0  0  0
 22 30  1  0  0  0  0
 24 23  1  6  0  0  0
 24  3  1  0  0  0  0
 24 32  1  0  0  0  0
 25 28  1  0  0  0  0
 28 31  1  0  0  0  0
 29  7  1  0  0  0  0
 30 17  1  0  0  0  0
 31  4  2  0  0  0  0
 31 19  1  0  0  0  0
 32 22  2  0  0  0  0
M  END
>  <MODEL>
6

>  <REMARK>
 VINA RESULT:      -4.5      6.662      9.598
  Name = 
  0 active torsions:
  status: ('A' for Active; 'I' for Inactive)
                            x       y       z     vdW  Elec       q    Type
                         _______ _______ _______ _____ _____    ______ ____

>  <TORSDO>
F 0

$$$$
=
 OpenBabel11072411503D

 32 39  0  0  1  0  0  0  0  0999 V2000
  161.8420  208.1970  149.5290 C   0  0  0  0  0  0  0  0  0  0  0  0
  160.0060  214.1310  151.5000 N   0  0  1  0  0  0  0  0  0  0  0  0
  159.2340  211.8360  151.8500 C   0  0  2  0  0  3  0  0  0  0  0  0
  160.7610  203.3430  152.3850 N   0  0  0  0  0  0  0  0  0  0  0  0
  160.4480  214.4530  150.2240 O   0  0  0  0  0  0  0  0  0  0  0  0
  160.6740  202.8620  151.1480 N   0  0  0  0  0  0  0  0  0  0  0  0
  161.2410  212.3090  150.5230 C   0  0  1  0  0  0  0  0  0  0  0  0
  162.1410  208.5500  150.9840 C   0  0  2  0  0  3  0  0  0  0  0  0
  158.1510  212.8020  152.0730 C   0  0  0  0  0  0  0  0  0  0  0  0
  161.1910  203.6460  148.8860 N   0  0  0  0  0  1  0  0  0  0  0  0
  161.5140  210.4880  148.5140 C   0  0  0  0  0  0  0  0  0  0  0  0
  161.7870  211.1870  147.5040 O   0  0  0  0  0  0  0  0  0  0  0  0
  158.5420  214.1520  151.5840 C   0  0  0  0  0  2  0  0  0  0  0  0
  157.0370  212.5140  152.4810 O   0  0  0  0  0  0  0  0  0  0  0  0
  161.0540  203.8310  150.2910 C   0  0  0  0  0  0  0  0  0  0  0  0
  161.6770  209.0150  148.4680 C   0  0  0  0  0  3  0  0  0  0  0  0
  160.8380  211.0790  149.7060 C   0  0  1  0  0  3  0  0  0  0  0  0
  162.0900  206.2120  150.6220 C   0  0  2  0  0  3  0  0  0  0  0  0
  161.3650  204.9690  150.9890 C   0  0  0  0  0  0  0  0  0  0  0  0
  161.7020  207.2590  151.6430 C   0  0  1  0  0  3  0  0  0  0  0  0
  161.3100  213.5070  149.6890 C   0  0  0  0  0  0  0  0  0  0  0  0
  161.4700  209.7990  151.5000 C   0  0  0  0  0  0  0  0  0  0  0  0
  160.1110  211.2740  154.1920 C   0  0  0  0  0  1  0  0  0  0  0  0
  159.5680  210.7480  152.8680 C   0  0  2  0  0  3  0  0  0  0  0  0
  162.2180  206.8480  153.0230 C   0  0  0  0  0  2  0  0  0  0  0  0
  161.7730  206.8140  149.3830 O   0  0  0  0  0  0  0  0  0  0  0  0
  162.0300  213.6920  148.6740 O   0  0  0  0  0  0  0  0  0  0  0  0
  161.4940  205.5430  153.4690 C   0  0  0  0  0  2  0  0  0  0  0  0
  160.4240  212.7290  151.7040 C   0  0  1  0  0  3  0  0  0  0  0  0
  161.9640  211.0060  150.7250 C   0  0  2  0  0  3  0  0  0  0  0  0
  161.2070  204.6130  152.3060 C   0  0  1  0  0  3  0  0  0  0  0  0
  160.4470  209.7140  152.3170 N   0  0  0  0  0  0  0  0  0  0  0  0
  2 13  1  6  0  0  0
  2 29  1  0  0  0  0
  3  9  1  1  0  0  0
  3 24  1  0  0  0  0
  5  2  1  0  0  0  0
  6  4  2  0  0  0  0
  7 21  1  6  0  0  0
  7 30  1  0  0  0  0
  7 29  1  0  0  0  0
  8  1  1  6  0  0  0
  8 22  1  0  0  0  0
  8 20  1  0  0  0  0
  9 14  2  0  0  0  0
 10 15  1  0  0  0  0
 12 11  2  0  0  0  0
 13  9  1  0  0  0  0
 15 19  2  0  0  0  0
 15  6  1  0  0  0  0
 16 11  1  0  0  0  0
 16  1  2  0  0  0  0
 17 11  1  6  0  0  0
 17  7  1  0  0  0  0
 17 30  1  0  0  0  0
 18 26  1  6  0  0  0
 18 19  1  0  0  0  0
 18 20  1  0  0  0  0
 19 31  1  0  0  0  0
 20 25  1  1  0  0  0
 21  5  1  0  0  0  0
 22 32  2  0  0  0  0
 24 23  1  1  0  0  0
 25 28  1  0  0  0  0
 26  1  1  0  0  0  0
 27 21  2  0  0  0  0
 29  3  1  0  0  0  0
 30 22  1  0  0  0  0
 31  4  1  0  0  0  0
 31 28  1  0  0  0  0
 32 24  1  0  0  0  0
M  END
>  <MODEL>
7

>  <REMARK>
 VINA RESULT:      -4.2      3.624      7.813
  Name = 
  0 active torsions:
  status: ('A' for Active; 'I' for Inactive)
                            x       y       z     vdW  Elec       q    Type
                         _______ _______ _______ _____ _____    ______ ____

>  <TORSDO>
F 0

$$$$
=
 OpenBabel11072411503D

 32 39  0  0  1  0  0  0  0  0999 V2000
  159.2710  212.2300  151.5560 C   0  0  0  0  0  0  0  0  0  0  0  0
  161.7030  206.9190  154.4460 N   0  0  1  0  0  0  0  0  0  0  0  0
  160.9060  207.5040  152.2080 C   0  0  2  0  0  3  0  0  0  0  0  0
  159.5750  213.2980  145.9300 N   0  0  0  0  0  0  0  0  0  0  0  0
  160.9940  207.4450  155.5180 O   0  0  0  0  0  0  0  0  0  0  0  0
  158.3890  213.8500  146.1670 N   0  0  0  0  0  0  0  0  0  0  0  0
  160.9970  209.1780  153.9980 C   0  0  1  0  0  0  0  0  0  0  0  0
  160.7030  211.8540  151.1850 C   0  0  2  0  0  3  0  0  0  0  0  0
  160.8250  206.0570  152.4410 C   0  0  0  0  0  0  0  0  0  0  0  0
  157.0600  214.4530  148.1340 N   0  0  0  0  0  1  0  0  0  0  0  0
  158.9700  210.9790  153.7310 C   0  0  0  0  0  0  0  0  0  0  0  0
  158.5030  211.0860  154.8940 O   0  0  0  0  0  0  0  0  0  0  0  0
  161.0330  205.7440  153.8810 C   0  0  0  0  0  2  0  0  0  0  0  0
  160.5010  205.2360  151.5980 O   0  0  0  0  0  0  0  0  0  0  0  0
  158.1800  213.8450  147.4990 C   0  0  0  0  0  0  0  0  0  0  0  0
  158.5750  211.9440  152.6770 C   0  0  0  0  0  3  0  0  0  0  0  0
  159.7650  209.7840  153.3220 C   0  0  1  0  0  3  0  0  0  0  0  0
  159.6860  213.2260  149.5480 C   0  0  2  0  0  3  0  0  0  0  0  0
  159.2420  213.2530  148.1320 C   0  0  0  0  0  0  0  0  0  0  0  0
  160.6260  212.0480  149.6850 C   0  0  1  0  0  3  0  0  0  0  0  0
  160.7170  208.7970  155.3810 C   0  0  0  0  0  0  0  0  0  0  0  0
  161.1520  210.4850  151.6370 C   0  0  0  0  0  0  0  0  0  0  0  0
  163.0750  207.8390  150.8840 C   0  0  0  0  0  1  0  0  0  0  0  0
  161.5730  208.0860  150.9630 C   0  0  2  0  0  3  0  0  0  0  0  0
  161.8800  212.2890  148.8440 C   0  0  0  0  0  2  0  0  0  0  0  0
  158.7050  212.9920  150.5380 O   0  0  0  0  0  0  0  0  0  0  0  0
  160.3190  209.5410  156.3140 O   0  0  0  0  0  0  0  0  0  0  0  0
  161.4820  212.3300  147.3380 C   0  0  0  0  0  2  0  0  0  0  0  0
  161.6610  207.9730  153.4110 C   0  0  1  0  0  3  0  0  0  0  0  0
  161.1390  210.4130  153.1530 C   0  0  2  0  0  3  0  0  0  0  0  0
  160.1180  212.9560  147.1160 C   0  0  1  0  0  3  0  0  0  0  0  0
  161.2660  209.5050  150.7730 N   0  0  0  0  0  0  0  0  0  0  0  0
  1 16  2  0  0  0  0
  2 13  1  6  0  0  0
  2  5  1  0  0  0  0
  3  9  1  6  0  0  0
  3 29  1  0  0  0  0
  4  6  2  0  0  0  0
  4 31  1  0  0  0  0
  6 15  1  0  0  0  0
  7 21  1  1  0  0  0
  8  1  1  1  0  0  0
  8 22  1  0  0  0  0
  9 13  1  0  0  0  0
 11 12  2  0  0  0  0
 14  9  2  0  0  0  0
 15 19  2  0  0  0  0
 15 10  1  0  0  0  0
 16 11  1  0  0  0  0
 17 11  1  1  0  0  0
 17  7  1  0  0  0  0
 18 19  1  6  0  0  0
 18 20  1  0  0  0  0
 18 26  1  0  0  0  0
 20 25  1  1  0  0  0
 20  8  1  0  0  0  0
 21  5  1  0  0  0  0
 21 27  2  0  0  0  0
 22 30  1  0  0  0  0
 24 23  1  1  0  0  0
 24  3  1  0  0  0  0
 26  1  1  0  0  0  0
 28 25  1  0  0  0  0
 29  7  1  0  0  0  0
 29  2  1  0  0  0  0
 30 17  1  0  0  0  0
 30  7  1  0  0  0  0
 31 28  1  0  0  0  0
 31 19  1  0  0  0  0
 32 24  1  0  0  0  0
 32 22  2  0  0  0  0
M  END
>  <MODEL>
8

>  <REMARK>
 VINA RESULT:      -4.0      1.581      2.041
  Name = 
  0 active torsions:
  status: ('A' for Active; 'I' for Inactive)
                            x       y       z     vdW  Elec       q    Type
                         _______ _______ _______ _____ _____    ______ ____

>  <TORSDO>
F 0

$$$$
