=
 OpenBabel11072414273D

 47 52  0  0  1  0  0  0  0  0999 V2000
  160.6280  210.2010  153.9400 C   0  0  1  0  0  3  0  0  0  0  0  0
  159.7500  208.2250  155.2430 C   0  0  0  0  0  3  0  0  0  0  0  0
  159.8200  207.3410  156.3210 C   0  0  0  0  0  3  0  0  0  0  0  0
  160.7110  209.2380  155.0900 C   0  0  0  0  0  0  0  0  0  0  0  0
  161.7460  209.3640  156.0360 C   0  0  0  0  0  0  0  0  0  0  0  0
  160.8470  207.4620  157.2580 C   0  0  0  0  0  3  0  0  0  0  0  0
  161.8050  208.4680  157.1170 C   0  0  0  0  0  3  0  0  0  0  0  0
  162.6990  210.3780  155.8850 O   0  0  0  0  0  0  0  0  0  0  0  0
  163.4740  210.8730  156.9700 C   0  0  0  0  0  1  0  0  0  0  0  0
  160.5840  211.6580  154.4000 C   0  0  0  0  0  2  0  0  0  0  0  0
  159.6600  212.6690  151.8980 S   0  0  0  0  0  0  0  0  0  0  0  0
  157.2520  213.7960  150.9100 N   0  0  0  0  0  0  0  0  0  0  0  0
  158.2550  213.5860  151.8790 C   0  0  0  0  0  0  0  0  0  0  0  0
  156.0240  214.0410  151.5820 N   0  0  0  0  0  2  0  0  0  0  0  0
  157.6900  213.5890  153.0750 C   0  0  0  0  0  0  0  0  0  0  0  0
  157.9240  212.8390  155.4950 C   0  0  0  0  0  1  0  0  0  0  0  0
  156.3560  213.9110  152.9310 O   0  0  0  0  0  0  0  0  0  0  0  0
  159.6200  212.4800  153.6000 C   0  0  0  0  0  0  0  0  0  0  0  0
  158.4260  213.0190  154.1030 C   0  0  0  0  0  0  0  0  0  0  0  0
  157.3000  213.2000  149.6420 N   0  0  0  0  0  2  0  0  0  0  0  0
  158.3710  213.8420  148.8960 C   0  0  0  0  0  2  0  0  0  0  0  0
  158.5860  213.1270  147.5730 C   0  0  0  0  0  2  0  0  0  0  0  0
  160.5290  213.8490  146.1330 N   0  0  0  0  0  1  0  0  0  0  0  0
  160.0340  213.0800  147.2240 C   0  0  0  0  0  0  0  0  0  0  0  0
  160.8260  212.3830  147.9100 O   0  0  0  0  0  0  0  0  0  0  0  0
  161.6680  209.9120  152.8500 C   0  0  0  0  0  2  0  0  0  0  0  0
  161.9060  208.4230  152.6040 C   0  0  0  0  0  2  0  0  0  0  0  0
  162.4250  208.1600  151.1970 C   0  0  0  0  0  2  0  0  0  0  0  0
  162.8870  205.8720  152.0670 C   0  0  0  0  0  1  0  0  0  0  0  0
  162.4350  206.6680  150.8510 C   0  0  1  0  0  3  0  0  0  0  0  0
  160.1680  207.1360  150.4280 F   0  0  0  0  0  0  0  0  0  0  0  0
  160.2780  203.0440  147.8140 O   0  0  0  0  0  1  0  0  0  0  0  0
  161.9720  204.7150  148.2960 C   0  0  1  0  0  3  0  0  0  0  0  0
  160.5540  204.8790  150.8900 C   0  0  1  0  0  3  0  0  0  0  0  0
  160.5500  203.5400  150.1300 C   0  0  1  0  0  3  0  0  0  0  0  0
  161.2320  206.0250  148.6280 C   0  0  1  0  0  0  0  0  0  0  0  0
  159.8410  206.0020  147.9850 C   0  0  0  0  0  1  0  0  0  0  0  0
  161.2250  203.4500  148.7560 C   0  0  1  0  0  3  0  0  0  0  0  0
  161.5900  203.8030  151.1950 C   0  0  0  0  0  2  0  0  0  0  0  0
  161.1170  206.1540  150.1850 C   0  0  2  0  0  0  0  0  0  0  0  0
  163.9420  204.9260  146.8860 O   0  0  0  0  0  1  0  0  0  0  0  0
  162.5780  204.6250  146.8810 C   0  0  2  0  0  3  0  0  0  0  0  0
  161.8440  205.5310  145.9030 C   0  0  0  0  0  3  0  0  0  0  0  0
  162.3650  205.2830  144.5010 C   0  0  0  0  0  2  0  0  0  0  0  0
  161.0420  204.6840  144.9350 C   0  0  0  0  0  2  0  0  0  0  0  0
  161.2380  208.3940  148.0660 O   0  0  0  0  0  1  0  0  0  0  0  0
  161.9990  207.2230  148.0320 C   0  0  0  0  0  2  0  0  0  0  0  0
  1 26  1  6  0  0  0
  1 10  1  0  0  0  0
  1  4  1  0  0  0  0
  2  3  1  0  0  0  0
  3  6  2  0  0  0  0
  4  2  2  0  0  0  0
  4  5  1  0  0  0  0
  5  7  2  0  0  0  0
  7  6  1  0  0  0  0
  8  5  1  0  0  0  0
  8  9  1  0  0  0  0
 11 18  1  0  0  0  0
 12 14  1  0  0  0  0
 12 13  1  0  0  0  0
 13 11  1  0  0  0  0
 13 15  2  0  0  0  0
 14 17  1  0  0  0  0
 15 19  1  0  0  0  0
 17 15  1  0  0  0  0
 18 19  2  0  0  0  0
 18 10  1  0  0  0  0
 19 16  1  0  0  0  0
 20 12  1  0  0  0  0
 21 20  1  0  0  0  0
 22 21  1  0  0  0  0
 23 24  1  0  0  0  0
 24 22  1  0  0  0  0
 24 25  2  0  0  0  0
 27 26  1  0  0  0  0
 28 27  1  0  0  0  0
 30 28  1  0  0  0  0
 30 29  1  1  0  0  0
 33 42  1  6  0  0  0
 33 36  1  0  0  0  0
 33 38  1  0  0  0  0
 34 39  1  1  0  0  0
 35 34  1  0  0  0  0
 35 39  1  1  0  0  0
 36 37  1  6  0  0  0
 36 40  1  0  0  0  0
 38 32  1  6  0  0  0
 38 35  1  0  0  0  0
 40 31  1  1  0  0  0
 40 30  1  0  0  0  0
 40 34  1  0  0  0  0
 42 41  1  1  0  0  0
 43 42  1  0  0  0  0
 44 45  1  0  0  0  0
 44 43  1  0  0  0  0
 45 43  1  0  0  0  0
 47 46  1  0  0  0  0
 47 36  1  0  0  0  0
M  END
>  <MODEL>
1

>  <REMARK>
 VINA RESULT:      -6.5      0.000      0.000
  Name = 
  16 active torsions:
  status: ('A' for Active; 'I' for Inactive)
    1  A    between atoms: N_2  and  N_24
    2  A    between atoms: C_7  and  C_37
    3  A    between atoms: C_10  and  C_11
    4  A    between atoms: C_10  and  C_28
    5  A    between atoms: C_11  and  N_24
    6  A    between atoms: C_12  and  C_37
    7  A    between atoms: C_17  and  C_40
    8  A    between atoms: C_20  and  C_44
    9  A    between atoms: C_25  and  C_41
   10  A    between atoms: C_25  and  C_44
   11  A    between atoms: C_26  and  O_27
   12  A    between atoms: C_35  and  C_43
   13  A    between atoms: C_41  and  C_45
   14  A    between atoms: C_43  and  C_44
   15  A    between atoms: C_45  and  C_46
   16  A    between atoms: C_46  and  C_47
                            x       y       z     vdW  Elec       q    Type
                         _______ _______ _______ _____ _____    ______ ____

>  <TORSDO>
F 16

$$$$
=
 OpenBabel11072414273D

 47 52  0  0  1  0  0  0  0  0999 V2000
  160.2990  211.1060  152.3770 C   0  0  1  0  0  3  0  0  0  0  0  0
  161.7240  210.2670  154.2840 C   0  0  0  0  0  3  0  0  0  0  0  0
  161.8740  209.8360  155.6040 C   0  0  0  0  0  3  0  0  0  0  0  0
  160.4650  210.6590  153.8020 C   0  0  0  0  0  0  0  0  0  0  0  0
  159.3470  210.6110  154.6570 C   0  0  0  0  0  0  0  0  0  0  0  0
  160.7670  209.7920  156.4540 C   0  0  0  0  0  3  0  0  0  0  0  0
  159.5100  210.1760  155.9820 C   0  0  0  0  0  3  0  0  0  0  0  0
  158.0920  210.9960  154.1720 O   0  0  0  0  0  0  0  0  0  0  0  0
  157.0000  211.3110  155.0270 C   0  0  0  0  0  1  0  0  0  0  0  0
  160.2650  212.6290  152.2440 C   0  0  0  0  0  2  0  0  0  0  0  0
  160.4930  212.9170  149.4150 S   0  0  0  0  0  0  0  0  0  0  0  0
  158.7090  213.3420  147.2510 N   0  0  0  0  0  0  0  0  0  0  0  0
  159.1790  213.5270  148.5680 C   0  0  0  0  0  0  0  0  0  0  0  0
  157.2950  213.4790  147.2570 N   0  0  0  0  0  2  0  0  0  0  0  0
  158.1350  213.6640  149.3700 C   0  0  0  0  0  0  0  0  0  0  0  0
  157.3110  213.4770  151.7700 C   0  0  0  0  0  1  0  0  0  0  0  0
  156.9900  213.6900  148.6030 O   0  0  0  0  0  0  0  0  0  0  0  0
  159.7030  213.0730  150.9280 C   0  0  0  0  0  0  0  0  0  0  0  0
  158.3710  213.4640  150.7230 C   0  0  0  0  0  0  0  0  0  0  0  0
  159.3730  212.5220  146.3280 N   0  0  0  0  0  2  0  0  0  0  0  0
  159.6330  213.3210  145.1400 C   0  0  0  0  0  2  0  0  0  0  0  0
  160.8620  214.1870  145.3540 C   0  0  0  0  0  2  0  0  0  0  0  0
  162.6080  212.9090  144.0540 N   0  0  0  0  0  1  0  0  0  0  0  0
  162.1040  213.3650  145.3050 C   0  0  0  0  0  0  0  0  0  0  0  0
  162.7240  213.0950  146.3660 O   0  0  0  0  0  0  0  0  0  0  0  0
  161.2750  210.4070  151.4210 C   0  0  0  0  0  2  0  0  0  0  0  0
  161.2710  208.8850  151.5400 C   0  0  0  0  0  2  0  0  0  0  0  0
  162.5800  208.2780  151.0540 C   0  0  0  0  0  2  0  0  0  0  0  0
  162.8520  206.0750  152.1850 C   0  0  0  0  0  1  0  0  0  0  0  0
  162.4860  206.7600  150.8760 C   0  0  1  0  0  3  0  0  0  0  0  0
  160.2270  207.2800  150.4730 F   0  0  0  0  0  0  0  0  0  0  0  0
  160.1980  203.1480  147.9210 O   0  0  0  0  0  1  0  0  0  0  0  0
  161.9400  204.7820  148.3570 C   0  0  1  0  0  3  0  0  0  0  0  0
  160.5600  205.0220  150.9650 C   0  0  1  0  0  3  0  0  0  0  0  0
  160.5110  203.6720  150.2250 C   0  0  1  0  0  3  0  0  0  0  0  0
  161.2380  206.1150  148.6780 C   0  0  1  0  0  0  0  0  0  0  0  0
  159.8390  206.1190  148.0520 C   0  0  0  0  0  1  0  0  0  0  0  0
  161.1670  203.5430  148.8460 C   0  0  1  0  0  3  0  0  0  0  0  0
  161.5700  203.9230  151.2740 C   0  0  0  0  0  2  0  0  0  0  0  0
  161.1460  206.2710  150.2330 C   0  0  2  0  0  0  0  0  0  0  0  0
  163.8850  204.9740  146.9110 O   0  0  0  0  0  1  0  0  0  0  0  0
  162.5260  204.6550  146.9360 C   0  0  2  0  0  3  0  0  0  0  0  0
  161.7650  205.5180  145.9420 C   0  0  0  0  0  3  0  0  0  0  0  0
  162.3140  205.2830  144.5480 C   0  0  0  0  0  2  0  0  0  0  0  0
  161.0150  204.6280  144.9710 C   0  0  0  0  0  2  0  0  0  0  0  0
  161.2600  208.4470  147.9800 O   0  0  0  0  0  1  0  0  0  0  0  0
  162.0290  207.2830  148.0540 C   0  0  0  0  0  2  0  0  0  0  0  0
  1 26  1  6  0  0  0
  1  4  1  0  0  0  0
  2  3  1  0  0  0  0
  3  6  2  0  0  0  0
  4  2  2  0  0  0  0
  4  5  1  0  0  0  0
  5  7  2  0  0  0  0
  7  6  1  0  0  0  0
  8  5  1  0  0  0  0
  8  9  1  0  0  0  0
 10  1  1  0  0  0  0
 11 18  1  0  0  0  0
 12 14  1  0  0  0  0
 12 13  1  0  0  0  0
 13 15  2  0  0  0  0
 13 11  1  0  0  0  0
 14 17  1  0  0  0  0
 15 19  1  0  0  0  0
 17 15  1  0  0  0  0
 18 10  1  0  0  0  0
 19 18  2  0  0  0  0
 19 16  1  0  0  0  0
 20 12  1  0  0  0  0
 21 22  1  0  0  0  0
 21 20  1  0  0  0  0
 23 24  1  0  0  0  0
 24 22  1  0  0  0  0
 24 25  2  0  0  0  0
 26 27  1  0  0  0  0
 28 27  1  0  0  0  0
 30 28  1  0  0  0  0
 30 29  1  1  0  0  0
 33 42  1  6  0  0  0
 33 36  1  0  0  0  0
 33 38  1  0  0  0  0
 34 39  1  1  0  0  0
 35 34  1  0  0  0  0
 35 39  1  1  0  0  0
 36 37  1  6  0  0  0
 36 40  1  0  0  0  0
 38 32  1  6  0  0  0
 38 35  1  0  0  0  0
 40 31  1  1  0  0  0
 40 30  1  0  0  0  0
 40 34  1  0  0  0  0
 42 41  1  1  0  0  0
 43 42  1  0  0  0  0
 44 45  1  0  0  0  0
 44 43  1  0  0  0  0
 45 43  1  0  0  0  0
 46 47  1  0  0  0  0
 47 36  1  0  0  0  0
M  END
>  <MODEL>
2

>  <REMARK>
 VINA RESULT:      -5.7      1.770      2.615
  Name = 
  16 active torsions:
  status: ('A' for Active; 'I' for Inactive)
    1  A    between atoms: N_2  and  N_24
    2  A    between atoms: C_7  and  C_37
    3  A    between atoms: C_10  and  C_11
    4  A    between atoms: C_10  and  C_28
    5  A    between atoms: C_11  and  N_24
    6  A    between atoms: C_12  and  C_37
    7  A    between atoms: C_17  and  C_40
    8  A    between atoms: C_20  and  C_44
    9  A    between atoms: C_25  and  C_41
   10  A    between atoms: C_25  and  C_44
   11  A    between atoms: C_26  and  O_27
   12  A    between atoms: C_35  and  C_43
   13  A    between atoms: C_41  and  C_45
   14  A    between atoms: C_43  and  C_44
   15  A    between atoms: C_45  and  C_46
   16  A    between atoms: C_46  and  C_47
                            x       y       z     vdW  Elec       q    Type
                         _______ _______ _______ _____ _____    ______ ____

>  <TORSDO>
F 16

$$$$
=
 OpenBabel11072414273D

 47 52  0  0  1  0  0  0  0  0999 V2000
  161.7360  207.3630  151.0980 C   0  0  1  0  0  3  0  0  0  0  0  0
  162.2770  209.8230  150.9250 C   0  0  0  0  0  3  0  0  0  0  0  0
  162.4010  211.0000  150.1850 C   0  0  0  0  0  3  0  0  0  0  0  0
  161.8860  208.6270  150.3000 C   0  0  0  0  0  0  0  0  0  0  0  0
  161.6110  208.6210  148.9200 C   0  0  0  0  0  0  0  0  0  0  0  0
  162.1320  210.9950  148.8150 C   0  0  0  0  0  3  0  0  0  0  0  0
  161.7390  209.8120  148.1860 C   0  0  0  0  0  3  0  0  0  0  0  0
  161.2160  207.4300  148.3000 O   0  0  0  0  0  0  0  0  0  0  0  0
  161.1990  207.2650  146.8880 C   0  0  0  0  0  1  0  0  0  0  0  0
  162.5620  206.2110  150.5280 C   0  0  0  0  0  2  0  0  0  0  0  0
  161.4700  204.3320  148.6790 S   0  0  0  0  0  0  0  0  0  0  0  0
  160.3520  201.7300  148.8280 N   0  0  0  0  0  0  0  0  0  0  0  0
  160.5810  203.0450  149.2850 C   0  0  0  0  0  0  0  0  0  0  0  0
  160.1590  200.8900  149.9570 N   0  0  0  0  0  2  0  0  0  0  0  0
  160.6380  203.0250  150.6070 C   0  0  0  0  0  0  0  0  0  0  0  0
  161.4800  204.2400  152.6770 C   0  0  0  0  0  1  0  0  0  0  0  0
  160.3370  201.7510  151.0410 O   0  0  0  0  0  0  0  0  0  0  0  0
  161.7280  205.0010  150.2360 C   0  0  0  0  0  0  0  0  0  0  0  0
  161.2340  204.1210  151.2110 C   0  0  0  0  0  0  0  0  0  0  0  0
  160.8950  201.2490  147.6280 N   0  0  0  0  0  2  0  0  0  0  0  0
  160.1570  201.8650  146.5350 C   0  0  0  0  0  2  0  0  0  0  0  0
  161.0880  202.1350  145.3660 C   0  0  0  0  0  2  0  0  0  0  0  0
  162.3520  204.3200  145.2990 N   0  0  0  0  0  1  0  0  0  0  0  0
  161.1500  203.5940  145.0640 C   0  0  0  0  0  0  0  0  0  0  0  0
  160.1490  204.1800  144.5770 O   0  0  0  0  0  0  0  0  0  0  0  0
  161.9190  207.5900  152.6050 C   0  0  0  0  0  2  0  0  0  0  0  0
  160.6080  207.7640  153.3670 C   0  0  0  0  0  2  0  0  0  0  0  0
  160.0820  209.1900  153.2680 C   0  0  0  0  0  2  0  0  0  0  0  0
  160.7360  209.0730  155.6690 C   0  0  0  0  0  1  0  0  0  0  0  0
  159.9180  209.8450  154.6430 C   0  0  1  0  0  3  0  0  0  0  0  0
  161.1100  211.6290  153.6780 F   0  0  0  0  0  0  0  0  0  0  0  0
  158.3150  214.4270  156.4990 O   0  0  0  0  0  1  0  0  0  0  0  0
  157.9210  212.2840  155.4280 C   0  0  1  0  0  3  0  0  0  0  0  0
  160.8030  211.8870  155.9790 C   0  0  1  0  0  3  0  0  0  0  0  0
  159.9850  212.7820  156.9290 C   0  0  1  0  0  3  0  0  0  0  0  0
  158.8770  212.1990  154.2230 C   0  0  1  0  0  0  0  0  0  0  0  0
  159.2610  213.6140  153.7750 C   0  0  0  0  0  1  0  0  0  0  0  0
  158.5060  213.0500  156.6280 C   0  0  1  0  0  3  0  0  0  0  0  0
  160.1850  211.3180  157.2510 C   0  0  0  0  0  2  0  0  0  0  0  0
  160.1490  211.3920  154.6500 C   0  0  2  0  0  0  0  0  0  0  0  0
  156.1380  213.9360  155.4700 O   0  0  0  0  0  1  0  0  0  0  0  0
  156.4530  212.6280  155.0990 C   0  0  2  0  0  3  0  0  0  0  0  0
  155.4930  211.6480  155.7570 C   0  0  0  0  0  3  0  0  0  0  0  0
  155.2030  210.5090  154.7980 C   0  0  0  0  0  2  0  0  0  0  0  0
  156.1820  210.3100  155.9380 C   0  0  0  0  0  2  0  0  0  0  0  0
  158.4580  212.1430  151.8260 O   0  0  0  0  0  1  0  0  0  0  0  0
  158.1630  211.5160  153.0390 C   0  0  0  0  0  2  0  0  0  0  0  0
  1 10  1  6  0  0  0
  1 26  1  0  0  0  0
  3  2  2  0  0  0  0
  4  2  1  0  0  0  0
  4  1  1  0  0  0  0
  5  4  2  0  0  0  0
  6  3  1  0  0  0  0
  7  6  2  0  0  0  0
  7  5  1  0  0  0  0
  8  5  1  0  0  0  0
  9  8  1  0  0  0  0
 11 13  1  0  0  0  0
 11 18  1  0  0  0  0
 12 13  1  0  0  0  0
 12 14  1  0  0  0  0
 13 15  2  0  0  0  0
 14 17  1  0  0  0  0
 15 17  1  0  0  0  0
 15 19  1  0  0  0  0
 18 10  1  0  0  0  0
 18 19  2  0  0  0  0
 19 16  1  0  0  0  0
 20 12  1  0  0  0  0
 21 20  1  0  0  0  0
 22 21  1  0  0  0  0
 24 23  1  0  0  0  0
 24 22  1  0  0  0  0
 25 24  2  0  0  0  0
 26 27  1  0  0  0  0
 28 27  1  0  0  0  0
 28 30  1  0  0  0  0
 30 40  1  0  0  0  0
 30 29  1  1  0  0  0
 33 42  1  6  0  0  0
 33 38  1  0  0  0  0
 34 35  1  0  0  0  0
 34 39  1  1  0  0  0
 35 39  1  1  0  0  0
 36 37  1  6  0  0  0
 36 40  1  0  0  0  0
 36 33  1  0  0  0  0
 38 32  1  6  0  0  0
 38 35  1  0  0  0  0
 40 31  1  6  0  0  0
 40 34  1  0  0  0  0
 42 41  1  1  0  0  0
 42 43  1  0  0  0  0
 43 45  1  0  0  0  0
 44 43  1  0  0  0  0
 44 45  1  0  0  0  0
 46 47  1  0  0  0  0
 47 36  1  0  0  0  0
M  END
>  <MODEL>
3

>  <REMARK>
 VINA RESULT:      -5.5      4.324      9.835
  Name = 
  16 active torsions:
  status: ('A' for Active; 'I' for Inactive)
    1  A    between atoms: N_2  and  N_24
    2  A    between atoms: C_7  and  C_37
    3  A    between atoms: C_10  and  C_11
    4  A    between atoms: C_10  and  C_28
    5  A    between atoms: C_11  and  N_24
    6  A    between atoms: C_12  and  C_37
    7  A    between atoms: C_17  and  C_40
    8  A    between atoms: C_20  and  C_44
    9  A    between atoms: C_25  and  C_41
   10  A    between atoms: C_25  and  C_44
   11  A    between atoms: C_26  and  O_27
   12  A    between atoms: C_35  and  C_43
   13  A    between atoms: C_41  and  C_45
   14  A    between atoms: C_43  and  C_44
   15  A    between atoms: C_45  and  C_46
   16  A    between atoms: C_46  and  C_47
                            x       y       z     vdW  Elec       q    Type
                         _______ _______ _______ _____ _____    ______ ____

>  <TORSDO>
F 16

$$$$
=
 OpenBabel11072414273D

 47 52  0  0  1  0  0  0  0  0999 V2000
  161.2730  208.0350  151.3800 C   0  0  1  0  0  3  0  0  0  0  0  0
  161.8390  210.4620  150.9750 C   0  0  0  0  0  3  0  0  0  0  0  0
  162.1390  211.5230  150.1180 C   0  0  0  0  0  3  0  0  0  0  0  0
  161.6120  209.1750  150.4600 C   0  0  0  0  0  0  0  0  0  0  0  0
  161.6810  208.9580  149.0710 C   0  0  0  0  0  0  0  0  0  0  0  0
  162.2110  211.3090  148.7400 C   0  0  0  0  0  3  0  0  0  0  0  0
  161.9830  210.0340  148.2200 C   0  0  0  0  0  3  0  0  0  0  0  0
  161.4470  207.6760  148.5610 O   0  0  0  0  0  0  0  0  0  0  0  0
  161.2840  207.4180  147.1720 C   0  0  0  0  0  1  0  0  0  0  0  0
  162.2610  206.8750  151.2600 C   0  0  0  0  0  2  0  0  0  0  0  0
  161.4850  204.9130  149.3400 S   0  0  0  0  0  0  0  0  0  0  0  0
  160.6590  202.2000  149.4060 N   0  0  0  0  0  0  0  0  0  0  0  0
  160.7150  203.5260  149.8850 C   0  0  0  0  0  0  0  0  0  0  0  0
  160.5020  201.3280  150.5160 N   0  0  0  0  0  2  0  0  0  0  0  0
  160.7040  203.4930  151.2080 C   0  0  0  0  0  0  0  0  0  0  0  0
  161.2940  204.7650  153.3310 C   0  0  0  0  0  1  0  0  0  0  0  0
  160.5260  202.1880  151.6150 O   0  0  0  0  0  0  0  0  0  0  0  0
  161.5840  205.5840  150.9130 C   0  0  0  0  0  0  0  0  0  0  0  0
  161.1410  204.6410  151.8530 C   0  0  0  0  0  0  0  0  0  0  0  0
  161.3150  201.8000  148.2330 N   0  0  0  0  0  2  0  0  0  0  0  0
  160.4410  202.1130  147.1130 C   0  0  0  0  0  2  0  0  0  0  0  0
  161.2520  202.2220  145.8330 C   0  0  0  0  0  2  0  0  0  0  0  0
  160.4770  204.2960  144.6200 N   0  0  0  0  0  1  0  0  0  0  0  0
  161.4400  203.6490  145.4460 C   0  0  0  0  0  0  0  0  0  0  0  0
  162.4360  204.2920  145.8700 O   0  0  0  0  0  0  0  0  0  0  0  0
  161.0070  208.4960  152.8190 C   0  0  0  0  0  2  0  0  0  0  0  0
  159.8440  209.4770  152.9480 C   0  0  0  0  0  2  0  0  0  0  0  0
  159.9690  210.3390  154.1960 C   0  0  0  0  0  2  0  0  0  0  0  0
  159.7190  209.0190  156.2930 C   0  0  0  0  0  1  0  0  0  0  0  0
  158.9940  209.9120  155.2970 C   0  0  1  0  0  3  0  0  0  0  0  0
  158.6070  211.1500  157.2610 F   0  0  0  0  0  0  0  0  0  0  0  0
  155.7630  213.8900  154.4340 O   0  0  0  0  0  1  0  0  0  0  0  0
  157.7780  212.6180  153.9720 C   0  0  1  0  0  3  0  0  0  0  0  0
  156.6610  210.7940  156.0190 C   0  0  1  0  0  3  0  0  0  0  0  0
  155.6890  211.6200  155.1570 C   0  0  1  0  0  3  0  0  0  0  0  0
  158.5400  212.4810  155.3040 C   0  0  1  0  0  0  0  0  0  0  0  0
  158.1340  213.6210  156.2440 C   0  0  0  0  0  1  0  0  0  0  0  0
  156.2470  212.6150  154.1330 C   0  0  1  0  0  3  0  0  0  0  0  0
  156.0520  210.2100  154.7500 C   0  0  0  0  0  2  0  0  0  0  0  0
  158.1920  211.0930  155.9390 C   0  0  2  0  0  0  0  0  0  0  0  0
  157.2900  214.4510  152.4510 O   0  0  0  0  0  1  0  0  0  0  0  0
  158.3200  213.6800  152.9930 C   0  0  2  0  0  3  0  0  0  0  0  0
  159.1410  213.0430  151.8820 C   0  0  0  0  0  3  0  0  0  0  0  0
  158.6310  213.5290  150.5390 C   0  0  0  0  0  2  0  0  0  0  0  0
  159.8940  214.1220  151.1290 C   0  0  0  0  0  2  0  0  0  0  0  0
  160.7600  212.8400  156.2350 O   0  0  0  0  0  1  0  0  0  0  0  0
  160.0570  212.6060  155.0510 C   0  0  0  0  0  2  0  0  0  0  0  0
  1 10  1  1  0  0  0
  1 26  1  0  0  0  0
  3  2  2  0  0  0  0
  4  2  1  0  0  0  0
  4  1  1  0  0  0  0
  5  4  2  0  0  0  0
  6  3  1  0  0  0  0
  7  6  2  0  0  0  0
  7  5  1  0  0  0  0
  8  5  1  0  0  0  0
  9  8  1  0  0  0  0
 11 13  1  0  0  0  0
 11 18  1  0  0  0  0
 12 13  1  0  0  0  0
 12 14  1  0  0  0  0
 13 15  2  0  0  0  0
 14 17  1  0  0  0  0
 15 17  1  0  0  0  0
 15 19  1  0  0  0  0
 18 10  1  0  0  0  0
 18 19  2  0  0  0  0
 19 16  1  0  0  0  0
 20 12  1  0  0  0  0
 21 20  1  0  0  0  0
 22 21  1  0  0  0  0
 23 24  1  0  0  0  0
 24 22  1  0  0  0  0
 24 25  2  0  0  0  0
 26 27  1  0  0  0  0
 27 28  1  0  0  0  0
 28 30  1  0  0  0  0
 30 40  1  0  0  0  0
 30 29  1  1  0  0  0
 33 42  1  1  0  0  0
 33 38  1  0  0  0  0
 33 36  1  0  0  0  0
 34 39  1  6  0  0  0
 35 39  1  6  0  0  0
 35 34  1  0  0  0  0
 36 40  1  0  0  0  0
 36 37  1  1  0  0  0
 38 32  1  1  0  0  0
 38 35  1  0  0  0  0
 40 34  1  0  0  0  0
 40 31  1  1  0  0  0
 42 41  1  6  0  0  0
 43 42  1  0  0  0  0
 44 45  1  0  0  0  0
 44 43  1  0  0  0  0
 45 43  1  0  0  0  0
 47 36  1  0  0  0  0
 47 46  1  0  0  0  0
M  END
>  <MODEL>
4

>  <REMARK>
 VINA RESULT:      -5.2      4.150      9.485
  Name = 
  16 active torsions:
  status: ('A' for Active; 'I' for Inactive)
    1  A    between atoms: N_2  and  N_24
    2  A    between atoms: C_7  and  C_37
    3  A    between atoms: C_10  and  C_11
    4  A    between atoms: C_10  and  C_28
    5  A    between atoms: C_11  and  N_24
    6  A    between atoms: C_12  and  C_37
    7  A    between atoms: C_17  and  C_40
    8  A    between atoms: C_20  and  C_44
    9  A    between atoms: C_25  and  C_41
   10  A    between atoms: C_25  and  C_44
   11  A    between atoms: C_26  and  O_27
   12  A    between atoms: C_35  and  C_43
   13  A    between atoms: C_41  and  C_45
   14  A    between atoms: C_43  and  C_44
   15  A    between atoms: C_45  and  C_46
   16  A    between atoms: C_46  and  C_47
                            x       y       z     vdW  Elec       q    Type
                         _______ _______ _______ _____ _____    ______ ____

>  <TORSDO>
F 16

$$$$
=
 OpenBabel11072414273D

 47 52  0  0  1  0  0  0  0  0999 V2000
  161.4080  212.4940  147.4720 C   0  0  1  0  0  3  0  0  0  0  0  0
  159.4360  212.2670  145.9130 C   0  0  0  0  0  3  0  0  0  0  0  0
  158.8640  212.3440  144.6410 C   0  0  0  0  0  3  0  0  0  0  0  0
  160.7880  212.5920  146.1060 C   0  0  0  0  0  0  0  0  0  0  0  0
  161.5710  212.9920  145.0080 C   0  0  0  0  0  0  0  0  0  0  0  0
  159.6390  212.7440  143.5510 C   0  0  0  0  0  3  0  0  0  0  0  0
  160.9860  213.0650  143.7330 C   0  0  0  0  0  3  0  0  0  0  0  0
  162.9210  213.3100  145.2010 O   0  0  0  0  0  0  0  0  0  0  0  0
  163.7260  213.9030  144.1900 C   0  0  0  0  0  1  0  0  0  0  0  0
  161.1830  213.7540  148.3070 C   0  0  0  0  0  2  0  0  0  0  0  0
  160.3690  213.2330  150.9910 S   0  0  0  0  0  0  0  0  0  0  0  0
  158.0180  213.6260  152.5290 N   0  0  0  0  0  0  0  0  0  0  0  0
  158.7330  213.3070  151.3550 C   0  0  0  0  0  0  0  0  0  0  0  0
  156.7770  214.2070  152.1530 N   0  0  0  0  0  2  0  0  0  0  0  0
  158.0470  213.7490  150.3130 C   0  0  0  0  0  0  0  0  0  0  0  0
  158.1840  214.4520  147.8720 C   0  0  0  0  0  1  0  0  0  0  0  0
  156.8420  214.2500  150.7600 O   0  0  0  0  0  0  0  0  0  0  0  0
  160.1060  213.5730  149.3320 C   0  0  0  0  0  0  0  0  0  0  0  0
  158.7520  213.8800  149.1260 C   0  0  0  0  0  0  0  0  0  0  0  0
  158.6610  213.9570  153.7300 N   0  0  0  0  0  2  0  0  0  0  0  0
  157.9580  213.2750  154.8060 C   0  0  0  0  0  2  0  0  0  0  0  0
  158.9070  212.3400  155.5360 C   0  0  0  0  0  2  0  0  0  0  0  0
  159.2590  209.8480  155.7360 N   0  0  0  0  0  1  0  0  0  0  0  0
  158.3740  210.9480  155.5500 C   0  0  0  0  0  0  0  0  0  0  0  0
  157.1390  210.7450  155.4240 O   0  0  0  0  0  0  0  0  0  0  0  0
  161.0540  211.1850  148.1890 C   0  0  0  0  0  2  0  0  0  0  0  0
  162.2520  210.4860  148.8270 C   0  0  0  0  0  2  0  0  0  0  0  0
  162.1430  208.9710  148.7230 C   0  0  0  0  0  2  0  0  0  0  0  0
  162.6390  209.3270  151.1370 C   0  0  0  0  0  1  0  0  0  0  0  0
  162.3240  208.2810  150.0780 C   0  0  1  0  0  3  0  0  0  0  0  0
  160.0790  208.0920  150.7560 F   0  0  0  0  0  0  0  0  0  0  0  0
  160.8100  203.3130  150.2820 O   0  0  0  0  0  1  0  0  0  0  0  0
  161.7520  205.2280  149.1240 C   0  0  1  0  0  3  0  0  0  0  0  0
  161.4680  206.5140  151.7760 C   0  0  1  0  0  3  0  0  0  0  0  0
  161.7080  204.9940  151.7140 C   0  0  1  0  0  3  0  0  0  0  0  0
  160.7370  206.3800  149.2580 C   0  0  1  0  0  0  0  0  0  0  0  0
  159.3380  205.8020  149.5010 C   0  0  0  0  0  1  0  0  0  0  0  0
  161.7970  204.2990  150.3500 C   0  0  1  0  0  3  0  0  0  0  0  0
  162.8750  205.9400  151.8830 C   0  0  0  0  0  2  0  0  0  0  0  0
  161.1720  207.2930  150.4540 C   0  0  2  0  0  0  0  0  0  0  0  0
  161.6660  203.1170  147.9220 O   0  0  0  0  0  1  0  0  0  0  0  0
  161.7660  204.5000  147.7640 C   0  0  2  0  0  3  0  0  0  0  0  0
  163.0100  204.8490  146.9600 C   0  0  0  0  0  3  0  0  0  0  0  0
  162.9270  204.1910  145.5970 C   0  0  0  0  0  2  0  0  0  0  0  0
  162.6130  205.6660  145.7460 C   0  0  0  0  0  2  0  0  0  0  0  0
  159.9100  206.5420  146.9740 O   0  0  0  0  0  1  0  0  0  0  0  0
  160.6850  207.1840  147.9430 C   0  0  0  0  0  2  0  0  0  0  0  0
  1 26  1  1  0  0  0
  1 10  1  0  0  0  0
  2  4  1  0  0  0  0
  3  2  2  0  0  0  0
  4  1  1  0  0  0  0
  5  8  1  0  0  0  0
  5  4  2  0  0  0  0
  6  7  2  0  0  0  0
  6  3  1  0  0  0  0
  7  5  1  0  0  0  0
  9  8  1  0  0  0  0
 10 18  1  0  0  0  0
 11 13  1  0  0  0  0
 12 20  1  0  0  0  0
 13 12  1  0  0  0  0
 14 12  1  0  0  0  0
 15 17  1  0  0  0  0
 15 13  2  0  0  0  0
 16 19  1  0  0  0  0
 17 14  1  0  0  0  0
 18 11  1  0  0  0  0
 19 18  2  0  0  0  0
 19 15  1  0  0  0  0
 20 21  1  0  0  0  0
 21 22  1  0  0  0  0
 22 24  1  0  0  0  0
 24 23  1  0  0  0  0
 25 24  2  0  0  0  0
 26 27  1  0  0  0  0
 28 27  1  0  0  0  0
 28 30  1  0  0  0  0
 30 40  1  0  0  0  0
 30 29  1  1  0  0  0
 33 42  1  6  0  0  0
 33 36  1  0  0  0  0
 33 38  1  0  0  0  0
 34 39  1  6  0  0  0
 35 34  1  0  0  0  0
 35 39  1  6  0  0  0
 36 37  1  1  0  0  0
 36 40  1  0  0  0  0
 38 32  1  6  0  0  0
 38 35  1  0  0  0  0
 40 31  1  1  0  0  0
 40 34  1  0  0  0  0
 42 41  1  1  0  0  0
 43 42  1  0  0  0  0
 44 45  1  0  0  0  0
 44 43  1  0  0  0  0
 45 43  1  0  0  0  0
 46 47  1  0  0  0  0
 47 36  1  0  0  0  0
M  END
>  <MODEL>
5

>  <REMARK>
 VINA RESULT:      -5.0      2.524      6.403
  Name = 
  16 active torsions:
  status: ('A' for Active; 'I' for Inactive)
    1  A    between atoms: N_2  and  N_24
    2  A    between atoms: C_7  and  C_37
    3  A    between atoms: C_10  and  C_11
    4  A    between atoms: C_10  and  C_28
    5  A    between atoms: C_11  and  N_24
    6  A    between atoms: C_12  and  C_37
    7  A    between atoms: C_17  and  C_40
    8  A    between atoms: C_20  and  C_44
    9  A    between atoms: C_25  and  C_41
   10  A    between atoms: C_25  and  C_44
   11  A    between atoms: C_26  and  O_27
   12  A    between atoms: C_35  and  C_43
   13  A    between atoms: C_41  and  C_45
   14  A    between atoms: C_43  and  C_44
   15  A    between atoms: C_45  and  C_46
   16  A    between atoms: C_46  and  C_47
                            x       y       z     vdW  Elec       q    Type
                         _______ _______ _______ _____ _____    ______ ____

>  <TORSDO>
F 16

$$$$
=
 OpenBabel11072414273D

 47 52  0  0  1  0  0  0  0  0999 V2000
  161.4990  211.9410  150.1760 C   0  0  1  0  0  3  0  0  0  0  0  0
  162.9170  212.3600  148.1300 C   0  0  0  0  0  3  0  0  0  0  0  0
  163.0650  212.7880  146.8090 C   0  0  0  0  0  3  0  0  0  0  0  0
  161.6560  212.3860  148.7500 C   0  0  0  0  0  0  0  0  0  0  0  0
  160.5390  212.8550  148.0340 C   0  0  0  0  0  0  0  0  0  0  0  0
  161.9560  213.2500  146.0970 C   0  0  0  0  0  3  0  0  0  0  0  0
  160.7000  213.2840  146.7070 C   0  0  0  0  0  3  0  0  0  0  0  0
  159.2850  212.8860  148.6560 O   0  0  0  0  0  0  0  0  0  0  0  0
  158.1610  213.5470  148.0900 C   0  0  0  0  0  1  0  0  0  0  0  0
  160.5550  212.8450  150.9690 C   0  0  0  0  0  2  0  0  0  0  0  0
  160.7930  211.3290  153.3740 S   0  0  0  0  0  0  0  0  0  0  0  0
  159.1290  210.7410  155.5950 N   0  0  0  0  0  0  0  0  0  0  0  0
  159.3950  210.9660  154.2280 C   0  0  0  0  0  0  0  0  0  0  0  0
  157.8010  211.1650  155.8690 N   0  0  0  0  0  2  0  0  0  0  0  0
  158.3540  211.5850  153.6950 C   0  0  0  0  0  0  0  0  0  0  0  0
  157.5610  213.0610  151.7810 C   0  0  0  0  0  1  0  0  0  0  0  0
  157.3590  211.6730  154.6460 O   0  0  0  0  0  0  0  0  0  0  0  0
  159.9310  212.1360  152.1320 C   0  0  0  0  0  0  0  0  0  0  0  0
  158.5760  212.2300  152.4870 C   0  0  0  0  0  0  0  0  0  0  0  0
  160.1370  210.7770  156.5690 N   0  0  0  0  0  2  0  0  0  0  0  0
  160.2560  209.4390  157.1270 C   0  0  0  0  0  2  0  0  0  0  0  0
  161.3280  208.6590  156.3850 C   0  0  0  0  0  2  0  0  0  0  0  0
  159.4790  206.9970  155.9500 N   0  0  0  0  0  1  0  0  0  0  0  0
  160.7210  207.5750  155.5620 C   0  0  0  0  0  0  0  0  0  0  0  0
  161.2910  207.1880  154.5090 O   0  0  0  0  0  0  0  0  0  0  0  0
  161.1940  210.4420  150.2980 C   0  0  0  0  0  2  0  0  0  0  0  0
  162.4400  209.5610  150.3490 C   0  0  0  0  0  2  0  0  0  0  0  0
  162.3200  208.4740  151.4090 C   0  0  0  0  0  2  0  0  0  0  0  0
  163.2520  206.1950  151.7780 C   0  0  0  0  0  1  0  0  0  0  0  0
  162.4580  207.0690  150.8180 C   0  0  1  0  0  3  0  0  0  0  0  0
  160.1720  207.4580  150.4230 F   0  0  0  0  0  0  0  0  0  0  0  0
  160.1770  202.9450  148.6270 O   0  0  0  0  0  1  0  0  0  0  0  0
  161.8830  204.6700  148.7040 C   0  0  1  0  0  3  0  0  0  0  0  0
  160.5900  205.3280  151.2840 C   0  0  1  0  0  3  0  0  0  0  0  0
  160.5550  203.8690  150.7920 C   0  0  1  0  0  3  0  0  0  0  0  0
  161.1540  206.0220  148.8160 C   0  0  1  0  0  0  0  0  0  0  0  0
  159.7340  205.8840  148.2560 C   0  0  0  0  0  1  0  0  0  0  0  0
  161.1650  203.5180  149.4300 C   0  0  1  0  0  3  0  0  0  0  0  0
  161.6430  204.3240  151.7380 C   0  0  0  0  0  2  0  0  0  0  0  0
  161.1120  206.4440  150.3240 C   0  0  2  0  0  0  0  0  0  0  0  0
  163.5740  205.0370  146.9960 O   0  0  0  0  0  1  0  0  0  0  0  0
  162.4220  204.3110  147.3040 C   0  0  2  0  0  3  0  0  0  0  0  0
  161.3650  204.5220  146.2300 C   0  0  0  0  0  3  0  0  0  0  0  0
  162.0060  204.4000  144.8620 C   0  0  0  0  0  2  0  0  0  0  0  0
  161.2000  203.2480  145.4270 C   0  0  0  0  0  2  0  0  0  0  0  0
  160.9960  207.8300  147.1950 O   0  0  0  0  0  1  0  0  0  0  0  0
  161.8860  207.0820  147.9690 C   0  0  0  0  0  2  0  0  0  0  0  0
  1 26  1  6  0  0  0
  1 10  1  0  0  0  0
  2  4  1  0  0  0  0
  3  2  2  0  0  0  0
  4  1  1  0  0  0  0
  5  8  1  0  0  0  0
  5  4  2  0  0  0  0
  6  7  2  0  0  0  0
  6  3  1  0  0  0  0
  7  5  1  0  0  0  0
  9  8  1  0  0  0  0
 10 18  1  0  0  0  0
 11 13  1  0  0  0  0
 12 14  1  0  0  0  0
 12 20  1  0  0  0  0
 13 12  1  0  0  0  0
 15 13  2  0  0  0  0
 15 17  1  0  0  0  0
 16 19  1  0  0  0  0
 17 14  1  0  0  0  0
 18 19  2  0  0  0  0
 18 11  1  0  0  0  0
 19 15  1  0  0  0  0
 20 21  1  0  0  0  0
 22 21  1  0  0  0  0
 24 23  1  0  0  0  0
 24 22  1  0  0  0  0
 25 24  2  0  0  0  0
 26 27  1  0  0  0  0
 27 28  1  0  0  0  0
 30 28  1  0  0  0  0
 30 29  1  1  0  0  0
 33 42  1  6  0  0  0
 33 36  1  0  0  0  0
 33 38  1  0  0  0  0
 34 39  1  1  0  0  0
 35 34  1  0  0  0  0
 35 39  1  1  0  0  0
 36 37  1  6  0  0  0
 36 40  1  0  0  0  0
 38 32  1  6  0  0  0
 38 35  1  0  0  0  0
 40 31  1  1  0  0  0
 40 30  1  0  0  0  0
 40 34  1  0  0  0  0
 42 41  1  6  0  0  0
 43 42  1  0  0  0  0
 44 45  1  0  0  0  0
 44 43  1  0  0  0  0
 45 43  1  0  0  0  0
 46 47  1  0  0  0  0
 47 36  1  0  0  0  0
M  END
>  <MODEL>
6

>  <REMARK>
 VINA RESULT:      -4.9      2.555      5.759
  Name = 
  16 active torsions:
  status: ('A' for Active; 'I' for Inactive)
    1  A    between atoms: N_2  and  N_24
    2  A    between atoms: C_7  and  C_37
    3  A    between atoms: C_10  and  C_11
    4  A    between atoms: C_10  and  C_28
    5  A    between atoms: C_11  and  N_24
    6  A    between atoms: C_12  and  C_37
    7  A    between atoms: C_17  and  C_40
    8  A    between atoms: C_20  and  C_44
    9  A    between atoms: C_25  and  C_41
   10  A    between atoms: C_25  and  C_44
   11  A    between atoms: C_26  and  O_27
   12  A    between atoms: C_35  and  C_43
   13  A    between atoms: C_41  and  C_45
   14  A    between atoms: C_43  and  C_44
   15  A    between atoms: C_45  and  C_46
   16  A    between atoms: C_46  and  C_47
                            x       y       z     vdW  Elec       q    Type
                         _______ _______ _______ _____ _____    ______ ____

>  <TORSDO>
F 16

$$$$
=
 OpenBabel11072414273D

 47 52  0  0  1  0  0  0  0  0999 V2000
  161.5040  211.4740  151.0920 C   0  0  1  0  0  3  0  0  0  0  0  0
  162.4370  211.6050  148.7500 C   0  0  0  0  0  3  0  0  0  0  0  0
  162.4270  212.1270  147.4550 C   0  0  0  0  0  3  0  0  0  0  0  0
  161.4840  212.0230  149.6930 C   0  0  0  0  0  0  0  0  0  0  0  0
  160.5190  212.9810  149.3290 C   0  0  0  0  0  0  0  0  0  0  0  0
  161.4690  213.0740  147.0920 C   0  0  0  0  0  3  0  0  0  0  0  0
  160.5200  213.5000  148.0240 C   0  0  0  0  0  3  0  0  0  0  0  0
  159.5750  213.4010  150.2730 O   0  0  0  0  0  0  0  0  0  0  0  0
  158.5580  214.3500  149.9750 C   0  0  0  0  0  1  0  0  0  0  0  0
  160.0990  211.2410  151.6470 C   0  0  0  0  0  2  0  0  0  0  0  0
  159.3520  213.2360  153.5450 S   0  0  0  0  0  0  0  0  0  0  0  0
  158.7460  213.2990  156.3150 N   0  0  0  0  0  0  0  0  0  0  0  0
  159.4540  212.8600  155.1770 C   0  0  0  0  0  0  0  0  0  0  0  0
  158.7140  212.2380  157.2600 N   0  0  0  0  0  2  0  0  0  0  0  0
  159.7570  211.5820  155.3390 C   0  0  0  0  0  0  0  0  0  0  0  0
  160.3710  209.4180  154.1510 C   0  0  0  0  0  1  0  0  0  0  0  0
  159.3680  211.1940  156.6040 O   0  0  0  0  0  0  0  0  0  0  0  0
  159.9610  211.7080  153.0640 C   0  0  0  0  0  0  0  0  0  0  0  0
  160.0960  210.8820  154.1900 C   0  0  0  0  0  0  0  0  0  0  0  0
  157.7260  214.2580  156.2380 N   0  0  0  0  0  2  0  0  0  0  0  0
  156.4750  213.5940  156.5690 C   0  0  0  0  0  2  0  0  0  0  0  0
  155.8930  212.9330  155.3300 C   0  0  0  0  0  2  0  0  0  0  0  0
  155.2870  211.0760  156.9290 N   0  0  0  0  0  1  0  0  0  0  0  0
  155.5610  211.5050  155.6000 C   0  0  0  0  0  0  0  0  0  0  0  0
  155.4950  210.6820  154.6490 O   0  0  0  0  0  0  0  0  0  0  0  0
  162.4530  210.2780  151.2440 C   0  0  0  0  0  2  0  0  0  0  0  0
  161.7710  208.9230  151.0640 C   0  0  0  0  0  2  0  0  0  0  0  0
  162.7190  207.8900  150.4700 C   0  0  0  0  0  2  0  0  0  0  0  0
  162.3630  206.3290  152.3780 C   0  0  0  0  0  1  0  0  0  0  0  0
  162.3370  206.4600  150.8620 C   0  0  1  0  0  3  0  0  0  0  0  0
  160.0630  206.8910  150.4410 F   0  0  0  0  0  0  0  0  0  0  0  0
  160.2610  202.8560  147.7450 O   0  0  0  0  0  1  0  0  0  0  0  0
  161.9200  204.5500  148.2670 C   0  0  1  0  0  3  0  0  0  0  0  0
  160.4920  204.6330  150.8590 C   0  0  1  0  0  3  0  0  0  0  0  0
  160.5160  203.3100  150.0710 C   0  0  1  0  0  3  0  0  0  0  0  0
  161.1530  205.8380  148.6220 C   0  0  1  0  0  0  0  0  0  0  0  0
  159.7650  205.8010  147.9740 C   0  0  0  0  0  1  0  0  0  0  0  0
  161.1970  203.2610  148.6990 C   0  0  1  0  0  3  0  0  0  0  0  0
  161.5480  203.5720  151.1450 C   0  0  0  0  0  2  0  0  0  0  0  0
  161.0310  205.9330  150.1810 C   0  0  2  0  0  0  0  0  0  0  0  0
  163.8230  205.0330  146.8320 O   0  0  0  0  0  1  0  0  0  0  0  0
  162.5320  204.5010  146.8510 C   0  0  2  0  0  3  0  0  0  0  0  0
  161.6510  205.2190  145.8400 C   0  0  0  0  0  3  0  0  0  0  0  0
  162.2120  205.0080  144.4470 C   0  0  0  0  0  2  0  0  0  0  0  0
  161.0160  204.2030  144.9120 C   0  0  0  0  0  2  0  0  0  0  0  0
  161.0160  208.0850  147.6960 O   0  0  0  0  0  1  0  0  0  0  0  0
  161.8990  207.0620  148.0530 C   0  0  0  0  0  2  0  0  0  0  0  0
  1 26  1  6  0  0  0
  1 10  1  0  0  0  0
  2  4  1  0  0  0  0
  3  2  2  0  0  0  0
  4  1  1  0  0  0  0
  5  4  2  0  0  0  0
  5  8  1  0  0  0  0
  6  3  1  0  0  0  0
  6  7  2  0  0  0  0
  7  5  1  0  0  0  0
  9  8  1  0  0  0  0
 10 18  1  0  0  0  0
 11 13  1  0  0  0  0
 12 14  1  0  0  0  0
 13 15  2  0  0  0  0
 13 12  1  0  0  0  0
 15 17  1  0  0  0  0
 16 19  1  0  0  0  0
 17 14  1  0  0  0  0
 18 11  1  0  0  0  0
 18 19  2  0  0  0  0
 19 15  1  0  0  0  0
 20 12  1  0  0  0  0
 20 21  1  0  0  0  0
 22 24  1  0  0  0  0
 22 21  1  0  0  0  0
 24 23  1  0  0  0  0
 25 24  2  0  0  0  0
 27 26  1  0  0  0  0
 28 30  1  0  0  0  0
 28 27  1  0  0  0  0
 30 29  1  1  0  0  0
 33 42  1  6  0  0  0
 33 36  1  0  0  0  0
 33 38  1  0  0  0  0
 34 39  1  1  0  0  0
 35 34  1  0  0  0  0
 35 39  1  1  0  0  0
 36 37  1  6  0  0  0
 36 40  1  0  0  0  0
 38 32  1  6  0  0  0
 38 35  1  0  0  0  0
 40 31  1  1  0  0  0
 40 34  1  0  0  0  0
 40 30  1  0  0  0  0
 42 41  1  1  0  0  0
 43 42  1  0  0  0  0
 44 45  1  0  0  0  0
 44 43  1  0  0  0  0
 45 43  1  0  0  0  0
 46 47  1  0  0  0  0
 47 36  1  0  0  0  0
M  END
>  <MODEL>
7

>  <REMARK>
 VINA RESULT:      -4.7      2.687      5.322
  Name = 
  16 active torsions:
  status: ('A' for Active; 'I' for Inactive)
    1  A    between atoms: N_2  and  N_24
    2  A    between atoms: C_7  and  C_37
    3  A    between atoms: C_10  and  C_11
    4  A    between atoms: C_10  and  C_28
    5  A    between atoms: C_11  and  N_24
    6  A    between atoms: C_12  and  C_37
    7  A    between atoms: C_17  and  C_40
    8  A    between atoms: C_20  and  C_44
    9  A    between atoms: C_25  and  C_41
   10  A    between atoms: C_25  and  C_44
   11  A    between atoms: C_26  and  O_27
   12  A    between atoms: C_35  and  C_43
   13  A    between atoms: C_41  and  C_45
   14  A    between atoms: C_43  and  C_44
   15  A    between atoms: C_45  and  C_46
   16  A    between atoms: C_46  and  C_47
                            x       y       z     vdW  Elec       q    Type
                         _______ _______ _______ _____ _____    ______ ____

>  <TORSDO>
F 16

$$$$
=
 OpenBabel11072414273D

 47 52  0  0  1  0  0  0  0  0999 V2000
  161.2840  208.8850  151.3260 C   0  0  1  0  0  3  0  0  0  0  0  0
  161.4790  206.3700  151.4090 C   0  0  0  0  0  3  0  0  0  0  0  0
  161.4250  205.1600  152.1030 C   0  0  0  0  0  3  0  0  0  0  0  0
  161.2430  207.5840  152.0750 C   0  0  0  0  0  0  0  0  0  0  0  0
  160.9430  207.5760  153.4500 C   0  0  0  0  0  0  0  0  0  0  0  0
  161.1320  205.1510  153.4680 C   0  0  0  0  0  3  0  0  0  0  0  0
  160.8920  206.3520  154.1380 C   0  0  0  0  0  3  0  0  0  0  0  0
  160.7020  208.7860  154.1110 O   0  0  0  0  0  0  0  0  0  0  0  0
  160.3780  208.8580  155.4940 C   0  0  0  0  0  1  0  0  0  0  0  0
  161.4500  210.0890  152.2540 C   0  0  0  0  0  2  0  0  0  0  0  0
  161.3610  212.1830  150.3190 S   0  0  0  0  0  0  0  0  0  0  0  0
  159.4220  214.0390  149.4010 N   0  0  0  0  0  0  0  0  0  0  0  0
  160.0850  213.2700  150.3810 C   0  0  0  0  0  0  0  0  0  0  0  0
  158.0710  214.2110  149.8050 N   0  0  0  0  0  2  0  0  0  0  0  0
  159.1970  212.8900  151.2870 C   0  0  0  0  0  0  0  0  0  0  0  0
  158.6690  211.1910  153.1040 C   0  0  0  0  0  1  0  0  0  0  0  0
  157.9880  213.4830  150.9930 O   0  0  0  0  0  0  0  0  0  0  0  0
  160.8160  211.3280  151.7000 C   0  0  0  0  0  0  0  0  0  0  0  0
  159.5650  211.8250  152.0960 C   0  0  0  0  0  0  0  0  0  0  0  0
  159.7970  214.0140  148.0510 N   0  0  0  0  0  2  0  0  0  0  0  0
  159.1360  212.8750  147.4330 C   0  0  0  0  0  2  0  0  0  0  0  0
  160.1120  212.1270  146.5410 C   0  0  0  0  0  2  0  0  0  0  0  0
  160.9270  212.6770  144.2160 N   0  0  0  0  0  1  0  0  0  0  0  0
  159.8450  212.4150  145.1040 C   0  0  0  0  0  0  0  0  0  0  0  0
  158.6650  212.4020  144.6660 O   0  0  0  0  0  0  0  0  0  0  0  0
  162.2610  208.8560  150.1430 C   0  0  0  0  0  2  0  0  0  0  0  0
  161.5860  208.6480  148.7900 C   0  0  0  0  0  2  0  0  0  0  0  0
  162.4130  207.7510  147.8790 C   0  0  0  0  0  2  0  0  0  0  0  0
  160.3680  206.3850  148.2770 C   0  0  0  0  0  1  0  0  0  0  0  0
  161.7640  206.3800  147.6690 C   0  0  1  0  0  3  0  0  0  0  0  0
  162.8990  206.5240  145.6130 F   0  0  0  0  0  0  0  0  0  0  0  0
  159.9430  202.9220  144.2430 O   0  0  0  0  0  1  0  0  0  0  0  0
  160.8920  203.5210  146.3960 C   0  0  1  0  0  3  0  0  0  0  0  0
  160.5910  206.2760  145.3560 C   0  0  1  0  0  3  0  0  0  0  0  0
  159.6040  205.1950  144.8780 C   0  0  1  0  0  3  0  0  0  0  0  0
  162.1750  204.3260  146.1150 C   0  0  1  0  0  0  0  0  0  0  0  0
  162.7080  203.9670  144.7230 C   0  0  0  0  0  1  0  0  0  0  0  0
  159.7800  203.7490  145.3560 C   0  0  1  0  0  3  0  0  0  0  0  0
  159.2480  206.0820  146.0490 C   0  0  0  0  0  2  0  0  0  0  0  0
  161.8360  205.8530  146.1980 C   0  0  2  0  0  0  0  0  0  0  0  0
  160.7830  201.1760  145.7600 O   0  0  0  0  0  1  0  0  0  0  0  0
  161.0980  202.0480  146.8040 C   0  0  2  0  0  3  0  0  0  0  0  0
  160.2900  201.6970  148.0450 C   0  0  0  0  0  3  0  0  0  0  0  0
  161.1980  201.0420  149.0670 C   0  0  0  0  0  2  0  0  0  0  0  0
  160.8040  202.4970  149.2250 C   0  0  0  0  0  2  0  0  0  0  0  0
  164.5370  204.3160  146.7020 O   0  0  0  0  0  1  0  0  0  0  0  0
  163.2630  203.9470  147.1400 C   0  0  0  0  0  2  0  0  0  0  0  0
  1 26  1  6  0  0  0
  1  4  1  0  0  0  0
  1 10  1  0  0  0  0
  2  4  2  0  0  0  0
  2  3  1  0  0  0  0
  3  6  2  0  0  0  0
  4  5  1  0  0  0  0
  5  8  1  0  0  0  0
  5  7  2  0  0  0  0
  6  7  1  0  0  0  0
  8  9  1  0  0  0  0
 11 13  1  0  0  0  0
 11 18  1  0  0  0  0
 12 14  1  0  0  0  0
 12 13  1  0  0  0  0
 13 15  2  0  0  0  0
 14 17  1  0  0  0  0
 15 19  1  0  0  0  0
 17 15  1  0  0  0  0
 18 19  2  0  0  0  0
 18 10  1  0  0  0  0
 19 16  1  0  0  0  0
 20 12  1  0  0  0  0
 21 20  1  0  0  0  0
 22 21  1  0  0  0  0
 23 24  1  0  0  0  0
 24 22  1  0  0  0  0
 25 24  2  0  0  0  0
 27 26  1  0  0  0  0
 28 27  1  0  0  0  0
 30 28  1  0  0  0  0
 30 29  1  6  0  0  0
 33 42  1  6  0  0  0
 34 39  1  1  0  0  0
 34 40  1  0  0  0  0
 35 38  1  0  0  0  0
 35 34  1  0  0  0  0
 35 39  1  1  0  0  0
 36 37  1  6  0  0  0
 36 40  1  0  0  0  0
 36 33  1  0  0  0  0
 36 47  1  0  0  0  0
 38 32  1  6  0  0  0
 38 33  1  0  0  0  0
 40 31  1  6  0  0  0
 40 30  1  0  0  0  0
 42 41  1  6  0  0  0
 42 43  1  0  0  0  0
 43 44  1  0  0  0  0
 43 45  1  0  0  0  0
 44 45  1  0  0  0  0
 46 47  1  0  0  0  0
M  END
>  <MODEL>
8

>  <REMARK>
 VINA RESULT:      -4.7      2.164      3.834
  Name = 
  16 active torsions:
  status: ('A' for Active; 'I' for Inactive)
    1  A    between atoms: N_2  and  N_24
    2  A    between atoms: C_7  and  C_37
    3  A    between atoms: C_10  and  C_11
    4  A    between atoms: C_10  and  C_28
    5  A    between atoms: C_11  and  N_24
    6  A    between atoms: C_12  and  C_37
    7  A    between atoms: C_17  and  C_40
    8  A    between atoms: C_20  and  C_44
    9  A    between atoms: C_25  and  C_41
   10  A    between atoms: C_25  and  C_44
   11  A    between atoms: C_26  and  O_27
   12  A    between atoms: C_35  and  C_43
   13  A    between atoms: C_41  and  C_45
   14  A    between atoms: C_43  and  C_44
   15  A    between atoms: C_45  and  C_46
   16  A    between atoms: C_46  and  C_47
                            x       y       z     vdW  Elec       q    Type
                         _______ _______ _______ _____ _____    ______ ____

>  <TORSDO>
F 16

$$$$
=
 OpenBabel11072414273D

 47 52  0  0  1  0  0  0  0  0999 V2000
  161.8490  207.8010  151.2430 C   0  0  1  0  0  3  0  0  0  0  0  0
  161.0260  208.1600  153.6020 C   0  0  0  0  0  3  0  0  0  0  0  0
  160.6860  207.6780  154.8680 C   0  0  0  0  0  3  0  0  0  0  0  0
  161.4680  207.2810  152.6000 C   0  0  0  0  0  0  0  0  0  0  0  0
  161.5750  205.9050  152.8800 C   0  0  0  0  0  0  0  0  0  0  0  0
  160.7890  206.3130  155.1450 C   0  0  0  0  0  3  0  0  0  0  0  0
  161.2310  205.4320  154.1570 C   0  0  0  0  0  3  0  0  0  0  0  0
  162.0220  205.0320  151.8820 O   0  0  0  0  0  0  0  0  0  0  0  0
  161.5290  203.7050  151.7410 C   0  0  0  0  0  1  0  0  0  0  0  0
  160.7630  207.5520  150.1960 C   0  0  0  0  0  2  0  0  0  0  0  0
  160.7230  205.1540  148.6530 S   0  0  0  0  0  0  0  0  0  0  0  0
  161.5410  204.3830  146.0480 N   0  0  0  0  0  0  0  0  0  0  0  0
  161.6660  205.0830  147.2670 C   0  0  0  0  0  0  0  0  0  0  0  0
  162.1450  205.1570  145.0220 N   0  0  0  0  0  2  0  0  0  0  0  0
  162.2120  206.2620  147.0180 C   0  0  0  0  0  0  0  0  0  0  0  0
  162.5130  208.6410  147.8670 C   0  0  0  0  0  1  0  0  0  0  0  0
  162.5570  206.3150  145.6840 O   0  0  0  0  0  0  0  0  0  0  0  0
  161.2590  206.7330  149.0440 C   0  0  0  0  0  0  0  0  0  0  0  0
  162.0570  207.2290  148.0010 C   0  0  0  0  0  0  0  0  0  0  0  0
  160.4720  203.5120  145.7920 N   0  0  0  0  0  2  0  0  0  0  0  0
  160.9360  202.1590  146.0550 C   0  0  0  0  0  2  0  0  0  0  0  0
  161.6200  202.0970  147.4100 C   0  0  0  0  0  2  0  0  0  0  0  0
  159.8800  201.2720  149.0430 N   0  0  0  0  0  1  0  0  0  0  0  0
  161.0340  201.0130  148.2500 C   0  0  0  0  0  0  0  0  0  0  0  0
  161.5420  199.8620  148.2390 O   0  0  0  0  0  0  0  0  0  0  0  0
  162.3690  209.2440  151.2880 C   0  0  0  0  0  2  0  0  0  0  0  0
  161.2800  210.2980  151.0980 C   0  0  0  0  0  2  0  0  0  0  0  0
  161.1270  211.1790  152.3310 C   0  0  0  0  0  2  0  0  0  0  0  0
  158.8580  210.3440  152.9320 C   0  0  0  0  0  1  0  0  0  0  0  0
  159.6700  211.5820  152.5790 C   0  0  1  0  0  3  0  0  0  0  0  0
  159.9040  213.9060  152.8610 F   0  0  0  0  0  0  0  0  0  0  0  0
  157.8500  213.1310  157.1940 O   0  0  0  0  0  1  0  0  0  0  0  0
  157.6090  212.0120  155.0530 C   0  0  1  0  0  3  0  0  0  0  0  0
  160.4750  212.7010  154.7790 C   0  0  1  0  0  3  0  0  0  0  0  0
  159.9050  212.4600  156.1890 C   0  0  1  0  0  3  0  0  0  0  0  0
  158.0010  213.0300  153.9660 C   0  0  1  0  0  0  0  0  0  0  0  0
  157.8150  214.4520  154.5060 C   0  0  0  0  0  1  0  0  0  0  0  0
  158.4110  212.1630  156.3590 C   0  0  1  0  0  3  0  0  0  0  0  0
  160.5700  211.3300  155.4370 C   0  0  0  0  0  2  0  0  0  0  0  0
  159.4950  212.7830  153.5650 C   0  0  2  0  0  0  0  0  0  0  0  0
  155.5030  212.8560  155.9260 O   0  0  0  0  0  1  0  0  0  0  0  0
  156.0950  211.7880  155.2500 C   0  0  2  0  0  3  0  0  0  0  0  0
  155.8170  210.4830  155.9820 C   0  0  0  0  0  3  0  0  0  0  0  0
  154.3190  210.2870  156.1060 C   0  0  0  0  0  2  0  0  0  0  0  0
  155.0990  209.5260  155.0520 C   0  0  0  0  0  2  0  0  0  0  0  0
  156.6290  214.1090  152.2690 O   0  0  0  0  0  1  0  0  0  0  0  0
  157.0710  212.8720  152.7450 C   0  0  0  0  0  2  0  0  0  0  0  0
  1 10  1  6  0  0  0
  1 26  1  0  0  0  0
  1  4  1  0  0  0  0
  2  3  1  0  0  0  0
  3  6  2  0  0  0  0
  4  5  1  0  0  0  0
  4  2  2  0  0  0  0
  5  7  2  0  0  0  0
  7  6  1  0  0  0  0
  8  5  1  0  0  0  0
  9  8  1  0  0  0  0
 11 18  1  0  0  0  0
 12 13  1  0  0  0  0
 13 11  1  0  0  0  0
 14 17  1  0  0  0  0
 14 12  1  0  0  0  0
 15 13  2  0  0  0  0
 15 19  1  0  0  0  0
 16 19  1  0  0  0  0
 17 15  1  0  0  0  0
 18 10  1  0  0  0  0
 19 18  2  0  0  0  0
 20 12  1  0  0  0  0
 20 21  1  0  0  0  0
 21 22  1  0  0  0  0
 22 24  1  0  0  0  0
 24 23  1  0  0  0  0
 25 24  2  0  0  0  0
 27 26  1  0  0  0  0
 27 28  1  0  0  0  0
 28 30  1  0  0  0  0
 30 29  1  1  0  0  0
 30 40  1  0  0  0  0
 33 42  1  1  0  0  0
 33 38  1  0  0  0  0
 34 39  1  6  0  0  0
 34 35  1  0  0  0  0
 35 39  1  6  0  0  0
 35 38  1  0  0  0  0
 36 37  1  1  0  0  0
 36 33  1  0  0  0  0
 38 32  1  1  0  0  0
 40 31  1  6  0  0  0
 40 36  1  0  0  0  0
 40 34  1  0  0  0  0
 42 41  1  1  0  0  0
 42 43  1  0  0  0  0
 43 44  1  0  0  0  0
 45 43  1  0  0  0  0
 45 44  1  0  0  0  0
 46 47  1  0  0  0  0
 47 36  1  0  0  0  0
M  END
>  <MODEL>
9

>  <REMARK>
 VINA RESULT:      -4.5      4.259      9.547
  Name = 
  16 active torsions:
  status: ('A' for Active; 'I' for Inactive)
    1  A    between atoms: N_2  and  N_24
    2  A    between atoms: C_7  and  C_37
    3  A    between atoms: C_10  and  C_11
    4  A    between atoms: C_10  and  C_28
    5  A    between atoms: C_11  and  N_24
    6  A    between atoms: C_12  and  C_37
    7  A    between atoms: C_17  and  C_40
    8  A    between atoms: C_20  and  C_44
    9  A    between atoms: C_25  and  C_41
   10  A    between atoms: C_25  and  C_44
   11  A    between atoms: C_26  and  O_27
   12  A    between atoms: C_35  and  C_43
   13  A    between atoms: C_41  and  C_45
   14  A    between atoms: C_43  and  C_44
   15  A    between atoms: C_45  and  C_46
   16  A    between atoms: C_46  and  C_47
                            x       y       z     vdW  Elec       q    Type
                         _______ _______ _______ _____ _____    ______ ____

>  <TORSDO>
F 16

$$$$
