=
 OpenBabel11072411513D

 32 35  0  0  1  0  0  0  0  0999 V2000
  161.5630  210.4990  153.1370 N   0  0  0  0  0  0  0  0  0  0  0  0
  160.0980  207.8740  154.2290 C   0  0  2  0  0  3  0  0  0  0  0  0
  162.3670  210.3630  151.9270 C   0  0  0  0  0  2  0  0  0  0  0  0
  160.8500  208.9690  154.9820 C   0  0  1  0  0  3  0  0  0  0  0  0
  160.7200  206.9780  155.2680 C   0  0  0  0  0  2  0  0  0  0  0  0
  161.9500  207.3860  152.6500 C   0  0  1  0  0  3  0  0  0  0  0  0
  161.7660  209.3160  151.0020 C   0  0  2  0  0  3  0  0  0  0  0  0
  161.3790  208.0490  155.9040 O   0  0  0  0  0  0  0  0  0  0  0  0
  162.3390  207.9270  151.2780 C   0  0  0  0  0  2  0  0  0  0  0  0
  160.5100  207.5490  152.8490 N   0  0  0  0  0  2  0  0  0  0  0  0
  161.9960  209.7370  154.3050 C   0  0  0  0  0  2  0  0  0  0  0  0
  159.9090  211.9950  152.0640 C   0  0  0  0  0  3  0  0  0  0  0  0
  160.2300  212.0670  154.4270 N   0  0  0  0  0  0  0  0  0  0  0  0
  159.2790  213.0300  154.5540 C   0  0  0  0  0  3  0  0  0  0  0  0
  160.5680  211.5400  153.2160 C   0  0  0  0  0  0  0  0  0  0  0  0
  158.6100  213.5080  153.4270 C   0  0  0  0  0  3  0  0  0  0  0  0
  158.9310  212.9840  152.1740 C   0  0  0  0  0  3  0  0  0  0  0  0
  162.0420  211.0150  149.1810 O   0  0  0  0  0  1  0  0  0  0  0  0
  162.0050  209.6820  149.5770 C   0  0  0  0  0  0  0  0  0  0  0  0
  162.2170  208.7750  148.7310 O   0  0  0  0  0  0  0  0  0  0  0  0
  162.3280  205.9150  152.7150 C   0  0  0  0  0  2  0  0  0  0  0  0
  161.2250  205.0200  152.1480 C   0  0  0  0  0  2  0  0  0  0  0  0
  161.0510  205.3860  149.6490 C   0  0  0  0  0  2  0  0  0  0  0  0
  161.2820  202.5160  149.2540 N   0  0  0  0  0  0  0  0  0  0  0  0
  161.3010  204.7650  148.2780 C   0  0  0  0  0  2  0  0  0  0  0  0
  160.6810  203.3700  148.2230 C   0  0  0  0  0  2  0  0  0  0  0  0
  160.9130  203.0460  150.5690 C   0  0  0  0  0  2  0  0  0  0  0  0
  161.5140  204.4430  150.7580 C   0  0  2  0  0  3  0  0  0  0  0  0
  160.7520  201.1530  149.1200 C   0  0  0  0  0  0  0  0  0  0  0  0
  161.1680  200.5720  147.9280 F   0  0  0  0  0  0  0  0  0  0  0  0
  159.3680  201.1790  149.1450 F   0  0  0  0  0  0  0  0  0  0  0  0
  161.1890  200.3760  150.1780 F   0  0  0  0  0  0  0  0  0  0  0  0
  1 15  1  0  0  0  0
  1 11  1  0  0  0  0
  2  4  1  0  0  0  0
  2  5  1  1  0  0  0
  3  1  1  0  0  0  0
  4 11  1  6  0  0  0
  4  8  1  0  0  0  0
  5  8  1  0  0  0  0
  6 21  1  6  0  0  0
  6 10  1  0  0  0  0
  7 19  1  6  0  0  0
  7  9  1  0  0  0  0
  7  3  1  0  0  0  0
  9  6  1  0  0  0  0
 10  2  1  0  0  0  0
 12 17  2  0  0  0  0
 12 15  1  0  0  0  0
 13 14  1  0  0  0  0
 15 13  2  0  0  0  0
 16 14  2  0  0  0  0
 17 16  1  0  0  0  0
 18 19  1  0  0  0  0
 20 19  2  0  0  0  0
 22 21  1  0  0  0  0
 23 28  1  0  0  0  0
 24 27  1  0  0  0  0
 25 23  1  0  0  0  0
 26 25  1  0  0  0  0
 26 24  1  0  0  0  0
 27 28  1  0  0  0  0
 28 22  1  1  0  0  0
 29 31  1  0  0  0  0
 29 24  1  0  0  0  0
 29 32  1  0  0  0  0
 30 29  1  0  0  0  0
M  END
>  <MODEL>
1

>  <REMARK>
 VINA RESULT:      -7.9      0.000      0.000
  Name = 
  6 active torsions:
  status: ('A' for Active; 'I' for Inactive)
    1  A    between atoms: N_4  and  C_17
    2  A    between atoms: N_9  and  C_12
    3  A    between atoms: C_14  and  C_28
    4  A    between atoms: C_18  and  C_29
    5  A    between atoms: C_21  and  C_28
    6  A    between atoms: C_21  and  C_32
                            x       y       z     vdW  Elec       q    Type
                         _______ _______ _______ _____ _____    ______ ____

>  <TORSDO>
F 6

$$$$
=
 OpenBabel11072411513D

 32 35  0  0  1  0  0  0  0  0999 V2000
  161.6710  210.3880  152.9340 N   0  0  0  0  0  0  0  0  0  0  0  0
  160.2570  207.6770  153.8730 C   0  0  2  0  0  3  0  0  0  0  0  0
  162.4340  210.3500  151.6920 C   0  0  0  0  0  2  0  0  0  0  0  0
  161.0280  208.7180  154.6810 C   0  0  1  0  0  3  0  0  0  0  0  0
  160.9180  206.7090  154.8200 C   0  0  0  0  0  2  0  0  0  0  0  0
  162.0570  207.3240  152.2010 C   0  0  1  0  0  3  0  0  0  0  0  0
  161.8080  209.3710  150.7100 C   0  0  2  0  0  3  0  0  0  0  0  0
  161.5930  207.7350  155.5130 O   0  0  0  0  0  0  0  0  0  0  0  0
  162.3970  207.9690  150.8610 C   0  0  0  0  0  2  0  0  0  0  0  0
  160.6240  207.4600  152.4590 N   0  0  0  0  0  2  0  0  0  0  0  0
  162.1470  209.5430  154.0260 C   0  0  0  0  0  2  0  0  0  0  0  0
  159.9260  211.8990  152.0420 C   0  0  0  0  0  3  0  0  0  0  0  0
  160.4220  211.8920  154.3760 N   0  0  0  0  0  0  0  0  0  0  0  0
  159.4730  212.8370  154.6090 C   0  0  0  0  0  3  0  0  0  0  0  0
  160.6740  211.4120  153.1250 C   0  0  0  0  0  0  0  0  0  0  0  0
  158.7170  213.3460  153.5530 C   0  0  0  0  0  3  0  0  0  0  0  0
  158.9490  212.8710  152.2610 C   0  0  0  0  0  3  0  0  0  0  0  0
  162.0430  211.2050  149.0190 O   0  0  0  0  0  1  0  0  0  0  0  0
  161.9980  209.8450  149.3100 C   0  0  0  0  0  0  0  0  0  0  0  0
  162.1600  209.0050  148.3870 O   0  0  0  0  0  0  0  0  0  0  0  0
  162.4450  205.8550  152.1410 C   0  0  0  0  0  2  0  0  0  0  0  0
  161.2210  204.9410  152.2270 C   0  0  0  0  0  2  0  0  0  0  0  0
  160.9230  202.8350  150.8540 C   0  0  0  0  0  2  0  0  0  0  0  0
  160.9360  204.4550  148.4420 N   0  0  0  0  0  0  0  0  0  0  0  0
  160.5100  202.2820  149.4930 C   0  0  0  0  0  2  0  0  0  0  0  0
  161.2570  203.0240  148.3870 C   0  0  0  0  0  2  0  0  0  0  0  0
  161.4670  205.0020  149.6930 C   0  0  0  0  0  2  0  0  0  0  0  0
  160.7610  204.3540  150.8890 C   0  0  2  0  0  3  0  0  0  0  0  0
  161.5780  205.1360  147.3090 C   0  0  0  0  0  0  0  0  0  0  0  0
  160.6310  205.7300  146.4830 F   0  0  0  0  0  0  0  0  0  0  0  0
  162.3120  204.2270  146.5660 F   0  0  0  0  0  0  0  0  0  0  0  0
  162.4430  206.1090  147.7780 F   0  0  0  0  0  0  0  0  0  0  0  0
  1 15  1  0  0  0  0
  1 11  1  0  0  0  0
  2  4  1  0  0  0  0
  2  5  1  1  0  0  0
  3  1  1  0  0  0  0
  4 11  1  6  0  0  0
  4  8  1  0  0  0  0
  5  8  1  0  0  0  0
  6 21  1  6  0  0  0
  6 10  1  0  0  0  0
  7 19  1  6  0  0  0
  7  9  1  0  0  0  0
  7  3  1  0  0  0  0
  9  6  1  0  0  0  0
 10  2  1  0  0  0  0
 12 17  2  0  0  0  0
 12 15  1  0  0  0  0
 13 14  1  0  0  0  0
 15 13  2  0  0  0  0
 16 14  2  0  0  0  0
 17 16  1  0  0  0  0
 18 19  1  0  0  0  0
 20 19  2  0  0  0  0
 21 22  1  0  0  0  0
 23 28  1  0  0  0  0
 24 27  1  0  0  0  0
 25 23  1  0  0  0  0
 26 24  1  0  0  0  0
 26 25  1  0  0  0  0
 27 28  1  0  0  0  0
 28 22  1  1  0  0  0
 29 32  1  0  0  0  0
 29 24  1  0  0  0  0
 30 29  1  0  0  0  0
 31 29  1  0  0  0  0
M  END
>  <MODEL>
2

>  <REMARK>
 VINA RESULT:      -7.8      1.671      2.116
  Name = 
  6 active torsions:
  status: ('A' for Active; 'I' for Inactive)
    1  A    between atoms: N_4  and  C_17
    2  A    between atoms: N_9  and  C_12
    3  A    between atoms: C_14  and  C_28
    4  A    between atoms: C_18  and  C_29
    5  A    between atoms: C_21  and  C_28
    6  A    between atoms: C_21  and  C_32
                            x       y       z     vdW  Elec       q    Type
                         _______ _______ _______ _____ _____    ______ ____

>  <TORSDO>
F 6

$$$$
=
 OpenBabel11072411513D

 32 35  0  0  1  0  0  0  0  0999 V2000
  161.6420  209.6310  152.0000 N   0  0  0  0  0  0  0  0  0  0  0  0
  160.5480  206.8260  150.9210 C   0  0  2  0  0  3  0  0  0  0  0  0
  162.3030  210.5060  151.0390 C   0  0  0  0  0  2  0  0  0  0  0  0
  161.2890  207.1650  152.2120 C   0  0  1  0  0  3  0  0  0  0  0  0
  161.3640  205.5620  150.9910 C   0  0  0  0  0  2  0  0  0  0  0  0
  162.2320  207.8710  149.4250 C   0  0  1  0  0  3  0  0  0  0  0  0
  161.6870  210.3450  149.6580 C   0  0  2  0  0  3  0  0  0  0  0  0
  162.0020  205.9530  152.1860 O   0  0  0  0  0  0  0  0  0  0  0  0
  162.4050  209.2700  148.8440 C   0  0  0  0  0  2  0  0  0  0  0  0
  160.8170  207.6330  149.7150 N   0  0  0  0  0  2  0  0  0  0  0  0
  162.2760  208.3410  152.2610 C   0  0  0  0  0  2  0  0  0  0  0  0
  160.5400  209.8890  154.2010 C   0  0  0  0  0  3  0  0  0  0  0  0
  159.6160  210.9430  152.2700 N   0  0  0  0  0  0  0  0  0  0  0  0
  158.6100  211.4790  153.0100 C   0  0  0  0  0  3  0  0  0  0  0  0
  160.5790  210.1520  152.8230 C   0  0  0  0  0  0  0  0  0  0  0  0
  158.5390  211.2310  154.3820 C   0  0  0  0  0  3  0  0  0  0  0  0
  159.5130  210.4290  154.9770 C   0  0  0  0  0  3  0  0  0  0  0  0
  160.9620  212.7230  149.3450 O   0  0  0  0  0  1  0  0  0  0  0  0
  161.7210  211.6390  148.9180 C   0  0  0  0  0  0  0  0  0  0  0  0
  162.4770  211.7620  147.9200 O   0  0  0  0  0  0  0  0  0  0  0  0
  162.7390  206.8590  148.4100 C   0  0  0  0  0  2  0  0  0  0  0  0
  161.6030  206.2970  147.5530 C   0  0  0  0  0  2  0  0  0  0  0  0
  161.2110  204.5650  145.7480 C   0  0  0  0  0  2  0  0  0  0  0  0
  161.4040  202.4810  147.7640 N   0  0  0  0  0  0  0  0  0  0  0  0
  161.3390  203.0870  145.3900 C   0  0  0  0  0  2  0  0  0  0  0  0
  160.7160  202.2330  146.4920 C   0  0  0  0  0  2  0  0  0  0  0  0
  161.1520  203.8670  148.1670 C   0  0  0  0  0  2  0  0  0  0  0  0
  161.7690  204.8290  147.1460 C   0  0  2  0  0  3  0  0  0  0  0  0
  160.8640  201.5770  148.7880 C   0  0  0  0  0  0  0  0  0  0  0  0
  161.2720  200.2680  148.5640 F   0  0  0  0  0  0  0  0  0  0  0  0
  159.4800  201.6210  148.7740 F   0  0  0  0  0  0  0  0  0  0  0  0
  161.2960  201.9780  150.0400 F   0  0  0  0  0  0  0  0  0  0  0  0
  1 11  1  0  0  0  0
  1 15  1  0  0  0  0
  2  5  1  6  0  0  0
  2  4  1  0  0  0  0
  3  1  1  0  0  0  0
  4 11  1  6  0  0  0
  5  8  1  0  0  0  0
  6 21  1  6  0  0  0
  6 10  1  0  0  0  0
  7 19  1  6  0  0  0
  7  3  1  0  0  0  0
  8  4  1  0  0  0  0
  9  6  1  0  0  0  0
  9  7  1  0  0  0  0
 10  2  1  0  0  0  0
 12 17  1  0  0  0  0
 13 15  1  0  0  0  0
 13 14  2  0  0  0  0
 14 16  1  0  0  0  0
 15 12  2  0  0  0  0
 16 17  2  0  0  0  0
 19 18  1  0  0  0  0
 20 19  2  0  0  0  0
 22 21  1  0  0  0  0
 23 28  1  0  0  0  0
 24 27  1  0  0  0  0
 24 29  1  0  0  0  0
 25 23  1  0  0  0  0
 25 26  1  0  0  0  0
 26 24  1  0  0  0  0
 28 22  1  1  0  0  0
 28 27  1  0  0  0  0
 29 32  1  0  0  0  0
 30 29  1  0  0  0  0
 31 29  1  0  0  0  0
M  END
>  <MODEL>
3

>  <REMARK>
 VINA RESULT:      -7.5      1.851      2.875
  Name = 
  6 active torsions:
  status: ('A' for Active; 'I' for Inactive)
    1  A    between atoms: N_4  and  C_17
    2  A    between atoms: N_9  and  C_12
    3  A    between atoms: C_14  and  C_28
    4  A    between atoms: C_18  and  C_29
    5  A    between atoms: C_21  and  C_28
    6  A    between atoms: C_21  and  C_32
                            x       y       z     vdW  Elec       q    Type
                         _______ _______ _______ _____ _____    ______ ____

>  <TORSDO>
F 6

$$$$
=
 OpenBabel11072411513D

 32 35  0  0  1  0  0  0  0  0999 V2000
  160.8210  208.7530  153.3920 N   0  0  0  0  0  0  0  0  0  0  0  0
  162.7110  209.9330  151.0970 C   0  0  2  0  0  3  0  0  0  0  0  0
  160.3590  207.3790  153.2370 C   0  0  0  0  0  2  0  0  0  0  0  0
  161.5410  210.5750  151.8370 C   0  0  1  0  0  3  0  0  0  0  0  0
  162.1690  210.7090  149.9260 C   0  0  0  0  0  2  0  0  0  0  0  0
  161.4440  207.9180  150.3930 C   0  0  1  0  0  3  0  0  0  0  0  0
  161.4100  206.5370  152.5300 C   0  0  2  0  0  3  0  0  0  0  0  0
  161.1150  211.2580  150.6840 O   0  0  0  0  0  0  0  0  0  0  0  0
  161.2110  206.5450  151.0160 C   0  0  0  0  0  2  0  0  0  0  0  0
  162.7040  208.4710  150.8880 N   0  0  0  0  0  2  0  0  0  0  0  0
  160.3900  209.7120  152.3770 C   0  0  0  0  0  2  0  0  0  0  0  0
  161.3470  208.3610  155.7780 C   0  0  0  0  0  3  0  0  0  0  0  0
  162.1610  210.3160  154.6800 N   0  0  0  0  0  0  0  0  0  0  0  0
  162.7860  210.7270  155.8160 C   0  0  0  0  0  3  0  0  0  0  0  0
  161.4410  209.1600  154.6280 C   0  0  0  0  0  0  0  0  0  0  0  0
  162.7050  209.9580  156.9770 C   0  0  0  0  0  3  0  0  0  0  0  0
  161.9790  208.7670  156.9540 C   0  0  0  0  0  3  0  0  0  0  0  0
  161.5810  204.0640  152.1660 O   0  0  0  0  0  0  0  0  0  0  0  0
  161.3780  205.1340  153.0320 C   0  0  0  0  0  0  0  0  0  0  0  0
  161.2050  204.9180  154.2590 O   0  0  0  0  0  1  0  0  0  0  0  0
  161.4940  207.7610  148.8820 C   0  0  0  0  0  2  0  0  0  0  0  0
  160.5560  206.6550  148.3940 C   0  0  0  0  0  2  0  0  0  0  0  0
  161.2070  205.2820  146.3690 C   0  0  0  0  0  2  0  0  0  0  0  0
  161.4630  202.9500  148.0840 N   0  0  0  0  0  0  0  0  0  0  0  0
  161.8650  203.9880  145.9000 C   0  0  0  0  0  2  0  0  0  0  0  0
  161.2520  202.8000  146.6400 C   0  0  0  0  0  2  0  0  0  0  0  0
  160.7070  204.1170  148.5450 C   0  0  0  0  0  2  0  0  0  0  0  0
  161.2590  205.3890  147.8920 C   0  0  2  0  0  3  0  0  0  0  0  0
  160.9630  201.7520  148.7710 C   0  0  0  0  0  0  0  0  0  0  0  0
  161.2080  201.8200  150.1370 F   0  0  0  0  0  0  0  0  0  0  0  0
  161.5830  200.6230  148.2620 F   0  0  0  0  0  0  0  0  0  0  0  0
  159.6010  201.6270  148.5620 F   0  0  0  0  0  0  0  0  0  0  0  0
  1 15  1  0  0  0  0
  2  5  1  6  0  0  0
  2  4  1  0  0  0  0
  3  1  1  0  0  0  0
  4 11  1  6  0  0  0
  5  8  1  0  0  0  0
  6 21  1  6  0  0  0
  6 10  1  0  0  0  0
  6  9  1  0  0  0  0
  7 19  1  1  0  0  0
  7  3  1  0  0  0  0
  8  4  1  0  0  0  0
  9  7  1  0  0  0  0
 10  2  1  0  0  0  0
 11  1  1  0  0  0  0
 12 17  1  0  0  0  0
 13 14  2  0  0  0  0
 14 16  1  0  0  0  0
 15 13  1  0  0  0  0
 15 12  2  0  0  0  0
 17 16  2  0  0  0  0
 18 19  2  0  0  0  0
 19 20  1  0  0  0  0
 22 21  1  0  0  0  0
 23 28  1  0  0  0  0
 24 27  1  0  0  0  0
 24 29  1  0  0  0  0
 25 23  1  0  0  0  0
 25 26  1  0  0  0  0
 26 24  1  0  0  0  0
 28 22  1  1  0  0  0
 28 27  1  0  0  0  0
 29 30  1  0  0  0  0
 31 29  1  0  0  0  0
 32 29  1  0  0  0  0
M  END
>  <MODEL>
4

>  <REMARK>
 VINA RESULT:      -7.4      1.993      4.160
  Name = 
  6 active torsions:
  status: ('A' for Active; 'I' for Inactive)
    1  A    between atoms: N_4  and  C_17
    2  A    between atoms: N_9  and  C_12
    3  A    between atoms: C_14  and  C_28
    4  A    between atoms: C_18  and  C_29
    5  A    between atoms: C_21  and  C_28
    6  A    between atoms: C_21  and  C_32
                            x       y       z     vdW  Elec       q    Type
                         _______ _______ _______ _____ _____    ______ ____

>  <TORSDO>
F 6

$$$$
=
 OpenBabel11072411513D

 32 35  0  0  1  0  0  0  0  0999 V2000
  160.7280  205.7230  149.0850 N   0  0  0  0  0  0  0  0  0  0  0  0
  162.0950  203.8970  151.3260 C   0  0  2  0  0  3  0  0  0  0  0  0
  160.6180  207.1510  149.3600 C   0  0  0  0  0  2  0  0  0  0  0  0
  160.8550  203.6470  150.4730 C   0  0  1  0  0  3  0  0  0  0  0  0
  161.2950  203.1860  152.3860 C   0  0  0  0  0  2  0  0  0  0  0  0
  161.3320  206.1000  152.1780 C   0  0  1  0  0  3  0  0  0  0  0  0
  161.7960  207.6260  150.1960 C   0  0  2  0  0  3  0  0  0  0  0  0
  160.1920  202.9960  151.5280 O   0  0  0  0  0  0  0  0  0  0  0  0
  161.4970  207.5360  151.6920 C   0  0  0  0  0  2  0  0  0  0  0  0
  162.4430  205.2860  151.6850 N   0  0  0  0  0  2  0  0  0  0  0  0
  159.9990  204.8220  149.9740 C   0  0  0  0  0  2  0  0  0  0  0  0
  161.3430  203.9190  147.5060 C   0  0  0  0  0  3  0  0  0  0  0  0
  161.7990  206.1950  146.9570 N   0  0  0  0  0  0  0  0  0  0  0  0
  162.3310  205.8280  145.7600 C   0  0  0  0  0  3  0  0  0  0  0  0
  161.3090  205.2810  147.8410 C   0  0  0  0  0  0  0  0  0  0  0  0
  162.3860  204.4810  145.4010 C   0  0  0  0  0  3  0  0  0  0  0  0
  161.8880  203.5220  146.2840 C   0  0  0  0  0  3  0  0  0  0  0  0
  162.3380  209.9890  150.8330 O   0  0  0  0  0  1  0  0  0  0  0  0
  162.1540  209.0290  149.8420 C   0  0  0  0  0  0  0  0  0  0  0  0
  162.3310  209.3380  148.6360 O   0  0  0  0  0  0  0  0  0  0  0  0
  161.3150  206.1030  153.6990 C   0  0  0  0  0  2  0  0  0  0  0  0
  160.3680  207.1690  154.2530 C   0  0  0  0  0  2  0  0  0  0  0  0
  161.5810  208.0850  156.2780 C   0  0  0  0  0  2  0  0  0  0  0  0
  160.9010  210.7760  155.4170 N   0  0  0  0  0  0  0  0  0  0  0  0
  162.2170  209.3280  156.8930 C   0  0  0  0  0  2  0  0  0  0  0  0
  161.2400  210.4990  156.8180 C   0  0  0  0  0  2  0  0  0  0  0  0
  160.1630  209.6280  154.8820 C   0  0  0  0  0  2  0  0  0  0  0  0
  161.0620  208.3860  154.8730 C   0  0  2  0  0  3  0  0  0  0  0  0
  160.0460  211.9680  155.3550 C   0  0  0  0  0  0  0  0  0  0  0  0
  160.4660  212.9310  156.2630 F   0  0  0  0  0  0  0  0  0  0  0  0
  158.7350  211.6250  155.6430 F   0  0  0  0  0  0  0  0  0  0  0  0
  160.0810  212.5030  154.0790 F   0  0  0  0  0  0  0  0  0  0  0  0
  1  3  1  0  0  0  0
  1 11  1  0  0  0  0
  2 10  1  0  0  0  0
  2  5  1  1  0  0  0
  3  7  1  0  0  0  0
  4 11  1  1  0  0  0
  4  2  1  0  0  0  0
  4  8  1  0  0  0  0
  6 21  1  1  0  0  0
  7 19  1  6  0  0  0
  7  9  1  0  0  0  0
  8  5  1  0  0  0  0
  9  6  1  0  0  0  0
 10  6  1  0  0  0  0
 12 15  1  0  0  0  0
 13 15  2  0  0  0  0
 14 13  1  0  0  0  0
 15  1  1  0  0  0  0
 16 14  2  0  0  0  0
 16 17  1  0  0  0  0
 17 12  2  0  0  0  0
 19 18  1  0  0  0  0
 20 19  2  0  0  0  0
 21 22  1  0  0  0  0
 23 25  1  0  0  0  0
 24 26  1  0  0  0  0
 26 25  1  0  0  0  0
 27 24  1  0  0  0  0
 28 22  1  1  0  0  0
 28 27  1  0  0  0  0
 28 23  1  0  0  0  0
 29 24  1  0  0  0  0
 29 31  1  0  0  0  0
 29 30  1  0  0  0  0
 32 29  1  0  0  0  0
M  END
>  <MODEL>
5

>  <REMARK>
 VINA RESULT:      -7.3      4.497      8.169
  Name = 
  6 active torsions:
  status: ('A' for Active; 'I' for Inactive)
    1  A    between atoms: N_4  and  C_17
    2  A    between atoms: N_9  and  C_12
    3  A    between atoms: C_14  and  C_28
    4  A    between atoms: C_18  and  C_29
    5  A    between atoms: C_21  and  C_28
    6  A    between atoms: C_21  and  C_32
                            x       y       z     vdW  Elec       q    Type
                         _______ _______ _______ _____ _____    ______ ____

>  <TORSDO>
F 6

$$$$
=
 OpenBabel11072411513D

 32 35  0  0  1  0  0  0  0  0999 V2000
  161.0980  210.5260  155.1530 N   0  0  0  0  0  0  0  0  0  0  0  0
  159.7610  207.6720  155.6970 C   0  0  2  0  0  3  0  0  0  0  0  0
  161.7970  210.7070  153.8860 C   0  0  0  0  0  2  0  0  0  0  0  0
  160.5620  208.5790  156.6280 C   0  0  1  0  0  3  0  0  0  0  0  0
  160.4780  206.5730  156.4370 C   0  0  0  0  0  2  0  0  0  0  0  0
  161.4770  207.6320  153.9040 C   0  0  1  0  0  3  0  0  0  0  0  0
  161.1320  209.8920  152.7870 C   0  0  2  0  0  3  0  0  0  0  0  0
  161.1780  207.4820  157.2570 O   0  0  0  0  0  0  0  0  0  0  0  0
  161.7420  208.4960  152.6750 C   0  0  0  0  0  2  0  0  0  0  0  0
  160.0570  207.6970  154.2510 N   0  0  0  0  0  2  0  0  0  0  0  0
  161.6380  209.5210  156.0660 C   0  0  0  0  0  2  0  0  0  0  0  0
  158.7420  211.2700  155.2890 C   0  0  0  0  0  3  0  0  0  0  0  0
  160.4740  212.6020  156.2480 N   0  0  0  0  0  0  0  0  0  0  0  0
  159.5680  213.5210  156.6750 C   0  0  0  0  0  3  0  0  0  0  0  0
  160.1020  211.4860  155.5590 C   0  0  0  0  0  0  0  0  0  0  0  0
  158.2090  213.3380  156.4170 C   0  0  0  0  0  3  0  0  0  0  0  0
  157.7970  212.2030  155.7180 C   0  0  0  0  0  3  0  0  0  0  0  0
  160.6530  211.8380  151.2830 O   0  0  0  0  0  1  0  0  0  0  0  0
  161.2450  210.5940  151.4770 C   0  0  0  0  0  0  0  0  0  0  0  0
  161.9180  210.0730  150.5510 O   0  0  0  0  0  0  0  0  0  0  0  0
  161.8760  206.2000  153.5830 C   0  0  0  0  0  2  0  0  0  0  0  0
  160.8080  205.4870  152.7520 C   0  0  0  0  0  2  0  0  0  0  0  0
  160.8990  205.9360  150.2620 C   0  0  0  0  0  2  0  0  0  0  0  0
  161.3400  203.0990  149.8080 N   0  0  0  0  0  0  0  0  0  0  0  0
  161.3390  205.3810  148.9110 C   0  0  0  0  0  2  0  0  0  0  0  0
  160.8110  203.9570  148.7410 C   0  0  0  0  0  2  0  0  0  0  0  0
  160.7930  203.5590  151.0880 C   0  0  0  0  0  2  0  0  0  0  0  0
  161.2870  204.9790  151.3880 C   0  0  2  0  0  3  0  0  0  0  0  0
  160.9100  201.7150  149.5710 C   0  0  0  0  0  0  0  0  0  0  0  0
  159.5360  201.6450  149.3820 F   0  0  0  0  0  0  0  0  0  0  0  0
  161.2530  200.9220  150.6540 F   0  0  0  0  0  0  0  0  0  0  0  0
  161.5480  201.2140  148.4500 F   0  0  0  0  0  0  0  0  0  0  0  0
  1 15  1  0  0  0  0
  1 11  1  0  0  0  0
  2  5  1  1  0  0  0
  2  4  1  0  0  0  0
  3  1  1  0  0  0  0
  4 11  1  6  0  0  0
  4  8  1  0  0  0  0
  5  8  1  0  0  0  0
  6 21  1  6  0  0  0
  6 10  1  0  0  0  0
  7 19  1  6  0  0  0
  7  3  1  0  0  0  0
  9  7  1  0  0  0  0
  9  6  1  0  0  0  0
 10  2  1  0  0  0  0
 12 15  2  0  0  0  0
 12 17  1  0  0  0  0
 13 14  2  0  0  0  0
 15 13  1  0  0  0  0
 16 14  1  0  0  0  0
 17 16  2  0  0  0  0
 18 19  1  0  0  0  0
 20 19  2  0  0  0  0
 22 21  1  0  0  0  0
 23 28  1  0  0  0  0
 24 27  1  0  0  0  0
 25 23  1  0  0  0  0
 26 25  1  0  0  0  0
 26 24  1  0  0  0  0
 27 28  1  0  0  0  0
 28 22  1  1  0  0  0
 29 24  1  0  0  0  0
 29 31  1  0  0  0  0
 30 29  1  0  0  0  0
 32 29  1  0  0  0  0
M  END
>  <MODEL>
6

>  <REMARK>
 VINA RESULT:      -7.1      1.554      1.942
  Name = 
  6 active torsions:
  status: ('A' for Active; 'I' for Inactive)
    1  A    between atoms: N_4  and  C_17
    2  A    between atoms: N_9  and  C_12
    3  A    between atoms: C_14  and  C_28
    4  A    between atoms: C_18  and  C_29
    5  A    between atoms: C_21  and  C_28
    6  A    between atoms: C_21  and  C_32
                            x       y       z     vdW  Elec       q    Type
                         _______ _______ _______ _____ _____    ______ ____

>  <TORSDO>
F 6

$$$$
=
 OpenBabel11072411513D

 32 35  0  0  1  0  0  0  0  0999 V2000
  159.1070  212.4920  155.1030 N   0  0  0  0  0  0  0  0  0  0  0  0
  160.0330  209.4310  155.1970 C   0  0  2  0  0  3  0  0  0  0  0  0
  159.2930  213.2090  153.8470 C   0  0  0  0  0  2  0  0  0  0  0  0
  160.2110  210.5470  156.2230 C   0  0  1  0  0  3  0  0  0  0  0  0
  161.4020  209.0170  155.6680 C   0  0  0  0  0  2  0  0  0  0  0  0
  161.0280  210.7070  153.3140 C   0  0  1  0  0  3  0  0  0  0  0  0
  159.1270  212.2670  152.6640 C   0  0  2  0  0  3  0  0  0  0  0  0
  161.4840  210.0780  156.5930 O   0  0  0  0  0  0  0  0  0  0  0  0
  160.4590  211.6420  152.2520 C   0  0  0  0  0  2  0  0  0  0  0  0
  159.9860  209.7840  153.7640 N   0  0  0  0  0  2  0  0  0  0  0  0
  160.3140  212.0130  155.7740 C   0  0  0  0  0  2  0  0  0  0  0  0
  156.9040  211.4610  155.5600 C   0  0  0  0  0  3  0  0  0  0  0  0
  157.4890  213.5350  156.5840 N   0  0  0  0  0  0  0  0  0  0  0  0
  156.2960  213.5810  157.2350 C   0  0  0  0  0  3  0  0  0  0  0  0
  157.8180  212.5090  155.7480 C   0  0  0  0  0  0  0  0  0  0  0  0
  155.3640  212.5570  157.0640 C   0  0  0  0  0  3  0  0  0  0  0  0
  155.6740  211.4910  156.2180 C   0  0  0  0  0  3  0  0  0  0  0  0
  157.2990  213.6220  151.6140 O   0  0  0  0  0  1  0  0  0  0  0  0
  158.5340  212.9900  151.5030 C   0  0  0  0  0  0  0  0  0  0  0  0
  159.1760  213.0630  150.4240 O   0  0  0  0  0  0  0  0  0  0  0  0
  162.1890  209.9350  152.7060 C   0  0  0  0  0  2  0  0  0  0  0  0
  161.8990  209.5180  151.2630 C   0  0  0  0  0  2  0  0  0  0  0  0
  161.7890  207.1650  152.1910 C   0  0  0  0  0  2  0  0  0  0  0  0
  160.8710  206.2290  149.5980 N   0  0  0  0  0  0  0  0  0  0  0  0
  161.2130  205.7680  151.9810 C   0  0  0  0  0  2  0  0  0  0  0  0
  161.4930  205.3040  150.5530 C   0  0  0  0  0  2  0  0  0  0  0  0
  161.5340  207.5300  149.7130 C   0  0  0  0  0  2  0  0  0  0  0  0
  161.2920  208.1190  151.1070 C   0  0  2  0  0  3  0  0  0  0  0  0
  161.0590  205.7130  148.2360 C   0  0  0  0  0  0  0  0  0  0  0  0
  160.0880  206.2100  147.3750 F   0  0  0  0  0  0  0  0  0  0  0  0
  160.9840  204.3300  148.2400 F   0  0  0  0  0  0  0  0  0  0  0  0
  162.3090  206.0760  147.7660 F   0  0  0  0  0  0  0  0  0  0  0  0
  1 15  1  0  0  0  0
  1 11  1  0  0  0  0
  2  5  1  6  0  0  0
  2  4  1  0  0  0  0
  3  1  1  0  0  0  0
  4 11  1  6  0  0  0
  4  8  1  0  0  0  0
  5  8  1  0  0  0  0
  6 21  1  6  0  0  0
  6 10  1  0  0  0  0
  7 19  1  6  0  0  0
  7  3  1  0  0  0  0
  9  7  1  0  0  0  0
  9  6  1  0  0  0  0
 10  2  1  0  0  0  0
 12 15  2  0  0  0  0
 12 17  1  0  0  0  0
 13 14  2  0  0  0  0
 15 13  1  0  0  0  0
 16 14  1  0  0  0  0
 17 16  2  0  0  0  0
 19 18  1  0  0  0  0
 20 19  2  0  0  0  0
 22 21  1  0  0  0  0
 24 27  1  0  0  0  0
 24 26  1  0  0  0  0
 25 23  1  0  0  0  0
 26 25  1  0  0  0  0
 27 28  1  0  0  0  0
 28 22  1  6  0  0  0
 28 23  1  0  0  0  0
 29 31  1  0  0  0  0
 29 24  1  0  0  0  0
 30 29  1  0  0  0  0
 32 29  1  0  0  0  0
M  END
>  <MODEL>
7

>  <REMARK>
 VINA RESULT:      -7.1      2.796      4.184
  Name = 
  6 active torsions:
  status: ('A' for Active; 'I' for Inactive)
    1  A    between atoms: N_4  and  C_17
    2  A    between atoms: N_9  and  C_12
    3  A    between atoms: C_14  and  C_28
    4  A    between atoms: C_18  and  C_29
    5  A    between atoms: C_21  and  C_28
    6  A    between atoms: C_21  and  C_32
                            x       y       z     vdW  Elec       q    Type
                         _______ _______ _______ _____ _____    ______ ____

>  <TORSDO>
F 6

$$$$
=
 OpenBabel11072411513D

 32 35  0  0  1  0  0  0  0  0999 V2000
  161.8480  204.0710  147.6370 N   0  0  0  0  0  0  0  0  0  0  0  0
  160.7730  207.0050  148.3200 C   0  0  2  0  0  3  0  0  0  0  0  0
  161.9560  203.1250  148.7420 C   0  0  0  0  0  2  0  0  0  0  0  0
  161.9190  206.5610  147.4140 C   0  0  1  0  0  3  0  0  0  0  0  0
  161.7000  208.1500  148.6360 C   0  0  0  0  0  2  0  0  0  0  0  0
  161.5750  205.7600  150.3120 C   0  0  1  0  0  3  0  0  0  0  0  0
  160.8650  203.3780  149.7710 C   0  0  2  0  0  3  0  0  0  0  0  0
  162.7070  207.6680  147.7750 O   0  0  0  0  0  0  0  0  0  0  0  0
  161.3270  204.3550  150.8510 C   0  0  0  0  0  2  0  0  0  0  0  0
  160.4350  206.1800  149.4960 N   0  0  0  0  0  2  0  0  0  0  0  0
  162.6890  205.2640  147.7080 C   0  0  0  0  0  2  0  0  0  0  0  0
  160.7840  202.3520  146.2110 C   0  0  0  0  0  3  0  0  0  0  0  0
  160.7910  204.6370  145.5250 N   0  0  0  0  0  0  0  0  0  0  0  0
  160.1040  204.3270  144.3930 C   0  0  0  0  0  3  0  0  0  0  0  0
  161.1460  203.6880  146.4380 C   0  0  0  0  0  0  0  0  0  0  0  0
  159.7360  203.0060  144.1360 C   0  0  0  0  0  3  0  0  0  0  0  0
  160.0810  202.0140  145.0540 C   0  0  0  0  0  3  0  0  0  0  0  0
  159.6440  201.1900  149.7120 O   0  0  0  0  0  0  0  0  0  0  0  0
  160.4400  202.0970  150.4050 C   0  0  0  0  0  0  0  0  0  0  0  0
  160.8400  201.8160  151.5640 O   0  0  0  0  0  1  0  0  0  0  0  0
  161.7570  206.7050  151.4890 C   0  0  0  0  0  2  0  0  0  0  0  0
  161.2110  206.1050  152.7860 C   0  0  0  0  0  2  0  0  0  0  0  0
  160.2610  206.5790  155.0850 C   0  0  0  0  0  2  0  0  0  0  0  0
  160.9580  209.3800  154.7510 N   0  0  0  0  0  0  0  0  0  0  0  0
  160.2330  207.5740  156.2410 C   0  0  0  0  0  2  0  0  0  0  0  0
  159.9250  208.9730  155.7110 C   0  0  0  0  0  2  0  0  0  0  0  0
  160.8770  208.5020  153.5810 C   0  0  0  0  0  2  0  0  0  0  0  0
  161.2050  207.0600  153.9850 C   0  0  2  0  0  3  0  0  0  0  0  0
  160.7060  210.7650  154.3310 C   0  0  0  0  0  0  0  0  0  0  0  0
  161.2060  211.6670  155.2620 F   0  0  0  0  0  0  0  0  0  0  0  0
  159.3450  210.9760  154.1910 F   0  0  0  0  0  0  0  0  0  0  0  0
  161.3070  210.9980  153.1070 F   0  0  0  0  0  0  0  0  0  0  0  0
  1 11  1  0  0  0  0
  1  3  1  0  0  0  0
  2  5  1  1  0  0  0
  2 10  1  0  0  0  0
  3  7  1  0  0  0  0
  4 11  1  1  0  0  0
  4  8  1  0  0  0  0
  4  2  1  0  0  0  0
  6  9  1  0  0  0  0
  6 21  1  1  0  0  0
  7 19  1  1  0  0  0
  7  9  1  0  0  0  0
  8  5  1  0  0  0  0
 10  6  1  0  0  0  0
 12 15  1  0  0  0  0
 13 15  2  0  0  0  0
 14 13  1  0  0  0  0
 15  1  1  0  0  0  0
 16 14  2  0  0  0  0
 16 17  1  0  0  0  0
 17 12  2  0  0  0  0
 18 19  2  0  0  0  0
 19 20  1  0  0  0  0
 21 22  1  0  0  0  0
 23 25  1  0  0  0  0
 24 26  1  0  0  0  0
 26 25  1  0  0  0  0
 27 28  1  0  0  0  0
 27 24  1  0  0  0  0
 28 22  1  6  0  0  0
 28 23  1  0  0  0  0
 29 24  1  0  0  0  0
 29 30  1  0  0  0  0
 31 29  1  0  0  0  0
 32 29  1  0  0  0  0
M  END
>  <MODEL>
8

>  <REMARK>
 VINA RESULT:      -7.1      4.474      8.834
  Name = 
  6 active torsions:
  status: ('A' for Active; 'I' for Inactive)
    1  A    between atoms: N_4  and  C_17
    2  A    between atoms: N_9  and  C_12
    3  A    between atoms: C_14  and  C_28
    4  A    between atoms: C_18  and  C_29
    5  A    between atoms: C_21  and  C_28
    6  A    between atoms: C_21  and  C_32
                            x       y       z     vdW  Elec       q    Type
                         _______ _______ _______ _____ _____    ______ ____

>  <TORSDO>
F 6

$$$$
=
 OpenBabel11072411513D

 32 35  0  0  1  0  0  0  0  0999 V2000
  160.5250  204.8100  149.8610 N   0  0  0  0  0  0  0  0  0  0  0  0
  162.6990  205.7490  152.0120 C   0  0  2  0  0  3  0  0  0  0  0  0
  160.3080  205.6750  148.7080 C   0  0  0  0  0  2  0  0  0  0  0  0
  161.3130  205.1410  152.2110 C   0  0  1  0  0  3  0  0  0  0  0  0
  162.3310  206.5500  153.2330 C   0  0  0  0  0  2  0  0  0  0  0  0
  161.9190  207.5820  150.5300 C   0  0  1  0  0  3  0  0  0  0  0  0
  161.5990  206.3750  148.3140 C   0  0  2  0  0  3  0  0  0  0  0  0
  161.0670  205.9360  153.3440 O   0  0  0  0  0  0  0  0  0  0  0  0
  161.7480  207.7210  149.0210 C   0  0  0  0  0  2  0  0  0  0  0  0
  162.9450  206.5790  150.8160 N   0  0  0  0  0  2  0  0  0  0  0  0
  160.2030  205.3670  151.1730 C   0  0  0  0  0  2  0  0  0  0  0  0
  160.8310  202.5180  150.7440 C   0  0  0  0  0  3  0  0  0  0  0  0
  160.9550  202.9210  148.3960 N   0  0  0  0  0  0  0  0  0  0  0  0
  161.1760  201.6020  148.1530 C   0  0  0  0  0  3  0  0  0  0  0  0
  160.7860  203.4060  149.6590 C   0  0  0  0  0  0  0  0  0  0  0  0
  161.2330  200.6950  149.2120 C   0  0  0  0  0  3  0  0  0  0  0  0
  161.0590  201.1600  150.5150 C   0  0  0  0  0  3  0  0  0  0  0  0
  162.7120  206.0750  146.0880 O   0  0  0  0  0  0  0  0  0  0  0  0
  161.6520  206.5780  146.8380 C   0  0  0  0  0  0  0  0  0  0  0  0
  160.7080  207.1740  146.2590 O   0  0  0  0  0  1  0  0  0  0  0  0
  162.3310  208.9320  151.0970 C   0  0  0  0  0  2  0  0  0  0  0  0
  161.1280  209.8570  151.2890 C   0  0  0  0  0  2  0  0  0  0  0  0
  159.5300  211.0230  152.8690 C   0  0  0  0  0  2  0  0  0  0  0  0
  161.2210  210.2330  155.0960 N   0  0  0  0  0  0  0  0  0  0  0  0
  159.0810  211.1450  154.3230 C   0  0  0  0  0  2  0  0  0  0  0  0
  160.2960  211.3660  155.2210 C   0  0  0  0  0  2  0  0  0  0  0  0
  161.7530  210.2150  153.7320 C   0  0  0  0  0  2  0  0  0  0  0  0
  160.6210  209.9620  152.7310 C   0  0  2  0  0  3  0  0  0  0  0  0
  162.3300  210.4100  156.0430 C   0  0  0  0  0  0  0  0  0  0  0  0
  162.0100  211.3470  157.0170 F   0  0  0  0  0  0  0  0  0  0  0  0
  163.4620  210.8360  155.3690 F   0  0  0  0  0  0  0  0  0  0  0  0
  162.6200  209.2030  156.6540 F   0  0  0  0  0  0  0  0  0  0  0  0
  1 11  1  0  0  0  0
  2  4  1  0  0  0  0
  2  5  1  1  0  0  0
  3  1  1  0  0  0  0
  4 11  1  6  0  0  0
  4  8  1  0  0  0  0
  5  8  1  0  0  0  0
  6 10  1  0  0  0  0
  6 21  1  6  0  0  0
  7 19  1  6  0  0  0
  7  3  1  0  0  0  0
  7  9  1  0  0  0  0
  9  6  1  0  0  0  0
 10  2  1  0  0  0  0
 13 15  1  0  0  0  0
 14 13  2  0  0  0  0
 14 16  1  0  0  0  0
 15  1  1  0  0  0  0
 15 12  2  0  0  0  0
 16 17  2  0  0  0  0
 17 12  1  0  0  0  0
 18 19  2  0  0  0  0
 20 19  1  0  0  0  0
 21 22  1  0  0  0  0
 23 25  1  0  0  0  0
 24 26  1  0  0  0  0
 24 29  1  0  0  0  0
 25 26  1  0  0  0  0
 27 24  1  0  0  0  0
 28 22  1  6  0  0  0
 28 23  1  0  0  0  0
 28 27  1  0  0  0  0
 29 32  1  0  0  0  0
 29 30  1  0  0  0  0
 31 29  1  0  0  0  0
M  END
>  <MODEL>
9

>  <REMARK>
 VINA RESULT:      -6.9      4.073      8.187
  Name = 
  6 active torsions:
  status: ('A' for Active; 'I' for Inactive)
    1  A    between atoms: N_4  and  C_17
    2  A    between atoms: N_9  and  C_12
    3  A    between atoms: C_14  and  C_28
    4  A    between atoms: C_18  and  C_29
    5  A    between atoms: C_21  and  C_28
    6  A    between atoms: C_21  and  C_32
                            x       y       z     vdW  Elec       q    Type
                         _______ _______ _______ _____ _____    ______ ____

>  <TORSDO>
F 6

$$$$
