=
 OpenBabel11072409563D

 48 49  0  0  1  0  0  0  0  0999 V2000
  161.1880  207.6870  154.1110 C   0  0  0  0  0  2  0  0  0  0  0  0
  161.5010  206.2230  152.1150 C   0  0  0  0  0  2  0  0  0  0  0  0
  160.5360  208.5190  151.8170 C   0  0  0  0  0  2  0  0  0  0  0  0
  161.3100  207.4040  151.2770 N   0  0  0  0  0  0  0  0  0  0  0  0
  161.4530  208.3900  149.1640 O   0  0  0  0  0  0  0  0  0  0  0  0
  161.5970  207.3560  149.8730 C   0  0  0  0  0  0  0  0  0  0  0  0
  162.0820  206.6380  153.4620 C   0  0  0  0  0  2  0  0  0  0  0  0
  161.0480  208.9110  153.2000 C   0  0  1  0  0  3  0  0  0  0  0  0
  162.0660  206.0780  149.2350 C   0  0  1  0  0  3  0  0  0  0  0  0
  160.9610  205.1460  149.0370 N   0  0  0  0  0  2  0  0  0  0  0  0
  161.3610  203.8430  149.5570 C   0  0  2  0  0  3  0  0  0  0  0  0
  161.3210  200.4230  147.9340 C   0  0  0  0  0  3  0  0  0  0  0  0
  161.2050  202.7680  148.5210 C   0  0  0  0  0  0  0  0  0  0  0  0
  161.4420  201.4390  148.8830 C   0  0  0  0  0  3  0  0  0  0  0  0
  160.8510  203.0770  147.1990 C   0  0  0  0  0  3  0  0  0  0  0  0
  160.7300  202.0600  146.2510 C   0  0  0  0  0  3  0  0  0  0  0  0
  160.9650  200.7340  146.6180 C   0  0  0  0  0  3  0  0  0  0  0  0
  161.2920  202.9520  151.9160 N   0  0  0  0  0  1  0  0  0  0  0  0
  160.6070  203.5240  150.8070 C   0  0  0  0  0  0  0  0  0  0  0  0
  159.3720  203.7600  150.8880 O   0  0  0  0  0  0  0  0  0  0  0  0
  162.8080  206.3320  147.9270 C   0  0  0  0  0  2  0  0  0  0  0  0
  162.1550  205.6620  146.8050 N   0  0  0  0  0  0  0  0  0  0  0  0
  163.1830  205.1980  145.8810 C   0  0  0  0  0  2  0  0  0  0  0  0
  163.9880  204.2560  146.5170 O   0  0  0  0  0  1  0  0  0  0  0  0
  161.2590  206.5990  146.1190 C   0  0  0  0  0  2  0  0  0  0  0  0
  160.2430  205.9100  145.2050 C   0  0  0  0  0  2  0  0  0  0  0  0
  160.9370  205.1800  144.1810 N   0  0  0  0  0  0  0  0  0  0  0  0
  161.3370  205.7810  143.1250 C   0  0  0  0  0  2  0  0  0  0  0  0
  160.1380  209.9700  153.8150 C   0  0  0  0  0  2  0  0  0  0  0  0
  159.3390  210.6010  152.8400 O   0  0  0  0  0  0  0  0  0  0  0  0
  158.4040  211.4620  153.4650 C   0  0  1  0  0  3  0  0  0  0  0  0
  158.9220  212.1320  154.7390 C   0  0  0  0  0  2  0  0  0  0  0  0
  158.0690  211.7610  155.9030 C   0  0  0  0  0  0  0  0  0  0  0  0
  158.5940  211.2130  156.9100 O   0  0  0  0  0  0  0  0  0  0  0  0
  156.2260  213.3850  155.7870 C   0  0  0  0  0  1  0  0  0  0  0  0
  156.7050  212.0520  155.8760 O   0  0  0  0  0  0  0  0  0  0  0  0
  157.7840  212.4640  152.4970 C   0  0  0  0  0  2  0  0  0  0  0  0
  158.8440  213.2710  151.8110 C   0  0  0  0  0  0  0  0  0  0  0  0
  159.9980  213.1960  152.2000 O   0  0  0  0  0  0  0  0  0  0  0  0
  158.4870  214.1750  150.6630 C   0  0  2  0  0  3  0  0  0  0  0  0
  156.9820  214.3090  150.5390 C   0  0  0  0  0  1  0  0  0  0  0  0
  159.0650  213.6680  149.3520 C   0  0  0  0  0  2  0  0  0  0  0  0
  160.3500  214.1810  149.1660 O   0  0  0  0  0  0  0  0  0  0  0  0
  160.5000  212.2750  147.3780 O   0  0  0  0  0  0  0  0  0  0  0  0
  161.5010  211.7320  149.7240 O   0  0  0  0  0  1  0  0  0  0  0  0
  161.2620  212.9020  148.5270 P   0  0  2  0  0  0  0  0  0  0  0  0
  163.5350  212.3070  147.7720 C   0  0  0  0  0  1  0  0  0  0  0  0
  162.7700  213.4560  147.9790 O   0  0  0  0  0  0  0  0  0  0  0  0
  2  7  1  0  0  0  0
  3  8  1  0  0  0  0
  4  3  1  0  0  0  0
  4  2  1  0  0  0  0
  5  6  2  0  0  0  0
  6  4  1  0  0  0  0
  7  1  1  0  0  0  0
  8 29  1  1  0  0  0
  8  1  1  0  0  0  0
  9 21  1  6  0  0  0
  9  6  1  0  0  0  0
 10  9  1  0  0  0  0
 11 10  1  6  0  0  0
 11 19  1  0  0  0  0
 12 14  1  0  0  0  0
 13 14  2  0  0  0  0
 13 11  1  0  0  0  0
 15 13  1  0  0  0  0
 16 17  1  0  0  0  0
 16 15  2  0  0  0  0
 17 12  2  0  0  0  0
 19 20  2  0  0  0  0
 19 18  1  0  0  0  0
 22 21  1  0  0  0  0
 23 24  1  0  0  0  0
 23 22  1  0  0  0  0
 25 22  1  0  0  0  0
 26 25  1  0  0  0  0
 27 26  1  0  0  0  0
 28 27  2  0  0  0  0
 30 31  1  0  0  0  0
 30 29  1  0  0  0  0
 31 37  1  6  0  0  0
 31 32  1  0  0  0  0
 32 33  1  0  0  0  0
 33 34  2  0  0  0  0
 35 36  1  0  0  0  0
 36 33  1  0  0  0  0
 38 39  2  0  0  0  0
 38 37  1  0  0  0  0
 40 41  1  6  0  0  0
 40 38  1  0  0  0  0
 42 40  1  0  0  0  0
 43 42  1  0  0  0  0
 46 44  2  6  0  0  0
 46 43  1  0  0  0  0
 46 45  1  0  0  0  0
 47 48  1  0  0  0  0
 48 46  1  0  0  0  0
M  END
>  <MODEL>
1

>  <REMARK>
 VINA RESULT:      -4.8      0.000      0.000
  Name = 
  24 active torsions:
  status: ('A' for Active; 'I' for Inactive)
    1  A    between atoms: C_1  and  C_2
    2  A    between atoms: C_1  and  C_37
    3  A    between atoms: C_2  and  C_17
    4  A    between atoms: C_7  and  O_33
    5  A    between atoms: C_7  and  C_45
    6  A    between atoms: C_10  and  C_30
    7  A    between atoms: C_12  and  C_17
    8  A    between atoms: C_12  and  C_23
    9  A    between atoms: C_12  and  O_33
   10  A    between atoms: O_13  and  P_38
   11  A    between atoms: N_18  and  C_22
   12  A    between atoms: C_19  and  N_42
   13  A    between atoms: O_20  and  C_21
   14  A    between atoms: C_21  and  C_23
   15  A    between atoms: C_22  and  C_41
   16  A    between atoms: O_27  and  C_37
   17  A    between atoms: O_27  and  P_38
   18  A    between atoms: C_28  and  C_36
   19  A    between atoms: C_28  and  N_42
   20  A    between atoms: C_30  and  N_35
   21  A    between atoms: C_30  and  C_44
   22  A    between atoms: N_35  and  C_36
   23  A    between atoms: C_36  and  C_40
   24  A    between atoms: C_41  and  N_42
                            x       y       z     vdW  Elec       q    Type
                         _______ _______ _______ _____ _____    ______ ____

>  <TORSDO>
F 24

$$$$
=
 OpenBabel11072409563D

 48 49  0  0  1  0  0  0  0  0999 V2000
  162.0770  209.3390  151.0540 C   0  0  0  0  0  2  0  0  0  0  0  0
  162.3480  207.2930  149.6520 C   0  0  0  0  0  2  0  0  0  0  0  0
  161.2710  207.1050  151.9100 C   0  0  0  0  0  2  0  0  0  0  0  0
  161.4030  206.6180  150.5390 N   0  0  0  0  0  0  0  0  0  0  0  0
  160.0220  204.7790  150.9460 O   0  0  0  0  0  0  0  0  0  0  0  0
  160.8570  205.3400  150.1850 C   0  0  0  0  0  0  0  0  0  0  0  0
  162.0550  208.7890  149.6330 C   0  0  0  0  0  2  0  0  0  0  0  0
  161.0490  208.6140  151.9270 C   0  0  1  0  0  3  0  0  0  0  0  0
  161.2750  204.6600  148.9110 C   0  0  1  0  0  3  0  0  0  0  0  0
  160.4400  203.4950  148.6340 N   0  0  0  0  0  2  0  0  0  0  0  0
  161.2340  202.2950  148.8740 C   0  0  2  0  0  3  0  0  0  0  0  0
  160.2020  200.7760  145.5640 C   0  0  0  0  0  3  0  0  0  0  0  0
  161.1380  201.3350  147.7240 C   0  0  0  0  0  0  0  0  0  0  0  0
  160.3230  201.6600  146.6360 C   0  0  0  0  0  3  0  0  0  0  0  0
  161.8300  200.1140  147.7350 C   0  0  0  0  0  3  0  0  0  0  0  0
  161.7090  199.2310  146.6620 C   0  0  0  0  0  3  0  0  0  0  0  0
  160.8950  199.5610  145.5760 C   0  0  0  0  0  3  0  0  0  0  0  0
  161.4890  202.0440  151.3710 N   0  0  0  0  0  1  0  0  0  0  0  0
  160.8400  201.6560  150.1660 C   0  0  0  0  0  0  0  0  0  0  0  0
  159.9350  200.7790  150.1970 O   0  0  0  0  0  0  0  0  0  0  0  0
  161.2830  205.6200  147.7260 C   0  0  0  0  0  2  0  0  0  0  0  0
  161.7230  204.9550  146.5030 N   0  0  0  0  0  0  0  0  0  0  0  0
  163.0910  204.4880  146.6970 C   0  0  0  0  0  2  0  0  0  0  0  0
  163.8590  204.8240  145.5840 O   0  0  0  0  0  1  0  0  0  0  0  0
  161.6760  205.8970  145.3790 C   0  0  0  0  0  2  0  0  0  0  0  0
  161.1150  205.2830  144.0950 C   0  0  0  0  0  2  0  0  0  0  0  0
  160.4190  204.0660  144.4090 N   0  0  0  0  0  0  0  0  0  0  0  0
  159.2780  203.8270  143.8820 C   0  0  0  0  0  2  0  0  0  0  0  0
  161.0660  209.1290  153.3630 C   0  0  0  0  0  2  0  0  0  0  0  0
  161.9050  210.2530  153.5050 O   0  0  0  0  0  0  0  0  0  0  0  0
  161.1560  211.3600  153.9730 C   0  0  1  0  0  3  0  0  0  0  0  0
  159.6650  211.2990  153.6300 C   0  0  0  0  0  2  0  0  0  0  0  0
  159.3260  212.3270  152.6070 C   0  0  0  0  0  0  0  0  0  0  0  0
  158.4340  213.1830  152.8560 O   0  0  0  0  0  0  0  0  0  0  0  0
  159.9350  213.4490  150.5050 C   0  0  0  0  0  1  0  0  0  0  0  0
  160.0220  212.3490  151.3980 O   0  0  0  0  0  0  0  0  0  0  0  0
  161.3960  211.6560  155.4490 C   0  0  0  0  0  2  0  0  0  0  0  0
  161.0660  210.4640  156.2950 C   0  0  0  0  0  0  0  0  0  0  0  0
  161.9090  209.5980  156.4630 O   0  0  0  0  0  0  0  0  0  0  0  0
  159.7050  210.3290  156.9190 C   0  0  2  0  0  3  0  0  0  0  0  0
  158.9540  209.1590  156.3130 C   0  0  0  0  0  1  0  0  0  0  0  0
  158.8870  211.5990  156.7560 C   0  0  0  0  0  2  0  0  0  0  0  0
  157.5430  211.3420  157.0350 O   0  0  0  0  0  0  0  0  0  0  0  0
  157.6030  213.7310  155.9670 O   0  0  0  0  0  0  0  0  0  0  0  0
  155.4270  213.1040  157.2600 O   0  0  0  0  0  1  0  0  0  0  0  0
  156.6740  212.5700  156.2510 P   0  0  2  0  0  0  0  0  0  0  0  0
  155.6030  210.6910  155.0630 C   0  0  0  0  0  1  0  0  0  0  0  0
  156.0100  211.9990  154.7970 O   0  0  0  0  0  0  0  0  0  0  0  0
  1  8  1  0  0  0  0
  2  4  1  0  0  0  0
  3  8  1  0  0  0  0
  4  3  1  0  0  0  0
  6  4  1  0  0  0  0
  6  5  2  0  0  0  0
  7  2  1  0  0  0  0
  7  1  1  0  0  0  0
  8 29  1  1  0  0  0
  9 21  1  6  0  0  0
  9  6  1  0  0  0  0
 10  9  1  0  0  0  0
 11 10  1  6  0  0  0
 11 19  1  0  0  0  0
 12 17  2  0  0  0  0
 12 14  1  0  0  0  0
 13 15  1  0  0  0  0
 13 11  1  0  0  0  0
 14 13  2  0  0  0  0
 16 15  2  0  0  0  0
 17 16  1  0  0  0  0
 19 20  2  0  0  0  0
 19 18  1  0  0  0  0
 22 23  1  0  0  0  0
 22 21  1  0  0  0  0
 24 23  1  0  0  0  0
 25 22  1  0  0  0  0
 26 27  1  0  0  0  0
 26 25  1  0  0  0  0
 28 27  2  0  0  0  0
 29 30  1  0  0  0  0
 30 31  1  0  0  0  0
 31 32  1  1  0  0  0
 31 37  1  0  0  0  0
 33 34  2  0  0  0  0
 33 32  1  0  0  0  0
 35 36  1  0  0  0  0
 36 33  1  0  0  0  0
 37 38  1  0  0  0  0
 38 39  2  0  0  0  0
 38 40  1  0  0  0  0
 40 41  1  6  0  0  0
 42 40  1  0  0  0  0
 42 43  1  0  0  0  0
 46 44  2  6  0  0  0
 46 43  1  0  0  0  0
 46 45  1  0  0  0  0
 48 47  1  0  0  0  0
 48 46  1  0  0  0  0
M  END
>  <MODEL>
2

>  <REMARK>
 VINA RESULT:      -4.5      2.286      4.775
  Name = 
  24 active torsions:
  status: ('A' for Active; 'I' for Inactive)
    1  A    between atoms: C_1  and  C_2
    2  A    between atoms: C_1  and  C_37
    3  A    between atoms: C_2  and  C_17
    4  A    between atoms: C_7  and  O_33
    5  A    between atoms: C_7  and  C_45
    6  A    between atoms: C_10  and  C_30
    7  A    between atoms: C_12  and  C_17
    8  A    between atoms: C_12  and  C_23
    9  A    between atoms: C_12  and  O_33
   10  A    between atoms: O_13  and  P_38
   11  A    between atoms: N_18  and  C_22
   12  A    between atoms: C_19  and  N_42
   13  A    between atoms: O_20  and  C_21
   14  A    between atoms: C_21  and  C_23
   15  A    between atoms: C_22  and  C_41
   16  A    between atoms: O_27  and  C_37
   17  A    between atoms: O_27  and  P_38
   18  A    between atoms: C_28  and  C_36
   19  A    between atoms: C_28  and  N_42
   20  A    between atoms: C_30  and  N_35
   21  A    between atoms: C_30  and  C_44
   22  A    between atoms: N_35  and  C_36
   23  A    between atoms: C_36  and  C_40
   24  A    between atoms: C_41  and  N_42
                            x       y       z     vdW  Elec       q    Type
                         _______ _______ _______ _____ _____    ______ ____

>  <TORSDO>
F 24

$$$$
=
 OpenBabel11072409563D

 48 49  0  0  1  0  0  0  0  0999 V2000
  162.1640  209.8920  150.7090 C   0  0  0  0  0  2  0  0  0  0  0  0
  162.6530  207.6410  149.7490 C   0  0  0  0  0  2  0  0  0  0  0  0
  161.3450  207.8120  151.8830 C   0  0  0  0  0  2  0  0  0  0  0  0
  161.6410  207.0910  150.6470 N   0  0  0  0  0  0  0  0  0  0  0  0
  160.2850  205.2860  151.2500 O   0  0  0  0  0  0  0  0  0  0  0  0
  161.1790  205.7430  150.4850 C   0  0  0  0  0  0  0  0  0  0  0  0
  162.3150  209.0910  149.4210 C   0  0  0  0  0  2  0  0  0  0  0  0
  161.0720  209.2850  151.5950 C   0  0  1  0  0  3  0  0  0  0  0  0
  161.7550  204.8640  149.4100 C   0  0  1  0  0  3  0  0  0  0  0  0
  160.7640  203.9140  148.9150 N   0  0  0  0  0  2  0  0  0  0  0  0
  161.2680  202.5640  149.1460 C   0  0  2  0  0  3  0  0  0  0  0  0
  160.3120  201.4450  145.6590 C   0  0  0  0  0  3  0  0  0  0  0  0
  161.1380  201.7120  147.9180 C   0  0  0  0  0  0  0  0  0  0  0  0
  160.4620  202.2240  146.8060 C   0  0  0  0  0  3  0  0  0  0  0  0
  161.6610  200.4110  147.8750 C   0  0  0  0  0  3  0  0  0  0  0  0
  161.5110  199.6320  146.7270 C   0  0  0  0  0  3  0  0  0  0  0  0
  160.8370  200.1490  145.6190 C   0  0  0  0  0  3  0  0  0  0  0  0
  159.5100  201.0400  150.1200 N   0  0  0  0  0  1  0  0  0  0  0  0
  160.5880  201.9460  150.3250 C   0  0  0  0  0  0  0  0  0  0  0  0
  160.9640  202.2170  151.4960 O   0  0  0  0  0  0  0  0  0  0  0  0
  162.3510  205.6770  148.2660 C   0  0  0  0  0  2  0  0  0  0  0  0
  161.8040  205.2640  146.9760 N   0  0  0  0  0  0  0  0  0  0  0  0
  162.8790  204.6750  146.1860 C   0  0  0  0  0  2  0  0  0  0  0  0
  164.1030  204.9440  146.7940 O   0  0  0  0  0  1  0  0  0  0  0  0
  161.2520  206.4280  146.2730 C   0  0  0  0  0  2  0  0  0  0  0  0
  159.9870  206.1100  145.4720 C   0  0  0  0  0  2  0  0  0  0  0  0
  160.3010  205.1700  144.4320 N   0  0  0  0  0  0  0  0  0  0  0  0
  161.1580  205.4730  143.5330 C   0  0  0  0  0  2  0  0  0  0  0  0
  160.9160  210.0540  152.9030 C   0  0  0  0  0  2  0  0  0  0  0  0
  159.6660  209.8080  153.5070 O   0  0  0  0  0  0  0  0  0  0  0  0
  159.7460  210.0500  154.9000 C   0  0  1  0  0  3  0  0  0  0  0  0
  159.4840  208.8160  155.7670 C   0  0  0  0  0  2  0  0  0  0  0  0
  160.5470  207.7960  155.5500 C   0  0  0  0  0  0  0  0  0  0  0  0
  160.2540  206.6950  155.0120 O   0  0  0  0  0  0  0  0  0  0  0  0
  162.2140  208.3840  157.2600 C   0  0  0  0  0  1  0  0  0  0  0  0
  161.8620  208.0850  155.9190 O   0  0  0  0  0  0  0  0  0  0  0  0
  161.0240  210.7780  155.3020 C   0  0  0  0  0  2  0  0  0  0  0  0
  160.7200  211.9380  156.2000 C   0  0  0  0  0  0  0  0  0  0  0  0
  161.3410  212.0660  157.2430 O   0  0  0  0  0  0  0  0  0  0  0  0
  159.6500  212.9270  155.8270 C   0  0  2  0  0  3  0  0  0  0  0  0
  159.9180  214.2710  156.4770 C   0  0  0  0  0  1  0  0  0  0  0  0
  158.2700  212.4330  156.2250 C   0  0  0  0  0  2  0  0  0  0  0  0
  157.3800  213.5070  156.2980 O   0  0  0  0  0  0  0  0  0  0  0  0
  154.7730  213.4440  156.0720 O   0  0  0  0  0  1  0  0  0  0  0  0
  156.0590  211.3800  155.1290 O   0  0  0  0  0  0  0  0  0  0  0  0
  156.0470  213.0570  155.3510 P   0  0  2  0  0  0  0  0  0  0  0  0
  154.8230  214.3440  153.6390 C   0  0  0  0  0  1  0  0  0  0  0  0
  156.1020  213.8220  153.8370 O   0  0  0  0  0  0  0  0  0  0  0  0
  1  8  1  0  0  0  0
  2  4  1  0  0  0  0
  4  3  1  0  0  0  0
  6  4  1  0  0  0  0
  6  5  2  0  0  0  0
  7  2  1  0  0  0  0
  7  1  1  0  0  0  0
  8  3  1  0  0  0  0
  8 29  1  1  0  0  0
  9 21  1  6  0  0  0
  9  6  1  0  0  0  0
 10  9  1  0  0  0  0
 11 10  1  6  0  0  0
 11 19  1  0  0  0  0
 12 14  1  0  0  0  0
 13 11  1  0  0  0  0
 14 13  2  0  0  0  0
 15 13  1  0  0  0  0
 16 15  2  0  0  0  0
 17 12  2  0  0  0  0
 17 16  1  0  0  0  0
 18 19  1  0  0  0  0
 19 20  2  0  0  0  0
 22 21  1  0  0  0  0
 23 24  1  0  0  0  0
 23 22  1  0  0  0  0
 25 22  1  0  0  0  0
 26 25  1  0  0  0  0
 27 26  1  0  0  0  0
 28 27  2  0  0  0  0
 29 30  1  0  0  0  0
 30 31  1  0  0  0  0
 31 37  1  6  0  0  0
 31 32  1  0  0  0  0
 33 32  1  0  0  0  0
 33 36  1  0  0  0  0
 34 33  2  0  0  0  0
 36 35  1  0  0  0  0
 37 38  1  0  0  0  0
 38 39  2  0  0  0  0
 40 38  1  0  0  0  0
 40 42  1  0  0  0  0
 40 41  1  1  0  0  0
 42 43  1  0  0  0  0
 46 45  2  6  0  0  0
 46 44  1  0  0  0  0
 46 43  1  0  0  0  0
 47 48  1  0  0  0  0
 48 46  1  0  0  0  0
M  END
>  <MODEL>
3

>  <REMARK>
 VINA RESULT:      -4.3      3.003      4.557
  Name = 
  24 active torsions:
  status: ('A' for Active; 'I' for Inactive)
    1  A    between atoms: C_1  and  C_2
    2  A    between atoms: C_1  and  C_37
    3  A    between atoms: C_2  and  C_17
    4  A    between atoms: C_7  and  O_33
    5  A    between atoms: C_7  and  C_45
    6  A    between atoms: C_10  and  C_30
    7  A    between atoms: C_12  and  C_17
    8  A    between atoms: C_12  and  C_23
    9  A    between atoms: C_12  and  O_33
   10  A    between atoms: O_13  and  P_38
   11  A    between atoms: N_18  and  C_22
   12  A    between atoms: C_19  and  N_42
   13  A    between atoms: O_20  and  C_21
   14  A    between atoms: C_21  and  C_23
   15  A    between atoms: C_22  and  C_41
   16  A    between atoms: O_27  and  C_37
   17  A    between atoms: O_27  and  P_38
   18  A    between atoms: C_28  and  C_36
   19  A    between atoms: C_28  and  N_42
   20  A    between atoms: C_30  and  N_35
   21  A    between atoms: C_30  and  C_44
   22  A    between atoms: N_35  and  C_36
   23  A    between atoms: C_36  and  C_40
   24  A    between atoms: C_41  and  N_42
                            x       y       z     vdW  Elec       q    Type
                         _______ _______ _______ _____ _____    ______ ____

>  <TORSDO>
F 24

$$$$
=
 OpenBabel11072409563D

 48 49  0  0  1  0  0  0  0  0999 V2000
  162.3280  209.1890  148.4300 C   0  0  0  0  0  2  0  0  0  0  0  0
  161.1010  210.4900  150.1710 C   0  0  0  0  0  2  0  0  0  0  0  0
  161.2580  207.9950  150.3810 C   0  0  0  0  0  2  0  0  0  0  0  0
  161.1460  209.3040  151.0210 N   0  0  0  0  0  0  0  0  0  0  0  0
  160.8500  208.3610  153.1380 O   0  0  0  0  0  0  0  0  0  0  0  0
  160.7820  209.3860  152.4060 C   0  0  0  0  0  0  0  0  0  0  0  0
  162.2970  210.4890  149.2250 C   0  0  0  0  0  2  0  0  0  0  0  0
  162.4030  207.9840  149.3730 C   0  0  1  0  0  3  0  0  0  0  0  0
  160.3160  210.6880  152.9950 C   0  0  1  0  0  3  0  0  0  0  0  0
  161.2000  211.1320  154.0680 N   0  0  0  0  0  2  0  0  0  0  0  0
  160.6720  210.6330  155.3330 C   0  0  2  0  0  3  0  0  0  0  0  0
  159.2350  213.9330  156.5060 C   0  0  0  0  0  3  0  0  0  0  0  0
  159.7490  211.6290  155.9730 C   0  0  0  0  0  0  0  0  0  0  0  0
  160.0660  212.9890  155.9030 C   0  0  0  0  0  3  0  0  0  0  0  0
  158.5940  211.2180  156.6560 C   0  0  0  0  0  3  0  0  0  0  0  0
  157.7630  212.1630  157.2580 C   0  0  0  0  0  3  0  0  0  0  0  0
  158.0830  213.5210  157.1830 C   0  0  0  0  0  3  0  0  0  0  0  0
  163.0780  210.8130  156.0700 N   0  0  0  0  0  1  0  0  0  0  0  0
  161.7860  210.2410  156.2480 C   0  0  0  0  0  0  0  0  0  0  0  0
  161.5920  209.4120  157.1760 O   0  0  0  0  0  0  0  0  0  0  0  0
  160.1590  211.7720  151.9340 C   0  0  0  0  0  2  0  0  0  0  0  0
  159.4420  212.9320  152.4570 N   0  0  0  0  0  0  0  0  0  0  0  0
  158.0280  212.5940  152.5590 C   0  0  0  0  0  2  0  0  0  0  0  0
  157.4320  213.3810  153.5420 O   0  0  0  0  0  1  0  0  0  0  0  0
  159.6150  214.0740  151.5520 C   0  0  0  0  0  2  0  0  0  0  0  0
  160.1150  213.6770  150.1610 C   0  0  0  0  0  2  0  0  0  0  0  0
  158.9920  213.4610  149.2910 N   0  0  0  0  0  0  0  0  0  0  0  0
  158.4940  214.4390  148.6340 C   0  0  0  0  0  2  0  0  0  0  0  0
  162.4120  206.6670  148.6050 C   0  0  0  0  0  2  0  0  0  0  0  0
  161.9430  206.8290  147.2850 O   0  0  0  0  0  0  0  0  0  0  0  0
  161.7890  205.5630  146.6680 C   0  0  1  0  0  3  0  0  0  0  0  0
  162.2640  205.5130  145.2140 C   0  0  0  0  0  2  0  0  0  0  0  0
  161.1190  205.7300  144.2870 C   0  0  0  0  0  0  0  0  0  0  0  0
  160.0140  206.1290  144.7440 O   0  0  0  0  0  0  0  0  0  0  0  0
  161.8010  206.5300  142.0640 C   0  0  0  0  0  1  0  0  0  0  0  0
  161.2930  205.5180  142.9190 O   0  0  0  0  0  0  0  0  0  0  0  0
  162.3630  204.4240  147.5030 C   0  0  0  0  0  2  0  0  0  0  0  0
  161.5750  203.1650  147.3040 C   0  0  0  0  0  0  0  0  0  0  0  0
  160.9660  203.0000  146.2590 O   0  0  0  0  0  0  0  0  0  0  0  0
  161.5230  202.1220  148.3850 C   0  0  2  0  0  3  0  0  0  0  0  0
  161.3360  200.7420  147.7850 C   0  0  0  0  0  1  0  0  0  0  0  0
  160.4080  202.4030  149.3790 C   0  0  0  0  0  2  0  0  0  0  0  0
  160.8850  202.2630  150.6840 O   0  0  0  0  0  0  0  0  0  0  0  0
  160.4640  203.8110  152.7520 O   0  0  0  0  0  1  0  0  0  0  0  0
  159.9200  204.8380  150.4170 O   0  0  0  0  0  0  0  0  0  0  0  0
  160.9430  203.8360  151.3160 P   0  0  2  0  0  0  0  0  0  0  0  0
  162.5710  205.4560  152.2170 C   0  0  0  0  0  1  0  0  0  0  0  0
  162.5250  204.4500  151.2510 O   0  0  0  0  0  0  0  0  0  0  0  0
  1  7  1  0  0  0  0
  1  8  1  0  0  0  0
  2  4  1  0  0  0  0
  3  4  1  0  0  0  0
  4  6  1  0  0  0  0
  6  9  1  0  0  0  0
  6  5  2  0  0  0  0
  7  2  1  0  0  0  0
  8 29  1  6  0  0  0
  8  3  1  0  0  0  0
  9 21  1  6  0  0  0
  9 10  1  0  0  0  0
 11 10  1  6  0  0  0
 11 13  1  0  0  0  0
 11 19  1  0  0  0  0
 12 17  1  0  0  0  0
 13 15  2  0  0  0  0
 14 13  1  0  0  0  0
 14 12  2  0  0  0  0
 15 16  1  0  0  0  0
 17 16  2  0  0  0  0
 18 19  1  0  0  0  0
 19 20  2  0  0  0  0
 21 22  1  0  0  0  0
 22 23  1  0  0  0  0
 23 24  1  0  0  0  0
 25 22  1  0  0  0  0
 26 25  1  0  0  0  0
 27 26  1  0  0  0  0
 28 27  2  0  0  0  0
 30 29  1  0  0  0  0
 31 32  1  6  0  0  0
 31 30  1  0  0  0  0
 31 37  1  0  0  0  0
 33 34  2  0  0  0  0
 33 32  1  0  0  0  0
 35 36  1  0  0  0  0
 36 33  1  0  0  0  0
 38 37  1  0  0  0  0
 38 40  1  0  0  0  0
 39 38  2  0  0  0  0
 40 41  1  6  0  0  0
 40 42  1  0  0  0  0
 42 43  1  0  0  0  0
 43 46  1  0  0  0  0
 46 45  2  6  0  0  0
 46 44  1  0  0  0  0
 48 46  1  0  0  0  0
 48 47  1  0  0  0  0
M  END
>  <MODEL>
4

>  <REMARK>
 VINA RESULT:      -4.3      3.227     10.466
  Name = 
  24 active torsions:
  status: ('A' for Active; 'I' for Inactive)
    1  A    between atoms: C_1  and  C_2
    2  A    between atoms: C_1  and  C_37
    3  A    between atoms: C_2  and  C_17
    4  A    between atoms: C_7  and  O_33
    5  A    between atoms: C_7  and  C_45
    6  A    between atoms: C_10  and  C_30
    7  A    between atoms: C_12  and  C_17
    8  A    between atoms: C_12  and  C_23
    9  A    between atoms: C_12  and  O_33
   10  A    between atoms: O_13  and  P_38
   11  A    between atoms: N_18  and  C_22
   12  A    between atoms: C_19  and  N_42
   13  A    between atoms: O_20  and  C_21
   14  A    between atoms: C_21  and  C_23
   15  A    between atoms: C_22  and  C_41
   16  A    between atoms: O_27  and  C_37
   17  A    between atoms: O_27  and  P_38
   18  A    between atoms: C_28  and  C_36
   19  A    between atoms: C_28  and  N_42
   20  A    between atoms: C_30  and  N_35
   21  A    between atoms: C_30  and  C_44
   22  A    between atoms: N_35  and  C_36
   23  A    between atoms: C_36  and  C_40
   24  A    between atoms: C_41  and  N_42
                            x       y       z     vdW  Elec       q    Type
                         _______ _______ _______ _____ _____    ______ ____

>  <TORSDO>
F 24

$$$$
=
 OpenBabel11072409563D

 48 49  0  0  1  0  0  0  0  0999 V2000
  162.1310  209.5880  149.1140 C   0  0  0  0  0  2  0  0  0  0  0  0
  160.7710  210.7120  150.8790 C   0  0  0  0  0  2  0  0  0  0  0  0
  161.0490  208.2200  150.9400 C   0  0  0  0  0  2  0  0  0  0  0  0
  160.8440  209.4770  151.6550 N   0  0  0  0  0  0  0  0  0  0  0  0
  160.5150  208.3860  153.6950 O   0  0  0  0  0  0  0  0  0  0  0  0
  160.4230  209.4520  153.0250 C   0  0  0  0  0  0  0  0  0  0  0  0
  162.0010  210.8310  149.9860 C   0  0  0  0  0  2  0  0  0  0  0  0
  162.2320  208.3300  149.9830 C   0  0  1  0  0  3  0  0  0  0  0  0
  159.8670  210.6890  153.6740 C   0  0  1  0  0  3  0  0  0  0  0  0
  160.9330  211.5950  154.0890 N   0  0  0  0  0  2  0  0  0  0  0  0
  160.9350  211.6630  155.5470 C   0  0  2  0  0  3  0  0  0  0  0  0
  162.2820  208.3920  156.8950 C   0  0  0  0  0  3  0  0  0  0  0  0
  160.9780  210.2940  156.1590 C   0  0  0  0  0  0  0  0  0  0  0  0
  162.2170  209.6720  156.3450 C   0  0  0  0  0  3  0  0  0  0  0  0
  159.8010  209.6220  156.5250 C   0  0  0  0  0  3  0  0  0  0  0  0
  159.8670  208.3420  157.0760 C   0  0  0  0  0  3  0  0  0  0  0  0
  161.1070  207.7270  157.2610 C   0  0  0  0  0  3  0  0  0  0  0  0
  159.7820  213.8730  155.9330 N   0  0  0  0  0  1  0  0  0  0  0  0
  159.7660  212.4540  156.0360 C   0  0  0  0  0  0  0  0  0  0  0  0
  158.7640  211.8750  156.5350 O   0  0  0  0  0  0  0  0  0  0  0  0
  158.8630  211.4030  152.7760 C   0  0  0  0  0  2  0  0  0  0  0  0
  158.5230  212.7240  153.3000 N   0  0  0  0  0  0  0  0  0  0  0  0
  157.1190  212.7180  153.6940 C   0  0  0  0  0  2  0  0  0  0  0  0
  156.7080  214.0210  153.9660 O   0  0  0  0  0  1  0  0  0  0  0  0
  158.7430  213.7410  152.2650 C   0  0  0  0  0  2  0  0  0  0  0  0
  158.2340  213.3240  150.8840 C   0  0  0  0  0  2  0  0  0  0  0  0
  159.1780  213.7330  149.8810 N   0  0  0  0  0  0  0  0  0  0  0  0
  158.8260  213.7800  148.6520 C   0  0  0  0  0  2  0  0  0  0  0  0
  162.3380  207.0670  149.1350 C   0  0  0  0  0  2  0  0  0  0  0  0
  161.2480  206.9380  148.2500 O   0  0  0  0  0  0  0  0  0  0  0  0
  161.3380  205.7120  147.5470 C   0  0  1  0  0  3  0  0  0  0  0  0
  161.9500  205.8330  146.1500 C   0  0  0  0  0  2  0  0  0  0  0  0
  160.8850  205.7770  145.1110 C   0  0  0  0  0  0  0  0  0  0  0  0
  160.0100  206.6830  145.0650 O   0  0  0  0  0  0  0  0  0  0  0  0
  159.8480  203.7700  144.1390 C   0  0  0  0  0  1  0  0  0  0  0  0
  160.8860  204.7370  144.1810 O   0  0  0  0  0  0  0  0  0  0  0  0
  161.9900  204.6050  148.3690 C   0  0  0  0  0  2  0  0  0  0  0  0
  161.5050  203.2570  147.9310 C   0  0  0  0  0  0  0  0  0  0  0  0
  161.1280  203.1020  146.7800 O   0  0  0  0  0  0  0  0  0  0  0  0
  161.4700  202.1100  148.9020 C   0  0  2  0  0  3  0  0  0  0  0  0
  161.0270  200.8360  148.2060 C   0  0  0  0  0  1  0  0  0  0  0  0
  160.5470  202.3990  150.0740 C   0  0  0  0  0  2  0  0  0  0  0  0
  161.2800  202.4380  151.2610 O   0  0  0  0  0  0  0  0  0  0  0  0
  160.5180  203.9880  153.2280 O   0  0  0  0  0  1  0  0  0  0  0  0
  160.0920  204.8920  150.8190 O   0  0  0  0  0  0  0  0  0  0  0  0
  161.1220  204.0240  151.8400 P   0  0  2  0  0  0  0  0  0  0  0  0
  162.4680  205.8750  152.7630 C   0  0  0  0  0  1  0  0  0  0  0  0
  162.6340  204.7950  151.8940 O   0  0  0  0  0  0  0  0  0  0  0  0
  1  8  1  0  0  0  0
  1  7  1  0  0  0  0
  2  4  1  0  0  0  0
  3  4  1  0  0  0  0
  4  6  1  0  0  0  0
  6  9  1  0  0  0  0
  6  5  2  0  0  0  0
  7  2  1  0  0  0  0
  8 29  1  6  0  0  0
  8  3  1  0  0  0  0
  9 21  1  6  0  0  0
  9 10  1  0  0  0  0
 11 10  1  6  0  0  0
 11 19  1  0  0  0  0
 11 13  1  0  0  0  0
 12 17  1  0  0  0  0
 13 14  1  0  0  0  0
 13 15  2  0  0  0  0
 14 12  2  0  0  0  0
 15 16  1  0  0  0  0
 16 17  2  0  0  0  0
 18 19  1  0  0  0  0
 19 20  2  0  0  0  0
 21 22  1  0  0  0  0
 22 23  1  0  0  0  0
 23 24  1  0  0  0  0
 25 22  1  0  0  0  0
 26 25  1  0  0  0  0
 27 26  1  0  0  0  0
 28 27  2  0  0  0  0
 30 29  1  0  0  0  0
 31 32  1  6  0  0  0
 31 30  1  0  0  0  0
 31 37  1  0  0  0  0
 33 32  1  0  0  0  0
 34 33  2  0  0  0  0
 35 36  1  0  0  0  0
 36 33  1  0  0  0  0
 38 37  1  0  0  0  0
 38 40  1  0  0  0  0
 39 38  2  0  0  0  0
 40 41  1  6  0  0  0
 40 42  1  0  0  0  0
 42 43  1  0  0  0  0
 43 46  1  0  0  0  0
 46 45  2  6  0  0  0
 46 48  1  0  0  0  0
 46 44  1  0  0  0  0
 48 47  1  0  0  0  0
M  END
>  <MODEL>
5

>  <REMARK>
 VINA RESULT:      -3.8      3.288     10.082
  Name = 
  24 active torsions:
  status: ('A' for Active; 'I' for Inactive)
    1  A    between atoms: C_1  and  C_2
    2  A    between atoms: C_1  and  C_37
    3  A    between atoms: C_2  and  C_17
    4  A    between atoms: C_7  and  O_33
    5  A    between atoms: C_7  and  C_45
    6  A    between atoms: C_10  and  C_30
    7  A    between atoms: C_12  and  C_17
    8  A    between atoms: C_12  and  C_23
    9  A    between atoms: C_12  and  O_33
   10  A    between atoms: O_13  and  P_38
   11  A    between atoms: N_18  and  C_22
   12  A    between atoms: C_19  and  N_42
   13  A    between atoms: O_20  and  C_21
   14  A    between atoms: C_21  and  C_23
   15  A    between atoms: C_22  and  C_41
   16  A    between atoms: O_27  and  C_37
   17  A    between atoms: O_27  and  P_38
   18  A    between atoms: C_28  and  C_36
   19  A    between atoms: C_28  and  N_42
   20  A    between atoms: C_30  and  N_35
   21  A    between atoms: C_30  and  C_44
   22  A    between atoms: N_35  and  C_36
   23  A    between atoms: C_36  and  C_40
   24  A    between atoms: C_41  and  N_42
                            x       y       z     vdW  Elec       q    Type
                         _______ _______ _______ _____ _____    ______ ____

>  <TORSDO>
F 24

$$$$
=
 OpenBabel11072409563D

 48 49  0  0  1  0  0  0  0  0999 V2000
  162.4200  209.4940  149.7370 C   0  0  0  0  0  2  0  0  0  0  0  0
  160.8540  211.2410  150.5880 C   0  0  0  0  0  2  0  0  0  0  0  0
  160.8050  208.9460  151.6000 C   0  0  0  0  0  2  0  0  0  0  0  0
  160.6040  210.3850  151.7450 N   0  0  0  0  0  0  0  0  0  0  0  0
  159.7060  210.1500  153.8890 O   0  0  0  0  0  0  0  0  0  0  0  0
  159.8930  210.8900  152.8840 C   0  0  0  0  0  0  0  0  0  0  0  0
  162.2550  210.9770  150.0470 C   0  0  0  0  0  2  0  0  0  0  0  0
  162.1740  208.6520  150.9920 C   0  0  1  0  0  3  0  0  0  0  0  0
  159.3630  212.2960  152.8890 C   0  0  1  0  0  3  0  0  0  0  0  0
  159.8420  213.0390  154.0510 N   0  0  0  0  0  2  0  0  0  0  0  0
  159.3050  212.4070  155.2520 C   0  0  2  0  0  3  0  0  0  0  0  0
  156.1200  213.0980  157.1780 C   0  0  0  0  0  3  0  0  0  0  0  0
  157.9580  212.9650  155.6100 C   0  0  0  0  0  0  0  0  0  0  0  0
  157.3790  212.6070  156.8300 C   0  0  0  0  0  3  0  0  0  0  0  0
  157.2670  213.8160  154.7340 C   0  0  0  0  0  3  0  0  0  0  0  0
  156.0080  214.3070  155.0820 C   0  0  0  0  0  3  0  0  0  0  0  0
  155.4340  213.9480  156.3040 C   0  0  0  0  0  3  0  0  0  0  0  0
  160.8360  211.3490  156.9540 N   0  0  0  0  0  1  0  0  0  0  0  0
  160.2730  212.5250  156.3840 C   0  0  0  0  0  0  0  0  0  0  0  0
  160.5980  213.6560  156.8330 O   0  0  0  0  0  0  0  0  0  0  0  0
  159.6910  213.0350  151.5960 C   0  0  0  0  0  2  0  0  0  0  0  0
  158.6360  213.9800  151.2390 N   0  0  0  0  0  0  0  0  0  0  0  0
  157.3510  213.2990  151.3440 C   0  0  0  0  0  2  0  0  0  0  0  0
  156.3730  214.2100  151.7380 O   0  0  0  0  0  1  0  0  0  0  0  0
  158.8350  214.4530  149.8640 C   0  0  0  0  0  2  0  0  0  0  0  0
  158.0560  213.6450  148.8240 C   0  0  0  0  0  2  0  0  0  0  0  0
  158.8090  213.5830  147.6020 N   0  0  0  0  0  0  0  0  0  0  0  0
  160.0860  213.5290  147.6390 C   0  0  0  0  0  2  0  0  0  0  0  0
  162.3090  207.1600  150.7050 C   0  0  0  0  0  2  0  0  0  0  0  0
  161.2070  206.4310  151.1960 O   0  0  0  0  0  0  0  0  0  0  0  0
  161.6560  205.3530  151.9960 C   0  0  1  0  0  3  0  0  0  0  0  0
  160.9960  205.2760  153.3750 C   0  0  0  0  0  2  0  0  0  0  0  0
  161.1860  206.5560  154.1120 C   0  0  0  0  0  0  0  0  0  0  0  0
  162.3280  207.0890  154.1510 O   0  0  0  0  0  0  0  0  0  0  0  0
  160.0220  207.3370  156.1330 C   0  0  0  0  0  1  0  0  0  0  0  0
  160.0910  207.1640  154.7260 O   0  0  0  0  0  0  0  0  0  0  0  0
  161.6190  204.0160  151.2630 C   0  0  0  0  0  2  0  0  0  0  0  0
  160.6060  204.0400  150.1590 C   0  0  0  0  0  0  0  0  0  0  0  0
  159.9780  205.0640  149.9460 O   0  0  0  0  0  0  0  0  0  0  0  0
  160.3560  202.8100  149.3310 C   0  0  2  0  0  3  0  0  0  0  0  0
  160.8550  201.5720  150.0520 C   0  0  0  0  0  1  0  0  0  0  0  0
  161.0190  202.9090  147.9680 C   0  0  0  0  0  2  0  0  0  0  0  0
  162.1040  203.7860  148.0270 O   0  0  0  0  0  0  0  0  0  0  0  0
  160.9490  204.1140  145.7010 O   0  0  0  0  0  0  0  0  0  0  0  0
  163.5440  204.3720  145.7430 O   0  0  0  0  0  1  0  0  0  0  0  0
  162.0850  204.6320  146.5580 P   0  0  2  0  0  0  0  0  0  0  0  0
  160.9150  206.7060  145.9110 C   0  0  0  0  0  1  0  0  0  0  0  0
  161.8850  206.2960  146.8270 O   0  0  0  0  0  0  0  0  0  0  0  0
  1  7  1  0  0  0  0
  1  8  1  0  0  0  0
  2  4  1  0  0  0  0
  3  4  1  0  0  0  0
  4  6  1  0  0  0  0
  6  9  1  0  0  0  0
  6  5  2  0  0  0  0
  7  2  1  0  0  0  0
  8 29  1  6  0  0  0
  8  3  1  0  0  0  0
  9 21  1  6  0  0  0
  9 10  1  0  0  0  0
 11 10  1  6  0  0  0
 11 13  1  0  0  0  0
 11 19  1  0  0  0  0
 13 14  2  0  0  0  0
 14 12  1  0  0  0  0
 15 16  2  0  0  0  0
 15 13  1  0  0  0  0
 16 17  1  0  0  0  0
 17 12  2  0  0  0  0
 19 20  2  0  0  0  0
 19 18  1  0  0  0  0
 22 23  1  0  0  0  0
 22 21  1  0  0  0  0
 23 24  1  0  0  0  0
 25 22  1  0  0  0  0
 26 25  1  0  0  0  0
 27 28  2  0  0  0  0
 27 26  1  0  0  0  0
 29 30  1  0  0  0  0
 30 31  1  0  0  0  0
 31 37  1  6  0  0  0
 31 32  1  0  0  0  0
 32 33  1  0  0  0  0
 33 34  2  0  0  0  0
 33 36  1  0  0  0  0
 36 35  1  0  0  0  0
 38 37  1  0  0  0  0
 39 38  2  0  0  0  0
 40 41  1  1  0  0  0
 40 38  1  0  0  0  0
 42 43  1  0  0  0  0
 42 40  1  0  0  0  0
 45 46  1  0  0  0  0
 46 44  2  6  0  0  0
 46 48  1  0  0  0  0
 46 43  1  0  0  0  0
 47 48  1  0  0  0  0
M  END
>  <MODEL>
6

>  <REMARK>
 VINA RESULT:      -3.6      3.462      9.534
  Name = 
  24 active torsions:
  status: ('A' for Active; 'I' for Inactive)
    1  A    between atoms: C_1  and  C_2
    2  A    between atoms: C_1  and  C_37
    3  A    between atoms: C_2  and  C_17
    4  A    between atoms: C_7  and  O_33
    5  A    between atoms: C_7  and  C_45
    6  A    between atoms: C_10  and  C_30
    7  A    between atoms: C_12  and  C_17
    8  A    between atoms: C_12  and  C_23
    9  A    between atoms: C_12  and  O_33
   10  A    between atoms: O_13  and  P_38
   11  A    between atoms: N_18  and  C_22
   12  A    between atoms: C_19  and  N_42
   13  A    between atoms: O_20  and  C_21
   14  A    between atoms: C_21  and  C_23
   15  A    between atoms: C_22  and  C_41
   16  A    between atoms: O_27  and  C_37
   17  A    between atoms: O_27  and  P_38
   18  A    between atoms: C_28  and  C_36
   19  A    between atoms: C_28  and  N_42
   20  A    between atoms: C_30  and  N_35
   21  A    between atoms: C_30  and  C_44
   22  A    between atoms: N_35  and  C_36
   23  A    between atoms: C_36  and  C_40
   24  A    between atoms: C_41  and  N_42
                            x       y       z     vdW  Elec       q    Type
                         _______ _______ _______ _____ _____    ______ ____

>  <TORSDO>
F 24

$$$$
=
 OpenBabel11072409563D

 48 49  0  0  1  0  0  0  0  0999 V2000
  161.9950  207.8360  148.6510 C   0  0  0  0  0  2  0  0  0  0  0  0
  161.3260  209.7760  150.0710 C   0  0  0  0  0  2  0  0  0  0  0  0
  160.4540  207.4890  150.6210 C   0  0  0  0  0  2  0  0  0  0  0  0
  160.8530  208.8210  151.0700 N   0  0  0  0  0  0  0  0  0  0  0  0
  160.1140  208.4240  153.2500 O   0  0  0  0  0  0  0  0  0  0  0  0
  160.4960  209.2610  152.3870 C   0  0  0  0  0  0  0  0  0  0  0  0
  162.4570  209.1530  149.2610 C   0  0  0  0  0  2  0  0  0  0  0  0
  161.5390  206.8670  149.7460 C   0  0  1  0  0  3  0  0  0  0  0  0
  160.5700  210.7180  152.7490 C   0  0  1  0  0  3  0  0  0  0  0  0
  161.5780  210.9590  153.7760 N   0  0  0  0  0  2  0  0  0  0  0  0
  161.0840  210.4180  155.0390 C   0  0  2  0  0  3  0  0  0  0  0  0
  157.6600  211.4860  156.2500 C   0  0  0  0  0  3  0  0  0  0  0  0
  159.9820  211.2660  155.6040 C   0  0  0  0  0  0  0  0  0  0  0  0
  158.7060  210.7130  155.7440 C   0  0  0  0  0  3  0  0  0  0  0  0
  160.2050  212.6020  155.9680 C   0  0  0  0  0  3  0  0  0  0  0  0
  159.1590  213.3750  156.4740 C   0  0  0  0  0  3  0  0  0  0  0  0
  157.8860  212.8170  156.6150 C   0  0  0  0  0  3  0  0  0  0  0  0
  163.3790  211.0440  155.8800 N   0  0  0  0  0  1  0  0  0  0  0  0
  162.2060  210.2470  156.0110 C   0  0  0  0  0  0  0  0  0  0  0  0
  162.1220  209.4070  156.9460 O   0  0  0  0  0  0  0  0  0  0  0  0
  160.8150  211.5990  151.5280 C   0  0  0  0  0  2  0  0  0  0  0  0
  160.1190  212.8780  151.6450 N   0  0  0  0  0  0  0  0  0  0  0  0
  158.7570  212.6240  152.0980 C   0  0  0  0  0  2  0  0  0  0  0  0
  157.8590  212.9880  151.0960 O   0  0  0  0  0  1  0  0  0  0  0  0
  160.0910  213.5500  150.3410 C   0  0  0  0  0  2  0  0  0  0  0  0
  161.0790  212.9610  149.3320 C   0  0  0  0  0  2  0  0  0  0  0  0
  160.7370  213.4060  148.0090 N   0  0  0  0  0  0  0  0  0  0  0  0
  159.5730  213.1730  147.5360 C   0  0  0  0  0  2  0  0  0  0  0  0
  161.0470  205.5470  149.1620 C   0  0  0  0  0  2  0  0  0  0  0  0
  160.4220  204.7440  150.1380 O   0  0  0  0  0  0  0  0  0  0  0  0
  161.3940  203.9830  150.8330 C   0  0  1  0  0  3  0  0  0  0  0  0
  161.2050  203.9610  152.3520 C   0  0  0  0  0  2  0  0  0  0  0  0
  161.5300  205.2920  152.9340 C   0  0  0  0  0  0  0  0  0  0  0  0
  162.6510  205.8180  152.6980 O   0  0  0  0  0  0  0  0  0  0  0  0
  160.8010  206.2520  155.0780 C   0  0  0  0  0  1  0  0  0  0  0  0
  160.5770  205.9550  153.7080 O   0  0  0  0  0  0  0  0  0  0  0  0
  161.5750  202.5840  150.2530 C   0  0  0  0  0  2  0  0  0  0  0  0
  160.3490  202.1510  149.5090 C   0  0  0  0  0  0  0  0  0  0  0  0
  159.2510  202.5040  149.9080 O   0  0  0  0  0  0  0  0  0  0  0  0
  160.4680  201.2770  148.2910 C   0  0  2  0  0  3  0  0  0  0  0  0
  161.6420  200.3270  148.4300 C   0  0  0  0  0  1  0  0  0  0  0  0
  160.6260  202.1020  147.0250 C   0  0  0  0  0  2  0  0  0  0  0  0
  161.5750  203.1070  147.2240 O   0  0  0  0  0  0  0  0  0  0  0  0
  160.7170  203.3390  144.7620 O   0  0  0  0  0  0  0  0  0  0  0  0
  163.1140  204.2520  145.2360 O   0  0  0  0  0  1  0  0  0  0  0  0
  161.5380  204.0510  145.8160 P   0  0  2  0  0  0  0  0  0  0  0  0
  160.4430  206.0620  144.8950 C   0  0  0  0  0  1  0  0  0  0  0  0
  160.8620  205.5760  146.1350 O   0  0  0  0  0  0  0  0  0  0  0  0
  1  7  1  0  0  0  0
  1  8  1  0  0  0  0
  2  4  1  0  0  0  0
  3  4  1  0  0  0  0
  4  6  1  0  0  0  0
  6  9  1  0  0  0  0
  6  5  2  0  0  0  0
  7  2  1  0  0  0  0
  8 29  1  6  0  0  0
  8  3  1  0  0  0  0
  9 21  1  6  0  0  0
  9 10  1  0  0  0  0
 11 10  1  6  0  0  0
 11 13  1  0  0  0  0
 11 19  1  0  0  0  0
 12 17  1  0  0  0  0
 13 14  1  0  0  0  0
 13 15  2  0  0  0  0
 14 12  2  0  0  0  0
 15 16  1  0  0  0  0
 16 17  2  0  0  0  0
 18 19  1  0  0  0  0
 19 20  2  0  0  0  0
 21 22  1  0  0  0  0
 22 23  1  0  0  0  0
 24 23  1  0  0  0  0
 25 22  1  0  0  0  0
 26 25  1  0  0  0  0
 27 26  1  0  0  0  0
 28 27  2  0  0  0  0
 29 30  1  0  0  0  0
 30 31  1  0  0  0  0
 31 37  1  6  0  0  0
 31 32  1  0  0  0  0
 32 33  1  0  0  0  0
 33 36  1  0  0  0  0
 34 33  2  0  0  0  0
 36 35  1  0  0  0  0
 38 39  2  0  0  0  0
 38 37  1  0  0  0  0
 40 41  1  1  0  0  0
 40 38  1  0  0  0  0
 42 43  1  0  0  0  0
 42 40  1  0  0  0  0
 45 46  1  0  0  0  0
 46 44  2  6  0  0  0
 46 48  1  0  0  0  0
 46 43  1  0  0  0  0
 47 48  1  0  0  0  0
M  END
>  <MODEL>
7

>  <REMARK>
 VINA RESULT:      -3.4      3.107      9.378
  Name = 
  24 active torsions:
  status: ('A' for Active; 'I' for Inactive)
    1  A    between atoms: C_1  and  C_2
    2  A    between atoms: C_1  and  C_37
    3  A    between atoms: C_2  and  C_17
    4  A    between atoms: C_7  and  O_33
    5  A    between atoms: C_7  and  C_45
    6  A    between atoms: C_10  and  C_30
    7  A    between atoms: C_12  and  C_17
    8  A    between atoms: C_12  and  C_23
    9  A    between atoms: C_12  and  O_33
   10  A    between atoms: O_13  and  P_38
   11  A    between atoms: N_18  and  C_22
   12  A    between atoms: C_19  and  N_42
   13  A    between atoms: O_20  and  C_21
   14  A    between atoms: C_21  and  C_23
   15  A    between atoms: C_22  and  C_41
   16  A    between atoms: O_27  and  C_37
   17  A    between atoms: O_27  and  P_38
   18  A    between atoms: C_28  and  C_36
   19  A    between atoms: C_28  and  N_42
   20  A    between atoms: C_30  and  N_35
   21  A    between atoms: C_30  and  C_44
   22  A    between atoms: N_35  and  C_36
   23  A    between atoms: C_36  and  C_40
   24  A    between atoms: C_41  and  N_42
                            x       y       z     vdW  Elec       q    Type
                         _______ _______ _______ _____ _____    ______ ____

>  <TORSDO>
F 24

$$$$
=
 OpenBabel11072409563D

 48 49  0  0  1  0  0  0  0  0999 V2000
  160.7840  208.4250  153.1690 C   0  0  0  0  0  2  0  0  0  0  0  0
  160.4550  206.9090  151.2150 C   0  0  0  0  0  2  0  0  0  0  0  0
  161.6080  209.1110  150.8830 C   0  0  0  0  0  2  0  0  0  0  0  0
  161.4260  207.7180  150.4830 N   0  0  0  0  0  0  0  0  0  0  0  0
  162.8120  207.9610  148.6180 O   0  0  0  0  0  0  0  0  0  0  0  0
  161.9530  207.2660  149.2290 C   0  0  0  0  0  0  0  0  0  0  0  0
  160.7540  206.9730  152.7080 C   0  0  0  0  0  2  0  0  0  0  0  0
  161.8380  209.2150  152.3880 C   0  0  1  0  0  3  0  0  0  0  0  0
  161.4880  205.9680  148.6300 C   0  0  1  0  0  3  0  0  0  0  0  0
  160.7400  205.1740  149.6000 N   0  0  0  0  0  2  0  0  0  0  0  0
  161.5670  204.0400  149.9990 C   0  0  2  0  0  3  0  0  0  0  0  0
  159.3650  201.0970  149.0930 C   0  0  0  0  0  3  0  0  0  0  0  0
  161.0960  202.7670  149.3590 C   0  0  0  0  0  0  0  0  0  0  0  0
  159.8180  202.2880  149.6610 C   0  0  0  0  0  3  0  0  0  0  0  0
  161.9220  202.0420  148.4850 C   0  0  0  0  0  3  0  0  0  0  0  0
  161.4670  200.8520  147.9170 C   0  0  0  0  0  3  0  0  0  0  0  0
  160.1880  200.3790  148.2210 C   0  0  0  0  0  3  0  0  0  0  0  0
  162.8540  204.1190  152.1670 N   0  0  0  0  0  1  0  0  0  0  0  0
  161.6180  203.9260  151.4880 C   0  0  0  0  0  0  0  0  0  0  0  0
  160.5760  203.6660  152.1470 O   0  0  0  0  0  0  0  0  0  0  0  0
  160.6750  206.1840  147.3590 C   0  0  0  0  0  2  0  0  0  0  0  0
  161.2060  205.4000  146.2460 N   0  0  0  0  0  0  0  0  0  0  0  0
  162.5990  205.7770  146.0380 C   0  0  0  0  0  2  0  0  0  0  0  0
  163.4240  204.7000  146.3540 O   0  0  0  0  0  1  0  0  0  0  0  0
  160.4320  205.6740  145.0300 C   0  0  0  0  0  2  0  0  0  0  0  0
  159.5220  204.5160  144.6150 C   0  0  0  0  0  2  0  0  0  0  0  0
  160.3060  203.3210  144.4620 N   0  0  0  0  0  0  0  0  0  0  0  0
  160.0830  202.3090  145.2110 C   0  0  0  0  0  2  0  0  0  0  0  0
  161.8740  210.6790  152.8120 C   0  0  0  0  0  2  0  0  0  0  0  0
  161.2750  210.8730  154.0730 O   0  0  0  0  0  0  0  0  0  0  0  0
  160.0970  211.6460  153.9360 C   0  0  1  0  0  3  0  0  0  0  0  0
  159.7550  212.4920  155.1650 C   0  0  0  0  0  2  0  0  0  0  0  0
  160.2280  211.8180  156.4060 C   0  0  0  0  0  0  0  0  0  0  0  0
  161.2660  212.2370  156.9850 O   0  0  0  0  0  0  0  0  0  0  0  0
  160.0980  209.4910  157.1910 C   0  0  0  0  0  1  0  0  0  0  0  0
  159.4980  210.7500  156.9290 O   0  0  0  0  0  0  0  0  0  0  0  0
  160.0710  212.4620  152.6480 C   0  0  0  0  0  2  0  0  0  0  0  0
  158.6680  212.8390  152.2810 C   0  0  0  0  0  0  0  0  0  0  0  0
  157.7440  212.1270  152.6420 O   0  0  0  0  0  0  0  0  0  0  0  0
  158.4010  214.0730  151.4650 C   0  0  2  0  0  3  0  0  0  0  0  0
  157.1000  213.9350  150.6990 C   0  0  0  0  0  1  0  0  0  0  0  0
  159.5370  214.3580  150.4970 C   0  0  0  0  0  2  0  0  0  0  0  0
  159.1280  214.0900  149.1880 O   0  0  0  0  0  0  0  0  0  0  0  0
  161.5600  214.4390  148.2880 O   0  0  0  0  0  1  0  0  0  0  0  0
  160.0300  212.8620  146.8840 O   0  0  0  0  0  0  0  0  0  0  0  0
  160.4730  213.3940  148.4260 P   0  0  2  0  0  0  0  0  0  0  0  0
  162.4100  211.9750  148.9970 C   0  0  0  0  0  1  0  0  0  0  0  0
  161.0570  212.0770  149.3250 O   0  0  0  0  0  0  0  0  0  0  0  0
  2  7  1  0  0  0  0
  3  8  1  0  0  0  0
  4  3  1  0  0  0  0
  4  2  1  0  0  0  0
  5  6  2  0  0  0  0
  6  4  1  0  0  0  0
  7  1  1  0  0  0  0
  8 29  1  1  0  0  0
  8  1  1  0  0  0  0
  9 21  1  6  0  0  0
  9  6  1  0  0  0  0
  9 10  1  0  0  0  0
 11 10  1  1  0  0  0
 11 19  1  0  0  0  0
 12 14  1  0  0  0  0
 13 14  2  0  0  0  0
 13 11  1  0  0  0  0
 15 13  1  0  0  0  0
 16 17  1  0  0  0  0
 16 15  2  0  0  0  0
 17 12  2  0  0  0  0
 19 20  2  0  0  0  0
 19 18  1  0  0  0  0
 22 21  1  0  0  0  0
 23 22  1  0  0  0  0
 23 24  1  0  0  0  0
 25 22  1  0  0  0  0
 26 25  1  0  0  0  0
 27 26  1  0  0  0  0
 27 28  2  0  0  0  0
 29 30  1  0  0  0  0
 31 37  1  6  0  0  0
 31 30  1  0  0  0  0
 31 32  1  0  0  0  0
 32 33  1  0  0  0  0
 33 36  1  0  0  0  0
 33 34  2  0  0  0  0
 36 35  1  0  0  0  0
 38 39  2  0  0  0  0
 38 37  1  0  0  0  0
 40 41  1  6  0  0  0
 40 38  1  0  0  0  0
 42 40  1  0  0  0  0
 43 42  1  0  0  0  0
 44 46  1  0  0  0  0
 46 45  2  6  0  0  0
 46 43  1  0  0  0  0
 46 48  1  0  0  0  0
 47 48  1  0  0  0  0
M  END
>  <MODEL>
8

>  <REMARK>
 VINA RESULT:      -3.3      1.490      2.019
  Name = 
  24 active torsions:
  status: ('A' for Active; 'I' for Inactive)
    1  A    between atoms: C_1  and  C_2
    2  A    between atoms: C_1  and  C_37
    3  A    between atoms: C_2  and  C_17
    4  A    between atoms: C_7  and  O_33
    5  A    between atoms: C_7  and  C_45
    6  A    between atoms: C_10  and  C_30
    7  A    between atoms: C_12  and  C_17
    8  A    between atoms: C_12  and  C_23
    9  A    between atoms: C_12  and  O_33
   10  A    between atoms: O_13  and  P_38
   11  A    between atoms: N_18  and  C_22
   12  A    between atoms: C_19  and  N_42
   13  A    between atoms: O_20  and  C_21
   14  A    between atoms: C_21  and  C_23
   15  A    between atoms: C_22  and  C_41
   16  A    between atoms: O_27  and  C_37
   17  A    between atoms: O_27  and  P_38
   18  A    between atoms: C_28  and  C_36
   19  A    between atoms: C_28  and  N_42
   20  A    between atoms: C_30  and  N_35
   21  A    between atoms: C_30  and  C_44
   22  A    between atoms: N_35  and  C_36
   23  A    between atoms: C_36  and  C_40
   24  A    between atoms: C_41  and  N_42
                            x       y       z     vdW  Elec       q    Type
                         _______ _______ _______ _____ _____    ______ ____

>  <TORSDO>
F 24

$$$$
=
 OpenBabel11072409563D

 48 49  0  0  1  0  0  0  0  0999 V2000
  161.0030  206.5930  155.3440 C   0  0  0  0  0  2  0  0  0  0  0  0
  160.9150  209.0860  155.2780 C   0  0  0  0  0  2  0  0  0  0  0  0
  161.1820  207.8070  153.1370 C   0  0  0  0  0  2  0  0  0  0  0  0
  160.6950  208.9930  153.8370 N   0  0  0  0  0  0  0  0  0  0  0  0
  160.0870  210.0500  151.8450 O   0  0  0  0  0  0  0  0  0  0  0  0
  160.3000  210.1480  153.0850 C   0  0  0  0  0  0  0  0  0  0  0  0
  160.3730  207.8350  155.9620 C   0  0  0  0  0  2  0  0  0  0  0  0
  160.7160  206.5360  153.8410 C   0  0  1  0  0  3  0  0  0  0  0  0
  160.1390  211.4800  153.7620 C   0  0  1  0  0  3  0  0  0  0  0  0
  160.4720  212.5770  152.8600 N   0  0  0  0  0  2  0  0  0  0  0  0
  159.6580  212.4450  151.6560 C   0  0  2  0  0  3  0  0  0  0  0  0
  162.2500  211.7880  148.9770 C   0  0  0  0  0  3  0  0  0  0  0  0
  160.4840  212.6080  150.4150 C   0  0  0  0  0  0  0  0  0  0  0  0
  161.4570  211.6490  150.1160 C   0  0  0  0  0  3  0  0  0  0  0  0
  160.3140  213.7130  149.5660 C   0  0  0  0  0  3  0  0  0  0  0  0
  161.1080  213.8510  148.4270 C   0  0  0  0  0  3  0  0  0  0  0  0
  162.0760  212.8890  148.1330 C   0  0  0  0  0  3  0  0  0  0  0  0
  157.3380  213.1250  150.9360 N   0  0  0  0  0  1  0  0  0  0  0  0
  158.5120  213.4040  151.6910 C   0  0  0  0  0  0  0  0  0  0  0  0
  158.5760  214.4530  152.3840 O   0  0  0  0  0  0  0  0  0  0  0  0
  158.7420  211.6590  154.3470 C   0  0  0  0  0  2  0  0  0  0  0  0
  158.6950  212.7750  155.2870 N   0  0  0  0  0  0  0  0  0  0  0  0
  159.2390  212.3270  156.5640 C   0  0  0  0  0  2  0  0  0  0  0  0
  160.3990  213.0440  156.8510 O   0  0  0  0  0  1  0  0  0  0  0  0
  157.3080  213.2170  155.4670 C   0  0  0  0  0  2  0  0  0  0  0  0
  156.6480  212.6490  156.7250 C   0  0  0  0  0  2  0  0  0  0  0  0
  155.4590  211.9290  156.3600 N   0  0  0  0  0  0  0  0  0  0  0  0
  155.5510  210.7760  155.8130 C   0  0  0  0  0  2  0  0  0  0  0  0
  161.3560  205.3130  153.1910 C   0  0  0  0  0  2  0  0  0  0  0  0
  161.7820  205.5840  151.8740 O   0  0  0  0  0  0  0  0  0  0  0  0
  161.5640  204.4520  151.0520 C   0  0  1  0  0  3  0  0  0  0  0  0
  160.7950  203.3190  151.7360 C   0  0  0  0  0  2  0  0  0  0  0  0
  161.1790  202.0050  151.1500 C   0  0  0  0  0  0  0  0  0  0  0  0
  162.1750  201.3840  151.6100 O   0  0  0  0  0  0  0  0  0  0  0  0
  160.9760  201.1450  148.8550 C   0  0  0  0  0  1  0  0  0  0  0  0
  160.4120  201.4620  150.1180 O   0  0  0  0  0  0  0  0  0  0  0  0
  160.9730  204.8120  149.6930 C   0  0  0  0  0  2  0  0  0  0  0  0
  161.1950  206.2600  149.3800 C   0  0  0  0  0  0  0  0  0  0  0  0
  160.5170  207.1050  149.9440 O   0  0  0  0  0  0  0  0  0  0  0  0
  162.2330  206.6700  148.3720 C   0  0  2  0  0  3  0  0  0  0  0  0
  161.9680  208.0790  147.8780 C   0  0  0  0  0  1  0  0  0  0  0  0
  162.2730  205.7140  147.1920 C   0  0  0  0  0  2  0  0  0  0  0  0
  161.4860  206.2080  146.1490 O   0  0  0  0  0  0  0  0  0  0  0  0
  162.9200  204.3470  144.9950 O   0  0  0  0  0  1  0  0  0  0  0  0
  161.4420  205.8040  143.4160 O   0  0  0  0  0  0  0  0  0  0  0  0
  161.5780  205.0430  144.9200 P   0  0  2  0  0  0  0  0  0  0  0  0
  160.9720  202.6860  145.3250 C   0  0  0  0  0  1  0  0  0  0  0  0
  160.3310  203.9020  145.0820 O   0  0  0  0  0  0  0  0  0  0  0  0
  1  7  1  0  0  0  0
  2  7  1  0  0  0  0
  3  4  1  0  0  0  0
  3  8  1  0  0  0  0
  4  2  1  0  0  0  0
  5  6  2  0  0  0  0
  6  9  1  0  0  0  0
  6  4  1  0  0  0  0
  8 29  1  6  0  0  0
  8  1  1  0  0  0  0
  9 21  1  6  0  0  0
 10  9  1  0  0  0  0
 11 19  1  1  0  0  0
 11 10  1  0  0  0  0
 12 14  1  0  0  0  0
 13 11  1  0  0  0  0
 14 13  2  0  0  0  0
 15 13  1  0  0  0  0
 16 15  2  0  0  0  0
 17 16  1  0  0  0  0
 17 12  2  0  0  0  0
 18 19  1  0  0  0  0
 19 20  2  0  0  0  0
 21 22  1  0  0  0  0
 22 25  1  0  0  0  0
 22 23  1  0  0  0  0
 23 24  1  0  0  0  0
 25 26  1  0  0  0  0
 27 26  1  0  0  0  0
 28 27  2  0  0  0  0
 30 29  1  0  0  0  0
 31 37  1  6  0  0  0
 31 32  1  0  0  0  0
 31 30  1  0  0  0  0
 33 34  2  0  0  0  0
 33 32  1  0  0  0  0
 35 36  1  0  0  0  0
 36 33  1  0  0  0  0
 38 37  1  0  0  0  0
 38 39  2  0  0  0  0
 40 41  1  6  0  0  0
 40 38  1  0  0  0  0
 42 40  1  0  0  0  0
 43 42  1  0  0  0  0
 46 45  2  6  0  0  0
 46 44  1  0  0  0  0
 46 48  1  0  0  0  0
 46 43  1  0  0  0  0
 48 47  1  0  0  0  0
M  END
>  <MODEL>
9

>  <REMARK>
 VINA RESULT:      -3.2      3.327      9.711
  Name = 
  24 active torsions:
  status: ('A' for Active; 'I' for Inactive)
    1  A    between atoms: C_1  and  C_2
    2  A    between atoms: C_1  and  C_37
    3  A    between atoms: C_2  and  C_17
    4  A    between atoms: C_7  and  O_33
    5  A    between atoms: C_7  and  C_45
    6  A    between atoms: C_10  and  C_30
    7  A    between atoms: C_12  and  C_17
    8  A    between atoms: C_12  and  C_23
    9  A    between atoms: C_12  and  O_33
   10  A    between atoms: O_13  and  P_38
   11  A    between atoms: N_18  and  C_22
   12  A    between atoms: C_19  and  N_42
   13  A    between atoms: O_20  and  C_21
   14  A    between atoms: C_21  and  C_23
   15  A    between atoms: C_22  and  C_41
   16  A    between atoms: O_27  and  C_37
   17  A    between atoms: O_27  and  P_38
   18  A    between atoms: C_28  and  C_36
   19  A    between atoms: C_28  and  N_42
   20  A    between atoms: C_30  and  N_35
   21  A    between atoms: C_30  and  C_44
   22  A    between atoms: N_35  and  C_36
   23  A    between atoms: C_36  and  C_40
   24  A    between atoms: C_41  and  N_42
                            x       y       z     vdW  Elec       q    Type
                         _______ _______ _______ _____ _____    ______ ____

>  <TORSDO>
F 24

$$$$
