=
 OpenBabel11072410473D

 38 43  0  0  1  0  0  0  0  0999 V2000
  162.4510  209.4800  155.2390 C   0  0  0  0  0  2  0  0  0  0  0  0
  161.9720  210.9880  155.3130 C   0  0  0  0  0  2  0  0  0  0  0  0
  161.7810  209.5440  151.5970 C   0  0  2  0  0  3  0  0  0  0  0  0
  161.6650  206.5590  154.6510 C   0  0  0  0  0  2  0  0  0  0  0  0
  160.8440  208.7190  150.7030 C   0  0  0  0  0  2  0  0  0  0  0  0
  160.5210  206.2660  152.4270 C   0  0  0  0  0  2  0  0  0  0  0  0
  162.5350  207.4950  149.5040 O   0  0  0  0  0  1  0  0  0  0  0  0
  160.6640  209.1100  157.0050 N   0  0  0  0  0  0  0  0  0  0  0  0
  159.9320  209.9080  153.2630 C   0  0  0  0  0  2  0  0  0  0  0  0
  160.4460  211.1350  155.5330 C   0  0  2  0  0  0  0  0  0  0  0  0
  159.8710  211.6900  156.6500 O   0  0  0  0  0  0  0  0  0  0  0  0
  161.7580  206.4920  151.5570 C   0  0  1  0  0  3  0  0  0  0  0  0
  162.2810  205.2070  151.1190 N   0  0  0  0  0  1  0  0  0  0  0  0
  161.4170  207.3480  150.3310 C   0  0  1  0  0  3  0  0  0  0  0  0
  160.7860  207.6080  155.1470 N   0  0  0  0  0  2  0  0  0  0  0  0
  161.0090  210.5760  152.4170 C   0  0  0  0  0  2  0  0  0  0  0  0
  161.5650  208.4460  156.0520 C   0  0  1  0  0  3  0  0  0  0  0  0
  160.8850  205.6100  153.7560 C   0  0  0  0  0  2  0  0  0  0  0  0
  160.3450  210.2820  156.5960 C   0  0  0  0  0  0  0  0  0  0  0  0
  159.4370  210.7790  154.4250 C   0  0  1  0  0  3  0  0  0  0  0  0
  155.2040  213.3320  153.9130 S   0  0  0  0  0  0  0  0  0  0  0  0
  158.9440  213.3790  154.1990 C   0  0  1  0  0  3  0  0  0  0  0  0
  159.9730  213.2440  151.9940 O   0  0  0  0  0  1  0  0  0  0  0  0
  158.4580  211.9160  154.0950 C   0  0  1  0  0  3  0  0  0  0  0  0
  157.5970  213.3280  152.4080 C   0  0  1  0  0  0  0  0  0  0  0  0
  158.9660  213.8430  152.7530 C   0  0  1  0  0  3  0  0  0  0  0  0
  157.6860  211.8400  152.7820 C   0  0  0  0  0  2  0  0  0  0  0  0
  156.7720  214.1280  153.4330 C   0  0  2  0  0  3  0  0  0  0  0  0
  157.0120  213.6510  155.8880 C   0  0  2  0  0  3  0  0  0  0  0  0
  157.1860  213.5870  150.9680 C   0  0  0  0  0  1  0  0  0  0  0  0
  157.7160  214.1980  154.6480 C   0  0  1  0  0  3  0  0  0  0  0  0
  155.5180  213.7640  155.6490 C   0  0  2  0  0  3  0  0  0  0  0  0
  154.7980  212.8530  156.5270 N   0  0  0  0  0  2  0  0  0  0  0  0
  155.3780  211.6390  156.4040 O   0  0  0  0  0  1  0  0  0  0  0  0
  158.7960  214.4530  157.2610 O   0  0  0  0  0  1  0  0  0  0  0  0
  157.4100  214.4460  157.1230 C   0  0  0  0  0  2  0  0  0  0  0  0
  162.3680  210.9440  149.5580 C   0  0  0  0  0  1  0  0  0  0  0  0
  162.8930  210.2200  150.7880 C   0  0  0  0  0  2  0  0  0  0  0  0
  1  2  1  0  0  0  0
  3 38  1  6  0  0  0
  3 16  1  0  0  0  0
  4 15  1  0  0  0  0
  5  3  1  0  0  0  0
  6 18  1  0  0  0  0
 10  2  1  6  0  0  0
 10 19  1  0  0  0  0
 10 11  1  0  0  0  0
 12 13  1  6  0  0  0
 12  6  1  0  0  0  0
 14  7  1  1  0  0  0
 14  5  1  0  0  0  0
 14 12  1  0  0  0  0
 15 17  1  0  0  0  0
 16  9  1  0  0  0  0
 17  1  1  6  0  0  0
 17  8  1  0  0  0  0
 18  4  1  0  0  0  0
 19 11  1  0  0  0  0
 19  8  2  0  0  0  0
 20  9  1  6  0  0  0
 20 10  1  0  0  0  0
 21 32  1  0  0  0  0
 22 31  1  0  0  0  0
 23 26  1  0  0  0  0
 24 22  1  0  0  0  0
 24 20  1  0  0  0  0
 25 26  1  0  0  0  0
 25 27  1  0  0  0  0
 25 28  1  0  0  0  0
 26 22  1  0  0  0  0
 27 24  1  0  0  0  0
 28 21  1  0  0  0  0
 28 31  1  0  0  0  0
 29 36  1  0  0  0  0
 30 25  1  0  0  0  0
 31 29  1  0  0  0  0
 32 29  1  0  0  0  0
 32 33  1  0  0  0  0
 34 33  1  0  0  0  0
 36 35  1  0  0  0  0
 37 38  1  0  0  0  0
M  END
>  <MODEL>
1

>  <REMARK>
 VINA RESULT:      -3.2      0.000      0.000
  Name = 
  4 active torsions:
  status: ('A' for Active; 'I' for Inactive)
    1  A    between atoms: N_3  and  C_37
    2  A    between atoms: C_7  and  C_28
    3  A    between atoms: C_16  and  C_38
    4  A    between atoms: C_23  and  C_36
                            x       y       z     vdW  Elec       q    Type
                         _______ _______ _______ _____ _____    ______ ____

>  <TORSDO>
F 4

$$$$
=
 OpenBabel11072410473D

 38 43  0  0  1  0  0  0  0  0999 V2000
  162.3050  208.4910  154.3640 C   0  0  0  0  0  2  0  0  0  0  0  0
  161.9640  209.9550  154.8650 C   0  0  0  0  0  2  0  0  0  0  0  0
  161.9630  209.7050  150.8810 C   0  0  2  0  0  3  0  0  0  0  0  0
  161.3030  205.9860  152.8770 C   0  0  0  0  0  2  0  0  0  0  0  0
  161.0350  209.2950  149.7290 C   0  0  0  0  0  2  0  0  0  0  0  0
  160.3360  206.4960  150.6090 C   0  0  0  0  0  2  0  0  0  0  0  0
  162.7020  208.2920  148.3110 O   0  0  0  0  0  1  0  0  0  0  0  0
  160.3440  207.8260  155.8340 N   0  0  0  0  0  0  0  0  0  0  0  0
  160.0180  209.7720  152.4750 C   0  0  0  0  0  2  0  0  0  0  0  0
  160.4450  210.2050  155.0350 C   0  0  2  0  0  0  0  0  0  0  0  0
  159.8290  210.4690  156.2340 O   0  0  0  0  0  0  0  0  0  0  0  0
  161.6590  206.8250  149.9170 C   0  0  1  0  0  3  0  0  0  0  0  0
  162.0960  205.6750  149.1410 N   0  0  0  0  0  1  0  0  0  0  0  0
  161.5070  208.0380  148.9920 C   0  0  1  0  0  3  0  0  0  0  0  0
  160.4860  206.9350  153.6180 N   0  0  0  0  0  2  0  0  0  0  0  0
  161.2220  210.5310  151.9310 C   0  0  0  0  0  2  0  0  0  0  0  0
  161.2580  207.3730  154.7760 C   0  0  1  0  0  3  0  0  0  0  0  0
  160.5190  205.4400  151.6950 C   0  0  0  0  0  2  0  0  0  0  0  0
  160.1730  209.0940  155.7820 C   0  0  0  0  0  0  0  0  0  0  0  0
  159.5070  210.3110  153.8160 C   0  0  1  0  0  3  0  0  0  0  0  0
  155.6690  213.4290  154.3090 S   0  0  0  0  0  0  0  0  0  0  0  0
  159.3780  212.9570  154.0050 C   0  0  1  0  0  3  0  0  0  0  0  0
  160.0600  213.0210  151.6660 O   0  0  0  0  0  1  0  0  0  0  0  0
  158.6710  211.6000  153.7940 C   0  0  1  0  0  3  0  0  0  0  0  0
  157.8030  213.3440  152.4580 C   0  0  1  0  0  0  0  0  0  0  0  0
  159.2670  213.6250  152.6450 C   0  0  1  0  0  3  0  0  0  0  0  0
  157.7220  211.8180  152.6200 C   0  0  0  0  0  2  0  0  0  0  0  0
  157.2560  214.0820  153.6940 C   0  0  2  0  0  3  0  0  0  0  0  0
  157.7600  213.2190  155.9990 C   0  0  2  0  0  3  0  0  0  0  0  0
  157.2390  213.8640  151.1450 C   0  0  0  0  0  1  0  0  0  0  0  0
  158.3580  213.8500  154.7430 C   0  0  1  0  0  3  0  0  0  0  0  0
  156.2800  213.5560  156.0150 C   0  0  2  0  0  3  0  0  0  0  0  0
  155.5620  212.6240  156.8720 N   0  0  0  0  0  2  0  0  0  0  0  0
  154.4050  213.2220  157.2300 O   0  0  0  0  0  1  0  0  0  0  0  0
  159.6210  214.4150  156.9020 O   0  0  0  0  0  1  0  0  0  0  0  0
  158.4390  213.7650  157.2470 C   0  0  0  0  0  2  0  0  0  0  0  0
  162.9050  211.3260  149.1640 C   0  0  0  0  0  1  0  0  0  0  0  0
  163.1990  210.4570  150.3770 C   0  0  0  0  0  2  0  0  0  0  0  0
  1  2  1  0  0  0  0
  3 38  1  6  0  0  0
  3 16  1  0  0  0  0
  4 15  1  0  0  0  0
  5  3  1  0  0  0  0
  6 18  1  0  0  0  0
 10  2  1  6  0  0  0
 10 19  1  0  0  0  0
 10 11  1  0  0  0  0
 12 13  1  6  0  0  0
 12  6  1  0  0  0  0
 14  7  1  1  0  0  0
 14  5  1  0  0  0  0
 14 12  1  0  0  0  0
 15 17  1  0  0  0  0
 16  9  1  0  0  0  0
 17  1  1  6  0  0  0
 17  8  1  0  0  0  0
 18  4  1  0  0  0  0
 19  8  2  0  0  0  0
 19 11  1  0  0  0  0
 20  9  1  6  0  0  0
 20 10  1  0  0  0  0
 21 32  1  0  0  0  0
 22 31  1  0  0  0  0
 23 26  1  0  0  0  0
 24 20  1  0  0  0  0
 24 22  1  0  0  0  0
 25 27  1  0  0  0  0
 25 26  1  0  0  0  0
 25 28  1  0  0  0  0
 26 22  1  0  0  0  0
 27 24  1  0  0  0  0
 28 21  1  0  0  0  0
 28 31  1  0  0  0  0
 29 32  1  0  0  0  0
 29 36  1  0  0  0  0
 30 25  1  0  0  0  0
 31 29  1  0  0  0  0
 32 33  1  0  0  0  0
 33 34  1  0  0  0  0
 35 36  1  0  0  0  0
 37 38  1  0  0  0  0
M  END
>  <MODEL>
2

>  <REMARK>
 VINA RESULT:      -0.8      1.027      1.203
  Name = 
  4 active torsions:
  status: ('A' for Active; 'I' for Inactive)
    1  A    between atoms: N_3  and  C_37
    2  A    between atoms: C_7  and  C_28
    3  A    between atoms: C_16  and  C_38
    4  A    between atoms: C_23  and  C_36
                            x       y       z     vdW  Elec       q    Type
                         _______ _______ _______ _____ _____    ______ ____

>  <TORSDO>
F 4

$$$$
