=
 OpenBabel11072414133D

 28 29  0  0  1  0  0  0  0  0999 V2000
  161.7550  205.7270  151.5350 C   0  0  2  0  0  3  0  0  0  0  0  0
  161.1480  206.4930  153.7690 C   0  0  0  0  0  0  0  0  0  0  0  0
  160.8840  207.4970  154.5660 C   0  0  0  0  0  0  0  0  0  0  0  0
  161.4110  205.4940  152.9710 C   0  0  0  0  0  3  0  0  0  0  0  0
  160.8120  207.3810  157.1420 C   0  0  0  0  0  1  0  0  0  0  0  0
  160.1330  207.2810  155.8190 C   0  0  0  0  0  0  0  0  0  0  0  0
  158.9020  207.0110  155.7880 O   0  0  0  0  0  0  0  0  0  0  0  0
  161.3470  208.8690  154.1790 C   0  0  0  0  0  2  0  0  0  0  0  0
  160.7120  210.8380  156.6090 N   0  0  0  0  0  1  0  0  0  0  0  0
  159.6350  210.5540  152.8340 S   0  0  0  0  0  0  0  0  0  0  0  0
  160.0810  212.2720  154.8280 N   0  0  0  0  0  2  0  0  0  0  0  0
  160.8300  211.0800  155.1830 C   0  0  2  0  0  3  0  0  0  0  0  0
  160.2600  209.9110  154.4130 C   0  0  2  0  0  3  0  0  0  0  0  0
  159.9670  212.2540  153.3800 C   0  0  0  0  0  2  0  0  0  0  0  0
  162.3010  207.1400  151.3170 C   0  0  0  0  0  2  0  0  0  0  0  0
  161.3390  207.9920  150.5020 C   0  0  0  0  0  2  0  0  0  0  0  0
  162.0370  208.6240  149.3470 C   0  0  0  0  0  0  0  0  0  0  0  0
  162.6850  207.8290  148.4100 O   0  0  0  0  0  0  0  0  0  0  0  0
  162.0650  209.8770  149.2340 O   0  0  0  0  0  1  0  0  0  0  0  0
  160.5620  205.4220  150.6240 C   0  0  0  0  0  2  0  0  0  0  0  0
  161.2630  202.8040  148.2870 N   0  0  0  0  0  0  0  0  0  0  0  0
  161.1880  205.0450  148.2260 N   0  0  0  0  0  0  0  0  0  0  0  0
  160.9210  204.5600  149.4540 C   0  0  0  0  0  0  0  0  0  0  0  0
  160.9560  203.2170  149.5030 N   0  0  0  0  0  2  0  0  0  0  0  0
  161.4080  203.9100  147.5340 C   0  0  0  0  0  0  0  0  0  0  0  0
  161.7110  203.8810  146.0770 C   0  0  0  0  0  2  0  0  0  0  0  0
  161.9520  205.2900  145.5750 C   0  0  0  0  0  2  0  0  0  0  0  0
  160.8450  205.6970  144.7280 N   0  0  0  0  0  1  0  0  0  0  0  0
  1 20  1  6  0  0  0
  1  4  1  0  0  0  0
  2  3  2  0  0  0  0
  3  6  1  0  0  0  0
  4  2  2  0  0  0  0
  6  5  1  0  0  0  0
  7  6  2  0  0  0  0
  8  3  1  0  0  0  0
 10 14  1  0  0  0  0
 10 13  1  0  0  0  0
 11 12  1  0  0  0  0
 12  9  1  1  0  0  0
 13  8  1  6  0  0  0
 13 12  1  0  0  0  0
 14 11  1  0  0  0  0
 15  1  1  0  0  0  0
 16 15  1  0  0  0  0
 17 16  1  0  0  0  0
 18 17  2  0  0  0  0
 19 17  1  0  0  0  0
 21 24  1  0  0  0  0
 22 23  2  0  0  0  0
 23 24  1  0  0  0  0
 23 20  1  0  0  0  0
 25 22  1  0  0  0  0
 25 21  2  0  0  0  0
 26 25  1  0  0  0  0
 27 26  1  0  0  0  0
 28 27  1  0  0  0  0
M  END
>  <MODEL>
1

>  <REMARK>
 VINA RESULT:      -7.4      0.000      0.000
  Name = 
  11 active torsions:
  status: ('A' for Active; 'I' for Inactive)
    1  A    between atoms: C_1  and  C_26
    2  A    between atoms: C_2  and  C_14
    3  A    between atoms: C_2  and  C_17
    4  A    between atoms: C_2  and  C_20
    5  A    between atoms: C_10  and  C_12
    6  A    between atoms: C_12  and  C_24
    7  A    between atoms: C_13  and  C_15
    8  A    between atoms: C_15  and  C_28
    9  A    between atoms: C_16  and  C_20
   10  A    between atoms: C_17  and  C_26
   11  A    between atoms: C_22  and  C_24
                            x       y       z     vdW  Elec       q    Type
                         _______ _______ _______ _____ _____    ______ ____

>  <TORSDO>
F 11

$$$$
=
 OpenBabel11072414133D

 28 29  0  0  1  0  0  0  0  0999 V2000
  161.6690  206.0420  151.2870 C   0  0  2  0  0  3  0  0  0  0  0  0
  160.9910  204.0500  150.0550 C   0  0  0  0  0  0  0  0  0  0  0  0
  161.1640  203.2740  149.0160 C   0  0  0  0  0  0  0  0  0  0  0  0
  160.8230  204.8250  151.0920 C   0  0  0  0  0  3  0  0  0  0  0  0
  161.3520  200.8240  148.2310 C   0  0  0  0  0  1  0  0  0  0  0  0
  160.6710  201.8820  149.0300 C   0  0  0  0  0  0  0  0  0  0  0  0
  159.6650  201.5670  149.7210 O   0  0  0  0  0  0  0  0  0  0  0  0
  161.8790  203.8190  147.8170 C   0  0  0  0  0  2  0  0  0  0  0  0
  160.3650  206.5990  147.4190 N   0  0  0  0  0  1  0  0  0  0  0  0
  161.1340  203.4460  145.1930 S   0  0  0  0  0  0  0  0  0  0  0  0
  160.7540  206.0870  145.1360 N   0  0  0  0  0  2  0  0  0  0  0  0
  161.1480  205.7930  146.5010 C   0  0  2  0  0  3  0  0  0  0  0  0
  160.9010  204.3250  146.7650 C   0  0  2  0  0  3  0  0  0  0  0  0
  161.3200  205.0270  144.3200 C   0  0  0  0  0  2  0  0  0  0  0  0
  162.0130  206.2480  152.7650 C   0  0  0  0  0  2  0  0  0  0  0  0
  160.8280  205.9260  153.6640 C   0  0  0  0  0  2  0  0  0  0  0  0
  160.7180  206.9160  154.7710 C   0  0  0  0  0  0  0  0  0  0  0  0
  159.5930  206.9220  155.5850 O   0  0  0  0  0  1  0  0  0  0  0  0
  161.6280  207.7660  154.9530 O   0  0  0  0  0  0  0  0  0  0  0  0
  161.0090  207.2790  150.6700 C   0  0  0  0  0  2  0  0  0  0  0  0
  162.4270  210.2550  152.0660 N   0  0  0  0  0  0  0  0  0  0  0  0
  160.4400  209.2180  152.1550 N   0  0  0  0  0  0  0  0  0  0  0  0
  161.3320  208.5440  151.4030 C   0  0  0  0  0  0  0  0  0  0  0  0
  162.5260  209.1590  151.3350 N   0  0  0  0  0  2  0  0  0  0  0  0
  161.1750  210.2730  152.5570 C   0  0  0  0  0  0  0  0  0  0  0  0
  160.6360  211.3760  153.4000 C   0  0  0  0  0  2  0  0  0  0  0  0
  159.4550  210.8750  154.2060 C   0  0  0  0  0  2  0  0  0  0  0  0
  158.2380  211.4950  153.7150 N   0  0  0  0  0  1  0  0  0  0  0  0
  1 20  1  1  0  0  0
  1 15  1  0  0  0  0
  2  4  2  0  0  0  0
  3  6  1  0  0  0  0
  3  2  2  0  0  0  0
  4  1  1  0  0  0  0
  5  6  1  0  0  0  0
  6  7  2  0  0  0  0
  8  3  1  0  0  0  0
 10 13  1  0  0  0  0
 11 12  1  0  0  0  0
 12 13  1  0  0  0  0
 12  9  1  1  0  0  0
 13  8  1  1  0  0  0
 14 11  1  0  0  0  0
 14 10  1  0  0  0  0
 15 16  1  0  0  0  0
 16 17  1  0  0  0  0
 17 19  2  0  0  0  0
 17 18  1  0  0  0  0
 20 23  1  0  0  0  0
 21 25  2  0  0  0  0
 22 25  1  0  0  0  0
 23 22  2  0  0  0  0
 24 23  1  0  0  0  0
 24 21  1  0  0  0  0
 25 26  1  0  0  0  0
 26 27  1  0  0  0  0
 28 27  1  0  0  0  0
M  END
>  <MODEL>
2

>  <REMARK>
 VINA RESULT:      -7.1      3.165      8.041
  Name = 
  11 active torsions:
  status: ('A' for Active; 'I' for Inactive)
    1  A    between atoms: C_1  and  C_26
    2  A    between atoms: C_2  and  C_14
    3  A    between atoms: C_2  and  C_17
    4  A    between atoms: C_2  and  C_20
    5  A    between atoms: C_10  and  C_12
    6  A    between atoms: C_12  and  C_24
    7  A    between atoms: C_13  and  C_15
    8  A    between atoms: C_15  and  C_28
    9  A    between atoms: C_16  and  C_20
   10  A    between atoms: C_17  and  C_26
   11  A    between atoms: C_22  and  C_24
                            x       y       z     vdW  Elec       q    Type
                         _______ _______ _______ _____ _____    ______ ____

>  <TORSDO>
F 11

$$$$
=
 OpenBabel11072414133D

 28 29  0  0  1  0  0  0  0  0999 V2000
  160.8950  205.7200  151.5900 C   0  0  2  0  0  3  0  0  0  0  0  0
  161.2060  206.7680  153.7700 C   0  0  0  0  0  0  0  0  0  0  0  0
  161.1770  207.8590  154.4920 C   0  0  0  0  0  0  0  0  0  0  0  0
  161.2320  205.6820  153.0470 C   0  0  0  0  0  3  0  0  0  0  0  0
  159.8300  207.2630  156.6100 C   0  0  0  0  0  1  0  0  0  0  0  0
  161.0690  207.7810  155.9630 C   0  0  0  0  0  0  0  0  0  0  0  0
  162.0260  208.1510  156.6950 O   0  0  0  0  0  0  0  0  0  0  0  0
  161.2430  209.1870  153.8010 C   0  0  0  0  0  2  0  0  0  0  0  0
  161.1920  211.1290  156.3330 N   0  0  0  0  0  1  0  0  0  0  0  0
  159.1080  210.7380  153.0170 S   0  0  0  0  0  0  0  0  0  0  0  0
  159.9830  212.5000  154.8210 N   0  0  0  0  0  2  0  0  0  0  0  0
  160.8820  211.3660  154.9350 C   0  0  2  0  0  3  0  0  0  0  0  0
  160.1980  210.1530  154.3450 C   0  0  2  0  0  3  0  0  0  0  0  0
  159.4630  212.4610  153.4650 C   0  0  0  0  0  2  0  0  0  0  0  0
  161.5150  204.5340  150.8470 C   0  0  0  0  0  2  0  0  0  0  0  0
  160.4890  203.4400  150.5870 C   0  0  0  0  0  2  0  0  0  0  0  0
  160.8620  202.6360  149.3890 C   0  0  0  0  0  0  0  0  0  0  0  0
  161.3520  203.2690  148.2550 O   0  0  0  0  0  0  0  0  0  0  0  0
  160.7070  201.3860  149.3940 O   0  0  0  0  0  1  0  0  0  0  0  0
  161.2890  207.0620  150.9660 C   0  0  0  0  0  2  0  0  0  0  0  0
  162.3680  207.0770  147.5540 N   0  0  0  0  0  0  0  0  0  0  0  0
  160.4740  206.5770  148.6460 N   0  0  0  0  0  0  0  0  0  0  0  0
  161.4460  206.9950  149.4790 C   0  0  0  0  0  0  0  0  0  0  0  0
  162.5900  207.2920  148.8380 N   0  0  0  0  0  2  0  0  0  0  0  0
  161.0940  206.6570  147.4520 C   0  0  0  0  0  0  0  0  0  0  0  0
  160.4580  206.2580  146.1670 C   0  0  0  0  0  2  0  0  0  0  0  0
  161.4700  205.5460  145.2930 C   0  0  0  0  0  2  0  0  0  0  0  0
  160.8670  204.3500  144.7320 N   0  0  0  0  0  1  0  0  0  0  0  0
  1 15  1  6  0  0  0
  1  4  1  0  0  0  0
  2  3  2  0  0  0  0
  3  6  1  0  0  0  0
  4  2  2  0  0  0  0
  6  5  1  0  0  0  0
  6  7  2  0  0  0  0
  8  3  1  0  0  0  0
 10 14  1  0  0  0  0
 10 13  1  0  0  0  0
 11 12  1  0  0  0  0
 12  9  1  1  0  0  0
 13  8  1  6  0  0  0
 13 12  1  0  0  0  0
 14 11  1  0  0  0  0
 16 15  1  0  0  0  0
 17 19  1  0  0  0  0
 17 16  1  0  0  0  0
 18 17  2  0  0  0  0
 20  1  1  0  0  0  0
 21 24  1  0  0  0  0
 22 23  2  0  0  0  0
 23 20  1  0  0  0  0
 24 23  1  0  0  0  0
 25 21  2  0  0  0  0
 25 22  1  0  0  0  0
 26 25  1  0  0  0  0
 27 26  1  0  0  0  0
 28 27  1  0  0  0  0
M  END
>  <MODEL>
3

>  <REMARK>
 VINA RESULT:      -7.1      2.190      2.984
  Name = 
  11 active torsions:
  status: ('A' for Active; 'I' for Inactive)
    1  A    between atoms: C_1  and  C_26
    2  A    between atoms: C_2  and  C_14
    3  A    between atoms: C_2  and  C_17
    4  A    between atoms: C_2  and  C_20
    5  A    between atoms: C_10  and  C_12
    6  A    between atoms: C_12  and  C_24
    7  A    between atoms: C_13  and  C_15
    8  A    between atoms: C_15  and  C_28
    9  A    between atoms: C_16  and  C_20
   10  A    between atoms: C_17  and  C_26
   11  A    between atoms: C_22  and  C_24
                            x       y       z     vdW  Elec       q    Type
                         _______ _______ _______ _____ _____    ______ ____

>  <TORSDO>
F 11

$$$$
=
 OpenBabel11072414133D

 28 29  0  0  1  0  0  0  0  0999 V2000
  160.9580  206.0580  151.3760 C   0  0  2  0  0  3  0  0  0  0  0  0
  160.7540  203.9570  150.1540 C   0  0  0  0  0  0  0  0  0  0  0  0
  161.1520  203.2090  149.1580 C   0  0  0  0  0  0  0  0  0  0  0  0
  160.3600  204.7060  151.1480 C   0  0  0  0  0  3  0  0  0  0  0  0
  161.3380  200.8970  148.0280 C   0  0  0  0  0  1  0  0  0  0  0  0
  160.9140  201.7510  149.1730 C   0  0  0  0  0  0  0  0  0  0  0  0
  160.3480  201.2070  150.1590 O   0  0  0  0  0  0  0  0  0  0  0  0
  161.8640  203.8540  148.0070 C   0  0  0  0  0  2  0  0  0  0  0  0
  160.1690  206.5160  147.5290 N   0  0  0  0  0  1  0  0  0  0  0  0
  161.2400  203.4090  145.3630 S   0  0  0  0  0  0  0  0  0  0  0  0
  160.6740  206.0160  145.2660 N   0  0  0  0  0  2  0  0  0  0  0  0
  161.0400  205.7610  146.6470 C   0  0  2  0  0  3  0  0  0  0  0  0
  160.8900  204.2810  146.9160 C   0  0  2  0  0  3  0  0  0  0  0  0
  161.3430  204.9930  144.4810 C   0  0  0  0  0  2  0  0  0  0  0  0
  161.8110  206.4960  150.1830 C   0  0  0  0  0  2  0  0  0  0  0  0
  162.7020  207.6780  150.5380 C   0  0  0  0  0  2  0  0  0  0  0  0
  162.1540  208.9440  149.9740 C   0  0  0  0  0  0  0  0  0  0  0  0
  161.9260  210.0310  150.8070 O   0  0  0  0  0  1  0  0  0  0  0  0
  161.8710  209.0200  148.7500 O   0  0  0  0  0  0  0  0  0  0  0  0
  161.7390  206.1020  152.6930 C   0  0  0  0  0  2  0  0  0  0  0  0
  160.2040  207.6760  155.5170 N   0  0  0  0  0  0  0  0  0  0  0  0
  161.1090  208.3590  153.5810 N   0  0  0  0  0  0  0  0  0  0  0  0
  161.1300  207.0190  153.7070 C   0  0  0  0  0  0  0  0  0  0  0  0
  160.5970  206.5960  154.8670 N   0  0  0  0  0  2  0  0  0  0  0  0
  160.5090  208.7250  154.7310 C   0  0  0  0  0  0  0  0  0  0  0  0
  160.2730  210.1420  155.1210 C   0  0  0  0  0  2  0  0  0  0  0  0
  160.0890  210.9910  153.8800 C   0  0  0  0  0  2  0  0  0  0  0  0
  159.8700  212.3730  154.2670 N   0  0  0  0  0  1  0  0  0  0  0  0
  1 15  1  6  0  0  0
  1 20  1  0  0  0  0
  2  4  2  0  0  0  0
  3  6  1  0  0  0  0
  3  2  2  0  0  0  0
  4  1  1  0  0  0  0
  5  6  1  0  0  0  0
  6  7  2  0  0  0  0
  8  3  1  0  0  0  0
 10 13  1  0  0  0  0
 11 12  1  0  0  0  0
 12 13  1  0  0  0  0
 12  9  1  1  0  0  0
 13  8  1  1  0  0  0
 14 11  1  0  0  0  0
 14 10  1  0  0  0  0
 15 16  1  0  0  0  0
 17 16  1  0  0  0  0
 17 18  1  0  0  0  0
 19 17  2  0  0  0  0
 20 23  1  0  0  0  0
 22 23  2  0  0  0  0
 22 25  1  0  0  0  0
 23 24  1  0  0  0  0
 24 21  1  0  0  0  0
 25 26  1  0  0  0  0
 25 21  2  0  0  0  0
 27 28  1  0  0  0  0
 27 26  1  0  0  0  0
M  END
>  <MODEL>
4

>  <REMARK>
 VINA RESULT:      -6.8      2.998      7.825
  Name = 
  11 active torsions:
  status: ('A' for Active; 'I' for Inactive)
    1  A    between atoms: C_1  and  C_26
    2  A    between atoms: C_2  and  C_14
    3  A    between atoms: C_2  and  C_17
    4  A    between atoms: C_2  and  C_20
    5  A    between atoms: C_10  and  C_12
    6  A    between atoms: C_12  and  C_24
    7  A    between atoms: C_13  and  C_15
    8  A    between atoms: C_15  and  C_28
    9  A    between atoms: C_16  and  C_20
   10  A    between atoms: C_17  and  C_26
   11  A    between atoms: C_22  and  C_24
                            x       y       z     vdW  Elec       q    Type
                         _______ _______ _______ _____ _____    ______ ____

>  <TORSDO>
F 11

$$$$
=
 OpenBabel11072414133D

 28 29  0  0  1  0  0  0  0  0999 V2000
  161.1490  205.9070  151.6110 C   0  0  2  0  0  3  0  0  0  0  0  0
  161.2870  206.8380  153.8610 C   0  0  0  0  0  0  0  0  0  0  0  0
  161.2400  207.8960  154.6300 C   0  0  0  0  0  0  0  0  0  0  0  0
  161.3310  205.7860  153.0900 C   0  0  0  0  0  3  0  0  0  0  0  0
  159.6900  207.1890  156.5670 C   0  0  0  0  0  1  0  0  0  0  0  0
  160.9770  207.7580  156.0770 C   0  0  0  0  0  0  0  0  0  0  0  0
  161.8410  208.1210  156.9200 O   0  0  0  0  0  0  0  0  0  0  0  0
  161.4460  209.2470  154.0160 C   0  0  0  0  0  2  0  0  0  0  0  0
  160.7400  211.1720  156.4620 N   0  0  0  0  0  1  0  0  0  0  0  0
  159.5000  210.7290  152.7530 S   0  0  0  0  0  0  0  0  0  0  0  0
  159.8710  212.5100  154.7060 N   0  0  0  0  0  2  0  0  0  0  0  0
  160.7560  211.4070  155.0300 C   0  0  2  0  0  3  0  0  0  0  0  0
  160.2710  210.1740  154.3000 C   0  0  2  0  0  3  0  0  0  0  0  0
  159.6820  212.4610  153.2670 C   0  0  0  0  0  2  0  0  0  0  0  0
  160.6050  204.6080  151.0100 C   0  0  0  0  0  2  0  0  0  0  0  0
  161.1040  204.3990  149.5880 C   0  0  0  0  0  2  0  0  0  0  0  0
  160.9070  202.9860  149.1580 C   0  0  0  0  0  0  0  0  0  0  0  0
  160.5010  202.0310  150.0820 O   0  0  0  0  0  1  0  0  0  0  0  0
  161.1350  202.6500  147.9670 O   0  0  0  0  0  0  0  0  0  0  0  0
  162.4430  206.3610  150.9300 C   0  0  0  0  0  2  0  0  0  0  0  0
  161.9330  208.9300  148.4900 N   0  0  0  0  0  0  0  0  0  0  0  0
  162.2780  208.8530  150.7040 N   0  0  0  0  0  0  0  0  0  0  0  0
  162.2820  207.6270  150.1460 C   0  0  0  0  0  0  0  0  0  0  0  0
  162.0690  207.6580  148.8190 N   0  0  0  0  0  2  0  0  0  0  0  0
  162.0690  209.6350  149.6270 C   0  0  0  0  0  0  0  0  0  0  0  0
  161.9340  211.1150  149.7000 C   0  0  0  0  0  2  0  0  0  0  0  0
  161.9140  211.6980  148.3020 C   0  0  0  0  0  2  0  0  0  0  0  0
  163.0780  212.5440  148.1140 N   0  0  0  0  0  1  0  0  0  0  0  0
  1 20  1  6  0  0  0
  1  4  1  0  0  0  0
  2  3  2  0  0  0  0
  3  6  1  0  0  0  0
  4  2  2  0  0  0  0
  6  5  1  0  0  0  0
  6  7  2  0  0  0  0
  8  3  1  0  0  0  0
 10 14  1  0  0  0  0
 10 13  1  0  0  0  0
 11 12  1  0  0  0  0
 12  9  1  1  0  0  0
 13  8  1  6  0  0  0
 13 12  1  0  0  0  0
 14 11  1  0  0  0  0
 15  1  1  0  0  0  0
 16 15  1  0  0  0  0
 17 16  1  0  0  0  0
 17 18  1  0  0  0  0
 19 17  2  0  0  0  0
 21 24  1  0  0  0  0
 21 25  2  0  0  0  0
 23 22  2  0  0  0  0
 23 20  1  0  0  0  0
 24 23  1  0  0  0  0
 25 26  1  0  0  0  0
 25 22  1  0  0  0  0
 27 26  1  0  0  0  0
 28 27  1  0  0  0  0
M  END
>  <MODEL>
5

>  <REMARK>
 VINA RESULT:      -6.8      2.747      4.141
  Name = 
  11 active torsions:
  status: ('A' for Active; 'I' for Inactive)
    1  A    between atoms: C_1  and  C_26
    2  A    between atoms: C_2  and  C_14
    3  A    between atoms: C_2  and  C_17
    4  A    between atoms: C_2  and  C_20
    5  A    between atoms: C_10  and  C_12
    6  A    between atoms: C_12  and  C_24
    7  A    between atoms: C_13  and  C_15
    8  A    between atoms: C_15  and  C_28
    9  A    between atoms: C_16  and  C_20
   10  A    between atoms: C_17  and  C_26
   11  A    between atoms: C_22  and  C_24
                            x       y       z     vdW  Elec       q    Type
                         _______ _______ _______ _____ _____    ______ ____

>  <TORSDO>
F 11

$$$$
=
 OpenBabel11072414133D

 28 29  0  0  1  0  0  0  0  0999 V2000
  162.1460  208.6320  150.1270 C   0  0  2  0  0  3  0  0  0  0  0  0
  161.8930  207.2830  148.1110 C   0  0  0  0  0  0  0  0  0  0  0  0
  161.7430  206.0970  147.5810 C   0  0  0  0  0  0  0  0  0  0  0  0
  162.0420  208.4650  148.6450 C   0  0  0  0  0  3  0  0  0  0  0  0
  162.0760  205.4740  145.0990 C   0  0  0  0  0  1  0  0  0  0  0  0
  161.2070  205.9510  146.2120 C   0  0  0  0  0  0  0  0  0  0  0  0
  160.0020  206.2260  145.9650 O   0  0  0  0  0  0  0  0  0  0  0  0
  162.1130  204.8900  148.3880 C   0  0  0  0  0  2  0  0  0  0  0  0
  161.0490  202.5350  146.5140 N   0  0  0  0  0  1  0  0  0  0  0  0
  160.4980  203.6570  150.2460 S   0  0  0  0  0  0  0  0  0  0  0  0
  160.5750  201.5450  148.6170 N   0  0  0  0  0  2  0  0  0  0  0  0
  161.3390  202.5740  147.9360 C   0  0  2  0  0  3  0  0  0  0  0  0
  160.9450  203.9180  148.5060 C   0  0  2  0  0  3  0  0  0  0  0  0
  160.6540  201.8610  150.0320 C   0  0  0  0  0  2  0  0  0  0  0  0
  161.2430  207.6380  150.8630 C   0  0  0  0  0  2  0  0  0  0  0  0
  162.0520  206.6820  151.7260 C   0  0  0  0  0  2  0  0  0  0  0  0
  161.2940  206.3020  152.9520 C   0  0  0  0  0  0  0  0  0  0  0  0
  161.2910  204.9820  153.3830 O   0  0  0  0  0  0  0  0  0  0  0  0
  160.6320  207.1690  153.5800 O   0  0  0  0  0  1  0  0  0  0  0  0
  161.8690  210.0800  150.5410 C   0  0  0  0  0  2  0  0  0  0  0  0
  160.2890  210.3810  153.7390 N   0  0  0  0  0  0  0  0  0  0  0  0
  162.3950  210.1900  152.9900 N   0  0  0  0  0  0  0  0  0  0  0  0
  161.4980  210.2180  151.9850 C   0  0  0  0  0  0  0  0  0  0  0  0
  160.2300  210.3250  152.4210 N   0  0  0  0  0  2  0  0  0  0  0  0
  161.5920  210.3080  154.0660 C   0  0  0  0  0  0  0  0  0  0  0  0
  162.0900  210.2900  155.4680 C   0  0  0  0  0  2  0  0  0  0  0  0
  161.1830  209.4280  156.3230 C   0  0  0  0  0  2  0  0  0  0  0  0
  161.8810  208.2110  156.6930 N   0  0  0  0  0  1  0  0  0  0  0  0
  1  4  1  6  0  0  0
  1 20  1  0  0  0  0
  1 15  1  0  0  0  0
  2  4  2  0  0  0  0
  3  2  2  0  0  0  0
  3  8  1  0  0  0  0
  5  6  1  0  0  0  0
  6  3  1  0  0  0  0
  7  6  2  0  0  0  0
 11 14  1  0  0  0  0
 12  9  1  6  0  0  0
 12 13  1  0  0  0  0
 12 11  1  0  0  0  0
 13  8  1  1  0  0  0
 13 10  1  0  0  0  0
 14 10  1  0  0  0  0
 15 16  1  0  0  0  0
 16 17  1  0  0  0  0
 17 18  2  0  0  0  0
 17 19  1  0  0  0  0
 20 23  1  0  0  0  0
 21 25  2  0  0  0  0
 22 25  1  0  0  0  0
 23 24  1  0  0  0  0
 23 22  2  0  0  0  0
 24 21  1  0  0  0  0
 25 26  1  0  0  0  0
 26 27  1  0  0  0  0
 27 28  1  0  0  0  0
M  END
>  <MODEL>
6

>  <REMARK>
 VINA RESULT:      -6.7      2.618      8.572
  Name = 
  11 active torsions:
  status: ('A' for Active; 'I' for Inactive)
    1  A    between atoms: C_1  and  C_26
    2  A    between atoms: C_2  and  C_14
    3  A    between atoms: C_2  and  C_17
    4  A    between atoms: C_2  and  C_20
    5  A    between atoms: C_10  and  C_12
    6  A    between atoms: C_12  and  C_24
    7  A    between atoms: C_13  and  C_15
    8  A    between atoms: C_15  and  C_28
    9  A    between atoms: C_16  and  C_20
   10  A    between atoms: C_17  and  C_26
   11  A    between atoms: C_22  and  C_24
                            x       y       z     vdW  Elec       q    Type
                         _______ _______ _______ _____ _____    ______ ____

>  <TORSDO>
F 11

$$$$
=
 OpenBabel11072414133D

 28 29  0  0  1  0  0  0  0  0999 V2000
  161.5740  205.8600  151.5000 C   0  0  2  0  0  3  0  0  0  0  0  0
  160.9750  203.9660  150.0840 C   0  0  0  0  0  0  0  0  0  0  0  0
  161.1890  203.2890  148.9860 C   0  0  0  0  0  0  0  0  0  0  0  0
  160.7640  204.6440  151.1800 C   0  0  0  0  0  3  0  0  0  0  0  0
  161.5620  200.8750  148.1560 C   0  0  0  0  0  1  0  0  0  0  0  0
  160.7330  201.8890  148.8670 C   0  0  0  0  0  0  0  0  0  0  0  0
  159.6340  201.5300  149.3700 O   0  0  0  0  0  0  0  0  0  0  0  0
  161.9150  203.9540  147.8550 C   0  0  0  0  0  2  0  0  0  0  0  0
  160.4970  206.7460  147.2390 N   0  0  0  0  0  1  0  0  0  0  0  0
  161.1520  203.4020  145.2680 S   0  0  0  0  0  0  0  0  0  0  0  0
  160.8640  206.0420  145.0030 N   0  0  0  0  0  2  0  0  0  0  0  0
  161.2510  205.8430  146.3870 C   0  0  2  0  0  3  0  0  0  0  0  0
  160.9530  204.4100  146.7660 C   0  0  2  0  0  3  0  0  0  0  0  0
  161.3910  204.9020  144.2740 C   0  0  0  0  0  2  0  0  0  0  0  0
  160.8710  206.7370  152.5380 C   0  0  0  0  0  2  0  0  0  0  0  0
  161.2470  206.3350  153.9560 C   0  0  0  0  0  2  0  0  0  0  0  0
  160.7710  207.3480  154.9400 C   0  0  0  0  0  0  0  0  0  0  0  0
  159.8450  206.9900  155.9100 O   0  0  0  0  0  1  0  0  0  0  0  0
  161.1860  208.5350  154.8750 O   0  0  0  0  0  0  0  0  0  0  0  0
  161.9270  206.6380  150.2290 C   0  0  0  0  0  2  0  0  0  0  0  0
  162.3460  209.9850  151.4280 N   0  0  0  0  0  0  0  0  0  0  0  0
  161.7990  209.0260  149.4760 N   0  0  0  0  0  0  0  0  0  0  0  0
  162.0030  208.1170  150.4480 C   0  0  0  0  0  0  0  0  0  0  0  0
  162.3400  208.6790  151.6230 N   0  0  0  0  0  2  0  0  0  0  0  0
  162.0120  210.1790  150.1390 C   0  0  0  0  0  0  0  0  0  0  0  0
  161.9520  211.5210  149.4970 C   0  0  0  0  0  2  0  0  0  0  0  0
  162.7180  211.4980  148.1900 C   0  0  0  0  0  2  0  0  0  0  0  0
  162.5590  212.7740  147.5160 N   0  0  0  0  0  1  0  0  0  0  0  0
  1 20  1  6  0  0  0
  1 15  1  0  0  0  0
  2  4  2  0  0  0  0
  3  2  2  0  0  0  0
  4  1  1  0  0  0  0
  5  6  1  0  0  0  0
  6  3  1  0  0  0  0
  6  7  2  0  0  0  0
  8  3  1  0  0  0  0
 10 13  1  0  0  0  0
 11 12  1  0  0  0  0
 12 13  1  0  0  0  0
 12  9  1  1  0  0  0
 13  8  1  1  0  0  0
 14 11  1  0  0  0  0
 14 10  1  0  0  0  0
 15 16  1  0  0  0  0
 16 17  1  0  0  0  0
 17 18  1  0  0  0  0
 19 17  2  0  0  0  0
 20 23  1  0  0  0  0
 21 24  1  0  0  0  0
 22 25  1  0  0  0  0
 22 23  2  0  0  0  0
 23 24  1  0  0  0  0
 25 21  2  0  0  0  0
 26 25  1  0  0  0  0
 27 26  1  0  0  0  0
 28 27  1  0  0  0  0
M  END
>  <MODEL>
7

>  <REMARK>
 VINA RESULT:      -6.6      3.536      7.573
  Name = 
  11 active torsions:
  status: ('A' for Active; 'I' for Inactive)
    1  A    between atoms: C_1  and  C_26
    2  A    between atoms: C_2  and  C_14
    3  A    between atoms: C_2  and  C_17
    4  A    between atoms: C_2  and  C_20
    5  A    between atoms: C_10  and  C_12
    6  A    between atoms: C_12  and  C_24
    7  A    between atoms: C_13  and  C_15
    8  A    between atoms: C_15  and  C_28
    9  A    between atoms: C_16  and  C_20
   10  A    between atoms: C_17  and  C_26
   11  A    between atoms: C_22  and  C_24
                            x       y       z     vdW  Elec       q    Type
                         _______ _______ _______ _____ _____    ______ ____

>  <TORSDO>
F 11

$$$$
=
 OpenBabel11072414133D

 28 29  0  0  1  0  0  0  0  0999 V2000
  161.5830  208.1960  149.6240 C   0  0  2  0  0  3  0  0  0  0  0  0
  161.6600  206.7120  147.6900 C   0  0  0  0  0  0  0  0  0  0  0  0
  161.6730  205.4880  147.2290 C   0  0  0  0  0  0  0  0  0  0  0  0
  161.6450  207.9330  148.1530 C   0  0  0  0  0  3  0  0  0  0  0  0
  160.0810  205.8350  145.2290 C   0  0  0  0  0  1  0  0  0  0  0  0
  161.2940  205.2100  145.8290 C   0  0  0  0  0  0  0  0  0  0  0  0
  161.9940  204.4390  145.1180 O   0  0  0  0  0  0  0  0  0  0  0  0
  162.0670  204.3730  148.1490 C   0  0  0  0  0  2  0  0  0  0  0  0
  160.8310  201.8080  146.7080 N   0  0  0  0  0  1  0  0  0  0  0  0
  160.5320  203.4860  150.2550 S   0  0  0  0  0  0  0  0  0  0  0  0
  160.4560  201.1550  148.9570 N   0  0  0  0  0  2  0  0  0  0  0  0
  161.2060  202.0440  148.0900 C   0  0  2  0  0  3  0  0  0  0  0  0
  160.8830  203.4710  148.4740 C   0  0  2  0  0  3  0  0  0  0  0  0
  160.6260  201.6740  150.3030 C   0  0  0  0  0  2  0  0  0  0  0  0
  161.8790  209.6650  149.9380 C   0  0  0  0  0  2  0  0  0  0  0  0
  162.3310  210.4200  148.6970 C   0  0  0  0  0  2  0  0  0  0  0  0
  162.0160  211.8720  148.8150 C   0  0  0  0  0  0  0  0  0  0  0  0
  162.6430  212.7870  147.9790 O   0  0  0  0  0  0  0  0  0  0  0  0
  161.2060  212.2740  149.6900 O   0  0  0  0  0  1  0  0  0  0  0  0
  162.5020  207.2440  150.3950 C   0  0  0  0  0  2  0  0  0  0  0  0
  161.5780  205.7440  153.5110 N   0  0  0  0  0  0  0  0  0  0  0  0
  161.3460  207.7610  152.5590 N   0  0  0  0  0  0  0  0  0  0  0  0
  161.9740  206.8870  151.7500 C   0  0  0  0  0  0  0  0  0  0  0  0
  162.1260  205.6740  152.3120 N   0  0  0  0  0  2  0  0  0  0  0  0
  161.1080  206.9980  153.6430 C   0  0  0  0  0  0  0  0  0  0  0  0
  160.4540  207.5070  154.8800 C   0  0  0  0  0  2  0  0  0  0  0  0
  160.6550  209.0040  154.9870 C   0  0  0  0  0  2  0  0  0  0  0  0
  161.7040  209.2830  155.9510 N   0  0  0  0  0  1  0  0  0  0  0  0
  1  4  1  6  0  0  0
  1 15  1  0  0  0  0
  1 20  1  0  0  0  0
  2  4  2  0  0  0  0
  3  2  2  0  0  0  0
  3  8  1  0  0  0  0
  5  6  1  0  0  0  0
  6  3  1  0  0  0  0
  7  6  2  0  0  0  0
 10 14  1  0  0  0  0
 11 14  1  0  0  0  0
 12  9  1  6  0  0  0
 12 13  1  0  0  0  0
 12 11  1  0  0  0  0
 13  8  1  1  0  0  0
 13 10  1  0  0  0  0
 16 17  1  0  0  0  0
 16 15  1  0  0  0  0
 17 19  1  0  0  0  0
 18 17  2  0  0  0  0
 20 23  1  0  0  0  0
 21 25  2  0  0  0  0
 22 25  1  0  0  0  0
 23 24  1  0  0  0  0
 23 22  2  0  0  0  0
 24 21  1  0  0  0  0
 25 26  1  0  0  0  0
 26 27  1  0  0  0  0
 27 28  1  0  0  0  0
M  END
>  <MODEL>
8

>  <REMARK>
 VINA RESULT:      -6.6      3.039      8.103
  Name = 
  11 active torsions:
  status: ('A' for Active; 'I' for Inactive)
    1  A    between atoms: C_1  and  C_26
    2  A    between atoms: C_2  and  C_14
    3  A    between atoms: C_2  and  C_17
    4  A    between atoms: C_2  and  C_20
    5  A    between atoms: C_10  and  C_12
    6  A    between atoms: C_12  and  C_24
    7  A    between atoms: C_13  and  C_15
    8  A    between atoms: C_15  and  C_28
    9  A    between atoms: C_16  and  C_20
   10  A    between atoms: C_17  and  C_26
   11  A    between atoms: C_22  and  C_24
                            x       y       z     vdW  Elec       q    Type
                         _______ _______ _______ _____ _____    ______ ____

>  <TORSDO>
F 11

$$$$
=
 OpenBabel11072414133D

 28 29  0  0  1  0  0  0  0  0999 V2000
  160.6090  205.2490  148.9610 C   0  0  2  0  0  3  0  0  0  0  0  0
  161.1780  207.5510  149.5310 C   0  0  0  0  0  0  0  0  0  0  0  0
  161.7960  208.3760  150.3360 C   0  0  0  0  0  0  0  0  0  0  0  0
  160.5630  206.7250  148.7280 C   0  0  0  0  0  3  0  0  0  0  0  0
  161.9400  210.1570  148.4750 C   0  0  0  0  0  1  0  0  0  0  0  0
  162.1310  209.7450  149.8950 C   0  0  0  0  0  0  0  0  0  0  0  0
  162.5820  210.5890  150.7160 O   0  0  0  0  0  0  0  0  0  0  0  0
  162.1690  207.9030  151.7080 C   0  0  0  0  0  2  0  0  0  0  0  0
  161.0860  205.7390  153.7890 N   0  0  0  0  0  1  0  0  0  0  0  0
  160.4370  209.5540  153.0700 S   0  0  0  0  0  0  0  0  0  0  0  0
  160.4940  207.6990  154.9880 N   0  0  0  0  0  2  0  0  0  0  0  0
  161.3230  207.1650  153.9230 C   0  0  2  0  0  3  0  0  0  0  0  0
  160.9610  207.8710  152.6360 C   0  0  2  0  0  3  0  0  0  0  0  0
  160.5310  209.1420  154.8360 C   0  0  0  0  0  2  0  0  0  0  0  0
  160.5880  204.9220  150.4560 C   0  0  0  0  0  2  0  0  0  0  0  0
  161.6800  203.9290  150.8260 C   0  0  0  0  0  2  0  0  0  0  0  0
  161.0920  202.6590  151.3390 C   0  0  0  0  0  0  0  0  0  0  0  0
  161.1380  201.5100  150.5600 O   0  0  0  0  0  0  0  0  0  0  0  0
  160.5280  202.6340  152.4640 O   0  0  0  0  0  1  0  0  0  0  0  0
  161.8060  204.6140  148.2470 C   0  0  0  0  0  2  0  0  0  0  0  0
  161.0660  203.0890  145.0950 N   0  0  0  0  0  0  0  0  0  0  0  0
  161.0410  202.4480  147.2440 N   0  0  0  0  0  0  0  0  0  0  0  0
  161.4080  203.7360  147.1020 C   0  0  0  0  0  0  0  0  0  0  0  0
  161.4350  204.1310  145.8170 N   0  0  0  0  0  2  0  0  0  0  0  0
  160.8250  202.0900  145.9630 C   0  0  0  0  0  0  0  0  0  0  0  0
  160.4290  200.7160  145.5480 C   0  0  0  0  0  2  0  0  0  0  0  0
  161.3300  199.6990  146.2180 C   0  0  0  0  0  2  0  0  0  0  0  0
  161.2870  198.4520  145.4750 N   0  0  0  0  0  1  0  0  0  0  0  0
  1 20  1  1  0  0  0
  1 15  1  0  0  0  0
  2  3  2  0  0  0  0
  3  8  1  0  0  0  0
  4  1  1  0  0  0  0
  4  2  2  0  0  0  0
  5  6  1  0  0  0  0
  6  3  1  0  0  0  0
  6  7  2  0  0  0  0
 10 14  1  0  0  0  0
 12  9  1  6  0  0  0
 12 11  1  0  0  0  0
 13  8  1  6  0  0  0
 13 10  1  0  0  0  0
 13 12  1  0  0  0  0
 14 11  1  0  0  0  0
 15 16  1  0  0  0  0
 16 17  1  0  0  0  0
 17 19  1  0  0  0  0
 18 17  2  0  0  0  0
 21 24  1  0  0  0  0
 21 25  2  0  0  0  0
 23 22  2  0  0  0  0
 23 20  1  0  0  0  0
 24 23  1  0  0  0  0
 25 22  1  0  0  0  0
 26 25  1  0  0  0  0
 26 27  1  0  0  0  0
 28 27  1  0  0  0  0
M  END
>  <MODEL>
9

>  <REMARK>
 VINA RESULT:      -6.6      2.827      4.922
  Name = 
  11 active torsions:
  status: ('A' for Active; 'I' for Inactive)
    1  A    between atoms: C_1  and  C_26
    2  A    between atoms: C_2  and  C_14
    3  A    between atoms: C_2  and  C_17
    4  A    between atoms: C_2  and  C_20
    5  A    between atoms: C_10  and  C_12
    6  A    between atoms: C_12  and  C_24
    7  A    between atoms: C_13  and  C_15
    8  A    between atoms: C_15  and  C_28
    9  A    between atoms: C_16  and  C_20
   10  A    between atoms: C_17  and  C_26
   11  A    between atoms: C_22  and  C_24
                            x       y       z     vdW  Elec       q    Type
                         _______ _______ _______ _____ _____    ______ ____

>  <TORSDO>
F 11

$$$$
