=
 OpenBabel11072412463D

 55 63  0  0  1  0  0  0  0  0999 V2000
  162.0620  204.1210  145.5500 C   0  0  0  0  0  0  0  0  0  0  0  0
  161.2970  203.6310  147.7340 C   0  0  0  0  0  3  0  0  0  0  0  0
  161.4860  205.0550  148.0970 C   0  0  0  0  0  0  0  0  0  0  0  0
  160.9700  205.5500  149.2980 C   0  0  0  0  0  3  0  0  0  0  0  0
  162.4620  206.2210  144.7630 N   0  0  0  0  0  0  0  0  0  0  0  0
  161.9400  205.4450  143.8570 C   0  0  0  0  0  0  0  0  0  0  0  0
  161.6260  204.1380  144.3330 N   0  0  0  0  0  0  0  0  0  0  0  0
  162.7190  205.4030  145.9320 C   0  0  1  0  0  3  0  0  0  0  0  0
  162.0820  205.9450  147.1790 C   0  0  0  0  0  0  0  0  0  0  0  0
  161.6640  207.7590  148.6370 C   0  0  0  0  0  3  0  0  0  0  0  0
  161.5570  203.2070  146.5270 N   0  0  0  0  0  0  0  0  0  0  0  0
  162.1900  207.2620  147.4880 N   0  0  0  0  0  0  0  0  0  0  0  0
  161.0310  206.9170  149.5570 C   0  0  0  0  0  0  0  0  0  0  0  0
  160.4220  207.4170  150.7130 O   0  0  0  0  0  0  0  0  0  0  0  0
  161.1480  207.7140  151.9060 C   0  0  2  0  0  3  0  0  0  0  0  0
  160.7450  208.3430  154.1410 C   0  0  2  0  0  3  0  0  0  0  0  0
  161.3320  206.4640  152.7230 C   0  0  0  0  0  2  0  0  0  0  0  0
  161.4050  206.9640  154.1440 C   0  0  0  0  0  2  0  0  0  0  0  0
  160.3740  208.6310  152.7350 N   0  0  0  0  0  0  0  0  0  0  0  0
  161.1640  212.3720  157.2590 N   0  0  0  0  0  1  0  0  0  0  0  0
  160.9730  211.0070  156.8000 C   0  0  2  0  0  3  0  0  0  0  0  0
  162.0190  209.0160  156.2570 C   0  0  0  0  0  2  0  0  0  0  0  0
  162.1690  210.2130  157.0670 N   0  0  0  0  0  2  0  0  0  0  0  0
  161.6090  209.4240  154.8460 C   0  0  2  0  0  3  0  0  0  0  0  0
  160.6740  210.9920  155.0150 S   0  0  0  0  0  0  0  0  0  0  0  0
  160.6520  209.9910  152.2740 C   0  0  0  0  0  2  0  0  0  0  0  0
  161.7440  209.9760  151.2120 C   0  0  0  0  0  2  0  0  0  0  0  0
  162.3430  211.1980  149.0800 C   0  0  0  0  0  2  0  0  0  0  0  0
  160.8380  212.2810  150.7800 C   0  0  0  0  0  3  0  0  0  0  0  0
  161.6510  211.1660  150.3730 N   0  0  0  0  0  0  0  0  0  0  0  0
  160.6890  212.9180  148.4260 C   0  0  0  0  0  0  0  0  0  0  0  0
  160.3840  213.1360  149.8580 C   0  0  0  0  0  3  0  0  0  0  0  0
  161.5300  211.9440  148.0570 C   0  0  0  0  0  3  0  0  0  0  0  0
  159.1940  214.0510  146.6360 N   0  0  0  0  0  0  0  0  0  0  0  0
  159.8600  213.5500  147.4400 C   0  0  0  0  0  0  0  0  0  0  0  0
  161.3220  205.9870  142.6210 C   0  0  0  0  0  2  0  0  0  0  0  0
  162.3360  206.1170  141.4890 C   0  0  0  0  0  2  0  0  0  0  0  0
  161.8440  207.0860  140.4210 C   0  0  2  0  0  3  0  0  0  0  0  0
  162.3590  206.7300  139.1780 O   0  0  0  0  0  1  0  0  0  0  0  0
  162.2120  208.5320  140.7530 C   0  0  0  0  0  2  0  0  0  0  0  0
  158.4520  209.4520  137.8580 C   0  0  0  0  0  0  0  0  0  0  0  0
  159.7580  208.9100  138.3950 C   0  0  0  0  0  2  0  0  0  0  0  0
  161.9040  209.4880  139.6050 C   0  0  1  0  0  3  0  0  0  0  0  0
  158.4750  211.3870  139.5060 C   0  0  0  0  0  2  0  0  0  0  0  0
  163.9600  212.5320  138.8750 C   0  0  0  0  0  3  0  0  0  0  0  0
  157.9290  210.8350  138.1880 C   0  0  0  0  0  2  0  0  0  0  0  0
  162.1680  211.9130  140.1540 C   0  0  0  0  0  0  0  0  0  0  0  0
  162.6710  214.4530  139.7560 C   0  0  0  0  0  1  0  0  0  0  0  0
  162.9520  213.0020  139.5920 C   0  0  2  0  0  3  0  0  0  0  0  0
  160.7300  212.0140  140.5350 C   0  0  0  0  0  2  0  0  0  0  0  0
  159.9760  211.2110  139.4900 C   0  0  1  0  0  3  0  0  0  0  0  0
  160.3760  209.7230  139.5440 C   0  0  1  0  0  3  0  0  0  0  0  0
  163.9270  211.0350  138.9270 C   0  0  0  0  0  3  0  0  0  0  0  0
  157.8080  208.7610  137.0870 O   0  0  0  0  0  0  0  0  0  0  0  0
  162.7130  210.7600  139.7570 C   0  0  0  0  0  0  0  0  0  0  0  0
  1  8  1  0  0  0  0
  1 11  1  0  0  0  0
  2  3  1  0  0  0  0
  3  4  1  0  0  0  0
  4 13  2  0  0  0  0
  6  7  1  0  0  0  0
  6  5  2  0  0  0  0
  7  1  2  0  0  0  0
  8  5  1  6  0  0  0
  8  9  1  0  0  0  0
  9 12  1  0  0  0  0
  9  3  2  0  0  0  0
 10 13  1  0  0  0  0
 11  2  2  0  0  0  0
 12 10  2  0  0  0  0
 13 14  1  0  0  0  0
 15 14  1  6  0  0  0
 15 17  1  0  0  0  0
 15 19  1  0  0  0  0
 16 18  1  6  0  0  0
 16 24  1  0  0  0  0
 17 18  1  0  0  0  0
 19 16  1  0  0  0  0
 21 23  1  0  0  0  0
 21 20  1  6  0  0  0
 22 23  1  0  0  0  0
 24 25  1  0  0  0  0
 24 22  1  1  0  0  0
 25 21  1  0  0  0  0
 26 19  1  0  0  0  0
 27 26  1  0  0  0  0
 28 30  1  0  0  0  0
 30 29  1  0  0  0  0
 30 27  1  0  0  0  0
 31 32  1  0  0  0  0
 32 29  2  0  0  0  0
 33 31  2  0  0  0  0
 33 28  1  0  0  0  0
 34 35  3  0  0  0  0
 35 31  1  0  0  0  0
 36  6  1  0  0  0  0
 37 36  1  0  0  0  0
 38 39  1  6  0  0  0
 38 40  1  0  0  0  0
 38 37  1  0  0  0  0
 41 46  1  0  0  0  0
 41 42  1  0  0  0  0
 43 55  1  0  0  0  0
 43 40  1  1  0  0  0
 45 53  2  0  0  0  0
 45 49  1  0  0  0  0
 46 44  1  0  0  0  0
 47 50  1  0  0  0  0
 49 48  1  6  0  0  0
 49 47  1  0  0  0  0
 51 44  1  1  0  0  0
 51 52  1  0  0  0  0
 51 50  1  0  0  0  0
 52 42  1  6  0  0  0
 52 43  1  0  0  0  0
 53 55  1  0  0  0  0
 54 41  2  0  0  0  0
 55 47  2  0  0  0  0
M  END
>  <MODEL>
1

>  <REMARK>
 VINA RESULT:      -6.5      0.000      0.000
  Name = 
  12 active torsions:
  status: ('A' for Active; 'I' for Inactive)
    1  A    between atoms: C_3  and  O_4
    2  A    between atoms: O_4  and  C_55
    3  A    between atoms: C_5  and  C_18
    4  A    between atoms: C_5  and  C_27
    5  A    between atoms: C_6  and  C_48
    6  A    between atoms: C_13  and  C_25
    7  A    between atoms: C_13  and  C_27
    8  A    between atoms: C_14  and  C_18
    9  A    between atoms: N_30  and  C_32
   10  A    between atoms: C_32  and  C_40
   11  A    between atoms: C_35  and  C_50
   12  A    between atoms: C_40  and  N_53
                            x       y       z     vdW  Elec       q    Type
                         _______ _______ _______ _____ _____    ______ ____

>  <TORSDO>
F 12

$$$$
=
 OpenBabel11072412463D

 55 63  0  0  1  0  0  0  0  0999 V2000
  158.9680  214.3260  149.9320 C   0  0  0  0  0  0  0  0  0  0  0  0
  161.0330  213.6820  150.8890 C   0  0  0  0  0  3  0  0  0  0  0  0
  160.3210  212.6510  151.6800 C   0  0  0  0  0  0  0  0  0  0  0  0
  161.0400  211.6690  152.3670 C   0  0  0  0  0  3  0  0  0  0  0  0
  157.0060  213.2040  150.2200 N   0  0  0  0  0  0  0  0  0  0  0  0
  157.1320  213.6770  149.0140 C   0  0  0  0  0  0  0  0  0  0  0  0
  158.3740  214.3380  148.7830 N   0  0  0  0  0  0  0  0  0  0  0  0
  158.1350  213.6870  150.9910 C   0  0  1  0  0  3  0  0  0  0  0  0
  158.9120  212.5840  151.6480 C   0  0  0  0  0  0  0  0  0  0  0  0
  158.9570  210.6200  152.9630 C   0  0  0  0  0  3  0  0  0  0  0  0
  160.3860  214.4530  150.0570 N   0  0  0  0  0  0  0  0  0  0  0  0
  158.2670  211.5960  152.3190 N   0  0  0  0  0  0  0  0  0  0  0  0
  160.3550  210.6270  152.9880 C   0  0  0  0  0  0  0  0  0  0  0  0
  161.0860  209.5950  153.5850 O   0  0  0  0  0  0  0  0  0  0  0  0
  160.6950  208.2240  153.5070 C   0  0  2  0  0  3  0  0  0  0  0  0
  161.6200  206.1230  152.9750 C   0  0  2  0  0  3  0  0  0  0  0  0
  160.9460  207.5410  154.8240 C   0  0  0  0  0  2  0  0  0  0  0  0
  161.2080  206.1040  154.4470 C   0  0  0  0  0  2  0  0  0  0  0  0
  161.5240  207.5320  152.5270 N   0  0  0  0  0  0  0  0  0  0  0  0
  161.4220  201.6960  150.4270 N   0  0  0  0  0  1  0  0  0  0  0  0
  161.4770  202.6440  151.5260 C   0  0  2  0  0  3  0  0  0  0  0  0
  160.2370  203.9680  152.9620 C   0  0  0  0  0  2  0  0  0  0  0  0
  160.1650  202.7620  152.1560 N   0  0  0  0  0  2  0  0  0  0  0  0
  160.8400  205.0880  152.1200 C   0  0  2  0  0  3  0  0  0  0  0  0
  161.9520  204.2780  150.9080 S   0  0  0  0  0  0  0  0  0  0  0  0
  160.9210  207.7370  151.2100 C   0  0  0  0  0  2  0  0  0  0  0  0
  161.9970  208.0660  150.1830 C   0  0  0  0  0  2  0  0  0  0  0  0
  162.7120  207.3860  147.8550 C   0  0  0  0  0  2  0  0  0  0  0  0
  160.4220  206.7830  148.7020 C   0  0  0  0  0  3  0  0  0  0  0  0
  161.6920  207.4260  148.9080 N   0  0  0  0  0  0  0  0  0  0  0  0
  161.4900  205.4220  146.9770 C   0  0  0  0  0  0  0  0  0  0  0  0
  160.3090  205.8310  147.7700 C   0  0  0  0  0  3  0  0  0  0  0  0
  162.6440  206.0900  147.0930 C   0  0  0  0  0  3  0  0  0  0  0  0
  161.4600  203.1190  145.7850 N   0  0  0  0  0  0  0  0  0  0  0  0
  161.4730  204.1440  146.3230 C   0  0  0  0  0  0  0  0  0  0  0  0
  156.2940  213.1910  147.8880 C   0  0  0  0  0  2  0  0  0  0  0  0
  157.1390  212.8030  146.6790 C   0  0  0  0  0  2  0  0  0  0  0  0
  157.3710  214.0010  145.7660 C   0  0  2  0  0  3  0  0  0  0  0  0
  156.8370  213.7520  144.5050 O   0  0  0  0  0  1  0  0  0  0  0  0
  158.8540  214.3530  145.6540 C   0  0  0  0  0  2  0  0  0  0  0  0
  160.6910  211.9370  141.8930 C   0  0  0  0  0  0  0  0  0  0  0  0
  159.7950  212.3560  143.0370 C   0  0  0  0  0  2  0  0  0  0  0  0
  159.7290  213.1210  145.4470 C   0  0  1  0  0  3  0  0  0  0  0  0
  162.6650  213.2190  142.8500 C   0  0  0  0  0  2  0  0  0  0  0  0
  161.7900  211.6000  148.1810 C   0  0  0  0  0  3  0  0  0  0  0  0
  162.1960  212.1070  141.9120 C   0  0  0  0  0  2  0  0  0  0  0  0
  161.9610  213.2150  146.5710 C   0  0  0  0  0  0  0  0  0  0  0  0
  164.1190  212.3310  147.7670 C   0  0  0  0  0  1  0  0  0  0  0  0
  162.6500  212.3710  147.5340 C   0  0  0  0  0  0  0  0  0  0  0  0
  162.5890  213.7830  145.3440 C   0  0  0  0  0  2  0  0  0  0  0  0
  161.9860  213.0100  144.1840 C   0  0  1  0  0  3  0  0  0  0  0  0
  160.4650  213.2490  144.0930 C   0  0  1  0  0  3  0  0  0  0  0  0
  160.4090  211.9040  147.6850 C   0  0  0  0  0  2  0  0  0  0  0  0
  160.1840  211.3940  140.9240 O   0  0  0  0  0  0  0  0  0  0  0  0
  160.6570  212.9380  146.6320 C   0  0  0  0  0  0  0  0  0  0  0  0
  1 11  1  0  0  0  0
  2  3  1  0  0  0  0
  3  4  1  0  0  0  0
  4 13  2  0  0  0  0
  5  8  1  0  0  0  0
  6  5  2  0  0  0  0
  7  6  1  0  0  0  0
  7  1  2  0  0  0  0
  8  1  1  6  0  0  0
  8  9  1  0  0  0  0
  9  3  2  0  0  0  0
  9 12  1  0  0  0  0
 10 13  1  0  0  0  0
 11  2  2  0  0  0  0
 12 10  2  0  0  0  0
 13 14  1  0  0  0  0
 15 14  1  1  0  0  0
 15 17  1  0  0  0  0
 16 18  1  1  0  0  0
 18 17  1  0  0  0  0
 19 16  1  0  0  0  0
 19 15  1  0  0  0  0
 21 20  1  6  0  0  0
 21 23  1  0  0  0  0
 23 22  1  0  0  0  0
 24 22  1  1  0  0  0
 24 16  1  0  0  0  0
 25 21  1  0  0  0  0
 25 24  1  0  0  0  0
 26 19  1  0  0  0  0
 27 26  1  0  0  0  0
 28 30  1  0  0  0  0
 29 30  1  0  0  0  0
 30 27  1  0  0  0  0
 31 33  2  0  0  0  0
 31 32  1  0  0  0  0
 32 29  2  0  0  0  0
 33 28  1  0  0  0  0
 34 35  3  0  0  0  0
 35 31  1  0  0  0  0
 36  6  1  0  0  0  0
 37 36  1  0  0  0  0
 38 39  1  6  0  0  0
 38 37  1  0  0  0  0
 40 38  1  0  0  0  0
 41 46  1  0  0  0  0
 41 42  1  0  0  0  0
 43 40  1  1  0  0  0
 43 55  1  0  0  0  0
 46 44  1  0  0  0  0
 47 55  2  0  0  0  0
 47 49  1  0  0  0  0
 49 48  1  0  0  0  0
 49 45  2  0  0  0  0
 50 47  1  0  0  0  0
 51 44  1  6  0  0  0
 51 50  1  0  0  0  0
 52 42  1  6  0  0  0
 52 51  1  0  0  0  0
 52 43  1  0  0  0  0
 53 45  1  0  0  0  0
 54 41  2  0  0  0  0
 55 53  1  0  0  0  0
M  END
>  <MODEL>
2

>  <REMARK>
 VINA RESULT:      -6.2      3.154      7.764
  Name = 
  12 active torsions:
  status: ('A' for Active; 'I' for Inactive)
    1  A    between atoms: C_3  and  O_4
    2  A    between atoms: O_4  and  C_55
    3  A    between atoms: C_5  and  C_18
    4  A    between atoms: C_5  and  C_27
    5  A    between atoms: C_6  and  C_48
    6  A    between atoms: C_13  and  C_25
    7  A    between atoms: C_13  and  C_27
    8  A    between atoms: C_14  and  C_18
    9  A    between atoms: N_30  and  C_32
   10  A    between atoms: C_32  and  C_40
   11  A    between atoms: C_35  and  C_50
   12  A    between atoms: C_40  and  N_53
                            x       y       z     vdW  Elec       q    Type
                         _______ _______ _______ _____ _____    ______ ____

>  <TORSDO>
F 12

$$$$
=
 OpenBabel11072412463D

 55 64  0  0  1  0  0  0  0  0999 V2000
  161.7250  204.1440  145.7500 C   0  0  0  0  0  0  0  0  0  0  0  0
  160.9510  203.9910  147.9810 C   0  0  0  0  0  3  0  0  0  0  0  0
  161.4250  205.3740  148.2180 C   0  0  0  0  0  0  0  0  0  0  0  0
  161.0540  206.0560  149.3810 C   0  0  0  0  0  3  0  0  0  0  0  0
  162.4990  206.0550  144.7820 N   0  0  0  0  0  0  0  0  0  0  0  0
  161.8070  205.3270  143.9540 C   0  0  0  0  0  0  0  0  0  0  0  0
  161.2610  204.1500  144.5440 N   0  0  0  0  0  0  0  0  0  0  0  0
  162.6300  205.3000  146.0120 C   0  0  1  0  0  3  0  0  0  0  0  0
  162.1520  206.0540  147.2180 C   0  0  0  0  0  0  0  0  0  0  0  0
  162.1420  208.0250  148.5240 C   0  0  0  0  0  3  0  0  0  0  0  0
  161.0840  203.4290  146.8100 N   0  0  0  0  0  0  0  0  0  0  0  0
  162.5230  207.3450  147.4120 N   0  0  0  0  0  0  0  0  0  0  0  0
  161.3880  207.4010  149.5220 C   0  0  0  0  0  0  0  0  0  0  0  0
  160.9250  208.1010  150.6410 O   0  0  0  0  0  0  0  0  0  0  0  0
  161.4070  207.8560  151.9620 C   0  0  2  0  0  3  0  0  0  0  0  0
  160.5730  207.5010  154.1380 C   0  0  2  0  0  3  0  0  0  0  0  0
  161.5140  206.3750  152.2060 C   0  0  0  0  0  2  0  0  0  0  0  0
  161.3010  206.2330  153.6930 C   0  0  0  0  0  2  0  0  0  0  0  0
  160.4450  208.3590  152.9360 N   0  0  1  0  0  0  0  0  0  0  0  0
  161.7460  211.6700  156.8530 N   0  0  0  0  0  1  0  0  0  0  0  0
  160.9730  210.5950  156.2570 C   0  0  2  0  0  3  0  0  0  0  0  0
  160.2350  208.4160  156.5050 C   0  0  0  0  0  2  0  0  0  0  0  0
  160.6630  209.5810  157.2600 N   0  0  0  0  0  2  0  0  0  0  0  0
  161.2310  208.1680  155.3760 C   0  0  2  0  0  3  0  0  0  0  0  0
  161.9270  209.8060  154.9360 S   0  0  1  0  0  3  0  0  0  0  0  0
  160.7200  209.7810  153.1420 C   0  0  2  0  0  3  0  0  0  0  0  0
  159.9700  210.6180  152.1140 C   0  0  0  0  0  2  0  0  0  0  0  0
  159.1200  212.9980  152.2080 C   0  0  0  0  0  2  0  0  0  0  0  0
  158.4150  211.3330  153.9560 C   0  0  0  0  0  3  0  0  0  0  0  0
  159.1810  211.6490  152.7800 N   0  0  0  0  0  0  0  0  0  0  0  0
  156.9820  213.2400  153.4290 C   0  0  0  0  0  0  0  0  0  0  0  0
  157.3690  212.0960  154.2860 C   0  0  0  0  0  3  0  0  0  0  0  0
  157.7530  213.5980  152.3950 C   0  0  0  0  0  3  0  0  0  0  0  0
  154.5670  214.1670  153.6120 N   0  0  0  0  0  0  0  0  0  0  0  0
  155.6480  213.7590  153.5320 C   0  0  0  0  0  0  0  0  0  0  0  0
  161.2650  205.8780  142.6860 C   0  0  0  0  0  2  0  0  0  0  0  0
  162.3620  206.1060  141.6520 C   0  0  0  0  0  2  0  0  0  0  0  0
  161.8980  207.0660  140.5630 C   0  0  2  0  0  3  0  0  0  0  0  0
  162.3270  206.6190  139.3160 O   0  0  0  0  0  1  0  0  0  0  0  0
  162.3920  208.4910  140.8130 C   0  0  0  0  0  2  0  0  0  0  0  0
  158.6810  209.2180  137.8030 C   0  0  0  0  0  0  0  0  0  0  0  0
  159.9960  208.7430  138.3810 C   0  0  0  0  0  2  0  0  0  0  0  0
  162.0710  209.4290  139.6540 C   0  0  1  0  0  3  0  0  0  0  0  0
  158.5560  211.1540  139.4460 C   0  0  0  0  0  2  0  0  0  0  0  0
  163.9940  212.5720  138.9800 C   0  0  0  0  0  3  0  0  0  0  0  0
  158.0800  210.5740  138.1140 C   0  0  0  0  0  2  0  0  0  0  0  0
  162.1970  211.8650  140.2050 C   0  0  0  0  0  0  0  0  0  0  0  0
  162.5840  214.4270  139.8150 C   0  0  0  0  0  1  0  0  0  0  0  0
  162.9420  212.9910  139.6640 C   0  0  2  0  0  3  0  0  0  0  0  0
  160.7450  211.8950  140.5420 C   0  0  0  0  0  2  0  0  0  0  0  0
  160.0640  211.0530  139.4760 C   0  0  1  0  0  3  0  0  0  0  0  0
  160.5370  209.5880  139.5460 C   0  0  1  0  0  3  0  0  0  0  0  0
  164.0350  211.0750  139.0350 C   0  0  0  0  0  3  0  0  0  0  0  0
  158.0960  208.4950  137.0140 O   0  0  0  0  0  0  0  0  0  0  0  0
  162.8110  210.7410  139.8280 C   0  0  0  0  0  0  0  0  0  0  0  0
  1  8  1  0  0  0  0
  1 11  1  0  0  0  0
  2  3  1  0  0  0  0
  3  4  1  0  0  0  0
  4 13  2  0  0  0  0
  6  7  1  0  0  0  0
  6  5  2  0  0  0  0
  7  1  2  0  0  0  0
  8  5  1  6  0  0  0
  8  9  1  0  0  0  0
  9 12  1  0  0  0  0
  9  3  2  0  0  0  0
 10 13  1  0  0  0  0
 11  2  2  0  0  0  0
 12 10  2  0  0  0  0
 13 14  1  0  0  0  0
 15 14  1  6  0  0  0
 15 17  1  0  0  0  0
 15 19  1  0  0  0  0
 16 18  1  6  0  0  0
 16 24  1  0  0  0  0
 17 18  1  0  0  0  0
 19 26  1  0  0  0  0
 19 16  1  0  0  0  0
 21 20  1  0  0  0  0
 21 23  1  0  0  0  0
 22 23  1  0  0  0  0
 24 22  1  0  0  0  0
 25 24  1  0  0  0  0
 25 21  1  0  0  0  0
 26 25  1  0  0  0  0
 27 30  1  0  0  0  0
 27 26  1  0  0  0  0
 28 33  1  0  0  0  0
 28 30  1  0  0  0  0
 29 32  2  0  0  0  0
 30 29  1  0  0  0  0
 31 35  1  0  0  0  0
 31 32  1  0  0  0  0
 33 31  2  0  0  0  0
 35 34  3  0  0  0  0
 36  6  1  0  0  0  0
 37 36  1  0  0  0  0
 38 40  1  0  0  0  0
 38 37  1  0  0  0  0
 39 38  1  0  0  0  0
 41 46  1  0  0  0  0
 41 42  1  0  0  0  0
 42 52  1  0  0  0  0
 43 55  1  0  0  0  0
 43 40  1  0  0  0  0
 44 51  1  0  0  0  0
 45 53  2  0  0  0  0
 45 49  1  0  0  0  0
 46 44  1  0  0  0  0
 47 50  1  0  0  0  0
 49 48  1  0  0  0  0
 49 47  1  0  0  0  0
 51 52  1  0  0  0  0
 51 50  1  0  0  0  0
 52 43  1  0  0  0  0
 53 55  1  0  0  0  0
 54 41  2  0  0  0  0
 55 47  2  0  0  0  0
M  END
>  <MODEL>
3

>  <REMARK>
 VINA RESULT:      -5.3      1.896      2.357
  Name = 
  12 active torsions:
  status: ('A' for Active; 'I' for Inactive)
    1  A    between atoms: C_3  and  O_4
    2  A    between atoms: O_4  and  C_55
    3  A    between atoms: C_5  and  C_18
    4  A    between atoms: C_5  and  C_27
    5  A    between atoms: C_6  and  C_48
    6  A    between atoms: C_13  and  C_25
    7  A    between atoms: C_13  and  C_27
    8  A    between atoms: C_14  and  C_18
    9  A    between atoms: N_30  and  C_32
   10  A    between atoms: C_32  and  C_40
   11  A    between atoms: C_35  and  C_50
   12  A    between atoms: C_40  and  N_53
                            x       y       z     vdW  Elec       q    Type
                         _______ _______ _______ _____ _____    ______ ____

>  <TORSDO>
F 12

$$$$
=
 OpenBabel11072412463D

 55 63  0  0  1  0  0  0  0  0999 V2000
  161.7350  204.0550  145.3140 C   0  0  0  0  0  0  0  0  0  0  0  0
  160.8990  203.1690  147.3420 C   0  0  0  0  0  3  0  0  0  0  0  0
  161.2930  204.4230  148.0270 C   0  0  0  0  0  0  0  0  0  0  0  0
  160.8510  204.6830  149.3270 C   0  0  0  0  0  3  0  0  0  0  0  0
  162.4400  206.2040  145.0380 N   0  0  0  0  0  0  0  0  0  0  0  0
  161.8140  205.7510  143.9900 C   0  0  0  0  0  0  0  0  0  0  0  0
  161.3110  204.4270  144.1510 N   0  0  0  0  0  0  0  0  0  0  0  0
  162.5710  205.1010  145.9700 C   0  0  1  0  0  3  0  0  0  0  0  0
  162.0160  205.4130  147.3290 C   0  0  0  0  0  0  0  0  0  0  0  0
  161.8630  206.8630  149.1900 C   0  0  0  0  0  3  0  0  0  0  0  0
  161.0980  203.0150  146.0610 N   0  0  0  0  0  0  0  0  0  0  0  0
  162.3140  206.5880  147.9390 N   0  0  0  0  0  0  0  0  0  0  0  0
  161.1110  205.9250  149.9030 C   0  0  0  0  0  0  0  0  0  0  0  0
  160.5770  206.2140  151.1630 O   0  0  0  0  0  0  0  0  0  0  0  0
  161.2840  206.9620  152.1510 C   0  0  2  0  0  3  0  0  0  0  0  0
  160.8780  208.0820  154.1850 C   0  0  2  0  0  3  0  0  0  0  0  0
  161.7860  206.0440  153.2330 C   0  0  0  0  0  2  0  0  0  0  0  0
  161.8260  206.9150  154.4630 C   0  0  0  0  0  2  0  0  0  0  0  0
  160.3750  207.8970  152.8030 N   0  0  0  0  0  0  0  0  0  0  0  0
  160.7560  212.6290  156.5160 N   0  0  0  0  0  1  0  0  0  0  0  0
  160.8770  211.1960  156.3110 C   0  0  2  0  0  3  0  0  0  0  0  0
  162.3170  209.4620  155.7910 C   0  0  0  0  0  2  0  0  0  0  0  0
  162.2800  210.7960  156.3650 N   0  0  0  0  0  2  0  0  0  0  0  0
  161.5190  209.4620  154.4910 C   0  0  2  0  0  3  0  0  0  0  0  0
  160.2260  210.7490  154.6820 S   0  0  0  0  0  0  0  0  0  0  0  0
  160.3180  209.1080  151.9840 C   0  0  0  0  0  2  0  0  0  0  0  0
  161.5880  209.2430  151.1530 C   0  0  0  0  0  2  0  0  0  0  0  0
  162.4480  210.7850  149.3440 C   0  0  0  0  0  2  0  0  0  0  0  0
  160.9460  211.6730  151.1540 C   0  0  0  0  0  3  0  0  0  0  0  0
  161.6710  210.5770  150.5690 N   0  0  0  0  0  0  0  0  0  0  0  0
  161.0220  212.7720  148.9730 C   0  0  0  0  0  0  0  0  0  0  0  0
  160.6420  212.7370  150.4030 C   0  0  0  0  0  3  0  0  0  0  0  0
  161.7850  211.8020  148.4550 C   0  0  0  0  0  3  0  0  0  0  0  0
  159.7700  214.3910  147.3810 N   0  0  0  0  0  0  0  0  0  0  0  0
  160.3290  213.6730  148.0970 C   0  0  0  0  0  0  0  0  0  0  0  0
  161.2860  206.6560  142.9380 C   0  0  0  0  0  2  0  0  0  0  0  0
  162.1070  206.5760  141.6560 C   0  0  0  0  0  2  0  0  0  0  0  0
  161.5910  207.5600  140.6130 C   0  0  2  0  0  3  0  0  0  0  0  0
  161.5760  206.9620  139.3560 O   0  0  0  0  0  1  0  0  0  0  0  0
  162.4240  208.8420  140.5800 C   0  0  0  0  0  2  0  0  0  0  0  0
  160.1910  212.0970  143.3680 C   0  0  0  0  0  0  0  0  0  0  0  0
  160.4610  210.8960  142.4900 C   0  0  0  0  0  2  0  0  0  0  0  0
  161.5680  210.0850  140.3640 C   0  0  1  0  0  3  0  0  0  0  0  0
  162.2400  213.3150  142.4840 C   0  0  0  0  0  2  0  0  0  0  0  0
  161.3900  211.8990  137.0920 C   0  0  0  0  0  3  0  0  0  0  0  0
  160.8850  213.4320  143.1850 C   0  0  0  0  0  2  0  0  0  0  0  0
  162.6470  211.8830  139.0020 C   0  0  0  0  0  0  0  0  0  0  0  0
  162.8150  213.9080  137.3470 C   0  0  0  0  0  1  0  0  0  0  0  0
  162.2880  212.5860  137.7800 C   0  0  0  0  0  0  0  0  0  0  0  0
  163.1730  212.5410  140.2320 C   0  0  0  0  0  2  0  0  0  0  0  0
  162.0430  212.4730  141.2450 C   0  0  1  0  0  3  0  0  0  0  0  0
  161.7060  211.0100  141.5960 C   0  0  1  0  0  3  0  0  0  0  0  0
  161.0900  210.6300  137.8300 C   0  0  0  0  0  2  0  0  0  0  0  0
  159.3410  212.0050  144.2380 O   0  0  0  0  0  0  0  0  0  0  0  0
  161.9400  210.7520  139.0550 C   0  0  0  0  0  0  0  0  0  0  0  0
  1  8  1  0  0  0  0
  1 11  1  0  0  0  0
  2  3  1  0  0  0  0
  3  4  1  0  0  0  0
  4 13  2  0  0  0  0
  6  7  1  0  0  0  0
  6  5  2  0  0  0  0
  7  1  2  0  0  0  0
  8  5  1  6  0  0  0
  8  9  1  0  0  0  0
  9 12  1  0  0  0  0
  9  3  2  0  0  0  0
 10 13  1  0  0  0  0
 11  2  2  0  0  0  0
 12 10  2  0  0  0  0
 13 14  1  0  0  0  0
 15 14  1  6  0  0  0
 15 19  1  0  0  0  0
 15 17  1  0  0  0  0
 16 18  1  6  0  0  0
 16 24  1  0  0  0  0
 17 18  1  0  0  0  0
 19 16  1  0  0  0  0
 21 23  1  0  0  0  0
 21 20  1  6  0  0  0
 22 23  1  0  0  0  0
 24 25  1  0  0  0  0
 24 22  1  1  0  0  0
 25 21  1  0  0  0  0
 26 19  1  0  0  0  0
 27 26  1  0  0  0  0
 28 30  1  0  0  0  0
 30 27  1  0  0  0  0
 30 29  1  0  0  0  0
 31 32  1  0  0  0  0
 32 29  2  0  0  0  0
 33 31  2  0  0  0  0
 33 28  1  0  0  0  0
 34 35  3  0  0  0  0
 35 31  1  0  0  0  0
 36  6  1  0  0  0  0
 37 36  1  0  0  0  0
 38 39  1  6  0  0  0
 38 37  1  0  0  0  0
 40 38  1  0  0  0  0
 41 54  2  0  0  0  0
 42 41  1  0  0  0  0
 43 40  1  1  0  0  0
 43 52  1  0  0  0  0
 44 46  1  0  0  0  0
 45 49  2  0  0  0  0
 45 53  1  0  0  0  0
 46 41  1  0  0  0  0
 47 55  2  0  0  0  0
 47 50  1  0  0  0  0
 48 49  1  0  0  0  0
 49 47  1  0  0  0  0
 51 50  1  6  0  0  0
 51 52  1  0  0  0  0
 51 44  1  0  0  0  0
 52 42  1  6  0  0  0
 53 55  1  0  0  0  0
 55 43  1  0  0  0  0
M  END
>  <MODEL>
4

>  <REMARK>
 VINA RESULT:      -4.6      1.611      2.214
  Name = 
  12 active torsions:
  status: ('A' for Active; 'I' for Inactive)
    1  A    between atoms: C_3  and  O_4
    2  A    between atoms: O_4  and  C_55
    3  A    between atoms: C_5  and  C_18
    4  A    between atoms: C_5  and  C_27
    5  A    between atoms: C_6  and  C_48
    6  A    between atoms: C_13  and  C_25
    7  A    between atoms: C_13  and  C_27
    8  A    between atoms: C_14  and  C_18
    9  A    between atoms: N_30  and  C_32
   10  A    between atoms: C_32  and  C_40
   11  A    between atoms: C_35  and  C_50
   12  A    between atoms: C_40  and  N_53
                            x       y       z     vdW  Elec       q    Type
                         _______ _______ _______ _____ _____    ______ ____

>  <TORSDO>
F 12

$$$$
=
 OpenBabel11072412463D

 55 63  0  0  1  0  0  0  0  0999 V2000
  161.1890  212.1550  148.4600 C   0  0  0  0  0  0  0  0  0  0  0  0
  162.0000  209.9440  148.2340 C   0  0  0  0  0  3  0  0  0  0  0  0
  161.9910  209.8130  149.7090 C   0  0  0  0  0  0  0  0  0  0  0  0
  162.1670  208.5610  150.3060 C   0  0  0  0  0  3  0  0  0  0  0  0
  160.5000  213.0820  150.4240 N   0  0  0  0  0  0  0  0  0  0  0  0
  159.7680  213.4600  149.4150 C   0  0  0  0  0  0  0  0  0  0  0  0
  160.1390  212.8550  148.1790 N   0  0  0  0  0  0  0  0  0  0  0  0
  161.5890  212.2890  149.8900 C   0  0  1  0  0  3  0  0  0  0  0  0
  161.6870  210.9280  150.5170 C   0  0  0  0  0  0  0  0  0  0  0  0
  161.7500  209.5700  152.4510 C   0  0  0  0  0  3  0  0  0  0  0  0
  161.6040  211.0470  147.6570 N   0  0  0  0  0  0  0  0  0  0  0  0
  161.6120  210.7870  151.8650 N   0  0  0  0  0  0  0  0  0  0  0  0
  162.0150  208.4310  151.6840 C   0  0  0  0  0  0  0  0  0  0  0  0
  162.0910  207.1580  152.2590 O   0  0  0  0  0  0  0  0  0  0  0  0
  161.3370  206.0450  151.7790 C   0  0  2  0  0  3  0  0  0  0  0  0
  161.6790  203.9790  150.7000 C   0  0  2  0  0  3  0  0  0  0  0  0
  161.2230  204.9970  152.8530 C   0  0  0  0  0  2  0  0  0  0  0  0
  161.1060  203.7020  152.0900 C   0  0  0  0  0  2  0  0  0  0  0  0
  162.0440  205.4150  150.6710 N   0  0  0  0  0  0  0  0  0  0  0  0
  160.3430  200.4920  147.2090 N   0  0  0  0  0  1  0  0  0  0  0  0
  160.5400  201.1400  148.4940 C   0  0  2  0  0  3  0  0  0  0  0  0
  159.6320  202.5810  150.0590 C   0  0  0  0  0  2  0  0  0  0  0  0
  159.2710  201.6560  148.9980 N   0  0  0  0  0  2  0  0  0  0  0  0
  160.7430  203.4970  149.5580 C   0  0  2  0  0  3  0  0  0  0  0  0
  161.6830  202.5330  148.3130 S   0  0  0  0  0  0  0  0  0  0  0  0
  161.6860  206.1340  149.4480 C   0  0  0  0  0  2  0  0  0  0  0  0
  162.8060  206.0170  148.4210 C   0  0  0  0  0  2  0  0  0  0  0  0
  162.9210  205.0080  146.1060 C   0  0  0  0  0  2  0  0  0  0  0  0
  161.0160  206.5260  146.7310 C   0  0  0  0  0  3  0  0  0  0  0  0
  162.2490  205.8740  147.0800 N   0  0  0  0  0  0  0  0  0  0  0  0
  160.7210  204.8410  144.9860 C   0  0  0  0  0  0  0  0  0  0  0  0
  160.2820  206.0490  145.7200 C   0  0  0  0  0  3  0  0  0  0  0  0
  161.9170  204.2960  145.2400 C   0  0  0  0  0  3  0  0  0  0  0  0
  158.9560  203.5070  143.6330 N   0  0  0  0  0  0  0  0  0  0  0  0
  159.7490  204.0990  144.2340 C   0  0  0  0  0  0  0  0  0  0  0  0
  158.4310  214.0790  149.6020 C   0  0  0  0  0  2  0  0  0  0  0  0
  157.4780  213.1530  150.3510 C   0  0  0  0  0  2  0  0  0  0  0  0
  157.6060  213.3390  151.8580 C   0  0  2  0  0  3  0  0  0  0  0  0
  158.3960  214.4500  152.1380 O   0  0  0  0  0  1  0  0  0  0  0  0
  158.1800  212.0950  152.5370 C   0  0  0  0  0  2  0  0  0  0  0  0
  155.3240  213.4140  156.2070 C   0  0  0  0  0  0  0  0  0  0  0  0
  156.3420  213.4500  155.0880 C   0  0  0  0  0  2  0  0  0  0  0  0
  158.3220  212.2700  154.0450 C   0  0  1  0  0  3  0  0  0  0  0  0
  155.5450  210.8930  156.4470 C   0  0  0  0  0  2  0  0  0  0  0  0
  161.1670  210.8270  156.0090 C   0  0  0  0  0  3  0  0  0  0  0  0
  155.1140  212.2080  157.0990 C   0  0  0  0  0  2  0  0  0  0  0  0
  159.0840  210.2310  155.2750 C   0  0  0  0  0  0  0  0  0  0  0  0
  160.2650  208.8170  157.1390 C   0  0  0  0  0  1  0  0  0  0  0  0
  160.1990  209.9370  156.1620 C   0  0  2  0  0  3  0  0  0  0  0  0
  157.6740  209.8170  155.5250 C   0  0  0  0  0  2  0  0  0  0  0  0
  156.9340  211.0940  155.8860 C   0  0  1  0  0  3  0  0  0  0  0  0
  156.9360  212.0850  154.7060 C   0  0  1  0  0  3  0  0  0  0  0  0
  160.7530  211.8060  154.9530 C   0  0  0  0  0  3  0  0  0  0  0  0
  154.6710  214.4190  156.4330 O   0  0  0  0  0  0  0  0  0  0  0  0
  159.3840  211.3300  154.5800 C   0  0  0  0  0  0  0  0  0  0  0  0
  2  3  1  0  0  0  0
  3  4  2  0  0  0  0
  3  9  1  0  0  0  0
  4 13  1  0  0  0  0
  6 36  1  0  0  0  0
  6  5  2  0  0  0  0
  7  1  2  0  0  0  0
  7  6  1  0  0  0  0
  8  1  1  6  0  0  0
  8  5  1  0  0  0  0
  8  9  1  0  0  0  0
  9 12  2  0  0  0  0
 11  2  2  0  0  0  0
 11  1  1  0  0  0  0
 12 10  1  0  0  0  0
 13 14  1  0  0  0  0
 13 10  2  0  0  0  0
 15 14  1  1  0  0  0
 15 17  1  0  0  0  0
 16 18  1  1  0  0  0
 18 17  1  0  0  0  0
 19 16  1  0  0  0  0
 19 15  1  0  0  0  0
 21 20  1  6  0  0  0
 21 23  1  0  0  0  0
 23 22  1  0  0  0  0
 24 22  1  1  0  0  0
 24 16  1  0  0  0  0
 25 21  1  0  0  0  0
 25 24  1  0  0  0  0
 26 19  1  0  0  0  0
 27 26  1  0  0  0  0
 28 30  1  0  0  0  0
 29 30  1  0  0  0  0
 30 27  1  0  0  0  0
 31 33  2  0  0  0  0
 31 32  1  0  0  0  0
 32 29  2  0  0  0  0
 33 28  1  0  0  0  0
 34 35  3  0  0  0  0
 35 31  1  0  0  0  0
 36 37  1  0  0  0  0
 37 38  1  0  0  0  0
 38 39  1  6  0  0  0
 38 40  1  0  0  0  0
 41 54  2  0  0  0  0
 41 46  1  0  0  0  0
 42 41  1  0  0  0  0
 43 40  1  6  0  0  0
 43 55  1  0  0  0  0
 43 52  1  0  0  0  0
 44 46  1  0  0  0  0
 45 49  1  0  0  0  0
 47 50  1  0  0  0  0
 47 49  1  0  0  0  0
 49 48  1  1  0  0  0
 51 50  1  6  0  0  0
 51 44  1  0  0  0  0
 52 42  1  1  0  0  0
 52 51  1  0  0  0  0
 53 45  2  0  0  0  0
 55 53  1  0  0  0  0
 55 47  2  0  0  0  0
M  END
>  <MODEL>
5

>  <REMARK>
 VINA RESULT:      -4.1      5.679     11.642
  Name = 
  12 active torsions:
  status: ('A' for Active; 'I' for Inactive)
    1  A    between atoms: C_3  and  O_4
    2  A    between atoms: O_4  and  C_55
    3  A    between atoms: C_5  and  C_18
    4  A    between atoms: C_5  and  C_27
    5  A    between atoms: C_6  and  C_48
    6  A    between atoms: C_13  and  C_25
    7  A    between atoms: C_13  and  C_27
    8  A    between atoms: C_14  and  C_18
    9  A    between atoms: N_30  and  C_32
   10  A    between atoms: C_32  and  C_40
   11  A    between atoms: C_35  and  C_50
   12  A    between atoms: C_40  and  N_53
                            x       y       z     vdW  Elec       q    Type
                         _______ _______ _______ _____ _____    ______ ____

>  <TORSDO>
F 12

$$$$
=
 OpenBabel11072412463D

 55 63  0  0  1  0  0  0  0  0999 V2000
  161.9560  204.1150  145.5850 C   0  0  0  0  0  0  0  0  0  0  0  0
  161.1920  203.6520  147.7760 C   0  0  0  0  0  3  0  0  0  0  0  0
  161.4010  205.0760  148.1270 C   0  0  0  0  0  0  0  0  0  0  0  0
  160.8950  205.5880  149.3250 C   0  0  0  0  0  3  0  0  0  0  0  0
  162.3820  206.2040  144.7820 N   0  0  0  0  0  0  0  0  0  0  0  0
  161.8470  205.4280  143.8830 C   0  0  0  0  0  0  0  0  0  0  0  0
  161.5170  204.1290  144.3700 N   0  0  0  0  0  0  0  0  0  0  0  0
  162.6320  205.3920  145.9560 C   0  0  1  0  0  3  0  0  0  0  0  0
  162.0060  205.9510  147.2010 C   0  0  0  0  0  0  0  0  0  0  0  0
  161.6170  207.7820  148.6460 C   0  0  0  0  0  3  0  0  0  0  0  0
  161.4420  203.2160  146.5710 N   0  0  0  0  0  0  0  0  0  0  0  0
  162.1320  207.2690  147.4990 N   0  0  0  0  0  0  0  0  0  0  0  0
  160.9760  206.9560  149.5740 C   0  0  0  0  0  0  0  0  0  0  0  0
  160.3770  207.4730  150.7280 O   0  0  0  0  0  0  0  0  0  0  0  0
  161.1270  207.9200  151.8570 C   0  0  2  0  0  3  0  0  0  0  0  0
  160.7710  208.6960  154.0530 C   0  0  2  0  0  3  0  0  0  0  0  0
  161.4440  206.7580  152.7590 C   0  0  0  0  0  2  0  0  0  0  0  0
  161.5370  207.3760  154.1320 C   0  0  0  0  0  2  0  0  0  0  0  0
  160.3190  208.8400  152.6490 N   0  0  0  0  0  0  0  0  0  0  0  0
  161.1710  212.6690  157.2450 N   0  0  0  0  0  1  0  0  0  0  0  0
  161.1120  211.3020  156.7580 C   0  0  2  0  0  3  0  0  0  0  0  0
  162.3310  209.5300  155.9040 C   0  0  0  0  0  2  0  0  0  0  0  0
  162.4500  210.7180  156.7320 N   0  0  0  0  0  2  0  0  0  0  0  0
  161.5750  209.8930  154.6290 C   0  0  2  0  0  3  0  0  0  0  0  0
  160.4540  211.2750  155.0720 S   0  0  0  0  0  0  0  0  0  0  0  0
  160.4690  210.1750  152.0700 C   0  0  0  0  0  2  0  0  0  0  0  0
  161.7240  210.2400  151.2090 C   0  0  0  0  0  2  0  0  0  0  0  0
  162.3310  211.2730  148.9830 C   0  0  0  0  0  2  0  0  0  0  0  0
  160.8290  212.5040  150.5810 C   0  0  0  0  0  3  0  0  0  0  0  0
  161.6380  211.3550  150.2730 N   0  0  0  0  0  0  0  0  0  0  0  0
  160.6860  212.9390  148.1810 C   0  0  0  0  0  0  0  0  0  0  0  0
  160.3790  213.2790  149.5890 C   0  0  0  0  0  3  0  0  0  0  0  0
  161.5230  211.9330  147.8980 C   0  0  0  0  0  3  0  0  0  0  0  0
  159.1890  213.9210  146.3060 N   0  0  0  0  0  0  0  0  0  0  0  0
  159.8620  213.4880  147.1430 C   0  0  0  0  0  0  0  0  0  0  0  0
  161.2320  205.9680  142.6440 C   0  0  0  0  0  2  0  0  0  0  0  0
  161.8150  207.3260  142.2670 C   0  0  0  0  0  2  0  0  0  0  0  0
  161.9900  207.4480  140.7590 C   0  0  2  0  0  3  0  0  0  0  0  0
  163.3370  207.5950  140.4430 O   0  0  0  0  0  1  0  0  0  0  0  0
  161.1810  208.6110  140.1850 C   0  0  0  0  0  2  0  0  0  0  0  0
  164.5460  211.8280  138.8850 C   0  0  0  0  0  0  0  0  0  0  0  0
  163.8320  210.6940  139.5860 C   0  0  0  0  0  2  0  0  0  0  0  0
  161.6740  209.9640  140.6860 C   0  0  1  0  0  3  0  0  0  0  0  0
  162.3490  212.8680  138.1390 C   0  0  0  0  0  2  0  0  0  0  0  0
  159.7170  212.0950  143.0660 C   0  0  0  0  0  3  0  0  0  0  0  0
  163.8410  213.0800  138.4020 C   0  0  0  0  0  2  0  0  0  0  0  0
  159.9190  211.7420  140.8150 C   0  0  0  0  0  0  0  0  0  0  0  0
  158.6880  213.8810  141.6950 C   0  0  0  0  0  1  0  0  0  0  0  0
  159.4170  212.5970  141.8790 C   0  0  0  0  0  0  0  0  0  0  0  0
  160.2480  212.2080  139.4380 C   0  0  0  0  0  2  0  0  0  0  0  0
  161.7640  212.1800  139.3510 C   0  0  1  0  0  3  0  0  0  0  0  0
  162.2970  210.7420  139.5030 C   0  0  1  0  0  3  0  0  0  0  0  0
  160.4550  210.8060  142.8670 C   0  0  0  0  0  2  0  0  0  0  0  0
  165.7550  211.7560  138.7410 O   0  0  0  0  0  0  0  0  0  0  0  0
  160.5450  210.7050  141.3770 C   0  0  0  0  0  0  0  0  0  0  0  0
  1  8  1  0  0  0  0
  1 11  1  0  0  0  0
  2  3  1  0  0  0  0
  3  4  1  0  0  0  0
  4 13  2  0  0  0  0
  6  7  1  0  0  0  0
  6  5  2  0  0  0  0
  7  1  2  0  0  0  0
  8  5  1  6  0  0  0
  8  9  1  0  0  0  0
  9 12  1  0  0  0  0
  9  3  2  0  0  0  0
 10 13  1  0  0  0  0
 11  2  2  0  0  0  0
 12 10  2  0  0  0  0
 13 14  1  0  0  0  0
 15 14  1  6  0  0  0
 15 19  1  0  0  0  0
 15 17  1  0  0  0  0
 16 18  1  6  0  0  0
 16 24  1  0  0  0  0
 17 18  1  0  0  0  0
 19 16  1  0  0  0  0
 21 20  1  6  0  0  0
 22 23  1  0  0  0  0
 23 21  1  0  0  0  0
 24 25  1  0  0  0  0
 24 22  1  1  0  0  0
 25 21  1  0  0  0  0
 26 19  1  0  0  0  0
 27 26  1  0  0  0  0
 28 30  1  0  0  0  0
 30 29  1  0  0  0  0
 30 27  1  0  0  0  0
 31 32  1  0  0  0  0
 32 29  2  0  0  0  0
 33 31  2  0  0  0  0
 33 28  1  0  0  0  0
 34 35  3  0  0  0  0
 35 31  1  0  0  0  0
 36  6  1  0  0  0  0
 37 36  1  0  0  0  0
 38 39  1  1  0  0  0
 38 37  1  0  0  0  0
 40 38  1  0  0  0  0
 41 42  1  0  0  0  0
 43 40  1  6  0  0  0
 43 55  1  0  0  0  0
 44 46  1  0  0  0  0
 46 41  1  0  0  0  0
 47 55  2  0  0  0  0
 47 49  1  0  0  0  0
 48 49  1  0  0  0  0
 49 45  2  0  0  0  0
 50 47  1  0  0  0  0
 51 44  1  6  0  0  0
 51 50  1  0  0  0  0
 51 52  1  0  0  0  0
 52 42  1  1  0  0  0
 52 43  1  0  0  0  0
 53 45  1  0  0  0  0
 54 41  2  0  0  0  0
 55 53  1  0  0  0  0
M  END
>  <MODEL>
6

>  <REMARK>
 VINA RESULT:      -3.5      1.346      2.468
  Name = 
  12 active torsions:
  status: ('A' for Active; 'I' for Inactive)
    1  A    between atoms: C_3  and  O_4
    2  A    between atoms: O_4  and  C_55
    3  A    between atoms: C_5  and  C_18
    4  A    between atoms: C_5  and  C_27
    5  A    between atoms: C_6  and  C_48
    6  A    between atoms: C_13  and  C_25
    7  A    between atoms: C_13  and  C_27
    8  A    between atoms: C_14  and  C_18
    9  A    between atoms: N_30  and  C_32
   10  A    between atoms: C_32  and  C_40
   11  A    between atoms: C_35  and  C_50
   12  A    between atoms: C_40  and  N_53
                            x       y       z     vdW  Elec       q    Type
                         _______ _______ _______ _____ _____    ______ ____

>  <TORSDO>
F 12

$$$$
