=
 OpenBabel11072414493D

 47 51  0  0  1  0  0  0  0  0999 V2000
  161.5640  207.8930  149.3370 C   0  0  2  0  0  0  0  0  0  0  0  0
  161.8910  209.8190  152.3980 C   0  0  0  0  0  3  0  0  0  0  0  0
  161.2180  209.3150  149.0990 C   0  0  2  0  0  3  0  0  0  0  0  0
  161.9970  211.3840  150.5600 N   0  0  0  0  0  0  0  0  0  0  0  0
  162.1000  207.6210  150.6760 N   0  0  0  0  0  2  0  0  0  0  0  0
  161.9370  210.4010  148.3090 C   0  0  0  0  0  2  0  0  0  0  0  0
  162.3320  208.9440  150.0820 C   0  0  1  0  0  0  0  0  0  0  0  0
  162.0050  210.0340  151.0850 C   0  0  0  0  0  0  0  0  0  0  0  0
  161.9880  211.5860  149.2620 C   0  0  0  0  0  3  0  0  0  0  0  0
  162.4270  207.3290  148.3040 N   0  0  0  0  0  2  0  0  0  0  0  0
  162.0490  206.1490  147.5850 C   0  0  0  0  0  0  0  0  0  0  0  0
  160.8700  205.7190  147.6660 O   0  0  0  0  0  0  0  0  0  0  0  0
  164.1410  203.8530  145.3410 C   0  0  0  0  0  1  0  0  0  0  0  0
  163.0350  205.3380  146.8520 C   0  0  0  0  0  3  0  0  0  0  0  0
  162.8680  204.4000  145.9160 C   0  0  0  0  0  0  0  0  0  0  0  0
  161.5640  203.7880  145.5200 C   0  0  0  0  0  0  0  0  0  0  0  0
  161.1310  202.7450  146.1930 C   0  0  0  0  0  0  0  0  0  0  0  0
  159.6100  201.0540  146.5590 F   0  0  0  0  0  0  0  0  0  0  0  0
  160.7250  201.7380  146.9200 C   0  0  0  0  0  0  0  0  0  0  0  0
  160.8050  204.3510  144.4720 O   0  0  0  0  0  0  0  0  0  0  0  0
  160.4170  206.6400  144.6190 O   0  0  0  0  0  0  0  0  0  0  0  0
  161.5810  205.9150  142.6910 C   0  0  0  0  0  1  0  0  0  0  0  0
  160.8930  205.6660  143.9860 C   0  0  0  0  0  0  0  0  0  0  0  0
  161.3190  201.5210  148.2020 N   0  0  0  0  0  2  0  0  0  0  0  0
  159.0380  201.1810  149.4930 O   0  0  0  0  0  0  0  0  0  0  0  0
  161.1330  200.9120  150.7520 O   0  0  0  0  0  0  0  0  0  0  0  0
  160.4340  201.7050  149.6770 S   0  0  0  0  0  0  0  0  0  0  0  0
  160.3860  203.3810  150.1250 N   0  0  0  0  0  2  0  0  0  0  0  0
  161.4220  203.6000  151.1250 C   0  0  0  0  0  2  0  0  0  0  0  0
  161.1920  205.2130  153.0180 C   0  0  0  0  0  1  0  0  0  0  0  0
  160.7880  203.8560  152.4850 C   0  0  0  0  0  2  0  0  0  0  0  0
  161.6050  210.8910  153.2960 N   0  0  0  0  0  2  0  0  0  0  0  0
  160.3300  211.0100  153.9980 C   0  0  2  0  0  3  0  0  0  0  0  0
  159.5700  212.1660  153.5120 N   0  0  0  0  0  2  0  0  0  0  0  0
  157.1770  212.0220  154.0820 C   0  0  0  0  0  2  0  0  0  0  0  0
  158.5680  214.0230  154.7310 C   0  0  0  0  0  2  0  0  0  0  0  0
  156.0230  212.6660  154.8730 C   0  0  0  0  0  2  0  0  0  0  0  0
  156.5090  213.3860  156.1340 C   0  0  0  0  0  2  0  0  0  0  0  0
  157.5600  214.4530  155.8150 C   0  0  0  0  0  2  0  0  0  0  0  0
  158.5710  212.5080  154.5170 C   0  0  0  0  0  3  0  0  0  0  0  0
  160.5580  211.0500  155.5200 C   0  0  0  0  0  2  0  0  0  0  0  0
  161.1410  206.9280  156.5340 C   0  0  0  0  0  2  0  0  0  0  0  0
  159.6690  208.6670  155.4770 C   0  0  0  0  0  2  0  0  0  0  0  0
  160.5360  209.6860  156.2300 C   0  0  1  0  0  3  0  0  0  0  0  0
  161.8020  208.0980  157.2560 C   0  0  0  0  0  2  0  0  0  0  0  0
  159.7050  207.3140  156.1920 C   0  0  0  0  0  2  0  0  0  0  0  0
  161.8580  209.2120  156.3950 O   0  0  0  0  0  0  0  0  0  0  0  0
  1 10  1  6  0  0  0
  1  7  1  0  0  0  0
  1  5  1  0  0  0  0
  2 32  1  0  0  0  0
  3  6  1  6  0  0  0
  3  1  1  0  0  0  0
  3  7  1  0  0  0  0
  4  8  1  0  0  0  0
  6  9  1  0  0  0  0
  7  5  1  1  0  0  0
  7  8  1  0  0  0  0
  8  2  2  0  0  0  0
  9  4  2  0  0  0  0
 11 12  2  0  0  0  0
 11 10  1  0  0  0  0
 13 15  1  0  0  0  0
 14 11  1  0  0  0  0
 15 14  2  0  0  0  0
 16 15  1  0  0  0  0
 16 17  2  0  0  0  0
 17 19  2  0  0  0  0
 18 19  1  0  0  0  0
 19 24  1  0  0  0  0
 20 16  1  0  0  0  0
 22 23  1  0  0  0  0
 23 20  1  0  0  0  0
 23 21  2  0  0  0  0
 24 27  1  0  0  0  0
 25 27  2  0  0  0  0
 27 28  1  0  0  0  0
 27 26  2  0  0  0  0
 28 29  1  0  0  0  0
 29 31  1  0  0  0  0
 31 30  1  0  0  0  0
 32 33  1  0  0  0  0
 33 41  1  1  0  0  0
 34 33  1  0  0  0  0
 34 40  1  0  0  0  0
 35 40  1  0  0  0  0
 35 37  1  0  0  0  0
 36 39  1  0  0  0  0
 37 38  1  0  0  0  0
 39 38  1  0  0  0  0
 40 36  1  0  0  0  0
 42 45  1  0  0  0  0
 43 46  1  0  0  0  0
 43 44  1  0  0  0  0
 44 41  1  6  0  0  0
 44 47  1  0  0  0  0
 46 42  1  0  0  0  0
 47 45  1  0  0  0  0
M  END
>  <MODEL>
1

>  <REMARK>
 VINA RESULT:      -5.1      0.000      0.000
  Name = 
  16 active torsions:
  status: ('A' for Active; 'I' for Inactive)
    1  A    between atoms: N_1  and  C_31
    2  A    between atoms: N_1  and  S_37
    3  A    between atoms: C_4  and  O_43
    4  A    between atoms: C_4  and  C_46
    5  A    between atoms: C_7  and  N_20
    6  A    between atoms: N_9  and  C_27
    7  A    between atoms: N_9  and  S_37
    8  A    between atoms: C_10  and  N_39
    9  A    between atoms: C_18  and  C_22
   10  A    between atoms: C_22  and  C_26
   11  A    between atoms: C_24  and  C_32
   12  A    between atoms: C_26  and  N_29
   13  A    between atoms: C_26  and  N_39
   14  A    between atoms: C_27  and  C_36
   15  A    between atoms: N_29  and  C_44
   16  A    between atoms: O_43  and  C_47
                            x       y       z     vdW  Elec       q    Type
                         _______ _______ _______ _____ _____    ______ ____

>  <TORSDO>
F 16

$$$$
=
 OpenBabel11072414493D

 47 51  0  0  1  0  0  0  0  0999 V2000
  161.4220  207.7620  153.5110 C   0  0  2  0  0  0  0  0  0  0  0  0
  160.0950  211.1300  153.7950 C   0  0  0  0  0  3  0  0  0  0  0  0
  161.3420  208.1740  154.9340 C   0  0  2  0  0  3  0  0  0  0  0  0
  159.7680  210.0550  155.9350 N   0  0  0  0  0  0  0  0  0  0  0  0
  160.8160  208.7150  152.5740 N   0  0  0  0  0  2  0  0  0  0  0  0
  160.4410  207.6950  156.0640 C   0  0  0  0  0  2  0  0  0  0  0  0
  160.2720  208.6250  153.9360 C   0  0  1  0  0  0  0  0  0  0  0  0
  160.1040  210.0120  154.5270 C   0  0  0  0  0  0  0  0  0  0  0  0
  159.8940  208.9780  156.6750 C   0  0  0  0  0  3  0  0  0  0  0  0
  160.9280  206.4090  153.2740 N   0  0  0  0  0  2  0  0  0  0  0  0
  161.6520  205.4890  152.4490 C   0  0  0  0  0  0  0  0  0  0  0  0
  162.8350  205.7520  152.1100 O   0  0  0  0  0  0  0  0  0  0  0  0
  160.1810  202.6050  150.3990 C   0  0  0  0  0  1  0  0  0  0  0  0
  161.0110  204.2980  151.8670 C   0  0  0  0  0  3  0  0  0  0  0  0
  160.8010  203.9580  150.5930 C   0  0  0  0  0  0  0  0  0  0  0  0
  161.0040  204.8460  149.4090 C   0  0  0  0  0  0  0  0  0  0  0  0
  161.5640  204.3380  148.3330 C   0  0  0  0  0  0  0  0  0  0  0  0
  162.4070  204.5360  146.1980 F   0  0  0  0  0  0  0  0  0  0  0  0
  162.0850  203.7760  147.2750 C   0  0  0  0  0  0  0  0  0  0  0  0
  160.5640  206.1870  149.4440 O   0  0  0  0  0  0  0  0  0  0  0  0
  161.0490  207.6490  147.7000 O   0  0  0  0  0  0  0  0  0  0  0  0
  162.1400  208.0950  149.7510 C   0  0  0  0  0  1  0  0  0  0  0  0
  161.2220  207.2990  148.8930 C   0  0  0  0  0  0  0  0  0  0  0  0
  162.0890  202.3490  147.1770 N   0  0  0  0  0  2  0  0  0  0  0  0
  161.2800  200.0490  146.1560 O   0  0  0  0  0  0  0  0  0  0  0  0
  159.5990  201.5080  147.2020 O   0  0  0  0  0  0  0  0  0  0  0  0
  160.8440  201.4740  146.3530 S   0  0  0  0  0  0  0  0  0  0  0  0
  160.5260  202.2150  144.8170 N   0  0  0  0  0  2  0  0  0  0  0  0
  159.6620  203.3640  145.0530 C   0  0  0  0  0  2  0  0  0  0  0  0
  160.4150  205.7350  144.8250 C   0  0  0  0  0  1  0  0  0  0  0  0
  160.0060  204.4830  144.0800 C   0  0  0  0  0  2  0  0  0  0  0  0
  159.9080  212.4060  154.4070 N   0  0  0  0  0  2  0  0  0  0  0  0
  158.7180  213.2200  154.1810 C   0  0  2  0  0  3  0  0  0  0  0  0
  159.0530  214.4520  153.4610 N   0  0  0  0  0  2  0  0  0  0  0  0
  156.8230  214.2520  152.4310 C   0  0  0  0  0  2  0  0  0  0  0  0
  158.8840  213.3390  151.3000 C   0  0  0  0  0  2  0  0  0  0  0  0
  156.0460  213.8520  151.1630 C   0  0  0  0  0  2  0  0  0  0  0  0
  156.8640  214.0640  149.8860 C   0  0  0  0  0  2  0  0  0  0  0  0
  158.1930  213.3050  149.9230 C   0  0  0  0  0  2  0  0  0  0  0  0
  158.3310  214.4500  152.1940 C   0  0  0  0  0  3  0  0  0  0  0  0
  157.9950  213.4930  155.5130 C   0  0  0  0  0  2  0  0  0  0  0  0
  155.0520  210.5530  156.5400 C   0  0  0  0  0  2  0  0  0  0  0  0
  156.5610  211.5210  154.7830 C   0  0  0  0  0  2  0  0  0  0  0  0
  156.6720  212.7350  155.7170 C   0  0  1  0  0  3  0  0  0  0  0  0
  155.2280  211.8870  157.2580 C   0  0  0  0  0  2  0  0  0  0  0  0
  155.2520  210.7730  155.0440 C   0  0  0  0  0  2  0  0  0  0  0  0
  156.5460  212.3510  157.0730 O   0  0  0  0  0  0  0  0  0  0  0  0
  1 10  1  6  0  0  0
  1  7  1  0  0  0  0
  1  3  1  0  0  0  0
  2 32  1  0  0  0  0
  2  8  2  0  0  0  0
  3  6  1  1  0  0  0
  4  9  2  0  0  0  0
  5  1  1  0  0  0  0
  6  9  1  0  0  0  0
  7  5  1  6  0  0  0
  7  8  1  0  0  0  0
  7  3  1  0  0  0  0
  8  4  1  0  0  0  0
 11 10  1  0  0  0  0
 12 11  2  0  0  0  0
 13 15  1  0  0  0  0
 14 11  1  0  0  0  0
 15 14  2  0  0  0  0
 16 20  1  0  0  0  0
 16 15  1  0  0  0  0
 17 16  2  0  0  0  0
 18 19  1  0  0  0  0
 19 17  2  0  0  0  0
 21 23  2  0  0  0  0
 23 20  1  0  0  0  0
 23 22  1  0  0  0  0
 24 19  1  0  0  0  0
 25 27  2  0  0  0  0
 27 24  1  0  0  0  0
 27 26  2  0  0  0  0
 28 29  1  0  0  0  0
 28 27  1  0  0  0  0
 31 30  1  0  0  0  0
 31 29  1  0  0  0  0
 33 32  1  0  0  0  0
 33 41  1  1  0  0  0
 34 33  1  0  0  0  0
 36 40  1  0  0  0  0
 37 35  1  0  0  0  0
 38 39  1  0  0  0  0
 38 37  1  0  0  0  0
 39 36  1  0  0  0  0
 40 35  1  0  0  0  0
 40 34  1  0  0  0  0
 42 45  1  0  0  0  0
 43 46  1  0  0  0  0
 43 44  1  0  0  0  0
 44 41  1  1  0  0  0
 44 47  1  0  0  0  0
 46 42  1  0  0  0  0
 47 45  1  0  0  0  0
M  END
>  <MODEL>
2

>  <REMARK>
 VINA RESULT:      -4.9      2.570      5.154
  Name = 
  16 active torsions:
  status: ('A' for Active; 'I' for Inactive)
    1  A    between atoms: N_1  and  C_31
    2  A    between atoms: N_1  and  S_37
    3  A    between atoms: C_4  and  O_43
    4  A    between atoms: C_4  and  C_46
    5  A    between atoms: C_7  and  N_20
    6  A    between atoms: N_9  and  C_27
    7  A    between atoms: N_9  and  S_37
    8  A    between atoms: C_10  and  N_39
    9  A    between atoms: C_18  and  C_22
   10  A    between atoms: C_22  and  C_26
   11  A    between atoms: C_24  and  C_32
   12  A    between atoms: C_26  and  N_29
   13  A    between atoms: C_26  and  N_39
   14  A    between atoms: C_27  and  C_36
   15  A    between atoms: N_29  and  C_44
   16  A    between atoms: O_43  and  C_47
                            x       y       z     vdW  Elec       q    Type
                         _______ _______ _______ _____ _____    ______ ____

>  <TORSDO>
F 16

$$$$
=
 OpenBabel11072414493D

 47 51  0  0  1  0  0  0  0  0999 V2000
  161.4610  208.0090  149.2980 C   0  0  2  0  0  0  0  0  0  0  0  0
  161.4220  209.9900  152.3420 C   0  0  0  0  0  3  0  0  0  0  0  0
  161.1790  209.4330  148.9920 C   0  0  2  0  0  3  0  0  0  0  0  0
  161.8020  211.5160  150.5060 N   0  0  0  0  0  0  0  0  0  0  0  0
  161.8100  207.7540  150.7010 N   0  0  0  0  0  2  0  0  0  0  0  0
  162.0180  210.4880  148.2850 C   0  0  0  0  0  2  0  0  0  0  0  0
  162.1450  209.0600  150.1190 C   0  0  1  0  0  0  0  0  0  0  0  0
  161.7120  210.1770  151.0510 C   0  0  0  0  0  0  0  0  0  0  0  0
  161.9690  211.6920  149.2150 C   0  0  0  0  0  3  0  0  0  0  0  0
  162.4400  207.4080  148.3980 N   0  0  0  0  0  2  0  0  0  0  0  0
  162.0620  206.3900  147.4640 C   0  0  0  0  0  0  0  0  0  0  0  0
  160.8440  206.1670  147.2430 O   0  0  0  0  0  0  0  0  0  0  0  0
  164.1830  203.8610  145.5180 C   0  0  0  0  0  1  0  0  0  0  0  0
  163.0550  205.4960  146.8480 C   0  0  0  0  0  3  0  0  0  0  0  0
  162.9020  204.4860  145.9870 C   0  0  0  0  0  0  0  0  0  0  0  0
  161.5990  203.8740  145.5850 C   0  0  0  0  0  0  0  0  0  0  0  0
  161.1550  202.8410  146.2680 C   0  0  0  0  0  0  0  0  0  0  0  0
  159.6230  201.1610  146.6390 F   0  0  0  0  0  0  0  0  0  0  0  0
  160.7380  201.8450  147.0020 C   0  0  0  0  0  0  0  0  0  0  0  0
  160.8530  204.4270  144.5230 O   0  0  0  0  0  0  0  0  0  0  0  0
  160.4910  206.7250  144.4850 O   0  0  0  0  0  0  0  0  0  0  0  0
  161.8260  205.8640  142.7320 C   0  0  0  0  0  1  0  0  0  0  0  0
  161.0100  205.7070  143.9650 C   0  0  0  0  0  0  0  0  0  0  0  0
  161.3190  201.6410  148.2930 N   0  0  0  0  0  2  0  0  0  0  0  0
  159.0770  200.9500  149.5120 O   0  0  0  0  0  0  0  0  0  0  0  0
  161.1570  200.9530  150.8240 O   0  0  0  0  0  0  0  0  0  0  0  0
  160.3790  201.6630  149.7460 S   0  0  0  0  0  0  0  0  0  0  0  0
  160.0810  203.3040  150.2250 N   0  0  0  0  0  2  0  0  0  0  0  0
  161.3120  204.0540  150.0190 C   0  0  0  0  0  2  0  0  0  0  0  0
  160.9400  204.1480  152.4870 C   0  0  0  0  0  1  0  0  0  0  0  0
  161.8930  204.4800  151.3610 C   0  0  0  0  0  2  0  0  0  0  0  0
  161.0430  211.0850  153.1750 N   0  0  0  0  0  2  0  0  0  0  0  0
  161.4790  211.2050  154.5630 C   0  0  2  0  0  3  0  0  0  0  0  0
  162.1850  209.9970  154.9980 N   0  0  0  0  0  2  0  0  0  0  0  0
  161.3810  208.6100  156.8690 C   0  0  0  0  0  2  0  0  0  0  0  0
  161.3140  207.7780  154.4900 C   0  0  0  0  0  2  0  0  0  0  0  0
  160.6470  207.3150  157.2600 C   0  0  0  0  0  2  0  0  0  0  0  0
  159.6240  206.8820  156.2070 C   0  0  0  0  0  2  0  0  0  0  0  0
  160.2630  206.7040  154.8260 C   0  0  0  0  0  2  0  0  0  0  0  0
  161.1920  209.0060  155.3940 C   0  0  0  0  0  3  0  0  0  0  0  0
  160.2840  211.5500  155.4710 C   0  0  0  0  0  2  0  0  0  0  0  0
  156.3270  212.8120  154.4210 C   0  0  0  0  0  2  0  0  0  0  0  0
  157.7840  211.0810  155.5090 C   0  0  0  0  0  2  0  0  0  0  0  0
  158.9400  211.7510  154.7520 C   0  0  1  0  0  3  0  0  0  0  0  0
  157.5950  213.2550  153.6990 C   0  0  0  0  0  2  0  0  0  0  0  0
  156.4600  211.3370  154.7830 C   0  0  0  0  0  2  0  0  0  0  0  0
  158.6990  213.1320  154.5670 O   0  0  0  0  0  0  0  0  0  0  0  0
  1 10  1  6  0  0  0
  1  7  1  0  0  0  0
  1  5  1  0  0  0  0
  2 32  1  0  0  0  0
  3  6  1  6  0  0  0
  3  1  1  0  0  0  0
  3  7  1  0  0  0  0
  4  8  1  0  0  0  0
  6  9  1  0  0  0  0
  7  5  1  1  0  0  0
  7  8  1  0  0  0  0
  8  2  2  0  0  0  0
  9  4  2  0  0  0  0
 11 10  1  0  0  0  0
 12 11  2  0  0  0  0
 13 15  1  0  0  0  0
 14 11  1  0  0  0  0
 15 14  2  0  0  0  0
 16 15  1  0  0  0  0
 16 17  2  0  0  0  0
 17 19  2  0  0  0  0
 18 19  1  0  0  0  0
 19 24  1  0  0  0  0
 20 16  1  0  0  0  0
 22 23  1  0  0  0  0
 23 21  2  0  0  0  0
 23 20  1  0  0  0  0
 24 27  1  0  0  0  0
 25 27  2  0  0  0  0
 27 28  1  0  0  0  0
 27 26  2  0  0  0  0
 29 28  1  0  0  0  0
 29 31  1  0  0  0  0
 31 30  1  0  0  0  0
 32 33  1  0  0  0  0
 33 34  1  0  0  0  0
 33 41  1  1  0  0  0
 34 40  1  0  0  0  0
 35 37  1  0  0  0  0
 36 39  1  0  0  0  0
 36 40  1  0  0  0  0
 38 37  1  0  0  0  0
 39 38  1  0  0  0  0
 40 35  1  0  0  0  0
 42 46  1  0  0  0  0
 44 41  1  1  0  0  0
 44 43  1  0  0  0  0
 45 42  1  0  0  0  0
 45 47  1  0  0  0  0
 46 43  1  0  0  0  0
 47 44  1  0  0  0  0
M  END
>  <MODEL>
3

>  <REMARK>
 VINA RESULT:      -4.6      1.119      3.255
  Name = 
  16 active torsions:
  status: ('A' for Active; 'I' for Inactive)
    1  A    between atoms: N_1  and  C_31
    2  A    between atoms: N_1  and  S_37
    3  A    between atoms: C_4  and  O_43
    4  A    between atoms: C_4  and  C_46
    5  A    between atoms: C_7  and  N_20
    6  A    between atoms: N_9  and  C_27
    7  A    between atoms: N_9  and  S_37
    8  A    between atoms: C_10  and  N_39
    9  A    between atoms: C_18  and  C_22
   10  A    between atoms: C_22  and  C_26
   11  A    between atoms: C_24  and  C_32
   12  A    between atoms: C_26  and  N_29
   13  A    between atoms: C_26  and  N_39
   14  A    between atoms: C_27  and  C_36
   15  A    between atoms: N_29  and  C_44
   16  A    between atoms: O_43  and  C_47
                            x       y       z     vdW  Elec       q    Type
                         _______ _______ _______ _____ _____    ______ ____

>  <TORSDO>
F 16

$$$$
=
 OpenBabel11072414493D

 47 51  0  0  1  0  0  0  0  0999 V2000
  161.5010  206.3830  152.6640 C   0  0  2  0  0  0  0  0  0  0  0  0
  160.8630  209.9560  152.7950 C   0  0  0  0  0  3  0  0  0  0  0  0
  161.5210  206.8670  154.0660 C   0  0  2  0  0  3  0  0  0  0  0  0
  160.3580  209.0640  154.9830 N   0  0  0  0  0  0  0  0  0  0  0  0
  161.0820  207.3940  151.6860 N   0  0  0  0  0  2  0  0  0  0  0  0
  160.5570  206.6260  155.2210 C   0  0  0  0  0  2  0  0  0  0  0  0
  160.5480  207.4730  153.0520 C   0  0  1  0  0  0  0  0  0  0  0  0
  160.6620  208.8920  153.5780 C   0  0  0  0  0  0  0  0  0  0  0  0
  160.2800  208.0170  155.7730 C   0  0  0  0  0  3  0  0  0  0  0  0
  160.7490  205.1440  152.4920 N   0  0  0  0  0  2  0  0  0  0  0  0
  161.0690  204.2210  151.4450 C   0  0  0  0  0  0  0  0  0  0  0  0
  162.1470  204.3490  150.8080 O   0  0  0  0  0  0  0  0  0  0  0  0
  158.9990  201.4200  149.8480 C   0  0  0  0  0  1  0  0  0  0  0  0
  160.1120  203.1980  150.9930 C   0  0  0  0  0  3  0  0  0  0  0  0
  160.1280  202.4050  149.9180 C   0  0  0  0  0  0  0  0  0  0  0  0
  161.0710  202.5200  148.7650 C   0  0  0  0  0  0  0  0  0  0  0  0
  161.2920  203.7120  148.2530 C   0  0  0  0  0  0  0  0  0  0  0  0
  162.2640  205.1020  146.6940 F   0  0  0  0  0  0  0  0  0  0  0  0
  161.5110  204.9210  147.8080 C   0  0  0  0  0  0  0  0  0  0  0  0
  161.7340  201.3760  148.2730 O   0  0  0  0  0  0  0  0  0  0  0  0
  161.7240  199.4390  146.9830 O   0  0  0  0  0  0  0  0  0  0  0  0
  160.6220  201.3090  146.0420 C   0  0  0  0  0  1  0  0  0  0  0  0
  161.3980  200.6440  147.1220 C   0  0  0  0  0  0  0  0  0  0  0  0
  161.1550  206.0380  148.6270 N   0  0  0  0  0  2  0  0  0  0  0  0
  163.0110  207.2660  150.0530 O   0  0  0  0  0  0  0  0  0  0  0  0
  163.0880  207.4970  147.6060 O   0  0  0  0  0  0  0  0  0  0  0  0
  162.1820  207.4180  148.8080 S   0  0  0  0  0  0  0  0  0  0  0  0
  161.2170  208.8560  148.9090 N   0  0  0  0  0  2  0  0  0  0  0  0
  162.1250  209.9880  149.0340 C   0  0  0  0  0  2  0  0  0  0  0  0
  162.4360  212.3840  148.4020 C   0  0  0  0  0  1  0  0  0  0  0  0
  161.7100  211.0980  148.0780 C   0  0  0  0  0  2  0  0  0  0  0  0
  160.9380  211.2700  153.3470 N   0  0  0  0  0  2  0  0  0  0  0  0
  159.7760  212.1480  153.4470 C   0  0  2  0  0  3  0  0  0  0  0  0
  159.9090  213.2990  152.5480 N   0  0  0  0  0  2  0  0  0  0  0  0
  159.5160  213.4550  150.1210 C   0  0  0  0  0  2  0  0  0  0  0  0
  157.7590  214.1580  151.7880 C   0  0  0  0  0  2  0  0  0  0  0  0
  158.4720  213.7310  149.0230 C   0  0  0  0  0  2  0  0  0  0  0  0
  157.0550  213.3430  149.4530 C   0  0  0  0  0  2  0  0  0  0  0  0
  156.6320  214.0550  150.7420 C   0  0  0  0  0  2  0  0  0  0  0  0
  158.8990  213.1790  151.5040 C   0  0  0  0  0  3  0  0  0  0  0  0
  159.5460  212.5660  154.9110 C   0  0  0  0  0  2  0  0  0  0  0  0
  155.8580  212.0750  157.0360 C   0  0  0  0  0  2  0  0  0  0  0  0
  157.3570  211.2970  155.1780 C   0  0  0  0  0  2  0  0  0  0  0  0
  158.0760  212.6420  155.3560 C   0  0  1  0  0  3  0  0  0  0  0  0
  156.6520  213.3750  156.9730 C   0  0  0  0  0  2  0  0  0  0  0  0
  155.9100  211.4030  155.6680 C   0  0  0  0  0  2  0  0  0  0  0  0
  158.0040  213.0880  156.6960 O   0  0  0  0  0  0  0  0  0  0  0  0
  1 10  1  6  0  0  0
  1  7  1  0  0  0  0
  1  3  1  0  0  0  0
  2 32  1  0  0  0  0
  2  8  2  0  0  0  0
  3  6  1  1  0  0  0
  4  9  2  0  0  0  0
  5  1  1  0  0  0  0
  6  9  1  0  0  0  0
  7  5  1  6  0  0  0
  7  8  1  0  0  0  0
  7  3  1  0  0  0  0
  8  4  1  0  0  0  0
 11 10  1  0  0  0  0
 12 11  2  0  0  0  0
 13 15  1  0  0  0  0
 14 11  1  0  0  0  0
 15 14  2  0  0  0  0
 16 15  1  0  0  0  0
 17 16  2  0  0  0  0
 18 19  1  0  0  0  0
 19 17  2  0  0  0  0
 19 24  1  0  0  0  0
 20 16  1  0  0  0  0
 21 23  2  0  0  0  0
 22 23  1  0  0  0  0
 23 20  1  0  0  0  0
 24 27  1  0  0  0  0
 26 27  2  0  0  0  0
 27 28  1  0  0  0  0
 27 25  2  0  0  0  0
 28 29  1  0  0  0  0
 31 30  1  0  0  0  0
 31 29  1  0  0  0  0
 32 33  1  0  0  0  0
 33 41  1  1  0  0  0
 34 33  1  0  0  0  0
 35 40  1  0  0  0  0
 37 38  1  0  0  0  0
 37 35  1  0  0  0  0
 38 39  1  0  0  0  0
 39 36  1  0  0  0  0
 40 36  1  0  0  0  0
 40 34  1  0  0  0  0
 43 44  1  0  0  0  0
 43 46  1  0  0  0  0
 44 41  1  1  0  0  0
 44 47  1  0  0  0  0
 45 42  1  0  0  0  0
 46 42  1  0  0  0  0
 47 45  1  0  0  0  0
M  END
>  <MODEL>
4

>  <REMARK>
 VINA RESULT:      -4.0      2.639      5.355
  Name = 
  16 active torsions:
  status: ('A' for Active; 'I' for Inactive)
    1  A    between atoms: N_1  and  C_31
    2  A    between atoms: N_1  and  S_37
    3  A    between atoms: C_4  and  O_43
    4  A    between atoms: C_4  and  C_46
    5  A    between atoms: C_7  and  N_20
    6  A    between atoms: N_9  and  C_27
    7  A    between atoms: N_9  and  S_37
    8  A    between atoms: C_10  and  N_39
    9  A    between atoms: C_18  and  C_22
   10  A    between atoms: C_22  and  C_26
   11  A    between atoms: C_24  and  C_32
   12  A    between atoms: C_26  and  N_29
   13  A    between atoms: C_26  and  N_39
   14  A    between atoms: C_27  and  C_36
   15  A    between atoms: N_29  and  C_44
   16  A    between atoms: O_43  and  C_47
                            x       y       z     vdW  Elec       q    Type
                         _______ _______ _______ _____ _____    ______ ____

>  <TORSDO>
F 16

$$$$
=
 OpenBabel11072414493D

 47 51  0  0  1  0  0  0  0  0999 V2000
  161.1440  208.1140  148.7980 C   0  0  2  0  0  0  0  0  0  0  0  0
  161.3760  209.4730  152.1570 C   0  0  0  0  0  3  0  0  0  0  0  0
  161.2570  209.5930  148.7570 C   0  0  2  0  0  3  0  0  0  0  0  0
  162.2710  211.1400  150.6540 N   0  0  0  0  0  0  0  0  0  0  0  0
  161.3070  207.5360  150.1360 N   0  0  0  0  0  2  0  0  0  0  0  0
  162.3890  210.4960  148.2860 C   0  0  0  0  0  2  0  0  0  0  0  0
  162.0080  208.7870  149.8210 C   0  0  1  0  0  0  0  0  0  0  0  0
  161.8020  209.7990  150.9340 C   0  0  0  0  0  0  0  0  0  0  0  0
  162.5760  211.4880  149.4240 C   0  0  0  0  0  3  0  0  0  0  0  0
  162.0040  207.4430  147.8290 N   0  0  0  0  0  2  0  0  0  0  0  0
  161.8290  206.0560  147.5180 C   0  0  0  0  0  0  0  0  0  0  0  0
  160.7890  205.4570  147.8960 O   0  0  0  0  0  0  0  0  0  0  0  0
  164.1590  203.7840  145.4940 C   0  0  0  0  0  1  0  0  0  0  0  0
  162.8940  205.2640  146.8810 C   0  0  0  0  0  3  0  0  0  0  0  0
  162.8280  204.2980  145.9590 C   0  0  0  0  0  0  0  0  0  0  0  0
  161.5790  203.6320  145.4840 C   0  0  0  0  0  0  0  0  0  0  0  0
  161.2140  202.5050  146.0560 C   0  0  0  0  0  0  0  0  0  0  0  0
  159.8150  200.6840  146.2420 F   0  0  0  0  0  0  0  0  0  0  0  0
  160.8720  201.4120  146.6840 C   0  0  0  0  0  0  0  0  0  0  0  0
  160.7970  204.2280  144.4730 O   0  0  0  0  0  0  0  0  0  0  0  0
  160.1880  206.4580  144.7440 O   0  0  0  0  0  0  0  0  0  0  0  0
  161.5850  205.9900  142.8940 C   0  0  0  0  0  1  0  0  0  0  0  0
  160.8070  205.5810  144.0930 C   0  0  0  0  0  0  0  0  0  0  0  0
  161.4620  201.1260  147.9550 N   0  0  0  0  0  2  0  0  0  0  0  0
  159.2450  201.7980  149.2280 O   0  0  0  0  0  0  0  0  0  0  0  0
  160.9260  200.4800  150.4450 O   0  0  0  0  0  0  0  0  0  0  0  0
  160.7170  201.5890  149.4460 S   0  0  0  0  0  0  0  0  0  0  0  0
  161.4450  203.0510  150.0350 N   0  0  0  0  0  2  0  0  0  0  0  0
  160.4530  203.7390  150.8500 C   0  0  0  0  0  2  0  0  0  0  0  0
  161.2470  205.0640  152.8120 C   0  0  0  0  0  1  0  0  0  0  0  0
  160.8600  203.6890  152.3160 C   0  0  0  0  0  2  0  0  0  0  0  0
  161.2240  210.4670  153.1710 N   0  0  0  0  0  2  0  0  0  0  0  0
  159.9690  211.1780  153.3940 C   0  0  2  0  0  3  0  0  0  0  0  0
  160.1920  212.6260  153.4680 N   0  0  0  0  0  2  0  0  0  0  0  0
  158.2710  212.3000  151.9590 C   0  0  0  0  0  2  0  0  0  0  0  0
  160.2420  213.7260  151.2950 C   0  0  0  0  0  2  0  0  0  0  0  0
  157.6070  212.7440  150.6430 C   0  0  0  0  0  2  0  0  0  0  0  0
  157.9230  214.1990  150.2900 C   0  0  0  0  0  2  0  0  0  0  0  0
  159.4310  214.4530  150.2050 C   0  0  0  0  0  2  0  0  0  0  0  0
  159.3600  213.2670  152.4580 C   0  0  0  0  0  3  0  0  0  0  0  0
  159.2540  210.6260  154.6400 C   0  0  0  0  0  2  0  0  0  0  0  0
  156.3360  212.4160  157.2160 C   0  0  0  0  0  2  0  0  0  0  0  0
  156.8320  210.7440  155.4100 C   0  0  0  0  0  2  0  0  0  0  0  0
  158.1440  211.5190  155.2190 C   0  0  1  0  0  3  0  0  0  0  0  0
  157.6390  213.0840  156.7930 C   0  0  0  0  0  2  0  0  0  0  0  0
  155.7660  211.6560  156.0230 C   0  0  0  0  0  2  0  0  0  0  0  0
  158.5800  212.0960  156.4340 O   0  0  0  0  0  0  0  0  0  0  0  0
  1 10  1  6  0  0  0
  1  7  1  0  0  0  0
  1  5  1  0  0  0  0
  2 32  1  0  0  0  0
  3  6  1  6  0  0  0
  3  1  1  0  0  0  0
  3  7  1  0  0  0  0
  4  8  1  0  0  0  0
  6  9  1  0  0  0  0
  7  5  1  1  0  0  0
  7  8  1  0  0  0  0
  8  2  2  0  0  0  0
  9  4  2  0  0  0  0
 11 10  1  0  0  0  0
 11 12  2  0  0  0  0
 13 15  1  0  0  0  0
 14 11  1  0  0  0  0
 15 14  2  0  0  0  0
 16 15  1  0  0  0  0
 16 17  2  0  0  0  0
 17 19  2  0  0  0  0
 18 19  1  0  0  0  0
 19 24  1  0  0  0  0
 20 16  1  0  0  0  0
 22 23  1  0  0  0  0
 23 20  1  0  0  0  0
 23 21  2  0  0  0  0
 24 27  1  0  0  0  0
 25 27  2  0  0  0  0
 27 28  1  0  0  0  0
 27 26  2  0  0  0  0
 28 29  1  0  0  0  0
 29 31  1  0  0  0  0
 31 30  1  0  0  0  0
 32 33  1  0  0  0  0
 33 34  1  0  0  0  0
 33 41  1  1  0  0  0
 35 40  1  0  0  0  0
 36 40  1  0  0  0  0
 37 35  1  0  0  0  0
 38 37  1  0  0  0  0
 39 38  1  0  0  0  0
 39 36  1  0  0  0  0
 40 34  1  0  0  0  0
 43 46  1  0  0  0  0
 44 41  1  1  0  0  0
 44 43  1  0  0  0  0
 44 47  1  0  0  0  0
 45 42  1  0  0  0  0
 46 42  1  0  0  0  0
 47 45  1  0  0  0  0
M  END
>  <MODEL>
5

>  <REMARK>
 VINA RESULT:      -3.4      1.549      2.537
  Name = 
  16 active torsions:
  status: ('A' for Active; 'I' for Inactive)
    1  A    between atoms: N_1  and  C_31
    2  A    between atoms: N_1  and  S_37
    3  A    between atoms: C_4  and  O_43
    4  A    between atoms: C_4  and  C_46
    5  A    between atoms: C_7  and  N_20
    6  A    between atoms: N_9  and  C_27
    7  A    between atoms: N_9  and  S_37
    8  A    between atoms: C_10  and  N_39
    9  A    between atoms: C_18  and  C_22
   10  A    between atoms: C_22  and  C_26
   11  A    between atoms: C_24  and  C_32
   12  A    between atoms: C_26  and  N_29
   13  A    between atoms: C_26  and  N_39
   14  A    between atoms: C_27  and  C_36
   15  A    between atoms: N_29  and  C_44
   16  A    between atoms: O_43  and  C_47
                            x       y       z     vdW  Elec       q    Type
                         _______ _______ _______ _____ _____    ______ ____

>  <TORSDO>
F 16

$$$$
=
 OpenBabel11072414493D

 47 51  0  0  1  0  0  0  0  0999 V2000
  161.2750  207.9710  150.1980 C   0  0  2  0  0  0  0  0  0  0  0  0
  161.4760  210.2810  152.9930 C   0  0  0  0  0  3  0  0  0  0  0  0
  161.0750  209.3660  149.7380 C   0  0  2  0  0  3  0  0  0  0  0  0
  161.8880  211.5590  150.9840 N   0  0  0  0  0  0  0  0  0  0  0  0
  161.6570  207.8520  151.6100 N   0  0  0  0  0  2  0  0  0  0  0  0
  161.9560  210.2750  148.8900 C   0  0  0  0  0  2  0  0  0  0  0  0
  162.0560  209.0580  150.8730 C   0  0  1  0  0  0  0  0  0  0  0  0
  161.7310  210.3000  151.6820 C   0  0  0  0  0  0  0  0  0  0  0  0
  162.0180  211.5760  149.6770 C   0  0  0  0  0  3  0  0  0  0  0  0
  162.1790  207.2060  149.3450 N   0  0  0  0  0  2  0  0  0  0  0  0
  161.7990  206.8200  148.0190 C   0  0  0  0  0  0  0  0  0  0  0  0
  160.7810  207.3320  147.4870 O   0  0  0  0  0  0  0  0  0  0  0  0
  163.2360  203.6210  146.4730 C   0  0  0  0  0  1  0  0  0  0  0  0
  162.4880  205.7350  147.3000 C   0  0  0  0  0  3  0  0  0  0  0  0
  162.4460  204.4110  147.4750 C   0  0  0  0  0  0  0  0  0  0  0  0
  161.8100  203.7040  148.6270 C   0  0  0  0  0  0  0  0  0  0  0  0
  161.1480  202.5930  148.3910 C   0  0  0  0  0  0  0  0  0  0  0  0
  159.8390  200.8270  149.0790 F   0  0  0  0  0  0  0  0  0  0  0  0
  160.5380  201.4710  148.1120 C   0  0  0  0  0  0  0  0  0  0  0  0
  161.9580  204.2070  149.9370 O   0  0  0  0  0  0  0  0  0  0  0  0
  161.6080  202.7230  151.6950 O   0  0  0  0  0  0  0  0  0  0  0  0
  160.1350  204.5720  151.5990 C   0  0  0  0  0  1  0  0  0  0  0  0
  161.2750  203.7690  151.0840 C   0  0  0  0  0  0  0  0  0  0  0  0
  160.8110  200.8240  146.8660 N   0  0  0  0  0  2  0  0  0  0  0  0
  160.2350  200.2320  144.3550 O   0  0  0  0  0  0  0  0  0  0  0  0
  158.5940  201.5330  145.6450 O   0  0  0  0  0  0  0  0  0  0  0  0
  160.0620  201.3130  145.3850 S   0  0  0  0  0  0  0  0  0  0  0  0
  160.7840  202.7890  144.8240 N   0  0  0  0  0  2  0  0  0  0  0  0
  159.7050  203.7140  144.5090 C   0  0  0  0  0  2  0  0  0  0  0  0
  161.2480  205.6000  143.9610 C   0  0  0  0  0  1  0  0  0  0  0  0
  160.1210  205.1370  144.8560 C   0  0  0  0  0  2  0  0  0  0  0  0
  161.1990  211.4860  153.7050 N   0  0  0  0  0  2  0  0  0  0  0  0
  160.0970  211.6030  154.6550 C   0  0  2  0  0  3  0  0  0  0  0  0
  159.4260  212.9000  154.5230 N   0  0  0  0  0  2  0  0  0  0  0  0
  157.3500  211.5880  154.7290 C   0  0  0  0  0  2  0  0  0  0  0  0
  157.3480  214.1000  154.9450 C   0  0  0  0  0  2  0  0  0  0  0  0
  155.8550  211.6330  155.0950 C   0  0  0  0  0  2  0  0  0  0  0  0
  155.5410  212.7120  156.1360 C   0  0  0  0  0  2  0  0  0  0  0  0
  155.9910  214.1010  155.6740 C   0  0  0  0  0  2  0  0  0  0  0  0
  158.1410  212.8190  155.2060 C   0  0  0  0  0  3  0  0  0  0  0  0
  160.5950  211.3400  156.0880 C   0  0  0  0  0  2  0  0  0  0  0  0
  161.1150  207.0880  156.1830 C   0  0  0  0  0  2  0  0  0  0  0  0
  159.5800  209.0300  155.7620 C   0  0  0  0  0  2  0  0  0  0  0  0
  160.6230  209.8640  156.5200 C   0  0  1  0  0  3  0  0  0  0  0  0
  161.9590  208.0790  156.9770 C   0  0  0  0  0  2  0  0  0  0  0  0
  159.6660  207.5630  156.1910 C   0  0  0  0  0  2  0  0  0  0  0  0
  161.9240  209.3400  156.3460 O   0  0  0  0  0  0  0  0  0  0  0  0
  1 10  1  6  0  0  0
  1  7  1  0  0  0  0
  1  5  1  0  0  0  0
  2 32  1  0  0  0  0
  3  6  1  6  0  0  0
  3  1  1  0  0  0  0
  3  7  1  0  0  0  0
  4  8  1  0  0  0  0
  6  9  1  0  0  0  0
  7  5  1  1  0  0  0
  7  8  1  0  0  0  0
  8  2  2  0  0  0  0
  9  4  2  0  0  0  0
 11 10  1  0  0  0  0
 12 11  2  0  0  0  0
 13 15  1  0  0  0  0
 14 15  2  0  0  0  0
 14 11  1  0  0  0  0
 15 16  1  0  0  0  0
 16 20  1  0  0  0  0
 17 16  2  0  0  0  0
 19 17  2  0  0  0  0
 19 18  1  0  0  0  0
 20 23  1  0  0  0  0
 23 22  1  0  0  0  0
 23 21  2  0  0  0  0
 24 19  1  0  0  0  0
 25 27  2  0  0  0  0
 27 26  2  0  0  0  0
 27 24  1  0  0  0  0
 28 27  1  0  0  0  0
 29 28  1  0  0  0  0
 29 31  1  0  0  0  0
 30 31  1  0  0  0  0
 32 33  1  0  0  0  0
 33 41  1  1  0  0  0
 34 33  1  0  0  0  0
 34 40  1  0  0  0  0
 35 37  1  0  0  0  0
 35 40  1  0  0  0  0
 36 40  1  0  0  0  0
 36 39  1  0  0  0  0
 37 38  1  0  0  0  0
 39 38  1  0  0  0  0
 42 46  1  0  0  0  0
 42 45  1  0  0  0  0
 43 46  1  0  0  0  0
 43 44  1  0  0  0  0
 44 41  1  6  0  0  0
 47 44  1  0  0  0  0
 47 45  1  0  0  0  0
M  END
>  <MODEL>
6

>  <REMARK>
 VINA RESULT:      -3.1      1.646      3.531
  Name = 
  16 active torsions:
  status: ('A' for Active; 'I' for Inactive)
    1  A    between atoms: N_1  and  C_31
    2  A    between atoms: N_1  and  S_37
    3  A    between atoms: C_4  and  O_43
    4  A    between atoms: C_4  and  C_46
    5  A    between atoms: C_7  and  N_20
    6  A    between atoms: N_9  and  C_27
    7  A    between atoms: N_9  and  S_37
    8  A    between atoms: C_10  and  N_39
    9  A    between atoms: C_18  and  C_22
   10  A    between atoms: C_22  and  C_26
   11  A    between atoms: C_24  and  C_32
   12  A    between atoms: C_26  and  N_29
   13  A    between atoms: C_26  and  N_39
   14  A    between atoms: C_27  and  C_36
   15  A    between atoms: N_29  and  C_44
   16  A    between atoms: O_43  and  C_47
                            x       y       z     vdW  Elec       q    Type
                         _______ _______ _______ _____ _____    ______ ____

>  <TORSDO>
F 16

$$$$
=
 OpenBabel11072414493D

 47 51  0  0  1  0  0  0  0  0999 V2000
  161.4040  207.0540  152.7200 C   0  0  2  0  0  0  0  0  0  0  0  0
  160.4330  210.4970  153.3460 C   0  0  0  0  0  3  0  0  0  0  0  0
  161.5860  207.3970  154.1510 C   0  0  2  0  0  3  0  0  0  0  0  0
  160.3580  209.3410  155.4670 N   0  0  0  0  0  0  0  0  0  0  0  0
  160.7410  208.1000  151.9310 N   0  0  0  0  0  2  0  0  0  0  0  0
  160.8370  206.9320  155.3930 C   0  0  0  0  0  2  0  0  0  0  0  0
  160.4150  207.9820  153.3580 C   0  0  1  0  0  0  0  0  0  0  0  0
  160.4620  209.3450  154.0220 C   0  0  0  0  0  0  0  0  0  0  0  0
  160.5060  208.2200  156.1340 C   0  0  0  0  0  3  0  0  0  0  0  0
  160.7640  205.7590  152.5130 N   0  0  0  0  0  2  0  0  0  0  0  0
  161.1370  204.9130  151.4190 C   0  0  0  0  0  0  0  0  0  0  0  0
  162.1790  205.1670  150.7600 O   0  0  0  0  0  0  0  0  0  0  0  0
  159.2990  201.9830  149.7700 C   0  0  0  0  0  1  0  0  0  0  0  0
  160.2660  203.8250  150.9480 C   0  0  0  0  0  3  0  0  0  0  0  0
  160.3460  203.0540  149.8590 C   0  0  0  0  0  0  0  0  0  0  0  0
  161.2770  203.2650  148.7100 C   0  0  0  0  0  0  0  0  0  0  0  0
  161.4290  204.4850  148.2430 C   0  0  0  0  0  0  0  0  0  0  0  0
  162.3160  205.9840  146.7360 F   0  0  0  0  0  0  0  0  0  0  0  0
  161.5780  205.7200  147.8430 C   0  0  0  0  0  0  0  0  0  0  0  0
  162.0000  202.1780  148.1740 O   0  0  0  0  0  0  0  0  0  0  0  0
  161.5750  199.9420  147.6910 O   0  0  0  0  0  0  0  0  0  0  0  0
  160.8160  201.5050  146.0850 C   0  0  0  0  0  1  0  0  0  0  0  0
  161.4900  201.1510  147.3630 C   0  0  0  0  0  0  0  0  0  0  0  0
  161.1640  206.7840  148.7040 N   0  0  0  0  0  2  0  0  0  0  0  0
  162.6950  208.1350  150.3840 O   0  0  0  0  0  0  0  0  0  0  0  0
  163.2800  208.1740  147.9950 O   0  0  0  0  0  0  0  0  0  0  0  0
  162.1440  208.1820  148.9860 S   0  0  0  0  0  0  0  0  0  0  0  0
  161.1910  209.6170  148.7710 N   0  0  0  0  0  2  0  0  0  0  0  0
  162.0910  210.7590  148.8480 C   0  0  0  0  0  2  0  0  0  0  0  0
  162.5950  213.0150  147.9030 C   0  0  0  0  0  1  0  0  0  0  0  0
  161.6320  211.8490  147.8890 C   0  0  0  0  0  2  0  0  0  0  0  0
  160.4560  211.7500  154.0280 N   0  0  0  0  0  2  0  0  0  0  0  0
  159.2410  212.4890  154.3580 C   0  0  2  0  0  3  0  0  0  0  0  0
  158.0500  211.7820  153.8770 N   0  0  0  0  0  2  0  0  0  0  0  0
  156.1080  210.4720  154.6410 C   0  0  0  0  0  2  0  0  0  0  0  0
  156.5800  212.7790  155.5460 C   0  0  0  0  0  2  0  0  0  0  0  0
  154.9550  210.3950  155.6590 C   0  0  0  0  0  2  0  0  0  0  0  0
  155.3000  211.0770  156.9860 C   0  0  0  0  0  2  0  0  0  0  0  0
  155.7030  212.5410  156.7900 C   0  0  0  0  0  2  0  0  0  0  0  0
  157.2040  211.4820  155.0250 C   0  0  0  0  0  3  0  0  0  0  0  0
  159.3280  213.9300  153.8230 C   0  0  0  0  0  2  0  0  0  0  0  0
  157.6180  213.3410  149.9390 C   0  0  0  0  0  2  0  0  0  0  0  0
  159.6930  213.4860  151.3450 C   0  0  0  0  0  2  0  0  0  0  0  0
  158.7900  214.1430  152.3980 C   0  0  1  0  0  3  0  0  0  0  0  0
  156.9370  214.0920  151.0780 C   0  0  0  0  0  2  0  0  0  0  0  0
  159.1030  213.6850  149.9460 C   0  0  0  0  0  2  0  0  0  0  0  0
  157.4640  213.6570  152.3110 O   0  0  0  0  0  0  0  0  0  0  0  0
  1 10  1  6  0  0  0
  1  7  1  0  0  0  0
  1  3  1  0  0  0  0
  2  8  2  0  0  0  0
  2 32  1  0  0  0  0
  3  6  1  1  0  0  0
  4  9  2  0  0  0  0
  5  1  1  0  0  0  0
  6  9  1  0  0  0  0
  7  5  1  6  0  0  0
  7  8  1  0  0  0  0
  7  3  1  0  0  0  0
  8  4  1  0  0  0  0
 11 10  1  0  0  0  0
 12 11  2  0  0  0  0
 13 15  1  0  0  0  0
 14 11  1  0  0  0  0
 15 14  2  0  0  0  0
 16 15  1  0  0  0  0
 17 16  2  0  0  0  0
 18 19  1  0  0  0  0
 19 17  2  0  0  0  0
 19 24  1  0  0  0  0
 20 16  1  0  0  0  0
 22 23  1  0  0  0  0
 23 21  2  0  0  0  0
 23 20  1  0  0  0  0
 24 27  1  0  0  0  0
 26 27  2  0  0  0  0
 27 25  2  0  0  0  0
 28 29  1  0  0  0  0
 28 27  1  0  0  0  0
 31 30  1  0  0  0  0
 31 29  1  0  0  0  0
 32 33  1  0  0  0  0
 33 41  1  6  0  0  0
 34 33  1  0  0  0  0
 34 40  1  0  0  0  0
 35 40  1  0  0  0  0
 35 37  1  0  0  0  0
 36 39  1  0  0  0  0
 37 38  1  0  0  0  0
 39 38  1  0  0  0  0
 40 36  1  0  0  0  0
 42 46  1  0  0  0  0
 42 45  1  0  0  0  0
 43 44  1  0  0  0  0
 44 41  1  1  0  0  0
 45 47  1  0  0  0  0
 46 43  1  0  0  0  0
 47 44  1  0  0  0  0
M  END
>  <MODEL>
7

>  <REMARK>
 VINA RESULT:      -2.9      2.832      5.695
  Name = 
  16 active torsions:
  status: ('A' for Active; 'I' for Inactive)
    1  A    between atoms: N_1  and  C_31
    2  A    between atoms: N_1  and  S_37
    3  A    between atoms: C_4  and  O_43
    4  A    between atoms: C_4  and  C_46
    5  A    between atoms: C_7  and  N_20
    6  A    between atoms: N_9  and  C_27
    7  A    between atoms: N_9  and  S_37
    8  A    between atoms: C_10  and  N_39
    9  A    between atoms: C_18  and  C_22
   10  A    between atoms: C_22  and  C_26
   11  A    between atoms: C_24  and  C_32
   12  A    between atoms: C_26  and  N_29
   13  A    between atoms: C_26  and  N_39
   14  A    between atoms: C_27  and  C_36
   15  A    between atoms: N_29  and  C_44
   16  A    between atoms: O_43  and  C_47
                            x       y       z     vdW  Elec       q    Type
                         _______ _______ _______ _____ _____    ______ ____

>  <TORSDO>
F 16

$$$$
=
 OpenBabel11072414493D

 47 51  0  0  1  0  0  0  0  0999 V2000
  161.2390  208.6100  154.5040 C   0  0  2  0  0  0  0  0  0  0  0  0
  160.9400  207.6040  151.0280 C   0  0  0  0  0  3  0  0  0  0  0  0
  162.2790  209.2690  153.6780 C   0  0  2  0  0  3  0  0  0  0  0  0
  162.1780  209.6790  151.0630 N   0  0  0  0  0  0  0  0  0  0  0  0
  160.2510  207.8480  153.7310 N   0  0  0  0  0  2  0  0  0  0  0  0
  162.4570  210.7250  153.2690 C   0  0  0  0  0  2  0  0  0  0  0  0
  160.8810  209.0180  153.1070 C   0  0  1  0  0  0  0  0  0  0  0  0
  161.3600  208.6740  151.7090 C   0  0  0  0  0  0  0  0  0  0  0  0
  162.6860  210.6660  151.7650 C   0  0  0  0  0  3  0  0  0  0  0  0
  160.5830  209.5190  155.4390 N   0  0  0  0  0  2  0  0  0  0  0  0
  159.8190  210.6380  154.9730 C   0  0  0  0  0  0  0  0  0  0  0  0
  159.5080  210.7190  153.7570 O   0  0  0  0  0  0  0  0  0  0  0  0
  158.3970  213.4870  157.1050 C   0  0  0  0  0  1  0  0  0  0  0  0
  159.4970  211.7750  155.8500 C   0  0  0  0  0  3  0  0  0  0  0  0
  158.3420  212.4160  156.0560 C   0  0  0  0  0  0  0  0  0  0  0  0
  157.0950  212.2420  155.2530 C   0  0  0  0  0  0  0  0  0  0  0  0
  156.9250  212.9930  154.1870 C   0  0  0  0  0  0  0  0  0  0  0  0
  155.6750  213.7190  152.3930 F   0  0  0  0  0  0  0  0  0  0  0  0
  156.8240  213.7330  153.1140 C   0  0  0  0  0  0  0  0  0  0  0  0
  156.1470  211.2620  155.6170 O   0  0  0  0  0  0  0  0  0  0  0  0
  154.5330  210.3710  157.0370 O   0  0  0  0  0  0  0  0  0  0  0  0
  154.9320  212.6920  157.2610 C   0  0  0  0  0  1  0  0  0  0  0  0
  155.1820  211.3670  156.6340 C   0  0  0  0  0  0  0  0  0  0  0  0
  157.9970  214.3590  152.5890 N   0  0  0  0  0  2  0  0  0  0  0  0
  160.1510  214.4270  151.0580 O   0  0  0  0  0  0  0  0  0  0  0  0
  158.9570  212.2890  151.2850 O   0  0  0  0  0  0  0  0  0  0  0  0
  158.7970  213.7830  151.1670 S   0  0  0  0  0  0  0  0  0  0  0  0
  157.8450  214.1610  149.7660 N   0  0  0  0  0  2  0  0  0  0  0  0
  158.5210  213.5930  148.6080 C   0  0  0  0  0  2  0  0  0  0  0  0
  160.2000  214.1950  146.8590 C   0  0  0  0  0  1  0  0  0  0  0  0
  159.7840  214.3870  148.3010 C   0  0  0  0  0  2  0  0  0  0  0  0
  161.4100  207.3450  149.7050 N   0  0  0  0  0  2  0  0  0  0  0  0
  161.7220  206.0000  149.2300 C   0  0  2  0  0  3  0  0  0  0  0  0
  162.3840  206.0460  147.9230 N   0  0  0  0  0  2  0  0  0  0  0  0
  162.2880  204.0780  146.4440 C   0  0  0  0  0  2  0  0  0  0  0  0
  161.1910  206.2580  145.8090 C   0  0  0  0  0  2  0  0  0  0  0  0
  161.6650  203.4830  145.1680 C   0  0  0  0  0  2  0  0  0  0  0  0
  160.2690  204.0440  144.8830 C   0  0  0  0  0  2  0  0  0  0  0  0
  160.2760  205.5720  144.7770 C   0  0  0  0  0  2  0  0  0  0  0  0
  161.5540  205.3250  146.9660 C   0  0  0  0  0  3  0  0  0  0  0  0
  160.4540  205.1280  149.2190 C   0  0  0  0  0  2  0  0  0  0  0  0
  161.7680  201.6260  151.3090 C   0  0  0  0  0  2  0  0  0  0  0  0
  160.7190  202.5970  149.2450 C   0  0  0  0  0  2  0  0  0  0  0  0
  160.5110  203.8620  150.0910 C   0  0  1  0  0  3  0  0  0  0  0  0
  161.3780  202.9380  151.9810 C   0  0  0  0  0  2  0  0  0  0  0  0
  160.8110  201.3660  150.1500 C   0  0  0  0  0  2  0  0  0  0  0  0
  161.5270  203.9990  151.0650 O   0  0  0  0  0  0  0  0  0  0  0  0
  1 10  1  1  0  0  0
  2  8  2  0  0  0  0
  3  6  1  1  0  0  0
  3  1  1  0  0  0  0
  4  8  1  0  0  0  0
  4  9  2  0  0  0  0
  5  1  1  0  0  0  0
  7  8  1  6  0  0  0
  7  3  1  0  0  0  0
  7  5  1  0  0  0  0
  7  1  1  0  0  0  0
  9  6  1  0  0  0  0
 11 10  1  0  0  0  0
 11 14  1  0  0  0  0
 12 11  2  0  0  0  0
 14 15  2  0  0  0  0
 15 13  1  0  0  0  0
 16 20  1  0  0  0  0
 16 15  1  0  0  0  0
 17 16  2  0  0  0  0
 18 19  1  0  0  0  0
 19 17  2  0  0  0  0
 20 23  1  0  0  0  0
 23 21  2  0  0  0  0
 23 22  1  0  0  0  0
 24 19  1  0  0  0  0
 25 27  2  0  0  0  0
 27 26  2  0  0  0  0
 27 24  1  0  0  0  0
 28 27  1  0  0  0  0
 29 28  1  0  0  0  0
 30 31  1  0  0  0  0
 31 29  1  0  0  0  0
 32  2  1  0  0  0  0
 33 41  1  6  0  0  0
 33 32  1  0  0  0  0
 34 33  1  0  0  0  0
 35 40  1  0  0  0  0
 36 40  1  0  0  0  0
 37 35  1  0  0  0  0
 38 37  1  0  0  0  0
 39 38  1  0  0  0  0
 39 36  1  0  0  0  0
 40 34  1  0  0  0  0
 42 45  1  0  0  0  0
 43 44  1  0  0  0  0
 43 46  1  0  0  0  0
 44 41  1  6  0  0  0
 44 47  1  0  0  0  0
 46 42  1  0  0  0  0
 47 45  1  0  0  0  0
M  END
>  <MODEL>
8

>  <REMARK>
 VINA RESULT:      -2.7      4.018     10.750
  Name = 
  16 active torsions:
  status: ('A' for Active; 'I' for Inactive)
    1  A    between atoms: N_1  and  C_31
    2  A    between atoms: N_1  and  S_37
    3  A    between atoms: C_4  and  O_43
    4  A    between atoms: C_4  and  C_46
    5  A    between atoms: C_7  and  N_20
    6  A    between atoms: N_9  and  C_27
    7  A    between atoms: N_9  and  S_37
    8  A    between atoms: C_10  and  N_39
    9  A    between atoms: C_18  and  C_22
   10  A    between atoms: C_22  and  C_26
   11  A    between atoms: C_24  and  C_32
   12  A    between atoms: C_26  and  N_29
   13  A    between atoms: C_26  and  N_39
   14  A    between atoms: C_27  and  C_36
   15  A    between atoms: N_29  and  C_44
   16  A    between atoms: O_43  and  C_47
                            x       y       z     vdW  Elec       q    Type
                         _______ _______ _______ _____ _____    ______ ____

>  <TORSDO>
F 16

$$$$
=
 OpenBabel11072414493D

 47 51  0  0  1  0  0  0  0  0999 V2000
  160.4900  212.1240  149.6150 C   0  0  2  0  0  0  0  0  0  0  0  0
  160.3340  211.6170  153.2080 C   0  0  0  0  0  3  0  0  0  0  0  0
  159.3090  212.8130  150.1900 C   0  0  2  0  0  3  0  0  0  0  0  0
  159.0120  213.5770  152.7090 N   0  0  0  0  0  0  0  0  0  0  0  0
  161.3930  211.5430  150.6160 N   0  0  0  0  0  2  0  0  0  0  0  0
  159.0020  214.2950  150.3590 C   0  0  0  0  0  2  0  0  0  0  0  0
  160.6210  212.7390  150.9750 C   0  0  1  0  0  0  0  0  0  0  0  0
  159.9640  212.5530  152.3300 C   0  0  0  0  0  0  0  0  0  0  0  0
  158.5610  214.4230  151.8100 C   0  0  0  0  0  3  0  0  0  0  0  0
  161.2270  212.9420  148.6580 N   0  0  0  0  0  2  0  0  0  0  0  0
  161.0060  212.8160  147.2480 C   0  0  0  0  0  0  0  0  0  0  0  0
  160.0100  212.1720  146.8280 O   0  0  0  0  0  0  0  0  0  0  0  0
  163.0740  214.3730  144.4230 C   0  0  0  0  0  1  0  0  0  0  0  0
  161.9830  213.3060  146.2630 C   0  0  0  0  0  3  0  0  0  0  0  0
  161.8060  213.9700  145.1170 C   0  0  0  0  0  0  0  0  0  0  0  0
  160.4950  214.2060  144.4410 C   0  0  0  0  0  0  0  0  0  0  0  0
  160.4580  214.1970  143.1260 C   0  0  0  0  0  0  0  0  0  0  0  0
  159.3430  214.4500  141.1260 F   0  0  0  0  0  0  0  0  0  0  0  0
  160.4650  214.1360  141.8210 C   0  0  0  0  0  0  0  0  0  0  0  0
  159.3250  214.3930  145.2070 O   0  0  0  0  0  0  0  0  0  0  0  0
  157.6380  214.1600  143.6210 O   0  0  0  0  0  0  0  0  0  0  0  0
  157.0360  213.6410  145.8500 C   0  0  0  0  0  1  0  0  0  0  0  0
  158.0100  214.0840  144.8180 C   0  0  0  0  0  0  0  0  0  0  0  0
  161.5720  213.5170  141.1600 N   0  0  0  0  0  2  0  0  0  0  0  0
  163.1040  211.3670  141.2920 O   0  0  0  0  0  0  0  0  0  0  0  0
  160.7410  211.1480  141.9380 O   0  0  0  0  0  0  0  0  0  0  0  0
  161.7000  211.8020  140.9760 S   0  0  0  0  0  0  0  0  0  0  0  0
  161.2920  211.3560  139.3490 N   0  0  0  0  0  2  0  0  0  0  0  0
  162.0620  210.1670  139.0120 C   0  0  0  0  0  2  0  0  0  0  0  0
  161.6320  207.9120  138.0280 C   0  0  0  0  0  1  0  0  0  0  0  0
  161.1610  208.9400  139.0330 C   0  0  0  0  0  2  0  0  0  0  0  0
  159.6920  211.5060  154.4780 N   0  0  0  0  0  2  0  0  0  0  0  0
  160.3170  211.9610  155.7170 C   0  0  2  0  0  3  0  0  0  0  0  0
  160.7930  210.8260  156.5120 N   0  0  0  0  0  2  0  0  0  0  0  0
  160.1050  208.4730  156.7600 C   0  0  0  0  0  2  0  0  0  0  0  0
  161.7020  209.1950  154.9470 C   0  0  0  0  0  2  0  0  0  0  0  0
  160.1460  207.0690  156.1290 C   0  0  0  0  0  2  0  0  0  0  0  0
  160.2270  207.1180  154.6000 C   0  0  0  0  0  2  0  0  0  0  0  0
  161.4350  207.9250  154.1160 C   0  0  0  0  0  2  0  0  0  0  0  0
  160.4880  209.6000  155.7850 C   0  0  0  0  0  3  0  0  0  0  0  0
  159.3510  212.8680  156.5010 C   0  0  0  0  0  2  0  0  0  0  0  0
  155.1290  213.5070  156.1490 C   0  0  0  0  0  2  0  0  0  0  0  0
  156.9920  212.0390  156.9710 C   0  0  0  0  0  2  0  0  0  0  0  0
  157.8890  212.8500  156.0250 C   0  0  1  0  0  3  0  0  0  0  0  0
  156.1750  214.1110  155.2180 C   0  0  0  0  0  2  0  0  0  0  0  0
  155.5410  212.0780  156.4850 C   0  0  0  0  0  2  0  0  0  0  0  0
  157.4170  214.1750  155.8820 O   0  0  0  0  0  0  0  0  0  0  0  0
  1 10  1  6  0  0  0
  1  3  1  0  0  0  0
  1  5  1  0  0  0  0
  1  7  1  0  0  0  0
  2 32  1  0  0  0  0
  3  6  1  6  0  0  0
  3  7  1  0  0  0  0
  6  9  1  0  0  0  0
  7  5  1  1  0  0  0
  7  8  1  0  0  0  0
  8  4  1  0  0  0  0
  8  2  2  0  0  0  0
  9  4  2  0  0  0  0
 11 10  1  0  0  0  0
 12 11  2  0  0  0  0
 13 15  1  0  0  0  0
 14 11  1  0  0  0  0
 15 14  2  0  0  0  0
 16 15  1  0  0  0  0
 16 20  1  0  0  0  0
 17 16  2  0  0  0  0
 18 19  1  0  0  0  0
 19 17  2  0  0  0  0
 21 23  2  0  0  0  0
 23 20  1  0  0  0  0
 23 22  1  0  0  0  0
 24 19  1  0  0  0  0
 27 24  1  0  0  0  0
 27 25  2  0  0  0  0
 27 26  2  0  0  0  0
 28 27  1  0  0  0  0
 29 31  1  0  0  0  0
 29 28  1  0  0  0  0
 30 31  1  0  0  0  0
 32 33  1  0  0  0  0
 33 41  1  1  0  0  0
 33 34  1  0  0  0  0
 36 40  1  0  0  0  0
 37 35  1  0  0  0  0
 38 37  1  0  0  0  0
 39 38  1  0  0  0  0
 39 36  1  0  0  0  0
 40 34  1  0  0  0  0
 40 35  1  0  0  0  0
 42 46  1  0  0  0  0
 44 41  1  1  0  0  0
 44 43  1  0  0  0  0
 45 47  1  0  0  0  0
 45 42  1  0  0  0  0
 46 43  1  0  0  0  0
 47 44  1  0  0  0  0
M  END
>  <MODEL>
9

>  <REMARK>
 VINA RESULT:      -2.4      6.089      8.787
  Name = 
  16 active torsions:
  status: ('A' for Active; 'I' for Inactive)
    1  A    between atoms: N_1  and  C_31
    2  A    between atoms: N_1  and  S_37
    3  A    between atoms: C_4  and  O_43
    4  A    between atoms: C_4  and  C_46
    5  A    between atoms: C_7  and  N_20
    6  A    between atoms: N_9  and  C_27
    7  A    between atoms: N_9  and  S_37
    8  A    between atoms: C_10  and  N_39
    9  A    between atoms: C_18  and  C_22
   10  A    between atoms: C_22  and  C_26
   11  A    between atoms: C_24  and  C_32
   12  A    between atoms: C_26  and  N_29
   13  A    between atoms: C_26  and  N_39
   14  A    between atoms: C_27  and  C_36
   15  A    between atoms: N_29  and  C_44
   16  A    between atoms: O_43  and  C_47
                            x       y       z     vdW  Elec       q    Type
                         _______ _______ _______ _____ _____    ______ ____

>  <TORSDO>
F 16

$$$$
