=
 OpenBabel11072411123D

 30 32  0  0  1  0  0  0  0  0999 V2000
  161.2180  207.8550  153.8830 C   0  0  0  0  0  2  0  0  0  0  0  0
  161.9150  209.0460  151.7070 C   0  0  0  0  0  0  0  0  0  0  0  0
  161.3890  209.1890  153.1240 C   0  0  1  0  0  3  0  0  0  0  0  0
  162.0630  206.7990  153.3320 N   0  0  0  0  0  2  0  0  0  0  0  0
  160.5740  206.8820  151.3210 C   0  0  0  0  0  2  0  0  0  0  0  0
  161.2860  206.0140  152.3680 C   0  0  0  0  0  2  0  0  0  0  0  0
  161.9090  207.9580  149.5240 C   0  0  0  0  0  3  0  0  0  0  0  0
  162.7530  209.8980  151.3020 O   0  0  0  0  0  0  0  0  0  0  0  0
  161.4700  207.9630  150.7930 C   0  0  0  0  0  0  0  0  0  0  0  0
  158.9610  212.1100  152.4570 C   0  0  0  0  0  0  0  0  0  0  0  0
  160.2130  211.2940  152.3360 C   0  0  0  0  0  2  0  0  0  0  0  0
  158.3520  211.0730  154.6290 C   0  0  1  0  0  3  0  0  0  0  0  0
  158.3820  212.3730  153.8150 C   0  0  1  0  0  3  0  0  0  0  0  0
  159.7090  210.3680  154.6100 C   0  0  0  0  0  2  0  0  0  0  0  0
  158.4540  212.6080  151.4660 O   0  0  0  0  0  0  0  0  0  0  0  0
  157.9660  211.3290  155.9450 O   0  0  0  0  0  1  0  0  0  0  0  0
  160.0920  210.0110  153.1680 C   0  0  2  0  0  3  0  0  0  0  0  0
  159.1460  213.3440  154.4690 O   0  0  0  0  0  1  0  0  0  0  0  0
  161.5930  206.9690  148.4780 C   0  0  0  0  0  0  0  0  0  0  0  0
  162.6520  206.1490  147.9720 N   0  0  0  0  0  2  0  0  0  0  0  0
  160.4210  206.8380  148.0300 O   0  0  0  0  0  0  0  0  0  0  0  0
  160.5620  201.1410  145.3930 O   0  0  0  0  0  0  0  0  0  0  0  0
  162.2850  205.7860  145.5560 C   0  0  0  0  0  2  0  0  0  0  0  0
  160.8900  201.8780  146.3620 C   0  0  0  0  0  0  0  0  0  0  0  0
  161.0960  201.3050  147.6120 O   0  0  0  0  0  1  0  0  0  0  0  0
  161.0530  203.2890  146.1780 N   0  0  0  0  0  0  0  0  0  0  0  0
  160.8020  203.8900  144.8620 C   0  0  0  0  0  2  0  0  0  0  0  0
  160.9550  205.4080  144.9060 C   0  0  0  0  0  2  0  0  0  0  0  0
  162.4860  205.1360  146.9360 C   0  0  2  0  0  3  0  0  0  0  0  0
  161.3960  204.1300  147.3230 C   0  0  0  0  0  2  0  0  0  0  0  0
  2  3  1  0  0  0  0
  3 17  1  0  0  0  0
  3  1  1  6  0  0  0
  4  1  1  0  0  0  0
  5  6  1  0  0  0  0
  6  4  1  0  0  0  0
  7  9  2  0  0  0  0
  8  2  2  0  0  0  0
  9  5  1  0  0  0  0
  9  2  1  0  0  0  0
 10 13  1  0  0  0  0
 11 10  1  0  0  0  0
 12 16  1  1  0  0  0
 13 18  1  1  0  0  0
 13 12  1  0  0  0  0
 14 12  1  0  0  0  0
 15 10  2  0  0  0  0
 17 11  1  6  0  0  0
 17 14  1  0  0  0  0
 19  7  1  0  0  0  0
 20 19  1  0  0  0  0
 21 19  2  0  0  0  0
 22 24  2  0  0  0  0
 23 29  1  0  0  0  0
 24 25  1  0  0  0  0
 26 24  1  0  0  0  0
 26 30  1  0  0  0  0
 27 28  1  0  0  0  0
 27 26  1  0  0  0  0
 28 23  1  0  0  0  0
 29 30  1  0  0  0  0
 29 20  1  1  0  0  0
M  END
>  <MODEL>
1

>  <REMARK>
 VINA RESULT:      -8.3      0.000      0.000
  Name = 
  3 active torsions:
  status: ('A' for Active; 'I' for Inactive)
    1  A    between atoms: C_5  and  C_21
    2  A    between atoms: C_6  and  C_25
    3  A    between atoms: N_7  and  C_29
                            x       y       z     vdW  Elec       q    Type
                         _______ _______ _______ _____ _____    ______ ____

>  <TORSDO>
F 3

$$$$
=
 OpenBabel11072411123D

 30 32  0  0  1  0  0  0  0  0999 V2000
  160.4930  209.1710  156.0150 C   0  0  0  0  0  2  0  0  0  0  0  0
  161.5490  209.9180  153.7870 C   0  0  0  0  0  0  0  0  0  0  0  0
  160.7860  210.3270  155.0340 C   0  0  1  0  0  3  0  0  0  0  0  0
  161.4260  208.0600  155.8470 N   0  0  0  0  0  2  0  0  0  0  0  0
  160.3050  207.6680  153.6430 C   0  0  0  0  0  2  0  0  0  0  0  0
  160.8310  207.0630  154.9520 C   0  0  0  0  0  2  0  0  0  0  0  0
  161.9240  208.4060  151.9100 C   0  0  0  0  0  3  0  0  0  0  0  0
  162.4390  210.7020  153.3590 O   0  0  0  0  0  0  0  0  0  0  0  0
  161.2730  208.6530  153.0580 C   0  0  0  0  0  0  0  0  0  0  0  0
  158.4100  213.3170  154.4950 C   0  0  0  0  0  0  0  0  0  0  0  0
  159.7020  212.6050  154.7650 C   0  0  0  0  0  2  0  0  0  0  0  0
  157.0480  211.3520  155.1620 C   0  0  1  0  0  3  0  0  0  0  0  0
  157.1650  212.8810  155.2080 C   0  0  1  0  0  3  0  0  0  0  0  0
  158.3430  210.6760  155.6130 C   0  0  0  0  0  2  0  0  0  0  0  0
  158.3860  214.2830  153.7500 O   0  0  0  0  0  0  0  0  0  0  0  0
  155.9830  210.9200  155.9540 O   0  0  0  0  0  1  0  0  0  0  0  0
  159.4960  211.0870  154.6880 C   0  0  2  0  0  3  0  0  0  0  0  0
  157.2020  213.3310  156.5300 O   0  0  0  0  0  1  0  0  0  0  0  0
  161.7980  207.2110  151.0570 C   0  0  0  0  0  0  0  0  0  0  0  0
  160.8570  207.2390  149.9780 N   0  0  0  0  0  2  0  0  0  0  0  0
  162.4970  206.1810  151.2610 O   0  0  0  0  0  0  0  0  0  0  0  0
  161.8870  203.5750  145.3280 O   0  0  0  0  0  1  0  0  0  0  0  0
  160.2370  204.8510  149.8250 C   0  0  0  0  0  2  0  0  0  0  0  0
  161.9530  204.6600  145.9660 C   0  0  0  0  0  0  0  0  0  0  0  0
  162.2810  205.8280  145.2880 O   0  0  0  0  0  0  0  0  0  0  0  0
  161.6880  204.6920  147.3730 N   0  0  0  0  0  0  0  0  0  0  0  0
  161.3740  203.4490  148.0880 C   0  0  0  0  0  2  0  0  0  0  0  0
  161.2060  203.6950  149.5860 C   0  0  0  0  0  2  0  0  0  0  0  0
  160.6250  206.1290  149.0600 C   0  0  2  0  0  3  0  0  0  0  0  0
  161.8070  205.9540  148.1010 C   0  0  0  0  0  2  0  0  0  0  0  0
  2  3  1  0  0  0  0
  3  1  1  6  0  0  0
  4  1  1  0  0  0  0
  5  6  1  0  0  0  0
  6  4  1  0  0  0  0
  7  9  2  0  0  0  0
  8  2  2  0  0  0  0
  9  5  1  0  0  0  0
  9  2  1  0  0  0  0
 10 11  1  0  0  0  0
 10 13  1  0  0  0  0
 12 13  1  0  0  0  0
 12 14  1  0  0  0  0
 12 16  1  1  0  0  0
 13 18  1  1  0  0  0
 15 10  2  0  0  0  0
 17 11  1  1  0  0  0
 17  3  1  0  0  0  0
 17 14  1  0  0  0  0
 19 21  2  0  0  0  0
 19  7  1  0  0  0  0
 20 19  1  0  0  0  0
 22 24  1  0  0  0  0
 24 26  1  0  0  0  0
 25 24  2  0  0  0  0
 26 27  1  0  0  0  0
 26 30  1  0  0  0  0
 27 28  1  0  0  0  0
 28 23  1  0  0  0  0
 29 23  1  0  0  0  0
 29 20  1  1  0  0  0
 30 29  1  0  0  0  0
M  END
>  <MODEL>
2

>  <REMARK>
 VINA RESULT:      -8.1      1.913      2.904
  Name = 
  3 active torsions:
  status: ('A' for Active; 'I' for Inactive)
    1  A    between atoms: C_5  and  C_21
    2  A    between atoms: C_6  and  C_25
    3  A    between atoms: N_7  and  C_29
                            x       y       z     vdW  Elec       q    Type
                         _______ _______ _______ _____ _____    ______ ____

>  <TORSDO>
F 3

$$$$
=
 OpenBabel11072411123D

 30 32  0  0  1  0  0  0  0  0999 V2000
  160.9380  210.5800  154.9660 C   0  0  0  0  0  2  0  0  0  0  0  0
  161.2410  210.0970  152.4540 C   0  0  0  0  0  0  0  0  0  0  0  0
  160.7700  211.0760  153.5140 C   0  0  1  0  0  3  0  0  0  0  0  0
  161.9670  209.5500  155.0780 N   0  0  0  0  0  2  0  0  0  0  0  0
  160.3960  208.0740  153.8050 C   0  0  0  0  0  2  0  0  0  0  0  0
  161.3360  208.2290  155.0090 C   0  0  0  0  0  2  0  0  0  0  0  0
  161.3650  207.8430  151.5290 C   0  0  0  0  0  3  0  0  0  0  0  0
  161.8470  210.5630  151.4510 O   0  0  0  0  0  0  0  0  0  0  0  0
  161.0010  208.6340  152.5510 C   0  0  0  0  0  0  0  0  0  0  0  0
  157.8650  213.4090  152.5190 C   0  0  0  0  0  0  0  0  0  0  0  0
  159.2850  212.9600  152.6860 C   0  0  0  0  0  2  0  0  0  0  0  0
  157.0320  211.8170  154.2310 C   0  0  1  0  0  3  0  0  0  0  0  0
  156.8960  213.2300  153.6490 C   0  0  1  0  0  3  0  0  0  0  0  0
  158.4890  211.4760  154.5440 C   0  0  0  0  0  2  0  0  0  0  0  0
  157.5160  213.9730  151.4940 O   0  0  0  0  0  0  0  0  0  0  0  0
  156.2530  211.6860  155.3820 O   0  0  0  0  0  1  0  0  0  0  0  0
  159.3260  211.5370  153.2600 C   0  0  2  0  0  3  0  0  0  0  0  0
  157.1440  214.1920  154.6330 O   0  0  0  0  0  1  0  0  0  0  0  0
  161.2240  206.3790  151.4450 C   0  0  0  0  0  0  0  0  0  0  0  0
  160.5100  205.8250  150.3340 N   0  0  0  0  0  2  0  0  0  0  0  0
  161.7150  205.6200  152.3240 O   0  0  0  0  0  0  0  0  0  0  0  0
  161.1030  200.4380  147.7390 O   0  0  0  0  0  1  0  0  0  0  0  0
  160.3570  203.6290  151.4580 C   0  0  0  0  0  2  0  0  0  0  0  0
  161.1030  201.6980  147.7720 C   0  0  0  0  0  0  0  0  0  0  0  0
  161.0220  202.4100  146.5800 O   0  0  0  0  0  0  0  0  0  0  0  0
  161.1820  202.3910  149.0230 N   0  0  0  0  0  0  0  0  0  0  0  0
  161.3000  201.6330  150.2740 C   0  0  0  0  0  2  0  0  0  0  0  0
  161.4500  202.5620  151.4760 C   0  0  0  0  0  2  0  0  0  0  0  0
  160.2890  204.3980  150.1260 C   0  0  2  0  0  3  0  0  0  0  0  0
  161.2190  203.8530  149.0370 C   0  0  0  0  0  2  0  0  0  0  0  0
  1  4  1  0  0  0  0
  2  9  1  0  0  0  0
  2  3  1  0  0  0  0
  3  1  1  1  0  0  0
  5  6  1  0  0  0  0
  6  4  1  0  0  0  0
  7  9  2  0  0  0  0
  8  2  2  0  0  0  0
  9  5  1  0  0  0  0
 10 11  1  0  0  0  0
 10 13  1  0  0  0  0
 12 14  1  0  0  0  0
 12 16  1  1  0  0  0
 13 12  1  0  0  0  0
 13 18  1  1  0  0  0
 15 10  2  0  0  0  0
 17 11  1  1  0  0  0
 17  3  1  0  0  0  0
 17 14  1  0  0  0  0
 19  7  1  0  0  0  0
 19 21  2  0  0  0  0
 20 19  1  0  0  0  0
 22 24  1  0  0  0  0
 23 28  1  0  0  0  0
 24 26  1  0  0  0  0
 25 24  2  0  0  0  0
 26 30  1  0  0  0  0
 26 27  1  0  0  0  0
 27 28  1  0  0  0  0
 29 20  1  1  0  0  0
 29 23  1  0  0  0  0
 30 29  1  0  0  0  0
M  END
>  <MODEL>
3

>  <REMARK>
 VINA RESULT:      -7.4      2.287      3.118
  Name = 
  3 active torsions:
  status: ('A' for Active; 'I' for Inactive)
    1  A    between atoms: C_5  and  C_21
    2  A    between atoms: C_6  and  C_25
    3  A    between atoms: N_7  and  C_29
                            x       y       z     vdW  Elec       q    Type
                         _______ _______ _______ _____ _____    ______ ____

>  <TORSDO>
F 3

$$$$
=
 OpenBabel11072411123D

 30 32  0  0  1  0  0  0  0  0999 V2000
  159.9830  208.6570  156.6770 C   0  0  0  0  0  2  0  0  0  0  0  0
  161.3940  210.1580  155.1300 C   0  0  0  0  0  0  0  0  0  0  0  0
  160.4500  210.0830  156.3170 C   0  0  1  0  0  3  0  0  0  0  0  0
  160.9090  207.6380  156.1900 N   0  0  0  0  0  2  0  0  0  0  0  0
  160.1450  208.2770  153.8920 C   0  0  0  0  0  2  0  0  0  0  0  0
  160.4450  207.1470  154.8880 C   0  0  0  0  0  2  0  0  0  0  0  0
  162.0330  209.5210  152.8640 C   0  0  0  0  0  3  0  0  0  0  0  0
  162.3560  210.9710  155.1940 O   0  0  0  0  0  0  0  0  0  0  0  0
  161.2130  209.3300  153.9090 C   0  0  0  0  0  0  0  0  0  0  0  0
  156.9590  211.2880  155.2040 C   0  0  0  0  0  0  0  0  0  0  0  0
  158.0890  210.3260  155.4220 C   0  0  0  0  0  2  0  0  0  0  0  0
  158.4560  213.2630  155.3440 C   0  0  1  0  0  3  0  0  0  0  0  0
  157.2460  212.6450  154.6330 C   0  0  1  0  0  3  0  0  0  0  0  0
  159.6390  212.2950  155.3840 C   0  0  0  0  0  2  0  0  0  0  0  0
  155.8100  210.9480  155.4320 O   0  0  0  0  0  0  0  0  0  0  0  0
  158.8340  214.4530  154.7190 O   0  0  0  0  0  1  0  0  0  0  0  0
  159.2470  211.0240  156.1460 C   0  0  2  0  0  3  0  0  0  0  0  0
  157.4880  212.5310  153.2610 O   0  0  0  0  0  1  0  0  0  0  0  0
  162.0210  208.7950  151.5820 C   0  0  0  0  0  0  0  0  0  0  0  0
  162.3260  207.3960  151.5860 N   0  0  0  0  0  2  0  0  0  0  0  0
  161.7520  209.3800  150.4970 O   0  0  0  0  0  0  0  0  0  0  0  0
  160.8570  202.8140  147.9880 O   0  0  0  0  0  0  0  0  0  0  0  0
  162.3290  207.4110  149.1150 C   0  0  0  0  0  2  0  0  0  0  0  0
  161.0080  203.3950  149.0960 C   0  0  0  0  0  0  0  0  0  0  0  0
  161.0560  202.6370  150.2600 O   0  0  0  0  0  1  0  0  0  0  0  0
  161.1320  204.8210  149.1560 N   0  0  0  0  0  0  0  0  0  0  0  0
  161.0480  205.6160  147.9260 C   0  0  0  0  0  2  0  0  0  0  0  0
  161.1260  207.1120  148.2230 C   0  0  0  0  0  2  0  0  0  0  0  0
  162.3570  206.5550  150.3940 C   0  0  2  0  0  3  0  0  0  0  0  0
  161.2690  205.4780  150.4550 C   0  0  0  0  0  2  0  0  0  0  0  0
  2  8  2  0  0  0  0
  2  3  1  0  0  0  0
  3  1  1  6  0  0  0
  4  1  1  0  0  0  0
  5  9  1  0  0  0  0
  5  6  1  0  0  0  0
  6  4  1  0  0  0  0
  7  9  2  0  0  0  0
  9  2  1  0  0  0  0
 10 11  1  0  0  0  0
 10 15  2  0  0  0  0
 11 17  1  0  0  0  0
 12 16  1  6  0  0  0
 12 14  1  0  0  0  0
 13 18  1  6  0  0  0
 13 10  1  0  0  0  0
 13 12  1  0  0  0  0
 17 14  1  6  0  0  0
 17  3  1  0  0  0  0
 19 20  1  0  0  0  0
 19  7  1  0  0  0  0
 21 19  2  0  0  0  0
 22 24  2  0  0  0  0
 23 29  1  0  0  0  0
 24 26  1  0  0  0  0
 24 25  1  0  0  0  0
 26 30  1  0  0  0  0
 27 28  1  0  0  0  0
 27 26  1  0  0  0  0
 28 23  1  0  0  0  0
 29 30  1  0  0  0  0
 29 20  1  1  0  0  0
M  END
>  <MODEL>
4

>  <REMARK>
 VINA RESULT:      -6.3      2.150      3.390
  Name = 
  3 active torsions:
  status: ('A' for Active; 'I' for Inactive)
    1  A    between atoms: C_5  and  C_21
    2  A    between atoms: C_6  and  C_25
    3  A    between atoms: N_7  and  C_29
                            x       y       z     vdW  Elec       q    Type
                         _______ _______ _______ _____ _____    ______ ____

>  <TORSDO>
F 3

$$$$
=
 OpenBabel11072411123D

 30 32  0  0  1  0  0  0  0  0999 V2000
  162.5660  208.6070  150.6180 C   0  0  0  0  0  2  0  0  0  0  0  0
  161.8810  207.5280  152.8550 C   0  0  0  0  0  0  0  0  0  0  0  0
  162.3390  207.3100  151.4240 C   0  0  1  0  0  3  0  0  0  0  0  0
  162.8180  209.7550  151.4850 N   0  0  0  0  0  2  0  0  0  0  0  0
  160.4230  209.5430  152.1860 C   0  0  0  0  0  2  0  0  0  0  0  0
  161.5580  210.4670  151.7210 C   0  0  0  0  0  2  0  0  0  0  0  0
  160.4640  208.6400  154.5000 C   0  0  0  0  0  3  0  0  0  0  0  0
  162.3600  206.7760  153.7470 O   0  0  0  0  0  0  0  0  0  0  0  0
  160.8900  208.5710  153.2290 C   0  0  0  0  0  0  0  0  0  0  0  0
  160.8440  203.9790  150.1820 C   0  0  0  0  0  0  0  0  0  0  0  0
  161.7210  204.8880  150.9900 C   0  0  0  0  0  2  0  0  0  0  0  0
  160.4570  205.7040  148.4390 C   0  0  1  0  0  3  0  0  0  0  0  0
  160.6990  204.2130  148.7080 C   0  0  1  0  0  3  0  0  0  0  0  0
  161.4900  206.5780  149.1520 C   0  0  0  0  0  2  0  0  0  0  0  0
  160.3030  203.0210  150.7080 O   0  0  0  0  0  0  0  0  0  0  0  0
  160.4790  205.9620  147.0680 O   0  0  0  0  0  1  0  0  0  0  0  0
  161.4040  206.3540  150.6670 C   0  0  2  0  0  3  0  0  0  0  0  0
  161.8530  203.7770  148.0510 O   0  0  0  0  0  1  0  0  0  0  0  0
  159.5030  209.6050  155.0630 C   0  0  0  0  0  0  0  0  0  0  0  0
  159.6270  210.9840  154.7000 N   0  0  0  0  0  2  0  0  0  0  0  0
  158.5870  209.2370  155.8490 O   0  0  0  0  0  0  0  0  0  0  0  0
  154.7290  214.4530  154.9570 O   0  0  0  0  0  1  0  0  0  0  0  0
  158.6870  212.0480  156.7230 C   0  0  0  0  0  2  0  0  0  0  0  0
  155.5740  213.7070  154.3930 C   0  0  0  0  0  0  0  0  0  0  0  0
  155.6620  213.7080  153.0060 O   0  0  0  0  0  0  0  0  0  0  0  0
  156.4380  212.8710  155.1720 N   0  0  0  0  0  0  0  0  0  0  0  0
  156.3170  212.8530  156.6350 C   0  0  0  0  0  2  0  0  0  0  0  0
  157.2730  211.8400  157.2600 C   0  0  0  0  0  2  0  0  0  0  0  0
  158.7530  212.0460  155.1850 C   0  0  2  0  0  3  0  0  0  0  0  0
  157.3850  211.9860  154.4960 C   0  0  0  0  0  2  0  0  0  0  0  0
  1  4  1  0  0  0  0
  2  9  1  0  0  0  0
  2  8  2  0  0  0  0
  3  1  1  6  0  0  0
  3  2  1  0  0  0  0
  4  6  1  0  0  0  0
  5  9  1  0  0  0  0
  6  5  1  0  0  0  0
  7 19  1  0  0  0  0
  9  7  2  0  0  0  0
 10 15  2  0  0  0  0
 10 11  1  0  0  0  0
 12 16  1  6  0  0  0
 12 13  1  0  0  0  0
 12 14  1  0  0  0  0
 13 18  1  6  0  0  0
 13 10  1  0  0  0  0
 17 14  1  6  0  0  0
 17 11  1  0  0  0  0
 17  3  1  0  0  0  0
 19 21  2  0  0  0  0
 20 19  1  0  0  0  0
 23 28  1  0  0  0  0
 24 22  1  0  0  0  0
 24 26  1  0  0  0  0
 25 24  2  0  0  0  0
 26 27  1  0  0  0  0
 27 28  1  0  0  0  0
 29 20  1  1  0  0  0
 29 23  1  0  0  0  0
 30 26  1  0  0  0  0
 30 29  1  0  0  0  0
M  END
>  <MODEL>
5

>  <REMARK>
 VINA RESULT:      -6.0      2.989      9.747
  Name = 
  3 active torsions:
  status: ('A' for Active; 'I' for Inactive)
    1  A    between atoms: C_5  and  C_21
    2  A    between atoms: C_6  and  C_25
    3  A    between atoms: N_7  and  C_29
                            x       y       z     vdW  Elec       q    Type
                         _______ _______ _______ _____ _____    ______ ____

>  <TORSDO>
F 3

$$$$
=
 OpenBabel11072411123D

 30 32  0  0  1  0  0  0  0  0999 V2000
  160.7770  214.4520  148.9190 C   0  0  0  0  0  2  0  0  0  0  0  0
  162.5770  212.7600  148.1890 C   0  0  0  0  0  0  0  0  0  0  0  0
  161.9090  214.0980  147.9310 C   0  0  1  0  0  3  0  0  0  0  0  0
  160.9090  213.7350  150.1840 N   0  0  0  0  0  2  0  0  0  0  0  0
  160.3500  211.6700  148.8830 C   0  0  0  0  0  2  0  0  0  0  0  0
  160.0920  212.5190  150.1360 C   0  0  0  0  0  2  0  0  0  0  0  0
  162.4640  210.3780  148.7040 C   0  0  0  0  0  3  0  0  0  0  0  0
  163.8280  212.6890  148.0420 O   0  0  0  0  0  0  0  0  0  0  0  0
  161.8150  211.5480  148.5860 C   0  0  0  0  0  0  0  0  0  0  0  0
  159.5120  213.9080  144.9150 C   0  0  0  0  0  0  0  0  0  0  0  0
  159.9380  213.8520  146.3520 C   0  0  0  0  0  2  0  0  0  0  0  0
  161.8290  213.5780  144.0890 C   0  0  1  0  0  3  0  0  0  0  0  0
  160.3500  213.2340  143.8700 C   0  0  1  0  0  3  0  0  0  0  0  0
  162.2530  213.3370  145.5380 C   0  0  0  0  0  2  0  0  0  0  0  0
  158.4600  214.4440  144.6080 O   0  0  0  0  0  0  0  0  0  0  0  0
  162.6350  212.8340  143.2260 O   0  0  0  0  0  1  0  0  0  0  0  0
  161.4220  214.2200  146.4780 C   0  0  2  0  0  3  0  0  0  0  0  0
  160.1520  211.8520  143.9340 O   0  0  0  0  0  1  0  0  0  0  0  0
  161.8900  209.0800  149.0980 C   0  0  0  0  0  0  0  0  0  0  0  0
  161.6490  208.8320  150.4880 N   0  0  0  0  0  2  0  0  0  0  0  0
  161.6130  208.1970  148.2410 O   0  0  0  0  0  0  0  0  0  0  0  0
  160.8000  202.9080  151.0170 O   0  0  0  0  0  1  0  0  0  0  0  0
  161.0790  207.6110  152.5590 C   0  0  0  0  0  2  0  0  0  0  0  0
  161.0920  203.9720  150.4070 C   0  0  0  0  0  0  0  0  0  0  0  0
  161.0890  203.9810  149.0170 O   0  0  0  0  0  0  0  0  0  0  0  0
  161.4180  205.1600  151.1370 N   0  0  0  0  0  0  0  0  0  0  0  0
  161.4500  205.1340  152.6040 C   0  0  0  0  0  2  0  0  0  0  0  0
  161.8960  206.4780  153.1750 C   0  0  0  0  0  2  0  0  0  0  0  0
  161.0920  207.5940  151.0200 C   0  0  2  0  0  3  0  0  0  0  0  0
  161.7900  206.3730  150.4100 C   0  0  0  0  0  2  0  0  0  0  0  0
  1  4  1  0  0  0  0
  2  9  1  0  0  0  0
  3  2  1  0  0  0  0
  3  1  1  1  0  0  0
  5  6  1  0  0  0  0
  6  4  1  0  0  0  0
  7 19  1  0  0  0  0
  8  2  2  0  0  0  0
  9  7  2  0  0  0  0
  9  5  1  0  0  0  0
 10 11  1  0  0  0  0
 11 17  1  0  0  0  0
 12 16  1  6  0  0  0
 12 14  1  0  0  0  0
 13 18  1  1  0  0  0
 13 12  1  0  0  0  0
 13 10  1  0  0  0  0
 15 10  2  0  0  0  0
 17 14  1  6  0  0  0
 17  3  1  0  0  0  0
 19 20  1  0  0  0  0
 21 19  2  0  0  0  0
 23 28  1  0  0  0  0
 24 22  1  0  0  0  0
 24 26  1  0  0  0  0
 25 24  2  0  0  0  0
 26 27  1  0  0  0  0
 27 28  1  0  0  0  0
 29 20  1  1  0  0  0
 29 23  1  0  0  0  0
 30 29  1  0  0  0  0
 30 26  1  0  0  0  0
M  END
>  <MODEL>
6

>  <REMARK>
 VINA RESULT:      -5.6      4.927      7.111
  Name = 
  3 active torsions:
  status: ('A' for Active; 'I' for Inactive)
    1  A    between atoms: C_5  and  C_21
    2  A    between atoms: C_6  and  C_25
    3  A    between atoms: N_7  and  C_29
                            x       y       z     vdW  Elec       q    Type
                         _______ _______ _______ _____ _____    ______ ____

>  <TORSDO>
F 3

$$$$
=
 OpenBabel11072411123D

 30 32  0  0  1  0  0  0  0  0999 V2000
  159.9450  210.0620  156.0360 C   0  0  0  0  0  2  0  0  0  0  0  0
  161.7870  210.2700  154.2460 C   0  0  0  0  0  0  0  0  0  0  0  0
  160.8540  210.9910  155.2020 C   0  0  1  0  0  3  0  0  0  0  0  0
  160.4980  208.7160  156.1520 N   0  0  0  0  0  2  0  0  0  0  0  0
  160.0140  208.4820  153.7070 C   0  0  0  0  0  2  0  0  0  0  0  0
  159.9180  207.8640  155.1090 C   0  0  0  0  0  2  0  0  0  0  0  0
  162.2160  208.5590  152.5620 C   0  0  0  0  0  3  0  0  0  0  0  0
  162.9600  210.7170  154.1200 O   0  0  0  0  0  0  0  0  0  0  0  0
  161.3650  209.0840  153.4560 C   0  0  0  0  0  0  0  0  0  0  0  0
  157.7380  212.8020  153.8290 C   0  0  0  0  0  0  0  0  0  0  0  0
  158.5190  211.7810  154.6010 C   0  0  0  0  0  2  0  0  0  0  0  0
  159.6600  213.3300  152.3490 C   0  0  1  0  0  3  0  0  0  0  0  0
  158.1410  213.1290  152.4220 C   0  0  1  0  0  3  0  0  0  0  0  0
  160.4110  212.1700  153.0030 C   0  0  0  0  0  2  0  0  0  0  0  0
  156.7460  213.3150  154.3190 O   0  0  0  0  0  0  0  0  0  0  0  0
  160.0700  213.4770  151.0230 O   0  0  0  0  0  1  0  0  0  0  0  0
  160.0220  212.0650  154.4830 C   0  0  2  0  0  3  0  0  0  0  0  0
  157.7410  212.0950  151.5700 O   0  0  0  0  0  1  0  0  0  0  0  0
  161.9880  207.3850  151.7010 C   0  0  0  0  0  0  0  0  0  0  0  0
  160.9610  207.4580  150.7050 N   0  0  0  0  0  2  0  0  0  0  0  0
  162.6740  206.3340  151.8270 O   0  0  0  0  0  0  0  0  0  0  0  0
  161.5030  203.8610  145.9230 O   0  0  0  0  0  1  0  0  0  0  0  0
  160.2630  205.0920  150.5620 C   0  0  0  0  0  2  0  0  0  0  0  0
  161.6510  204.9310  146.5720 C   0  0  0  0  0  0  0  0  0  0  0  0
  161.9560  206.1040  145.8900 O   0  0  0  0  0  0  0  0  0  0  0  0
  161.5040  204.9420  147.9970 N   0  0  0  0  0  0  0  0  0  0  0  0
  161.2140  203.6940  148.7130 C   0  0  0  0  0  2  0  0  0  0  0  0
  161.1760  203.9150  150.2230 C   0  0  0  0  0  2  0  0  0  0  0  0
  160.6230  206.3740  149.7900 C   0  0  2  0  0  3  0  0  0  0  0  0
  161.7180  206.1860  148.7340 C   0  0  0  0  0  2  0  0  0  0  0  0
  1  4  1  0  0  0  0
  2  3  1  0  0  0  0
  3  1  1  6  0  0  0
  5  6  1  0  0  0  0
  6  4  1  0  0  0  0
  7  9  2  0  0  0  0
  8  2  2  0  0  0  0
  9  5  1  0  0  0  0
  9  2  1  0  0  0  0
 10 15  2  0  0  0  0
 10 11  1  0  0  0  0
 12 16  1  6  0  0  0
 12 13  1  0  0  0  0
 12 14  1  0  0  0  0
 13 18  1  6  0  0  0
 13 10  1  0  0  0  0
 17 14  1  6  0  0  0
 17 11  1  0  0  0  0
 17  3  1  0  0  0  0
 19 21  2  0  0  0  0
 19  7  1  0  0  0  0
 20 19  1  0  0  0  0
 22 24  1  0  0  0  0
 24 26  1  0  0  0  0
 25 24  2  0  0  0  0
 26 27  1  0  0  0  0
 26 30  1  0  0  0  0
 27 28  1  0  0  0  0
 28 23  1  0  0  0  0
 29 23  1  0  0  0  0
 29 20  1  1  0  0  0
 30 29  1  0  0  0  0
M  END
>  <MODEL>
7

>  <REMARK>
 VINA RESULT:      -5.6      1.962      3.528
  Name = 
  3 active torsions:
  status: ('A' for Active; 'I' for Inactive)
    1  A    between atoms: C_5  and  C_21
    2  A    between atoms: C_6  and  C_25
    3  A    between atoms: N_7  and  C_29
                            x       y       z     vdW  Elec       q    Type
                         _______ _______ _______ _____ _____    ______ ____

>  <TORSDO>
F 3

$$$$
=
 OpenBabel11072411123D

 30 32  0  0  1  0  0  0  0  0999 V2000
  160.8890  204.5880  144.8680 C   0  0  0  0  0  2  0  0  0  0  0  0
  162.8330  205.1430  146.4650 C   0  0  0  0  0  0  0  0  0  0  0  0
  162.1780  204.1080  145.5680 C   0  0  1  0  0  3  0  0  0  0  0  0
  160.8310  206.0430  144.7640 N   0  0  0  0  0  2  0  0  0  0  0  0
  160.5540  206.0470  147.2520 C   0  0  0  0  0  2  0  0  0  0  0  0
  160.0680  206.5780  145.8960 C   0  0  0  0  0  2  0  0  0  0  0  0
  162.7050  206.8730  148.1800 C   0  0  0  0  0  3  0  0  0  0  0  0
  164.0920  205.2140  146.4590 O   0  0  0  0  0  0  0  0  0  0  0  0
  162.0510  206.0490  147.3460 C   0  0  0  0  0  0  0  0  0  0  0  0
  160.5650  200.7110  146.4250 C   0  0  0  0  0  0  0  0  0  0  0  0
  160.8310  201.9590  145.6380 C   0  0  0  0  0  2  0  0  0  0  0  0
  161.4610  201.6980  148.5190 C   0  0  1  0  0  3  0  0  0  0  0  0
  160.3750  200.8030  147.9100 C   0  0  1  0  0  3  0  0  0  0  0  0
  161.5700  203.0310  147.7800 C   0  0  0  0  0  2  0  0  0  0  0  0
  160.4430  199.6400  145.8550 O   0  0  0  0  0  0  0  0  0  0  0  0
  161.2060  201.9220  149.8730 O   0  0  0  0  0  1  0  0  0  0  0  0
  161.9350  202.7850  146.3110 C   0  0  2  0  0  3  0  0  0  0  0  0
  159.1040  201.3160  148.1860 O   0  0  0  0  0  1  0  0  0  0  0  0
  162.1110  207.8460  149.1140 C   0  0  0  0  0  0  0  0  0  0  0  0
  161.8180  207.4210  150.4490 N   0  0  0  0  0  2  0  0  0  0  0  0
  161.8610  209.0300  148.7570 O   0  0  0  0  0  0  0  0  0  0  0  0
  160.1660  209.1350  155.9650 O   0  0  0  0  0  1  0  0  0  0  0  0
  161.6310  209.7440  151.2690 C   0  0  0  0  0  2  0  0  0  0  0  0
  160.4560  208.3020  155.0650 C   0  0  0  0  0  0  0  0  0  0  0  0
  160.0810  206.9720  155.2230 O   0  0  0  0  0  0  0  0  0  0  0  0
  161.1610  208.7190  153.8900 N   0  0  0  0  0  0  0  0  0  0  0  0
  161.5810  210.1170  153.7460 C   0  0  0  0  0  2  0  0  0  0  0  0
  162.3830  210.3280  152.4640 C   0  0  0  0  0  2  0  0  0  0  0  0
  161.2260  208.2730  151.4740 C   0  0  2  0  0  3  0  0  0  0  0  0
  161.5200  207.7290  152.8760 C   0  0  0  0  0  2  0  0  0  0  0  0
  2  9  1  0  0  0  0
  3  1  1  1  0  0  0
  3 17  1  0  0  0  0
  3  2  1  0  0  0  0
  4  1  1  0  0  0  0
  4  6  1  0  0  0  0
  5  9  1  0  0  0  0
  6  5  1  0  0  0  0
  7 19  1  0  0  0  0
  8  2  2  0  0  0  0
  9  7  2  0  0  0  0
 10 13  1  0  0  0  0
 11 10  1  0  0  0  0
 12 16  1  1  0  0  0
 13 18  1  6  0  0  0
 13 12  1  0  0  0  0
 14 12  1  0  0  0  0
 15 10  2  0  0  0  0
 17 11  1  6  0  0  0
 17 14  1  0  0  0  0
 19 20  1  0  0  0  0
 21 19  2  0  0  0  0
 23 29  1  0  0  0  0
 23 28  1  0  0  0  0
 24 25  2  0  0  0  0
 24 22  1  0  0  0  0
 26 24  1  0  0  0  0
 27 26  1  0  0  0  0
 28 27  1  0  0  0  0
 29 20  1  6  0  0  0
 29 30  1  0  0  0  0
 30 26  1  0  0  0  0
M  END
>  <MODEL>
8

>  <REMARK>
 VINA RESULT:      -5.4      2.419      9.270
  Name = 
  3 active torsions:
  status: ('A' for Active; 'I' for Inactive)
    1  A    between atoms: C_5  and  C_21
    2  A    between atoms: C_6  and  C_25
    3  A    between atoms: N_7  and  C_29
                            x       y       z     vdW  Elec       q    Type
                         _______ _______ _______ _____ _____    ______ ____

>  <TORSDO>
F 3

$$$$
