=
 OpenBabel11072413013D

 37 40  0  0  1  0  0  0  0  0999 V2000
  161.0540  208.7670  154.5220 C   0  0  0  0  0  0  0  0  0  0  0  0
  162.3890  209.7480  156.1910 O   0  0  0  0  0  1  0  0  0  0  0  0
  161.1690  207.3830  154.6550 C   0  0  0  0  0  3  0  0  0  0  0  0
  160.7090  206.3580  150.9930 C   0  0  0  0  0  3  0  0  0  0  0  0
  161.2150  204.3530  152.4810 N   0  0  0  0  0  0  0  0  0  0  0  0
  161.2070  205.1690  153.6200 N   0  0  0  0  0  0  0  0  0  0  0  0
  160.8340  209.3440  153.3000 C   0  0  0  0  0  0  0  0  0  0  0  0
  161.1910  204.0930  150.1220 C   0  0  0  0  0  2  0  0  0  0  0  0
  160.8610  207.1810  152.2410 C   0  0  0  0  0  0  0  0  0  0  0  0
  161.0730  206.5840  153.5060 C   0  0  0  0  0  0  0  0  0  0  0  0
  161.1200  209.7660  155.6090 C   0  0  1  0  0  3  0  0  0  0  0  0
  160.9060  211.1180  154.8880 C   0  0  1  0  0  3  0  0  0  0  0  0
  161.0630  204.9040  151.1720 C   0  0  0  0  0  0  0  0  0  0  0  0
  160.7040  210.8110  153.3890 C   0  0  0  0  0  2  0  0  0  0  0  0
  160.7290  208.5740  152.1420 C   0  0  0  0  0  3  0  0  0  0  0  0
  161.6990  203.6750  146.5960 C   0  0  0  0  0  0  0  0  0  0  0  0
  161.2190  203.3710  147.7570 C   0  0  0  0  0  0  0  0  0  0  0  0
  161.5510  206.3070  147.3080 C   0  0  0  0  0  2  0  0  0  0  0  0
  162.7800  203.9050  144.5720 F   0  0  0  0  0  0  0  0  0  0  0  0
  162.1750  204.4320  145.6620 C   0  0  0  0  0  0  0  0  0  0  0  0
  161.0480  204.5430  148.7010 C   0  0  2  0  0  3  0  0  0  0  0  0
  162.3120  205.8990  146.0100 C   0  0  0  0  0  2  0  0  0  0  0  0
  161.9990  205.5670  148.4300 O   0  0  0  0  0  0  0  0  0  0  0  0
  160.7840  202.0850  148.0550 O   0  0  0  0  0  1  0  0  0  0  0  0
  158.5710  211.0990  155.8810 C   0  0  0  0  0  1  0  0  0  0  0  0
  160.2990  212.5810  156.8130 C   0  0  0  0  0  1  0  0  0  0  0  0
  159.7720  211.9690  155.5190 C   0  0  0  0  0  0  0  0  0  0  0  0
  159.2120  214.3350  155.3070 O   0  0  0  0  0  1  0  0  0  0  0  0
  159.3530  213.1390  154.5930 C   0  0  2  0  0  3  0  0  0  0  0  0
  158.1120  212.8800  153.7190 C   0  0  1  0  0  3  0  0  0  0  0  0
  156.3000  214.4530  153.3210 C   0  0  0  0  0  1  0  0  0  0  0  0
  155.9030  212.4520  154.4840 C   0  0  0  0  0  1  0  0  0  0  0  0
  156.8870  213.4990  154.2560 N   0  0  0  0  0  0  0  0  0  0  0  0
  157.6270  212.5780  151.3810 O   0  0  0  0  0  0  0  0  0  0  0  0
  158.3600  213.1250  152.2520 C   0  0  0  0  0  0  0  0  0  0  0  0
  159.4280  213.9380  151.8730 O   0  0  0  0  0  0  0  0  0  0  0  0
  160.0760  213.7860  150.6190 C   0  0  0  0  0  1  0  0  0  0  0  0
  1  3  1  0  0  0  0
  1 11  1  0  0  0  0
  4 13  2  0  0  0  0
  4  9  1  0  0  0  0
  5  6  2  0  0  0  0
  7 14  1  0  0  0  0
  7  1  2  0  0  0  0
  8 13  1  0  0  0  0
  9 10  1  0  0  0  0
 10  6  1  0  0  0  0
 10  3  2  0  0  0  0
 11  2  1  6  0  0  0
 12 27  1  1  0  0  0
 12 11  1  0  0  0  0
 13  5  1  0  0  0  0
 14 12  1  0  0  0  0
 15  9  2  0  0  0  0
 15  7  1  0  0  0  0
 16 17  2  0  0  0  0
 17 24  1  0  0  0  0
 17 21  1  0  0  0  0
 18 23  1  0  0  0  0
 19 20  1  0  0  0  0
 20 22  1  0  0  0  0
 20 16  2  0  0  0  0
 21  8  1  1  0  0  0
 22 18  1  0  0  0  0
 23 21  1  0  0  0  0
 27 25  1  0  0  0  0
 27 26  1  0  0  0  0
 29 28  1  1  0  0  0
 29 27  1  0  0  0  0
 30 35  1  6  0  0  0
 30 33  1  0  0  0  0
 30 29  1  0  0  0  0
 31 33  1  0  0  0  0
 33 32  1  0  0  0  0
 34 35  2  0  0  0  0
 36 35  1  0  0  0  0
 37 36  1  0  0  0  0
M  END
>  <MODEL>
1

>  <REMARK>
 VINA RESULT:      -8.5      0.000      0.000
  Name = 
  7 active torsions:
  status: ('A' for Active; 'I' for Inactive)
    1  A    between atoms: O_2  and  C_16
    2  A    between atoms: C_6  and  C_16
    3  A    between atoms: C_6  and  N_23
    4  A    between atoms: C_6  and  C_25
    5  A    between atoms: C_20  and  C_26
    6  A    between atoms: C_25  and  C_28
    7  A    between atoms: C_28  and  C_34
                            x       y       z     vdW  Elec       q    Type
                         _______ _______ _______ _____ _____    ______ ____

>  <TORSDO>
F 7

$$$$
=
 OpenBabel11072413013D

 37 40  0  0  1  0  0  0  0  0999 V2000
  161.1520  209.1130  154.9780 C   0  0  0  0  0  0  0  0  0  0  0  0
  162.5300  210.1160  156.5990 O   0  0  0  0  0  1  0  0  0  0  0  0
  161.3030  207.7310  155.1000 C   0  0  0  0  0  3  0  0  0  0  0  0
  160.7210  206.7120  151.4530 C   0  0  0  0  0  3  0  0  0  0  0  0
  161.3290  204.7130  152.9090 N   0  0  0  0  0  0  0  0  0  0  0  0
  161.3490  205.5240  154.0520 N   0  0  0  0  0  0  0  0  0  0  0  0
  160.8720  209.6910  153.7690 C   0  0  0  0  0  0  0  0  0  0  0  0
  161.2180  204.4630  150.5520 C   0  0  0  0  0  2  0  0  0  0  0  0
  160.9040  207.5330  152.6980 C   0  0  0  0  0  0  0  0  0  0  0  0
  161.1790  206.9360  153.9510 C   0  0  0  0  0  0  0  0  0  0  0  0
  161.2380  210.1090  156.0670 C   0  0  1  0  0  3  0  0  0  0  0  0
  160.9670  211.4590  155.3620 C   0  0  1  0  0  3  0  0  0  0  0  0
  161.1130  205.2660  151.6100 C   0  0  0  0  0  0  0  0  0  0  0  0
  160.7120  211.1540  153.8710 C   0  0  0  0  0  2  0  0  0  0  0  0
  160.7380  208.9230  152.6120 C   0  0  0  0  0  3  0  0  0  0  0  0
  161.5820  204.0640  147.0060 C   0  0  0  0  0  0  0  0  0  0  0  0
  161.1560  203.7490  148.1850 C   0  0  0  0  0  0  0  0  0  0  0  0
  161.4300  206.6920  147.7340 C   0  0  0  0  0  2  0  0  0  0  0  0
  162.5740  204.3160  144.9380 F   0  0  0  0  0  0  0  0  0  0  0  0
  162.0080  204.8310  146.0560 C   0  0  0  0  0  0  0  0  0  0  0  0
  161.0090  204.9160  149.1390 C   0  0  2  0  0  3  0  0  0  0  0  0
  162.1400  206.2980  146.4040 C   0  0  0  0  0  2  0  0  0  0  0  0
  161.9340  205.9540  148.8330 O   0  0  0  0  0  0  0  0  0  0  0  0
  160.7510  202.4570  148.4960 O   0  0  0  0  0  1  0  0  0  0  0  0
  158.9420  211.3840  156.8900 C   0  0  0  0  0  1  0  0  0  0  0  0
  160.4890  213.2940  156.9800 C   0  0  0  0  0  1  0  0  0  0  0  0
  159.8400  212.2820  156.0420 C   0  0  0  0  0  0  0  0  0  0  0  0
  159.3970  214.4250  154.9620 O   0  0  0  0  0  1  0  0  0  0  0  0
  159.0100  213.0790  155.0050 C   0  0  2  0  0  3  0  0  0  0  0  0
  157.4820  212.9590  155.1450 C   0  0  1  0  0  3  0  0  0  0  0  0
  156.1040  214.4520  153.8070 C   0  0  0  0  0  1  0  0  0  0  0  0
  155.7840  214.2990  156.1280 C   0  0  0  0  0  1  0  0  0  0  0  0
  156.7910  214.2600  155.0800 N   0  0  0  0  0  0  0  0  0  0  0  0
  157.5440  211.4200  153.2950 O   0  0  0  0  0  0  0  0  0  0  0  0
  156.8910  211.8790  154.2740 C   0  0  0  0  0  0  0  0  0  0  0  0
  155.6030  211.4200  154.5470 O   0  0  0  0  0  0  0  0  0  0  0  0
  155.3730  210.2340  155.2920 C   0  0  0  0  0  1  0  0  0  0  0  0
  1  3  1  0  0  0  0
  1 11  1  0  0  0  0
  4 13  2  0  0  0  0
  4  9  1  0  0  0  0
  5  6  2  0  0  0  0
  7 14  1  0  0  0  0
  7  1  2  0  0  0  0
  8 13  1  0  0  0  0
  9 10  1  0  0  0  0
 10  6  1  0  0  0  0
 10  3  2  0  0  0  0
 11  2  1  6  0  0  0
 12 27  1  1  0  0  0
 12 11  1  0  0  0  0
 13  5  1  0  0  0  0
 14 12  1  0  0  0  0
 15  9  2  0  0  0  0
 15  7  1  0  0  0  0
 16 17  2  0  0  0  0
 17 24  1  0  0  0  0
 17 21  1  0  0  0  0
 18 23  1  0  0  0  0
 19 20  1  0  0  0  0
 20 22  1  0  0  0  0
 20 16  2  0  0  0  0
 21  8  1  1  0  0  0
 22 18  1  0  0  0  0
 23 21  1  0  0  0  0
 27 25  1  0  0  0  0
 27 26  1  0  0  0  0
 29 28  1  1  0  0  0
 29 30  1  0  0  0  0
 29 27  1  0  0  0  0
 30 35  1  6  0  0  0
 31 33  1  0  0  0  0
 33 30  1  0  0  0  0
 33 32  1  0  0  0  0
 34 35  2  0  0  0  0
 35 36  1  0  0  0  0
 36 37  1  0  0  0  0
M  END
>  <MODEL>
2

>  <REMARK>
 VINA RESULT:      -8.5      1.236      1.788
  Name = 
  7 active torsions:
  status: ('A' for Active; 'I' for Inactive)
    1  A    between atoms: O_2  and  C_16
    2  A    between atoms: C_6  and  C_16
    3  A    between atoms: C_6  and  N_23
    4  A    between atoms: C_6  and  C_25
    5  A    between atoms: C_20  and  C_26
    6  A    between atoms: C_25  and  C_28
    7  A    between atoms: C_28  and  C_34
                            x       y       z     vdW  Elec       q    Type
                         _______ _______ _______ _____ _____    ______ ____

>  <TORSDO>
F 7

$$$$
=
 OpenBabel11072413013D

 37 40  0  0  1  0  0  0  0  0999 V2000
  161.0070  208.1200  154.5870 C   0  0  0  0  0  0  0  0  0  0  0  0
  161.9380  208.4890  156.7150 O   0  0  0  0  0  1  0  0  0  0  0  0
  160.8420  206.7430  154.4370 C   0  0  0  0  0  3  0  0  0  0  0  0
  161.3130  206.4620  150.6460 C   0  0  0  0  0  3  0  0  0  0  0  0
  161.0100  204.1790  151.7330 N   0  0  0  0  0  0  0  0  0  0  0  0
  160.8070  204.7780  152.9840 N   0  0  0  0  0  0  0  0  0  0  0  0
  161.2590  208.9240  153.5080 C   0  0  0  0  0  0  0  0  0  0  0  0
  161.6380  204.3220  149.4490 C   0  0  0  0  0  2  0  0  0  0  0  0
  161.2280  207.0140  152.0410 C   0  0  0  0  0  0  0  0  0  0  0  0
  160.9540  206.1860  153.1540 C   0  0  0  0  0  0  0  0  0  0  0  0
  160.9190  208.8870  155.8470 C   0  0  1  0  0  3  0  0  0  0  0  0
  161.1600  210.3520  155.4130 C   0  0  1  0  0  3  0  0  0  0  0  0
  161.3460  204.9570  150.5830 C   0  0  0  0  0  0  0  0  0  0  0  0
  161.3580  210.3480  153.8820 C   0  0  0  0  0  2  0  0  0  0  0  0
  161.3700  208.3980  152.2210 C   0  0  0  0  0  3  0  0  0  0  0  0
  160.7790  205.8740  146.3320 C   0  0  0  0  0  0  0  0  0  0  0  0
  160.7950  205.7550  147.6190 C   0  0  0  0  0  0  0  0  0  0  0  0
  163.2720  204.7600  146.2730 C   0  0  0  0  0  2  0  0  0  0  0  0
  160.3760  205.9850  144.0630 F   0  0  0  0  0  0  0  0  0  0  0  0
  161.1920  205.7290  145.1140 C   0  0  0  0  0  0  0  0  0  0  0  0
  161.9980  205.0200  148.1740 C   0  0  2  0  0  3  0  0  0  0  0  0
  162.4840  204.9600  144.9440 C   0  0  0  0  0  2  0  0  0  0  0  0
  162.4990  204.0700  147.2390 O   0  0  0  0  0  0  0  0  0  0  0  0
  159.8420  206.3680  148.4220 O   0  0  0  0  0  1  0  0  0  0  0  0
  158.7300  210.5830  156.1060 C   0  0  0  0  0  1  0  0  0  0  0  0
  160.4740  211.8780  157.2610 C   0  0  0  0  0  1  0  0  0  0  0  0
  160.0520  211.3200  155.9050 C   0  0  0  0  0  0  0  0  0  0  0  0
  160.0470  213.7430  155.6140 O   0  0  0  0  0  1  0  0  0  0  0  0
  159.8780  212.5240  154.9450 C   0  0  2  0  0  3  0  0  0  0  0  0
  158.5770  212.5330  154.1230 C   0  0  1  0  0  3  0  0  0  0  0  0
  157.0550  214.3700  153.6450 C   0  0  0  0  0  1  0  0  0  0  0  0
  156.4290  212.6640  155.1320 C   0  0  0  0  0  1  0  0  0  0  0  0
  157.5570  213.4520  154.6610 N   0  0  0  0  0  0  0  0  0  0  0  0
  158.1210  211.9740  151.8270 O   0  0  0  0  0  0  0  0  0  0  0  0
  158.8160  212.6470  152.6380 C   0  0  0  0  0  0  0  0  0  0  0  0
  159.8350  213.4810  152.1790 O   0  0  0  0  0  0  0  0  0  0  0  0
  159.6960  214.2510  150.9950 C   0  0  0  0  0  1  0  0  0  0  0  0
  1 11  1  0  0  0  0
  3  1  1  0  0  0  0
  4  9  1  0  0  0  0
  5  6  2  0  0  0  0
  6 10  1  0  0  0  0
  7 14  1  0  0  0  0
  7  1  2  0  0  0  0
  8 13  1  0  0  0  0
  9 15  2  0  0  0  0
  9 10  1  0  0  0  0
 10  3  2  0  0  0  0
 11  2  1  1  0  0  0
 12 11  1  0  0  0  0
 12 27  1  6  0  0  0
 13  4  2  0  0  0  0
 13  5  1  0  0  0  0
 14 12  1  0  0  0  0
 15  7  1  0  0  0  0
 16 17  2  0  0  0  0
 17 21  1  0  0  0  0
 17 24  1  0  0  0  0
 18 23  1  0  0  0  0
 19 20  1  0  0  0  0
 20 16  2  0  0  0  0
 21  8  1  1  0  0  0
 22 20  1  0  0  0  0
 22 18  1  0  0  0  0
 23 21  1  0  0  0  0
 27 25  1  0  0  0  0
 27 26  1  0  0  0  0
 29 28  1  1  0  0  0
 29 27  1  0  0  0  0
 30 35  1  6  0  0  0
 30 33  1  0  0  0  0
 30 29  1  0  0  0  0
 31 33  1  0  0  0  0
 33 32  1  0  0  0  0
 34 35  2  0  0  0  0
 36 35  1  0  0  0  0
 37 36  1  0  0  0  0
M  END
>  <MODEL>
3

>  <REMARK>
 VINA RESULT:      -6.9      1.186      1.440
  Name = 
  7 active torsions:
  status: ('A' for Active; 'I' for Inactive)
    1  A    between atoms: O_2  and  C_16
    2  A    between atoms: C_6  and  C_16
    3  A    between atoms: C_6  and  N_23
    4  A    between atoms: C_6  and  C_25
    5  A    between atoms: C_20  and  C_26
    6  A    between atoms: C_25  and  C_28
    7  A    between atoms: C_28  and  C_34
                            x       y       z     vdW  Elec       q    Type
                         _______ _______ _______ _____ _____    ______ ____

>  <TORSDO>
F 7

$$$$
=
 OpenBabel11072413013D

 37 40  0  0  1  0  0  0  0  0999 V2000
  161.3210  205.5500  150.5870 C   0  0  0  0  0  0  0  0  0  0  0  0
  160.6520  203.4100  149.8780 O   0  0  0  0  0  1  0  0  0  0  0  0
  161.6910  205.4490  151.9280 C   0  0  0  0  0  3  0  0  0  0  0  0
  160.7430  208.9670  153.1100 C   0  0  0  0  0  3  0  0  0  0  0  0
  161.5720  207.5160  155.0310 N   0  0  0  0  0  0  0  0  0  0  0  0
  161.8470  206.4640  154.1460 N   0  0  0  0  0  0  0  0  0  0  0  0
  160.7890  206.7080  150.0850 C   0  0  0  0  0  0  0  0  0  0  0  0
  160.6130  209.6380  155.4870 C   0  0  0  0  0  2  0  0  0  0  0  0
  160.9300  207.7470  152.2540 C   0  0  0  0  0  0  0  0  0  0  0  0
  161.4930  206.5560  152.7680 C   0  0  0  0  0  0  0  0  0  0  0  0
  161.4570  204.5030  149.5530 C   0  0  1  0  0  3  0  0  0  0  0  0
  160.9170  205.1730  148.2670 C   0  0  1  0  0  3  0  0  0  0  0  0
  160.9520  208.7210  154.5810 C   0  0  0  0  0  0  0  0  0  0  0  0
  160.5080  206.6140  148.6400 C   0  0  0  0  0  2  0  0  0  0  0  0
  160.5870  207.8240  150.8960 C   0  0  0  0  0  3  0  0  0  0  0  0
  159.0960  212.7580  156.3960 C   0  0  0  0  0  0  0  0  0  0  0  0
  160.0590  211.9000  156.3180 C   0  0  0  0  0  0  0  0  0  0  0  0
  158.1700  211.8230  154.0030 C   0  0  0  0  0  2  0  0  0  0  0  0
  157.3730  214.2020  156.9150 F   0  0  0  0  0  0  0  0  0  0  0  0
  157.9950  213.3510  156.0650 C   0  0  0  0  0  0  0  0  0  0  0  0
  159.9650  210.9450  155.1460 C   0  0  2  0  0  3  0  0  0  0  0  0
  157.2900  212.7950  154.8460 C   0  0  0  0  0  2  0  0  0  0  0  0
  158.6110  210.7190  154.7720 O   0  0  0  0  0  0  0  0  0  0  0  0
  161.1510  211.9460  157.1760 O   0  0  0  0  0  1  0  0  0  0  0  0
  161.4650  205.9910  145.9280 C   0  0  0  0  0  1  0  0  0  0  0  0
  163.2690  205.5770  147.5480 C   0  0  0  0  0  1  0  0  0  0  0  0
  161.9060  205.0840  147.0750 C   0  0  0  0  0  0  0  0  0  0  0  0
  162.8740  203.5580  145.4350 O   0  0  0  0  0  1  0  0  0  0  0  0
  162.0860  203.6230  146.5910 C   0  0  2  0  0  3  0  0  0  0  0  0
  160.7860  202.8200  146.4070 C   0  0  1  0  0  3  0  0  0  0  0  0
  159.7020  201.3240  144.8240 C   0  0  0  0  0  1  0  0  0  0  0  0
  159.6380  203.6490  144.4990 C   0  0  0  0  0  1  0  0  0  0  0  0
  160.4630  202.5580  144.9930 N   0  0  0  0  0  0  0  0  0  0  0  0
  159.7110  201.4720  148.0860 O   0  0  0  0  0  0  0  0  0  0  0  0
  160.6990  201.6180  147.3140 C   0  0  0  0  0  0  0  0  0  0  0  0
  161.7400  200.6900  147.3090 O   0  0  0  0  0  0  0  0  0  0  0  0
  161.5910  199.4000  146.7360 C   0  0  0  0  0  1  0  0  0  0  0  0
  1  3  1  0  0  0  0
  3 10  2  0  0  0  0
  4 13  2  0  0  0  0
  6  5  2  0  0  0  0
  7  1  2  0  0  0  0
  7 15  1  0  0  0  0
  9 10  1  0  0  0  0
  9  4  1  0  0  0  0
 10  6  1  0  0  0  0
 11  2  1  1  0  0  0
 11  1  1  0  0  0  0
 12 27  1  6  0  0  0
 12 14  1  0  0  0  0
 12 11  1  0  0  0  0
 13  5  1  0  0  0  0
 13  8  1  0  0  0  0
 14  7  1  0  0  0  0
 15  9  2  0  0  0  0
 17 16  2  0  0  0  0
 17 24  1  0  0  0  0
 18 23  1  0  0  0  0
 18 22  1  0  0  0  0
 20 16  2  0  0  0  0
 20 19  1  0  0  0  0
 21  8  1  1  0  0  0
 21 17  1  0  0  0  0
 22 20  1  0  0  0  0
 23 21  1  0  0  0  0
 25 27  1  0  0  0  0
 27 26  1  0  0  0  0
 29 28  1  6  0  0  0
 29 27  1  0  0  0  0
 30 29  1  0  0  0  0
 30 35  1  1  0  0  0
 31 33  1  0  0  0  0
 32 33  1  0  0  0  0
 33 30  1  0  0  0  0
 35 34  2  0  0  0  0
 36 35  1  0  0  0  0
 37 36  1  0  0  0  0
M  END
>  <MODEL>
4

>  <REMARK>
 VINA RESULT:      -6.2      3.602     10.642
  Name = 
  7 active torsions:
  status: ('A' for Active; 'I' for Inactive)
    1  A    between atoms: O_2  and  C_16
    2  A    between atoms: C_6  and  C_16
    3  A    between atoms: C_6  and  N_23
    4  A    between atoms: C_6  and  C_25
    5  A    between atoms: C_20  and  C_26
    6  A    between atoms: C_25  and  C_28
    7  A    between atoms: C_28  and  C_34
                            x       y       z     vdW  Elec       q    Type
                         _______ _______ _______ _____ _____    ______ ____

>  <TORSDO>
F 7

$$$$
