=
 OpenBabel11072413073D

 35 39  0  0  1  0  0  0  0  0999 V2000
  162.2240  204.9960  145.5460 C   0  0  2  0  0  0  0  0  0  0  0  0
  162.7670  207.3070  148.2620 C   0  0  0  0  0  3  0  0  0  0  0  0
  161.7630  207.3750  149.3340 C   0  0  0  0  0  0  0  0  0  0  0  0
  160.9820  203.9130  150.6610 C   0  0  2  0  0  3  0  0  0  0  0  0
  161.6680  208.4720  150.0230 N   0  0  0  0  0  0  0  0  0  0  0  0
  159.9850  203.1450  147.5450 C   0  0  0  0  0  2  0  0  0  0  0  0
  161.1880  202.8760  146.6200 C   0  0  1  0  0  3  0  0  0  0  0  0
  161.3170  200.3980  146.9680 C   0  0  0  0  0  3  0  0  0  0  0  0
  159.9760  204.2230  144.7750 C   0  0  0  0  0  2  0  0  0  0  0  0
  161.4830  200.5270  148.4510 C   0  0  0  0  0  2  0  0  0  0  0  0
  160.2200  202.6630  148.9770 C   0  0  2  0  0  3  0  0  0  0  0  0
  163.0310  205.1660  146.7940 C   0  0  0  0  0  3  0  0  0  0  0  0
  161.3880  203.2220  149.5130 O   0  0  0  0  0  0  0  0  0  0  0  0
  160.9050  206.1820  149.6440 C   0  0  0  0  0  2  0  0  0  0  0  0
  161.1870  201.4490  146.1500 C   0  0  0  0  0  3  0  0  0  0  0  0
  161.3010  203.7980  145.3820 C   0  0  2  0  0  0  0  0  0  0  0  0
  160.2410  201.1380  149.0920 C   0  0  0  0  0  2  0  0  0  0  0  0
  162.9150  206.2410  147.5240 C   0  0  0  0  0  0  0  0  0  0  0  0
  162.7540  205.4980  144.3560 O   0  0  0  0  0  1  0  0  0  0  0  0
  161.5990  205.3010  150.6660 C   0  0  0  0  0  2  0  0  0  0  0  0
  160.7290  205.1900  145.6730 C   0  0  1  0  0  3  0  0  0  0  0  0
  161.0320  203.5500  153.0290 O   0  0  0  0  0  1  0  0  0  0  0  0
  161.4090  203.1730  151.8880 C   0  0  0  0  0  0  0  0  0  0  0  0
  162.1990  202.0380  151.7640 O   0  0  0  0  0  0  0  0  0  0  0  0
  160.7300  208.6570  151.1210 C   0  0  0  0  0  2  0  0  0  0  0  0
  161.4050  209.3720  152.2420 C   0  0  0  0  0  0  0  0  0  0  0  0
  162.4700  209.9360  152.0510 O   0  0  0  0  0  0  0  0  0  0  0  0
  160.8140  209.3510  153.6140 C   0  0  0  0  0  2  0  0  0  0  0  0
  161.1420  208.1540  154.2560 O   0  0  0  0  0  0  0  0  0  0  0  0
  162.3110  209.2680  157.0090 C   0  0  0  0  0  2  0  0  0  0  0  0
  160.0060  210.0800  156.9870 O   0  0  0  0  0  0  0  0  0  0  0  0
  160.5350  208.2360  155.5110 C   0  0  2  0  0  3  0  0  0  0  0  0
  159.8680  209.6120  155.6690 C   0  0  0  0  0  2  0  0  0  0  0  0
  161.5740  207.9860  156.6100 C   0  0  0  0  0  2  0  0  0  0  0  0
  161.3530  210.4660  157.1250 C   0  0  0  0  0  2  0  0  0  0  0  0
  1 19  1  6  0  0  0
  1 21  1  0  0  0  0
  1 12  1  0  0  0  0
  2  3  1  0  0  0  0
  3 14  1  0  0  0  0
  3  5  2  0  0  0  0
  4 20  1  0  0  0  0
  4 23  1  1  0  0  0
  5 25  1  0  0  0  0
  7 15  1  6  0  0  0
  7  6  1  0  0  0  0
  8 10  1  0  0  0  0
 10 17  1  0  0  0  0
 11  6  1  6  0  0  0
 11 17  1  0  0  0  0
 11 13  1  0  0  0  0
 12 18  2  0  0  0  0
 13  4  1  0  0  0  0
 14 20  1  0  0  0  0
 15  8  2  0  0  0  0
 16  9  1  6  0  0  0
 16  1  1  0  0  0  0
 16 21  1  0  0  0  0
 16  7  1  0  0  0  0
 18  2  2  0  0  0  0
 21  9  1  6  0  0  0
 23 22  1  0  0  0  0
 24 23  2  0  0  0  0
 25 26  1  0  0  0  0
 26 28  1  0  0  0  0
 27 26  2  0  0  0  0
 28 29  1  0  0  0  0
 30 35  1  0  0  0  0
 31 35  1  0  0  0  0
 32 29  1  6  0  0  0
 32 33  1  0  0  0  0
 32 34  1  0  0  0  0
 33 31  1  0  0  0  0
 34 30  1  0  0  0  0
M  END
>  <MODEL>
1

>  <REMARK>
 VINA RESULT:      -6.1      0.000      0.000
  Name = 
  6 active torsions:
  status: ('A' for Active; 'I' for Inactive)
    1  A    between atoms: C_5  and  C_28
    2  A    between atoms: C_6  and  C_19
    3  A    between atoms: C_6  and  C_20
    4  A    between atoms: N_7  and  C_20
    5  A    between atoms: O_9  and  C_16
    6  A    between atoms: O_9  and  C_19
                            x       y       z     vdW  Elec       q    Type
                         _______ _______ _______ _____ _____    ______ ____

>  <TORSDO>
F 6

$$$$
=
 OpenBabel11072413073D

 35 39  0  0  1  0  0  0  0  0999 V2000
  161.4730  209.7400  156.2150 C   0  0  2  0  0  0  0  0  0  0  0  0
  162.8520  210.0950  152.9000 C   0  0  0  0  0  3  0  0  0  0  0  0
  161.9420  209.9930  151.7490 C   0  0  0  0  0  0  0  0  0  0  0  0
  158.9460  212.2680  152.2020 C   0  0  2  0  0  3  0  0  0  0  0  0
  162.4350  209.6360  150.6030 N   0  0  0  0  0  0  0  0  0  0  0  0
  158.2600  210.5060  154.9800 C   0  0  0  0  0  2  0  0  0  0  0  0
  159.1680  210.9260  156.1510 C   0  0  1  0  0  3  0  0  0  0  0  0
  157.6530  212.6650  157.1290 C   0  0  0  0  0  3  0  0  0  0  0  0
  159.4200  208.4250  156.7580 C   0  0  0  0  0  2  0  0  0  0  0  0
  157.5970  213.4570  155.8580 C   0  0  0  0  0  2  0  0  0  0  0  0
  157.8830  211.6770  154.0730 C   0  0  2  0  0  3  0  0  0  0  0  0
  161.9710  210.7780  155.2590 C   0  0  0  0  0  3  0  0  0  0  0  0
  159.0250  212.3360  153.5980 O   0  0  0  0  0  0  0  0  0  0  0  0
  160.4890  210.3400  151.9000 C   0  0  0  0  0  2  0  0  0  0  0  0
  158.3580  211.5350  157.2600 C   0  0  0  0  0  3  0  0  0  0  0  0
  160.0510  209.8050  156.7510 C   0  0  2  0  0  0  0  0  0  0  0  0
  156.9230  212.6610  154.7450 C   0  0  0  0  0  2  0  0  0  0  0  0
  162.4270  210.4420  154.0840 C   0  0  0  0  0  0  0  0  0  0  0  0
  162.4010  209.1510  157.0750 O   0  0  0  0  0  1  0  0  0  0  0  0
  160.2820  211.8200  151.6370 C   0  0  0  0  0  2  0  0  0  0  0  0
  160.4370  208.7730  155.6860 C   0  0  1  0  0  3  0  0  0  0  0  0
  159.4860  214.4450  151.3610 O   0  0  0  0  0  0  0  0  0  0  0  0
  158.5890  213.6060  151.6380 C   0  0  0  0  0  0  0  0  0  0  0  0
  157.2600  213.9120  151.3840 O   0  0  0  0  0  1  0  0  0  0  0  0
  161.6440  209.5170  149.3850 C   0  0  0  0  0  2  0  0  0  0  0  0
  161.9410  208.2160  148.7190 C   0  0  0  0  0  0  0  0  0  0  0  0
  163.0020  208.0580  148.1380 O   0  0  0  0  0  0  0  0  0  0  0  0
  160.9200  207.1260  148.7060 C   0  0  0  0  0  2  0  0  0  0  0  0
  160.5450  206.8080  150.0140 O   0  0  0  0  0  0  0  0  0  0  0  0
  161.5990  206.1800  152.9600 C   0  0  0  0  0  2  0  0  0  0  0  0
  161.3630  203.9690  151.9450 O   0  0  0  0  0  0  0  0  0  0  0  0
  161.4790  205.8620  150.4410 C   0  0  2  0  0  3  0  0  0  0  0  0
  160.7540  204.5630  150.8270 C   0  0  0  0  0  2  0  0  0  0  0  0
  162.2900  206.4230  151.6150 C   0  0  0  0  0  2  0  0  0  0  0  0
  161.0060  204.7640  153.0510 C   0  0  0  0  0  2  0  0  0  0  0  0
  1 16  1  0  0  0  0
  1 19  1  1  0  0  0
  2 18  2  0  0  0  0
  3 14  1  0  0  0  0
  3  2  1  0  0  0  0
  4 23  1  6  0  0  0
  4 13  1  0  0  0  0
  5  3  2  0  0  0  0
  7  6  1  6  0  0  0
  7 16  1  0  0  0  0
  7 15  1  0  0  0  0
  8 15  2  0  0  0  0
 10  8  1  0  0  0  0
 11 17  1  1  0  0  0
 11  6  1  0  0  0  0
 12  1  1  0  0  0  0
 13 11  1  0  0  0  0
 16  9  1  1  0  0  0
 17 10  1  0  0  0  0
 18 12  2  0  0  0  0
 20 14  1  0  0  0  0
 20  4  1  0  0  0  0
 21  1  1  0  0  0  0
 21 16  1  0  0  0  0
 21  9  1  1  0  0  0
 22 23  2  0  0  0  0
 24 23  1  0  0  0  0
 25  5  1  0  0  0  0
 26 25  1  0  0  0  0
 27 26  2  0  0  0  0
 28 26  1  0  0  0  0
 28 29  1  0  0  0  0
 30 35  1  0  0  0  0
 31 35  1  0  0  0  0
 32 29  1  1  0  0  0
 32 33  1  0  0  0  0
 32 34  1  0  0  0  0
 33 31  1  0  0  0  0
 34 30  1  0  0  0  0
M  END
>  <MODEL>
2

>  <REMARK>
 VINA RESULT:      -5.9      3.078      9.642
  Name = 
  6 active torsions:
  status: ('A' for Active; 'I' for Inactive)
    1  A    between atoms: C_5  and  C_28
    2  A    between atoms: C_6  and  C_19
    3  A    between atoms: C_6  and  C_20
    4  A    between atoms: N_7  and  C_20
    5  A    between atoms: O_9  and  C_16
    6  A    between atoms: O_9  and  C_19
                            x       y       z     vdW  Elec       q    Type
                         _______ _______ _______ _____ _____    ______ ____

>  <TORSDO>
F 6

$$$$
=
 OpenBabel11072413073D

 35 39  0  0  1  0  0  0  0  0999 V2000
  162.2220  204.9910  145.5370 C   0  0  2  0  0  0  0  0  0  0  0  0
  162.7720  207.3130  148.2430 C   0  0  0  0  0  3  0  0  0  0  0  0
  161.7700  207.3860  149.3170 C   0  0  0  0  0  0  0  0  0  0  0  0
  160.9880  203.9300  150.6590 C   0  0  2  0  0  3  0  0  0  0  0  0
  161.6780  208.4850  150.0010 N   0  0  0  0  0  0  0  0  0  0  0  0
  159.9860  203.1490  147.5480 C   0  0  0  0  0  2  0  0  0  0  0  0
  161.1870  202.8760  146.6220 C   0  0  1  0  0  3  0  0  0  0  0  0
  161.3150  200.4000  146.9800 C   0  0  0  0  0  3  0  0  0  0  0  0
  159.9730  204.2170  144.7730 C   0  0  0  0  0  2  0  0  0  0  0  0
  161.4830  200.5340  148.4620 C   0  0  0  0  0  2  0  0  0  0  0  0
  160.2230  202.6730  148.9810 C   0  0  2  0  0  3  0  0  0  0  0  0
  163.0320  205.1660  146.7840 C   0  0  0  0  0  3  0  0  0  0  0  0
  161.3920  203.2340  149.5130 O   0  0  0  0  0  0  0  0  0  0  0  0
  160.9120  206.1950  149.6340 C   0  0  0  0  0  2  0  0  0  0  0  0
  161.1840  201.4470  146.1570 C   0  0  0  0  0  3  0  0  0  0  0  0
  161.2980  203.7930  145.3800 C   0  0  2  0  0  0  0  0  0  0  0  0
  160.2430  201.1480  149.1020 C   0  0  0  0  0  2  0  0  0  0  0  0
  162.9180  206.2430  147.5090 C   0  0  0  0  0  0  0  0  0  0  0  0
  162.7510  205.4870  144.3450 O   0  0  0  0  0  1  0  0  0  0  0  0
  161.6070  205.3170  150.6570 C   0  0  0  0  0  2  0  0  0  0  0  0
  160.7280  205.1860  145.6660 C   0  0  1  0  0  3  0  0  0  0  0  0
  161.0220  203.5600  153.0260 O   0  0  0  0  0  1  0  0  0  0  0  0
  161.4180  203.1940  151.8880 C   0  0  0  0  0  0  0  0  0  0  0  0
  162.2300  202.0750  151.7700 O   0  0  0  0  0  0  0  0  0  0  0  0
  160.7410  208.6750  151.1010 C   0  0  0  0  0  2  0  0  0  0  0  0
  161.3280  209.6110  152.1030 C   0  0  0  0  0  0  0  0  0  0  0  0
  162.4970  209.9470  152.0110 O   0  0  0  0  0  0  0  0  0  0  0  0
  160.5090  210.0900  153.2560 C   0  0  0  0  0  2  0  0  0  0  0  0
  160.5860  211.4820  153.3500 O   0  0  0  0  0  0  0  0  0  0  0  0
  157.7750  212.4290  154.5290 C   0  0  0  0  0  2  0  0  0  0  0  0
  158.6010  210.8490  156.2000 O   0  0  0  0  0  0  0  0  0  0  0  0
  160.2280  211.7770  154.6680 C   0  0  2  0  0  3  0  0  0  0  0  0
  159.6630  210.5170  155.3410 C   0  0  0  0  0  2  0  0  0  0  0  0
  159.2150  212.9280  154.6870 C   0  0  0  0  0  2  0  0  0  0  0  0
  157.5110  211.1670  155.3670 C   0  0  0  0  0  2  0  0  0  0  0  0
  1 19  1  6  0  0  0
  1 21  1  0  0  0  0
  1 12  1  0  0  0  0
  2  3  1  0  0  0  0
  3 14  1  0  0  0  0
  3  5  2  0  0  0  0
  4 23  1  1  0  0  0
  5 25  1  0  0  0  0
  7 15  1  6  0  0  0
  7  6  1  0  0  0  0
  8 10  1  0  0  0  0
 10 17  1  0  0  0  0
 11  6  1  6  0  0  0
 11 17  1  0  0  0  0
 11 13  1  0  0  0  0
 12 18  2  0  0  0  0
 13  4  1  0  0  0  0
 14 20  1  0  0  0  0
 15  8  2  0  0  0  0
 16  9  1  6  0  0  0
 16  1  1  0  0  0  0
 16 21  1  0  0  0  0
 16  7  1  0  0  0  0
 18  2  2  0  0  0  0
 20  4  1  0  0  0  0
 21  9  1  6  0  0  0
 23 22  1  0  0  0  0
 24 23  2  0  0  0  0
 25 26  1  0  0  0  0
 26 28  1  0  0  0  0
 27 26  2  0  0  0  0
 28 29  1  0  0  0  0
 30 34  1  0  0  0  0
 30 35  1  0  0  0  0
 32 29  1  6  0  0  0
 32 34  1  0  0  0  0
 32 33  1  0  0  0  0
 33 31  1  0  0  0  0
 35 31  1  0  0  0  0
M  END
>  <MODEL>
3

>  <REMARK>
 VINA RESULT:      -5.8      1.225      1.846
  Name = 
  6 active torsions:
  status: ('A' for Active; 'I' for Inactive)
    1  A    between atoms: C_5  and  C_28
    2  A    between atoms: C_6  and  C_19
    3  A    between atoms: C_6  and  C_20
    4  A    between atoms: N_7  and  C_20
    5  A    between atoms: O_9  and  C_16
    6  A    between atoms: O_9  and  C_19
                            x       y       z     vdW  Elec       q    Type
                         _______ _______ _______ _____ _____    ______ ____

>  <TORSDO>
F 6

$$$$
=
 OpenBabel11072413073D

 35 39  0  0  1  0  0  0  0  0999 V2000
  161.7930  210.1890  156.3620 C   0  0  2  0  0  0  0  0  0  0  0  0
  162.9620  209.9000  152.9620 C   0  0  0  0  0  3  0  0  0  0  0  0
  161.9790  209.6120  151.9060 C   0  0  0  0  0  0  0  0  0  0  0  0
  159.0500  212.0060  152.1130 C   0  0  2  0  0  3  0  0  0  0  0  0
  162.3930  209.0400  150.8170 N   0  0  0  0  0  0  0  0  0  0  0  0
  158.5190  210.7980  155.2040 C   0  0  0  0  0  2  0  0  0  0  0  0
  159.5050  211.4020  156.2210 C   0  0  1  0  0  3  0  0  0  0  0  0
  158.0800  213.3270  156.9520 C   0  0  0  0  0  3  0  0  0  0  0  0
  159.7610  209.0470  157.2610 C   0  0  0  0  0  2  0  0  0  0  0  0
  157.9530  213.8750  155.5640 C   0  0  0  0  0  2  0  0  0  0  0  0
  158.1000  211.7930  154.1220 C   0  0  2  0  0  3  0  0  0  0  0  0
  162.2430  211.0230  155.2040 C   0  0  0  0  0  3  0  0  0  0  0  0
  159.2180  212.3260  153.4660 O   0  0  0  0  0  0  0  0  0  0  0  0
  160.5440  210.0170  152.0780 C   0  0  0  0  0  2  0  0  0  0  0  0
  158.7750  212.2220  157.2460 C   0  0  0  0  0  3  0  0  0  0  0  0
  160.4090  210.3870  156.9620 C   0  0  2  0  0  0  0  0  0  0  0  0
  157.1990  212.9070  154.6590 C   0  0  0  0  0  2  0  0  0  0  0  0
  162.6190  210.4670  154.0860 C   0  0  0  0  0  0  0  0  0  0  0  0
  162.7660  209.7440  157.2590 O   0  0  0  0  0  1  0  0  0  0  0  0
  160.3410  211.4290  151.5610 C   0  0  0  0  0  2  0  0  0  0  0  0
  160.7120  209.1680  156.0830 C   0  0  1  0  0  3  0  0  0  0  0  0
  159.5640  213.9440  150.8030 O   0  0  0  0  0  0  0  0  0  0  0  0
  158.6760  213.2270  151.3360 C   0  0  0  0  0  0  0  0  0  0  0  0
  157.3370  213.5540  151.1710 O   0  0  0  0  0  1  0  0  0  0  0  0
  161.5240  208.7210  149.6920 C   0  0  0  0  0  2  0  0  0  0  0  0
  161.2050  207.2640  149.7010 C   0  0  0  0  0  0  0  0  0  0  0  0
  161.4310  206.5980  150.6980 O   0  0  0  0  0  0  0  0  0  0  0  0
  160.6680  206.6020  148.4750 C   0  0  0  0  0  2  0  0  0  0  0  0
  161.5740  205.6450  148.0130 O   0  0  0  0  0  0  0  0  0  0  0  0
  162.0360  203.8830  145.3920 C   0  0  0  0  0  2  0  0  0  0  0  0
  160.7970  205.8250  144.5750 O   0  0  0  0  0  0  0  0  0  0  0  0
  161.9010  206.0490  146.7170 C   0  0  2  0  0  3  0  0  0  0  0  0
  160.6140  206.2490  145.9020 C   0  0  0  0  0  2  0  0  0  0  0  0
  162.8230  205.0110  146.0650 C   0  0  0  0  0  2  0  0  0  0  0  0
  160.8200  204.4170  144.6150 C   0  0  0  0  0  2  0  0  0  0  0  0
  1 16  1  0  0  0  0
  1 19  1  1  0  0  0
  2 18  2  0  0  0  0
  3 14  1  0  0  0  0
  3  2  1  0  0  0  0
  4 23  1  6  0  0  0
  4 13  1  0  0  0  0
  5  3  2  0  0  0  0
  7  6  1  1  0  0  0
  7 16  1  0  0  0  0
  7 15  1  0  0  0  0
  8 15  2  0  0  0  0
 10  8  1  0  0  0  0
 11 17  1  1  0  0  0
 11  6  1  0  0  0  0
 12  1  1  0  0  0  0
 13 11  1  0  0  0  0
 16  9  1  1  0  0  0
 17 10  1  0  0  0  0
 18 12  2  0  0  0  0
 20 14  1  0  0  0  0
 20  4  1  0  0  0  0
 21  1  1  0  0  0  0
 21 16  1  0  0  0  0
 21  9  1  1  0  0  0
 22 23  2  0  0  0  0
 24 23  1  0  0  0  0
 25 26  1  0  0  0  0
 25  5  1  0  0  0  0
 26 27  2  0  0  0  0
 28 26  1  0  0  0  0
 29 28  1  0  0  0  0
 30 34  1  0  0  0  0
 31 35  1  0  0  0  0
 31 33  1  0  0  0  0
 32 29  1  1  0  0  0
 33 32  1  0  0  0  0
 34 32  1  0  0  0  0
 35 30  1  0  0  0  0
M  END
>  <MODEL>
4

>  <REMARK>
 VINA RESULT:      -5.7      2.806     10.595
  Name = 
  6 active torsions:
  status: ('A' for Active; 'I' for Inactive)
    1  A    between atoms: C_5  and  C_28
    2  A    between atoms: C_6  and  C_19
    3  A    between atoms: C_6  and  C_20
    4  A    between atoms: N_7  and  C_20
    5  A    between atoms: O_9  and  C_16
    6  A    between atoms: O_9  and  C_19
                            x       y       z     vdW  Elec       q    Type
                         _______ _______ _______ _____ _____    ______ ____

>  <TORSDO>
F 6

$$$$
=
 OpenBabel11072413073D

 35 39  0  0  1  0  0  0  0  0999 V2000
  159.9150  211.0000  153.9520 C   0  0  2  0  0  0  0  0  0  0  0  0
  160.0100  212.5480  150.6950 C   0  0  0  0  0  3  0  0  0  0  0  0
  161.1880  212.3190  149.8450 C   0  0  0  0  0  0  0  0  0  0  0  0
  161.9560  208.6170  149.5890 C   0  0  2  0  0  3  0  0  0  0  0  0
  161.4730  213.2000  148.9360 N   0  0  0  0  0  0  0  0  0  0  0  0
  162.3400  208.6540  152.9270 C   0  0  0  0  0  2  0  0  0  0  0  0
  160.9800  208.6550  153.6500 C   0  0  1  0  0  3  0  0  0  0  0  0
  160.7490  206.1740  153.9100 C   0  0  0  0  0  3  0  0  0  0  0  0
  161.9370  210.4060  155.2940 C   0  0  0  0  0  2  0  0  0  0  0  0
  160.8530  205.9210  152.4380 C   0  0  0  0  0  2  0  0  0  0  0  0
  162.3270  207.8260  151.6420 C   0  0  2  0  0  3  0  0  0  0  0  0
  159.3520  210.8610  152.5730 C   0  0  0  0  0  3  0  0  0  0  0  0
  161.3110  208.2520  150.7760 O   0  0  0  0  0  0  0  0  0  0  0  0
  162.0050  211.0690  150.0060 C   0  0  0  0  0  2  0  0  0  0  0  0
  160.8040  207.3970  154.4520 C   0  0  0  0  0  3  0  0  0  0  0  0
  160.7140  209.8650  154.5770 C   0  0  2  0  0  0  0  0  0  0  0  0
  162.2250  206.3230  151.9070 C   0  0  0  0  0  2  0  0  0  0  0  0
  159.6640  211.7100  151.6340 C   0  0  0  0  0  0  0  0  0  0  0  0
  159.2200  211.8000  154.8600 O   0  0  0  0  0  1  0  0  0  0  0  0
  161.4430  209.9690  149.1250 C   0  0  0  0  0  2  0  0  0  0  0  0
  161.4200  211.1250  154.0610 C   0  0  1  0  0  3  0  0  0  0  0  0
  162.5570  207.3740  147.6310 O   0  0  0  0  0  0  0  0  0  0  0  0
  161.7000  207.5960  148.5270 C   0  0  0  0  0  0  0  0  0  0  0  0
  160.5240  206.8590  148.5520 O   0  0  0  0  0  1  0  0  0  0  0  0
  162.5990  213.0780  148.0200 C   0  0  0  0  0  2  0  0  0  0  0  0
  162.1900  213.5320  146.6590 C   0  0  0  0  0  0  0  0  0  0  0  0
  162.8570  214.3660  146.0690 O   0  0  0  0  0  0  0  0  0  0  0  0
  160.9330  213.0150  146.0390 C   0  0  0  0  0  2  0  0  0  0  0  0
  160.8060  213.5080  144.7380 O   0  0  0  0  0  0  0  0  0  0  0  0
  159.8210  213.0200  141.7420 C   0  0  0  0  0  2  0  0  0  0  0  0
  162.0810  212.0880  141.7690 O   0  0  0  0  0  0  0  0  0  0  0  0
  160.9950  212.4000  143.9100 C   0  0  2  0  0  3  0  0  0  0  0  0
  162.2620  212.6020  143.0640 C   0  0  0  0  0  2  0  0  0  0  0  0
  159.7580  212.1900  143.0280 C   0  0  0  0  0  2  0  0  0  0  0  0
  161.2220  212.9880  141.1080 C   0  0  0  0  0  2  0  0  0  0  0  0
  1 21  1  0  0  0  0
  1 16  1  0  0  0  0
  1 19  1  1  0  0  0
  2 18  2  0  0  0  0
  3 14  1  0  0  0  0
  3  2  1  0  0  0  0
  4 23  1  6  0  0  0
  4 13  1  0  0  0  0
  5  3  2  0  0  0  0
  7  6  1  1  0  0  0
  7 15  1  0  0  0  0
  7 16  1  0  0  0  0
  8 15  2  0  0  0  0
 10  8  1  0  0  0  0
 11 17  1  1  0  0  0
 11  6  1  0  0  0  0
 12  1  1  0  0  0  0
 13 11  1  0  0  0  0
 16  9  1  1  0  0  0
 17 10  1  0  0  0  0
 18 12  2  0  0  0  0
 20  4  1  0  0  0  0
 20 14  1  0  0  0  0
 21 16  1  0  0  0  0
 21  9  1  1  0  0  0
 22 23  2  0  0  0  0
 23 24  1  0  0  0  0
 25  5  1  0  0  0  0
 26 25  1  0  0  0  0
 27 26  2  0  0  0  0
 28 26  1  0  0  0  0
 29 28  1  0  0  0  0
 30 34  1  0  0  0  0
 31 33  1  0  0  0  0
 32 29  1  6  0  0  0
 33 32  1  0  0  0  0
 34 32  1  0  0  0  0
 35 30  1  0  0  0  0
 35 31  1  0  0  0  0
M  END
>  <MODEL>
5

>  <REMARK>
 VINA RESULT:      -5.5      4.690      9.512
  Name = 
  6 active torsions:
  status: ('A' for Active; 'I' for Inactive)
    1  A    between atoms: C_5  and  C_28
    2  A    between atoms: C_6  and  C_19
    3  A    between atoms: C_6  and  C_20
    4  A    between atoms: N_7  and  C_20
    5  A    between atoms: O_9  and  C_16
    6  A    between atoms: O_9  and  C_19
                            x       y       z     vdW  Elec       q    Type
                         _______ _______ _______ _____ _____    ______ ____

>  <TORSDO>
F 6

$$$$
=
 OpenBabel11072413073D

 35 39  0  0  1  0  0  0  0  0999 V2000
  158.1080  212.8620  155.3670 C   0  0  2  0  0  0  0  0  0  0  0  0
  158.3830  213.1350  151.7810 C   0  0  0  0  0  3  0  0  0  0  0  0
  159.7070  212.9570  151.1650 C   0  0  0  0  0  0  0  0  0  0  0  0
  161.3370  209.7640  152.3900 C   0  0  2  0  0  3  0  0  0  0  0  0
  159.9290  213.5070  150.0100 N   0  0  0  0  0  0  0  0  0  0  0  0
  161.1420  211.0690  155.4810 C   0  0  0  0  0  2  0  0  0  0  0  0
  159.7170  210.9480  156.0540 C   0  0  1  0  0  3  0  0  0  0  0  0
  160.0230  208.7540  157.2230 C   0  0  0  0  0  3  0  0  0  0  0  0
  159.9600  213.3550  156.9690 C   0  0  0  0  0  2  0  0  0  0  0  0
  160.4250  208.0410  155.9690 C   0  0  0  0  0  2  0  0  0  0  0  0
  161.5340  209.8750  154.6110 C   0  0  2  0  0  3  0  0  0  0  0  0
  157.8280  212.0990  154.1100 C   0  0  0  0  0  3  0  0  0  0  0  0
  160.6050  209.6740  153.5810 O   0  0  0  0  0  0  0  0  0  0  0  0
  160.7510  212.1190  151.8440 C   0  0  0  0  0  2  0  0  0  0  0  0
  159.7050  210.0530  157.2610 C   0  0  0  0  0  3  0  0  0  0  0  0
  159.0300  212.2830  156.4300 C   0  0  2  0  0  0  0  0  0  0  0  0
  161.7380  208.5930  155.4210 C   0  0  0  0  0  2  0  0  0  0  0  0
  158.0890  212.6170  152.9420 C   0  0  0  0  0  0  0  0  0  0  0  0
  157.1060  213.7040  155.8520 O   0  0  0  0  0  1  0  0  0  0  0  0
  160.6110  210.6710  151.4130 C   0  0  0  0  0  2  0  0  0  0  0  0
  159.5030  213.4250  155.5220 C   0  0  1  0  0  3  0  0  0  0  0  0
  160.8710  207.4180  152.2390 O   0  0  0  0  0  1  0  0  0  0  0  0
  161.5030  208.4080  151.7830 C   0  0  0  0  0  0  0  0  0  0  0  0
  162.3330  208.2450  150.6830 O   0  0  0  0  0  0  0  0  0  0  0  0
  161.1890  213.3880  149.2880 C   0  0  0  0  0  2  0  0  0  0  0  0
  160.9860  212.5730  148.0560 C   0  0  0  0  0  0  0  0  0  0  0  0
  161.4750  211.4580  147.9760 O   0  0  0  0  0  0  0  0  0  0  0  0
  160.2390  213.1390  146.8930 C   0  0  0  0  0  2  0  0  0  0  0  0
  160.2380  212.2240  145.8370 O   0  0  0  0  0  0  0  0  0  0  0  0
  162.6010  213.0130  143.8420 C   0  0  0  0  0  2  0  0  0  0  0  0
  160.7130  212.5650  142.3560 O   0  0  0  0  0  0  0  0  0  0  0  0
  160.2010  213.0060  144.6800 C   0  0  2  0  0  3  0  0  0  0  0  0
  159.9740  212.1030  143.4570 C   0  0  0  0  0  2  0  0  0  0  0  0
  161.5020  213.8080  144.5510 C   0  0  0  0  0  2  0  0  0  0  0  0
  162.0570  212.2430  142.6260 C   0  0  0  0  0  2  0  0  0  0  0  0
  1 21  1  0  0  0  0
  1 19  1  1  0  0  0
  1 16  1  0  0  0  0
  2 18  2  0  0  0  0
  3  2  1  0  0  0  0
  3 14  1  0  0  0  0
  4 23  1  6  0  0  0
  4 13  1  0  0  0  0
  5  3  2  0  0  0  0
  7  6  1  1  0  0  0
  7 16  1  0  0  0  0
  7 15  1  0  0  0  0
  8 15  2  0  0  0  0
 10  8  1  0  0  0  0
 11 17  1  1  0  0  0
 11  6  1  0  0  0  0
 12  1  1  0  0  0  0
 13 11  1  0  0  0  0
 16  9  1  1  0  0  0
 17 10  1  0  0  0  0
 18 12  2  0  0  0  0
 20 14  1  0  0  0  0
 20  4  1  0  0  0  0
 21 16  1  0  0  0  0
 21  9  1  1  0  0  0
 23 22  1  0  0  0  0
 24 23  2  0  0  0  0
 25  5  1  0  0  0  0
 26 25  1  0  0  0  0
 27 26  2  0  0  0  0
 28 26  1  0  0  0  0
 29 28  1  0  0  0  0
 30 34  1  0  0  0  0
 31 35  1  0  0  0  0
 31 33  1  0  0  0  0
 32 29  1  1  0  0  0
 33 32  1  0  0  0  0
 34 32  1  0  0  0  0
 35 30  1  0  0  0  0
M  END
>  <MODEL>
6

>  <REMARK>
 VINA RESULT:      -5.5      5.377     10.535
  Name = 
  6 active torsions:
  status: ('A' for Active; 'I' for Inactive)
    1  A    between atoms: C_5  and  C_28
    2  A    between atoms: C_6  and  C_19
    3  A    between atoms: C_6  and  C_20
    4  A    between atoms: N_7  and  C_20
    5  A    between atoms: O_9  and  C_16
    6  A    between atoms: O_9  and  C_19
                            x       y       z     vdW  Elec       q    Type
                         _______ _______ _______ _____ _____    ______ ____

>  <TORSDO>
F 6

$$$$
=
 OpenBabel11072413073D

 35 39  0  0  1  0  0  0  0  0999 V2000
  162.3080  205.1530  145.6570 C   0  0  2  0  0  0  0  0  0  0  0  0
  162.8590  207.3920  148.4310 C   0  0  0  0  0  3  0  0  0  0  0  0
  161.8400  207.4590  149.4900 C   0  0  0  0  0  0  0  0  0  0  0  0
  160.9650  203.9860  150.7280 C   0  0  2  0  0  3  0  0  0  0  0  0
  161.7590  208.5410  150.2010 N   0  0  0  0  0  0  0  0  0  0  0  0
  160.0000  203.3080  147.5810 C   0  0  0  0  0  2  0  0  0  0  0  0
  161.2100  203.0330  146.6680 C   0  0  1  0  0  3  0  0  0  0  0  0
  161.2810  200.5460  146.9640 C   0  0  0  0  0  3  0  0  0  0  0  0
  160.0560  204.4470  144.8360 C   0  0  0  0  0  2  0  0  0  0  0  0
  161.4270  200.6390  148.4510 C   0  0  0  0  0  2  0  0  0  0  0  0
  160.2020  202.7900  149.0060 C   0  0  2  0  0  3  0  0  0  0  0  0
  163.0990  205.2790  146.9210 C   0  0  0  0  0  3  0  0  0  0  0  0
  161.3740  203.3120  149.5710 O   0  0  0  0  0  0  0  0  0  0  0  0
  160.9530  206.2780  149.7610 C   0  0  0  0  0  2  0  0  0  0  0  0
  161.1860  201.6170  146.1670 C   0  0  0  0  0  3  0  0  0  0  0  0
  161.3620  203.9790  145.4530 C   0  0  2  0  0  0  0  0  0  0  0  0
  160.1890  201.2620  149.0870 C   0  0  0  0  0  2  0  0  0  0  0  0
  162.9950  206.3390  147.6720 C   0  0  0  0  0  0  0  0  0  0  0  0
  162.8670  205.6690  144.4870 O   0  0  0  0  0  1  0  0  0  0  0  0
  161.6120  205.3600  150.7730 C   0  0  0  0  0  2  0  0  0  0  0  0
  160.8150  205.3770  145.7660 C   0  0  1  0  0  3  0  0  0  0  0  0
  160.8490  203.4720  153.0650 O   0  0  0  0  0  1  0  0  0  0  0  0
  161.3580  203.2100  151.9440 C   0  0  0  0  0  0  0  0  0  0  0  0
  162.2660  202.1660  151.8290 O   0  0  0  0  0  0  0  0  0  0  0  0
  160.8080  208.7230  151.2900 C   0  0  0  0  0  2  0  0  0  0  0  0
  160.8180  210.1470  151.7320 C   0  0  0  0  0  0  0  0  0  0  0  0
  160.1340  210.4950  152.6800 O   0  0  0  0  0  0  0  0  0  0  0  0
  161.6150  211.1640  150.9820 C   0  0  0  0  0  2  0  0  0  0  0  0
  160.7780  211.8990  150.1390 O   0  0  0  0  0  0  0  0  0  0  0  0
  160.4560  212.1940  146.9780 C   0  0  0  0  0  2  0  0  0  0  0  0
  161.3830  214.3470  147.6700 O   0  0  0  0  0  0  0  0  0  0  0  0
  161.6320  212.4970  149.2110 C   0  0  2  0  0  3  0  0  0  0  0  0
  161.2280  213.9670  149.0130 C   0  0  0  0  0  2  0  0  0  0  0  0
  161.5920  211.7210  147.8890 C   0  0  0  0  0  2  0  0  0  0  0  0
  160.3330  213.7270  146.9650 C   0  0  0  0  0  2  0  0  0  0  0  0
  1 19  1  6  0  0  0
  1 21  1  0  0  0  0
  1 12  1  0  0  0  0
  2  3  1  0  0  0  0
  3 14  1  0  0  0  0
  3  5  2  0  0  0  0
  4 20  1  0  0  0  0
  4 23  1  1  0  0  0
  5 25  1  0  0  0  0
  7 15  1  6  0  0  0
  7  6  1  0  0  0  0
  8 10  1  0  0  0  0
 10 17  1  0  0  0  0
 11  6  1  6  0  0  0
 11 17  1  0  0  0  0
 11 13  1  0  0  0  0
 12 18  2  0  0  0  0
 13  4  1  0  0  0  0
 14 20  1  0  0  0  0
 15  8  2  0  0  0  0
 16  9  1  6  0  0  0
 16  1  1  0  0  0  0
 16 21  1  0  0  0  0
 16  7  1  0  0  0  0
 18  2  2  0  0  0  0
 21  9  1  6  0  0  0
 23 22  1  0  0  0  0
 24 23  2  0  0  0  0
 25 26  1  0  0  0  0
 26 27  2  0  0  0  0
 28 26  1  0  0  0  0
 29 28  1  0  0  0  0
 30 34  1  0  0  0  0
 31 33  1  0  0  0  0
 32 29  1  1  0  0  0
 33 32  1  0  0  0  0
 34 32  1  0  0  0  0
 35 30  1  0  0  0  0
 35 31  1  0  0  0  0
M  END
>  <MODEL>
7

>  <REMARK>
 VINA RESULT:      -4.9      2.433      4.136
  Name = 
  6 active torsions:
  status: ('A' for Active; 'I' for Inactive)
    1  A    between atoms: C_5  and  C_28
    2  A    between atoms: C_6  and  C_19
    3  A    between atoms: C_6  and  C_20
    4  A    between atoms: N_7  and  C_20
    5  A    between atoms: O_9  and  C_16
    6  A    between atoms: O_9  and  C_19
                            x       y       z     vdW  Elec       q    Type
                         _______ _______ _______ _____ _____    ______ ____

>  <TORSDO>
F 6

$$$$
=
 OpenBabel11072413073D

 35 39  0  0  1  0  0  0  0  0999 V2000
  162.3130  205.8600  146.8660 C   0  0  2  0  0  0  0  0  0  0  0  0
  162.9760  208.9680  148.5720 C   0  0  0  0  0  3  0  0  0  0  0  0
  162.0010  209.4440  149.5640 C   0  0  0  0  0  0  0  0  0  0  0  0
  161.1700  206.7070  152.0490 C   0  0  2  0  0  3  0  0  0  0  0  0
  161.9490  210.7160  149.8180 N   0  0  0  0  0  0  0  0  0  0  0  0
  160.0800  204.9110  149.4250 C   0  0  0  0  0  2  0  0  0  0  0  0
  161.2530  204.2930  148.6400 C   0  0  1  0  0  3  0  0  0  0  0  0
  161.3310  202.0990  149.8470 C   0  0  0  0  0  3  0  0  0  0  0  0
  160.0300  204.9330  146.4530 C   0  0  0  0  0  2  0  0  0  0  0  0
  161.5360  202.7420  151.1840 C   0  0  0  0  0  2  0  0  0  0  0  0
  160.3380  204.9630  150.9310 C   0  0  2  0  0  3  0  0  0  0  0  0
  163.1540  206.4380  147.9610 C   0  0  0  0  0  3  0  0  0  0  0  0
  161.5310  205.6400  151.2170 O   0  0  0  0  0  0  0  0  0  0  0  0
  161.1230  208.4670  150.2910 C   0  0  0  0  0  2  0  0  0  0  0  0
  161.2060  202.7930  148.7090 C   0  0  0  0  0  3  0  0  0  0  0  0
  161.3580  204.7110  147.1540 C   0  0  2  0  0  0  0  0  0  0  0  0
  160.3250  203.5790  151.5820 C   0  0  0  0  0  2  0  0  0  0  0  0
  163.0820  207.7050  148.2610 C   0  0  0  0  0  0  0  0  0  0  0  0
  162.8260  205.8880  145.5690 O   0  0  0  0  0  1  0  0  0  0  0  0
  161.8200  207.9860  151.5500 C   0  0  0  0  0  2  0  0  0  0  0  0
  160.8260  206.1320  146.9370 C   0  0  1  0  0  3  0  0  0  0  0  0
  162.6860  205.8280  153.6820 O   0  0  0  0  0  0  0  0  0  0  0  0
  161.6090  206.4390  153.4520 C   0  0  0  0  0  0  0  0  0  0  0  0
  160.8410  206.8990  154.5120 O   0  0  0  0  0  1  0  0  0  0  0  0
  161.0420  211.3090  150.7920 C   0  0  0  0  0  2  0  0  0  0  0  0
  160.4880  212.5830  150.2500 C   0  0  0  0  0  0  0  0  0  0  0  0
  159.5280  213.1080  150.7900 O   0  0  0  0  0  0  0  0  0  0  0  0
  161.0640  213.1900  149.0120 C   0  0  0  0  0  2  0  0  0  0  0  0
  160.1460  213.0970  147.9640 O   0  0  0  0  0  0  0  0  0  0  0  0
  160.4100  213.8690  144.8780 C   0  0  0  0  0  2  0  0  0  0  0  0
  162.6460  213.0820  145.4720 O   0  0  0  0  0  0  0  0  0  0  0  0
  160.8300  212.4400  146.9390 C   0  0  2  0  0  3  0  0  0  0  0  0
  162.2500  213.0160  146.8180 C   0  0  0  0  0  2  0  0  0  0  0  0
  160.0550  212.5780  145.6220 C   0  0  0  0  0  2  0  0  0  0  0  0
  161.9220  214.1480  144.9040 C   0  0  0  0  0  2  0  0  0  0  0  0
  1 19  1  6  0  0  0
  1 21  1  0  0  0  0
  1 16  1  0  0  0  0
  1 12  1  0  0  0  0
  2  3  1  0  0  0  0
  3  5  2  0  0  0  0
  3 14  1  0  0  0  0
  4 23  1  1  0  0  0
  5 25  1  0  0  0  0
  7 15  1  6  0  0  0
  7  6  1  0  0  0  0
  8 10  1  0  0  0  0
 10 17  1  0  0  0  0
 11  6  1  6  0  0  0
 11 13  1  0  0  0  0
 11 17  1  0  0  0  0
 12 18  2  0  0  0  0
 13  4  1  0  0  0  0
 14 20  1  0  0  0  0
 15  8  2  0  0  0  0
 16  9  1  6  0  0  0
 16  7  1  0  0  0  0
 18  2  2  0  0  0  0
 20  4  1  0  0  0  0
 21  9  1  6  0  0  0
 21 16  1  0  0  0  0
 23 22  2  0  0  0  0
 23 24  1  0  0  0  0
 26 27  2  0  0  0  0
 26 25  1  0  0  0  0
 28 26  1  0  0  0  0
 29 28  1  0  0  0  0
 30 35  1  0  0  0  0
 30 34  1  0  0  0  0
 31 33  1  0  0  0  0
 32 29  1  1  0  0  0
 33 32  1  0  0  0  0
 34 32  1  0  0  0  0
 35 31  1  0  0  0  0
M  END
>  <MODEL>
8

>  <REMARK>
 VINA RESULT:      -4.1      3.578      5.715
  Name = 
  6 active torsions:
  status: ('A' for Active; 'I' for Inactive)
    1  A    between atoms: C_5  and  C_28
    2  A    between atoms: C_6  and  C_19
    3  A    between atoms: C_6  and  C_20
    4  A    between atoms: N_7  and  C_20
    5  A    between atoms: O_9  and  C_16
    6  A    between atoms: O_9  and  C_19
                            x       y       z     vdW  Elec       q    Type
                         _______ _______ _______ _____ _____    ______ ____

>  <TORSDO>
F 6

$$$$
=
 OpenBabel11072413073D

 35 39  0  0  1  0  0  0  0  0999 V2000
  160.0610  201.4960  149.3420 C   0  0  2  0  0  0  0  0  0  0  0  0
  159.9990  203.9390  151.9960 C   0  0  0  0  0  3  0  0  0  0  0  0
  161.1270  204.8760  152.1110 C   0  0  0  0  0  0  0  0  0  0  0  0
  161.8330  206.5390  148.7800 C   0  0  2  0  0  3  0  0  0  0  0  0
  161.3740  205.4040  153.2700 N   0  0  0  0  0  0  0  0  0  0  0  0
  162.3970  203.4550  147.5690 C   0  0  0  0  0  2  0  0  0  0  0  0
  161.0780  202.7110  147.2880 C   0  0  1  0  0  3  0  0  0  0  0  0
  160.8300  203.3840  144.8880 C   0  0  0  0  0  3  0  0  0  0  0  0
  162.1450  200.5860  148.3060 C   0  0  0  0  0  2  0  0  0  0  0  0
  160.8510  204.8480  145.2050 C   0  0  0  0  0  2  0  0  0  0  0  0
  162.3050  204.9540  147.2820 C   0  0  2  0  0  3  0  0  0  0  0  0
  159.4220  202.7940  149.7230 C   0  0  0  0  0  3  0  0  0  0  0  0
  161.2480  205.5400  147.9920 O   0  0  0  0  0  0  0  0  0  0  0  0
  161.9350  205.2390  150.8990 C   0  0  0  0  0  2  0  0  0  0  0  0
  160.9290  202.4290  145.8200 C   0  0  0  0  0  3  0  0  0  0  0  0
  160.8780  201.3860  148.0620 C   0  0  2  0  0  0  0  0  0  0  0  0
  162.1980  205.2640  145.7880 C   0  0  0  0  0  2  0  0  0  0  0  0
  159.6940  203.3640  150.8640 C   0  0  0  0  0  0  0  0  0  0  0  0
  159.4260  200.3190  149.7380 O   0  0  0  0  0  1  0  0  0  0  0  0
  161.3130  206.4350  150.2030 C   0  0  0  0  0  2  0  0  0  0  0  0
  161.5700  201.4320  149.4290 C   0  0  1  0  0  3  0  0  0  0  0  0
  160.8280  208.0050  147.1740 O   0  0  0  0  0  0  0  0  0  0  0  0
  161.5080  207.8890  148.2280 C   0  0  0  0  0  0  0  0  0  0  0  0
  161.9280  209.0270  148.9030 O   0  0  0  0  0  1  0  0  0  0  0  0
  162.4470  206.3600  153.5100 C   0  0  0  0  0  2  0  0  0  0  0  0
  161.8710  207.6600  153.9590 C   0  0  0  0  0  0  0  0  0  0  0  0
  161.5840  207.8260  155.1330 O   0  0  0  0  0  0  0  0  0  0  0  0
  161.5840  208.7390  152.9670 C   0  0  0  0  0  2  0  0  0  0  0  0
  160.4190  209.4200  153.3270 O   0  0  0  0  0  0  0  0  0  0  0  0
  158.7060  212.0850  152.9400 C   0  0  0  0  0  2  0  0  0  0  0  0
  160.0760  212.5570  154.9080 O   0  0  0  0  0  0  0  0  0  0  0  0
  160.8060  210.7540  153.4680 C   0  0  2  0  0  3  0  0  0  0  0  0
  160.5180  211.2240  154.9030 C   0  0  0  0  0  2  0  0  0  0  0  0
  160.0750  211.6220  152.4360 C   0  0  0  0  0  2  0  0  0  0  0  0
  158.7590  212.5330  154.4110 C   0  0  0  0  0  2  0  0  0  0  0  0
  1 21  1  0  0  0  0
  1 12  1  0  0  0  0
  1 19  1  1  0  0  0
  2  3  1  0  0  0  0
  3  5  2  0  0  0  0
  4 23  1  6  0  0  0
  4 20  1  0  0  0  0
  5 25  1  0  0  0  0
  7 15  1  6  0  0  0
  7  6  1  0  0  0  0
  7 16  1  0  0  0  0
  8 10  1  0  0  0  0
  8 15  2  0  0  0  0
 10 17  1  0  0  0  0
 11 17  1  6  0  0  0
 11  6  1  0  0  0  0
 11 13  1  0  0  0  0
 12 18  2  0  0  0  0
 13  4  1  0  0  0  0
 14  3  1  0  0  0  0
 16  9  1  6  0  0  0
 16  1  1  0  0  0  0
 16 21  1  0  0  0  0
 18  2  2  0  0  0  0
 20 14  1  0  0  0  0
 21  9  1  1  0  0  0
 22 23  2  0  0  0  0
 23 24  1  0  0  0  0
 25 26  1  0  0  0  0
 26 27  2  0  0  0  0
 28 29  1  0  0  0  0
 28 26  1  0  0  0  0
 30 35  1  0  0  0  0
 32 29  1  1  0  0  0
 32 33  1  0  0  0  0
 33 31  1  0  0  0  0
 34 30  1  0  0  0  0
 34 32  1  0  0  0  0
 35 31  1  0  0  0  0
M  END
>  <MODEL>
9

>  <REMARK>
 VINA RESULT:      -3.8      2.131      4.515
  Name = 
  6 active torsions:
  status: ('A' for Active; 'I' for Inactive)
    1  A    between atoms: C_5  and  C_28
    2  A    between atoms: C_6  and  C_19
    3  A    between atoms: C_6  and  C_20
    4  A    between atoms: N_7  and  C_20
    5  A    between atoms: O_9  and  C_16
    6  A    between atoms: O_9  and  C_19
                            x       y       z     vdW  Elec       q    Type
                         _______ _______ _______ _____ _____    ______ ____

>  <TORSDO>
F 6

$$$$
