=
 OpenBabel11072414563D

 57 61  0  0  1  0  0  0  0  0999 V2000
  160.8820  207.1370  153.7130 C   0  0  0  0  0  3  0  0  0  0  0  0
  161.0180  208.4140  153.4870 C   0  0  0  0  0  0  0  0  0  0  0  0
  161.9320  209.8080  149.7070 C   0  0  1  0  0  3  0  0  0  0  0  0
  161.7900  210.0440  151.8860 C   0  0  2  0  0  3  0  0  0  0  0  0
  161.7910  211.3100  149.9020 C   0  0  1  0  0  3  0  0  0  0  0  0
  159.3170  212.5100  150.6490 C   0  0  0  0  0  1  0  0  0  0  0  0
  161.6650  210.3590  155.4550 N   0  0  0  0  0  2  0  0  0  0  0  0
  160.6550  211.9880  154.0950 N   0  0  0  0  0  2  0  0  0  0  0  0
  161.6040  211.4730  151.3970 C   0  0  1  0  0  3  0  0  0  0  0  0
  160.2500  212.0720  151.7330 C   0  0  0  0  0  0  0  0  0  0  0  0
  159.9240  212.3670  152.9550 N   0  0  0  0  0  0  0  0  0  0  0  0
  161.4230  209.1760  150.8480 O   0  0  0  0  0  0  0  0  0  0  0  0
  161.1940  210.6770  154.2920 C   0  0  0  0  0  0  0  0  0  0  0  0
  161.1680  209.6830  153.2060 C   0  0  0  0  0  0  0  0  0  0  0  0
  161.9620  206.1960  153.3090 C   0  0  2  0  0  3  0  0  0  0  0  0
  162.4950  206.5780  152.0870 F   0  0  0  0  0  0  0  0  0  0  0  0
  161.4070  204.7890  153.2000 C   0  0  0  0  0  2  0  0  0  0  0  0
  161.1750  204.4480  151.7200 C   0  0  1  0  0  3  0  0  0  0  0  0
  160.2560  202.0080  152.5280 O   0  0  0  0  0  1  0  0  0  0  0  0
  162.7370  202.0530  151.7270 O   0  0  0  0  0  0  0  0  0  0  0  0
  161.1700  202.6410  151.5020 P   0  0  2  0  0  0  0  0  0  0  0  0
  160.6640  202.2480  149.9320 O   0  0  0  0  0  0  0  0  0  0  0  0
  161.0650  200.9270  149.7150 C   0  0  0  0  0  2  0  0  0  0  0  0
  161.7530  200.7990  148.3610 C   0  0  0  0  0  2  0  0  0  0  0  0
  160.7790  201.0390  147.2130 C   0  0  0  0  0  2  0  0  0  0  0  0
  161.5340  198.3160  144.9010 C   0  0  0  0  0  1  0  0  0  0  0  0
  160.6550  199.0820  145.7680 N   0  0  0  0  0  0  0  0  0  0  0  0
  161.2900  200.3980  145.9320 C   0  0  1  0  0  3  0  0  0  0  0  0
  160.1920  200.2350  144.9840 C   0  0  0  0  0  2  0  0  0  0  0  0
  160.3380  206.2070  150.2200 C   0  0  0  0  0  2  0  0  0  0  0  0
  160.1050  204.9020  149.5960 C   0  0  0  0  0  2  0  0  0  0  0  0
  159.9910  205.0430  151.0580 N   0  0  0  0  0  0  0  0  0  0  0  0
  161.1810  209.3390  148.4700 C   0  0  0  0  0  2  0  0  0  0  0  0
  161.9070  208.1760  147.8100 C   0  0  0  0  0  2  0  0  0  0  0  0
  162.6440  207.3540  148.8530 C   0  0  0  0  0  2  0  0  0  0  0  0
  163.2990  206.1550  148.1930 C   0  0  0  0  0  2  0  0  0  0  0  0
  162.6550  205.8720  146.8460 C   0  0  0  0  0  2  0  0  0  0  0  0
  162.0790  204.4620  146.7900 C   0  0  0  0  0  2  0  0  0  0  0  0
  162.0180  203.9460  145.3580 C   0  0  0  0  0  2  0  0  0  0  0  0
  160.8190  205.8640  144.2930 O   0  0  0  0  0  0  0  0  0  0  0  0
  159.8670  203.7790  144.3310 O   0  0  0  0  0  1  0  0  0  0  0  0
  160.8360  204.5190  144.6460 C   0  0  0  0  0  0  0  0  0  0  0  0
  162.9560  211.9580  149.4810 O   0  0  0  0  0  0  0  0  0  0  0  0
  162.8630  212.0090  148.0850 C   0  0  0  0  0  2  0  0  0  0  0  0
  162.1610  213.1530  147.6940 O   0  0  0  0  0  0  0  0  0  0  0  0
  162.2740  213.1640  146.3580 O   0  0  0  0  0  0  0  0  0  0  0  0
  159.9950  213.3160  143.4730 C   0  0  1  0  0  3  0  0  0  0  0  0
  158.6590  212.8750  144.6350 S   0  0  0  0  0  0  0  0  0  0  0  0
  161.1490  213.1960  145.5380 C   0  0  0  0  0  0  0  0  0  0  0  0
  159.7610  213.1050  146.0690 C   0  0  1  0  0  3  0  0  0  0  0  0
  161.2730  213.3090  144.2310 C   0  0  0  0  0  3  0  0  0  0  0  0
  159.4150  214.3740  146.7790 C   0  0  0  0  0  3  0  0  0  0  0  0
  158.6090  214.3720  147.6940 O   0  0  0  0  0  0  0  0  0  0  0  0
  160.0430  212.3570  142.2850 C   0  0  0  0  0  2  0  0  0  0  0  0
  161.3980  210.9840  140.9430 C   0  0  0  0  0  1  0  0  0  0  0  0
  161.4120  212.1330  141.8300 N   0  0  0  0  0  0  0  0  0  0  0  0
  161.7840  213.2840  141.0220 C   0  0  0  0  0  1  0  0  0  0  0  0
  2  1  2  0  0  0  0
  3 33  1  6  0  0  0
  3  5  1  0  0  0  0
  3 12  1  0  0  0  0
  4 12  1  6  0  0  0
  4 14  1  0  0  0  0
  5 43  1  1  0  0  0
  5  9  1  0  0  0  0
  6 10  1  0  0  0  0
  8 13  1  0  0  0  0
  9 10  1  6  0  0  0
  9  4  1  0  0  0  0
 10 11  2  0  0  0  0
 11  8  1  0  0  0  0
 13  7  2  0  0  0  0
 14  2  2  0  0  0  0
 14 13  1  0  0  0  0
 15 16  1  6  0  0  0
 15  1  1  0  0  0  0
 17 15  1  0  0  0  0
 18 17  1  1  0  0  0
 21 18  1  0  0  0  0
 21 20  2  1  0  0  0
 21 19  1  0  0  0  0
 22 21  1  0  0  0  0
 23 22  1  0  0  0  0
 24 23  1  0  0  0  0
 25 24  1  0  0  0  0
 26 27  1  0  0  0  0
 27 28  1  0  0  0  0
 28 25  1  1  0  0  0
 29 27  1  0  0  0  0
 29 28  1  0  0  0  0
 30 32  1  0  0  0  0
 31 30  1  0  0  0  0
 31 32  1  0  0  0  0
 32 18  1  0  0  0  0
 34 33  1  0  0  0  0
 34 35  1  0  0  0  0
 36 35  1  0  0  0  0
 37 36  1  0  0  0  0
 38 37  1  0  0  0  0
 39 38  1  0  0  0  0
 40 42  2  0  0  0  0
 41 42  1  0  0  0  0
 42 39  1  0  0  0  0
 44 43  1  0  0  0  0
 45 44  1  0  0  0  0
 46 45  1  0  0  0  0
 47 54  1  6  0  0  0
 47 51  1  0  0  0  0
 47 48  1  0  0  0  0
 48 50  1  0  0  0  0
 49 50  1  0  0  0  0
 49 46  1  0  0  0  0
 50 52  1  6  0  0  0
 51 49  2  0  0  0  0
 52 53  2  0  0  0  0
 55 56  1  0  0  0  0
 56 54  1  0  0  0  0
 57 56  1  0  0  0  0
M  END
>  <MODEL>
1

>  <REMARK>
 VINA RESULT:      -2.4      0.000      0.000
  Name = 
  26 active torsions:
  status: ('A' for Active; 'I' for Inactive)
    1  A    between atoms: C_2  and  C_40
    2  A    between atoms: O_4  and  O_7
    3  A    between atoms: O_4  and  C_31
    4  A    between atoms: N_5  and  C_48
    5  A    between atoms: O_7  and  C_29
    6  A    between atoms: C_8  and  C_10
    7  A    between atoms: C_8  and  C_32
    8  A    between atoms: C_9  and  C_28
    9  A    between atoms: C_10  and  C_27
   10  A    between atoms: C_11  and  P_45
   11  A    between atoms: C_11  and  N_46
   12  A    between atoms: C_11  and  C_49
   13  A    between atoms: C_15  and  C_48
   14  A    between atoms: C_17  and  C_26
   15  A    between atoms: C_17  and  C_36
   16  A    between atoms: O_18  and  C_26
   17  A    between atoms: O_18  and  P_45
   18  A    between atoms: C_21  and  C_32
   19  A    between atoms: C_24  and  O_30
   20  A    between atoms: C_27  and  C_52
   21  A    between atoms: C_28  and  C_49
   22  A    between atoms: C_29  and  O_30
   23  A    between atoms: C_36  and  C_44
   24  A    between atoms: C_41  and  C_42
   25  A    between atoms: C_42  and  C_43
   26  A    between atoms: C_43  and  C_52
                            x       y       z     vdW  Elec       q    Type
                         _______ _______ _______ _____ _____    ______ ____

>  <TORSDO>
F 26

$$$$
=
 OpenBabel11072414563D

 57 61  0  0  1  0  0  0  0  0999 V2000
  160.9020  207.0380  153.7340 C   0  0  0  0  0  3  0  0  0  0  0  0
  161.0400  208.3190  153.5310 C   0  0  0  0  0  0  0  0  0  0  0  0
  161.8930  209.7820  149.7620 C   0  0  1  0  0  3  0  0  0  0  0  0
  161.7920  209.9750  151.9480 C   0  0  2  0  0  3  0  0  0  0  0  0
  161.7640  211.2800  149.9880 C   0  0  1  0  0  3  0  0  0  0  0  0
  159.3100  212.4780  150.8050 C   0  0  0  0  0  1  0  0  0  0  0  0
  161.7340  210.2220  155.5230 N   0  0  0  0  0  2  0  0  0  0  0  0
  160.7080  211.8820  154.2140 N   0  0  0  0  0  2  0  0  0  0  0  0
  161.6050  211.4150  151.4900 C   0  0  1  0  0  3  0  0  0  0  0  0
  160.2610  212.0140  151.8620 C   0  0  0  0  0  0  0  0  0  0  0  0
  159.9580  212.2860  153.0950 N   0  0  0  0  0  0  0  0  0  0  0  0
  161.4020  209.1300  150.9000 O   0  0  0  0  0  0  0  0  0  0  0  0
  161.2430  210.5650  154.3750 C   0  0  0  0  0  0  0  0  0  0  0  0
  161.1930  209.5920  153.2720 C   0  0  0  0  0  0  0  0  0  0  0  0
  161.9690  206.1000  153.2920 C   0  0  2  0  0  3  0  0  0  0  0  0
  162.4760  206.4980  152.0640 F   0  0  0  0  0  0  0  0  0  0  0  0
  161.4070  204.6970  153.1750 C   0  0  0  0  0  2  0  0  0  0  0  0
  161.1780  204.3630  151.6940 C   0  0  1  0  0  3  0  0  0  0  0  0
  160.0060  202.0240  152.4740 O   0  0  0  0  0  1  0  0  0  0  0  0
  162.5160  201.8380  151.7940 O   0  0  0  0  0  0  0  0  0  0  0  0
  161.0210  202.5610  151.4890 P   0  0  2  0  0  0  0  0  0  0  0  0
  160.5560  202.1960  149.9000 O   0  0  0  0  0  0  0  0  0  0  0  0
  160.9380  200.8700  149.6780 C   0  0  0  0  0  2  0  0  0  0  0  0
  161.6500  200.7410  148.3370 C   0  0  0  0  0  2  0  0  0  0  0  0
  160.6960  200.9780  147.1720 C   0  0  0  0  0  2  0  0  0  0  0  0
  161.5510  198.3210  144.8190 C   0  0  0  0  0  1  0  0  0  0  0  0
  160.6380  199.0550  145.6780 N   0  0  0  0  0  0  0  0  0  0  0  0
  161.2510  200.3740  145.8920 C   0  0  1  0  0  3  0  0  0  0  0  0
  160.1830  200.2220  144.9080 C   0  0  0  0  0  2  0  0  0  0  0  0
  160.5310  206.1580  150.1430 C   0  0  0  0  0  2  0  0  0  0  0  0
  160.1820  204.8670  149.5450 C   0  0  0  0  0  2  0  0  0  0  0  0
  160.0650  205.0520  151.0010 N   0  0  0  0  0  0  0  0  0  0  0  0
  161.1170  209.3400  148.5300 C   0  0  0  0  0  2  0  0  0  0  0  0
  161.8210  208.1820  147.8380 C   0  0  0  0  0  2  0  0  0  0  0  0
  162.6210  207.3740  148.8460 C   0  0  0  0  0  2  0  0  0  0  0  0
  163.3540  206.2510  148.1360 C   0  0  0  0  0  2  0  0  0  0  0  0
  162.6890  205.9370  146.8070 C   0  0  0  0  0  2  0  0  0  0  0  0
  162.2120  204.4910  146.7510 C   0  0  0  0  0  2  0  0  0  0  0  0
  162.0880  204.0040  145.3120 C   0  0  0  0  0  2  0  0  0  0  0  0
  160.5960  205.8470  144.5190 O   0  0  0  0  0  1  0  0  0  0  0  0
  159.9390  203.6580  144.3300 O   0  0  0  0  0  0  0  0  0  0  0  0
  160.8100  204.4860  144.7070 C   0  0  0  0  0  0  0  0  0  0  0  0
  162.9250  211.9300  149.5590 O   0  0  0  0  0  0  0  0  0  0  0  0
  162.8370  211.9500  148.1620 C   0  0  0  0  0  2  0  0  0  0  0  0
  162.2010  213.1210  147.7390 O   0  0  0  0  0  0  0  0  0  0  0  0
  162.3090  213.0870  146.4030 O   0  0  0  0  0  0  0  0  0  0  0  0
  158.8770  212.9900  145.0820 C   0  0  1  0  0  3  0  0  0  0  0  0
  159.5340  213.8220  143.5970 S   0  0  0  0  0  0  0  0  0  0  0  0
  161.1850  213.1610  145.5850 C   0  0  0  0  0  0  0  0  0  0  0  0
  161.2520  213.5790  144.1580 C   0  0  1  0  0  3  0  0  0  0  0  0
  159.9920  212.8560  146.0540 C   0  0  0  0  0  3  0  0  0  0  0  0
  161.9020  212.5010  143.3520 C   0  0  0  0  0  3  0  0  0  0  0  0
  161.7790  212.4740  142.1390 O   0  0  0  0  0  0  0  0  0  0  0  0
  157.7000  213.7590  145.6800 C   0  0  0  0  0  2  0  0  0  0  0  0
  158.7350  214.4520  147.6730 C   0  0  0  0  0  1  0  0  0  0  0  0
  157.6620  213.6370  147.1350 N   0  0  0  0  0  0  0  0  0  0  0  0
  156.4140  214.2380  147.5770 C   0  0  0  0  0  1  0  0  0  0  0  0
  2  1  2  0  0  0  0
  3 33  1  6  0  0  0
  3  5  1  0  0  0  0
  3 12  1  0  0  0  0
  4 12  1  6  0  0  0
  4 14  1  0  0  0  0
  5 43  1  1  0  0  0
  5  9  1  0  0  0  0
  6 10  1  0  0  0  0
  8 13  1  0  0  0  0
  9 10  1  6  0  0  0
  9  4  1  0  0  0  0
 10 11  2  0  0  0  0
 11  8  1  0  0  0  0
 13  7  2  0  0  0  0
 14  2  2  0  0  0  0
 14 13  1  0  0  0  0
 15 16  1  6  0  0  0
 15  1  1  0  0  0  0
 17 15  1  0  0  0  0
 18 17  1  1  0  0  0
 21 18  1  0  0  0  0
 21 20  2  1  0  0  0
 21 19  1  0  0  0  0
 22 21  1  0  0  0  0
 23 22  1  0  0  0  0
 24 23  1  0  0  0  0
 25 24  1  0  0  0  0
 26 27  1  0  0  0  0
 27 28  1  0  0  0  0
 28 25  1  1  0  0  0
 29 27  1  0  0  0  0
 29 28  1  0  0  0  0
 30 32  1  0  0  0  0
 31 30  1  0  0  0  0
 31 32  1  0  0  0  0
 32 18  1  0  0  0  0
 34 33  1  0  0  0  0
 34 35  1  0  0  0  0
 36 35  1  0  0  0  0
 37 36  1  0  0  0  0
 38 37  1  0  0  0  0
 39 38  1  0  0  0  0
 40 42  1  0  0  0  0
 41 42  2  0  0  0  0
 42 39  1  0  0  0  0
 44 43  1  0  0  0  0
 45 44  1  0  0  0  0
 46 45  1  0  0  0  0
 47 54  1  1  0  0  0
 47 51  1  0  0  0  0
 48 50  1  0  0  0  0
 48 47  1  0  0  0  0
 49 51  2  0  0  0  0
 49 46  1  0  0  0  0
 50 52  1  6  0  0  0
 50 49  1  0  0  0  0
 53 52  2  0  0  0  0
 54 56  1  0  0  0  0
 56 57  1  0  0  0  0
 56 55  1  0  0  0  0
M  END
>  <MODEL>
2

>  <REMARK>
 VINA RESULT:      -1.9      1.222      2.237
  Name = 
  26 active torsions:
  status: ('A' for Active; 'I' for Inactive)
    1  A    between atoms: C_2  and  C_40
    2  A    between atoms: O_4  and  O_7
    3  A    between atoms: O_4  and  C_31
    4  A    between atoms: N_5  and  C_48
    5  A    between atoms: O_7  and  C_29
    6  A    between atoms: C_8  and  C_10
    7  A    between atoms: C_8  and  C_32
    8  A    between atoms: C_9  and  C_28
    9  A    between atoms: C_10  and  C_27
   10  A    between atoms: C_11  and  P_45
   11  A    between atoms: C_11  and  N_46
   12  A    between atoms: C_11  and  C_49
   13  A    between atoms: C_15  and  C_48
   14  A    between atoms: C_17  and  C_26
   15  A    between atoms: C_17  and  C_36
   16  A    between atoms: O_18  and  C_26
   17  A    between atoms: O_18  and  P_45
   18  A    between atoms: C_21  and  C_32
   19  A    between atoms: C_24  and  O_30
   20  A    between atoms: C_27  and  C_52
   21  A    between atoms: C_28  and  C_49
   22  A    between atoms: C_29  and  O_30
   23  A    between atoms: C_36  and  C_44
   24  A    between atoms: C_41  and  C_42
   25  A    between atoms: C_42  and  C_43
   26  A    between atoms: C_43  and  C_52
                            x       y       z     vdW  Elec       q    Type
                         _______ _______ _______ _____ _____    ______ ____

>  <TORSDO>
F 26

$$$$
=
 OpenBabel11072414563D

 57 61  0  0  1  0  0  0  0  0999 V2000
  160.9960  205.2070  143.8410 C   0  0  0  0  0  3  0  0  0  0  0  0
  161.1940  204.9110  145.0950 C   0  0  0  0  0  0  0  0  0  0  0  0
  162.1840  207.8450  147.8310 C   0  0  1  0  0  3  0  0  0  0  0  0
  162.0490  205.7480  147.1890 C   0  0  2  0  0  3  0  0  0  0  0  0
  162.1160  207.0690  149.1370 C   0  0  1  0  0  3  0  0  0  0  0  0
  159.7010  205.8630  150.0540 C   0  0  0  0  0  1  0  0  0  0  0  0
  161.9320  202.3450  146.0690 N   0  0  0  0  0  2  0  0  0  0  0  0
  161.0050  202.9300  148.1480 N   0  0  0  0  0  2  0  0  0  0  0  0
  161.9330  205.6280  148.7020 C   0  0  1  0  0  3  0  0  0  0  0  0
  160.6100  205.0590  149.1800 C   0  0  0  0  0  0  0  0  0  0  0  0
  160.2960  203.8140  148.9800 N   0  0  0  0  0  0  0  0  0  0  0  0
  161.6420  207.0390  146.8220 O   0  0  0  0  0  0  0  0  0  0  0  0
  161.4790  203.2790  146.8440 C   0  0  0  0  0  0  0  0  0  0  0  0
  161.4070  204.6690  146.3640 C   0  0  0  0  0  0  0  0  0  0  0  0
  162.0300  205.9700  143.0890 C   0  0  2  0  0  3  0  0  0  0  0  0
  163.0460  206.3660  143.9450 F   0  0  0  0  0  0  0  0  0  0  0  0
  161.4030  207.1920  142.4480 C   0  0  0  0  0  2  0  0  0  0  0  0
  161.6670  207.1620  140.9350 C   0  0  1  0  0  3  0  0  0  0  0  0
  162.8390  209.4020  139.9020 O   0  0  0  0  0  0  0  0  0  0  0  0
  160.7500  209.8300  141.4020 O   0  0  0  0  0  1  0  0  0  0  0  0
  161.4780  208.8370  140.2470 P   0  0  2  0  0  0  0  0  0  0  0  0
  160.4890  208.7910  138.8710 O   0  0  0  0  0  0  0  0  0  0  0  0
  160.3430  210.1170  138.4530 C   0  0  0  0  0  2  0  0  0  0  0  0
  159.2430  210.2230  137.4040 C   0  0  0  0  0  2  0  0  0  0  0  0
  158.1310  211.1650  137.8510 C   0  0  0  0  0  2  0  0  0  0  0  0
  154.8680  210.4090  139.3020 C   0  0  0  0  0  1  0  0  0  0  0  0
  155.7820  210.6210  138.1930 N   0  0  0  0  0  0  0  0  0  0  0  0
  157.1350  210.4370  138.7390 C   0  0  1  0  0  3  0  0  0  0  0  0
  156.5010  209.3540  137.9930 C   0  0  0  0  0  2  0  0  0  0  0  0
  162.7370  205.3180  139.7120 C   0  0  0  0  0  2  0  0  0  0  0  0
  163.0000  206.5710  139.0020 C   0  0  0  0  0  2  0  0  0  0  0  0
  162.9410  206.5650  140.4740 N   0  0  0  0  0  0  0  0  0  0  0  0
  161.4130  209.1530  147.9250 C   0  0  0  0  0  2  0  0  0  0  0  0
  162.3040  210.2650  148.4580 C   0  0  0  0  0  2  0  0  0  0  0  0
  161.5100  211.5530  148.6030 C   0  0  0  0  0  2  0  0  0  0  0  0
  162.4150  212.7440  148.3520 C   0  0  0  0  0  2  0  0  0  0  0  0
  163.1250  212.6020  147.0160 C   0  0  0  0  0  2  0  0  0  0  0  0
  162.3630  213.3120  145.9030 C   0  0  0  0  0  2  0  0  0  0  0  0
  163.0760  213.1660  144.5650 C   0  0  0  0  0  2  0  0  0  0  0  0
  162.4690  212.8730  142.1570 O   0  0  0  0  0  0  0  0  0  0  0  0
  160.9760  212.3180  143.8060 O   0  0  0  0  0  1  0  0  0  0  0  0
  162.1080  212.7740  143.4960 C   0  0  0  0  0  0  0  0  0  0  0  0
  163.3120  207.2190  149.8450 O   0  0  0  0  0  0  0  0  0  0  0  0
  162.9340  207.2840  151.1910 C   0  0  0  0  0  2  0  0  0  0  0  0
  162.3870  208.5380  151.4750 O   0  0  0  0  0  0  0  0  0  0  0  0
  161.4090  208.2770  152.3540 O   0  0  0  0  0  0  0  0  0  0  0  0
  160.4670  211.4520  153.9550 C   0  0  1  0  0  3  0  0  0  0  0  0
  159.6910  210.4450  155.2640 S   0  0  0  0  0  0  0  0  0  0  0  0
  160.9610  209.2470  153.2460 C   0  0  0  0  0  0  0  0  0  0  0  0
  160.4330  208.9180  154.5980 C   0  0  1  0  0  3  0  0  0  0  0  0
  160.9860  210.5230  152.9190 C   0  0  0  0  0  3  0  0  0  0  0  0
  161.5570  208.4720  155.4780 C   0  0  0  0  0  3  0  0  0  0  0  0
  162.1400  209.2720  156.1900 O   0  0  0  0  0  0  0  0  0  0  0  0
  159.4810  212.4580  153.3630 C   0  0  0  0  0  2  0  0  0  0  0  0
  158.8700  214.0820  154.9480 C   0  0  0  0  0  1  0  0  0  0  0  0
  158.4540  212.8370  154.3300 N   0  0  0  0  0  0  0  0  0  0  0  0
  157.2460  213.1260  153.5730 C   0  0  0  0  0  1  0  0  0  0  0  0
  1  2  2  0  0  0  0
  2 14  2  0  0  0  0
  3 33  1  1  0  0  0
  3  5  1  0  0  0  0
  4 14  1  6  0  0  0
  4  9  1  0  0  0  0
  5 43  1  6  0  0  0
  7 13  2  0  0  0  0
  8 11  1  0  0  0  0
  9  5  1  0  0  0  0
  9 10  1  6  0  0  0
 10  6  1  0  0  0  0
 11 10  2  0  0  0  0
 12  4  1  0  0  0  0
 12  3  1  0  0  0  0
 13  8  1  0  0  0  0
 14 13  1  0  0  0  0
 15  1  1  0  0  0  0
 15 16  1  1  0  0  0
 17 15  1  0  0  0  0
 18 17  1  1  0  0  0
 21 19  2  6  0  0  0
 21 18  1  0  0  0  0
 21 20  1  0  0  0  0
 22 21  1  0  0  0  0
 23 22  1  0  0  0  0
 24 25  1  0  0  0  0
 24 23  1  0  0  0  0
 27 28  1  0  0  0  0
 27 26  1  0  0  0  0
 28 25  1  6  0  0  0
 29 27  1  0  0  0  0
 29 28  1  0  0  0  0
 30 32  1  0  0  0  0
 31 30  1  0  0  0  0
 31 32  1  0  0  0  0
 32 18  1  0  0  0  0
 33 34  1  0  0  0  0
 34 35  1  0  0  0  0
 36 35  1  0  0  0  0
 37 36  1  0  0  0  0
 38 37  1  0  0  0  0
 39 38  1  0  0  0  0
 40 42  2  0  0  0  0
 42 41  1  0  0  0  0
 42 39  1  0  0  0  0
 43 44  1  0  0  0  0
 44 45  1  0  0  0  0
 45 46  1  0  0  0  0
 46 49  1  0  0  0  0
 47 54  1  6  0  0  0
 47 48  1  0  0  0  0
 49 50  1  0  0  0  0
 50 48  1  0  0  0  0
 50 52  1  1  0  0  0
 51 49  2  0  0  0  0
 51 47  1  0  0  0  0
 52 53  2  0  0  0  0
 54 56  1  0  0  0  0
 56 55  1  0  0  0  0
 57 56  1  0  0  0  0
M  END
>  <MODEL>
3

>  <REMARK>
 VINA RESULT:      -0.9      4.074     10.133
  Name = 
  26 active torsions:
  status: ('A' for Active; 'I' for Inactive)
    1  A    between atoms: C_2  and  C_40
    2  A    between atoms: O_4  and  O_7
    3  A    between atoms: O_4  and  C_31
    4  A    between atoms: N_5  and  C_48
    5  A    between atoms: O_7  and  C_29
    6  A    between atoms: C_8  and  C_10
    7  A    between atoms: C_8  and  C_32
    8  A    between atoms: C_9  and  C_28
    9  A    between atoms: C_10  and  C_27
   10  A    between atoms: C_11  and  P_45
   11  A    between atoms: C_11  and  N_46
   12  A    between atoms: C_11  and  C_49
   13  A    between atoms: C_15  and  C_48
   14  A    between atoms: C_17  and  C_26
   15  A    between atoms: C_17  and  C_36
   16  A    between atoms: O_18  and  C_26
   17  A    between atoms: O_18  and  P_45
   18  A    between atoms: C_21  and  C_32
   19  A    between atoms: C_24  and  O_30
   20  A    between atoms: C_27  and  C_52
   21  A    between atoms: C_28  and  C_49
   22  A    between atoms: C_29  and  O_30
   23  A    between atoms: C_36  and  C_44
   24  A    between atoms: C_41  and  C_42
   25  A    between atoms: C_42  and  C_43
   26  A    between atoms: C_43  and  C_52
                            x       y       z     vdW  Elec       q    Type
                         _______ _______ _______ _____ _____    ______ ____

>  <TORSDO>
F 26

$$$$
=
 OpenBabel11072414563D

 57 61  0  0  1  0  0  0  0  0999 V2000
  161.0100  205.2390  143.7960 C   0  0  0  0  0  3  0  0  0  0  0  0
  161.1980  204.9310  145.0490 C   0  0  0  0  0  0  0  0  0  0  0  0
  162.2140  207.8300  147.8120 C   0  0  1  0  0  3  0  0  0  0  0  0
  162.0540  205.7410  147.1540 C   0  0  2  0  0  3  0  0  0  0  0  0
  162.1290  207.0450  149.1120 C   0  0  1  0  0  3  0  0  0  0  0  0
  159.6940  205.8660  150.0080 C   0  0  0  0  0  1  0  0  0  0  0  0
  161.8960  202.3480  146.0070 N   0  0  0  0  0  2  0  0  0  0  0  0
  160.9670  202.9300  148.0860 N   0  0  0  0  0  2  0  0  0  0  0  0
  161.9290  205.6110  148.6650 C   0  0  1  0  0  3  0  0  0  0  0  0
  160.5960  205.0560  149.1320 C   0  0  0  0  0  0  0  0  0  0  0  0
  160.2660  203.8170  148.9220 N   0  0  0  0  0  0  0  0  0  0  0  0
  161.6670  207.0390  146.7950 O   0  0  0  0  0  0  0  0  0  0  0  0
  161.4520  203.2820  146.7870 C   0  0  0  0  0  0  0  0  0  0  0  0
  161.4020  204.6760  146.3170 C   0  0  0  0  0  0  0  0  0  0  0  0
  162.0580  205.9940  143.0560 C   0  0  2  0  0  3  0  0  0  0  0  0
  163.0840  206.3540  143.9160 F   0  0  0  0  0  0  0  0  0  0  0  0
  161.4560  207.2400  142.4370 C   0  0  0  0  0  2  0  0  0  0  0  0
  161.6600  207.2000  140.9150 C   0  0  1  0  0  3  0  0  0  0  0  0
  160.6160  209.7020  141.2410 O   0  0  0  0  0  1  0  0  0  0  0  0
  160.2860  208.6590  138.8750 O   0  0  0  0  0  0  0  0  0  0  0  0
  161.3070  208.8400  140.2070 P   0  0  2  0  0  0  0  0  0  0  0  0
  162.7480  209.5710  139.6920 O   0  0  0  0  0  0  0  0  0  0  0  0
  162.4080  210.3620  138.5900 C   0  0  0  0  0  2  0  0  0  0  0  0
  161.7390  211.6510  139.0500 C   0  0  0  0  0  2  0  0  0  0  0  0
  162.6730  212.4890  139.9150 C   0  0  0  0  0  2  0  0  0  0  0  0
  161.3320  212.4730  143.3110 C   0  0  0  0  0  1  0  0  0  0  0  0
  162.3940  212.3290  142.3290 N   0  0  0  0  0  0  0  0  0  0  0  0
  161.9360  213.0380  141.1260 C   0  0  1  0  0  3  0  0  0  0  0  0
  162.8800  213.6840  142.0340 C   0  0  0  0  0  2  0  0  0  0  0  0
  162.8250  205.4330  139.6660 C   0  0  0  0  0  2  0  0  0  0  0  0
  162.9650  206.6970  138.9390 C   0  0  0  0  0  2  0  0  0  0  0  0
  162.9590  206.6980  140.4120 N   0  0  0  0  0  0  0  0  0  0  0  0
  161.4600  209.1480  147.9130 C   0  0  0  0  0  2  0  0  0  0  0  0
  162.2770  210.1780  148.6790 C   0  0  0  0  0  2  0  0  0  0  0  0
  161.6040  211.5380  148.6160 C   0  0  0  0  0  2  0  0  0  0  0  0
  160.9760  211.7370  147.2500 C   0  0  0  0  0  2  0  0  0  0  0  0
  160.9080  213.2150  146.9040 C   0  0  0  0  0  2  0  0  0  0  0  0
  159.5180  213.6100  146.4200 C   0  0  0  0  0  2  0  0  0  0  0  0
  158.6050  213.9630  147.5870 C   0  0  0  0  0  2  0  0  0  0  0  0
  156.8720  212.7800  148.9470 O   0  0  0  0  0  1  0  0  0  0  0  0
  157.1620  212.2620  146.7330 O   0  0  0  0  0  0  0  0  0  0  0  0
  157.5200  212.9460  147.7280 C   0  0  0  0  0  0  0  0  0  0  0  0
  163.3240  207.1740  149.8270 O   0  0  0  0  0  0  0  0  0  0  0  0
  162.9390  207.2530  151.1710 C   0  0  0  0  0  2  0  0  0  0  0  0
  162.5360  208.5560  151.4770 O   0  0  0  0  0  0  0  0  0  0  0  0
  161.3580  208.3970  152.0960 O   0  0  0  0  0  0  0  0  0  0  0  0
  160.4670  211.4220  153.9910 C   0  0  1  0  0  3  0  0  0  0  0  0
  159.7080  210.3060  155.2190 S   0  0  0  0  0  0  0  0  0  0  0  0
  160.9320  209.2870  153.0790 C   0  0  0  0  0  0  0  0  0  0  0  0
  160.4270  208.8400  154.4060 C   0  0  1  0  0  3  0  0  0  0  0  0
  160.9610  210.5870  152.8670 C   0  0  0  0  0  3  0  0  0  0  0  0
  161.5640  208.3130  155.2210 C   0  0  0  0  0  3  0  0  0  0  0  0
  161.4170  208.0740  156.4080 O   0  0  0  0  0  0  0  0  0  0  0  0
  159.4760  212.4810  153.5100 C   0  0  0  0  0  2  0  0  0  0  0  0
  158.7950  214.1140  155.0560 C   0  0  0  0  0  1  0  0  0  0  0  0
  158.4850  212.7960  154.5350 N   0  0  0  0  0  0  0  0  0  0  0  0
  157.2000  212.9000  153.8620 C   0  0  0  0  0  1  0  0  0  0  0  0
  1  2  2  0  0  0  0
  2 14  2  0  0  0  0
  3 33  1  1  0  0  0
  3  5  1  0  0  0  0
  4 14  1  6  0  0  0
  4  9  1  0  0  0  0
  5 43  1  6  0  0  0
  7 13  2  0  0  0  0
  8 11  1  0  0  0  0
  9  5  1  0  0  0  0
  9 10  1  6  0  0  0
 10  6  1  0  0  0  0
 11 10  2  0  0  0  0
 12  4  1  0  0  0  0
 12  3  1  0  0  0  0
 13  8  1  0  0  0  0
 14 13  1  0  0  0  0
 15  1  1  0  0  0  0
 15 16  1  1  0  0  0
 17 15  1  0  0  0  0
 18 17  1  1  0  0  0
 21 20  2  6  0  0  0
 21 18  1  0  0  0  0
 21 19  1  0  0  0  0
 22 21  1  0  0  0  0
 23 24  1  0  0  0  0
 23 22  1  0  0  0  0
 24 25  1  0  0  0  0
 27 26  1  0  0  0  0
 28 25  1  6  0  0  0
 28 29  1  0  0  0  0
 28 27  1  0  0  0  0
 29 27  1  0  0  0  0
 30 32  1  0  0  0  0
 31 30  1  0  0  0  0
 31 32  1  0  0  0  0
 32 18  1  0  0  0  0
 33 34  1  0  0  0  0
 35 34  1  0  0  0  0
 36 35  1  0  0  0  0
 37 36  1  0  0  0  0
 38 37  1  0  0  0  0
 38 39  1  0  0  0  0
 39 42  1  0  0  0  0
 41 42  2  0  0  0  0
 42 40  1  0  0  0  0
 43 44  1  0  0  0  0
 44 45  1  0  0  0  0
 45 46  1  0  0  0  0
 46 49  1  0  0  0  0
 47 54  1  6  0  0  0
 47 48  1  0  0  0  0
 49 50  1  0  0  0  0
 50 48  1  0  0  0  0
 50 52  1  1  0  0  0
 51 49  2  0  0  0  0
 51 47  1  0  0  0  0
 52 53  2  0  0  0  0
 54 56  1  0  0  0  0
 56 55  1  0  0  0  0
 57 56  1  0  0  0  0
M  END
>  <MODEL>
4

>  <REMARK>
 VINA RESULT:      -0.8      3.686     10.264
  Name = 
  26 active torsions:
  status: ('A' for Active; 'I' for Inactive)
    1  A    between atoms: C_2  and  C_40
    2  A    between atoms: O_4  and  O_7
    3  A    between atoms: O_4  and  C_31
    4  A    between atoms: N_5  and  C_48
    5  A    between atoms: O_7  and  C_29
    6  A    between atoms: C_8  and  C_10
    7  A    between atoms: C_8  and  C_32
    8  A    between atoms: C_9  and  C_28
    9  A    between atoms: C_10  and  C_27
   10  A    between atoms: C_11  and  P_45
   11  A    between atoms: C_11  and  N_46
   12  A    between atoms: C_11  and  C_49
   13  A    between atoms: C_15  and  C_48
   14  A    between atoms: C_17  and  C_26
   15  A    between atoms: C_17  and  C_36
   16  A    between atoms: O_18  and  C_26
   17  A    between atoms: O_18  and  P_45
   18  A    between atoms: C_21  and  C_32
   19  A    between atoms: C_24  and  O_30
   20  A    between atoms: C_27  and  C_52
   21  A    between atoms: C_28  and  C_49
   22  A    between atoms: C_29  and  O_30
   23  A    between atoms: C_36  and  C_44
   24  A    between atoms: C_41  and  C_42
   25  A    between atoms: C_42  and  C_43
   26  A    between atoms: C_43  and  C_52
                            x       y       z     vdW  Elec       q    Type
                         _______ _______ _______ _____ _____    ______ ____

>  <TORSDO>
F 26

$$$$
=
 OpenBabel11072414563D

 57 61  0  0  1  0  0  0  0  0999 V2000
  161.2960  205.6560  154.5270 C   0  0  0  0  0  3  0  0  0  0  0  0
  161.0950  205.1730  153.3320 C   0  0  0  0  0  0  0  0  0  0  0  0
  161.2100  207.6280  150.0110 C   0  0  1  0  0  3  0  0  0  0  0  0
  160.6640  205.7620  151.0340 C   0  0  2  0  0  3  0  0  0  0  0  0
  161.1200  206.6100  148.8850 C   0  0  1  0  0  3  0  0  0  0  0  0
  163.1080  204.6040  148.5000 C   0  0  0  0  0  1  0  0  0  0  0  0
  159.6770  202.7780  152.7570 N   0  0  0  0  0  2  0  0  0  0  0  0
  160.8630  202.6280  150.7340 N   0  0  0  0  0  2  0  0  0  0  0  0
  160.8310  205.3010  149.5930 C   0  0  1  0  0  3  0  0  0  0  0  0
  161.9470  204.2920  149.3890 C   0  0  0  0  0  0  0  0  0  0  0  0
  161.8560  203.0800  149.8470 N   0  0  0  0  0  0  0  0  0  0  0  0
  161.4190  206.9300  151.2070 O   0  0  0  0  0  0  0  0  0  0  0  0
  160.4380  203.3610  151.8870 C   0  0  0  0  0  0  0  0  0  0  0  0
  160.8970  204.7420  152.1120 C   0  0  0  0  0  0  0  0  0  0  0  0
  160.4970  206.8200  154.9970 C   0  0  2  0  0  3  0  0  0  0  0  0
  159.1590  206.4720  155.0960 F   0  0  0  0  0  0  0  0  0  0  0  0
  160.6490  207.9750  154.0260 C   0  0  0  0  0  2  0  0  0  0  0  0
  160.8070  209.2840  154.8150 C   0  0  1  0  0  3  0  0  0  0  0  0
  159.8340  210.2870  152.4700 O   0  0  0  0  0  0  0  0  0  0  0  0
  160.8660  212.0490  154.0910 O   0  0  0  0  0  1  0  0  0  0  0  0
  159.9580  210.6340  153.9380 P   0  0  2  0  0  0  0  0  0  0  0  0
  158.4270  210.8950  154.6180 O   0  0  0  0  0  0  0  0  0  0  0  0
  158.4850  212.1480  155.2340 C   0  0  0  0  0  2  0  0  0  0  0  0
  158.2630  213.2530  154.2070 C   0  0  0  0  0  2  0  0  0  0  0  0
  157.5130  214.4350  154.8100 C   0  0  0  0  0  2  0  0  0  0  0  0
  154.2820  214.4530  156.5090 C   0  0  0  0  0  1  0  0  0  0  0  0
  155.1340  214.4500  155.3330 N   0  0  0  0  0  0  0  0  0  0  0  0
  156.4440  213.9550  155.7790 C   0  0  1  0  0  3  0  0  0  0  0  0
  155.5220  213.0510  155.0980 C   0  0  0  0  0  2  0  0  0  0  0  0
  161.5680  209.2120  157.1510 C   0  0  0  0  0  2  0  0  0  0  0  0
  160.8980  210.4920  156.9110 C   0  0  0  0  0  2  0  0  0  0  0  0
  160.4090  209.2750  156.2420 N   0  0  0  0  0  0  0  0  0  0  0  0
  162.3450  208.6140  149.7750 C   0  0  0  0  0  2  0  0  0  0  0  0
  161.8030  209.9520  149.2970 C   0  0  0  0  0  2  0  0  0  0  0  0
  162.7930  210.6130  148.3510 C   0  0  0  0  0  2  0  0  0  0  0  0
  162.3130  212.0080  148.0000 C   0  0  0  0  0  2  0  0  0  0  0  0
  160.7980  212.0380  147.8860 C   0  0  0  0  0  2  0  0  0  0  0  0
  160.2380  213.4030  148.2670 C   0  0  0  0  0  2  0  0  0  0  0  0
  158.8050  213.2910  148.7730 C   0  0  0  0  0  2  0  0  0  0  0  0
  157.5560  213.3780  150.9370 O   0  0  0  0  0  1  0  0  0  0  0  0
  159.8470  213.2930  150.9220 O   0  0  0  0  0  0  0  0  0  0  0  0
  158.7730  213.3340  150.2660 C   0  0  0  0  0  0  0  0  0  0  0  0
  160.0710  206.9420  148.0220 O   0  0  0  0  0  0  0  0  0  0  0  0
  160.6750  207.1540  146.7770 C   0  0  0  0  0  2  0  0  0  0  0  0
  162.0640  207.0440  146.8940 O   0  0  0  0  0  0  0  0  0  0  0  0
  162.4300  206.3620  145.8000 O   0  0  0  0  0  0  0  0  0  0  0  0
  161.2590  202.8930  145.4380 C   0  0  1  0  0  3  0  0  0  0  0  0
  159.8890  203.5670  144.4390 S   0  0  0  0  0  0  0  0  0  0  0  0
  161.7560  205.2080  145.4080 C   0  0  0  0  0  0  0  0  0  0  0  0
  160.6660  205.2160  144.3940 C   0  0  1  0  0  3  0  0  0  0  0  0
  162.0640  204.0390  145.9330 C   0  0  0  0  0  3  0  0  0  0  0  0
  161.2460  205.4680  143.0400 C   0  0  0  0  0  3  0  0  0  0  0  0
  161.4480  206.6070  142.6540 O   0  0  0  0  0  0  0  0  0  0  0  0
  160.7430  202.0320  146.5900 C   0  0  0  0  0  2  0  0  0  0  0  0
  161.3380  200.2170  147.9580 C   0  0  0  0  0  1  0  0  0  0  0  0
  161.3620  200.7100  146.5930 N   0  0  0  0  0  0  0  0  0  0  0  0
  160.4980  199.8370  145.8150 C   0  0  0  0  0  1  0  0  0  0  0  0
  1 15  1  0  0  0  0
  2  1  2  0  0  0  0
  3 33  1  6  0  0  0
  3 12  1  0  0  0  0
  4 12  1  1  0  0  0
  4 14  1  0  0  0  0
  5 43  1  6  0  0  0
  5  9  1  0  0  0  0
  5  3  1  0  0  0  0
  6 10  1  0  0  0  0
  8 13  1  0  0  0  0
  9 10  1  1  0  0  0
  9  4  1  0  0  0  0
 10 11  2  0  0  0  0
 11  8  1  0  0  0  0
 13 14  1  0  0  0  0
 13  7  2  0  0  0  0
 14  2  2  0  0  0  0
 15 16  1  6  0  0  0
 17 15  1  0  0  0  0
 18 17  1  6  0  0  0
 18 32  1  0  0  0  0
 21 19  2  6  0  0  0
 21 20  1  0  0  0  0
 21 22  1  0  0  0  0
 21 18  1  0  0  0  0
 22 23  1  0  0  0  0
 24 25  1  0  0  0  0
 24 23  1  0  0  0  0
 27 28  1  0  0  0  0
 27 26  1  0  0  0  0
 28 25  1  6  0  0  0
 29 27  1  0  0  0  0
 29 28  1  0  0  0  0
 31 30  1  0  0  0  0
 32 31  1  0  0  0  0
 32 30  1  0  0  0  0
 34 33  1  0  0  0  0
 35 34  1  0  0  0  0
 36 35  1  0  0  0  0
 37 36  1  0  0  0  0
 37 38  1  0  0  0  0
 38 39  1  0  0  0  0
 39 42  1  0  0  0  0
 42 41  2  0  0  0  0
 42 40  1  0  0  0  0
 44 45  1  0  0  0  0
 44 43  1  0  0  0  0
 46 45  1  0  0  0  0
 47 51  1  0  0  0  0
 47 54  1  1  0  0  0
 48 47  1  0  0  0  0
 49 46  1  0  0  0  0
 49 51  2  0  0  0  0
 50 52  1  6  0  0  0
 50 48  1  0  0  0  0
 50 49  1  0  0  0  0
 53 52  2  0  0  0  0
 54 56  1  0  0  0  0
 56 55  1  0  0  0  0
 57 56  1  0  0  0  0
M  END
>  <MODEL>
5

>  <REMARK>
 VINA RESULT:      -0.8      3.678      9.640
  Name = 
  26 active torsions:
  status: ('A' for Active; 'I' for Inactive)
    1  A    between atoms: C_2  and  C_40
    2  A    between atoms: O_4  and  O_7
    3  A    between atoms: O_4  and  C_31
    4  A    between atoms: N_5  and  C_48
    5  A    between atoms: O_7  and  C_29
    6  A    between atoms: C_8  and  C_10
    7  A    between atoms: C_8  and  C_32
    8  A    between atoms: C_9  and  C_28
    9  A    between atoms: C_10  and  C_27
   10  A    between atoms: C_11  and  P_45
   11  A    between atoms: C_11  and  N_46
   12  A    between atoms: C_11  and  C_49
   13  A    between atoms: C_15  and  C_48
   14  A    between atoms: C_17  and  C_26
   15  A    between atoms: C_17  and  C_36
   16  A    between atoms: O_18  and  C_26
   17  A    between atoms: O_18  and  P_45
   18  A    between atoms: C_21  and  C_32
   19  A    between atoms: C_24  and  O_30
   20  A    between atoms: C_27  and  C_52
   21  A    between atoms: C_28  and  C_49
   22  A    between atoms: C_29  and  O_30
   23  A    between atoms: C_36  and  C_44
   24  A    between atoms: C_41  and  C_42
   25  A    between atoms: C_42  and  C_43
   26  A    between atoms: C_43  and  C_52
                            x       y       z     vdW  Elec       q    Type
                         _______ _______ _______ _____ _____    ______ ____

>  <TORSDO>
F 26

$$$$
=
 OpenBabel11072414563D

 57 61  0  0  1  0  0  0  0  0999 V2000
  161.7930  205.6230  153.6010 C   0  0  0  0  0  3  0  0  0  0  0  0
  161.4470  205.0870  152.4640 C   0  0  0  0  0  0  0  0  0  0  0  0
  161.1970  207.3790  149.0350 C   0  0  1  0  0  3  0  0  0  0  0  0
  160.7550  205.5730  150.2050 C   0  0  2  0  0  3  0  0  0  0  0  0
  160.9640  206.3100  147.9790 C   0  0  1  0  0  3  0  0  0  0  0  0
  162.8710  204.2550  147.4630 C   0  0  0  0  0  1  0  0  0  0  0  0
  159.9450  202.6920  152.1770 N   0  0  0  0  0  2  0  0  0  0  0  0
  160.8820  202.4260  150.0390 N   0  0  0  0  0  2  0  0  0  0  0  0
  160.7460  205.0410  148.7790 C   0  0  1  0  0  3  0  0  0  0  0  0
  161.8190  204.0050  148.4960 C   0  0  0  0  0  0  0  0  0  0  0  0
  161.7690  202.8180  149.0210 N   0  0  0  0  0  0  0  0  0  0  0  0
  161.5380  206.7360  150.2310 O   0  0  0  0  0  0  0  0  0  0  0  0
  160.6040  203.2200  151.1960 C   0  0  0  0  0  0  0  0  0  0  0  0
  161.1020  204.6020  151.2980 C   0  0  0  0  0  0  0  0  0  0  0  0
  161.0680  206.8210  154.1040 C   0  0  2  0  0  3  0  0  0  0  0  0
  160.1970  207.2940  153.1340 F   0  0  0  0  0  0  0  0  0  0  0  0
  162.0600  207.9090  154.4660 C   0  0  0  0  0  2  0  0  0  0  0  0
  161.3750  208.9380  155.3790 C   0  0  1  0  0  3  0  0  0  0  0  0
  162.5190  210.6220  153.5600 O   0  0  0  0  0  0  0  0  0  0  0  0
  161.7040  211.7520  155.7640 O   0  0  0  0  0  1  0  0  0  0  0  0
  161.4090  210.5770  154.5880 P   0  0  2  0  0  0  0  0  0  0  0  0
  159.9120  210.9010  153.8600 O   0  0  0  0  0  0  0  0  0  0  0  0
  160.0470  212.1440  153.2340 C   0  0  0  0  0  2  0  0  0  0  0  0
  158.6750  212.7180  152.8990 C   0  0  0  0  0  2  0  0  0  0  0  0
  157.9410  213.1800  154.1530 C   0  0  0  0  0  2  0  0  0  0  0  0
  155.5740  210.8900  155.7270 C   0  0  0  0  0  1  0  0  0  0  0  0
  156.4870  212.0200  155.7240 N   0  0  0  0  0  0  0  0  0  0  0  0
  156.6330  212.4240  154.3190 C   0  0  1  0  0  3  0  0  0  0  0  0
  155.7350  213.1680  155.1980 C   0  0  0  0  0  2  0  0  0  0  0  0
  159.7950  209.0030  157.2610 C   0  0  0  0  0  2  0  0  0  0  0  0
  159.2960  209.8730  156.1930 C   0  0  0  0  0  2  0  0  0  0  0  0
  160.0050  208.6290  155.8490 N   0  0  0  0  0  0  0  0  0  0  0  0
  162.3080  208.3330  148.6200 C   0  0  0  0  0  2  0  0  0  0  0  0
  161.7520  209.7270  148.3680 C   0  0  0  0  0  2  0  0  0  0  0  0
  162.1600  210.6670  149.4900 C   0  0  0  0  0  2  0  0  0  0  0  0
  161.6960  212.0760  149.1730 C   0  0  0  0  0  2  0  0  0  0  0  0
  161.1800  212.1580  147.7450 C   0  0  0  0  0  2  0  0  0  0  0  0
  160.5820  213.5280  147.4480 C   0  0  0  0  0  2  0  0  0  0  0  0
  159.1110  213.5860  147.8380 C   0  0  0  0  0  2  0  0  0  0  0  0
  157.1620  212.5210  146.6890 O   0  0  0  0  0  1  0  0  0  0  0  0
  158.4700  214.0450  145.5830 O   0  0  0  0  0  0  0  0  0  0  0  0
  158.2440  213.3920  146.6360 C   0  0  0  0  0  0  0  0  0  0  0  0
  159.8250  206.6190  147.2300 O   0  0  0  0  0  0  0  0  0  0  0  0
  160.2960  206.8790  145.9380 C   0  0  0  0  0  2  0  0  0  0  0  0
  161.3240  205.9890  145.6150 O   0  0  0  0  0  0  0  0  0  0  0  0
  160.8160  205.2500  144.6190 O   0  0  0  0  0  0  0  0  0  0  0  0
  160.3880  201.6760  145.3800 C   0  0  1  0  0  3  0  0  0  0  0  0
  158.5980  202.0150  145.4800 S   0  0  0  0  0  0  0  0  0  0  0  0
  160.2880  203.9830  144.8550 C   0  0  0  0  0  0  0  0  0  0  0  0
  158.8290  203.6960  144.8110 C   0  0  1  0  0  3  0  0  0  0  0  0
  161.0800  202.9670  145.1360 C   0  0  0  0  0  3  0  0  0  0  0  0
  158.3530  203.7490  143.3940 C   0  0  0  0  0  3  0  0  0  0  0  0
  157.1610  203.7930  143.1420 O   0  0  0  0  0  0  0  0  0  0  0  0
  160.9010  200.9970  146.6490 C   0  0  0  0  0  2  0  0  0  0  0  0
  161.7900  198.9920  147.4940 C   0  0  0  0  0  1  0  0  0  0  0  0
  161.7790  199.8720  146.3400 N   0  0  0  0  0  0  0  0  0  0  0  0
  161.1550  199.1340  145.2530 C   0  0  0  0  0  1  0  0  0  0  0  0
  1 15  1  0  0  0  0
  2  1  2  0  0  0  0
  3 33  1  6  0  0  0
  3 12  1  0  0  0  0
  4 12  1  6  0  0  0
  4 14  1  0  0  0  0
  5 43  1  1  0  0  0
  5  9  1  0  0  0  0
  5  3  1  0  0  0  0
  6 10  1  0  0  0  0
  8 13  1  0  0  0  0
  9 10  1  1  0  0  0
  9  4  1  0  0  0  0
 10 11  2  0  0  0  0
 11  8  1  0  0  0  0
 13 14  1  0  0  0  0
 13  7  2  0  0  0  0
 14  2  2  0  0  0  0
 15 16  1  6  0  0  0
 15 17  1  0  0  0  0
 18 17  1  6  0  0  0
 18 32  1  0  0  0  0
 21 19  2  6  0  0  0
 21 18  1  0  0  0  0
 21 20  1  0  0  0  0
 22 21  1  0  0  0  0
 23 22  1  0  0  0  0
 24 23  1  0  0  0  0
 24 25  1  0  0  0  0
 27 26  1  0  0  0  0
 28 25  1  1  0  0  0
 28 29  1  0  0  0  0
 28 27  1  0  0  0  0
 29 27  1  0  0  0  0
 31 30  1  0  0  0  0
 32 31  1  0  0  0  0
 32 30  1  0  0  0  0
 34 33  1  0  0  0  0
 34 35  1  0  0  0  0
 36 35  1  0  0  0  0
 37 36  1  0  0  0  0
 38 37  1  0  0  0  0
 38 39  1  0  0  0  0
 41 42  2  0  0  0  0
 42 40  1  0  0  0  0
 42 39  1  0  0  0  0
 44 43  1  0  0  0  0
 45 44  1  0  0  0  0
 46 49  1  0  0  0  0
 46 45  1  0  0  0  0
 47 48  1  0  0  0  0
 47 54  1  1  0  0  0
 49 51  2  0  0  0  0
 50 52  1  6  0  0  0
 50 49  1  0  0  0  0
 50 48  1  0  0  0  0
 51 47  1  0  0  0  0
 53 52  2  0  0  0  0
 56 54  1  0  0  0  0
 56 55  1  0  0  0  0
 57 56  1  0  0  0  0
M  END
>  <MODEL>
6

>  <REMARK>
 VINA RESULT:      -0.6      3.600      9.533
  Name = 
  26 active torsions:
  status: ('A' for Active; 'I' for Inactive)
    1  A    between atoms: C_2  and  C_40
    2  A    between atoms: O_4  and  O_7
    3  A    between atoms: O_4  and  C_31
    4  A    between atoms: N_5  and  C_48
    5  A    between atoms: O_7  and  C_29
    6  A    between atoms: C_8  and  C_10
    7  A    between atoms: C_8  and  C_32
    8  A    between atoms: C_9  and  C_28
    9  A    between atoms: C_10  and  C_27
   10  A    between atoms: C_11  and  P_45
   11  A    between atoms: C_11  and  N_46
   12  A    between atoms: C_11  and  C_49
   13  A    between atoms: C_15  and  C_48
   14  A    between atoms: C_17  and  C_26
   15  A    between atoms: C_17  and  C_36
   16  A    between atoms: O_18  and  C_26
   17  A    between atoms: O_18  and  P_45
   18  A    between atoms: C_21  and  C_32
   19  A    between atoms: C_24  and  O_30
   20  A    between atoms: C_27  and  C_52
   21  A    between atoms: C_28  and  C_49
   22  A    between atoms: C_29  and  O_30
   23  A    between atoms: C_36  and  C_44
   24  A    between atoms: C_41  and  C_42
   25  A    between atoms: C_42  and  C_43
   26  A    between atoms: C_43  and  C_52
                            x       y       z     vdW  Elec       q    Type
                         _______ _______ _______ _____ _____    ______ ____

>  <TORSDO>
F 26

$$$$
=
 OpenBabel11072414563D

 57 61  0  0  1  0  0  0  0  0999 V2000
  161.0090  205.2620  143.7460 C   0  0  0  0  0  3  0  0  0  0  0  0
  161.2060  204.9300  144.9920 C   0  0  0  0  0  0  0  0  0  0  0  0
  162.1980  207.7850  147.8090 C   0  0  1  0  0  3  0  0  0  0  0  0
  162.0610  205.7080  147.1080 C   0  0  2  0  0  3  0  0  0  0  0  0
  162.1290  206.9740  149.0920 C   0  0  1  0  0  3  0  0  0  0  0  0
  159.7130  205.7460  149.9750 C   0  0  0  0  0  1  0  0  0  0  0  0
  161.9400  202.3380  145.8940 N   0  0  0  0  0  2  0  0  0  0  0  0
  161.0140  202.8660  147.9880 N   0  0  0  0  0  2  0  0  0  0  0  0
  161.9450  205.5460  148.6170 C   0  0  1  0  0  3  0  0  0  0  0  0
  160.6210  204.9650  149.0790 C   0  0  0  0  0  0  0  0  0  0  0  0
  160.3050  203.7270  148.8440 N   0  0  0  0  0  0  0  0  0  0  0  0
  161.6560  207.0090  146.7770 O   0  0  0  0  0  0  0  0  0  0  0  0
  161.4880  203.2500  146.6940 C   0  0  0  0  0  0  0  0  0  0  0  0
  161.4190  204.6530  146.2530 C   0  0  0  0  0  0  0  0  0  0  0  0
  162.0430  206.0440  143.0160 C   0  0  2  0  0  3  0  0  0  0  0  0
  163.0430  206.4450  143.8900 F   0  0  0  0  0  0  0  0  0  0  0  0
  161.4110  207.2660  142.3780 C   0  0  0  0  0  2  0  0  0  0  0  0
  161.7470  207.2860  140.8790 C   0  0  1  0  0  3  0  0  0  0  0  0
  163.2290  209.5440  140.4820 O   0  0  0  0  0  0  0  0  0  0  0  0
  160.7530  209.9480  141.1930 O   0  0  0  0  0  1  0  0  0  0  0  0
  161.8270  209.0070  140.2920 P   0  0  2  0  0  0  0  0  0  0  0  0
  161.3780  209.0840  138.6590 O   0  0  0  0  0  0  0  0  0  0  0  0
  160.0680  208.5990  138.5930 C   0  0  0  0  0  2  0  0  0  0  0  0
  159.3020  209.2960  137.4740 C   0  0  0  0  0  2  0  0  0  0  0  0
  158.0400  209.9710  137.9960 C   0  0  0  0  0  2  0  0  0  0  0  0
  158.4600  213.5700  138.4380 C   0  0  0  0  0  1  0  0  0  0  0  0
  157.7050  212.3810  138.0790 N   0  0  0  0  0  0  0  0  0  0  0  0
  158.3830  211.2540  138.7350 C   0  0  1  0  0  3  0  0  0  0  0  0
  157.1790  211.8230  139.3330 C   0  0  0  0  0  2  0  0  0  0  0  0
  162.6140  205.3650  139.6140 C   0  0  0  0  0  2  0  0  0  0  0  0
  163.0690  206.5990  138.9700 C   0  0  0  0  0  2  0  0  0  0  0  0
  162.9490  206.5420  140.4370 N   0  0  0  0  0  0  0  0  0  0  0  0
  161.4290  209.0920  147.9390 C   0  0  0  0  0  2  0  0  0  0  0  0
  162.2670  210.1410  148.6540 C   0  0  0  0  0  2  0  0  0  0  0  0
  162.0560  211.5060  148.0200 C   0  0  0  0  0  2  0  0  0  0  0  0
  161.3740  212.4300  149.0100 C   0  0  0  0  0  2  0  0  0  0  0  0
  161.0140  213.7490  148.3460 C   0  0  0  0  0  2  0  0  0  0  0  0
  159.5710  214.1430  148.6380 C   0  0  0  0  0  2  0  0  0  0  0  0
  158.5910  213.1660  148.0000 C   0  0  0  0  0  2  0  0  0  0  0  0
  156.2590  213.9390  148.4630 O   0  0  0  0  0  1  0  0  0  0  0  0
  157.2740  214.4420  146.4700 O   0  0  0  0  0  0  0  0  0  0  0  0
  157.3400  213.8730  147.5910 C   0  0  0  0  0  0  0  0  0  0  0  0
  163.3250  207.1020  149.8050 O   0  0  0  0  0  0  0  0  0  0  0  0
  162.9530  207.0680  151.1540 C   0  0  0  0  0  2  0  0  0  0  0  0
  162.1380  208.1640  151.4530 O   0  0  0  0  0  0  0  0  0  0  0  0
  161.5300  207.8150  152.5960 O   0  0  0  0  0  0  0  0  0  0  0  0
  160.3350  210.9570  154.0920 C   0  0  1  0  0  3  0  0  0  0  0  0
  159.6160  209.9330  155.4200 S   0  0  0  0  0  0  0  0  0  0  0  0
  160.9990  208.7750  153.4540 C   0  0  0  0  0  0  0  0  0  0  0  0
  160.4770  208.4460  154.8080 C   0  0  1  0  0  3  0  0  0  0  0  0
  160.9360  210.0400  153.0890 C   0  0  0  0  0  3  0  0  0  0  0  0
  161.6180  208.1100  155.7140 C   0  0  0  0  0  3  0  0  0  0  0  0
  161.4720  208.1210  156.9250 O   0  0  0  0  0  0  0  0  0  0  0  0
  159.2860  211.8700  153.4590 C   0  0  0  0  0  2  0  0  0  0  0  0
  159.1140  213.5870  155.0530 C   0  0  0  0  0  1  0  0  0  0  0  0
  158.4100  212.4630  154.4650 N   0  0  0  0  0  0  0  0  0  0  0  0
  157.2610  213.0060  153.7590 C   0  0  0  0  0  1  0  0  0  0  0  0
  1  2  2  0  0  0  0
  2 14  2  0  0  0  0
  3 33  1  1  0  0  0
  3  5  1  0  0  0  0
  4 14  1  6  0  0  0
  4  9  1  0  0  0  0
  5 43  1  6  0  0  0
  7 13  2  0  0  0  0
  8 11  1  0  0  0  0
  9 10  1  6  0  0  0
  9  5  1  0  0  0  0
 10  6  1  0  0  0  0
 11 10  2  0  0  0  0
 12  4  1  0  0  0  0
 12  3  1  0  0  0  0
 13  8  1  0  0  0  0
 14 13  1  0  0  0  0
 15  1  1  0  0  0  0
 15 16  1  1  0  0  0
 17 15  1  0  0  0  0
 18 17  1  1  0  0  0
 21 19  2  1  0  0  0
 21 18  1  0  0  0  0
 21 20  1  0  0  0  0
 22 21  1  0  0  0  0
 23 22  1  0  0  0  0
 24 25  1  0  0  0  0
 24 23  1  0  0  0  0
 27 26  1  0  0  0  0
 27 28  1  0  0  0  0
 27 29  1  0  0  0  0
 28 25  1  6  0  0  0
 28 29  1  0  0  0  0
 30 32  1  0  0  0  0
 31 30  1  0  0  0  0
 31 32  1  0  0  0  0
 32 18  1  0  0  0  0
 33 34  1  0  0  0  0
 35 34  1  0  0  0  0
 35 36  1  0  0  0  0
 37 38  1  0  0  0  0
 37 36  1  0  0  0  0
 39 38  1  0  0  0  0
 41 42  2  0  0  0  0
 42 39  1  0  0  0  0
 42 40  1  0  0  0  0
 43 44  1  0  0  0  0
 44 45  1  0  0  0  0
 45 46  1  0  0  0  0
 46 49  1  0  0  0  0
 47 54  1  6  0  0  0
 47 48  1  0  0  0  0
 49 50  1  0  0  0  0
 50 48  1  0  0  0  0
 50 52  1  1  0  0  0
 51 49  2  0  0  0  0
 51 47  1  0  0  0  0
 52 53  2  0  0  0  0
 54 56  1  0  0  0  0
 56 55  1  0  0  0  0
 57 56  1  0  0  0  0
M  END
>  <MODEL>
7

>  <REMARK>
 VINA RESULT:      -0.4      3.983     10.458
  Name = 
  26 active torsions:
  status: ('A' for Active; 'I' for Inactive)
    1  A    between atoms: C_2  and  C_40
    2  A    between atoms: O_4  and  O_7
    3  A    between atoms: O_4  and  C_31
    4  A    between atoms: N_5  and  C_48
    5  A    between atoms: O_7  and  C_29
    6  A    between atoms: C_8  and  C_10
    7  A    between atoms: C_8  and  C_32
    8  A    between atoms: C_9  and  C_28
    9  A    between atoms: C_10  and  C_27
   10  A    between atoms: C_11  and  P_45
   11  A    between atoms: C_11  and  N_46
   12  A    between atoms: C_11  and  C_49
   13  A    between atoms: C_15  and  C_48
   14  A    between atoms: C_17  and  C_26
   15  A    between atoms: C_17  and  C_36
   16  A    between atoms: O_18  and  C_26
   17  A    between atoms: O_18  and  P_45
   18  A    between atoms: C_21  and  C_32
   19  A    between atoms: C_24  and  O_30
   20  A    between atoms: C_27  and  C_52
   21  A    between atoms: C_28  and  C_49
   22  A    between atoms: C_29  and  O_30
   23  A    between atoms: C_36  and  C_44
   24  A    between atoms: C_41  and  C_42
   25  A    between atoms: C_42  and  C_43
   26  A    between atoms: C_43  and  C_52
                            x       y       z     vdW  Elec       q    Type
                         _______ _______ _______ _____ _____    ______ ____

>  <TORSDO>
F 26

$$$$
=
 OpenBabel11072414563D

 57 61  0  0  1  0  0  0  0  0999 V2000
  160.9150  205.2250  143.6960 C   0  0  0  0  0  3  0  0  0  0  0  0
  161.1510  204.8790  144.9310 C   0  0  0  0  0  0  0  0  0  0  0  0
  162.1960  207.7080  147.7550 C   0  0  1  0  0  3  0  0  0  0  0  0
  162.0600  205.6390  147.0320 C   0  0  2  0  0  3  0  0  0  0  0  0
  162.1720  206.8790  149.0300 C   0  0  1  0  0  3  0  0  0  0  0  0
  159.7950  205.6150  149.9650 C   0  0  0  0  0  1  0  0  0  0  0  0
  161.9370  202.2840  145.7770 N   0  0  0  0  0  2  0  0  0  0  0  0
  161.0670  202.7750  147.9040 N   0  0  0  0  0  2  0  0  0  0  0  0
  161.9890  205.4560  148.5410 C   0  0  1  0  0  3  0  0  0  0  0  0
  160.6840  204.8560  149.0330 C   0  0  0  0  0  0  0  0  0  0  0  0
  160.3750  203.6170  148.7920 N   0  0  0  0  0  0  0  0  0  0  0  0
  161.6320  206.9390  146.7300 O   0  0  0  0  0  0  0  0  0  0  0  0
  161.5000  203.1800  146.6020 C   0  0  0  0  0  0  0  0  0  0  0  0
  161.4030  204.5880  146.1820 C   0  0  0  0  0  0  0  0  0  0  0  0
  161.9200  206.0270  142.9470 C   0  0  2  0  0  3  0  0  0  0  0  0
  162.8780  206.5240  143.8180 F   0  0  0  0  0  0  0  0  0  0  0  0
  161.2350  207.1800  142.2380 C   0  0  0  0  0  2  0  0  0  0  0  0
  161.5700  207.1240  140.7400 C   0  0  1  0  0  3  0  0  0  0  0  0
  160.0210  208.6580  139.0960 O   0  0  0  0  0  1  0  0  0  0  0  0
  162.5740  209.1870  139.0330 O   0  0  0  0  0  0  0  0  0  0  0  0
  161.2470  208.7460  139.9790 P   0  0  2  0  0  0  0  0  0  0  0  0
  161.0270  209.9180  141.1850 O   0  0  0  0  0  0  0  0  0  0  0  0
  161.6800  211.0680  140.7320 C   0  0  0  0  0  2  0  0  0  0  0  0
  160.7370  211.9110  139.8820 C   0  0  0  0  0  2  0  0  0  0  0  0
  159.6780  212.5990  140.7360 C   0  0  0  0  0  2  0  0  0  0  0  0
  156.2160  213.6040  140.1630 C   0  0  0  0  0  1  0  0  0  0  0  0
  157.6100  213.8600  140.4830 N   0  0  0  0  0  0  0  0  0  0  0  0
  158.3620  212.7010  139.9810 C   0  0  1  0  0  3  0  0  0  0  0  0
  158.3280  213.9360  139.2030 C   0  0  0  0  0  2  0  0  0  0  0  0
  162.8800  205.3200  139.7030 C   0  0  0  0  0  2  0  0  0  0  0  0
  163.0180  206.5320  138.8920 C   0  0  0  0  0  2  0  0  0  0  0  0
  162.9170  206.6420  140.3570 N   0  0  0  0  0  0  0  0  0  0  0  0
  161.4180  209.0050  147.9250 C   0  0  0  0  0  2  0  0  0  0  0  0
  162.2240  210.0150  148.7280 C   0  0  0  0  0  2  0  0  0  0  0  0
  162.1290  211.3910  148.0900 C   0  0  0  0  0  2  0  0  0  0  0  0
  161.5960  212.3880  149.1010 C   0  0  0  0  0  2  0  0  0  0  0  0
  161.0690  213.6290  148.3990 C   0  0  0  0  0  2  0  0  0  0  0  0
  160.1150  213.2650  147.2670 C   0  0  0  0  0  2  0  0  0  0  0  0
  160.1720  214.2930  146.1440 C   0  0  0  0  0  2  0  0  0  0  0  0
  162.4200  213.9240  145.1150 O   0  0  0  0  0  1  0  0  0  0  0  0
  160.5200  213.2420  144.0270 O   0  0  0  0  0  0  0  0  0  0  0  0
  161.0380  213.8020  145.0300 C   0  0  0  0  0  0  0  0  0  0  0  0
  163.3870  207.0120  149.7090 O   0  0  0  0  0  0  0  0  0  0  0  0
  163.0380  207.1890  151.0530 C   0  0  0  0  0  2  0  0  0  0  0  0
  162.6160  208.5040  151.2690 O   0  0  0  0  0  0  0  0  0  0  0  0
  161.3690  208.3730  151.7430 O   0  0  0  0  0  0  0  0  0  0  0  0
  161.1230  208.8290  155.3860 C   0  0  1  0  0  3  0  0  0  0  0  0
  160.1130  207.3100  155.4050 S   0  0  0  0  0  0  0  0  0  0  0  0
  161.1280  208.1970  153.1030 C   0  0  0  0  0  0  0  0  0  0  0  0
  160.5100  206.9630  153.6590 C   0  0  1  0  0  3  0  0  0  0  0  0
  161.4460  209.1390  153.9690 C   0  0  0  0  0  3  0  0  0  0  0  0
  161.4860  205.8340  153.5750 C   0  0  0  0  0  3  0  0  0  0  0  0
  161.1820  204.7920  153.0180 O   0  0  0  0  0  0  0  0  0  0  0  0
  160.3990  209.9920  156.0620 C   0  0  0  0  0  2  0  0  0  0  0  0
  160.1130  212.1920  155.2870 C   0  0  0  0  0  1  0  0  0  0  0  0
  161.0840  211.2610  155.8300 N   0  0  0  0  0  0  0  0  0  0  0  0
  161.4780  211.7740  157.1320 C   0  0  0  0  0  1  0  0  0  0  0  0
  1  2  2  0  0  0  0
  2 14  2  0  0  0  0
  3 33  1  1  0  0  0
  3  5  1  0  0  0  0
  4 14  1  6  0  0  0
  4  9  1  0  0  0  0
  5 43  1  6  0  0  0
  7 13  2  0  0  0  0
  8 11  1  0  0  0  0
  9  5  1  0  0  0  0
  9 10  1  6  0  0  0
 10  6  1  0  0  0  0
 11 10  2  0  0  0  0
 12  4  1  0  0  0  0
 12  3  1  0  0  0  0
 13  8  1  0  0  0  0
 14 13  1  0  0  0  0
 15  1  1  0  0  0  0
 15 16  1  1  0  0  0
 17 15  1  0  0  0  0
 18 17  1  1  0  0  0
 19 21  1  0  0  0  0
 21 20  2  6  0  0  0
 21 18  1  0  0  0  0
 21 22  1  0  0  0  0
 23 22  1  0  0  0  0
 24 23  1  0  0  0  0
 24 25  1  0  0  0  0
 26 27  1  0  0  0  0
 28 27  1  0  0  0  0
 28 25  1  1  0  0  0
 29 28  1  0  0  0  0
 29 27  1  0  0  0  0
 30 32  1  0  0  0  0
 31 30  1  0  0  0  0
 31 32  1  0  0  0  0
 32 18  1  0  0  0  0
 33 34  1  0  0  0  0
 35 34  1  0  0  0  0
 35 36  1  0  0  0  0
 37 36  1  0  0  0  0
 38 37  1  0  0  0  0
 39 38  1  0  0  0  0
 41 42  2  0  0  0  0
 42 40  1  0  0  0  0
 42 39  1  0  0  0  0
 43 44  1  0  0  0  0
 44 45  1  0  0  0  0
 45 46  1  0  0  0  0
 46 49  1  0  0  0  0
 47 48  1  0  0  0  0
 47 54  1  6  0  0  0
 49 50  1  0  0  0  0
 49 51  2  0  0  0  0
 50 52  1  1  0  0  0
 50 48  1  0  0  0  0
 51 47  1  0  0  0  0
 53 52  2  0  0  0  0
 55 56  1  0  0  0  0
 56 54  1  0  0  0  0
 56 57  1  0  0  0  0
M  END
>  <MODEL>
8

>  <REMARK>
 VINA RESULT:      -0.3      3.777     10.669
  Name = 
  26 active torsions:
  status: ('A' for Active; 'I' for Inactive)
    1  A    between atoms: C_2  and  C_40
    2  A    between atoms: O_4  and  O_7
    3  A    between atoms: O_4  and  C_31
    4  A    between atoms: N_5  and  C_48
    5  A    between atoms: O_7  and  C_29
    6  A    between atoms: C_8  and  C_10
    7  A    between atoms: C_8  and  C_32
    8  A    between atoms: C_9  and  C_28
    9  A    between atoms: C_10  and  C_27
   10  A    between atoms: C_11  and  P_45
   11  A    between atoms: C_11  and  N_46
   12  A    between atoms: C_11  and  C_49
   13  A    between atoms: C_15  and  C_48
   14  A    between atoms: C_17  and  C_26
   15  A    between atoms: C_17  and  C_36
   16  A    between atoms: O_18  and  C_26
   17  A    between atoms: O_18  and  P_45
   18  A    between atoms: C_21  and  C_32
   19  A    between atoms: C_24  and  O_30
   20  A    between atoms: C_27  and  C_52
   21  A    between atoms: C_28  and  C_49
   22  A    between atoms: C_29  and  O_30
   23  A    between atoms: C_36  and  C_44
   24  A    between atoms: C_41  and  C_42
   25  A    between atoms: C_42  and  C_43
   26  A    between atoms: C_43  and  C_52
                            x       y       z     vdW  Elec       q    Type
                         _______ _______ _______ _____ _____    ______ ____

>  <TORSDO>
F 26

$$$$
=
 OpenBabel11072414563D

 57 61  0  0  1  0  0  0  0  0999 V2000
  161.1210  209.1360  154.4980 C   0  0  0  0  0  3  0  0  0  0  0  0
  161.1940  208.3310  153.4740 C   0  0  0  0  0  0  0  0  0  0  0  0
  161.6160  209.8150  149.6410 C   0  0  1  0  0  3  0  0  0  0  0  0
  161.1150  208.2200  151.0660 C   0  0  2  0  0  3  0  0  0  0  0  0
  161.8460  208.5360  148.8510 C   0  0  1  0  0  3  0  0  0  0  0  0
  164.0880  206.8450  149.3340 C   0  0  0  0  0  1  0  0  0  0  0  0
  160.1860  205.6750  153.4130 N   0  0  0  0  0  2  0  0  0  0  0  0
  161.7230  205.1910  151.7030 N   0  0  0  0  0  2  0  0  0  0  0  0
  161.5880  207.4300  149.8540 C   0  0  1  0  0  3  0  0  0  0  0  0
  162.8300  206.5950  150.1040 C   0  0  0  0  0  0  0  0  0  0  0  0
  162.8000  205.5470  150.8710 N   0  0  0  0  0  0  0  0  0  0  0  0
  161.6870  209.4980  151.0030 O   0  0  0  0  0  0  0  0  0  0  0  0
  161.0180  206.1230  152.5280 C   0  0  0  0  0  0  0  0  0  0  0  0
  161.2670  207.5690  152.4120 C   0  0  0  0  0  0  0  0  0  0  0  0
  160.1230  210.2400  154.5000 C   0  0  2  0  0  3  0  0  0  0  0  0
  160.6890  211.3970  153.9870 F   0  0  0  0  0  0  0  0  0  0  0  0
  159.6430  210.4980  155.9150 C   0  0  0  0  0  2  0  0  0  0  0  0
  159.0540  211.9140  156.0020 C   0  0  1  0  0  3  0  0  0  0  0  0
  156.6990  211.1660  157.1610 O   0  0  0  0  0  1  0  0  0  0  0  0
  156.7940  210.9070  154.5690 O   0  0  0  0  0  0  0  0  0  0  0  0
  157.2380  211.8280  155.9120 P   0  0  2  0  0  0  0  0  0  0  0  0
  156.5920  213.3860  155.7400 O   0  0  0  0  0  0  0  0  0  0  0  0
  157.3080  213.9900  154.7020 C   0  0  0  0  0  2  0  0  0  0  0  0
  157.4350  213.0360  153.5210 C   0  0  0  0  0  2  0  0  0  0  0  0
  157.2230  213.7550  152.1940 C   0  0  0  0  0  2  0  0  0  0  0  0
  158.5340  213.2910  148.8190 C   0  0  0  0  0  1  0  0  0  0  0  0
  158.3230  214.0470  150.0410 N   0  0  0  0  0  0  0  0  0  0  0  0
  157.9880  213.0610  151.0790 C   0  0  1  0  0  3  0  0  0  0  0  0
  159.3440  213.5960  150.9970 C   0  0  0  0  0  2  0  0  0  0  0  0
  160.8070  213.3460  156.9590 C   0  0  0  0  0  2  0  0  0  0  0  0
  159.6130  214.1590  156.7150 C   0  0  0  0  0  2  0  0  0  0  0  0
  159.4680  212.7580  157.1460 N   0  0  0  0  0  0  0  0  0  0  0  0
  162.6530  210.8730  149.2950 C   0  0  0  0  0  2  0  0  0  0  0  0
  162.1230  211.8170  148.2270 C   0  0  0  0  0  2  0  0  0  0  0  0
  161.9850  213.2220  148.7870 C   0  0  0  0  0  2  0  0  0  0  0  0
  162.2940  214.2390  147.7040 C   0  0  0  0  0  2  0  0  0  0  0  0
  161.1640  214.2980  146.6900 C   0  0  0  0  0  2  0  0  0  0  0  0
  161.4170  213.3580  145.5180 C   0  0  0  0  0  2  0  0  0  0  0  0
  160.1310  212.6790  145.0660 C   0  0  0  0  0  2  0  0  0  0  0  0
  160.1630  211.9900  142.6630 O   0  0  0  0  0  0  0  0  0  0  0  0
  159.3620  214.0510  143.2680 O   0  0  0  0  0  1  0  0  0  0  0  0
  159.8740  212.9560  143.6200 C   0  0  0  0  0  0  0  0  0  0  0  0
  160.9360  208.4590  147.7920 O   0  0  0  0  0  0  0  0  0  0  0  0
  161.2470  207.2660  147.1290 C   0  0  0  0  0  2  0  0  0  0  0  0
  162.5980  207.2540  146.7710 O   0  0  0  0  0  0  0  0  0  0  0  0
  162.8670  205.9600  146.5490 O   0  0  0  0  0  0  0  0  0  0  0  0
  161.0680  203.1450  145.0060 C   0  0  1  0  0  3  0  0  0  0  0  0
  160.0180  204.3950  144.1920 S   0  0  0  0  0  0  0  0  0  0  0  0
  162.0300  205.1740  145.7610 C   0  0  0  0  0  0  0  0  0  0  0  0
  161.1160  205.7460  144.7350 C   0  0  1  0  0  3  0  0  0  0  0  0
  162.0160  203.8630  145.8980 C   0  0  0  0  0  3  0  0  0  0  0  0
  161.9170  206.2470  143.5770 C   0  0  0  0  0  3  0  0  0  0  0  0
  161.4470  206.2450  142.4520 O   0  0  0  0  0  0  0  0  0  0  0  0
  160.2320  202.1280  145.7800 C   0  0  0  0  0  2  0  0  0  0  0  0
  160.4580  202.1720  148.1190 C   0  0  0  0  0  1  0  0  0  0  0  0
  160.9730  201.5660  146.9060 N   0  0  0  0  0  0  0  0  0  0  0  0
  160.6410  200.1520  146.9670 C   0  0  0  0  0  1  0  0  0  0  0  0
  1 15  1  0  0  0  0
  2  1  2  0  0  0  0
  3 33  1  6  0  0  0
  3 12  1  0  0  0  0
  4 12  1  1  0  0  0
  4 14  1  0  0  0  0
  5 43  1  6  0  0  0
  5  3  1  0  0  0  0
  5  9  1  0  0  0  0
  6 10  1  0  0  0  0
  8 13  1  0  0  0  0
  9 10  1  1  0  0  0
  9  4  1  0  0  0  0
 10 11  2  0  0  0  0
 11  8  1  0  0  0  0
 13  7  2  0  0  0  0
 14 13  1  0  0  0  0
 14  2  2  0  0  0  0
 15 16  1  1  0  0  0
 15 17  1  0  0  0  0
 18 17  1  1  0  0  0
 18 32  1  0  0  0  0
 21 20  2  6  0  0  0
 21 18  1  0  0  0  0
 21 19  1  0  0  0  0
 22 21  1  0  0  0  0
 23 22  1  0  0  0  0
 24 23  1  0  0  0  0
 25 24  1  0  0  0  0
 26 27  1  0  0  0  0
 27 29  1  0  0  0  0
 27 28  1  0  0  0  0
 28 25  1  1  0  0  0
 29 28  1  0  0  0  0
 30 32  1  0  0  0  0
 31 30  1  0  0  0  0
 31 32  1  0  0  0  0
 34 35  1  0  0  0  0
 34 33  1  0  0  0  0
 36 35  1  0  0  0  0
 37 36  1  0  0  0  0
 38 37  1  0  0  0  0
 39 38  1  0  0  0  0
 40 42  2  0  0  0  0
 41 42  1  0  0  0  0
 42 39  1  0  0  0  0
 44 43  1  0  0  0  0
 45 44  1  0  0  0  0
 46 45  1  0  0  0  0
 47 54  1  1  0  0  0
 47 51  1  0  0  0  0
 48 50  1  0  0  0  0
 48 47  1  0  0  0  0
 49 51  2  0  0  0  0
 49 46  1  0  0  0  0
 50 52  1  6  0  0  0
 50 49  1  0  0  0  0
 53 52  2  0  0  0  0
 54 56  1  0  0  0  0
 56 57  1  0  0  0  0
 56 55  1  0  0  0  0
M  END
>  <MODEL>
9

>  <REMARK>
 VINA RESULT:       0.0      3.458      9.114
  Name = 
  26 active torsions:
  status: ('A' for Active; 'I' for Inactive)
    1  A    between atoms: C_2  and  C_40
    2  A    between atoms: O_4  and  O_7
    3  A    between atoms: O_4  and  C_31
    4  A    between atoms: N_5  and  C_48
    5  A    between atoms: O_7  and  C_29
    6  A    between atoms: C_8  and  C_10
    7  A    between atoms: C_8  and  C_32
    8  A    between atoms: C_9  and  C_28
    9  A    between atoms: C_10  and  C_27
   10  A    between atoms: C_11  and  P_45
   11  A    between atoms: C_11  and  N_46
   12  A    between atoms: C_11  and  C_49
   13  A    between atoms: C_15  and  C_48
   14  A    between atoms: C_17  and  C_26
   15  A    between atoms: C_17  and  C_36
   16  A    between atoms: O_18  and  C_26
   17  A    between atoms: O_18  and  P_45
   18  A    between atoms: C_21  and  C_32
   19  A    between atoms: C_24  and  O_30
   20  A    between atoms: C_27  and  C_52
   21  A    between atoms: C_28  and  C_49
   22  A    between atoms: C_29  and  O_30
   23  A    between atoms: C_36  and  C_44
   24  A    between atoms: C_41  and  C_42
   25  A    between atoms: C_42  and  C_43
   26  A    between atoms: C_43  and  C_52
                            x       y       z     vdW  Elec       q    Type
                         _______ _______ _______ _____ _____    ______ ____

>  <TORSDO>
F 26

$$$$
