=
 OpenBabel11072415073D

 58 66  0  0  1  0  0  0  0  0999 V2000
  159.2650  213.8190  146.3790 C   0  0  0  0  0  2  0  0  0  0  0  0
  157.8010  213.2810  148.3320 C   0  0  0  0  0  0  0  0  0  0  0  0
  160.2180  213.2310  148.5500 O   0  0  0  0  0  1  0  0  0  0  0  0
  156.8300  213.0170  147.5690 O   0  0  0  0  0  0  0  0  0  0  0  0
  159.1180  213.4310  147.7750 N   0  0  0  0  0  0  0  0  0  0  0  0
  156.5090  214.2600  150.2320 C   0  0  0  0  0  3  0  0  0  0  0  0
  156.3100  214.4330  151.6030 C   0  0  0  0  0  3  0  0  0  0  0  0
  157.1540  213.7940  152.5130 C   0  0  0  0  0  3  0  0  0  0  0  0
  157.5550  213.4390  149.7810 C   0  0  0  0  0  0  0  0  0  0  0  0
  158.3660  212.8310  150.6910 N   0  0  0  0  0  0  0  0  0  0  0  0
  158.1950  212.9900  152.0350 C   0  0  0  0  0  0  0  0  0  0  0  0
  159.0910  212.2850  153.0100 C   0  0  1  0  0  3  0  0  0  0  0  0
  156.8710  211.4590  155.7370 C   0  0  0  0  0  0  0  0  0  0  0  0
  157.9040  212.1420  156.5790 C   0  0  0  0  0  2  0  0  0  0  0  0
  158.4110  212.0990  154.3370 C   0  0  0  0  0  0  0  0  0  0  0  0
  157.1610  211.4410  154.4760 N   0  0  0  0  0  0  0  0  0  0  0  0
  158.8710  212.5110  155.5100 C   0  0  0  0  0  0  0  0  0  0  0  0
  155.6260  210.8540  156.2770 C   0  0  0  0  0  1  0  0  0  0  0  0
  160.0370  213.1760  155.7070 F   0  0  0  0  0  0  0  0  0  0  0  0
  159.5420  211.0070  152.4740 N   0  0  0  0  0  2  0  0  0  0  0  0
  161.0950  209.0170  154.9930 C   0  0  0  0  0  0  0  0  0  0  0  0
  160.5110  208.6460  152.7930 C   0  0  0  0  0  2  0  0  0  0  0  0
  161.1270  208.0980  154.0430 C   0  0  0  0  0  0  0  0  0  0  0  0
  160.5030  210.2240  154.5260 N   0  0  0  0  0  0  0  0  0  0  0  0
  160.1660  210.0130  153.2900 C   0  0  0  0  0  0  0  0  0  0  0  0
  161.6620  206.8180  154.2050 O   0  0  0  0  0  0  0  0  0  0  0  0
  161.7580  205.9130  153.1190 C   0  0  0  0  0  1  0  0  0  0  0  0
  161.6650  208.8550  156.3700 C   0  0  0  0  0  2  0  0  0  0  0  0
  161.7610  210.1630  157.0110 N   0  0  0  0  0  1  0  0  0  0  0  0
  160.7260  214.0010  145.9980 C   0  0  0  0  0  2  0  0  0  0  0  0
  161.1690  212.8540  145.1020 C   0  0  2  0  0  3  0  0  0  0  0  0
  159.5580  214.0150  143.1660 C   0  0  2  0  0  3  0  0  0  0  0  0
  158.8710  213.3190  141.9980 C   0  0  0  0  0  2  0  0  0  0  0  0
  161.3600  214.0640  141.3150 C   0  0  1  0  0  3  0  0  0  0  0  0
  161.8280  213.3820  143.8470 C   0  0  2  0  0  3  0  0  0  0  0  0
  159.8830  214.4010  141.6790 C   0  0  2  0  0  3  0  0  0  0  0  0
  161.6140  212.5480  141.4760 C   0  0  2  0  0  3  0  0  0  0  0  0
  160.3760  212.8720  143.8120 C   0  0  1  0  0  3  0  0  0  0  0  0
  162.5100  212.5240  142.7460 C   0  0  0  0  0  2  0  0  0  0  0  0
  161.8660  213.2510  140.1490 C   0  0  2  0  0  0  0  0  0  0  0  0
  163.2460  213.3320  139.8560 O   0  0  0  0  0  0  0  0  0  0  0  0
  162.7130  212.3220  137.8430 F   0  0  0  0  0  0  0  0  0  0  0  0
  164.8530  212.6860  138.3900 F   0  0  0  0  0  0  0  0  0  0  0  0
  163.6110  212.3580  138.8980 C   0  0  0  0  0  0  0  0  0  0  0  0
  163.7020  211.1010  139.4750 F   0  0  0  0  0  0  0  0  0  0  0  0
  160.8760  212.8690  139.0450 C   0  0  0  0  0  2  0  0  0  0  0  0
  156.8780  210.1180  138.5300 C   0  0  2  0  0  3  0  0  0  0  0  0
  158.5550  212.0690  138.7020 C   0  0  2  0  0  3  0  0  0  0  0  0
  156.1160  212.5640  138.8080 C   0  0  0  0  0  2  0  0  0  0  0  0
  159.8240  211.8780  139.5290 C   0  0  1  0  0  3  0  0  0  0  0  0
  157.4280  212.6280  139.5790 C   0  0  0  0  0  2  0  0  0  0  0  0
  159.3030  209.8090  138.3760 N   0  0  0  0  0  2  0  0  0  0  0  0
  160.2110  210.4810  139.2230 C   0  0  0  0  0  0  0  0  0  0  0  0
  161.2260  209.9140  139.7020 O   0  0  0  0  0  0  0  0  0  0  0  0
  155.7180  211.1270  138.4490 C   0  0  0  0  0  2  0  0  0  0  0  0
  158.2140  210.7030  138.0380 C   0  0  1  0  0  3  0  0  0  0  0  0
  156.5160  208.8060  137.8290 C   0  0  0  0  0  2  0  0  0  0  0  0
  155.2350  208.9220  137.0110 C   0  0  0  0  0  1  0  0  0  0  0  0
  1  5  1  0  0  0  0
  2  9  1  0  0  0  0
  4  2  2  0  0  0  0
  5  2  1  0  0  0  0
  5  3  1  0  0  0  0
  6  7  1  0  0  0  0
  7  8  2  0  0  0  0
  9  6  2  0  0  0  0
  9 10  1  0  0  0  0
 10 11  2  0  0  0  0
 11  8  1  0  0  0  0
 11 12  1  0  0  0  0
 12 20  1  6  0  0  0
 12 15  1  0  0  0  0
 13 18  1  0  0  0  0
 13 14  1  0  0  0  0
 15 16  1  0  0  0  0
 15 17  2  0  0  0  0
 16 13  2  0  0  0  0
 17 19  1  0  0  0  0
 17 14  1  0  0  0  0
 20 25  1  0  0  0  0
 21 28  1  0  0  0  0
 22 25  1  0  0  0  0
 22 23  1  0  0  0  0
 23 26  1  0  0  0  0
 23 21  2  0  0  0  0
 24 21  1  0  0  0  0
 25 24  2  0  0  0  0
 27 26  1  0  0  0  0
 28 29  1  0  0  0  0
 30  1  1  0  0  0  0
 31 30  1  1  0  0  0
 32 33  1  6  0  0  0
 32 38  1  0  0  0  0
 34 37  1  0  0  0  0
 34 36  1  0  0  0  0
 35 31  1  0  0  0  0
 36 33  1  0  0  0  0
 36 32  1  0  0  0  0
 37 39  1  0  0  0  0
 38 35  1  0  0  0  0
 38 31  1  0  0  0  0
 39 35  1  0  0  0  0
 40 34  1  0  0  0  0
 40 37  1  0  0  0  0
 41 40  1  0  0  0  0
 42 44  1  0  0  0  0
 43 44  1  0  0  0  0
 44 45  1  0  0  0  0
 44 41  1  0  0  0  0
 46 50  1  0  0  0  0
 46 40  1  0  0  0  0
 48 50  1  0  0  0  0
 48 51  1  0  0  0  0
 49 51  1  0  0  0  0
 52 53  1  0  0  0  0
 53 50  1  0  0  0  0
 53 54  2  0  0  0  0
 55 47  1  0  0  0  0
 55 49  1  0  0  0  0
 56 52  1  0  0  0  0
 56 47  1  0  0  0  0
 56 48  1  0  0  0  0
 57 47  1  0  0  0  0
 58 57  1  0  0  0  0
M  END
>  <MODEL>
1

>  <REMARK>
 VINA RESULT:      -6.6      0.000      0.000
  Name = 
  14 active torsions:
  status: ('A' for Active; 'I' for Inactive)
    1  A    between atoms: N_2  and  C_38
    2  A    between atoms: C_3  and  C_53
    3  A    between atoms: C_3  and  N_57
    4  A    between atoms: C_4  and  C_14
    5  A    between atoms: C_5  and  C_32
    6  A    between atoms: C_6  and  C_53
    7  A    between atoms: O_9  and  C_49
    8  A    between atoms: O_9  and  C_55
    9  A    between atoms: C_12  and  C_25
   10  A    between atoms: C_16  and  C_38
   11  A    between atoms: C_20  and  O_29
   12  A    between atoms: C_25  and  C_49
   13  A    between atoms: C_31  and  C_45
   14  A    between atoms: C_38  and  C_54
                            x       y       z     vdW  Elec       q    Type
                         _______ _______ _______ _____ _____    ______ ____

>  <TORSDO>
F 14

$$$$
