=
 OpenBabel11072415253D

 25 25  0  0  1  0  0  0  0  0999 V2000
  160.6650  204.2710  150.3890 N   0  0  0  0  0  0  0  0  0  0  0  0
  160.4940  202.8310  150.5460 C   0  0  0  0  0  2  0  0  0  0  0  0
  161.6430  204.2380  151.4710 C   0  0  2  0  0  3  0  0  0  0  0  0
  161.4750  202.7520  151.6930 C   0  0  0  0  0  2  0  0  0  0  0  0
  161.1190  205.0250  152.6650 C   0  0  0  0  0  2  0  0  0  0  0  0
  161.9680  206.2640  152.9110 C   0  0  0  0  0  2  0  0  0  0  0  0
  161.1400  207.4100  153.2570 N   0  0  0  0  0  0  0  0  0  0  0  0
  160.2230  209.4540  152.5670 O   0  0  0  0  0  0  0  0  0  0  0  0
  160.9590  208.4670  152.3070 C   0  0  0  0  0  3  0  0  0  0  0  0
  160.5110  207.4490  154.5720 C   0  0  0  0  0  2  0  0  0  0  0  0
  161.0810  207.6550  156.8810 O   0  0  0  0  0  1  0  0  0  0  0  0
  161.4470  208.0660  155.5990 C   0  0  2  0  0  3  0  0  0  0  0  0
  161.3680  209.4430  155.5210 F   0  0  0  0  0  0  0  0  0  0  0  0
  161.3960  204.4860  149.1450 C   0  0  0  0  0  2  0  0  0  0  0  0
  160.7190  205.5520  148.2830 C   0  0  1  0  0  3  0  0  0  0  0  0
  160.6790  206.8180  148.9940 N   0  0  0  0  0  0  0  0  0  0  0  0
  162.3940  208.5850  148.5220 O   0  0  0  0  0  0  0  0  0  0  0  0
  161.5480  207.7140  148.7550 C   0  0  0  0  0  0  0  0  0  0  0  0
  161.4260  205.7350  146.9450 C   0  0  0  0  0  2  0  0  0  0  0  0
  163.4110  204.7510  146.0470 O   0  0  0  0  0  1  0  0  0  0  0  0
  162.1250  204.4580  146.5090 C   0  0  2  0  0  3  0  0  0  0  0  0
  161.3210  203.8080  145.3980 C   0  0  0  0  0  2  0  0  0  0  0  0
  160.8510  202.4560  145.8110 C   0  0  0  0  0  0  0  0  0  0  0  0
  160.1330  201.6670  144.9220 O   0  0  0  0  0  0  0  0  0  0  0  0
  161.0810  202.0380  146.9760 O   0  0  0  0  0  1  0  0  0  0  0  0
  1  2  1  0  0  0  0
  1  3  1  0  0  0  0
  2  4  1  0  0  0  0
  3  4  1  0  0  0  0
  3  5  1  1  0  0  0
  5  6  1  0  0  0  0
  6  7  1  0  0  0  0
  7 10  1  0  0  0  0
  9  8  2  0  0  0  0
  9  7  1  0  0  0  0
 10 12  1  0  0  0  0
 12 13  1  1  0  0  0
 12 11  1  0  0  0  0
 14  1  1  0  0  0  0
 15 19  1  6  0  0  0
 15 16  1  0  0  0  0
 15 14  1  0  0  0  0
 17 18  2  0  0  0  0
 18 16  2  0  0  0  0
 21 20  1  6  0  0  0
 21 19  1  0  0  0  0
 22 23  1  0  0  0  0
 22 21  1  0  0  0  0
 23 25  1  0  0  0  0
 24 23  2  0  0  0  0
M  END
>  <MODEL>
1

>  <REMARK>
 VINA RESULT:      -6.7      0.000      0.000
  Name = 
  12 active torsions:
  status: ('A' for Active; 'I' for Inactive)
    1  A    between atoms: N_1  and  C_18
    2  A    between atoms: C_2  and  N_13
    3  A    between atoms: C_2  and  C_18
    4  A    between atoms: C_2  and  C_23
    5  A    between atoms: N_4  and  C_15
    6  A    between atoms: N_4  and  C_20
    7  A    between atoms: C_5  and  C_8
    8  A    between atoms: C_5  and  C_9
    9  A    between atoms: C_6  and  C_15
   10  A    between atoms: C_9  and  C_23
   11  A    between atoms: C_11  and  C_12
   12  A    between atoms: C_11  and  C_20
                            x       y       z     vdW  Elec       q    Type
                         _______ _______ _______ _____ _____    ______ ____

>  <TORSDO>
F 12

$$$$
=
 OpenBabel11072415253D

 25 25  0  0  1  0  0  0  0  0999 V2000
  160.6300  204.1870  150.3420 N   0  0  0  0  0  0  0  0  0  0  0  0
  160.4490  202.7550  150.5460 C   0  0  0  0  0  2  0  0  0  0  0  0
  161.6400  204.1760  151.3950 C   0  0  2  0  0  3  0  0  0  0  0  0
  161.4630  202.6990  151.6650 C   0  0  0  0  0  2  0  0  0  0  0  0
  161.1590  205.0020  152.5800 C   0  0  0  0  0  2  0  0  0  0  0  0
  162.0000  206.2620  152.7370 C   0  0  0  0  0  2  0  0  0  0  0  0
  161.2150  207.3530  153.2980 N   0  0  0  0  0  0  0  0  0  0  0  0
  160.1620  208.2450  155.1930 O   0  0  0  0  0  0  0  0  0  0  0  0
  160.8130  207.3020  154.6720 C   0  0  0  0  0  3  0  0  0  0  0  0
  160.8590  208.4750  152.4380 C   0  0  0  0  0  2  0  0  0  0  0  0
  161.1900  210.7980  152.8780 O   0  0  0  0  0  1  0  0  0  0  0  0
  161.8600  209.6090  152.5900 C   0  0  2  0  0  3  0  0  0  0  0  0
  162.5680  209.7560  151.4130 F   0  0  0  0  0  0  0  0  0  0  0  0
  161.3260  204.3580  149.0710 C   0  0  0  0  0  2  0  0  0  0  0  0
  161.0140  205.7200  148.4480 C   0  0  1  0  0  3  0  0  0  0  0  0
  161.6290  206.7780  149.2300 N   0  0  0  0  0  0  0  0  0  0  0  0
  161.7430  209.1130  148.3210 O   0  0  0  0  0  0  0  0  0  0  0  0
  161.6860  207.9620  148.7690 C   0  0  0  0  0  0  0  0  0  0  0  0
  161.4880  205.8050  147.0020 C   0  0  0  0  0  2  0  0  0  0  0  0
  163.4340  204.7150  146.1430 O   0  0  0  0  0  1  0  0  0  0  0  0
  162.1140  204.4980  146.5460 C   0  0  2  0  0  3  0  0  0  0  0  0
  161.3110  203.9430  145.3820 C   0  0  0  0  0  2  0  0  0  0  0  0
  160.8270  202.5680  145.6860 C   0  0  0  0  0  0  0  0  0  0  0  0
  160.0420  201.8870  144.7640 O   0  0  0  0  0  0  0  0  0  0  0  0
  161.1050  202.0320  146.7910 O   0  0  0  0  0  1  0  0  0  0  0  0
  1  2  1  0  0  0  0
  1  3  1  0  0  0  0
  2  4  1  0  0  0  0
  3  4  1  0  0  0  0
  3  5  1  1  0  0  0
  5  6  1  0  0  0  0
  6  7  1  0  0  0  0
  7  9  1  0  0  0  0
  9  8  2  0  0  0  0
 10 12  1  0  0  0  0
 10  7  1  0  0  0  0
 12 13  1  6  0  0  0
 12 11  1  0  0  0  0
 14  1  1  0  0  0  0
 15 19  1  6  0  0  0
 15 14  1  0  0  0  0
 15 16  1  0  0  0  0
 17 18  2  0  0  0  0
 18 16  2  0  0  0  0
 21 20  1  6  0  0  0
 21 19  1  0  0  0  0
 22 23  1  0  0  0  0
 22 21  1  0  0  0  0
 23 25  1  0  0  0  0
 24 23  2  0  0  0  0
M  END
>  <MODEL>
2

>  <REMARK>
 VINA RESULT:      -6.6      1.093      1.780
  Name = 
  12 active torsions:
  status: ('A' for Active; 'I' for Inactive)
    1  A    between atoms: N_1  and  C_18
    2  A    between atoms: C_2  and  N_13
    3  A    between atoms: C_2  and  C_18
    4  A    between atoms: C_2  and  C_23
    5  A    between atoms: N_4  and  C_15
    6  A    between atoms: N_4  and  C_20
    7  A    between atoms: C_5  and  C_8
    8  A    between atoms: C_5  and  C_9
    9  A    between atoms: C_6  and  C_15
   10  A    between atoms: C_9  and  C_23
   11  A    between atoms: C_11  and  C_12
   12  A    between atoms: C_11  and  C_20
                            x       y       z     vdW  Elec       q    Type
                         _______ _______ _______ _____ _____    ______ ____

>  <TORSDO>
F 12

$$$$
=
 OpenBabel11072415253D

 25 25  0  0  1  0  0  0  0  0999 V2000
  161.4810  207.9720  149.9460 N   0  0  0  0  0  0  0  0  0  0  0  0
  161.8810  208.7480  148.7780 C   0  0  0  0  0  2  0  0  0  0  0  0
  161.9780  206.7740  149.2790 C   0  0  2  0  0  3  0  0  0  0  0  0
  162.3790  207.5300  148.0330 C   0  0  0  0  0  2  0  0  0  0  0  0
  160.8210  205.8270  148.9860 C   0  0  0  0  0  2  0  0  0  0  0  0
  161.2130  204.3860  149.2830 C   0  0  0  0  0  2  0  0  0  0  0  0
  161.2670  203.5930  148.0620 N   0  0  0  0  0  0  0  0  0  0  0  0
  161.7330  203.5490  145.7660 O   0  0  0  0  0  0  0  0  0  0  0  0
  161.6460  204.2160  146.8300 C   0  0  0  0  0  3  0  0  0  0  0  0
  160.9320  202.1760  148.1320 C   0  0  0  0  0  2  0  0  0  0  0  0
  161.1890  200.8990  150.1320 O   0  0  0  0  0  1  0  0  0  0  0  0
  160.3610  201.8240  149.4970 C   0  0  2  0  0  3  0  0  0  0  0  0
  159.1010  201.2790  149.3400 F   0  0  0  0  0  0  0  0  0  0  0  0
  162.4140  208.2950  151.0200 C   0  0  0  0  0  2  0  0  0  0  0  0
  161.6790  208.8250  152.2520 C   0  0  1  0  0  3  0  0  0  0  0  0
  161.0080  210.0730  151.9340 N   0  0  0  0  0  0  0  0  0  0  0  0
  159.1840  210.9390  153.4210 O   0  0  0  0  0  0  0  0  0  0  0  0
  160.0840  210.5120  152.6880 C   0  0  0  0  0  0  0  0  0  0  0  0
  160.6670  207.8170  152.7860 C   0  0  0  0  0  2  0  0  0  0  0  0
  161.3190  205.6000  153.3970 O   0  0  0  0  0  1  0  0  0  0  0  0
  161.2850  206.9220  153.8480 C   0  0  2  0  0  3  0  0  0  0  0  0
  160.4510  207.0080  155.1140 C   0  0  0  0  0  2  0  0  0  0  0  0
  160.6360  208.3290  155.7770 C   0  0  0  0  0  0  0  0  0  0  0  0
  161.9100  208.7600  156.1240 O   0  0  0  0  0  1  0  0  0  0  0  0
  159.6360  209.0430  156.0480 O   0  0  0  0  0  0  0  0  0  0  0  0
  1 14  1  0  0  0  0
  2  1  1  0  0  0  0
  3  5  1  6  0  0  0
  3  1  1  0  0  0  0
  4  2  1  0  0  0  0
  4  3  1  0  0  0  0
  5  6  1  0  0  0  0
  7 10  1  0  0  0  0
  7  6  1  0  0  0  0
  8  9  2  0  0  0  0
  9  7  1  0  0  0  0
 10 12  1  0  0  0  0
 12 13  1  6  0  0  0
 12 11  1  0  0  0  0
 15 14  1  6  0  0  0
 15 19  1  0  0  0  0
 16 15  1  0  0  0  0
 16 18  2  0  0  0  0
 18 17  2  0  0  0  0
 19 21  1  0  0  0  0
 21 20  1  6  0  0  0
 21 22  1  0  0  0  0
 22 23  1  0  0  0  0
 23 25  2  0  0  0  0
 23 24  1  0  0  0  0
M  END
>  <MODEL>
3

>  <REMARK>
 VINA RESULT:      -6.4      2.950      7.740
  Name = 
  12 active torsions:
  status: ('A' for Active; 'I' for Inactive)
    1  A    between atoms: N_1  and  C_18
    2  A    between atoms: C_2  and  N_13
    3  A    between atoms: C_2  and  C_18
    4  A    between atoms: C_2  and  C_23
    5  A    between atoms: N_4  and  C_15
    6  A    between atoms: N_4  and  C_20
    7  A    between atoms: C_5  and  C_8
    8  A    between atoms: C_5  and  C_9
    9  A    between atoms: C_6  and  C_15
   10  A    between atoms: C_9  and  C_23
   11  A    between atoms: C_11  and  C_12
   12  A    between atoms: C_11  and  C_20
                            x       y       z     vdW  Elec       q    Type
                         _______ _______ _______ _____ _____    ______ ____

>  <TORSDO>
F 12

$$$$
=
 OpenBabel11072415253D

 25 25  0  0  1  0  0  0  0  0999 V2000
  161.2530  207.7800  150.0580 N   0  0  0  0  0  0  0  0  0  0  0  0
  161.8250  208.7410  149.1210 C   0  0  0  0  0  2  0  0  0  0  0  0
  161.9250  206.7150  149.3220 C   0  0  2  0  0  3  0  0  0  0  0  0
  162.5120  207.6690  148.3070 C   0  0  0  0  0  2  0  0  0  0  0  0
  160.8910  205.8050  148.6710 C   0  0  0  0  0  2  0  0  0  0  0  0
  161.1320  204.3510  149.0550 C   0  0  0  0  0  2  0  0  0  0  0  0
  161.2320  203.5040  147.8750 N   0  0  0  0  0  0  0  0  0  0  0  0
  161.7540  203.3640  145.5940 O   0  0  0  0  0  0  0  0  0  0  0  0
  161.6280  204.0780  146.6230 C   0  0  0  0  0  3  0  0  0  0  0  0
  160.9270  202.0840  148.0030 C   0  0  0  0  0  2  0  0  0  0  0  0
  161.2080  200.8640  150.0350 O   0  0  0  0  0  1  0  0  0  0  0  0
  160.3750  201.7750  149.3860 C   0  0  2  0  0  3  0  0  0  0  0  0
  159.1110  201.2320  149.2640 F   0  0  0  0  0  0  0  0  0  0  0  0
  161.9540  207.9440  151.3270 C   0  0  0  0  0  2  0  0  0  0  0  0
  161.1240  207.4010  152.4910 C   0  0  1  0  0  3  0  0  0  0  0  0
  161.7410  206.2010  153.0270 N   0  0  0  0  0  0  0  0  0  0  0  0
  160.8210  203.9420  152.4440 O   0  0  0  0  0  0  0  0  0  0  0  0
  161.2750  205.0560  152.7310 C   0  0  0  0  0  0  0  0  0  0  0  0
  160.9560  208.4340  153.5990 C   0  0  0  0  0  2  0  0  0  0  0  0
  162.0260  210.5280  154.0270 O   0  0  0  0  0  1  0  0  0  0  0  0
  161.2460  209.8390  153.0960 C   0  0  2  0  0  3  0  0  0  0  0  0
  159.9320  210.5710  152.8900 C   0  0  0  0  0  2  0  0  0  0  0  0
  159.5470  211.3150  154.1220 C   0  0  0  0  0  0  0  0  0  0  0  0
  159.0030  210.6350  155.2040 O   0  0  0  0  0  1  0  0  0  0  0  0
  159.6880  212.5650  154.1730 O   0  0  0  0  0  0  0  0  0  0  0  0
  1 14  1  0  0  0  0
  2  1  1  0  0  0  0
  3  5  1  6  0  0  0
  3  1  1  0  0  0  0
  4  2  1  0  0  0  0
  4  3  1  0  0  0  0
  5  6  1  0  0  0  0
  7 10  1  0  0  0  0
  7  6  1  0  0  0  0
  8  9  2  0  0  0  0
  9  7  1  0  0  0  0
 10 12  1  0  0  0  0
 12 13  1  6  0  0  0
 12 11  1  0  0  0  0
 15 14  1  6  0  0  0
 15 16  1  0  0  0  0
 15 19  1  0  0  0  0
 17 18  2  0  0  0  0
 18 16  2  0  0  0  0
 21 19  1  0  0  0  0
 21 20  1  1  0  0  0
 22 21  1  0  0  0  0
 22 23  1  0  0  0  0
 23 25  2  0  0  0  0
 23 24  1  0  0  0  0
M  END
>  <MODEL>
4

>  <REMARK>
 VINA RESULT:      -6.4      3.077      8.056
  Name = 
  12 active torsions:
  status: ('A' for Active; 'I' for Inactive)
    1  A    between atoms: N_1  and  C_18
    2  A    between atoms: C_2  and  N_13
    3  A    between atoms: C_2  and  C_18
    4  A    between atoms: C_2  and  C_23
    5  A    between atoms: N_4  and  C_15
    6  A    between atoms: N_4  and  C_20
    7  A    between atoms: C_5  and  C_8
    8  A    between atoms: C_5  and  C_9
    9  A    between atoms: C_6  and  C_15
   10  A    between atoms: C_9  and  C_23
   11  A    between atoms: C_11  and  C_12
   12  A    between atoms: C_11  and  C_20
                            x       y       z     vdW  Elec       q    Type
                         _______ _______ _______ _____ _____    ______ ____

>  <TORSDO>
F 12

$$$$
=
 OpenBabel11072415253D

 25 25  0  0  1  0  0  0  0  0999 V2000
  161.4870  207.1010  150.0080 N   0  0  0  0  0  0  0  0  0  0  0  0
  161.4730  208.5550  149.9000 C   0  0  0  0  0  2  0  0  0  0  0  0
  162.2820  207.0510  148.7860 C   0  0  2  0  0  3  0  0  0  0  0  0
  162.2670  208.5530  148.6140 C   0  0  0  0  0  2  0  0  0  0  0  0
  161.4860  206.3730  147.6790 C   0  0  0  0  0  2  0  0  0  0  0  0
  162.1990  205.1200  147.1900 C   0  0  0  0  0  2  0  0  0  0  0  0
  161.8350  204.8090  145.8150 N   0  0  0  0  0  0  0  0  0  0  0  0
  161.1240  205.6270  143.7360 O   0  0  0  0  0  0  0  0  0  0  0  0
  161.4140  205.8610  144.9390 C   0  0  0  0  0  3  0  0  0  0  0  0
  161.9120  203.4240  145.3650 C   0  0  0  0  0  2  0  0  0  0  0  0
  160.8210  201.3550  145.8400 O   0  0  0  0  0  1  0  0  0  0  0  0
  160.5900  202.7090  145.5970 C   0  0  2  0  0  3  0  0  0  0  0  0
  159.7940  202.8430  144.4750 F   0  0  0  0  0  0  0  0  0  0  0  0
  162.3690  206.7580  151.1190 C   0  0  0  0  0  2  0  0  0  0  0  0
  161.8670  205.5200  151.8630 C   0  0  1  0  0  3  0  0  0  0  0  0
  161.6480  205.8340  153.2630 N   0  0  0  0  0  0  0  0  0  0  0  0
  160.7450  208.0790  153.9260 O   0  0  0  0  0  0  0  0  0  0  0  0
  161.1900  206.9720  153.5990 C   0  0  0  0  0  0  0  0  0  0  0  0
  160.5830  204.9710  151.2500 C   0  0  0  0  0  2  0  0  0  0  0  0
  161.7590  202.9510  151.7510 O   0  0  0  0  0  1  0  0  0  0  0  0
  160.6620  203.4660  151.0560 C   0  0  2  0  0  3  0  0  0  0  0  0
  160.8100  203.1650  149.5760 C   0  0  0  0  0  2  0  0  0  0  0  0
  160.4410  201.7510  149.2880 C   0  0  0  0  0  0  0  0  0  0  0  0
  161.4330  200.8040  149.0650 O   0  0  0  0  0  0  0  0  0  0  0  0
  159.2290  201.4180  149.2180 O   0  0  0  0  0  1  0  0  0  0  0  0
  1 14  1  0  0  0  0
  2  1  1  0  0  0  0
  3  5  1  6  0  0  0
  3  1  1  0  0  0  0
  4  3  1  0  0  0  0
  4  2  1  0  0  0  0
  6  5  1  0  0  0  0
  7  6  1  0  0  0  0
  8  9  2  0  0  0  0
  9  7  1  0  0  0  0
 10 12  1  0  0  0  0
 10  7  1  0  0  0  0
 12 13  1  6  0  0  0
 12 11  1  0  0  0  0
 15 14  1  6  0  0  0
 15 16  1  0  0  0  0
 16 18  2  0  0  0  0
 18 17  2  0  0  0  0
 19 15  1  0  0  0  0
 21 19  1  0  0  0  0
 21 20  1  1  0  0  0
 22 21  1  0  0  0  0
 23 22  1  0  0  0  0
 24 23  2  0  0  0  0
 25 23  1  0  0  0  0
M  END
>  <MODEL>
5

>  <REMARK>
 VINA RESULT:      -6.3      3.271      6.884
  Name = 
  12 active torsions:
  status: ('A' for Active; 'I' for Inactive)
    1  A    between atoms: N_1  and  C_18
    2  A    between atoms: C_2  and  N_13
    3  A    between atoms: C_2  and  C_18
    4  A    between atoms: C_2  and  C_23
    5  A    between atoms: N_4  and  C_15
    6  A    between atoms: N_4  and  C_20
    7  A    between atoms: C_5  and  C_8
    8  A    between atoms: C_5  and  C_9
    9  A    between atoms: C_6  and  C_15
   10  A    between atoms: C_9  and  C_23
   11  A    between atoms: C_11  and  C_12
   12  A    between atoms: C_11  and  C_20
                            x       y       z     vdW  Elec       q    Type
                         _______ _______ _______ _____ _____    ______ ____

>  <TORSDO>
F 12

$$$$
=
 OpenBabel11072415253D

 25 25  0  0  1  0  0  0  0  0999 V2000
  161.8780  206.4030  151.6330 N   0  0  0  0  0  0  0  0  0  0  0  0
  161.9120  205.8710  152.9900 C   0  0  0  0  0  2  0  0  0  0  0  0
  160.9250  205.3560  151.2820 C   0  0  2  0  0  3  0  0  0  0  0  0
  160.9540  204.7480  152.6650 C   0  0  0  0  0  2  0  0  0  0  0  0
  161.5500  204.4090  150.2640 C   0  0  0  0  0  2  0  0  0  0  0  0
  161.1220  204.7770  148.8500 C   0  0  0  0  0  2  0  0  0  0  0  0
  161.2470  203.6390  147.9500 N   0  0  0  0  0  0  0  0  0  0  0  0
  161.0300  201.3220  147.6670 O   0  0  0  0  0  0  0  0  0  0  0  0
  160.9620  202.3210  148.4310 C   0  0  0  0  0  3  0  0  0  0  0  0
  161.6590  203.8780  146.5720 C   0  0  0  0  0  2  0  0  0  0  0  0
  162.2290  205.8850  145.4110 O   0  0  0  0  0  1  0  0  0  0  0  0
  162.5910  205.0770  146.4890 C   0  0  2  0  0  3  0  0  0  0  0  0
  163.8890  204.6360  146.3140 F   0  0  0  0  0  0  0  0  0  0  0  0
  161.1440  207.6630  151.6810 C   0  0  0  0  0  2  0  0  0  0  0  0
  162.0890  208.8590  151.5640 C   0  0  1  0  0  3  0  0  0  0  0  0
  161.9690  209.4640  150.2490 N   0  0  0  0  0  0  0  0  0  0  0  0
  162.2720  208.0680  148.1870 O   0  0  0  0  0  0  0  0  0  0  0  0
  162.1220  208.7570  149.2040 C   0  0  0  0  0  0  0  0  0  0  0  0
  161.8180  209.9050  152.6390 C   0  0  0  0  0  2  0  0  0  0  0  0
  159.5440  210.6430  152.6360 O   0  0  0  0  0  1  0  0  0  0  0  0
  160.4290  209.7420  153.2330 C   0  0  2  0  0  3  0  0  0  0  0  0
  160.4940  210.0070  154.7270 C   0  0  0  0  0  2  0  0  0  0  0  0
  160.8930  208.7750  155.4630 C   0  0  0  0  0  0  0  0  0  0  0  0
  160.0740  207.6530  155.4350 O   0  0  0  0  0  0  0  0  0  0  0  0
  161.9580  208.7580  156.1330 O   0  0  0  0  0  1  0  0  0  0  0  0
  1 14  1  0  0  0  0
  1  2  1  0  0  0  0
  3  5  1  6  0  0  0
  3  1  1  0  0  0  0
  3  4  1  0  0  0  0
  4  2  1  0  0  0  0
  6  5  1  0  0  0  0
  7  9  1  0  0  0  0
  7  6  1  0  0  0  0
  8  9  2  0  0  0  0
 10  7  1  0  0  0  0
 12 11  1  6  0  0  0
 12 10  1  0  0  0  0
 13 12  1  0  0  0  0
 15 14  1  6  0  0  0
 15 19  1  0  0  0  0
 16 15  1  0  0  0  0
 17 18  2  0  0  0  0
 18 16  2  0  0  0  0
 19 21  1  0  0  0  0
 21 20  1  6  0  0  0
 21 22  1  0  0  0  0
 22 23  1  0  0  0  0
 23 25  1  0  0  0  0
 24 23  2  0  0  0  0
M  END
>  <MODEL>
6

>  <REMARK>
 VINA RESULT:      -6.3      2.654      7.673
  Name = 
  12 active torsions:
  status: ('A' for Active; 'I' for Inactive)
    1  A    between atoms: N_1  and  C_18
    2  A    between atoms: C_2  and  N_13
    3  A    between atoms: C_2  and  C_18
    4  A    between atoms: C_2  and  C_23
    5  A    between atoms: N_4  and  C_15
    6  A    between atoms: N_4  and  C_20
    7  A    between atoms: C_5  and  C_8
    8  A    between atoms: C_5  and  C_9
    9  A    between atoms: C_6  and  C_15
   10  A    between atoms: C_9  and  C_23
   11  A    between atoms: C_11  and  C_12
   12  A    between atoms: C_11  and  C_20
                            x       y       z     vdW  Elec       q    Type
                         _______ _______ _______ _____ _____    ______ ____

>  <TORSDO>
F 12

$$$$
=
 OpenBabel11072415253D

 25 25  0  0  1  0  0  0  0  0999 V2000
  161.7860  206.7310  149.3890 N   0  0  0  0  0  0  0  0  0  0  0  0
  162.4220  207.7940  148.6210 C   0  0  0  0  0  2  0  0  0  0  0  0
  161.2720  207.7440  150.3040 C   0  0  2  0  0  3  0  0  0  0  0  0
  161.9410  208.8770  149.5590 C   0  0  0  0  0  2  0  0  0  0  0  0
  161.8970  207.5620  151.6810 C   0  0  0  0  0  2  0  0  0  0  0  0
  160.8280  207.5770  152.7660 C   0  0  0  0  0  2  0  0  0  0  0  0
  161.1640  208.5200  153.8230 N   0  0  0  0  0  0  0  0  0  0  0  0
  161.6830  210.7350  154.3900 O   0  0  0  0  0  0  0  0  0  0  0  0
  161.4230  209.8900  153.4930 C   0  0  0  0  0  3  0  0  0  0  0  0
  161.2250  208.0400  155.1980 C   0  0  0  0  0  2  0  0  0  0  0  0
  159.7120  209.2160  156.6220 O   0  0  0  0  0  1  0  0  0  0  0  0
  159.8470  208.0680  155.8400 C   0  0  2  0  0  3  0  0  0  0  0  0
  159.6900  206.9510  156.6370 F   0  0  0  0  0  0  0  0  0  0  0  0
  160.6600  206.2410  148.6010 C   0  0  0  0  0  2  0  0  0  0  0  0
  160.8260  204.7610  148.2590 C   0  0  1  0  0  3  0  0  0  0  0  0
  161.4830  204.6160  146.9720 N   0  0  0  0  0  0  0  0  0  0  0  0
  161.1950  202.5130  145.6370 O   0  0  0  0  0  0  0  0  0  0  0  0
  161.3370  203.5510  146.2950 C   0  0  0  0  0  0  0  0  0  0  0  0
  161.6170  204.0150  149.3280 C   0  0  0  0  0  2  0  0  0  0  0  0
  161.1120  204.2140  151.6550 O   0  0  0  0  0  1  0  0  0  0  0  0
  160.7220  203.5780  150.4750 C   0  0  2  0  0  3  0  0  0  0  0  0
  160.8360  202.0730  150.6460 C   0  0  0  0  0  2  0  0  0  0  0  0
  160.5140  201.3730  149.3710 C   0  0  0  0  0  0  0  0  0  0  0  0
  161.5290  200.7980  148.6180 O   0  0  0  0  0  0  0  0  0  0  0  0
  159.3250  201.3270  148.9610 O   0  0  0  0  0  1  0  0  0  0  0  0
  1  3  1  0  0  0  0
  2  1  1  0  0  0  0
  2  4  1  0  0  0  0
  3  5  1  1  0  0  0
  4  3  1  0  0  0  0
  5  6  1  0  0  0  0
  6  7  1  0  0  0  0
  7 10  1  0  0  0  0
  9  7  1  0  0  0  0
  9  8  2  0  0  0  0
 10 12  1  0  0  0  0
 12 11  1  1  0  0  0
 12 13  1  0  0  0  0
 14  1  1  0  0  0  0
 15 14  1  1  0  0  0
 15 19  1  0  0  0  0
 16 15  1  0  0  0  0
 17 18  2  0  0  0  0
 18 16  2  0  0  0  0
 19 21  1  0  0  0  0
 21 22  1  0  0  0  0
 21 20  1  1  0  0  0
 23 22  1  0  0  0  0
 24 23  2  0  0  0  0
 25 23  1  0  0  0  0
M  END
>  <MODEL>
7

>  <REMARK>
 VINA RESULT:      -6.1      2.037      3.770
  Name = 
  12 active torsions:
  status: ('A' for Active; 'I' for Inactive)
    1  A    between atoms: N_1  and  C_18
    2  A    between atoms: C_2  and  N_13
    3  A    between atoms: C_2  and  C_18
    4  A    between atoms: C_2  and  C_23
    5  A    between atoms: N_4  and  C_15
    6  A    between atoms: N_4  and  C_20
    7  A    between atoms: C_5  and  C_8
    8  A    between atoms: C_5  and  C_9
    9  A    between atoms: C_6  and  C_15
   10  A    between atoms: C_9  and  C_23
   11  A    between atoms: C_11  and  C_12
   12  A    between atoms: C_11  and  C_20
                            x       y       z     vdW  Elec       q    Type
                         _______ _______ _______ _____ _____    ______ ____

>  <TORSDO>
F 12

$$$$
=
 OpenBabel11072415253D

 25 25  0  0  1  0  0  0  0  0999 V2000
  161.9300  206.8840  149.0890 N   0  0  0  0  0  0  0  0  0  0  0  0
  162.3950  207.7050  147.9770 C   0  0  0  0  0  2  0  0  0  0  0  0
  161.4870  208.1020  149.7580 C   0  0  2  0  0  3  0  0  0  0  0  0
  161.9830  208.9960  148.6450 C   0  0  0  0  0  2  0  0  0  0  0  0
  162.3000  208.3200  151.0280 C   0  0  0  0  0  2  0  0  0  0  0  0
  161.5050  209.1220  152.0480 C   0  0  0  0  0  2  0  0  0  0  0  0
  161.1750  208.3130  153.2130 N   0  0  0  0  0  0  0  0  0  0  0  0
  160.9520  206.1590  154.1120 O   0  0  0  0  0  0  0  0  0  0  0  0
  161.2010  206.8840  153.1130 C   0  0  0  0  0  3  0  0  0  0  0  0
  160.8260  208.9860  154.4590 C   0  0  0  0  0  2  0  0  0  0  0  0
  161.6200  211.0850  155.2730 O   0  0  0  0  0  1  0  0  0  0  0  0
  160.8410  210.4960  154.2770 C   0  0  2  0  0  3  0  0  0  0  0  0
  159.5500  210.9790  154.3600 F   0  0  0  0  0  0  0  0  0  0  0  0
  160.7380  206.1760  148.6350 C   0  0  0  0  0  2  0  0  0  0  0  0
  160.8470  204.6760  148.9130 C   0  0  1  0  0  3  0  0  0  0  0  0
  161.7620  204.0590  147.9700 N   0  0  0  0  0  0  0  0  0  0  0  0
  161.3720  204.2840  145.5020 O   0  0  0  0  0  0  0  0  0  0  0  0
  161.5650  204.1730  146.7190 C   0  0  0  0  0  0  0  0  0  0  0  0
  161.3080  204.3940  150.3380 C   0  0  0  0  0  2  0  0  0  0  0  0
  160.4610  203.4130  152.3470 O   0  0  0  0  0  1  0  0  0  0  0  0
  160.5190  203.2540  150.9600 C   0  0  2  0  0  3  0  0  0  0  0  0
  161.2030  201.9390  150.6270 C   0  0  0  0  0  2  0  0  0  0  0  0
  160.5190  201.2650  149.4880 C   0  0  0  0  0  0  0  0  0  0  0  0
  161.2640  200.5830  148.5350 O   0  0  0  0  0  0  0  0  0  0  0  0
  159.2670  201.3370  149.3730 O   0  0  0  0  0  1  0  0  0  0  0  0
  1  3  1  0  0  0  0
  2  4  1  0  0  0  0
  2  1  1  0  0  0  0
  3  5  1  1  0  0  0
  4  3  1  0  0  0  0
  5  6  1  0  0  0  0
  6  7  1  0  0  0  0
  7 10  1  0  0  0  0
  9  7  1  0  0  0  0
  9  8  2  0  0  0  0
 12 13  1  1  0  0  0
 12 10  1  0  0  0  0
 12 11  1  0  0  0  0
 14  1  1  0  0  0  0
 15 14  1  6  0  0  0
 15 19  1  0  0  0  0
 16 15  1  0  0  0  0
 17 18  2  0  0  0  0
 18 16  2  0  0  0  0
 19 21  1  0  0  0  0
 21 20  1  1  0  0  0
 22 21  1  0  0  0  0
 23 22  1  0  0  0  0
 24 23  2  0  0  0  0
 25 23  1  0  0  0  0
M  END
>  <MODEL>
8

>  <REMARK>
 VINA RESULT:      -6.1      2.157      4.014
  Name = 
  12 active torsions:
  status: ('A' for Active; 'I' for Inactive)
    1  A    between atoms: N_1  and  C_18
    2  A    between atoms: C_2  and  N_13
    3  A    between atoms: C_2  and  C_18
    4  A    between atoms: C_2  and  C_23
    5  A    between atoms: N_4  and  C_15
    6  A    between atoms: N_4  and  C_20
    7  A    between atoms: C_5  and  C_8
    8  A    between atoms: C_5  and  C_9
    9  A    between atoms: C_6  and  C_15
   10  A    between atoms: C_9  and  C_23
   11  A    between atoms: C_11  and  C_12
   12  A    between atoms: C_11  and  C_20
                            x       y       z     vdW  Elec       q    Type
                         _______ _______ _______ _____ _____    ______ ____

>  <TORSDO>
F 12

$$$$
=
 OpenBabel11072415253D

 25 25  0  0  1  0  0  0  0  0999 V2000
  161.6040  203.9330  151.3270 N   0  0  0  0  0  0  0  0  0  0  0  0
  161.5670  202.5080  151.6340 C   0  0  0  0  0  2  0  0  0  0  0  0
  160.8580  203.6540  150.1040 C   0  0  2  0  0  3  0  0  0  0  0  0
  160.8240  202.1650  150.3640 C   0  0  0  0  0  2  0  0  0  0  0  0
  161.7210  203.9700  148.8890 C   0  0  0  0  0  2  0  0  0  0  0  0
  160.8550  204.3210  147.6870 C   0  0  0  0  0  2  0  0  0  0  0  0
  161.1310  203.4380  146.5630 N   0  0  0  0  0  0  0  0  0  0  0  0
  160.8830  201.3000  145.6340 O   0  0  0  0  0  0  0  0  0  0  0  0
  160.6870  202.0780  146.6060 C   0  0  0  0  0  3  0  0  0  0  0  0
  161.8570  203.9710  145.4160 C   0  0  0  0  0  2  0  0  0  0  0  0
  160.5370  205.9110  144.9800 O   0  0  0  0  0  1  0  0  0  0  0  0
  160.9080  204.6720  144.4570 C   0  0  2  0  0  3  0  0  0  0  0  0
  159.7810  203.8950  144.2770 F   0  0  0  0  0  0  0  0  0  0  0  0
  160.6930  204.5990  152.2520 C   0  0  0  0  0  2  0  0  0  0  0  0
  161.1880  206.0030  152.6010 C   0  0  1  0  0  3  0  0  0  0  0  0
  161.4060  206.1140  154.0330 N   0  0  0  0  0  0  0  0  0  0  0  0
  160.1120  207.7880  155.3790 O   0  0  0  0  0  0  0  0  0  0  0  0
  160.7500  206.9620  154.7150 C   0  0  0  0  0  0  0  0  0  0  0  0
  162.4700  206.3550  151.8560 C   0  0  0  0  0  2  0  0  0  0  0  0
  161.8660  208.6620  152.0190 O   0  0  0  0  0  1  0  0  0  0  0  0
  162.3460  207.6890  151.1390 C   0  0  2  0  0  3  0  0  0  0  0  0
  161.3840  207.5370  149.9740 C   0  0  0  0  0  2  0  0  0  0  0  0
  161.9800  208.0860  148.7250 C   0  0  0  0  0  0  0  0  0  0  0  0
  161.9570  209.4540  148.4850 O   0  0  0  0  0  1  0  0  0  0  0  0
  162.4820  207.3080  147.8710 O   0  0  0  0  0  0  0  0  0  0  0  0
  1  2  1  0  0  0  0
  1 14  1  0  0  0  0
  3  5  1  6  0  0  0
  3  4  1  0  0  0  0
  3  1  1  0  0  0  0
  4  2  1  0  0  0  0
  6  5  1  0  0  0  0
  7  9  1  0  0  0  0
  7  6  1  0  0  0  0
  8  9  2  0  0  0  0
 10  7  1  0  0  0  0
 12 13  1  1  0  0  0
 12 11  1  0  0  0  0
 12 10  1  0  0  0  0
 14 15  1  0  0  0  0
 15 19  1  6  0  0  0
 15 16  1  0  0  0  0
 16 18  2  0  0  0  0
 18 17  2  0  0  0  0
 21 19  1  0  0  0  0
 21 20  1  1  0  0  0
 22 21  1  0  0  0  0
 23 22  1  0  0  0  0
 24 23  1  0  0  0  0
 25 23  2  0  0  0  0
M  END
>  <MODEL>
9

>  <REMARK>
 VINA RESULT:      -6.0      2.961      7.169
  Name = 
  12 active torsions:
  status: ('A' for Active; 'I' for Inactive)
    1  A    between atoms: N_1  and  C_18
    2  A    between atoms: C_2  and  N_13
    3  A    between atoms: C_2  and  C_18
    4  A    between atoms: C_2  and  C_23
    5  A    between atoms: N_4  and  C_15
    6  A    between atoms: N_4  and  C_20
    7  A    between atoms: C_5  and  C_8
    8  A    between atoms: C_5  and  C_9
    9  A    between atoms: C_6  and  C_15
   10  A    between atoms: C_9  and  C_23
   11  A    between atoms: C_11  and  C_12
   12  A    between atoms: C_11  and  C_20
                            x       y       z     vdW  Elec       q    Type
                         _______ _______ _______ _____ _____    ______ ____

>  <TORSDO>
F 12

$$$$
