=
 OpenBabel11072414193D

 56 59  0  0  1  0  0  0  0  0999 V2000
  162.3620  210.0420  151.8700 C   0  0  0  0  0  0  0  0  0  0  0  0
  162.1100  208.8450  152.6110 N   0  0  0  0  0  2  0  0  0  0  0  0
  163.4420  210.6630  152.0480 O   0  0  0  0  0  0  0  0  0  0  0  0
  161.3340  210.5980  150.9300 C   0  0  2  0  0  3  0  0  0  0  0  0
  162.1390  209.9480  148.6310 C   0  0  0  0  0  1  0  0  0  0  0  0
  161.9640  211.0930  149.6180 C   0  0  1  0  0  3  0  0  0  0  0  0
  161.0610  212.1450  148.9830 C   0  0  0  0  0  2  0  0  0  0  0  0
  161.7450  214.4480  149.0200 O   0  0  0  0  0  1  0  0  0  0  0  0
  161.8570  213.2520  148.3040 C   0  0  2  0  0  3  0  0  0  0  0  0
  161.3360  213.4470  146.9140 C   0  0  0  0  0  0  0  0  0  0  0  0
  162.0730  213.4580  145.8100 C   0  0  0  0  0  3  0  0  0  0  0  0
  157.4960  213.9280  147.0160 C   0  0  0  0  0  1  0  0  0  0  0  0
  159.9570  213.6590  146.5410 C   0  0  0  0  0  0  0  0  0  0  0  0
  158.8620  213.6910  147.4570 N   0  0  0  0  0  2  0  0  0  0  0  0
  161.1510  213.7270  144.6530 C   0  0  2  0  0  3  0  0  0  0  0  0
  159.8240  213.8100  145.2650 N   0  0  0  0  0  0  0  0  0  0  0  0
  162.3100  212.3330  143.0800 O   0  0  0  0  0  0  0  0  0  0  0  0
  161.2230  212.6180  143.6510 C   0  0  0  0  0  0  0  0  0  0  0  0
  160.0630  211.9360  143.3030 O   0  0  0  0  0  1  0  0  0  0  0  0
  160.6150  211.6780  151.5950 N   0  0  0  0  0  2  0  0  0  0  0  0
  160.2470  211.2100  152.9220 C   0  0  0  0  0  2  0  0  0  0  0  0
  156.3250  212.2230  155.9220 C   0  0  0  0  0  1  0  0  0  0  0  0
  159.1280  213.4550  152.8620 C   0  0  0  0  0  2  0  0  0  0  0  0
  159.6700  212.3420  153.7600 C   0  0  1  0  0  3  0  0  0  0  0  0
  158.6080  211.7860  154.7210 C   0  0  1  0  0  0  0  0  0  0  0  0
  156.9370  213.4430  153.8250 O   0  0  0  0  0  0  0  0  0  0  0  0
  158.0660  214.2540  153.6090 C   0  0  0  0  0  2  0  0  0  0  0  0
  157.2710  212.4360  154.7590 C   0  0  2  0  0  0  0  0  0  0  0  0
  157.4940  211.2160  154.0790 O   0  0  0  0  0  0  0  0  0  0  0  0
  159.0070  211.0500  155.8240 F   0  0  0  0  0  0  0  0  0  0  0  0
  161.0760  207.8620  152.3030 C   0  0  1  0  0  3  0  0  0  0  0  0
  161.7270  206.6110  151.6890 C   0  0  2  0  0  3  0  0  0  0  0  0
  162.9010  206.9330  150.7680 C   0  0  0  0  0  1  0  0  0  0  0  0
  160.3410  205.8270  149.7280 C   0  0  0  0  0  3  0  0  0  0  0  0
  160.7360  205.6950  151.0120 C   0  0  0  0  0  0  0  0  0  0  0  0
  160.7630  206.9430  148.8250 C   0  0  0  0  0  2  0  0  0  0  0  0
  160.6120  206.5380  147.4970 O   0  0  0  0  0  0  0  0  0  0  0  0
  161.8540  206.7660  146.8980 C   0  0  1  0  0  3  0  0  0  0  0  0
  162.8620  206.3620  147.7760 O   0  0  0  0  0  1  0  0  0  0  0  0
  161.9440  205.9730  145.6000 C   0  0  0  0  0  2  0  0  0  0  0  0
  160.4160  204.6340  144.1900 C   0  0  0  0  0  1  0  0  0  0  0  0
  160.6170  205.9780  144.8620 C   0  0  0  0  0  2  0  0  0  0  0  0
  160.2700  204.5050  151.7920 C   0  0  0  0  0  2  0  0  0  0  0  0
  161.3750  203.5850  152.0350 N   0  0  0  0  0  2  0  0  0  0  0  0
  161.1750  202.4720  151.1240 C   0  0  2  0  0  3  0  0  0  0  0  0
  161.6390  201.1880  151.7660 C   0  0  0  0  0  1  0  0  0  0  0  0
  161.8980  202.7050  149.8880 N   0  0  0  0  0  2  0  0  0  0  0  0
  160.6490  201.2150  146.1260 C   0  0  0  0  0  0  0  0  0  0  0  0
  160.9550  200.3140  147.1580 C   0  0  0  0  0  3  0  0  0  0  0  0
  161.4530  202.1910  148.6300 C   0  0  0  0  0  0  0  0  0  0  0  0
  161.1220  203.0840  147.6060 C   0  0  0  0  0  3  0  0  0  0  0  0
  160.7220  202.5980  146.3560 C   0  0  0  0  0  3  0  0  0  0  0  0
  161.3580  200.8000  148.4070 C   0  0  0  0  0  3  0  0  0  0  0  0
  160.2270  200.7020  144.7910 C   0  0  0  0  0  1  0  0  0  0  0  0
  161.1290  206.5990  154.3330 O   0  0  0  0  0  1  0  0  0  0  0  0
  160.3330  207.4620  153.5770 C   0  0  0  0  0  2  0  0  0  0  0  0
  1  3  2  0  0  0  0
  1  2  1  0  0  0  0
  4 20  1  1  0  0  0
  4  1  1  0  0  0  0
  6  5  1  6  0  0  0
  6  4  1  0  0  0  0
  7  6  1  0  0  0  0
  9  7  1  0  0  0  0
  9  8  1  1  0  0  0
 10  9  1  0  0  0  0
 11 10  2  0  0  0  0
 12 14  1  0  0  0  0
 13 10  1  0  0  0  0
 13 14  1  0  0  0  0
 15 18  1  6  0  0  0
 15 16  1  0  0  0  0
 15 11  1  0  0  0  0
 16 13  2  0  0  0  0
 17 18  2  0  0  0  0
 19 18  1  0  0  0  0
 20 21  1  0  0  0  0
 23 27  1  0  0  0  0
 23 24  1  0  0  0  0
 24 21  1  6  0  0  0
 24 25  1  0  0  0  0
 25 28  1  0  0  0  0
 25 30  1  1  0  0  0
 26 28  1  0  0  0  0
 27 26  1  0  0  0  0
 28 22  1  1  0  0  0
 29 25  1  0  0  0  0
 29 28  1  0  0  0  0
 31  2  1  0  0  0  0
 31 56  1  1  0  0  0
 32 33  1  6  0  0  0
 32 31  1  0  0  0  0
 34 35  2  0  0  0  0
 35 32  1  0  0  0  0
 35 43  1  0  0  0  0
 36 34  1  0  0  0  0
 37 36  1  0  0  0  0
 38 37  1  0  0  0  0
 38 39  1  1  0  0  0
 40 38  1  0  0  0  0
 41 42  1  0  0  0  0
 42 40  1  0  0  0  0
 43 44  1  0  0  0  0
 45 46  1  1  0  0  0
 45 44  1  0  0  0  0
 47 45  1  0  0  0  0
 48 52  2  0  0  0  0
 48 49  1  0  0  0  0
 49 53  2  0  0  0  0
 50 47  1  0  0  0  0
 51 50  2  0  0  0  0
 52 51  1  0  0  0  0
 53 50  1  0  0  0  0
 54 48  1  0  0  0  0
 56 55  1  0  0  0  0
M  END
>  <MODEL>
1

>  <REMARK>
 VINA RESULT:      -4.8      0.000      0.000
  Name = 
  23 active torsions:
  status: ('A' for Active; 'I' for Inactive)
    1  A    between atoms: C_1  and  C_11
    2  A    between atoms: C_1  and  CA_33
    3  A    between atoms: C_2  and  CA_13
    4  A    between atoms: N_5  and  CA_33
    5  A    between atoms: C_6  and  C_27
    6  A    between atoms: C_9  and  O_36
    7  A    between atoms: C_9  and  C_45
    8  A    between atoms: C_10  and  C_42
    9  A    between atoms: C_11  and  C_49
   10  A    between atoms: CA_13  and  C_38
   11  A    between atoms: CA_13  and  N_54
   12  A    between atoms: C_15  and  C_44
   13  A    between atoms: N_20  and  C_26
   14  A    between atoms: N_20  and  C_30
   15  A    between atoms: C_25  and  CA_33
   16  A    between atoms: C_26  and  N_52
   17  A    between atoms: C_27  and  C_35
   18  A    between atoms: C_28  and  C_45
   19  A    between atoms: C_35  and  C_38
   20  A    between atoms: O_36  and  C_42
   21  A    between atoms: CA_39  and  C_53
   22  A    between atoms: C_44  and  N_54
   23  A    between atoms: C_49  and  N_52
                            x       y       z     vdW  Elec       q    Type
                         _______ _______ _______ _____ _____    ______ ____

>  <TORSDO>
F 23

$$$$
=
 OpenBabel11072414193D

 56 59  0  0  1  0  0  0  0  0999 V2000
  161.8030  209.6440  149.4180 C   0  0  0  0  0  0  0  0  0  0  0  0
  162.0330  208.2550  149.6670 N   0  0  0  0  0  2  0  0  0  0  0  0
  161.4070  210.0100  148.2810 O   0  0  0  0  0  0  0  0  0  0  0  0
  162.0820  210.6730  150.4730 C   0  0  2  0  0  3  0  0  0  0  0  0
  162.2430  209.9740  152.8900 C   0  0  0  0  0  1  0  0  0  0  0  0
  161.3030  210.3920  151.7690 C   0  0  1  0  0  3  0  0  0  0  0  0
  160.5620  211.6530  152.2030 C   0  0  0  0  0  2  0  0  0  0  0  0
  158.3150  212.1920  151.5480 O   0  0  0  0  0  1  0  0  0  0  0  0
  159.0750  211.4020  152.4160 C   0  0  2  0  0  3  0  0  0  0  0  0
  158.7230  211.7280  153.8340 C   0  0  0  0  0  0  0  0  0  0  0  0
  158.0680  212.8110  154.2350 C   0  0  0  0  0  3  0  0  0  0  0  0
  160.0190  208.9310  156.1750 C   0  0  0  0  0  1  0  0  0  0  0  0
  159.0350  210.9300  154.9960 C   0  0  0  0  0  0  0  0  0  0  0  0
  159.7190  209.6770  154.9630 N   0  0  0  0  0  2  0  0  0  0  0  0
  157.9720  212.7520  155.7340 C   0  0  2  0  0  3  0  0  0  0  0  0
  158.6110  211.4830  156.0850 N   0  0  0  0  0  0  0  0  0  0  0  0
  155.7680  213.7010  155.7870 O   0  0  0  0  0  0  0  0  0  0  0  0
  156.5420  212.7840  156.1750 C   0  0  0  0  0  0  0  0  0  0  0  0
  156.0820  211.8260  157.0700 O   0  0  0  0  0  1  0  0  0  0  0  0
  161.7500  211.9930  149.9500 N   0  0  0  0  0  2  0  0  0  0  0  0
  162.2330  212.0560  148.5800 C   0  0  0  0  0  2  0  0  0  0  0  0
  158.2520  214.1680  146.3200 C   0  0  0  0  0  1  0  0  0  0  0  0
  162.5270  213.5300  146.5710 C   0  0  0  0  0  2  0  0  0  0  0  0
  161.8140  213.3600  147.9130 C   0  0  1  0  0  3  0  0  0  0  0  0
  160.2840  213.4060  147.7820 C   0  0  1  0  0  0  0  0  0  0  0  0
  160.5140  213.8170  145.3080 O   0  0  0  0  0  0  0  0  0  0  0  0
  161.7160  214.4530  145.6660 C   0  0  0  0  0  2  0  0  0  0  0  0
  159.6920  213.7170  146.4530 C   0  0  2  0  0  0  0  0  0  0  0  0
  159.7470  212.3980  146.9610 O   0  0  0  0  0  0  0  0  0  0  0  0
  159.5110  213.6270  148.9090 F   0  0  0  0  0  0  0  0  0  0  0  0
  162.1860  207.6460  150.9850 C   0  0  1  0  0  3  0  0  0  0  0  0
  160.9360  206.8110  151.3100 C   0  0  2  0  0  3  0  0  0  0  0  0
  160.4620  206.9700  152.7520 C   0  0  0  0  0  1  0  0  0  0  0  0
  161.0630  204.8920  149.6710 C   0  0  0  0  0  3  0  0  0  0  0  0
  161.0800  205.3540  150.9390 C   0  0  0  0  0  0  0  0  0  0  0  0
  160.8160  205.7430  148.4660 C   0  0  0  0  0  2  0  0  0  0  0  0
  162.0350  206.2320  147.9940 O   0  0  0  0  0  0  0  0  0  0  0  0
  162.0970  205.8380  146.6540 C   0  0  1  0  0  3  0  0  0  0  0  0
  162.9340  204.7250  146.5460 O   0  0  0  0  0  1  0  0  0  0  0  0
  160.6960  205.4860  146.1650 C   0  0  0  0  0  2  0  0  0  0  0  0
  161.2080  205.6830  143.7540 C   0  0  0  0  0  1  0  0  0  0  0  0
  160.7500  204.7360  144.8460 C   0  0  0  0  0  2  0  0  0  0  0  0
  161.3820  204.3980  152.0520 C   0  0  0  0  0  2  0  0  0  0  0  0
  161.9350  203.1560  151.5250 N   0  0  0  0  0  2  0  0  0  0  0  0
  160.8070  202.4080  150.9990 C   0  0  2  0  0  3  0  0  0  0  0  0
  159.9190  201.9470  152.1280 C   0  0  0  0  0  1  0  0  0  0  0  0
  161.2790  201.2690  150.2350 N   0  0  0  0  0  2  0  0  0  0  0  0
  160.4620  200.8700  146.0990 C   0  0  0  0  0  0  0  0  0  0  0  0
  161.3850  200.0050  146.7070 C   0  0  0  0  0  3  0  0  0  0  0  0
  160.9920  201.1070  148.8430 C   0  0  0  0  0  0  0  0  0  0  0  0
  160.0540  201.9500  148.2370 C   0  0  0  0  0  3  0  0  0  0  0  0
  159.7900  201.8330  146.8680 C   0  0  0  0  0  3  0  0  0  0  0  0
  161.6510  200.1240  148.0750 C   0  0  0  0  0  3  0  0  0  0  0  0
  160.1800  200.7510  144.6400 C   0  0  0  0  0  1  0  0  0  0  0  0
  163.5420  206.1510  152.2680 O   0  0  0  0  0  1  0  0  0  0  0  0
  163.4120  206.7350  151.0060 C   0  0  0  0  0  2  0  0  0  0  0  0
  1  2  1  0  0  0  0
  2 31  1  0  0  0  0
  3  1  2  0  0  0  0
  4  1  1  6  0  0  0
  4  6  1  0  0  0  0
  6  7  1  0  0  0  0
  6  5  1  1  0  0  0
  7  9  1  0  0  0  0
  9  8  1  6  0  0  0
  9 10  1  0  0  0  0
 10 11  2  0  0  0  0
 10 13  1  0  0  0  0
 11 15  1  0  0  0  0
 13 16  2  0  0  0  0
 14 13  1  0  0  0  0
 14 12  1  0  0  0  0
 15 16  1  0  0  0  0
 15 18  1  6  0  0  0
 17 18  2  0  0  0  0
 18 19  1  0  0  0  0
 20  4  1  0  0  0  0
 21 20  1  0  0  0  0
 23 24  1  0  0  0  0
 24 21  1  6  0  0  0
 25 24  1  0  0  0  0
 25 30  1  1  0  0  0
 26 27  1  0  0  0  0
 26 28  1  0  0  0  0
 27 23  1  0  0  0  0
 28 22  1  6  0  0  0
 28 29  1  0  0  0  0
 28 25  1  0  0  0  0
 29 25  1  0  0  0  0
 31 56  1  6  0  0  0
 31 32  1  0  0  0  0
 32 33  1  1  0  0  0
 34 35  2  0  0  0  0
 35 32  1  0  0  0  0
 35 43  1  0  0  0  0
 36 34  1  0  0  0  0
 37 36  1  0  0  0  0
 38 39  1  1  0  0  0
 38 37  1  0  0  0  0
 40 38  1  0  0  0  0
 41 42  1  0  0  0  0
 42 40  1  0  0  0  0
 44 43  1  0  0  0  0
 45 44  1  0  0  0  0
 45 46  1  1  0  0  0
 47 45  1  0  0  0  0
 48 49  2  0  0  0  0
 48 52  1  0  0  0  0
 49 53  1  0  0  0  0
 50 47  1  0  0  0  0
 51 50  1  0  0  0  0
 52 51  2  0  0  0  0
 53 50  2  0  0  0  0
 54 48  1  0  0  0  0
 56 55  1  0  0  0  0
M  END
>  <MODEL>
2

>  <REMARK>
 VINA RESULT:      -2.8      2.088      6.090
  Name = 
  23 active torsions:
  status: ('A' for Active; 'I' for Inactive)
    1  A    between atoms: C_1  and  C_11
    2  A    between atoms: C_1  and  CA_33
    3  A    between atoms: C_2  and  CA_13
    4  A    between atoms: N_5  and  CA_33
    5  A    between atoms: C_6  and  C_27
    6  A    between atoms: C_9  and  O_36
    7  A    between atoms: C_9  and  C_45
    8  A    between atoms: C_10  and  C_42
    9  A    between atoms: C_11  and  C_49
   10  A    between atoms: CA_13  and  C_38
   11  A    between atoms: CA_13  and  N_54
   12  A    between atoms: C_15  and  C_44
   13  A    between atoms: N_20  and  C_26
   14  A    between atoms: N_20  and  C_30
   15  A    between atoms: C_25  and  CA_33
   16  A    between atoms: C_26  and  N_52
   17  A    between atoms: C_27  and  C_35
   18  A    between atoms: C_28  and  C_45
   19  A    between atoms: C_35  and  C_38
   20  A    between atoms: O_36  and  C_42
   21  A    between atoms: CA_39  and  C_53
   22  A    between atoms: C_44  and  N_54
   23  A    between atoms: C_49  and  N_52
                            x       y       z     vdW  Elec       q    Type
                         _______ _______ _______ _____ _____    ______ ____

>  <TORSDO>
F 23

$$$$
=
 OpenBabel11072414193D

 56 59  0  0  1  0  0  0  0  0999 V2000
  162.5890  210.0670  148.5200 C   0  0  0  0  0  0  0  0  0  0  0  0
  162.4840  208.6420  148.5670 N   0  0  0  0  0  2  0  0  0  0  0  0
  163.6630  210.5960  148.1310 O   0  0  0  0  0  0  0  0  0  0  0  0
  161.4600  210.9380  148.9840 C   0  0  2  0  0  3  0  0  0  0  0  0
  162.7460  212.8630  147.9870 C   0  0  0  0  0  1  0  0  0  0  0  0
  161.3700  212.2420  148.1730 C   0  0  1  0  0  3  0  0  0  0  0  0
  160.7810  211.9480  146.7980 C   0  0  0  0  0  2  0  0  0  0  0  0
  158.9810  213.4980  146.4360 O   0  0  0  0  0  1  0  0  0  0  0  0
  160.3060  213.2120  146.0930 C   0  0  2  0  0  3  0  0  0  0  0  0
  160.4140  213.0170  144.6130 C   0  0  0  0  0  0  0  0  0  0  0  0
  159.4910  212.4530  143.8420 C   0  0  0  0  0  3  0  0  0  0  0  0
  163.8040  214.3990  143.3570 C   0  0  0  0  0  1  0  0  0  0  0  0
  161.5290  213.4000  143.7800 C   0  0  0  0  0  0  0  0  0  0  0  0
  162.7070  214.0560  144.2490 N   0  0  0  0  0  2  0  0  0  0  0  0
  160.0310  212.4240  142.4390 C   0  0  2  0  0  3  0  0  0  0  0  0
  161.3320  213.0850  142.5420 N   0  0  0  0  0  0  0  0  0  0  0  0
  158.0490  213.6790  141.9260 O   0  0  0  0  0  1  0  0  0  0  0  0
  159.1180  213.1560  141.5060 C   0  0  0  0  0  0  0  0  0  0  0  0
  159.4240  213.2070  140.1510 O   0  0  0  0  0  0  0  0  0  0  0  0
  161.6340  211.2270  150.4030 N   0  0  0  0  0  2  0  0  0  0  0  0
  160.7690  212.3490  150.7320 C   0  0  0  0  0  2  0  0  0  0  0  0
  156.7470  214.2120  153.1320 C   0  0  0  0  0  1  0  0  0  0  0  0
  160.3970  211.8860  153.1700 C   0  0  0  0  0  2  0  0  0  0  0  0
  159.7450  211.9580  151.7890 C   0  0  1  0  0  3  0  0  0  0  0  0
  158.5570  212.9310  151.7430 C   0  0  1  0  0  0  0  0  0  0  0  0
  158.8640  213.4100  154.1970 O   0  0  0  0  0  0  0  0  0  0  0  0
  159.3430  212.0880  154.2530 C   0  0  0  0  0  2  0  0  0  0  0  0
  158.1140  213.5740  153.0100 C   0  0  2  0  0  0  0  0  0  0  0  0
  158.8930  214.2620  152.0500 O   0  0  0  0  0  0  0  0  0  0  0  0
  157.6490  212.8490  150.7020 F   0  0  0  0  0  0  0  0  0  0  0  0
  161.2390  207.8890  148.6900 C   0  0  1  0  0  3  0  0  0  0  0  0
  161.3620  206.5680  147.9120 C   0  0  2  0  0  3  0  0  0  0  0  0
  160.3890  206.4660  146.7400 C   0  0  0  0  0  1  0  0  0  0  0  0
  161.4630  204.0830  148.3570 C   0  0  0  0  0  3  0  0  0  0  0  0
  161.2830  205.3460  148.7960 C   0  0  0  0  0  0  0  0  0  0  0  0
  161.6820  203.7110  146.9240 C   0  0  0  0  0  2  0  0  0  0  0  0
  160.7300  202.7620  146.5470 O   0  0  0  0  0  0  0  0  0  0  0  0
  161.2600  201.5300  146.9430 C   0  0  1  0  0  3  0  0  0  0  0  0
  160.7870  201.2230  148.2200 O   0  0  0  0  0  1  0  0  0  0  0  0
  160.8310  200.4530  145.9540 C   0  0  0  0  0  2  0  0  0  0  0  0
  161.3310  198.1820  145.1120 C   0  0  0  0  0  1  0  0  0  0  0  0
  161.4470  199.1100  146.3060 C   0  0  0  0  0  2  0  0  0  0  0  0
  161.1150  205.5820  150.2660 C   0  0  0  0  0  2  0  0  0  0  0  0
  162.0220  204.7330  151.0290 N   0  0  0  0  0  2  0  0  0  0  0  0
  161.4500  204.6330  152.3590 C   0  0  2  0  0  3  0  0  0  0  0  0
  160.7040  203.3300  152.5060 C   0  0  0  0  0  1  0  0  0  0  0  0
  160.5590  205.7520  152.6040 N   0  0  0  0  0  2  0  0  0  0  0  0
  160.9840  208.4030  155.8780 C   0  0  0  0  0  0  0  0  0  0  0  0
  160.1430  207.2860  155.9990 C   0  0  0  0  0  3  0  0  0  0  0  0
  160.7140  206.6250  153.7250 C   0  0  0  0  0  0  0  0  0  0  0  0
  161.5710  207.7260  153.6190 C   0  0  0  0  0  3  0  0  0  0  0  0
  161.7060  208.6140  154.6920 C   0  0  0  0  0  3  0  0  0  0  0  0
  160.0060  206.4000  154.9250 C   0  0  0  0  0  3  0  0  0  0  0  0
  161.1280  209.3540  157.0180 C   0  0  0  0  0  1  0  0  0  0  0  0
  160.9140  208.7640  150.8930 O   0  0  0  0  0  1  0  0  0  0  0  0
  160.9560  207.5770  150.1590 C   0  0  0  0  0  2  0  0  0  0  0  0
  1  2  1  0  0  0  0
  2 31  1  0  0  0  0
  3  1  2  0  0  0  0
  4  1  1  6  0  0  0
  4 20  1  0  0  0  0
  6  5  1  6  0  0  0
  6  4  1  0  0  0  0
  7  6  1  0  0  0  0
  9  8  1  6  0  0  0
  9  7  1  0  0  0  0
 10  9  1  0  0  0  0
 11 10  2  0  0  0  0
 12 14  1  0  0  0  0
 13 14  1  0  0  0  0
 13 10  1  0  0  0  0
 15 18  1  6  0  0  0
 15 16  1  0  0  0  0
 15 11  1  0  0  0  0
 16 13  2  0  0  0  0
 18 17  1  0  0  0  0
 19 18  2  0  0  0  0
 20 21  1  0  0  0  0
 23 27  1  0  0  0  0
 24 21  1  6  0  0  0
 24 23  1  0  0  0  0
 25 30  1  6  0  0  0
 25 24  1  0  0  0  0
 25 29  1  0  0  0  0
 25 28  1  0  0  0  0
 26 27  1  0  0  0  0
 28 22  1  1  0  0  0
 28 26  1  0  0  0  0
 29 28  1  0  0  0  0
 31 56  1  1  0  0  0
 32 33  1  6  0  0  0
 32 31  1  0  0  0  0
 32 35  1  0  0  0  0
 34 35  2  0  0  0  0
 35 43  1  0  0  0  0
 36 34  1  0  0  0  0
 37 36  1  0  0  0  0
 37 38  1  0  0  0  0
 38 39  1  1  0  0  0
 40 42  1  0  0  0  0
 40 38  1  0  0  0  0
 41 42  1  0  0  0  0
 43 44  1  0  0  0  0
 44 45  1  0  0  0  0
 45 46  1  6  0  0  0
 45 47  1  0  0  0  0
 47 50  1  0  0  0  0
 48 49  1  0  0  0  0
 48 54  1  0  0  0  0
 50 53  1  0  0  0  0
 51 50  2  0  0  0  0
 51 52  1  0  0  0  0
 52 48  2  0  0  0  0
 53 49  2  0  0  0  0
 56 55  1  0  0  0  0
M  END
>  <MODEL>
3

>  <REMARK>
 VINA RESULT:      -2.5      2.341      5.148
  Name = 
  23 active torsions:
  status: ('A' for Active; 'I' for Inactive)
    1  A    between atoms: C_1  and  C_11
    2  A    between atoms: C_1  and  CA_33
    3  A    between atoms: C_2  and  CA_13
    4  A    between atoms: N_5  and  CA_33
    5  A    between atoms: C_6  and  C_27
    6  A    between atoms: C_9  and  O_36
    7  A    between atoms: C_9  and  C_45
    8  A    between atoms: C_10  and  C_42
    9  A    between atoms: C_11  and  C_49
   10  A    between atoms: CA_13  and  C_38
   11  A    between atoms: CA_13  and  N_54
   12  A    between atoms: C_15  and  C_44
   13  A    between atoms: N_20  and  C_26
   14  A    between atoms: N_20  and  C_30
   15  A    between atoms: C_25  and  CA_33
   16  A    between atoms: C_26  and  N_52
   17  A    between atoms: C_27  and  C_35
   18  A    between atoms: C_28  and  C_45
   19  A    between atoms: C_35  and  C_38
   20  A    between atoms: O_36  and  C_42
   21  A    between atoms: CA_39  and  C_53
   22  A    between atoms: C_44  and  N_54
   23  A    between atoms: C_49  and  N_52
                            x       y       z     vdW  Elec       q    Type
                         _______ _______ _______ _____ _____    ______ ____

>  <TORSDO>
F 23

$$$$
=
 OpenBabel11072414193D

 56 59  0  0  1  0  0  0  0  0999 V2000
  162.8880  210.1950  151.7380 C   0  0  0  0  0  0  0  0  0  0  0  0
  162.6830  208.7970  151.5180 N   0  0  0  0  0  2  0  0  0  0  0  0
  164.0370  210.6110  152.0400 O   0  0  0  0  0  0  0  0  0  0  0  0
  161.7430  211.1610  151.6730 C   0  0  2  0  0  3  0  0  0  0  0  0
  159.6140  210.2980  152.7100 C   0  0  0  0  0  1  0  0  0  0  0  0
  160.8790  211.1130  152.9440 C   0  0  1  0  0  3  0  0  0  0  0  0
  161.6690  210.4660  154.0760 C   0  0  0  0  0  2  0  0  0  0  0  0
  162.5600  210.8540  156.2730 O   0  0  0  0  0  1  0  0  0  0  0  0
  161.5710  211.2600  155.3720 C   0  0  2  0  0  3  0  0  0  0  0  0
  160.2190  211.0430  155.9770 C   0  0  0  0  0  0  0  0  0  0  0  0
  159.3440  211.9980  156.2700 C   0  0  0  0  0  3  0  0  0  0  0  0
  159.6500  207.2620  156.5760 C   0  0  0  0  0  1  0  0  0  0  0  0
  159.6430  209.7710  156.3470 C   0  0  0  0  0  0  0  0  0  0  0  0
  160.2790  208.5060  156.1640 N   0  0  0  0  0  2  0  0  0  0  0  0
  158.1470  211.3390  156.8970 C   0  0  2  0  0  3  0  0  0  0  0  0
  158.4650  209.9100  156.8600 N   0  0  0  0  0  0  0  0  0  0  0  0
  156.5060  212.8300  155.9790 O   0  0  0  0  0  1  0  0  0  0  0  0
  156.9070  211.6430  156.1170 C   0  0  0  0  0  0  0  0  0  0  0  0
  156.1570  210.5970  155.5920 O   0  0  0  0  0  0  0  0  0  0  0  0
  160.9390  210.8680  150.4930 N   0  0  0  0  0  2  0  0  0  0  0  0
  160.1620  212.0570  150.1840 C   0  0  0  0  0  2  0  0  0  0  0  0
  159.4870  214.0900  145.6210 C   0  0  0  0  0  1  0  0  0  0  0  0
  162.0500  212.1730  148.5360 C   0  0  0  0  0  2  0  0  0  0  0  0
  160.8830  212.9330  149.1690 C   0  0  1  0  0  3  0  0  0  0  0  0
  159.8800  213.4530  148.1280 C   0  0  1  0  0  0  0  0  0  0  0  0
  161.3170  212.5170  146.2840 O   0  0  0  0  0  0  0  0  0  0  0  0
  162.3780  212.7700  147.1710 C   0  0  0  0  0  2  0  0  0  0  0  0
  160.1960  213.2780  146.6850 C   0  0  2  0  0  0  0  0  0  0  0  0
  159.2740  212.4430  147.3590 O   0  0  0  0  0  0  0  0  0  0  0  0
  158.9830  214.4460  148.4840 F   0  0  0  0  0  0  0  0  0  0  0  0
  161.5160  208.2050  150.8710 C   0  0  1  0  0  3  0  0  0  0  0  0
  161.9780  207.2200  149.7840 C   0  0  2  0  0  3  0  0  0  0  0  0
  162.7090  207.8980  148.6280 C   0  0  0  0  0  1  0  0  0  0  0  0
  160.3750  206.3710  148.0260 C   0  0  0  0  0  3  0  0  0  0  0  0
  160.8710  206.3260  149.2800 C   0  0  0  0  0  0  0  0  0  0  0  0
  160.7930  207.3640  146.9880 C   0  0  0  0  0  2  0  0  0  0  0  0
  161.2260  206.6810  145.8500 O   0  0  0  0  0  0  0  0  0  0  0  0
  160.4790  205.5000  145.8220 C   0  0  1  0  0  3  0  0  0  0  0  0
  159.3330  205.7060  145.0520 O   0  0  0  0  0  1  0  0  0  0  0  0
  161.3210  204.3840  145.2160 C   0  0  0  0  0  2  0  0  0  0  0  0
  163.1030  203.9750  146.8820 C   0  0  0  0  0  1  0  0  0  0  0  0
  162.7950  204.5790  145.5250 C   0  0  0  0  0  2  0  0  0  0  0  0
  160.3930  205.2500  150.2070 C   0  0  0  0  0  2  0  0  0  0  0  0
  161.4000  204.2050  150.3420 N   0  0  0  0  0  2  0  0  0  0  0  0
  160.7380  203.0950  151.0030 C   0  0  2  0  0  3  0  0  0  0  0  0
  160.9920  203.1490  152.4890 C   0  0  0  0  0  1  0  0  0  0  0  0
  161.2130  201.8360  150.4580 N   0  0  0  0  0  2  0  0  0  0  0  0
  160.6700  200.8290  146.3820 C   0  0  0  0  0  0  0  0  0  0  0  0
  161.5320  200.0560  147.1740 C   0  0  0  0  0  3  0  0  0  0  0  0
  161.0180  201.4710  149.0900 C   0  0  0  0  0  0  0  0  0  0  0  0
  160.1400  202.2210  148.3010 C   0  0  0  0  0  3  0  0  0  0  0  0
  159.9660  201.9030  146.9500 C   0  0  0  0  0  3  0  0  0  0  0  0
  161.7080  200.3770  148.5250 C   0  0  0  0  0  3  0  0  0  0  0  0
  160.4850  200.4950  144.9400 C   0  0  0  0  0  1  0  0  0  0  0  0
  161.4290  207.2090  153.0450 O   0  0  0  0  0  1  0  0  0  0  0  0
  160.6700  207.4520  151.8970 C   0  0  0  0  0  2  0  0  0  0  0  0
  1  3  2  0  0  0  0
  2  1  1  0  0  0  0
  4 20  1  6  0  0  0
  4  1  1  0  0  0  0
  4  6  1  0  0  0  0
  6  5  1  6  0  0  0
  6  7  1  0  0  0  0
  7  9  1  0  0  0  0
  9 10  1  0  0  0  0
  9  8  1  1  0  0  0
 10 11  2  0  0  0  0
 10 13  1  0  0  0  0
 11 15  1  0  0  0  0
 13 16  2  0  0  0  0
 14 13  1  0  0  0  0
 14 12  1  0  0  0  0
 15 18  1  6  0  0  0
 16 15  1  0  0  0  0
 17 18  1  0  0  0  0
 19 18  2  0  0  0  0
 21 20  1  0  0  0  0
 23 24  1  0  0  0  0
 24 21  1  1  0  0  0
 25 30  1  1  0  0  0
 25 24  1  0  0  0  0
 26 28  1  0  0  0  0
 26 27  1  0  0  0  0
 27 23  1  0  0  0  0
 28 22  1  6  0  0  0
 28 29  1  0  0  0  0
 28 25  1  0  0  0  0
 29 25  1  0  0  0  0
 31  2  1  0  0  0  0
 31 56  1  1  0  0  0
 32 33  1  6  0  0  0
 32 31  1  0  0  0  0
 34 35  2  0  0  0  0
 35 32  1  0  0  0  0
 35 43  1  0  0  0  0
 36 34  1  0  0  0  0
 37 36  1  0  0  0  0
 38 39  1  6  0  0  0
 38 37  1  0  0  0  0
 40 42  1  0  0  0  0
 40 38  1  0  0  0  0
 42 41  1  0  0  0  0
 43 44  1  0  0  0  0
 44 45  1  0  0  0  0
 45 46  1  1  0  0  0
 47 45  1  0  0  0  0
 48 52  2  0  0  0  0
 48 49  1  0  0  0  0
 49 53  2  0  0  0  0
 50 47  1  0  0  0  0
 51 50  2  0  0  0  0
 52 51  1  0  0  0  0
 53 50  1  0  0  0  0
 54 48  1  0  0  0  0
 56 55  1  0  0  0  0
M  END
>  <MODEL>
4

>  <REMARK>
 VINA RESULT:      -2.4      2.250      6.366
  Name = 
  23 active torsions:
  status: ('A' for Active; 'I' for Inactive)
    1  A    between atoms: C_1  and  C_11
    2  A    between atoms: C_1  and  CA_33
    3  A    between atoms: C_2  and  CA_13
    4  A    between atoms: N_5  and  CA_33
    5  A    between atoms: C_6  and  C_27
    6  A    between atoms: C_9  and  O_36
    7  A    between atoms: C_9  and  C_45
    8  A    between atoms: C_10  and  C_42
    9  A    between atoms: C_11  and  C_49
   10  A    between atoms: CA_13  and  C_38
   11  A    between atoms: CA_13  and  N_54
   12  A    between atoms: C_15  and  C_44
   13  A    between atoms: N_20  and  C_26
   14  A    between atoms: N_20  and  C_30
   15  A    between atoms: C_25  and  CA_33
   16  A    between atoms: C_26  and  N_52
   17  A    between atoms: C_27  and  C_35
   18  A    between atoms: C_28  and  C_45
   19  A    between atoms: C_35  and  C_38
   20  A    between atoms: O_36  and  C_42
   21  A    between atoms: CA_39  and  C_53
   22  A    between atoms: C_44  and  N_54
   23  A    between atoms: C_49  and  N_52
                            x       y       z     vdW  Elec       q    Type
                         _______ _______ _______ _____ _____    ______ ____

>  <TORSDO>
F 23

$$$$
=
 OpenBabel11072414193D

 56 59  0  0  1  0  0  0  0  0999 V2000
  162.6100  210.2810  148.5910 C   0  0  0  0  0  0  0  0  0  0  0  0
  162.5810  208.8600  148.7530 N   0  0  0  0  0  2  0  0  0  0  0  0
  163.5820  210.8140  147.9950 O   0  0  0  0  0  0  0  0  0  0  0  0
  161.5320  211.1460  149.1710 C   0  0  2  0  0  3  0  0  0  0  0  0
  162.9240  213.0510  148.2850 C   0  0  0  0  0  1  0  0  0  0  0  0
  161.5110  212.5440  148.5310 C   0  0  1  0  0  3  0  0  0  0  0  0
  160.7780  212.4840  147.1950 C   0  0  0  0  0  2  0  0  0  0  0  0
  159.3950  214.4280  147.4730 O   0  0  0  0  0  1  0  0  0  0  0  0
  160.4020  213.8680  146.6820 C   0  0  2  0  0  3  0  0  0  0  0  0
  159.9260  213.7520  145.2680 C   0  0  0  0  0  0  0  0  0  0  0  0
  160.7070  213.6860  144.1960 C   0  0  0  0  0  3  0  0  0  0  0  0
  156.0570  213.6850  145.1960 C   0  0  0  0  0  1  0  0  0  0  0  0
  158.5510  213.6980  144.8320 C   0  0  0  0  0  0  0  0  0  0  0  0
  157.4190  213.7240  145.7020 N   0  0  0  0  0  2  0  0  0  0  0  0
  159.8130  213.6230  142.9880 C   0  0  2  0  0  3  0  0  0  0  0  0
  158.4590  213.6140  143.5450 N   0  0  0  0  0  0  0  0  0  0  0  0
  161.0990  211.6750  142.4300 O   0  0  0  0  0  1  0  0  0  0  0  0
  160.0850  212.3850  142.1920 C   0  0  0  0  0  0  0  0  0  0  0  0
  159.2400  212.0510  141.1400 O   0  0  0  0  0  0  0  0  0  0  0  0
  161.7250  211.2440  150.6130 N   0  0  0  0  0  2  0  0  0  0  0  0
  161.0300  212.4370  151.0690 C   0  0  0  0  0  2  0  0  0  0  0  0
  156.3840  214.3520  151.4710 C   0  0  0  0  0  1  0  0  0  0  0  0
  159.6850  212.1210  153.1640 C   0  0  0  0  0  2  0  0  0  0  0  0
  159.6590  212.0890  151.6350 C   0  0  1  0  0  3  0  0  0  0  0  0
  158.6000  213.0290  151.0390 C   0  0  1  0  0  0  0  0  0  0  0  0
  157.8710  213.6700  153.3640 O   0  0  0  0  0  0  0  0  0  0  0  0
  158.2790  212.3660  153.7010 C   0  0  0  0  0  2  0  0  0  0  0  0
  157.6780  213.7400  151.9650 C   0  0  2  0  0  0  0  0  0  0  0  0
  158.7850  214.3840  151.3660 O   0  0  0  0  0  0  0  0  0  0  0  0
  158.2010  212.8590  149.7250 F   0  0  0  0  0  0  0  0  0  0  0  0
  161.4080  208.0780  149.1310 C   0  0  1  0  0  3  0  0  0  0  0  0
  161.4660  206.7040  148.4400 C   0  0  2  0  0  3  0  0  0  0  0  0
  160.5970  206.6220  147.1880 C   0  0  0  0  0  1  0  0  0  0  0  0
  161.3950  204.2570  149.0640 C   0  0  0  0  0  3  0  0  0  0  0  0
  161.1860  205.5540  149.3770 C   0  0  0  0  0  0  0  0  0  0  0  0
  161.8510  203.7750  147.7230 C   0  0  0  0  0  2  0  0  0  0  0  0
  161.1120  202.6460  147.3670 O   0  0  0  0  0  0  0  0  0  0  0  0
  161.1780  202.5860  145.9720 C   0  0  1  0  0  3  0  0  0  0  0  0
  160.3740  201.5360  145.5240 O   0  0  0  0  0  1  0  0  0  0  0  0
  160.6890  203.9050  145.3850 C   0  0  0  0  0  2  0  0  0  0  0  0
  161.4270  205.4100  143.5670 C   0  0  0  0  0  1  0  0  0  0  0  0
  161.8470  204.7330  144.8570 C   0  0  0  0  0  2  0  0  0  0  0  0
  160.7690  205.9020  150.7720 C   0  0  0  0  0  2  0  0  0  0  0  0
  161.9180  205.8900  151.6700 N   0  0  0  0  0  2  0  0  0  0  0  0
  161.4530  205.2880  152.9060 C   0  0  2  0  0  3  0  0  0  0  0  0
  160.9840  203.8770  152.6520 C   0  0  0  0  0  1  0  0  0  0  0  0
  160.3760  206.0810  153.4710 N   0  0  0  0  0  2  0  0  0  0  0  0
  161.0190  209.1800  156.2840 C   0  0  0  0  0  0  0  0  0  0  0  0
  160.1650  208.1160  156.6120 C   0  0  0  0  0  3  0  0  0  0  0  0
  160.6050  207.1080  154.4390 C   0  0  0  0  0  0  0  0  0  0  0  0
  161.4760  208.1570  154.1270 C   0  0  0  0  0  3  0  0  0  0  0  0
  161.6830  209.1920  155.0460 C   0  0  0  0  0  3  0  0  0  0  0  0
  159.9560  207.0830  155.6920 C   0  0  0  0  0  3  0  0  0  0  0  0
  161.2390  210.2860  157.2590 C   0  0  0  0  0  1  0  0  0  0  0  0
  162.5410  208.3920  151.2140 O   0  0  0  0  0  1  0  0  0  0  0  0
  161.3770  207.8720  150.6450 C   0  0  0  0  0  2  0  0  0  0  0  0
  1  2  1  0  0  0  0
  2 31  1  0  0  0  0
  3  1  2  0  0  0  0
  4  1  1  6  0  0  0
  4 20  1  0  0  0  0
  6  5  1  6  0  0  0
  6  4  1  0  0  0  0
  7  6  1  0  0  0  0
  9  7  1  0  0  0  0
  9  8  1  1  0  0  0
 10  9  1  0  0  0  0
 11 10  2  0  0  0  0
 12 14  1  0  0  0  0
 13 10  1  0  0  0  0
 13 14  1  0  0  0  0
 15 18  1  1  0  0  0
 15 16  1  0  0  0  0
 15 11  1  0  0  0  0
 16 13  2  0  0  0  0
 18 17  1  0  0  0  0
 19 18  2  0  0  0  0
 20 21  1  0  0  0  0
 23 27  1  0  0  0  0
 24 21  1  6  0  0  0
 24 23  1  0  0  0  0
 25 30  1  6  0  0  0
 25 29  1  0  0  0  0
 25 24  1  0  0  0  0
 25 28  1  0  0  0  0
 26 27  1  0  0  0  0
 28 22  1  6  0  0  0
 28 26  1  0  0  0  0
 29 28  1  0  0  0  0
 31 56  1  1  0  0  0
 32 33  1  6  0  0  0
 32 31  1  0  0  0  0
 32 35  1  0  0  0  0
 34 35  2  0  0  0  0
 35 43  1  0  0  0  0
 36 34  1  0  0  0  0
 37 36  1  0  0  0  0
 38 39  1  6  0  0  0
 38 37  1  0  0  0  0
 40 38  1  0  0  0  0
 41 42  1  0  0  0  0
 42 40  1  0  0  0  0
 43 44  1  0  0  0  0
 44 45  1  0  0  0  0
 45 46  1  6  0  0  0
 45 47  1  0  0  0  0
 47 50  1  0  0  0  0
 48 49  1  0  0  0  0
 48 54  1  0  0  0  0
 50 53  1  0  0  0  0
 51 50  2  0  0  0  0
 51 52  1  0  0  0  0
 52 48  2  0  0  0  0
 53 49  2  0  0  0  0
 56 55  1  0  0  0  0
M  END
>  <MODEL>
5

>  <REMARK>
 VINA RESULT:      -2.1      2.308      4.957
  Name = 
  23 active torsions:
  status: ('A' for Active; 'I' for Inactive)
    1  A    between atoms: C_1  and  C_11
    2  A    between atoms: C_1  and  CA_33
    3  A    between atoms: C_2  and  CA_13
    4  A    between atoms: N_5  and  CA_33
    5  A    between atoms: C_6  and  C_27
    6  A    between atoms: C_9  and  O_36
    7  A    between atoms: C_9  and  C_45
    8  A    between atoms: C_10  and  C_42
    9  A    between atoms: C_11  and  C_49
   10  A    between atoms: CA_13  and  C_38
   11  A    between atoms: CA_13  and  N_54
   12  A    between atoms: C_15  and  C_44
   13  A    between atoms: N_20  and  C_26
   14  A    between atoms: N_20  and  C_30
   15  A    between atoms: C_25  and  CA_33
   16  A    between atoms: C_26  and  N_52
   17  A    between atoms: C_27  and  C_35
   18  A    between atoms: C_28  and  C_45
   19  A    between atoms: C_35  and  C_38
   20  A    between atoms: O_36  and  C_42
   21  A    between atoms: CA_39  and  C_53
   22  A    between atoms: C_44  and  N_54
   23  A    between atoms: C_49  and  N_52
                            x       y       z     vdW  Elec       q    Type
                         _______ _______ _______ _____ _____    ______ ____

>  <TORSDO>
F 23

$$$$
