=
 OpenBabel11072414083D

 57 64  0  0  1  0  0  0  0  0999 V2000
  160.6580  209.1130  153.0620 C   0  0  2  0  0  3  0  0  0  0  0  0
  162.9500  211.2440  155.8070 O   0  0  0  0  0  0  0  0  0  0  0  0
  160.5150  207.1940  154.7460 C   0  0  2  0  0  0  0  0  0  0  0  0
  161.8870  208.5430  152.3460 C   0  0  0  0  0  2  0  0  0  0  0  0
  162.2200  208.7050  156.4150 O   0  0  0  0  0  1  0  0  0  0  0  0
  160.9410  206.1360  152.5480 C   0  0  1  0  0  3  0  0  0  0  0  0
  162.2010  210.6380  154.9950 C   0  0  0  0  0  0  0  0  0  0  0  0
  160.6410  210.6430  153.0110 C   0  0  1  0  0  3  0  0  0  0  0  0
  161.3990  206.2000  154.0050 C   0  0  0  0  0  2  0  0  0  0  0  0
  160.6440  208.7090  154.5440 C   0  0  1  0  0  3  0  0  0  0  0  0
  161.7750  209.2950  155.2800 N   0  0  0  0  0  0  0  0  0  0  0  0
  161.8370  211.3170  153.7080 C   0  0  0  0  0  2  0  0  0  0  0  0
  160.2120  206.8090  156.0600 O   0  0  0  0  0  0  0  0  0  0  0  0
  161.6080  207.1990  151.6660 C   0  0  0  0  0  2  0  0  0  0  0  0
  159.1720  206.7160  155.1120 C   0  0  0  0  0  2  0  0  0  0  0  0
  161.1450  204.7510  151.9290 C   0  0  1  0  0  3  0  0  0  0  0  0
  160.4770  203.7600  152.6540 O   0  0  0  0  0  1  0  0  0  0  0  0
  160.6780  204.7390  150.4730 C   0  0  0  0  0  2  0  0  0  0  0  0
  161.7580  204.4980  149.5690 O   0  0  0  0  0  0  0  0  0  0  0  0
  161.1620  202.6940  147.9660 C   0  0  0  0  0  0  0  0  0  0  0  0
  161.9190  204.8870  147.2190 C   0  0  0  0  0  3  0  0  0  0  0  0
  161.6030  204.0120  148.2620 C   0  0  0  0  0  0  0  0  0  0  0  0
  161.1200  202.2770  146.6100 C   0  0  0  0  0  0  0  0  0  0  0  0
  161.4620  203.1690  145.5900 C   0  0  0  0  0  3  0  0  0  0  0  0
  160.6670  200.9140  146.2050 C   0  0  0  0  0  1  0  0  0  0  0  0
  161.8440  204.4760  145.8880 C   0  0  0  0  0  0  0  0  0  0  0  0
  159.3390  201.8100  149.4190 O   0  0  0  0  0  0  0  0  0  0  0  0
  160.6760  201.7980  149.0390 C   0  0  0  0  0  0  0  0  0  0  0  0
  161.4770  201.0260  149.6300 O   0  0  0  0  0  1  0  0  0  0  0  0
  162.2230  205.4160  144.7950 C   0  0  0  0  0  2  0  0  0  0  0  0
  161.0220  205.6870  143.9040 C   0  0  0  0  0  1  0  0  0  0  0  0
  160.2940  211.1790  151.7480 O   0  0  0  0  0  0  0  0  0  0  0  0
  159.3380  212.2010  151.9040 C   0  0  2  0  0  3  0  0  0  0  0  0
  159.5570  213.2900  150.8420 C   0  0  1  0  0  3  0  0  0  0  0  0
  160.2600  214.3730  151.3460 F   0  0  0  0  0  0  0  0  0  0  0  0
  159.3980  213.2330  148.4600 O   0  0  0  0  0  1  0  0  0  0  0  0
  160.1590  212.7720  149.5350 C   0  0  1  0  0  3  0  0  0  0  0  0
  161.6080  213.2060  149.3640 C   0  0  0  0  0  2  0  0  0  0  0  0
  162.4830  212.8150  145.7490 F   0  0  0  0  0  0  0  0  0  0  0  0
  163.2320  213.7860  147.7010 O   0  0  0  0  0  0  0  0  0  0  0  0
  161.8430  213.7000  147.9450 C   0  0  1  0  0  3  0  0  0  0  0  0
  162.5590  212.6970  147.1240 C   0  0  0  0  0  0  0  0  0  0  0  0
  162.9570  211.4970  147.6790 F   0  0  0  0  0  0  0  0  0  0  0  0
  159.3970  212.7520  153.3250 C   0  0  0  0  0  2  0  0  0  0  0  0
  158.5290  213.9930  153.4490 C   0  0  0  0  0  2  0  0  0  0  0  0
  158.3300  214.3120  154.8540 N   0  0  0  0  0  2  0  0  0  0  0  0
  156.8990  214.4530  155.0780 C   0  0  0  0  0  2  0  0  0  0  0  0
  154.9020  213.1690  155.4810 O   0  0  0  0  0  0  0  0  0  0  0  0
  156.8250  212.4990  156.8780 C   0  0  2  0  0  3  0  0  0  0  0  0
  158.4840  210.6270  156.5920 N   0  0  0  0  0  2  0  0  0  0  0  0
  155.5590  212.3210  154.5570 C   0  0  2  0  0  3  0  0  0  0  0  0
  157.5280  210.0760  155.6260 C   0  0  0  0  0  2  0  0  0  0  0  0
  155.9960  211.2720  157.2610 C   0  0  0  0  0  2  0  0  0  0  0  0
  155.2480  210.8550  154.9330 C   0  0  0  0  0  2  0  0  0  0  0  0
  156.3050  213.1370  155.5670 C   0  0  2  0  0  0  0  0  0  0  0  0
  158.3020  212.0840  156.7030 C   0  0  0  0  0  2  0  0  0  0  0  0
  156.0750  210.2910  156.0900 C   0  0  1  0  0  3  0  0  0  0  0  0
  1  4  1  1  0  0  0
  1 10  1  0  0  0  0
  3  9  1  6  0  0  0
  3 15  1  0  0  0  0
  3 13  1  0  0  0  0
  6 16  1  6  0  0  0
  6  9  1  0  0  0  0
  7 11  1  0  0  0  0
  7  2  2  0  0  0  0
  8 32  1  6  0  0  0
  8  1  1  0  0  0  0
  8 12  1  0  0  0  0
 10  3  1  0  0  0  0
 10 11  1  6  0  0  0
 11  5  1  0  0  0  0
 12  7  1  0  0  0  0
 14  4  1  0  0  0  0
 14  6  1  0  0  0  0
 15 13  1  0  0  0  0
 16 17  1  1  0  0  0
 18 16  1  0  0  0  0
 19 18  1  0  0  0  0
 20 22  1  0  0  0  0
 20 28  1  0  0  0  0
 21 22  2  0  0  0  0
 22 19  1  0  0  0  0
 23 20  2  0  0  0  0
 24 26  2  0  0  0  0
 24 23  1  0  0  0  0
 25 23  1  0  0  0  0
 26 21  1  0  0  0  0
 28 27  2  0  0  0  0
 28 29  1  0  0  0  0
 30 26  1  0  0  0  0
 31 30  1  0  0  0  0
 32 33  1  0  0  0  0
 33 44  1  1  0  0  0
 34 35  1  1  0  0  0
 34 33  1  0  0  0  0
 37 36  1  6  0  0  0
 37 34  1  0  0  0  0
 38 37  1  0  0  0  0
 39 42  1  0  0  0  0
 40 41  1  0  0  0  0
 41 38  1  1  0  0  0
 42 43  1  0  0  0  0
 42 40  1  0  0  0  0
 42 41  1  0  0  0  0
 44 45  1  0  0  0  0
 45 46  1  0  0  0  0
 46 47  1  0  0  0  0
 48 55  1  0  0  0  0
 49 56  1  6  0  0  0
 49 53  1  0  0  0  0
 50 56  1  0  0  0  0
 51 54  1  1  0  0  0
 51 48  1  0  0  0  0
 51 55  1  0  0  0  0
 52 57  1  0  0  0  0
 52 50  1  0  0  0  0
 55 47  1  6  0  0  0
 55 49  1  0  0  0  0
 57 54  1  6  0  0  0
 57 53  1  0  0  0  0
M  END
>  <MODEL>
1

>  <REMARK>
 VINA RESULT:      -5.3      0.000      0.000
  Name = 
  17 active torsions:
  status: ('A' for Active; 'I' for Inactive)
    1  A    between atoms: C_3  and  C_50
    2  A    between atoms: C_4  and  N_28
    3  A    between atoms: C_4  and  C_38
    4  A    between atoms: C_8  and  C_51
    5  A    between atoms: C_9  and  C_11
    6  A    between atoms: C_9  and  C_26
    7  A    between atoms: C_9  and  O_54
    8  A    between atoms: C_11  and  C_40
    9  A    between atoms: C_15  and  C_23
   10  A    between atoms: C_19  and  C_33
   11  A    between atoms: C_21  and  O_53
   12  A    between atoms: C_23  and  C_29
   13  A    between atoms: C_26  and  C_49
   14  A    between atoms: C_27  and  O_54
   15  A    between atoms: N_28  and  C_49
   16  A    between atoms: C_29  and  O_53
   17  A    between atoms: C_33  and  C_40
                            x       y       z     vdW  Elec       q    Type
                         _______ _______ _______ _____ _____    ______ ____

>  <TORSDO>
F 17

$$$$
=
 OpenBabel11072414083D

 57 64  0  0  1  0  0  0  0  0999 V2000
  161.7220  208.0950  152.6730 C   0  0  2  0  0  3  0  0  0  0  0  0
  160.4790  204.1400  152.2910 O   0  0  0  0  0  0  0  0  0  0  0  0
  161.2530  207.9480  155.1830 C   0  0  2  0  0  0  0  0  0  0  0  0
  160.3380  208.6550  152.3330 C   0  0  0  0  0  2  0  0  0  0  0  0
  160.2830  205.3370  154.7160 O   0  0  0  0  0  1  0  0  0  0  0  0
  160.3710  210.1450  154.4570 C   0  0  1  0  0  3  0  0  0  0  0  0
  160.9210  205.3140  152.4040 C   0  0  0  0  0  0  0  0  0  0  0  0
  162.2820  207.2510  151.5250 C   0  0  1  0  0  3  0  0  0  0  0  0
  160.0370  208.8640  155.2210 C   0  0  0  0  0  2  0  0  0  0  0  0
  161.6630  207.1900  153.9140 C   0  0  1  0  0  3  0  0  0  0  0  0
  160.8540  205.9860  153.6730 N   0  0  0  0  0  0  0  0  0  0  0  0
  161.4410  206.0090  151.1800 C   0  0  0  0  0  2  0  0  0  0  0  0
  161.4620  207.2370  156.3740 O   0  0  0  0  0  0  0  0  0  0  0  0
  160.0840  210.0330  152.9530 C   0  0  0  0  0  2  0  0  0  0  0  0
  162.3530  208.2950  156.0970 C   0  0  0  0  0  2  0  0  0  0  0  0
  159.6560  211.3720  155.0260 C   0  0  1  0  0  3  0  0  0  0  0  0
  159.9010  211.5220  156.3950 O   0  0  0  0  0  1  0  0  0  0  0  0
  160.0780  212.6360  154.2770 C   0  0  0  0  0  2  0  0  0  0  0  0
  159.1110  213.6800  154.4050 O   0  0  0  0  0  0  0  0  0  0  0  0
  156.7230  214.0310  153.8130 C   0  0  0  0  0  0  0  0  0  0  0  0
  158.4920  214.1040  152.1390 C   0  0  0  0  0  3  0  0  0  0  0  0
  158.0990  213.9420  153.4700 C   0  0  0  0  0  0  0  0  0  0  0  0
  155.7710  214.2160  152.7760 C   0  0  0  0  0  0  0  0  0  0  0  0
  156.1950  214.3550  151.4520 C   0  0  0  0  0  3  0  0  0  0  0  0
  154.3070  214.3240  153.0430 C   0  0  0  0  0  1  0  0  0  0  0  0
  157.5510  214.3180  151.1320 C   0  0  0  0  0  0  0  0  0  0  0  0
  154.9680  213.7490  155.5610 O   0  0  0  0  0  0  0  0  0  0  0  0
  156.2910  214.0140  155.2290 C   0  0  0  0  0  0  0  0  0  0  0  0
  157.1190  214.2570  156.1460 O   0  0  0  0  0  1  0  0  0  0  0  0
  157.9920  214.4510  149.7150 C   0  0  0  0  0  2  0  0  0  0  0  0
  156.8870  213.9870  148.7800 C   0  0  0  0  0  1  0  0  0  0  0  0
  162.7350  208.0040  150.4170 O   0  0  0  0  0  0  0  0  0  0  0  0
  161.7040  208.1310  149.4660 C   0  0  2  0  0  3  0  0  0  0  0  0
  162.1130  207.4420  148.1540 C   0  0  1  0  0  3  0  0  0  0  0  0
  163.4050  206.9430  148.2110 F   0  0  0  0  0  0  0  0  0  0  0  0
  159.8690  206.6340  148.2500 O   0  0  0  0  0  1  0  0  0  0  0  0
  161.1130  206.3960  147.6630 C   0  0  1  0  0  3  0  0  0  0  0  0
  160.9770  206.4050  146.1470 C   0  0  0  0  0  2  0  0  0  0  0  0
  161.9690  202.8700  145.4400 F   0  0  0  0  0  0  0  0  0  0  0  0
  161.4000  204.8380  144.3850 O   0  0  0  0  0  0  0  0  0  0  0  0
  160.7540  204.9920  145.6330 C   0  0  1  0  0  3  0  0  0  0  0  0
  162.0280  204.2490  145.4940 C   0  0  0  0  0  0  0  0  0  0  0  0
  163.2290  204.8640  145.7880 F   0  0  0  0  0  0  0  0  0  0  0  0
  161.3610  209.6040  149.2690 C   0  0  0  0  0  2  0  0  0  0  0  0
  162.4520  210.4860  149.8500 C   0  0  0  0  0  2  0  0  0  0  0  0
  162.3250  211.8340  149.3200 N   0  0  0  0  0  2  0  0  0  0  0  0
  162.7710  211.8100  147.9340 C   0  0  0  0  0  2  0  0  0  0  0  0
  162.7150  214.1480  147.3650 O   0  0  0  0  0  0  0  0  0  0  0  0
  160.5410  213.0050  147.1240 C   0  0  2  0  0  3  0  0  0  0  0  0
  159.4110  212.0450  145.0890 N   0  0  0  0  0  2  0  0  0  0  0  0
  162.9050  213.5860  146.0790 C   0  0  2  0  0  3  0  0  0  0  0  0
  160.3780  212.8330  144.3170 C   0  0  0  0  0  2  0  0  0  0  0  0
  160.0690  214.2640  146.3930 C   0  0  0  0  0  2  0  0  0  0  0  0
  162.1460  214.4520  145.0490 C   0  0  0  0  0  2  0  0  0  0  0  0
  162.0860  212.9120  147.1360 C   0  0  2  0  0  0  0  0  0  0  0  0
  159.9520  211.7590  146.4280 C   0  0  0  0  0  2  0  0  0  0  0  0
  160.6380  214.2010  144.9740 C   0  0  1  0  0  3  0  0  0  0  0  0
  1  4  1  6  0  0  0
  1 10  1  0  0  0  0
  2  7  2  0  0  0  0
  3  9  1  6  0  0  0
  3 15  1  0  0  0  0
  3 13  1  0  0  0  0
  4 14  1  0  0  0  0
  6 16  1  1  0  0  0
  6  9  1  0  0  0  0
  7 11  1  0  0  0  0
  8 32  1  6  0  0  0
  8  1  1  0  0  0  0
 10 11  1  6  0  0  0
 10  3  1  0  0  0  0
 11  5  1  0  0  0  0
 12  8  1  0  0  0  0
 12  7  1  0  0  0  0
 14  6  1  0  0  0  0
 15 13  1  0  0  0  0
 16 17  1  1  0  0  0
 18 19  1  0  0  0  0
 18 16  1  0  0  0  0
 20 28  1  0  0  0  0
 21 22  2  0  0  0  0
 22 20  1  0  0  0  0
 22 19  1  0  0  0  0
 23 25  1  0  0  0  0
 23 20  2  0  0  0  0
 24 23  1  0  0  0  0
 26 24  2  0  0  0  0
 26 21  1  0  0  0  0
 28 27  2  0  0  0  0
 28 29  1  0  0  0  0
 30 26  1  0  0  0  0
 31 30  1  0  0  0  0
 33 44  1  6  0  0  0
 33 32  1  0  0  0  0
 34 35  1  1  0  0  0
 34 33  1  0  0  0  0
 37 34  1  0  0  0  0
 37 36  1  1  0  0  0
 38 37  1  0  0  0  0
 39 42  1  0  0  0  0
 40 42  1  0  0  0  0
 40 41  1  0  0  0  0
 41 38  1  1  0  0  0
 42 41  1  0  0  0  0
 42 43  1  0  0  0  0
 44 45  1  0  0  0  0
 46 45  1  0  0  0  0
 47 46  1  0  0  0  0
 49 53  1  6  0  0  0
 49 55  1  0  0  0  0
 50 56  1  0  0  0  0
 51 54  1  6  0  0  0
 51 55  1  0  0  0  0
 51 48  1  0  0  0  0
 52 50  1  0  0  0  0
 55 48  1  0  0  0  0
 55 47  1  1  0  0  0
 56 49  1  0  0  0  0
 57 52  1  1  0  0  0
 57 54  1  0  0  0  0
 57 53  1  0  0  0  0
M  END
>  <MODEL>
2

>  <REMARK>
 VINA RESULT:      -5.2      3.139      9.318
  Name = 
  17 active torsions:
  status: ('A' for Active; 'I' for Inactive)
    1  A    between atoms: C_3  and  C_50
    2  A    between atoms: C_4  and  N_28
    3  A    between atoms: C_4  and  C_38
    4  A    between atoms: C_8  and  C_51
    5  A    between atoms: C_9  and  C_11
    6  A    between atoms: C_9  and  C_26
    7  A    between atoms: C_9  and  O_54
    8  A    between atoms: C_11  and  C_40
    9  A    between atoms: C_15  and  C_23
   10  A    between atoms: C_19  and  C_33
   11  A    between atoms: C_21  and  O_53
   12  A    between atoms: C_23  and  C_29
   13  A    between atoms: C_26  and  C_49
   14  A    between atoms: C_27  and  O_54
   15  A    between atoms: N_28  and  C_49
   16  A    between atoms: C_29  and  O_53
   17  A    between atoms: C_33  and  C_40
                            x       y       z     vdW  Elec       q    Type
                         _______ _______ _______ _____ _____    ______ ____

>  <TORSDO>
F 17

$$$$
=
 OpenBabel11072414083D

 57 64  0  0  1  0  0  0  0  0999 V2000
  160.6520  209.0650  153.0090 C   0  0  2  0  0  3  0  0  0  0  0  0
  162.7410  211.3350  155.8050 O   0  0  0  0  0  0  0  0  0  0  0  0
  160.4100  207.2190  154.7620 C   0  0  2  0  0  0  0  0  0  0  0  0
  161.9290  208.4780  152.4020 C   0  0  0  0  0  2  0  0  0  0  0  0
  161.9900  208.8170  156.4730 O   0  0  0  0  0  1  0  0  0  0  0  0
  160.9880  206.0720  152.6450 C   0  0  1  0  0  3  0  0  0  0  0  0
  162.0520  210.6880  154.9730 C   0  0  0  0  0  0  0  0  0  0  0  0
  160.6270  210.5920  152.8910 C   0  0  1  0  0  3  0  0  0  0  0  0
  161.3490  206.2040  154.1250 C   0  0  0  0  0  2  0  0  0  0  0  0
  160.5420  208.7250  154.5040 C   0  0  1  0  0  3  0  0  0  0  0  0
  161.6170  209.3540  155.2870 N   0  0  0  0  0  0  0  0  0  0  0  0
  161.7690  211.3070  153.6360 C   0  0  0  0  0  2  0  0  0  0  0  0
  160.0230  206.8880  156.0690 O   0  0  0  0  0  0  0  0  0  0  0  0
  161.7060  207.1030  151.7630 C   0  0  0  0  0  2  0  0  0  0  0  0
  159.0490  206.7450  155.0590 C   0  0  0  0  0  2  0  0  0  0  0  0
  161.2430  204.6650  152.1020 C   0  0  1  0  0  3  0  0  0  0  0  0
  160.8720  203.6820  153.0240 O   0  0  0  0  0  1  0  0  0  0  0  0
  160.4970  204.4540  150.7840 C   0  0  0  0  0  2  0  0  0  0  0  0
  161.2540  204.9160  149.6630 O   0  0  0  0  0  0  0  0  0  0  0  0
  161.3560  204.9720  147.1810 C   0  0  0  0  0  0  0  0  0  0  0  0
  161.2610  202.8760  148.4220 C   0  0  0  0  0  3  0  0  0  0  0  0
  161.2960  204.2730  148.4170 C   0  0  0  0  0  0  0  0  0  0  0  0
  161.3100  204.2270  145.9730 C   0  0  0  0  0  0  0  0  0  0  0  0
  161.2540  202.8310  146.0110 C   0  0  0  0  0  3  0  0  0  0  0  0
  161.3710  204.8740  144.6300 C   0  0  0  0  0  1  0  0  0  0  0  0
  161.2480  202.1540  147.2290 C   0  0  0  0  0  0  0  0  0  0  0  0
  162.6410  207.0240  147.7730 O   0  0  0  0  0  1  0  0  0  0  0  0
  161.5470  206.4390  147.1460 C   0  0  0  0  0  0  0  0  0  0  0  0
  160.7080  207.1730  146.5610 O   0  0  0  0  0  0  0  0  0  0  0  0
  161.1720  200.6650  147.2600 C   0  0  0  0  0  2  0  0  0  0  0  0
  160.8760  200.1300  145.8680 C   0  0  0  0  0  1  0  0  0  0  0  0
  160.3610  211.0700  151.5860 O   0  0  0  0  0  0  0  0  0  0  0  0
  159.5180  212.1960  151.6470 C   0  0  2  0  0  3  0  0  0  0  0  0
  160.0370  213.2920  150.7030 C   0  0  1  0  0  3  0  0  0  0  0  0
  161.2740  213.7750  151.0990 F   0  0  0  0  0  0  0  0  0  0  0  0
  158.6990  212.7250  148.8090 O   0  0  0  0  0  1  0  0  0  0  0  0
  160.0190  212.8990  149.2250 C   0  0  1  0  0  3  0  0  0  0  0  0
  160.7020  213.9420  148.3510 C   0  0  0  0  0  2  0  0  0  0  0  0
  162.3640  213.1270  145.1020 F   0  0  0  0  0  0  0  0  0  0  0  0
  161.1890  212.1560  146.8310 O   0  0  0  0  0  0  0  0  0  0  0  0
  161.7520  213.2830  147.4720 C   0  0  1  0  0  3  0  0  0  0  0  0
  161.3670  213.3040  146.0420 C   0  0  0  0  0  0  0  0  0  0  0  0
  160.1590  213.8500  145.6530 F   0  0  0  0  0  0  0  0  0  0  0  0
  159.4000  212.6760  153.0900 C   0  0  0  0  0  2  0  0  0  0  0  0
  158.8150  214.0780  153.1360 C   0  0  0  0  0  2  0  0  0  0  0  0
  158.4540  214.4120  154.5050 N   0  0  0  0  0  2  0  0  0  0  0  0
  157.0010  214.4500  154.5830 C   0  0  0  0  0  2  0  0  0  0  0  0
  155.0920  213.0570  155.0400 O   0  0  0  0  0  0  0  0  0  0  0  0
  156.8910  212.8770  156.7210 C   0  0  2  0  0  3  0  0  0  0  0  0
  158.7300  211.1760  156.9770 N   0  0  0  0  0  2  0  0  0  0  0  0
  155.9240  212.1250  154.3720 C   0  0  2  0  0  3  0  0  0  0  0  0
  157.9440  210.3520  156.0540 C   0  0  0  0  0  2  0  0  0  0  0  0
  156.1340  211.6610  157.2610 C   0  0  0  0  0  2  0  0  0  0  0  0
  155.7010  210.7320  155.0020 C   0  0  0  0  0  2  0  0  0  0  0  0
  156.4730  213.1940  155.2650 C   0  0  2  0  0  0  0  0  0  0  0  0
  158.4090  212.5990  156.7770 C   0  0  0  0  0  2  0  0  0  0  0  0
  156.4350  210.4910  156.3230 C   0  0  1  0  0  3  0  0  0  0  0  0
  1  4  1  1  0  0  0
  1 10  1  0  0  0  0
  3  9  1  6  0  0  0
  3 15  1  0  0  0  0
  3 13  1  0  0  0  0
  6 16  1  6  0  0  0
  6  9  1  0  0  0  0
  7 11  1  0  0  0  0
  7  2  2  0  0  0  0
  8 32  1  6  0  0  0
  8  1  1  0  0  0  0
  8 12  1  0  0  0  0
 10  3  1  0  0  0  0
 10 11  1  1  0  0  0
 11  5  1  0  0  0  0
 12  7  1  0  0  0  0
 14  4  1  0  0  0  0
 14  6  1  0  0  0  0
 15 13  1  0  0  0  0
 16 17  1  1  0  0  0
 18 16  1  0  0  0  0
 19 18  1  0  0  0  0
 20 22  1  0  0  0  0
 22 21  2  0  0  0  0
 22 19  1  0  0  0  0
 23 24  1  0  0  0  0
 23 20  2  0  0  0  0
 24 26  2  0  0  0  0
 25 23  1  0  0  0  0
 26 30  1  0  0  0  0
 26 21  1  0  0  0  0
 28 20  1  0  0  0  0
 28 27  1  0  0  0  0
 29 28  2  0  0  0  0
 31 30  1  0  0  0  0
 32 33  1  0  0  0  0
 33 44  1  1  0  0  0
 34 35  1  1  0  0  0
 34 33  1  0  0  0  0
 37 36  1  6  0  0  0
 37 34  1  0  0  0  0
 38 37  1  0  0  0  0
 39 42  1  0  0  0  0
 40 41  1  0  0  0  0
 41 38  1  1  0  0  0
 42 40  1  0  0  0  0
 42 41  1  0  0  0  0
 43 42  1  0  0  0  0
 44 45  1  0  0  0  0
 45 46  1  0  0  0  0
 46 47  1  0  0  0  0
 48 55  1  0  0  0  0
 49 56  1  6  0  0  0
 49 53  1  0  0  0  0
 51 54  1  1  0  0  0
 51 48  1  0  0  0  0
 51 55  1  0  0  0  0
 52 57  1  0  0  0  0
 52 50  1  0  0  0  0
 55 47  1  6  0  0  0
 55 49  1  0  0  0  0
 56 50  1  0  0  0  0
 57 54  1  6  0  0  0
 57 53  1  0  0  0  0
M  END
>  <MODEL>
3

>  <REMARK>
 VINA RESULT:      -5.0      1.064      2.138
  Name = 
  17 active torsions:
  status: ('A' for Active; 'I' for Inactive)
    1  A    between atoms: C_3  and  C_50
    2  A    between atoms: C_4  and  N_28
    3  A    between atoms: C_4  and  C_38
    4  A    between atoms: C_8  and  C_51
    5  A    between atoms: C_9  and  C_11
    6  A    between atoms: C_9  and  C_26
    7  A    between atoms: C_9  and  O_54
    8  A    between atoms: C_11  and  C_40
    9  A    between atoms: C_15  and  C_23
   10  A    between atoms: C_19  and  C_33
   11  A    between atoms: C_21  and  O_53
   12  A    between atoms: C_23  and  C_29
   13  A    between atoms: C_26  and  C_49
   14  A    between atoms: C_27  and  O_54
   15  A    between atoms: N_28  and  C_49
   16  A    between atoms: C_29  and  O_53
   17  A    between atoms: C_33  and  C_40
                            x       y       z     vdW  Elec       q    Type
                         _______ _______ _______ _____ _____    ______ ____

>  <TORSDO>
F 17

$$$$
=
 OpenBabel11072414083D

 57 64  0  0  1  0  0  0  0  0999 V2000
  161.8460  206.7750  151.1230 C   0  0  2  0  0  3  0  0  0  0  0  0
  160.1670  203.0130  150.5230 O   0  0  0  0  0  0  0  0  0  0  0  0
  161.4420  206.5000  153.6330 C   0  0  2  0  0  0  0  0  0  0  0  0
  160.5210  207.5030  150.8750 C   0  0  0  0  0  2  0  0  0  0  0  0
  160.1780  204.0480  153.0280 O   0  0  0  0  0  1  0  0  0  0  0  0
  160.7830  208.8250  153.0910 C   0  0  1  0  0  3  0  0  0  0  0  0
  160.7380  204.1220  150.6970 C   0  0  0  0  0  0  0  0  0  0  0  0
  162.2740  205.9600  149.9000 C   0  0  1  0  0  3  0  0  0  0  0  0
  160.3350  207.5350  153.7800 C   0  0  0  0  0  2  0  0  0  0  0  0
  161.7270  205.7960  152.3010 C   0  0  1  0  0  3  0  0  0  0  0  0
  160.7840  204.7050  152.0110 N   0  0  0  0  0  0  0  0  0  0  0  0
  161.2930  204.8430  149.5030 C   0  0  0  0  0  2  0  0  0  0  0  0
  161.6100  205.6880  154.7640 O   0  0  0  0  0  0  0  0  0  0  0  0
  160.4400  208.8520  151.5960 C   0  0  0  0  0  2  0  0  0  0  0  0
  162.6010  206.6620  154.5250 C   0  0  0  0  0  2  0  0  0  0  0  0
  160.2250  210.0780  153.7700 C   0  0  1  0  0  3  0  0  0  0  0  0
  160.8300  210.3050  155.0100 O   0  0  0  0  0  1  0  0  0  0  0  0
  160.4000  211.3010  152.8690 C   0  0  0  0  0  2  0  0  0  0  0  0
  159.9890  212.5050  153.5190 O   0  0  0  0  0  0  0  0  0  0  0  0
  157.8570  213.1320  154.6310 C   0  0  0  0  0  0  0  0  0  0  0  0
  158.1960  213.4200  152.2350 C   0  0  0  0  0  3  0  0  0  0  0  0
  158.6850  213.0190  153.4820 C   0  0  0  0  0  0  0  0  0  0  0  0
  156.5230  213.5880  154.4700 C   0  0  0  0  0  0  0  0  0  0  0  0
  156.0570  213.9630  153.2060 C   0  0  0  0  0  3  0  0  0  0  0  0
  155.5840  213.7410  155.6200 C   0  0  0  0  0  1  0  0  0  0  0  0
  156.8930  213.8970  152.0930 C   0  0  0  0  0  0  0  0  0  0  0  0
  159.0660  213.8510  156.6900 O   0  0  0  0  0  1  0  0  0  0  0  0
  158.3950  212.8590  155.9840 C   0  0  0  0  0  0  0  0  0  0  0  0
  158.2630  211.7180  156.4990 O   0  0  0  0  0  0  0  0  0  0  0  0
  156.3830  214.2830  150.7470 C   0  0  0  0  0  2  0  0  0  0  0  0
  157.0570  213.4420  149.6750 C   0  0  0  0  0  1  0  0  0  0  0  0
  162.7730  206.7380  148.8280 O   0  0  0  0  0  0  0  0  0  0  0  0
  161.7540  206.9660  147.8830 C   0  0  2  0  0  3  0  0  0  0  0  0
  162.0760  206.2250  146.5750 C   0  0  1  0  0  3  0  0  0  0  0  0
  163.2350  205.4730  146.6770 F   0  0  0  0  0  0  0  0  0  0  0  0
  160.0350  206.2590  145.3370 O   0  0  0  0  0  1  0  0  0  0  0  0
  160.9080  205.4100  146.0180 C   0  0  1  0  0  3  0  0  0  0  0  0
  161.3800  204.3020  145.0870 C   0  0  0  0  0  2  0  0  0  0  0  0
  161.0250  200.6700  145.9010 F   0  0  0  0  0  0  0  0  0  0  0  0
  160.5790  202.7690  146.7430 O   0  0  0  0  0  0  0  0  0  0  0  0
  161.6660  203.0370  145.8810 C   0  0  1  0  0  3  0  0  0  0  0  0
  160.6790  201.9710  145.5910 C   0  0  0  0  0  0  0  0  0  0  0  0
  159.6370  202.2040  144.7150 F   0  0  0  0  0  0  0  0  0  0  0  0
  161.5680  208.4650  147.6740 C   0  0  0  0  0  2  0  0  0  0  0  0
  162.2390  209.2440  148.7920 C   0  0  0  0  0  2  0  0  0  0  0  0
  162.5330  210.5940  148.3390 N   0  0  0  0  0  2  0  0  0  0  0  0
  161.5600  211.4890  148.9490 C   0  0  0  0  0  2  0  0  0  0  0  0
  161.9550  213.8560  148.7550 O   0  0  0  0  0  0  0  0  0  0  0  0
  160.0230  213.0500  147.4460 C   0  0  2  0  0  3  0  0  0  0  0  0
  159.8320  212.4500  145.0090 N   0  0  0  0  0  2  0  0  0  0  0  0
  162.6450  213.3960  147.6080 C   0  0  2  0  0  3  0  0  0  0  0  0
  161.1010  213.1660  144.8470 C   0  0  0  0  0  2  0  0  0  0  0  0
  160.0280  214.4250  146.7740 C   0  0  0  0  0  2  0  0  0  0  0  0
  162.4930  214.4510  146.4890 C   0  0  0  0  0  2  0  0  0  0  0  0
  161.3910  212.7450  148.1040 C   0  0  2  0  0  0  0  0  0  0  0  0
  159.7000  211.9680  146.3940 C   0  0  0  0  0  2  0  0  0  0  0  0
  161.1580  214.4180  145.7420 C   0  0  1  0  0  3  0  0  0  0  0  0
  1  4  1  6  0  0  0
  1 10  1  0  0  0  0
  2  7  2  0  0  0  0
  3  9  1  1  0  0  0
  3 15  1  0  0  0  0
  3 13  1  0  0  0  0
  4 14  1  0  0  0  0
  6 16  1  1  0  0  0
  6  9  1  0  0  0  0
  7 11  1  0  0  0  0
  8 32  1  6  0  0  0
  8  1  1  0  0  0  0
 10 11  1  6  0  0  0
 10  3  1  0  0  0  0
 11  5  1  0  0  0  0
 12  8  1  0  0  0  0
 12  7  1  0  0  0  0
 14  6  1  0  0  0  0
 15 13  1  0  0  0  0
 16 17  1  1  0  0  0
 18 19  1  0  0  0  0
 18 16  1  0  0  0  0
 20 28  1  0  0  0  0
 21 22  1  0  0  0  0
 22 19  1  0  0  0  0
 22 20  2  0  0  0  0
 23 20  1  0  0  0  0
 23 25  1  0  0  0  0
 24 23  2  0  0  0  0
 26 21  2  0  0  0  0
 26 24  1  0  0  0  0
 28 29  2  0  0  0  0
 28 27  1  0  0  0  0
 30 26  1  0  0  0  0
 31 30  1  0  0  0  0
 33 44  1  6  0  0  0
 33 32  1  0  0  0  0
 34 35  1  1  0  0  0
 34 33  1  0  0  0  0
 37 36  1  6  0  0  0
 37 34  1  0  0  0  0
 38 37  1  0  0  0  0
 41 38  1  6  0  0  0
 41 40  1  0  0  0  0
 42 41  1  0  0  0  0
 42 39  1  0  0  0  0
 42 40  1  0  0  0  0
 43 42  1  0  0  0  0
 44 45  1  0  0  0  0
 46 45  1  0  0  0  0
 46 47  1  0  0  0  0
 49 56  1  6  0  0  0
 49 55  1  0  0  0  0
 50 56  1  0  0  0  0
 51 54  1  6  0  0  0
 51 55  1  0  0  0  0
 51 48  1  0  0  0  0
 52 50  1  0  0  0  0
 53 49  1  0  0  0  0
 55 48  1  0  0  0  0
 55 47  1  1  0  0  0
 57 52  1  1  0  0  0
 57 54  1  0  0  0  0
 57 53  1  0  0  0  0
M  END
>  <MODEL>
4

>  <REMARK>
 VINA RESULT:      -4.9      3.452      9.556
  Name = 
  17 active torsions:
  status: ('A' for Active; 'I' for Inactive)
    1  A    between atoms: C_3  and  C_50
    2  A    between atoms: C_4  and  N_28
    3  A    between atoms: C_4  and  C_38
    4  A    between atoms: C_8  and  C_51
    5  A    between atoms: C_9  and  C_11
    6  A    between atoms: C_9  and  C_26
    7  A    between atoms: C_9  and  O_54
    8  A    between atoms: C_11  and  C_40
    9  A    between atoms: C_15  and  C_23
   10  A    between atoms: C_19  and  C_33
   11  A    between atoms: C_21  and  O_53
   12  A    between atoms: C_23  and  C_29
   13  A    between atoms: C_26  and  C_49
   14  A    between atoms: C_27  and  O_54
   15  A    between atoms: N_28  and  C_49
   16  A    between atoms: C_29  and  O_53
   17  A    between atoms: C_33  and  C_40
                            x       y       z     vdW  Elec       q    Type
                         _______ _______ _______ _____ _____    ______ ____

>  <TORSDO>
F 17

$$$$
=
 OpenBabel11072414083D

 57 64  0  0  1  0  0  0  0  0999 V2000
  160.9100  208.8050  152.7630 C   0  0  2  0  0  3  0  0  0  0  0  0
  163.0530  211.2650  155.3490 O   0  0  0  0  0  0  0  0  0  0  0  0
  160.4390  207.2360  154.7250 C   0  0  2  0  0  0  0  0  0  0  0  0
  162.1600  208.0460  152.3080 C   0  0  0  0  0  2  0  0  0  0  0  0
  162.0680  208.9250  156.2970 O   0  0  0  0  0  1  0  0  0  0  0  0
  161.0140  205.7730  152.8120 C   0  0  1  0  0  3  0  0  0  0  0  0
  162.3510  210.5660  154.5710 C   0  0  0  0  0  0  0  0  0  0  0  0
  161.0170  210.2990  152.4450 C   0  0  1  0  0  3  0  0  0  0  0  0
  161.3180  206.0750  154.2800 C   0  0  0  0  0  2  0  0  0  0  0  0
  160.7060  208.6790  154.2810 C   0  0  1  0  0  3  0  0  0  0  0  0
  161.7930  209.3230  155.0330 N   0  0  0  0  0  0  0  0  0  0  0  0
  162.1800  211.0190  153.1510 C   0  0  0  0  0  2  0  0  0  0  0  0
  159.9680  207.1140  156.0410 O   0  0  0  0  0  0  0  0  0  0  0  0
  161.8530  206.6190  151.8440 C   0  0  0  0  0  2  0  0  0  0  0  0
  159.0320  206.9100  155.0070 C   0  0  0  0  0  2  0  0  0  0  0  0
  161.1750  204.2900  152.4720 C   0  0  1  0  0  3  0  0  0  0  0  0
  160.7960  203.4730  153.5410 O   0  0  0  0  0  1  0  0  0  0  0  0
  160.3640  203.9330  151.2260 C   0  0  0  0  0  2  0  0  0  0  0  0
  161.1750  203.3320  150.2150 O   0  0  0  0  0  0  0  0  0  0  0  0
  161.0240  202.8710  147.7780 C   0  0  0  0  0  0  0  0  0  0  0  0
  161.4680  205.1050  148.6440 C   0  0  0  0  0  3  0  0  0  0  0  0
  161.2140  203.7510  148.8770 C   0  0  0  0  0  0  0  0  0  0  0  0
  161.1670  203.3830  146.4620 C   0  0  0  0  0  0  0  0  0  0  0  0
  161.4410  204.7380  146.2610 C   0  0  0  0  0  3  0  0  0  0  0  0
  160.9820  202.5340  145.2480 C   0  0  0  0  0  1  0  0  0  0  0  0
  161.5750  205.6030  147.3460 C   0  0  0  0  0  0  0  0  0  0  0  0
  161.4750  200.4200  147.7150 O   0  0  0  0  0  0  0  0  0  0  0  0
  160.6050  201.4680  147.9920 C   0  0  0  0  0  0  0  0  0  0  0  0
  159.4460  201.2110  148.4140 O   0  0  0  0  0  1  0  0  0  0  0  0
  161.8830  207.0450  147.1230 C   0  0  0  0  0  2  0  0  0  0  0  0
  161.8140  207.8000  148.4410 C   0  0  0  0  0  1  0  0  0  0  0  0
  160.8500  210.6160  151.0760 O   0  0  0  0  0  0  0  0  0  0  0  0
  160.2920  211.9020  150.9430 C   0  0  2  0  0  3  0  0  0  0  0  0
  161.2180  212.7900  150.0950 C   0  0  1  0  0  3  0  0  0  0  0  0
  162.1620  212.0450  149.4050 F   0  0  0  0  0  0  0  0  0  0  0  0
  161.2630  214.0410  148.0620 O   0  0  0  0  0  1  0  0  0  0  0  0
  160.4760  213.7660  149.1810 C   0  0  1  0  0  3  0  0  0  0  0  0
  159.1250  213.2200  148.7400 C   0  0  0  0  0  2  0  0  0  0  0  0
  155.6510  214.1140  149.7940 F   0  0  0  0  0  0  0  0  0  0  0  0
  157.1400  214.3710  148.0530 O   0  0  0  0  0  0  0  0  0  0  0  0
  158.0160  214.1760  149.1460 C   0  0  1  0  0  3  0  0  0  0  0  0
  156.6830  213.5320  149.0830 C   0  0  0  0  0  0  0  0  0  0  0  0
  156.5610  212.2230  148.6600 F   0  0  0  0  0  0  0  0  0  0  0  0
  160.0210  212.4940  152.3220 C   0  0  0  0  0  2  0  0  0  0  0  0
  158.6760  213.2000  152.3410 C   0  0  0  0  0  2  0  0  0  0  0  0
  158.6660  214.2030  153.3940 N   0  0  0  0  0  2  0  0  0  0  0  0
  157.2780  214.4520  153.7560 C   0  0  0  0  0  2  0  0  0  0  0  0
  155.4630  213.1850  154.7020 O   0  0  0  0  0  0  0  0  0  0  0  0
  157.2580  213.7200  156.3100 C   0  0  2  0  0  3  0  0  0  0  0  0
  159.2040  212.3400  157.1120 N   0  0  0  0  0  2  0  0  0  0  0  0
  156.3590  212.1350  154.3870 C   0  0  2  0  0  3  0  0  0  0  0  0
  158.4820  211.1950  156.5470 C   0  0  0  0  0  2  0  0  0  0  0  0
  156.5800  212.7230  157.2520 C   0  0  0  0  0  2  0  0  0  0  0  0
  156.2260  211.0370  155.4660 C   0  0  0  0  0  2  0  0  0  0  0  0
  156.8300  213.4820  154.8420 C   0  0  2  0  0  0  0  0  0  0  0  0
  158.7900  213.5790  156.4330 C   0  0  0  0  0  2  0  0  0  0  0  0
  156.9650  211.3210  156.7760 C   0  0  1  0  0  3  0  0  0  0  0  0
  1  4  1  1  0  0  0
  1 10  1  0  0  0  0
  3  9  1  6  0  0  0
  3 15  1  0  0  0  0
  3 13  1  0  0  0  0
  6 16  1  6  0  0  0
  6  9  1  0  0  0  0
  7 11  1  0  0  0  0
  7  2  2  0  0  0  0
  8 32  1  6  0  0  0
  8  1  1  0  0  0  0
  8 12  1  0  0  0  0
 10  3  1  0  0  0  0
 10 11  1  1  0  0  0
 11  5  1  0  0  0  0
 12  7  1  0  0  0  0
 14  4  1  0  0  0  0
 14  6  1  0  0  0  0
 15 13  1  0  0  0  0
 16 17  1  1  0  0  0
 18 16  1  0  0  0  0
 19 18  1  0  0  0  0
 20 28  1  0  0  0  0
 20 22  1  0  0  0  0
 21 22  2  0  0  0  0
 22 19  1  0  0  0  0
 23 20  2  0  0  0  0
 24 23  1  0  0  0  0
 24 26  2  0  0  0  0
 25 23  1  0  0  0  0
 26 21  1  0  0  0  0
 27 28  2  0  0  0  0
 28 29  1  0  0  0  0
 30 26  1  0  0  0  0
 30 31  1  0  0  0  0
 33 32  1  0  0  0  0
 33 44  1  1  0  0  0
 34 35  1  6  0  0  0
 34 33  1  0  0  0  0
 37 36  1  6  0  0  0
 37 34  1  0  0  0  0
 38 37  1  0  0  0  0
 40 42  1  0  0  0  0
 40 41  1  0  0  0  0
 41 38  1  6  0  0  0
 42 41  1  0  0  0  0
 42 39  1  0  0  0  0
 43 42  1  0  0  0  0
 44 45  1  0  0  0  0
 45 46  1  0  0  0  0
 46 47  1  0  0  0  0
 48 55  1  0  0  0  0
 49 56  1  6  0  0  0
 49 53  1  0  0  0  0
 51 48  1  0  0  0  0
 51 55  1  0  0  0  0
 51 54  1  1  0  0  0
 52 57  1  0  0  0  0
 52 50  1  0  0  0  0
 55 47  1  6  0  0  0
 55 49  1  0  0  0  0
 56 50  1  0  0  0  0
 57 54  1  6  0  0  0
 57 53  1  0  0  0  0
M  END
>  <MODEL>
5

>  <REMARK>
 VINA RESULT:      -4.6      1.582      2.411
  Name = 
  17 active torsions:
  status: ('A' for Active; 'I' for Inactive)
    1  A    between atoms: C_3  and  C_50
    2  A    between atoms: C_4  and  N_28
    3  A    between atoms: C_4  and  C_38
    4  A    between atoms: C_8  and  C_51
    5  A    between atoms: C_9  and  C_11
    6  A    between atoms: C_9  and  C_26
    7  A    between atoms: C_9  and  O_54
    8  A    between atoms: C_11  and  C_40
    9  A    between atoms: C_15  and  C_23
   10  A    between atoms: C_19  and  C_33
   11  A    between atoms: C_21  and  O_53
   12  A    between atoms: C_23  and  C_29
   13  A    between atoms: C_26  and  C_49
   14  A    between atoms: C_27  and  O_54
   15  A    between atoms: N_28  and  C_49
   16  A    between atoms: C_29  and  O_53
   17  A    between atoms: C_33  and  C_40
                            x       y       z     vdW  Elec       q    Type
                         _______ _______ _______ _____ _____    ______ ____

>  <TORSDO>
F 17

$$$$
=
 OpenBabel11072414083D

 57 64  0  0  1  0  0  0  0  0999 V2000
  161.4460  210.2360  151.0200 C   0  0  2  0  0  3  0  0  0  0  0  0
  161.8250  213.2870  148.2130 O   0  0  0  0  0  0  0  0  0  0  0  0
  159.8710  211.7370  152.3650 C   0  0  2  0  0  0  0  0  0  0  0  0
  162.6970  210.6690  151.7890 C   0  0  0  0  0  2  0  0  0  0  0  0
  160.3770  213.7560  150.4560 O   0  0  0  0  0  1  0  0  0  0  0  0
  161.3760  210.6770  154.0220 C   0  0  1  0  0  3  0  0  0  0  0  0
  161.6650  212.3320  149.0190 C   0  0  0  0  0  0  0  0  0  0  0  0
  161.7780  209.8710  149.5710 C   0  0  1  0  0  3  0  0  0  0  0  0
  160.7970  212.0090  153.5420 C   0  0  0  0  0  2  0  0  0  0  0  0
  160.4050  211.3660  150.9760 C   0  0  1  0  0  3  0  0  0  0  0  0
  160.8920  212.5270  150.2160 N   0  0  0  0  0  0  0  0  0  0  0  0
  162.3560  211.0300  148.7390 C   0  0  0  0  0  2  0  0  0  0  0  0
  158.7270  212.5490  152.3470 O   0  0  0  0  0  0  0  0  0  0  0  0
  162.6520  210.2760  153.2690 C   0  0  0  0  0  2  0  0  0  0  0  0
  158.5440  211.1960  152.6980 C   0  0  0  0  0  2  0  0  0  0  0  0
  161.6400  210.6600  155.5280 C   0  0  1  0  0  3  0  0  0  0  0  0
  162.9670  210.9850  155.8220 O   0  0  0  0  0  1  0  0  0  0  0  0
  160.6930  211.6180  156.2510 C   0  0  0  0  0  2  0  0  0  0  0  0
  159.4680  210.9820  156.6190 O   0  0  0  0  0  0  0  0  0  0  0  0
  157.8270  212.7420  155.9950 C   0  0  0  0  0  0  0  0  0  0  0  0
  157.2770  210.3700  155.8950 C   0  0  0  0  0  3  0  0  0  0  0  0
  158.2010  211.3820  156.1680 C   0  0  0  0  0  0  0  0  0  0  0  0
  156.4930  213.0400  155.6140 C   0  0  0  0  0  0  0  0  0  0  0  0
  155.5860  212.0060  155.3680 C   0  0  0  0  0  3  0  0  0  0  0  0
  156.0130  214.4380  155.4060 C   0  0  0  0  0  1  0  0  0  0  0  0
  155.9770  210.6740  155.4900 C   0  0  0  0  0  0  0  0  0  0  0  0
  159.5170  214.2910  155.0160 O   0  0  0  0  0  0  0  0  0  0  0  0
  158.8260  213.8270  156.1290 C   0  0  0  0  0  0  0  0  0  0  0  0
  159.0710  214.3260  157.2580 O   0  0  0  0  0  1  0  0  0  0  0  0
  154.9980  209.5780  155.2420 C   0  0  0  0  0  2  0  0  0  0  0  0
  154.1100  209.3880  156.4610 C   0  0  0  0  0  1  0  0  0  0  0  0
  162.4370  208.6280  149.4200 O   0  0  0  0  0  0  0  0  0  0  0  0
  161.6150  207.7280  148.7160 C   0  0  2  0  0  3  0  0  0  0  0  0
  160.6320  207.0490  149.6830 C   0  0  1  0  0  3  0  0  0  0  0  0
  159.8670  206.0820  149.0510 F   0  0  0  0  0  0  0  0  0  0  0  0
  162.6170  206.9310  151.0050 O   0  0  0  0  0  1  0  0  0  0  0  0
  161.2830  206.5220  150.9620 C   0  0  1  0  0  3  0  0  0  0  0  0
  160.5570  207.0030  152.2110 C   0  0  0  0  0  2  0  0  0  0  0  0
  160.7130  206.2040  155.8600 F   0  0  0  0  0  0  0  0  0  0  0  0
  161.9580  207.1200  154.1500 O   0  0  0  0  0  0  0  0  0  0  0  0
  161.0810  206.2720  153.4360 C   0  0  1  0  0  3  0  0  0  0  0  0
  160.6740  206.9430  154.6930 C   0  0  0  0  0  0  0  0  0  0  0  0
  159.9370  208.1100  154.6540 F   0  0  0  0  0  0  0  0  0  0  0  0
  162.4770  206.7240  147.9590 C   0  0  0  0  0  2  0  0  0  0  0  0
  161.8470  206.3890  146.6170 C   0  0  0  0  0  2  0  0  0  0  0  0
  161.6510  204.9510  146.5150 N   0  0  0  0  0  2  0  0  0  0  0  0
  162.1930  204.3420  147.7210 C   0  0  0  0  0  2  0  0  0  0  0  0
  160.8600  202.4920  146.9490 O   0  0  0  0  0  0  0  0  0  0  0  0
  160.3860  203.1690  149.2750 C   0  0  2  0  0  3  0  0  0  0  0  0
  161.2070  202.2190  151.4570 N   0  0  0  0  0  2  0  0  0  0  0  0
  161.9040  201.7900  147.5980 C   0  0  2  0  0  3  0  0  0  0  0  0
  161.6140  201.0520  150.6690 C   0  0  0  0  0  2  0  0  0  0  0  0
  159.5810  201.8720  149.3860 C   0  0  0  0  0  2  0  0  0  0  0  0
  161.3110  200.5150  148.2390 C   0  0  0  0  0  2  0  0  0  0  0  0
  161.3890  203.1040  148.0990 C   0  0  2  0  0  0  0  0  0  0  0  0
  161.1490  203.4120  150.5960 C   0  0  0  0  0  2  0  0  0  0  0  0
  160.5850  200.7330  149.5680 C   0  0  1  0  0  3  0  0  0  0  0  0
  1  4  1  6  0  0  0
  2  7  2  0  0  0  0
  3 15  1  1  0  0  0
  3  9  1  0  0  0  0
  4 14  1  0  0  0  0
  6 16  1  1  0  0  0
  7 11  1  0  0  0  0
  8 32  1  1  0  0  0
  8  1  1  0  0  0  0
  9  6  1  0  0  0  0
 10 11  1  1  0  0  0
 10  1  1  0  0  0  0
 10  3  1  0  0  0  0
 11  5  1  0  0  0  0
 12  7  1  0  0  0  0
 12  8  1  0  0  0  0
 13  3  1  0  0  0  0
 13 15  1  0  0  0  0
 14  6  1  0  0  0  0
 16 17  1  6  0  0  0
 16 18  1  0  0  0  0
 18 19  1  0  0  0  0
 20 28  1  0  0  0  0
 20 22  1  0  0  0  0
 21 22  2  0  0  0  0
 22 19  1  0  0  0  0
 23 20  2  0  0  0  0
 24 26  2  0  0  0  0
 24 23  1  0  0  0  0
 25 23  1  0  0  0  0
 26 21  1  0  0  0  0
 27 28  2  0  0  0  0
 28 29  1  0  0  0  0
 30 26  1  0  0  0  0
 30 31  1  0  0  0  0
 33 44  1  1  0  0  0
 33 32  1  0  0  0  0
 33 34  1  0  0  0  0
 34 35  1  6  0  0  0
 34 37  1  0  0  0  0
 37 36  1  1  0  0  0
 37 38  1  0  0  0  0
 40 42  1  0  0  0  0
 41 38  1  6  0  0  0
 41 40  1  0  0  0  0
 41 42  1  0  0  0  0
 42 39  1  0  0  0  0
 43 42  1  0  0  0  0
 45 44  1  0  0  0  0
 46 45  1  0  0  0  0
 46 47  1  0  0  0  0
 48 51  1  0  0  0  0
 48 55  1  0  0  0  0
 49 53  1  1  0  0  0
 49 56  1  0  0  0  0
 51 55  1  0  0  0  0
 51 54  1  1  0  0  0
 52 50  1  0  0  0  0
 53 57  1  0  0  0  0
 55 47  1  6  0  0  0
 55 49  1  0  0  0  0
 56 50  1  0  0  0  0
 57 54  1  6  0  0  0
 57 52  1  0  0  0  0
M  END
>  <MODEL>
6

>  <REMARK>
 VINA RESULT:      -4.5      3.173     10.290
  Name = 
  17 active torsions:
  status: ('A' for Active; 'I' for Inactive)
    1  A    between atoms: C_3  and  C_50
    2  A    between atoms: C_4  and  N_28
    3  A    between atoms: C_4  and  C_38
    4  A    between atoms: C_8  and  C_51
    5  A    between atoms: C_9  and  C_11
    6  A    between atoms: C_9  and  C_26
    7  A    between atoms: C_9  and  O_54
    8  A    between atoms: C_11  and  C_40
    9  A    between atoms: C_15  and  C_23
   10  A    between atoms: C_19  and  C_33
   11  A    between atoms: C_21  and  O_53
   12  A    between atoms: C_23  and  C_29
   13  A    between atoms: C_26  and  C_49
   14  A    between atoms: C_27  and  O_54
   15  A    between atoms: N_28  and  C_49
   16  A    between atoms: C_29  and  O_53
   17  A    between atoms: C_33  and  C_40
                            x       y       z     vdW  Elec       q    Type
                         _______ _______ _______ _____ _____    ______ ____

>  <TORSDO>
F 17

$$$$
=
 OpenBabel11072414083D

 57 64  0  0  1  0  0  0  0  0999 V2000
  160.7120  209.0580  153.7460 C   0  0  2  0  0  3  0  0  0  0  0  0
  160.9420  205.0580  154.8790 O   0  0  0  0  0  0  0  0  0  0  0  0
  161.2340  209.7200  156.1600 C   0  0  2  0  0  0  0  0  0  0  0  0
  159.1940  209.1160  153.9390 C   0  0  0  0  0  2  0  0  0  0  0  0
  161.1820  206.9670  156.7880 O   0  0  0  0  0  1  0  0  0  0  0  0
  159.4210  211.2350  155.4190 C   0  0  1  0  0  3  0  0  0  0  0  0
  160.9370  206.2620  154.5090 C   0  0  0  0  0  0  0  0  0  0  0  0
  161.1030  208.0130  152.6970 C   0  0  1  0  0  3  0  0  0  0  0  0
  159.8640  210.2760  156.5240 C   0  0  0  0  0  2  0  0  0  0  0  0
  161.4220  208.6750  155.0540 C   0  0  1  0  0  3  0  0  0  0  0  0
  161.0770  207.3110  155.4830 N   0  0  0  0  0  0  0  0  0  0  0  0
  160.7080  206.5690  153.0580 C   0  0  0  0  0  2  0  0  0  0  0  0
  162.0890  209.5580  157.2600 O   0  0  0  0  0  0  0  0  0  0  0  0
  158.6900  210.5240  154.2710 C   0  0  0  0  0  2  0  0  0  0  0  0
  162.3770  210.6210  156.3810 C   0  0  0  0  0  2  0  0  0  0  0  0
  158.5560  212.3800  155.9480 C   0  0  1  0  0  3  0  0  0  0  0  0
  158.1200  212.1370  157.2540 O   0  0  0  0  0  1  0  0  0  0  0  0
  159.3200  213.7030  155.8890 C   0  0  0  0  0  2  0  0  0  0  0  0
  159.0130  214.4450  154.7080 O   0  0  0  0  0  0  0  0  0  0  0  0
  158.0200  213.7890  152.5260 C   0  0  0  0  0  0  0  0  0  0  0  0
  156.6410  214.3850  154.4450 C   0  0  0  0  0  3  0  0  0  0  0  0
  157.9060  214.1980  153.8820 C   0  0  0  0  0  0  0  0  0  0  0  0
  156.8370  213.6470  151.7550 C   0  0  0  0  0  0  0  0  0  0  0  0
  155.5860  213.8600  152.3410 C   0  0  0  0  0  3  0  0  0  0  0  0
  156.8590  213.2180  150.3250 C   0  0  0  0  0  1  0  0  0  0  0  0
  155.4840  214.2110  153.6860 C   0  0  0  0  0  0  0  0  0  0  0  0
  159.8040  212.1290  152.0010 O   0  0  0  0  0  1  0  0  0  0  0  0
  159.3360  213.4370  151.9470 C   0  0  0  0  0  0  0  0  0  0  0  0
  160.0510  214.3260  151.4140 O   0  0  0  0  0  0  0  0  0  0  0  0
  154.1470  214.4530  154.3000 C   0  0  0  0  0  2  0  0  0  0  0  0
  154.2280  214.2780  155.8080 C   0  0  0  0  0  1  0  0  0  0  0  0
  160.8350  208.3990  151.3630 O   0  0  0  0  0  0  0  0  0  0  0  0
  161.8530  207.9300  150.5110 C   0  0  2  0  0  3  0  0  0  0  0  0
  162.0990  208.9420  149.3810 C   0  0  1  0  0  3  0  0  0  0  0  0
  161.6260  208.4850  148.1620 F   0  0  0  0  0  0  0  0  0  0  0  0
  162.2470  210.8220  150.8460 O   0  0  0  0  0  1  0  0  0  0  0  0
  161.6090  210.3560  149.6950 C   0  0  1  0  0  3  0  0  0  0  0  0
  161.8630  211.3170  148.5410 C   0  0  0  0  0  2  0  0  0  0  0  0
  159.2050  213.7120  147.4560 F   0  0  0  0  0  0  0  0  0  0  0  0
  161.4730  213.5750  147.8440 O   0  0  0  0  0  0  0  0  0  0  0  0
  160.9820  212.5470  148.6810 C   0  0  1  0  0  3  0  0  0  0  0  0
  160.3220  212.9000  147.4030 C   0  0  0  0  0  0  0  0  0  0  0  0
  160.5670  212.1590  146.2640 F   0  0  0  0  0  0  0  0  0  0  0  0
  161.4900  206.5450  149.9840 C   0  0  0  0  0  2  0  0  0  0  0  0
  160.0780  206.5450  149.4230 C   0  0  0  0  0  2  0  0  0  0  0  0
  160.0050  205.6440  148.2830 N   0  0  0  0  0  2  0  0  0  0  0  0
  161.1940  204.8040  148.3050 C   0  0  0  0  0  2  0  0  0  0  0  0
  160.2800  202.6600  147.7030 O   0  0  0  0  0  0  0  0  0  0  0  0
  160.1050  203.1860  150.1090 C   0  0  2  0  0  3  0  0  0  0  0  0
  161.5600  202.4980  152.0460 N   0  0  0  0  0  2  0  0  0  0  0  0
  161.5790  202.2690  148.1080 C   0  0  2  0  0  3  0  0  0  0  0  0
  162.1010  201.4840  151.1350 C   0  0  0  0  0  2  0  0  0  0  0  0
  159.7140  201.7190  150.3030 C   0  0  0  0  0  2  0  0  0  0  0  0
  161.4850  200.8820  148.7810 C   0  0  0  0  0  2  0  0  0  0  0  0
  160.8400  203.3950  148.7630 C   0  0  2  0  0  0  0  0  0  0  0  0
  161.0180  203.6290  151.2730 C   0  0  0  0  0  2  0  0  0  0  0  0
  161.0010  200.8960  150.2330 C   0  0  1  0  0  3  0  0  0  0  0  0
  1  4  1  1  0  0  0
  1 10  1  0  0  0  0
  3 15  1  6  0  0  0
  3  9  1  0  0  0  0
  3 13  1  0  0  0  0
  4 14  1  0  0  0  0
  6 16  1  1  0  0  0
  6  9  1  0  0  0  0
  7  2  2  0  0  0  0
  7 11  1  0  0  0  0
  8 32  1  6  0  0  0
  8 12  1  0  0  0  0
  8  1  1  0  0  0  0
 10 11  1  1  0  0  0
 10  3  1  0  0  0  0
 11  5  1  0  0  0  0
 12  7  1  0  0  0  0
 14  6  1  0  0  0  0
 15 13  1  0  0  0  0
 16 17  1  1  0  0  0
 18 16  1  0  0  0  0
 19 18  1  0  0  0  0
 20 22  1  0  0  0  0
 22 21  2  0  0  0  0
 22 19  1  0  0  0  0
 23 24  1  0  0  0  0
 23 20  2  0  0  0  0
 24 26  2  0  0  0  0
 25 23  1  0  0  0  0
 26 30  1  0  0  0  0
 26 21  1  0  0  0  0
 28 27  1  0  0  0  0
 28 20  1  0  0  0  0
 29 28  2  0  0  0  0
 30 31  1  0  0  0  0
 33 44  1  6  0  0  0
 33 32  1  0  0  0  0
 34 35  1  6  0  0  0
 34 37  1  0  0  0  0
 34 33  1  0  0  0  0
 37 36  1  1  0  0  0
 38 37  1  0  0  0  0
 40 41  1  0  0  0  0
 41 38  1  6  0  0  0
 42 39  1  0  0  0  0
 42 40  1  0  0  0  0
 42 41  1  0  0  0  0
 43 42  1  0  0  0  0
 45 44  1  0  0  0  0
 46 47  1  0  0  0  0
 46 45  1  0  0  0  0
 48 51  1  0  0  0  0
 48 55  1  0  0  0  0
 49 53  1  1  0  0  0
 49 56  1  0  0  0  0
 51 55  1  0  0  0  0
 51 54  1  1  0  0  0
 52 50  1  0  0  0  0
 55 47  1  6  0  0  0
 55 49  1  0  0  0  0
 56 50  1  0  0  0  0
 57 54  1  6  0  0  0
 57 53  1  0  0  0  0
 57 52  1  0  0  0  0
M  END
>  <MODEL>
7

>  <REMARK>
 VINA RESULT:      -3.4      2.494      9.268
  Name = 
  17 active torsions:
  status: ('A' for Active; 'I' for Inactive)
    1  A    between atoms: C_3  and  C_50
    2  A    between atoms: C_4  and  N_28
    3  A    between atoms: C_4  and  C_38
    4  A    between atoms: C_8  and  C_51
    5  A    between atoms: C_9  and  C_11
    6  A    between atoms: C_9  and  C_26
    7  A    between atoms: C_9  and  O_54
    8  A    between atoms: C_11  and  C_40
    9  A    between atoms: C_15  and  C_23
   10  A    between atoms: C_19  and  C_33
   11  A    between atoms: C_21  and  O_53
   12  A    between atoms: C_23  and  C_29
   13  A    between atoms: C_26  and  C_49
   14  A    between atoms: C_27  and  O_54
   15  A    between atoms: N_28  and  C_49
   16  A    between atoms: C_29  and  O_53
   17  A    between atoms: C_33  and  C_40
                            x       y       z     vdW  Elec       q    Type
                         _______ _______ _______ _____ _____    ______ ____

>  <TORSDO>
F 17

$$$$
=
 OpenBabel11072414083D

 57 64  0  0  1  0  0  0  0  0999 V2000
  160.9480  208.5330  152.4920 C   0  0  2  0  0  3  0  0  0  0  0  0
  163.0210  211.0160  155.1130 O   0  0  0  0  0  0  0  0  0  0  0  0
  160.3060  207.0560  154.4780 C   0  0  2  0  0  0  0  0  0  0  0  0
  162.1950  207.7150  152.1410 C   0  0  0  0  0  2  0  0  0  0  0  0
  161.8990  208.7480  156.0830 O   0  0  0  0  0  1  0  0  0  0  0  0
  160.9400  205.5040  152.6560 C   0  0  1  0  0  3  0  0  0  0  0  0
  162.3420  210.3120  154.3200 C   0  0  0  0  0  0  0  0  0  0  0  0
  161.1270  210.0100  152.1270 C   0  0  1  0  0  3  0  0  0  0  0  0
  161.1670  205.8500  154.1280 C   0  0  0  0  0  2  0  0  0  0  0  0
  160.6500  208.4710  153.9980 C   0  0  1  0  0  3  0  0  0  0  0  0
  161.7140  209.1070  154.7910 N   0  0  0  0  0  0  0  0  0  0  0  0
  162.2710  210.7160  152.8770 C   0  0  0  0  0  2  0  0  0  0  0  0
  159.7540  207.0000  155.7660 O   0  0  0  0  0  0  0  0  0  0  0  0
  161.8650  206.2830  151.7110 C   0  0  0  0  0  2  0  0  0  0  0  0
  158.8740  206.7890  154.6850 C   0  0  0  0  0  2  0  0  0  0  0  0
  161.0680  204.0040  152.3800 C   0  0  1  0  0  3  0  0  0  0  0  0
  160.7500  203.2430  153.5090 O   0  0  0  0  0  1  0  0  0  0  0  0
  160.1780  203.5960  151.2050 C   0  0  0  0  0  2  0  0  0  0  0  0
  160.9400  203.0880  150.1090 O   0  0  0  0  0  0  0  0  0  0  0  0
  161.3460  203.2610  147.6630 C   0  0  0  0  0  0  0  0  0  0  0  0
  161.5470  205.1860  149.1440 C   0  0  0  0  0  3  0  0  0  0  0  0
  161.2700  203.8280  148.9640 C   0  0  0  0  0  0  0  0  0  0  0  0
  161.7710  204.0800  146.5850 C   0  0  0  0  0  0  0  0  0  0  0  0
  162.0600  205.4300  146.8010 C   0  0  0  0  0  3  0  0  0  0  0  0
  161.8760  203.5710  145.1860 C   0  0  0  0  0  1  0  0  0  0  0  0
  161.9330  205.9890  148.0710 C   0  0  0  0  0  0  0  0  0  0  0  0
  161.4130  200.8250  148.1880 O   0  0  0  0  0  1  0  0  0  0  0  0
  160.9130  201.8660  147.4170 C   0  0  0  0  0  0  0  0  0  0  0  0
  160.0980  201.6110  146.4920 O   0  0  0  0  0  0  0  0  0  0  0  0
  162.2590  207.4260  148.2950 C   0  0  0  0  0  2  0  0  0  0  0  0
  161.0110  208.1820  148.7210 C   0  0  0  0  0  1  0  0  0  0  0  0
  161.0530  210.2800  150.7400 O   0  0  0  0  0  0  0  0  0  0  0  0
  160.5620  211.5820  150.5280 C   0  0  2  0  0  3  0  0  0  0  0  0
  161.6400  212.4450  149.8520 C   0  0  1  0  0  3  0  0  0  0  0  0
  162.8180  211.7430  149.6550 F   0  0  0  0  0  0  0  0  0  0  0  0
  162.2060  213.9200  148.0620 O   0  0  0  0  0  1  0  0  0  0  0  0
  161.1660  213.1440  148.5770 C   0  0  1  0  0  3  0  0  0  0  0  0
  160.6950  212.1500  147.5240 C   0  0  0  0  0  2  0  0  0  0  0  0
  158.6720  212.7300  144.4340 F   0  0  0  0  0  0  0  0  0  0  0  0
  160.0130  213.8260  145.9550 O   0  0  0  0  0  0  0  0  0  0  0  0
  159.5430  212.7390  146.7260 C   0  0  1  0  0  3  0  0  0  0  0  0
  159.7690  212.6260  145.2670 C   0  0  0  0  0  0  0  0  0  0  0  0
  160.9360  212.0670  144.7830 F   0  0  0  0  0  0  0  0  0  0  0  0
  160.0830  212.1760  151.8490 C   0  0  0  0  0  2  0  0  0  0  0  0
  158.8660  213.0580  151.6240 C   0  0  0  0  0  2  0  0  0  0  0  0
  158.7670  214.0370  152.6950 N   0  0  0  0  0  2  0  0  0  0  0  0
  157.4720  213.8630  153.3360 C   0  0  0  0  0  2  0  0  0  0  0  0
  158.6290  213.9480  155.4460 O   0  0  0  0  0  0  0  0  0  0  0  0
  157.7360  211.7170  154.8810 C   0  0  2  0  0  3  0  0  0  0  0  0
  155.6150  210.5710  155.6060 N   0  0  0  0  0  2  0  0  0  0  0  0
  157.2960  214.1280  155.8880 C   0  0  2  0  0  3  0  0  0  0  0  0
  155.5510  211.5940  156.6550 C   0  0  0  0  0  2  0  0  0  0  0  0
  158.0560  211.3300  156.3260 C   0  0  0  0  0  2  0  0  0  0  0  0
  157.1390  213.4370  157.2610 C   0  0  0  0  0  2  0  0  0  0  0  0
  157.6430  213.2540  154.7220 C   0  0  2  0  0  0  0  0  0  0  0  0
  156.3970  211.0710  154.4630 C   0  0  0  0  0  2  0  0  0  0  0  0
  156.9520  211.9190  157.2060 C   0  0  1  0  0  3  0  0  0  0  0  0
  1  4  1  1  0  0  0
  1 10  1  0  0  0  0
  3  9  1  6  0  0  0
  3 15  1  0  0  0  0
  3 13  1  0  0  0  0
  6 16  1  1  0  0  0
  6  9  1  0  0  0  0
  7 11  1  0  0  0  0
  7  2  2  0  0  0  0
  8 32  1  6  0  0  0
  8  1  1  0  0  0  0
  8 12  1  0  0  0  0
 10  3  1  0  0  0  0
 10 11  1  1  0  0  0
 11  5  1  0  0  0  0
 12  7  1  0  0  0  0
 14  4  1  0  0  0  0
 14  6  1  0  0  0  0
 15 13  1  0  0  0  0
 16 17  1  1  0  0  0
 18 16  1  0  0  0  0
 19 18  1  0  0  0  0
 20 22  1  0  0  0  0
 22 21  2  0  0  0  0
 22 19  1  0  0  0  0
 23 24  1  0  0  0  0
 23 20  2  0  0  0  0
 24 26  2  0  0  0  0
 25 23  1  0  0  0  0
 26 30  1  0  0  0  0
 26 21  1  0  0  0  0
 28 20  1  0  0  0  0
 28 27  1  0  0  0  0
 29 28  2  0  0  0  0
 30 31  1  0  0  0  0
 33 32  1  0  0  0  0
 33 44  1  1  0  0  0
 34 35  1  6  0  0  0
 34 33  1  0  0  0  0
 37 36  1  6  0  0  0
 37 34  1  0  0  0  0
 38 37  1  0  0  0  0
 39 42  1  0  0  0  0
 40 41  1  0  0  0  0
 41 38  1  1  0  0  0
 42 40  1  0  0  0  0
 42 41  1  0  0  0  0
 43 42  1  0  0  0  0
 45 44  1  0  0  0  0
 45 46  1  0  0  0  0
 46 47  1  0  0  0  0
 48 51  1  0  0  0  0
 49 56  1  1  0  0  0
 49 53  1  0  0  0  0
 50 52  1  0  0  0  0
 51 54  1  1  0  0  0
 52 57  1  0  0  0  0
 55 47  1  6  0  0  0
 55 49  1  0  0  0  0
 55 48  1  0  0  0  0
 55 51  1  0  0  0  0
 56 50  1  0  0  0  0
 57 53  1  6  0  0  0
 57 54  1  0  0  0  0
M  END
>  <MODEL>
8

>  <REMARK>
 VINA RESULT:      -3.4      1.655      2.365
  Name = 
  17 active torsions:
  status: ('A' for Active; 'I' for Inactive)
    1  A    between atoms: C_3  and  C_50
    2  A    between atoms: C_4  and  N_28
    3  A    between atoms: C_4  and  C_38
    4  A    between atoms: C_8  and  C_51
    5  A    between atoms: C_9  and  C_11
    6  A    between atoms: C_9  and  C_26
    7  A    between atoms: C_9  and  O_54
    8  A    between atoms: C_11  and  C_40
    9  A    between atoms: C_15  and  C_23
   10  A    between atoms: C_19  and  C_33
   11  A    between atoms: C_21  and  O_53
   12  A    between atoms: C_23  and  C_29
   13  A    between atoms: C_26  and  C_49
   14  A    between atoms: C_27  and  O_54
   15  A    between atoms: N_28  and  C_49
   16  A    between atoms: C_29  and  O_53
   17  A    between atoms: C_33  and  C_40
                            x       y       z     vdW  Elec       q    Type
                         _______ _______ _______ _____ _____    ______ ____

>  <TORSDO>
F 17

$$$$
=
 OpenBabel11072414083D

 57 64  0  0  1  0  0  0  0  0999 V2000
  161.3680  210.8650  151.3720 C   0  0  2  0  0  3  0  0  0  0  0  0
  158.1850  213.5380  151.6040 O   0  0  0  0  0  0  0  0  0  0  0  0
  161.7990  211.6620  148.9810 C   0  0  2  0  0  0  0  0  0  0  0  0
  160.4730  209.6990  150.9430 C   0  0  0  0  0  2  0  0  0  0  0  0
  159.5070  213.2900  149.2500 O   0  0  0  0  0  1  0  0  0  0  0  0
  162.0220  209.1960  148.9240 C   0  0  1  0  0  3  0  0  0  0  0  0
  159.1870  212.7750  151.5710 C   0  0  0  0  0  0  0  0  0  0  0  0
  160.9580  211.4100  152.7430 C   0  0  1  0  0  3  0  0  0  0  0  0
  161.3530  210.3990  148.2570 C   0  0  0  0  0  2  0  0  0  0  0  0
  161.2760  212.0300  150.3750 C   0  0  1  0  0  3  0  0  0  0  0  0
  159.9300  212.6210  150.3490 N   0  0  0  0  0  0  0  0  0  0  0  0
  159.5310  211.9840  152.7990 C   0  0  0  0  0  2  0  0  0  0  0  0
  162.0000  212.7590  148.1300 O   0  0  0  0  0  0  0  0  0  0  0  0
  161.2190  208.6500  150.1120 C   0  0  0  0  0  2  0  0  0  0  0  0
  163.1520  212.1450  148.6640 C   0  0  0  0  0  2  0  0  0  0  0  0
  162.3140  208.0640  147.9370 C   0  0  1  0  0  3  0  0  0  0  0  0
  163.6640  207.7020  147.9530 O   0  0  0  0  0  1  0  0  0  0  0  0
  161.4410  206.8470  148.2420 C   0  0  0  0  0  2  0  0  0  0  0  0
  162.1630  205.6220  148.0940 O   0  0  0  0  0  0  0  0  0  0  0  0
  161.1790  204.4120  146.1590 C   0  0  0  0  0  0  0  0  0  0  0  0
  161.5750  203.3180  148.3010 C   0  0  0  0  0  3  0  0  0  0  0  0
  161.6420  204.4620  147.5020 C   0  0  0  0  0  0  0  0  0  0  0  0
  160.5930  203.2090  145.6850 C   0  0  0  0  0  0  0  0  0  0  0  0
  160.5220  202.0870  146.5150 C   0  0  0  0  0  3  0  0  0  0  0  0
  160.0820  203.0630  144.2900 C   0  0  0  0  0  1  0  0  0  0  0  0
  161.0260  202.1320  147.8130 C   0  0  0  0  0  0  0  0  0  0  0  0
  162.6270  205.8280  144.7060 O   0  0  0  0  0  0  0  0  0  0  0  0
  161.3750  205.5590  145.2450 C   0  0  0  0  0  0  0  0  0  0  0  0
  160.4080  206.3140  144.9600 O   0  0  0  0  0  1  0  0  0  0  0  0
  160.9330  200.9350  148.6970 C   0  0  0  0  0  2  0  0  0  0  0  0
  159.9720  201.2100  149.8430 C   0  0  0  0  0  1  0  0  0  0  0  0
  161.3220  210.5820  153.8310 O   0  0  0  0  0  0  0  0  0  0  0  0
  160.2990  210.5800  154.7990 C   0  0  2  0  0  3  0  0  0  0  0  0
  160.8610  211.0260  156.1580 C   0  0  1  0  0  3  0  0  0  0  0  0
  162.1970  211.3870  156.0740 F   0  0  0  0  0  0  0  0  0  0  0  0
  160.8130  213.2110  157.1180 O   0  0  0  0  0  1  0  0  0  0  0  0
  160.0200  212.0920  156.8600 C   0  0  1  0  0  3  0  0  0  0  0  0
  158.8090  212.4990  156.0310 C   0  0  0  0  0  2  0  0  0  0  0  0
  155.5420  210.6860  156.1830 F   0  0  0  0  0  0  0  0  0  0  0  0
  156.4440  212.8070  156.2510 O   0  0  0  0  0  0  0  0  0  0  0  0
  157.5310  212.0250  156.7030 C   0  0  1  0  0  3  0  0  0  0  0  0
  156.5500  211.5100  155.7190 C   0  0  0  0  0  0  0  0  0  0  0  0
  156.8390  211.5330  154.3690 F   0  0  0  0  0  0  0  0  0  0  0  0
  159.6470  209.2030  154.8600 C   0  0  0  0  0  2  0  0  0  0  0  0
  160.2780  208.3660  155.9600 C   0  0  0  0  0  2  0  0  0  0  0  0
  161.4110  207.6290  155.4250 N   0  0  0  0  0  2  0  0  0  0  0  0
  160.9280  206.3260  154.9920 C   0  0  0  0  0  2  0  0  0  0  0  0
  161.5650  207.3410  152.9040 O   0  0  0  0  0  0  0  0  0  0  0  0
  160.2330  205.2770  152.6510 C   0  0  2  0  0  3  0  0  0  0  0  0
  160.9540  202.9060  152.2090 N   0  0  0  0  0  2  0  0  0  0  0  0
  162.6050  206.3900  153.0440 C   0  0  2  0  0  3  0  0  0  0  0  0
  162.2420  203.4880  151.8180 C   0  0  0  0  0  2  0  0  0  0  0  0
  160.6140  205.3270  151.1700 C   0  0  0  0  0  2  0  0  0  0  0  0
  162.9880  205.8750  151.6380 C   0  0  0  0  0  2  0  0  0  0  0  0
  161.2070  206.1230  153.5080 C   0  0  2  0  0  0  0  0  0  0  0  0
  160.2540  203.8110  153.1360 C   0  0  0  0  0  2  0  0  0  0  0  0
  162.0510  204.8130  151.0570 C   0  0  1  0  0  3  0  0  0  0  0  0
  1  4  1  6  0  0  0
  1  8  1  0  0  0  0
  3  9  1  6  0  0  0
  3 10  1  0  0  0  0
  5 11  1  0  0  0  0
  6 16  1  6  0  0  0
  6 14  1  0  0  0  0
  7  2  2  0  0  0  0
  7 12  1  0  0  0  0
  8 12  1  0  0  0  0
  8 32  1  1  0  0  0
  9  6  1  0  0  0  0
 10 11  1  6  0  0  0
 10  1  1  0  0  0  0
 11  7  1  0  0  0  0
 13 15  1  0  0  0  0
 13  3  1  0  0  0  0
 14  4  1  0  0  0  0
 15  3  1  0  0  0  0
 16 17  1  1  0  0  0
 16 18  1  0  0  0  0
 19 18  1  0  0  0  0
 20 22  1  0  0  0  0
 22 19  1  0  0  0  0
 22 21  2  0  0  0  0
 23 20  2  0  0  0  0
 23 24  1  0  0  0  0
 24 26  2  0  0  0  0
 25 23  1  0  0  0  0
 26 21  1  0  0  0  0
 26 30  1  0  0  0  0
 27 28  2  0  0  0  0
 28 20  1  0  0  0  0
 29 28  1  0  0  0  0
 30 31  1  0  0  0  0
 32 33  1  0  0  0  0
 33 44  1  1  0  0  0
 33 34  1  0  0  0  0
 34 35  1  6  0  0  0
 34 37  1  0  0  0  0
 37 36  1  6  0  0  0
 38 37  1  0  0  0  0
 40 41  1  0  0  0  0
 41 38  1  6  0  0  0
 42 39  1  0  0  0  0
 42 40  1  0  0  0  0
 42 41  1  0  0  0  0
 43 42  1  0  0  0  0
 44 45  1  0  0  0  0
 46 45  1  0  0  0  0
 47 46  1  0  0  0  0
 48 51  1  0  0  0  0
 48 55  1  0  0  0  0
 49 53  1  6  0  0  0
 49 56  1  0  0  0  0
 49 55  1  0  0  0  0
 50 56  1  0  0  0  0
 51 54  1  6  0  0  0
 51 55  1  0  0  0  0
 52 50  1  0  0  0  0
 55 47  1  1  0  0  0
 57 53  1  1  0  0  0
 57 54  1  0  0  0  0
 57 52  1  0  0  0  0
M  END
>  <MODEL>
9

>  <REMARK>
 VINA RESULT:      -3.2      2.796      7.016
  Name = 
  17 active torsions:
  status: ('A' for Active; 'I' for Inactive)
    1  A    between atoms: C_3  and  C_50
    2  A    between atoms: C_4  and  N_28
    3  A    between atoms: C_4  and  C_38
    4  A    between atoms: C_8  and  C_51
    5  A    between atoms: C_9  and  C_11
    6  A    between atoms: C_9  and  C_26
    7  A    between atoms: C_9  and  O_54
    8  A    between atoms: C_11  and  C_40
    9  A    between atoms: C_15  and  C_23
   10  A    between atoms: C_19  and  C_33
   11  A    between atoms: C_21  and  O_53
   12  A    between atoms: C_23  and  C_29
   13  A    between atoms: C_26  and  C_49
   14  A    between atoms: C_27  and  O_54
   15  A    between atoms: N_28  and  C_49
   16  A    between atoms: C_29  and  O_53
   17  A    between atoms: C_33  and  C_40
                            x       y       z     vdW  Elec       q    Type
                         _______ _______ _______ _____ _____    ______ ____

>  <TORSDO>
F 17

$$$$
