=
 OpenBabel11072415263D

 25 27  0  0  1  0  0  0  0  0999 V2000
  160.4500  209.2260  153.9300 O   0  0  0  0  0  1  0  0  0  0  0  0
  162.4340  207.6720  148.8450 C   0  0  1  0  0  3  0  0  0  0  0  0
  162.6120  209.0900  148.2640 C   0  0  0  0  0  2  0  0  0  0  0  0
  161.5510  204.6290  151.9460 C   0  0  0  0  0  0  0  0  0  0  0  0
  161.7740  203.1860  151.6700 C   0  0  0  0  0  1  0  0  0  0  0  0
  160.3560  206.7330  154.7180 O   0  0  0  0  0  1  0  0  0  0  0  0
  161.6240  206.9380  151.2150 C   0  0  0  0  0  0  0  0  0  0  0  0
  160.8460  206.3860  153.4640 C   0  0  0  0  0  0  0  0  0  0  0  0
  161.8990  207.8980  150.2310 C   0  0  0  0  0  0  0  0  0  0  0  0
  160.9340  208.7540  152.7150 C   0  0  0  0  0  0  0  0  0  0  0  0
  161.0600  205.0330  153.1870 C   0  0  0  0  0  3  0  0  0  0  0  0
  161.7170  209.2310  150.4900 C   0  0  0  0  0  0  0  0  0  0  0  0
  161.1260  207.3650  152.4810 C   0  0  0  0  0  0  0  0  0  0  0  0
  162.1170  210.0050  149.3410 C   0  0  0  0  0  0  0  0  0  0  0  0
  162.0570  211.3040  149.2890 N   0  0  0  0  0  0  0  0  0  0  0  0
  161.8330  205.5760  150.9640 C   0  0  0  0  0  3  0  0  0  0  0  0
  161.2370  209.6880  151.7150 C   0  0  0  0  0  3  0  0  0  0  0  0
  161.4840  212.5120  147.2530 O   0  0  0  0  0  0  0  0  0  0  0  0
  162.4440  212.1270  148.1790 C   0  0  0  0  0  0  0  0  0  0  0  0
  163.6350  212.5070  148.0270 O   0  0  0  0  0  1  0  0  0  0  0  0
  161.7820  206.4090  146.8850 N   0  0  0  0  0  0  0  0  0  0  0  0
  161.4400  206.9170  148.0250 C   0  0  0  0  0  3  0  0  0  0  0  0
  159.9320  206.2690  145.4550 O   0  0  0  0  0  0  0  0  0  0  0  0
  160.8600  205.6790  146.0710 C   0  0  0  0  0  0  0  0  0  0  0  0
  160.9910  204.3020  145.9580 O   0  0  0  0  0  1  0  0  0  0  0  0
  2 22  1  6  0  0  0
  2  9  1  0  0  0  0
  3  2  1  0  0  0  0
  3 14  1  0  0  0  0
  4 11  1  0  0  0  0
  5  4  1  0  0  0  0
  7 13  1  0  0  0  0
  8  6  1  0  0  0  0
  9 12  1  0  0  0  0
  9  7  2  0  0  0  0
 10  1  1  0  0  0  0
 11  8  2  0  0  0  0
 12 17  2  0  0  0  0
 13 10  2  0  0  0  0
 13  8  1  0  0  0  0
 14 12  1  0  0  0  0
 15 14  2  0  0  0  0
 16  7  1  0  0  0  0
 16  4  2  0  0  0  0
 17 10  1  0  0  0  0
 18 19  2  0  0  0  0
 19 15  1  0  0  0  0
 20 19  1  0  0  0  0
 21 22  2  0  0  0  0
 23 24  2  0  0  0  0
 24 21  1  0  0  0  0
 25 24  1  0  0  0  0
M  END
>  <MODEL>
1

>  <REMARK>
 VINA RESULT:      -8.2      0.000      0.000
  Name = 
  3 active torsions:
  status: ('A' for Active; 'I' for Inactive)
    1  A    between atoms: N_2  and  C_12
    2  A    between atoms: C_4  and  C_7
    3  A    between atoms: C_18  and  N_22
                            x       y       z     vdW  Elec       q    Type
                         _______ _______ _______ _____ _____    ______ ____

>  <TORSDO>
F 3

$$$$
=
 OpenBabel11072415263D

 25 27  0  0  1  0  0  0  0  0999 V2000
  160.1080  204.2730  151.3990 O   0  0  0  0  0  1  0  0  0  0  0  0
  162.4800  209.1510  149.7310 C   0  0  1  0  0  3  0  0  0  0  0  0
  162.3720  209.8920  151.0800 C   0  0  0  0  0  2  0  0  0  0  0  0
  162.1820  205.7190  146.9390 C   0  0  0  0  0  0  0  0  0  0  0  0
  162.7060  205.8290  145.5540 C   0  0  0  0  0  1  0  0  0  0  0  0
  160.5170  203.2030  149.0460 O   0  0  0  0  0  1  0  0  0  0  0  0
  161.7900  206.7100  149.1150 C   0  0  0  0  0  0  0  0  0  0  0  0
  161.0950  204.4110  148.6710 C   0  0  0  0  0  0  0  0  0  0  0  0
  161.8810  207.7990  149.9950 C   0  0  0  0  0  0  0  0  0  0  0  0
  160.7050  205.4270  150.9050 C   0  0  0  0  0  0  0  0  0  0  0  0
  161.5920  204.5310  147.3700 C   0  0  0  0  0  3  0  0  0  0  0  0
  161.4200  207.6940  151.2810 C   0  0  0  0  0  0  0  0  0  0  0  0
  161.1870  205.5000  149.5690 C   0  0  0  0  0  0  0  0  0  0  0  0
  161.6750  208.9250  151.9870 C   0  0  0  0  0  0  0  0  0  0  0  0
  161.3470  209.1260  153.2300 N   0  0  0  0  0  0  0  0  0  0  0  0
  162.2820  206.8040  147.8080 C   0  0  0  0  0  3  0  0  0  0  0  0
  160.8290  206.5280  151.7630 C   0  0  0  0  0  3  0  0  0  0  0  0
  160.8180  211.4530  153.7160 O   0  0  0  0  0  0  0  0  0  0  0  0
  161.5790  210.3240  153.9850 C   0  0  0  0  0  0  0  0  0  0  0  0
  162.4570  210.3730  154.8870 O   0  0  0  0  0  1  0  0  0  0  0  0
  161.9370  211.1150  148.4240 N   0  0  0  0  0  0  0  0  0  0  0  0
  161.6830  209.8770  148.6970 C   0  0  0  0  0  3  0  0  0  0  0  0
  159.9370  211.8310  147.4370 O   0  0  0  0  0  1  0  0  0  0  0  0
  161.1970  211.8450  147.4410 C   0  0  0  0  0  0  0  0  0  0  0  0
  161.8780  212.5780  146.4790 O   0  0  0  0  0  0  0  0  0  0  0  0
  2 22  1  6  0  0  0
  2  9  1  0  0  0  0
  2  3  1  0  0  0  0
  3 14  1  0  0  0  0
  4 11  2  0  0  0  0
  4 16  1  0  0  0  0
  5  4  1  0  0  0  0
  7 13  1  0  0  0  0
  7  9  1  0  0  0  0
  8  6  1  0  0  0  0
  8 13  2  0  0  0  0
  9 12  2  0  0  0  0
 10  1  1  0  0  0  0
 10 17  2  0  0  0  0
 11  8  1  0  0  0  0
 12 17  1  0  0  0  0
 12 14  1  0  0  0  0
 13 10  1  0  0  0  0
 14 15  2  0  0  0  0
 15 19  1  0  0  0  0
 16  7  2  0  0  0  0
 18 19  2  0  0  0  0
 19 20  1  0  0  0  0
 21 22  2  0  0  0  0
 23 24  1  0  0  0  0
 24 21  1  0  0  0  0
 25 24  2  0  0  0  0
M  END
>  <MODEL>
2

>  <REMARK>
 VINA RESULT:      -7.4      2.186      4.971
  Name = 
  3 active torsions:
  status: ('A' for Active; 'I' for Inactive)
    1  A    between atoms: N_2  and  C_12
    2  A    between atoms: C_4  and  C_7
    3  A    between atoms: C_18  and  N_22
                            x       y       z     vdW  Elec       q    Type
                         _______ _______ _______ _____ _____    ______ ____

>  <TORSDO>
F 3

$$$$
=
 OpenBabel11072415263D

 25 27  0  0  1  0  0  0  0  0999 V2000
  160.1140  203.2640  152.6450 O   0  0  0  0  0  1  0  0  0  0  0  0
  162.1870  206.0790  148.1740 C   0  0  1  0  0  3  0  0  0  0  0  0
  162.3780  207.4410  148.8740 C   0  0  0  0  0  2  0  0  0  0  0  0
  161.2400  201.7580  147.8760 C   0  0  0  0  0  0  0  0  0  0  0  0
  161.4650  201.0250  146.6030 C   0  0  0  0  0  1  0  0  0  0  0  0
  159.9990  201.0430  151.2660 O   0  0  0  0  0  1  0  0  0  0  0  0
  161.3310  203.8150  149.1520 C   0  0  0  0  0  0  0  0  0  0  0  0
  160.5110  201.7620  150.1910 C   0  0  0  0  0  0  0  0  0  0  0  0
  161.6270  205.1830  149.2430 C   0  0  0  0  0  0  0  0  0  0  0  0
  160.6190  203.8710  151.5010 C   0  0  0  0  0  0  0  0  0  0  0  0
  160.7270  201.0870  148.9860 C   0  0  0  0  0  3  0  0  0  0  0  0
  161.4430  205.8580  150.4220 C   0  0  0  0  0  0  0  0  0  0  0  0
  160.8120  203.1410  150.2960 C   0  0  0  0  0  0  0  0  0  0  0  0
  161.8670  207.2270  150.2640 C   0  0  0  0  0  0  0  0  0  0  0  0
  161.8100  208.1140  151.2150 N   0  0  0  0  0  0  0  0  0  0  0  0
  161.5420  203.1160  147.9580 C   0  0  0  0  0  3  0  0  0  0  0  0
  160.9420  205.2330  151.5610 C   0  0  0  0  0  3  0  0  0  0  0  0
  162.0160  210.1750  149.9330 O   0  0  0  0  0  0  0  0  0  0  0  0
  162.2190  209.4860  151.1210 C   0  0  0  0  0  0  0  0  0  0  0  0
  162.7590  210.0790  152.0930 O   0  0  0  0  0  1  0  0  0  0  0  0
  161.4820  205.7670  145.8800 N   0  0  0  0  0  0  0  0  0  0  0  0
  161.2060  206.2250  147.0570 C   0  0  0  0  0  3  0  0  0  0  0  0
  159.3330  206.0300  144.9840 O   0  0  0  0  0  1  0  0  0  0  0  0
  160.5700  205.8860  144.7850 C   0  0  0  0  0  0  0  0  0  0  0  0
  161.0540  205.8420  143.4840 O   0  0  0  0  0  0  0  0  0  0  0  0
  2 22  1  6  0  0  0
  2  3  1  0  0  0  0
  2  9  1  0  0  0  0
  3 14  1  0  0  0  0
  4 16  2  0  0  0  0
  4 11  1  0  0  0  0
  5  4  1  0  0  0  0
  7  9  2  0  0  0  0
  7 13  1  0  0  0  0
  8 13  1  0  0  0  0
  8  6  1  0  0  0  0
  9 12  1  0  0  0  0
 10 17  1  0  0  0  0
 10  1  1  0  0  0  0
 11  8  2  0  0  0  0
 12 17  2  0  0  0  0
 13 10  2  0  0  0  0
 14 12  1  0  0  0  0
 14 15  2  0  0  0  0
 16  7  1  0  0  0  0
 18 19  2  0  0  0  0
 19 15  1  0  0  0  0
 19 20  1  0  0  0  0
 21 22  2  0  0  0  0
 24 23  1  0  0  0  0
 24 21  1  0  0  0  0
 25 24  2  0  0  0  0
M  END
>  <MODEL>
3

>  <REMARK>
 VINA RESULT:      -7.0      2.744      4.071
  Name = 
  3 active torsions:
  status: ('A' for Active; 'I' for Inactive)
    1  A    between atoms: N_2  and  C_12
    2  A    between atoms: C_4  and  C_7
    3  A    between atoms: C_18  and  N_22
                            x       y       z     vdW  Elec       q    Type
                         _______ _______ _______ _____ _____    ______ ____

>  <TORSDO>
F 3

$$$$
=
 OpenBabel11072415263D

 25 27  0  0  1  0  0  0  0  0999 V2000
  160.6390  206.2150  153.3540 O   0  0  0  0  0  1  0  0  0  0  0  0
  162.0720  206.8920  147.9040 C   0  0  1  0  0  3  0  0  0  0  0  0
  162.2850  208.4190  147.9470 C   0  0  0  0  0  2  0  0  0  0  0  0
  161.2780  202.8480  149.5410 C   0  0  0  0  0  0  0  0  0  0  0  0
  161.3870  201.6490  148.6700 C   0  0  0  0  0  1  0  0  0  0  0  0
  160.4610  203.6230  153.0440 O   0  0  0  0  0  1  0  0  0  0  0  0
  161.4280  205.2490  149.8280 C   0  0  0  0  0  0  0  0  0  0  0  0
  160.8170  203.8230  151.7150 C   0  0  0  0  0  0  0  0  0  0  0  0
  161.6750  206.5280  149.3070 C   0  0  0  0  0  0  0  0  0  0  0  0
  160.9850  206.2850  152.0090 C   0  0  0  0  0  0  0  0  0  0  0  0
  160.9230  202.7060  150.8820 C   0  0  0  0  0  3  0  0  0  0  0  0
  161.5980  207.6340  150.1130 C   0  0  0  0  0  0  0  0  0  0  0  0
  161.0700  205.1180  151.2020 C   0  0  0  0  0  0  0  0  0  0  0  0
  161.9430  208.8090  149.3520 C   0  0  0  0  0  0  0  0  0  0  0  0
  161.9580  210.0120  149.8490 N   0  0  0  0  0  0  0  0  0  0  0  0
  161.5300  204.1140  149.0160 C   0  0  0  0  0  3  0  0  0  0  0  0
  161.2560  207.5460  151.4600 C   0  0  0  0  0  3  0  0  0  0  0  0
  161.5260  212.3540  149.3400 O   0  0  0  0  0  1  0  0  0  0  0  0
  162.2960  211.2160  149.1460 C   0  0  0  0  0  0  0  0  0  0  0  0
  163.2770  211.2620  148.3560 O   0  0  0  0  0  0  0  0  0  0  0  0
  161.1770  205.7900  145.9430 N   0  0  0  0  0  0  0  0  0  0  0  0
  160.9650  206.5680  146.9540 C   0  0  0  0  0  3  0  0  0  0  0  0
  158.9560  205.8310  145.2000 O   0  0  0  0  0  1  0  0  0  0  0  0
  160.1450  205.4560  145.0120 C   0  0  0  0  0  0  0  0  0  0  0  0
  160.4570  204.7080  143.8850 O   0  0  0  0  0  0  0  0  0  0  0  0
  2 22  1  6  0  0  0
  2  3  1  0  0  0  0
  2  9  1  0  0  0  0
  3 14  1  0  0  0  0
  4 11  1  0  0  0  0
  5  4  1  0  0  0  0
  7 13  1  0  0  0  0
  8  6  1  0  0  0  0
  9  7  2  0  0  0  0
  9 12  1  0  0  0  0
 10  1  1  0  0  0  0
 11  8  2  0  0  0  0
 12 17  2  0  0  0  0
 13  8  1  0  0  0  0
 13 10  2  0  0  0  0
 14 15  2  0  0  0  0
 14 12  1  0  0  0  0
 16  4  2  0  0  0  0
 16  7  1  0  0  0  0
 17 10  1  0  0  0  0
 19 18  1  0  0  0  0
 19 15  1  0  0  0  0
 20 19  2  0  0  0  0
 21 22  2  0  0  0  0
 24 23  1  0  0  0  0
 24 21  1  0  0  0  0
 25 24  2  0  0  0  0
M  END
>  <MODEL>
4

>  <REMARK>
 VINA RESULT:      -6.7      1.665      2.205
  Name = 
  3 active torsions:
  status: ('A' for Active; 'I' for Inactive)
    1  A    between atoms: N_2  and  C_12
    2  A    between atoms: C_4  and  C_7
    3  A    between atoms: C_18  and  N_22
                            x       y       z     vdW  Elec       q    Type
                         _______ _______ _______ _____ _____    ______ ____

>  <TORSDO>
F 3

$$$$
=
 OpenBabel11072415263D

 25 27  0  0  1  0  0  0  0  0999 V2000
  161.2060  205.5600  150.0650 O   0  0  0  0  0  1  0  0  0  0  0  0
  161.4680  210.2580  153.2380 C   0  0  1  0  0  3  0  0  0  0  0  0
  161.2460  209.5810  154.6070 C   0  0  0  0  0  2  0  0  0  0  0  0
  162.1260  210.4570  148.8580 C   0  0  0  0  0  0  0  0  0  0  0  0
  162.4230  211.7550  148.2000 C   0  0  0  0  0  1  0  0  0  0  0  0
  161.7160  206.9290  147.8940 O   0  0  0  0  0  1  0  0  0  0  0  0
  161.6400  209.1870  150.8640 C   0  0  0  0  0  0  0  0  0  0  0  0
  161.7760  208.0600  148.7010 C   0  0  0  0  0  0  0  0  0  0  0  0
  161.4270  209.1280  152.2490 C   0  0  0  0  0  0  0  0  0  0  0  0
  161.2900  206.7600  150.7630 C   0  0  0  0  0  0  0  0  0  0  0  0
  162.0530  209.2900  148.0970 C   0  0  0  0  0  3  0  0  0  0  0  0
  161.1770  207.9280  152.8630 C   0  0  0  0  0  0  0  0  0  0  0  0
  161.5670  207.9860  150.0990 C   0  0  0  0  0  0  0  0  0  0  0  0
  161.0460  208.1330  154.2840 C   0  0  0  0  0  0  0  0  0  0  0  0
  160.8040  207.1750  155.1320 N   0  0  0  0  0  0  0  0  0  0  0  0
  161.9220  210.4060  150.2350 C   0  0  0  0  0  3  0  0  0  0  0  0
  161.1020  206.7340  152.1510 C   0  0  0  0  0  3  0  0  0  0  0  0
  161.6320  208.0210  157.2610 O   0  0  0  0  0  1  0  0  0  0  0  0
  160.6690  207.3150  156.5530 C   0  0  0  0  0  0  0  0  0  0  0  0
  159.6950  206.8100  157.1730 O   0  0  0  0  0  0  0  0  0  0  0  0
  159.2760  211.1860  153.6820 N   0  0  0  0  0  0  0  0  0  0  0  0
  160.3560  211.2180  152.9700 C   0  0  0  0  0  3  0  0  0  0  0  0
  158.2630  212.9840  152.5740 O   0  0  0  0  0  0  0  0  0  0  0  0
  158.1900  212.0880  153.4580 C   0  0  0  0  0  0  0  0  0  0  0  0
  157.0390  211.9750  154.2250 O   0  0  0  0  0  1  0  0  0  0  0  0
  1 10  1  0  0  0  0
  2 22  1  6  0  0  0
  2  3  1  0  0  0  0
  4 16  1  0  0  0  0
  5  4  1  0  0  0  0
  6  8  1  0  0  0  0
  7  9  1  0  0  0  0
  8 13  2  0  0  0  0
  9 12  2  0  0  0  0
  9  2  1  0  0  0  0
 10 17  2  0  0  0  0
 11  8  1  0  0  0  0
 11  4  2  0  0  0  0
 12 14  1  0  0  0  0
 13 10  1  0  0  0  0
 13  7  1  0  0  0  0
 14  3  1  0  0  0  0
 14 15  2  0  0  0  0
 15 19  1  0  0  0  0
 16  7  2  0  0  0  0
 17 12  1  0  0  0  0
 19 20  2  0  0  0  0
 19 18  1  0  0  0  0
 22 21  2  0  0  0  0
 23 24  2  0  0  0  0
 24 21  1  0  0  0  0
 24 25  1  0  0  0  0
M  END
>  <MODEL>
5

>  <REMARK>
 VINA RESULT:      -6.6      3.156      7.231
  Name = 
  3 active torsions:
  status: ('A' for Active; 'I' for Inactive)
    1  A    between atoms: N_2  and  C_12
    2  A    between atoms: C_4  and  C_7
    3  A    between atoms: C_18  and  N_22
                            x       y       z     vdW  Elec       q    Type
                         _______ _______ _______ _____ _____    ______ ____

>  <TORSDO>
F 3

$$$$
=
 OpenBabel11072415263D

 25 27  0  0  1  0  0  0  0  0999 V2000
  161.7530  205.3560  153.5390 O   0  0  0  0  0  1  0  0  0  0  0  0
  161.1620  208.6090  148.9270 C   0  0  1  0  0  3  0  0  0  0  0  0
  161.4240  207.5090  147.8780 C   0  0  0  0  0  2  0  0  0  0  0  0
  160.5050  210.2960  152.9740 C   0  0  0  0  0  0  0  0  0  0  0  0
  160.1230  211.7220  153.1420 C   0  0  0  0  0  1  0  0  0  0  0  0
  161.1570  207.3670  155.1040 O   0  0  0  0  0  1  0  0  0  0  0  0
  161.0700  208.4350  151.5300 C   0  0  0  0  0  0  0  0  0  0  0  0
  161.0180  208.1360  153.9530 C   0  0  0  0  0  0  0  0  0  0  0  0
  161.2820  207.9050  150.2490 C   0  0  0  0  0  0  0  0  0  0  0  0
  161.5840  206.2260  152.4680 C   0  0  0  0  0  0  0  0  0  0  0  0
  160.6600  209.4790  154.0940 C   0  0  0  0  0  3  0  0  0  0  0  0
  161.6110  206.5840  150.0880 C   0  0  0  0  0  0  0  0  0  0  0  0
  161.2280  207.5880  152.6660 C   0  0  0  0  0  0  0  0  0  0  0  0
  161.7230  206.2830  148.6830 C   0  0  0  0  0  0  0  0  0  0  0  0
  162.0280  205.1050  148.2190 N   0  0  0  0  0  0  0  0  0  0  0  0
  160.7080  209.7770  151.6970 C   0  0  0  0  0  3  0  0  0  0  0  0
  161.7700  205.7240  151.1720 C   0  0  0  0  0  3  0  0  0  0  0  0
  163.3920  204.8150  146.2230 O   0  0  0  0  0  1  0  0  0  0  0  0
  162.1490  204.7430  146.8360 C   0  0  0  0  0  0  0  0  0  0  0  0
  161.1520  204.3630  146.1670 O   0  0  0  0  0  0  0  0  0  0  0  0
  161.9010  210.8430  148.3580 N   0  0  0  0  0  0  0  0  0  0  0  0
  162.2070  209.6700  148.8100 C   0  0  0  0  0  3  0  0  0  0  0  0
  164.0560  211.6300  147.8830 O   0  0  0  0  0  0  0  0  0  0  0  0
  162.8720  211.8860  148.2320 C   0  0  0  0  0  0  0  0  0  0  0  0
  162.5040  213.1970  148.4980 O   0  0  0  0  0  1  0  0  0  0  0  0
  2 22  1  1  0  0  0
  2  9  1  0  0  0  0
  3 14  1  0  0  0  0
  3  2  1  0  0  0  0
  4  5  1  0  0  0  0
  4 11  1  0  0  0  0
  7 16  1  0  0  0  0
  7 13  1  0  0  0  0
  8 11  2  0  0  0  0
  8  6  1  0  0  0  0
  9  7  2  0  0  0  0
 10 13  2  0  0  0  0
 10  1  1  0  0  0  0
 12  9  1  0  0  0  0
 12 17  2  0  0  0  0
 13  8  1  0  0  0  0
 14 12  1  0  0  0  0
 15 14  2  0  0  0  0
 16  4  2  0  0  0  0
 17 10  1  0  0  0  0
 18 19  1  0  0  0  0
 19 15  1  0  0  0  0
 20 19  2  0  0  0  0
 21 22  2  0  0  0  0
 23 24  2  0  0  0  0
 24 21  1  0  0  0  0
 24 25  1  0  0  0  0
M  END
>  <MODEL>
6

>  <REMARK>
 VINA RESULT:      -6.6      1.376      5.220
  Name = 
  3 active torsions:
  status: ('A' for Active; 'I' for Inactive)
    1  A    between atoms: N_2  and  C_12
    2  A    between atoms: C_4  and  C_7
    3  A    between atoms: C_18  and  N_22
                            x       y       z     vdW  Elec       q    Type
                         _______ _______ _______ _____ _____    ______ ____

>  <TORSDO>
F 3

$$$$
=
 OpenBabel11072415263D

 25 27  0  0  1  0  0  0  0  0999 V2000
  159.8340  211.6280  154.0570 O   0  0  0  0  0  1  0  0  0  0  0  0
  162.2090  208.9940  149.6260 C   0  0  1  0  0  3  0  0  0  0  0  0
  162.3480  210.2320  148.7160 C   0  0  0  0  0  2  0  0  0  0  0  0
  161.2950  206.7650  153.3490 C   0  0  0  0  0  0  0  0  0  0  0  0
  161.6100  205.3180  153.4550 C   0  0  0  0  0  1  0  0  0  0  0  0
  159.8210  209.4080  155.4420 O   0  0  0  0  0  1  0  0  0  0  0  0
  161.2920  208.8200  152.0640 C   0  0  0  0  0  0  0  0  0  0  0  0
  160.4060  208.7940  154.3400 C   0  0  0  0  0  0  0  0  0  0  0  0
  161.5780  209.5220  150.8840 C   0  0  0  0  0  0  0  0  0  0  0  0
  160.4160  210.9020  153.0240 C   0  0  0  0  0  0  0  0  0  0  0  0
  160.7070  207.4320  154.4230 C   0  0  0  0  0  3  0  0  0  0  0  0
  161.3100  210.8630  150.7900 C   0  0  0  0  0  0  0  0  0  0  0  0
  160.6950  209.5150  153.1570 C   0  0  0  0  0  0  0  0  0  0  0  0
  161.7400  211.3510  149.5030 C   0  0  0  0  0  0  0  0  0  0  0  0
  161.6150  212.5890  149.1230 N   0  0  0  0  0  0  0  0  0  0  0  0
  161.5870  207.4560  152.1740 C   0  0  0  0  0  3  0  0  0  0  0  0
  160.7320  211.5770  151.8370 C   0  0  0  0  0  3  0  0  0  0  0  0
  161.2100  212.9690  146.7510 O   0  0  0  0  0  0  0  0  0  0  0  0
  162.0270  213.1350  147.8610 C   0  0  0  0  0  0  0  0  0  0  0  0
  163.1140  213.7600  147.7390 O   0  0  0  0  0  1  0  0  0  0  0  0
  161.8030  206.9650  148.3710 N   0  0  0  0  0  0  0  0  0  0  0  0
  161.3090  207.9950  148.9770 C   0  0  0  0  0  3  0  0  0  0  0  0
  160.4660  206.2020  146.6060 O   0  0  0  0  0  0  0  0  0  0  0  0
  160.9750  205.9850  147.7380 C   0  0  0  0  0  0  0  0  0  0  0  0
  160.7310  204.7790  148.3800 O   0  0  0  0  0  1  0  0  0  0  0  0
  2 22  1  6  0  0  0
  2  9  1  0  0  0  0
  3 14  1  0  0  0  0
  3  2  1  0  0  0  0
  4  5  1  0  0  0  0
  4 11  1  0  0  0  0
  7 16  1  0  0  0  0
  7 13  1  0  0  0  0
  8 11  2  0  0  0  0
  8  6  1  0  0  0  0
  9  7  2  0  0  0  0
 10 13  2  0  0  0  0
 10  1  1  0  0  0  0
 12  9  1  0  0  0  0
 12 17  2  0  0  0  0
 13  8  1  0  0  0  0
 14 12  1  0  0  0  0
 15 14  2  0  0  0  0
 16  4  2  0  0  0  0
 17 10  1  0  0  0  0
 18 19  2  0  0  0  0
 19 15  1  0  0  0  0
 20 19  1  0  0  0  0
 21 22  2  0  0  0  0
 23 24  2  0  0  0  0
 24 21  1  0  0  0  0
 24 25  1  0  0  0  0
M  END
>  <MODEL>
7

>  <REMARK>
 VINA RESULT:      -6.3      1.462      1.991
  Name = 
  3 active torsions:
  status: ('A' for Active; 'I' for Inactive)
    1  A    between atoms: N_2  and  C_12
    2  A    between atoms: C_4  and  C_7
    3  A    between atoms: C_18  and  N_22
                            x       y       z     vdW  Elec       q    Type
                         _______ _______ _______ _____ _____    ______ ____

>  <TORSDO>
F 3

$$$$
=
 OpenBabel11072415263D

 25 27  0  0  1  0  0  0  0  0999 V2000
  162.0360  206.6000  153.8510 O   0  0  0  0  0  1  0  0  0  0  0  0
  160.8140  205.3130  148.4600 C   0  0  1  0  0  3  0  0  0  0  0  0
  160.5560  203.8070  148.6730 C   0  0  0  0  0  2  0  0  0  0  0  0
  161.6540  209.5030  149.6430 C   0  0  0  0  0  0  0  0  0  0  0  0
  161.6160  210.5920  148.6330 C   0  0  0  0  0  1  0  0  0  0  0  0
  162.3010  209.1320  153.2460 O   0  0  0  0  0  1  0  0  0  0  0  0
  161.4230  207.1570  150.2040 C   0  0  0  0  0  0  0  0  0  0  0  0
  161.9950  208.7830  151.9350 C   0  0  0  0  0  0  0  0  0  0  0  0
  161.1620  205.8320  149.8270 C   0  0  0  0  0  0  0  0  0  0  0  0
  161.7450  206.3780  152.5090 C   0  0  0  0  0  0  0  0  0  0  0  0
  161.9570  209.7950  150.9720 C   0  0  0  0  0  3  0  0  0  0  0  0
  161.1730  204.8280  150.7600 C   0  0  0  0  0  0  0  0  0  0  0  0
  161.7270  207.4430  151.5680 C   0  0  0  0  0  0  0  0  0  0  0  0
  160.8260  203.5790  150.1280 C   0  0  0  0  0  0  0  0  0  0  0  0
  160.7560  202.4450  150.7620 N   0  0  0  0  0  0  0  0  0  0  0  0
  161.3880  208.1900  149.2590 C   0  0  0  0  0  3  0  0  0  0  0  0
  161.4610  205.0680  152.1010 C   0  0  0  0  0  3  0  0  0  0  0  0
  161.2840  200.5780  149.2890 O   0  0  0  0  0  0  0  0  0  0  0  0
  160.4140  201.1740  150.1910 C   0  0  0  0  0  0  0  0  0  0  0  0
  159.3400  200.5870  150.4910 O   0  0  0  0  0  1  0  0  0  0  0  0
  162.0710  204.7680  146.4640 N   0  0  0  0  0  0  0  0  0  0  0  0
  161.9680  205.4950  147.5300 C   0  0  0  0  0  3  0  0  0  0  0  0
  164.2060  204.2200  145.6710 O   0  0  0  0  0  1  0  0  0  0  0  0
  163.1600  204.9120  145.5480 C   0  0  0  0  0  0  0  0  0  0  0  0
  163.0620  205.8280  144.5100 O   0  0  0  0  0  0  0  0  0  0  0  0
  2 22  1  6  0  0  0
  2  3  1  0  0  0  0
  2  9  1  0  0  0  0
  3 14  1  0  0  0  0
  4 11  1  0  0  0  0
  5  4  1  0  0  0  0
  7 13  1  0  0  0  0
  8  6  1  0  0  0  0
  9  7  2  0  0  0  0
  9 12  1  0  0  0  0
 10  1  1  0  0  0  0
 11  8  2  0  0  0  0
 12 17  2  0  0  0  0
 13  8  1  0  0  0  0
 13 10  2  0  0  0  0
 14 12  1  0  0  0  0
 14 15  2  0  0  0  0
 16  4  2  0  0  0  0
 16  7  1  0  0  0  0
 17 10  1  0  0  0  0
 18 19  2  0  0  0  0
 19 20  1  0  0  0  0
 19 15  1  0  0  0  0
 21 22  2  0  0  0  0
 24 23  1  0  0  0  0
 24 21  1  0  0  0  0
 25 24  2  0  0  0  0
M  END
>  <MODEL>
8

>  <REMARK>
 VINA RESULT:      -5.8      2.807      5.892
  Name = 
  3 active torsions:
  status: ('A' for Active; 'I' for Inactive)
    1  A    between atoms: N_2  and  C_12
    2  A    between atoms: C_4  and  C_7
    3  A    between atoms: C_18  and  N_22
                            x       y       z     vdW  Elec       q    Type
                         _______ _______ _______ _____ _____    ______ ____

>  <TORSDO>
F 3

$$$$
=
 OpenBabel11072415263D

 25 27  0  0  1  0  0  0  0  0999 V2000
  161.6800  204.0800  152.6660 O   0  0  0  0  0  1  0  0  0  0  0  0
  161.1150  207.9760  148.5790 C   0  0  1  0  0  3  0  0  0  0  0  0
  161.3040  207.0270  147.3770 C   0  0  0  0  0  2  0  0  0  0  0  0
  160.6300  209.0950  152.8420 C   0  0  0  0  0  0  0  0  0  0  0  0
  160.3130  210.4960  153.2210 C   0  0  0  0  0  1  0  0  0  0  0  0
  161.2100  205.8690  154.5160 O   0  0  0  0  0  1  0  0  0  0  0  0
  161.0800  207.4370  151.1330 C   0  0  0  0  0  0  0  0  0  0  0  0
  161.0750  206.7990  153.4900 C   0  0  0  0  0  0  0  0  0  0  0  0
  161.2370  207.0870  149.7840 C   0  0  0  0  0  0  0  0  0  0  0  0
  161.5230  205.0990  151.7330 C   0  0  0  0  0  0  0  0  0  0  0  0
  160.7780  208.1220  153.8300 C   0  0  0  0  0  3  0  0  0  0  0  0
  161.5060  205.7910  149.4290 C   0  0  0  0  0  0  0  0  0  0  0  0
  161.2290  206.4320  152.1320 C   0  0  0  0  0  0  0  0  0  0  0  0
  161.5710  205.6880  147.9920 C   0  0  0  0  0  0  0  0  0  0  0  0
  161.8130  204.5780  147.3580 N   0  0  0  0  0  0  0  0  0  0  0  0
  160.7800  208.7550  151.4990 C   0  0  0  0  0  3  0  0  0  0  0  0
  161.6550  204.7800  150.3750 C   0  0  0  0  0  3  0  0  0  0  0  0
  160.7120  204.2340  145.2120 O   0  0  0  0  0  0  0  0  0  0  0  0
  161.8840  204.4120  145.9350 C   0  0  0  0  0  0  0  0  0  0  0  0
  162.9880  204.4230  145.3260 O   0  0  0  0  0  1  0  0  0  0  0  0
  161.9360  210.2360  148.2970 N   0  0  0  0  0  0  0  0  0  0  0  0
  162.2010  209.0020  148.5810 C   0  0  0  0  0  3  0  0  0  0  0  0
  162.8210  212.2950  148.9790 O   0  0  0  0  0  1  0  0  0  0  0  0
  162.9470  211.2470  148.2890 C   0  0  0  0  0  0  0  0  0  0  0  0
  164.0840  211.0720  147.5110 O   0  0  0  0  0  0  0  0  0  0  0  0
  2 22  1  1  0  0  0
  2  9  1  0  0  0  0
  3 14  1  0  0  0  0
  3  2  1  0  0  0  0
  4  5  1  0  0  0  0
  4 11  1  0  0  0  0
  7 16  1  0  0  0  0
  7 13  1  0  0  0  0
  8 11  2  0  0  0  0
  8  6  1  0  0  0  0
  9  7  2  0  0  0  0
 10 13  2  0  0  0  0
 10  1  1  0  0  0  0
 12  9  1  0  0  0  0
 12 17  2  0  0  0  0
 13  8  1  0  0  0  0
 14 12  1  0  0  0  0
 15 14  2  0  0  0  0
 16  4  2  0  0  0  0
 17 10  1  0  0  0  0
 18 19  2  0  0  0  0
 19 15  1  0  0  0  0
 20 19  1  0  0  0  0
 21 22  2  0  0  0  0
 24 21  1  0  0  0  0
 24 23  1  0  0  0  0
 25 24  2  0  0  0  0
M  END
>  <MODEL>
9

>  <REMARK>
 VINA RESULT:      -5.8      1.456      5.122
  Name = 
  3 active torsions:
  status: ('A' for Active; 'I' for Inactive)
    1  A    between atoms: N_2  and  C_12
    2  A    between atoms: C_4  and  C_7
    3  A    between atoms: C_18  and  N_22
                            x       y       z     vdW  Elec       q    Type
                         _______ _______ _______ _____ _____    ______ ____

>  <TORSDO>
F 3

$$$$
