=
 OpenBabel11072410243D

 51 57  0  0  1  0  0  0  0  0999 V2000
  160.4140  206.5490  157.2610 O   0  0  0  0  0  1  0  0  0  0  0  0
  158.6940  207.1330  155.3840 O   0  0  0  0  0  0  0  0  0  0  0  0
  161.2630  210.0620  153.7910 C   0  0  0  0  0  2  0  0  0  0  0  0
  160.3930  209.1410  156.0580 C   0  0  1  0  0  3  0  0  0  0  0  0
  160.1300  207.3580  155.8030 P   0  0  1  0  0  0  0  0  0  0  0  0
  161.2460  206.6860  154.5240 C   0  0  2  0  0  3  0  0  0  0  0  0
  161.2460  207.5840  153.2690 C   0  0  1  0  0  3  0  0  0  0  0  0
  162.0990  208.8010  153.6150 C   0  0  0  0  0  2  0  0  0  0  0  0
  160.8820  205.2290  154.2740 C   0  0  0  0  0  1  0  0  0  0  0  0
  161.6740  209.3850  156.5210 F   0  0  0  0  0  0  0  0  0  0  0  0
  160.0900  209.9150  154.7690 C   0  0  1  0  0  3  0  0  0  0  0  0
  161.7090  206.8630  151.9700 C   0  0  1  0  0  3  0  0  0  0  0  0
  161.2040  205.4220  151.9960 C   0  0  0  0  0  1  0  0  0  0  0  0
  161.1990  205.8120  148.9030 C   0  0  2  0  0  0  0  0  0  0  0  0
  159.9770  207.3010  150.3260 O   0  0  0  0  0  0  0  0  0  0  0  0
  161.5420  209.0470  150.7250 C   0  0  0  0  0  1  0  0  0  0  0  0
  161.3390  207.5330  150.6100 C   0  0  1  0  0  0  0  0  0  0  0  0
  162.9810  207.1940  147.2530 O   0  0  0  0  0  0  0  0  0  0  0  0
  162.1340  206.8920  149.4550 C   0  0  2  0  0  3  0  0  0  0  0  0
  160.8620  205.9170  147.3830 C   0  0  1  0  0  3  0  0  0  0  0  0
  162.5450  207.8950  148.3740 C   0  0  0  0  0  2  0  0  0  0  0  0
  159.9030  206.0700  149.6480 C   0  0  0  0  0  2  0  0  0  0  0  0
  161.8190  206.8110  146.5560 C   0  0  2  0  0  3  0  0  0  0  0  0
  161.8010  205.3020  146.3300 C   0  0  1  0  0  0  0  0  0  0  0  0
  163.0880  204.5700  146.7150 C   0  0  0  0  0  1  0  0  0  0  0  0
  160.9880  203.5420  144.8710 O   0  0  0  0  0  0  0  0  0  0  0  0
  159.8170  204.3230  144.9600 C   0  0  0  0  0  2  0  0  0  0  0  0
  161.1640  204.9320  144.9950 C   0  0  1  0  0  0  0  0  0  0  0  0
  161.6540  205.4770  143.8230 F   0  0  0  0  0  0  0  0  0  0  0  0
  161.6830  204.4000  149.2620 C   0  0  0  0  0  2  0  0  0  0  0  0
  160.7480  203.4190  148.9290 O   0  0  0  0  0  1  0  0  0  0  0  0
  159.4230  211.2670  155.0290 C   0  0  2  0  0  3  0  0  0  0  0  0
  160.1390  212.4660  154.3540 C   0  0  2  0  0  3  0  0  0  0  0  0
  159.2960  213.2480  153.3950 C   0  0  1  0  0  3  0  0  0  0  0  0
  160.2240  212.2830  152.9590 O   0  0  0  0  0  0  0  0  0  0  0  0
  157.8780  212.7200  153.1740 C   0  0  1  0  0  3  0  0  0  0  0  0
  156.8260  213.7050  153.6940 C   0  0  2  0  0  3  0  0  0  0  0  0
  157.3600  214.4520  154.7450 O   0  0  0  0  0  1  0  0  0  0  0  0
  155.5400  213.0250  154.1600 C   0  0  0  0  0  2  0  0  0  0  0  0
  155.7130  211.6160  154.2640 O   0  0  0  0  0  0  0  0  0  0  0  0
  155.5980  211.5710  156.6660 O   0  0  0  0  0  1  0  0  0  0  0  0
  155.1540  209.6980  155.4270 O   0  0  0  0  0  0  0  0  0  0  0  0
  155.4790  210.9160  155.4490 C   0  0  0  0  0  0  0  0  0  0  0  0
  157.6620  212.4050  151.7660 N   0  0  0  0  0  2  0  0  0  0  0  0
  157.6710  213.6630  151.0320 C   0  0  0  0  0  2  0  0  0  0  0  0
  156.7450  213.6150  149.9570 O   0  0  0  0  0  0  0  0  0  0  0  0
  157.1220  213.1290  148.7340 C   0  0  0  0  0  0  0  0  0  0  0  0
  157.4400  212.7160  147.7000 N   0  0  0  0  0  0  0  0  0  0  0  0
  159.9840  212.4360  157.2360 C   0  0  0  0  0  2  0  0  0  0  0  0
  159.1080  211.4150  156.5310 C   0  0  0  0  0  3  0  0  0  0  0  0
  158.5570  212.7900  156.8630 C   0  0  0  0  0  2  0  0  0  0  0  0
  3 11  1  0  0  0  0
  4 10  1  6  0  0  0
  5  2  2  6  0  0  0
  5  4  1  0  0  0  0
  5  1  1  0  0  0  0
  6  9  1  6  0  0  0
  6  5  1  0  0  0  0
  7 12  1  6  0  0  0
  7  8  1  0  0  0  0
  7  6  1  0  0  0  0
  8  3  1  0  0  0  0
 11 32  1  1  0  0  0
 11  4  1  0  0  0  0
 12 13  1  6  0  0  0
 14 30  1  1  0  0  0
 14 19  1  0  0  0  0
 14 22  1  0  0  0  0
 15 17  1  0  0  0  0
 17 16  1  1  0  0  0
 17 12  1  0  0  0  0
 18 21  1  0  0  0  0
 19 21  1  6  0  0  0
 19 17  1  0  0  0  0
 20 14  1  0  0  0  0
 22 15  1  0  0  0  0
 23 18  1  0  0  0  0
 23 20  1  0  0  0  0
 24 23  1  0  0  0  0
 24 25  1  0  0  0  0
 24 20  1  0  0  0  0
 26 27  1  0  0  0  0
 26 28  1  0  0  0  0
 27 28  1  0  0  0  0
 28 24  1  0  0  0  0
 29 28  1  0  0  0  0
 31 30  1  0  0  0  0
 32 50  1  0  0  0  0
 33 32  1  0  0  0  0
 34 33  1  0  0  0  0
 35 34  1  0  0  0  0
 35 33  1  0  0  0  0
 36 34  1  0  0  0  0
 36 37  1  0  0  0  0
 37 39  1  0  0  0  0
 37 38  1  0  0  0  0
 39 40  1  0  0  0  0
 40 43  1  0  0  0  0
 42 43  2  0  0  0  0
 43 41  1  0  0  0  0
 44 36  1  0  0  0  0
 45 44  1  0  0  0  0
 46 45  1  0  0  0  0
 47 46  1  0  0  0  0
 48 47  3  0  0  0  0
 50 51  1  0  0  0  0
 50 49  1  0  0  0  0
 51 49  1  0  0  0  0
M  END
>  <MODEL>
1

>  <REMARK>
 VINA RESULT:      -4.1      0.000      0.000
  Name = 
  16 active torsions:
  status: ('A' for Active; 'I' for Inactive)
    1  A    between atoms: C_1  and  C_15
    2  A    between atoms: C_2  and  C_7
    3  A    between atoms: C_4  and  O_34
    4  A    between atoms: C_8  and  C_23
    5  A    between atoms: C_11  and  O_34
    6  A    between atoms: C_11  and  N_38
    7  A    between atoms: C_15  and  C_28
    8  A    between atoms: C_15  and  C_43
    9  A    between atoms: C_18  and  C_23
   10  A    between atoms: C_18  and  C_47
   11  A    between atoms: C_19  and  C_27
   12  A    between atoms: C_21  and  C_50
   13  A    between atoms: C_23  and  N_38
   14  A    between atoms: C_27  and  C_29
   15  A    between atoms: O_35  and  C_36
   16  A    between atoms: O_35  and  C_47
                            x       y       z     vdW  Elec       q    Type
                         _______ _______ _______ _____ _____    ______ ____

>  <TORSDO>
F 16

$$$$
=
 OpenBabel11072410243D

 51 57  0  0  1  0  0  0  0  0999 V2000
  160.5790  207.0800  157.2600 O   0  0  0  0  0  1  0  0  0  0  0  0
  158.7560  206.9700  155.3940 O   0  0  0  0  0  0  0  0  0  0  0  0
  160.4280  210.2840  153.4110 C   0  0  0  0  0  2  0  0  0  0  0  0
  159.8520  209.4220  155.7920 C   0  0  1  0  0  3  0  0  0  0  0  0
  160.0790  207.6160  155.7360 P   0  0  1  0  0  0  0  0  0  0  0  0
  161.3280  207.1300  154.4960 C   0  0  2  0  0  3  0  0  0  0  0  0
  161.0780  207.8500  153.1540 C   0  0  1  0  0  3  0  0  0  0  0  0
  161.5730  209.2810  153.3390 C   0  0  0  0  0  2  0  0  0  0  0  0
  161.3700  205.6110  154.4140 C   0  0  0  0  0  1  0  0  0  0  0  0
  161.0230  210.0500  156.1810 F   0  0  0  0  0  0  0  0  0  0  0  0
  159.3450  209.9380  154.4400 C   0  0  1  0  0  3  0  0  0  0  0  0
  161.7120  207.1400  151.9220 C   0  0  1  0  0  3  0  0  0  0  0  0
  161.3900  205.6480  151.9910 C   0  0  0  0  0  1  0  0  0  0  0  0
  161.1960  205.8450  148.9510 C   0  0  2  0  0  0  0  0  0  0  0  0
  159.9860  207.4570  150.2440 O   0  0  0  0  0  0  0  0  0  0  0  0
  161.5680  209.2150  150.5020 C   0  0  0  0  0  1  0  0  0  0  0  0
  161.3500  207.6990  150.5120 C   0  0  1  0  0  0  0  0  0  0  0  0
  162.9940  207.0680  147.1970 O   0  0  0  0  0  0  0  0  0  0  0  0
  162.1400  206.9570  149.4150 C   0  0  2  0  0  3  0  0  0  0  0  0
  160.8620  205.8270  147.4270 C   0  0  1  0  0  3  0  0  0  0  0  0
  162.5630  207.8640  148.2560 C   0  0  0  0  0  2  0  0  0  0  0  0
  159.9010  206.1760  149.6690 C   0  0  0  0  0  2  0  0  0  0  0  0
  161.8300  206.6410  146.5320 C   0  0  2  0  0  3  0  0  0  0  0  0
  161.7970  205.1180  146.4310 C   0  0  1  0  0  0  0  0  0  0  0  0
  163.0760  204.4080  146.8780 C   0  0  0  0  0  1  0  0  0  0  0  0
  160.2140  205.5700  144.6490 O   0  0  0  0  0  0  0  0  0  0  0  0
  161.3820  205.4000  143.8780 C   0  0  0  0  0  2  0  0  0  0  0  0
  161.1580  204.6460  145.1290 C   0  0  1  0  0  0  0  0  0  0  0  0
  160.6850  203.3510  145.0240 F   0  0  0  0  0  0  0  0  0  0  0  0
  161.6650  204.4630  149.4270 C   0  0  0  0  0  2  0  0  0  0  0  0
  160.7250  203.4640  149.1650 O   0  0  0  0  0  1  0  0  0  0  0  0
  158.3380  211.0820  154.5790 C   0  0  2  0  0  3  0  0  0  0  0  0
  158.8920  212.3230  155.3260 C   0  0  2  0  0  3  0  0  0  0  0  0
  158.8850  213.5940  154.5330 C   0  0  1  0  0  3  0  0  0  0  0  0
  160.0490  212.8200  154.6910 O   0  0  0  0  0  0  0  0  0  0  0  0
  158.3910  213.4730  153.0900 C   0  0  1  0  0  3  0  0  0  0  0  0
  157.0310  214.1540  152.9040 C   0  0  2  0  0  3  0  0  0  0  0  0
  156.1430  213.7030  153.8810 O   0  0  0  0  0  1  0  0  0  0  0  0
  156.4240  213.9220  151.5220 C   0  0  0  0  0  2  0  0  0  0  0  0
  157.4120  214.0260  150.5030 O   0  0  0  0  0  0  0  0  0  0  0  0
  158.0690  214.4210  148.2230 O   0  0  0  0  0  0  0  0  0  0  0  0
  155.9220  213.8230  148.7460 O   0  0  0  0  0  1  0  0  0  0  0  0
  157.0900  214.0820  149.1460 C   0  0  0  0  0  0  0  0  0  0  0  0
  159.3840  214.0050  152.1630 N   0  0  0  0  0  2  0  0  0  0  0  0
  160.0890  212.8710  151.5820 C   0  0  0  0  0  2  0  0  0  0  0  0
  160.0520  212.9380  150.1640 O   0  0  0  0  0  0  0  0  0  0  0  0
  161.1600  212.6280  149.4220 C   0  0  0  0  0  0  0  0  0  0  0  0
  162.0980  212.3640  148.7970 N   0  0  0  0  0  0  0  0  0  0  0  0
  156.4590  211.2450  156.3110 C   0  0  0  0  0  2  0  0  0  0  0  0
  156.9860  210.5330  155.0760 C   0  0  0  0  0  3  0  0  0  0  0  0
  155.8740  211.5570  154.9460 C   0  0  0  0  0  2  0  0  0  0  0  0
  3 11  1  0  0  0  0
  4 10  1  6  0  0  0
  5  2  2  6  0  0  0
  5  4  1  0  0  0  0
  5  1  1  0  0  0  0
  6  9  1  6  0  0  0
  6  5  1  0  0  0  0
  7 12  1  6  0  0  0
  7  8  1  0  0  0  0
  7  6  1  0  0  0  0
  8  3  1  0  0  0  0
 11 32  1  1  0  0  0
 11  4  1  0  0  0  0
 12 13  1  6  0  0  0
 14 19  1  0  0  0  0
 14 30  1  1  0  0  0
 14 22  1  0  0  0  0
 15 17  1  0  0  0  0
 17 16  1  6  0  0  0
 17 12  1  0  0  0  0
 18 21  1  0  0  0  0
 19 21  1  6  0  0  0
 19 17  1  0  0  0  0
 20 14  1  0  0  0  0
 22 15  1  0  0  0  0
 23 18  1  0  0  0  0
 23 20  1  0  0  0  0
 24 23  1  0  0  0  0
 24 25  1  0  0  0  0
 24 20  1  0  0  0  0
 26 28  1  0  0  0  0
 27 26  1  0  0  0  0
 27 28  1  0  0  0  0
 28 24  1  0  0  0  0
 29 28  1  0  0  0  0
 31 30  1  0  0  0  0
 32 50  1  0  0  0  0
 32 33  1  0  0  0  0
 34 35  1  0  0  0  0
 34 33  1  0  0  0  0
 35 33  1  0  0  0  0
 36 34  1  0  0  0  0
 37 36  1  0  0  0  0
 37 38  1  0  0  0  0
 39 37  1  0  0  0  0
 40 39  1  0  0  0  0
 41 43  2  0  0  0  0
 42 43  1  0  0  0  0
 43 40  1  0  0  0  0
 44 36  1  0  0  0  0
 45 44  1  0  0  0  0
 46 45  1  0  0  0  0
 47 46  1  0  0  0  0
 48 47  3  0  0  0  0
 50 49  1  0  0  0  0
 51 50  1  0  0  0  0
 51 49  1  0  0  0  0
M  END
>  <MODEL>
2

>  <REMARK>
 VINA RESULT:      -3.5      1.499      2.676
  Name = 
  16 active torsions:
  status: ('A' for Active; 'I' for Inactive)
    1  A    between atoms: C_1  and  C_15
    2  A    between atoms: C_2  and  C_7
    3  A    between atoms: C_4  and  O_34
    4  A    between atoms: C_8  and  C_23
    5  A    between atoms: C_11  and  O_34
    6  A    between atoms: C_11  and  N_38
    7  A    between atoms: C_15  and  C_28
    8  A    between atoms: C_15  and  C_43
    9  A    between atoms: C_18  and  C_23
   10  A    between atoms: C_18  and  C_47
   11  A    between atoms: C_19  and  C_27
   12  A    between atoms: C_21  and  C_50
   13  A    between atoms: C_23  and  N_38
   14  A    between atoms: C_27  and  C_29
   15  A    between atoms: O_35  and  C_36
   16  A    between atoms: O_35  and  C_47
                            x       y       z     vdW  Elec       q    Type
                         _______ _______ _______ _____ _____    ______ ____

>  <TORSDO>
F 16

$$$$
=
 OpenBabel11072410243D

 51 58  0  0  1  0  0  0  0  0999 V2000
  161.0580  208.3990  157.2610 O   0  0  0  0  0  1  0  0  0  0  0  0
  159.1120  207.6940  155.6690 O   0  0  0  0  0  0  0  0  0  0  0  0
  159.1800  211.4400  153.7500 C   0  0  0  0  0  2  0  0  0  0  0  0
  159.3340  210.3650  156.1090 C   0  0  1  0  0  3  0  0  0  0  0  0
  160.1640  208.7620  155.8720 P   0  0  1  0  0  0  0  0  0  0  0  0
  161.2860  208.7870  154.4330 C   0  0  2  0  0  3  0  0  0  0  0  0
  160.5880  209.4070  153.2040 C   0  0  1  0  0  3  0  0  0  0  0  0
  160.5750  210.9150  153.4340 C   0  0  0  0  0  2  0  0  0  0  0  0
  161.8410  207.3870  154.2200 C   0  0  0  0  0  2  0  0  0  0  0  0
  160.2580  211.3590  156.3800 F   0  0  0  0  0  0  0  0  0  0  0  0
  158.4670  210.7020  154.8890 C   0  0  1  0  0  3  0  0  0  0  0  0
  161.2210  209.0030  151.8400 C   0  0  1  0  0  3  0  0  0  0  0  0
  162.5360  209.7610  151.6620 C   0  0  0  0  0  1  0  0  0  0  0  0
  161.8930  207.1520  149.2150 C   0  0  2  0  0  0  0  0  0  0  0  0
  162.8220  207.2270  151.4210 O   0  0  0  0  0  0  0  0  0  0  0  0
  160.9560  206.6870  152.7940 C   0  0  0  0  0  2  0  0  0  0  0  0
  161.4440  207.4820  151.5780 C   0  0  1  0  0  0  0  0  0  0  0  0
  159.8640  205.2420  149.0140 O   0  0  0  0  0  0  0  0  0  0  0  0
  160.7750  207.0550  150.2560 C   0  0  2  0  0  3  0  0  0  0  0  0
  162.1890  205.8480  148.4110 C   0  0  1  0  0  3  0  0  0  0  0  0
  160.1690  205.6500  150.3100 C   0  0  0  0  0  2  0  0  0  0  0  0
  163.1230  207.4230  150.0610 C   0  0  0  0  0  2  0  0  0  0  0  0
  161.0710  204.7780  148.4580 C   0  0  2  0  0  3  0  0  0  0  0  0
  161.3750  205.5050  147.1510 C   0  0  1  0  0  0  0  0  0  0  0  0
  160.2550  206.4100  146.6330 C   0  0  0  0  0  1  0  0  0  0  0  0
  161.9570  203.2410  146.5030 O   0  0  0  0  0  0  0  0  0  0  0  0
  161.2580  203.6360  145.3440 C   0  0  0  0  0  2  0  0  0  0  0  0
  162.0580  204.5940  146.1360 C   0  0  1  0  0  0  0  0  0  0  0  0
  163.3300  204.8940  145.6890 F   0  0  0  0  0  0  0  0  0  0  0  0
  161.6910  208.3460  148.2710 C   0  0  0  0  0  2  0  0  0  0  0  0
  162.8270  209.1540  148.1890 O   0  0  0  0  0  1  0  0  0  0  0  0
  157.1610  211.4060  155.2640 C   0  0  2  0  0  3  0  0  0  0  0  0
  157.3580  212.8140  155.8850 C   0  0  2  0  0  3  0  0  0  0  0  0
  157.0690  213.9580  154.9630 C   0  0  1  0  0  3  0  0  0  0  0  0
  158.3820  213.5200  155.2200 O   0  0  0  0  0  0  0  0  0  0  0  0
  156.6820  213.5770  153.5330 C   0  0  1  0  0  3  0  0  0  0  0  0
  155.1640  213.6310  153.3300 C   0  0  2  0  0  3  0  0  0  0  0  0
  154.6600  212.3350  153.2080 O   0  0  0  0  0  1  0  0  0  0  0  0
  154.7460  214.4530  152.1130 C   0  0  0  0  0  2  0  0  0  0  0  0
  155.3760  213.9740  150.9300 O   0  0  0  0  0  0  0  0  0  0  0  0
  155.8250  214.4390  148.6130 O   0  0  0  0  0  0  0  0  0  0  0  0
  153.6850  214.4450  149.4250 O   0  0  0  0  0  1  0  0  0  0  0  0
  154.9160  214.2930  149.6510 C   0  0  0  0  0  0  0  0  0  0  0  0
  157.3770  214.4250  152.5710 N   0  0  0  0  0  2  0  0  0  0  0  0
  158.0420  213.5470  151.6180 C   0  0  0  0  0  2  0  0  0  0  0  0
  158.2330  214.2140  150.3790 O   0  0  0  0  0  0  0  0  0  0  0  0
  159.4350  214.1470  149.7290 C   0  0  0  0  0  0  0  0  0  0  0  0
  160.4520  214.0870  149.1780 N   0  0  0  0  0  0  0  0  0  0  0  0
  154.8390  210.9690  156.2480 C   0  0  0  0  0  2  0  0  0  0  0  0
  156.2470  210.4380  156.0410 C   0  0  0  0  0  3  0  0  0  0  0  0
  155.1070  209.9210  155.1830 C   0  0  0  0  0  2  0  0  0  0  0  0
  3 11  1  0  0  0  0
  4 10  1  6  0  0  0
  5  2  2  6  0  0  0
  5  4  1  0  0  0  0
  5  1  1  0  0  0  0
  6  9  1  6  0  0  0
  6  5  1  0  0  0  0
  7  8  1  1  0  0  0
  7  6  1  0  0  0  0
  8  3  1  0  0  0  0
 11 32  1  1  0  0  0
 11  4  1  0  0  0  0
 12 13  1  1  0  0  0
 12  7  1  0  0  0  0
 14 30  1  6  0  0  0
 14 22  1  0  0  0  0
 14 19  1  0  0  0  0
 15 17  1  0  0  0  0
 16  9  1  0  0  0  0
 17 12  1  0  0  0  0
 17 16  1  1  0  0  0
 18 21  1  0  0  0  0
 19 21  1  1  0  0  0
 19 17  1  0  0  0  0
 20 23  1  0  0  0  0
 20 14  1  0  0  0  0
 22 15  1  0  0  0  0
 23 18  1  0  0  0  0
 24 20  1  0  0  0  0
 24 23  1  0  0  0  0
 25 24  1  0  0  0  0
 27 28  1  0  0  0  0
 27 26  1  0  0  0  0
 28 26  1  0  0  0  0
 28 24  1  0  0  0  0
 29 28  1  0  0  0  0
 31 30  1  0  0  0  0
 32 33  1  0  0  0  0
 32 50  1  0  0  0  0
 34 35  1  0  0  0  0
 34 33  1  0  0  0  0
 35 33  1  0  0  0  0
 36 34  1  0  0  0  0
 37 36  1  0  0  0  0
 38 37  1  0  0  0  0
 39 37  1  0  0  0  0
 40 39  1  0  0  0  0
 41 43  2  0  0  0  0
 42 43  1  0  0  0  0
 43 40  1  0  0  0  0
 44 36  1  0  0  0  0
 45 44  1  0  0  0  0
 46 45  1  0  0  0  0
 47 46  1  0  0  0  0
 48 47  3  0  0  0  0
 50 49  1  0  0  0  0
 51 50  1  0  0  0  0
 51 49  1  0  0  0  0
M  END
>  <MODEL>
3

>  <REMARK>
 VINA RESULT:      -3.0      1.771      3.368
  Name = 
  16 active torsions:
  status: ('A' for Active; 'I' for Inactive)
    1  A    between atoms: C_1  and  C_15
    2  A    between atoms: C_2  and  C_7
    3  A    between atoms: C_4  and  O_34
    4  A    between atoms: C_8  and  C_23
    5  A    between atoms: C_11  and  O_34
    6  A    between atoms: C_11  and  N_38
    7  A    between atoms: C_15  and  C_28
    8  A    between atoms: C_15  and  C_43
    9  A    between atoms: C_18  and  C_23
   10  A    between atoms: C_18  and  C_47
   11  A    between atoms: C_19  and  C_27
   12  A    between atoms: C_21  and  C_50
   13  A    between atoms: C_23  and  N_38
   14  A    between atoms: C_27  and  C_29
   15  A    between atoms: O_35  and  C_36
   16  A    between atoms: O_35  and  C_47
                            x       y       z     vdW  Elec       q    Type
                         _______ _______ _______ _____ _____    ______ ____

>  <TORSDO>
F 16

$$$$
=
 OpenBabel11072410243D

 51 57  0  0  1  0  0  0  0  0999 V2000
  160.4810  211.9420  150.6630 O   0  0  0  0  0  0  0  0  0  0  0  0
  162.5960  211.1180  151.9540 O   0  0  0  0  0  1  0  0  0  0  0  0
  160.6110  207.6170  153.1880 C   0  0  0  0  0  2  0  0  0  0  0  0
  160.2290  210.1690  152.8890 C   0  0  1  0  0  3  0  0  0  0  0  0
  161.2430  210.6590  151.4580 P   0  0  1  0  0  0  0  0  0  0  0  0
  161.4650  209.2800  150.2820 C   0  0  2  0  0  3  0  0  0  0  0  0
  161.8710  207.9880  151.0230 C   0  0  1  0  0  3  0  0  0  0  0  0
  160.5990  207.4510  151.6730 C   0  0  0  0  0  2  0  0  0  0  0  0
  162.4230  209.7220  149.1860 C   0  0  0  0  0  1  0  0  0  0  0  0
  158.9520  209.8180  152.4860 F   0  0  0  0  0  0  0  0  0  0  0  0
  160.9170  209.0410  153.6680 C   0  0  1  0  0  3  0  0  0  0  0  0
  162.5870  206.9370  150.1250 C   0  0  1  0  0  3  0  0  0  0  0  0
  162.6140  205.5970  150.8560 C   0  0  0  0  0  1  0  0  0  0  0  0
  161.0970  204.5140  148.4890 C   0  0  2  0  0  0  0  0  0  0  0  0
  160.6330  206.8550  148.6860 O   0  0  0  0  0  0  0  0  0  0  0  0
  162.5910  207.8550  147.7790 C   0  0  0  0  0  1  0  0  0  0  0  0
  162.0390  206.7440  148.6770 C   0  0  1  0  0  0  0  0  0  0  0  0
  162.6590  203.9580  146.2390 O   0  0  0  0  0  0  0  0  0  0  0  0
  162.3540  205.3250  148.1630 C   0  0  2  0  0  3  0  0  0  0  0  0
  160.4160  203.7990  147.2800 C   0  0  1  0  0  3  0  0  0  0  0  0
  162.6870  205.2820  146.6680 C   0  0  0  0  0  2  0  0  0  0  0  0
  160.1220  205.5740  148.9640 C   0  0  0  0  0  2  0  0  0  0  0  0
  161.3040  203.6480  146.0200 C   0  0  2  0  0  3  0  0  0  0  0  0
  160.9000  202.4120  146.8190 C   0  0  1  0  0  0  0  0  0  0  0  0
  162.0490  201.6780  147.5110 C   0  0  0  0  0  1  0  0  0  0  0  0
  159.9840  201.7220  144.6810 O   0  0  0  0  0  0  0  0  0  0  0  0
  160.3330  200.4570  145.1980 C   0  0  0  0  0  2  0  0  0  0  0  0
  159.8790  201.5580  146.0740 C   0  0  1  0  0  0  0  0  0  0  0  0
  158.5570  201.5570  146.4770 F   0  0  0  0  0  0  0  0  0  0  0  0
  161.3360  203.5320  149.6440 C   0  0  0  0  0  2  0  0  0  0  0  0
  160.1550  203.1990  150.3100 O   0  0  0  0  0  1  0  0  0  0  0  0
  160.7250  209.1600  155.1820 C   0  0  2  0  0  3  0  0  0  0  0  0
  161.7130  210.1370  155.8690 C   0  0  2  0  0  3  0  0  0  0  0  0
  161.2230  211.5470  155.9960 C   0  0  1  0  0  3  0  0  0  0  0  0
  162.1170  211.1550  154.9810 O   0  0  0  0  0  0  0  0  0  0  0  0
  159.8530  211.8320  155.3780 C   0  0  1  0  0  3  0  0  0  0  0  0
  158.8900  212.4350  156.4050 C   0  0  2  0  0  3  0  0  0  0  0  0
  159.5890  213.2880  157.2610 O   0  0  0  0  0  1  0  0  0  0  0  0
  158.1510  211.3840  157.2300 C   0  0  0  0  0  2  0  0  0  0  0  0
  156.9940  210.9150  156.5470 O   0  0  0  0  0  0  0  0  0  0  0  0
  155.4510  212.7350  156.8520 O   0  0  0  0  0  1  0  0  0  0  0  0
  155.6730  211.7040  154.8200 O   0  0  0  0  0  0  0  0  0  0  0  0
  156.0260  211.7780  156.0290 C   0  0  0  0  0  0  0  0  0  0  0  0
  159.9880  212.6910  154.2060 N   0  0  0  0  0  2  0  0  0  0  0  0
  158.7530  213.4520  154.0790 C   0  0  0  0  0  2  0  0  0  0  0  0
  158.2500  213.3620  152.7550 O   0  0  0  0  0  0  0  0  0  0  0  0
  157.0570  213.9450  152.4220 C   0  0  0  0  0  0  0  0  0  0  0  0
  156.0480  214.4380  152.1380 N   0  0  0  0  0  0  0  0  0  0  0  0
  160.1520  207.7750  157.2570 C   0  0  0  0  0  2  0  0  0  0  0  0
  160.6050  207.7560  155.8070 C   0  0  0  0  0  3  0  0  0  0  0  0
  159.1700  207.4110  156.1590 C   0  0  0  0  0  2  0  0  0  0  0  0
  3 11  1  0  0  0  0
  4 10  1  6  0  0  0
  4 11  1  0  0  0  0
  5  1  2  6  0  0  0
  5  2  1  0  0  0  0
  5  4  1  0  0  0  0
  6  9  1  6  0  0  0
  6  7  1  0  0  0  0
  6  5  1  0  0  0  0
  7 12  1  6  0  0  0
  7  8  1  0  0  0  0
  8  3  1  0  0  0  0
 11 32  1  1  0  0  0
 12 13  1  1  0  0  0
 14 22  1  0  0  0  0
 14 30  1  1  0  0  0
 15 22  1  0  0  0  0
 17 16  1  6  0  0  0
 17 15  1  0  0  0  0
 17 12  1  0  0  0  0
 18 21  1  0  0  0  0
 19 21  1  6  0  0  0
 19 14  1  0  0  0  0
 19 17  1  0  0  0  0
 20 14  1  0  0  0  0
 23 18  1  0  0  0  0
 23 24  1  0  0  0  0
 23 20  1  0  0  0  0
 24 20  1  0  0  0  0
 24 25  1  0  0  0  0
 26 27  1  0  0  0  0
 26 28  1  0  0  0  0
 27 28  1  0  0  0  0
 28 29  1  0  0  0  0
 28 24  1  0  0  0  0
 30 31  1  0  0  0  0
 32 50  1  0  0  0  0
 32 33  1  0  0  0  0
 33 34  1  0  0  0  0
 35 33  1  0  0  0  0
 35 34  1  0  0  0  0
 36 34  1  0  0  0  0
 36 37  1  0  0  0  0
 37 39  1  0  0  0  0
 37 38  1  0  0  0  0
 40 39  1  0  0  0  0
 42 43  2  0  0  0  0
 43 40  1  0  0  0  0
 43 41  1  0  0  0  0
 44 36  1  0  0  0  0
 45 44  1  0  0  0  0
 46 45  1  0  0  0  0
 47 46  1  0  0  0  0
 48 47  3  0  0  0  0
 50 51  1  0  0  0  0
 50 49  1  0  0  0  0
 51 49  1  0  0  0  0
M  END
>  <MODEL>
4

>  <REMARK>
 VINA RESULT:      -1.7      2.361      3.660
  Name = 
  16 active torsions:
  status: ('A' for Active; 'I' for Inactive)
    1  A    between atoms: C_1  and  C_15
    2  A    between atoms: C_2  and  C_7
    3  A    between atoms: C_4  and  O_34
    4  A    between atoms: C_8  and  C_23
    5  A    between atoms: C_11  and  O_34
    6  A    between atoms: C_11  and  N_38
    7  A    between atoms: C_15  and  C_28
    8  A    between atoms: C_15  and  C_43
    9  A    between atoms: C_18  and  C_23
   10  A    between atoms: C_18  and  C_47
   11  A    between atoms: C_19  and  C_27
   12  A    between atoms: C_21  and  C_50
   13  A    between atoms: C_23  and  N_38
   14  A    between atoms: C_27  and  C_29
   15  A    between atoms: O_35  and  C_36
   16  A    between atoms: O_35  and  C_47
                            x       y       z     vdW  Elec       q    Type
                         _______ _______ _______ _____ _____    ______ ____

>  <TORSDO>
F 16

$$$$
=
 OpenBabel11072410243D

 51 57  0  0  1  0  0  0  0  0999 V2000
  160.5390  204.6300  153.0770 O   0  0  0  0  0  0  0  0  0  0  0  0
  162.7060  206.0800  153.2150 O   0  0  0  0  0  1  0  0  0  0  0  0
  160.6160  209.5180  151.9780 C   0  0  0  0  0  2  0  0  0  0  0  0
  160.8260  206.9790  151.4740 C   0  0  1  0  0  3  0  0  0  0  0  0
  161.2050  206.1850  153.0690 P   0  0  1  0  0  0  0  0  0  0  0  0
  160.5230  207.1300  154.4740 C   0  0  2  0  0  3  0  0  0  0  0  0
  160.8570  208.6310  154.3380 C   0  0  1  0  0  3  0  0  0  0  0  0
  159.9040  209.1870  153.2840 C   0  0  0  0  0  2  0  0  0  0  0  0
  160.9870  206.4820  155.7700 C   0  0  0  0  0  1  0  0  0  0  0  0
  159.4580  207.0210  151.2630 F   0  0  0  0  0  0  0  0  0  0  0  0
  161.4620  208.3730  151.4080 C   0  0  1  0  0  3  0  0  0  0  0  0
  160.8080  209.4190  155.6800 C   0  0  1  0  0  3  0  0  0  0  0  0
  162.1030  209.1650  156.4500 C   0  0  0  0  0  1  0  0  0  0  0  0
  158.1600  211.3340  155.9780 C   0  0  2  0  0  0  0  0  0  0  0  0
  160.3660  211.4700  156.9000 O   0  0  0  0  0  0  0  0  0  0  0  0
  161.7340  211.6490  154.9630 C   0  0  0  0  0  1  0  0  0  0  0  0
  160.5280  210.9510  155.5990 C   0  0  1  0  0  0  0  0  0  0  0  0
  157.9390  212.8050  153.6120 O   0  0  0  0  0  0  0  0  0  0  0  0
  159.2010  211.2210  154.8610 C   0  0  2  0  0  3  0  0  0  0  0  0
  157.3400  212.6610  156.0120 C   0  0  1  0  0  3  0  0  0  0  0  0
  159.2390  212.4800  153.9900 C   0  0  0  0  0  2  0  0  0  0  0  0
  159.0070  211.3210  157.2350 C   0  0  0  0  0  2  0  0  0  0  0  0
  157.3750  213.4910  154.7050 C   0  0  2  0  0  3  0  0  0  0  0  0
  156.0770  212.8220  155.1480 C   0  0  1  0  0  0  0  0  0  0  0  0
  155.5710  211.7080  154.2290 C   0  0  0  0  0  1  0  0  0  0  0  0
  154.3400  213.3570  156.7540 O   0  0  0  0  0  0  0  0  0  0  0  0
  155.1990  214.4530  156.9750 C   0  0  0  0  0  2  0  0  0  0  0  0
  155.0500  213.8360  155.6390 C   0  0  1  0  0  0  0  0  0  0  0  0
  154.2030  214.4520  154.7370 F   0  0  0  0  0  0  0  0  0  0  0  0
  157.2300  210.1120  156.0150 C   0  0  0  0  0  2  0  0  0  0  0  0
  156.1300  210.3100  156.8520 O   0  0  0  0  0  1  0  0  0  0  0  0
  161.9860  208.7220  150.0130 C   0  0  2  0  0  3  0  0  0  0  0  0
  163.1030  207.7750  149.5020 C   0  0  2  0  0  3  0  0  0  0  0  0
  162.7010  206.8710  148.3770 C   0  0  1  0  0  3  0  0  0  0  0  0
  162.7550  206.4250  149.7110 O   0  0  0  0  0  0  0  0  0  0  0  0
  161.2380  206.9690  147.9380 C   0  0  1  0  0  3  0  0  0  0  0  0
  161.0880  206.7240  146.4330 C   0  0  2  0  0  3  0  0  0  0  0  0
  159.9210  205.9980  146.1900 O   0  0  0  0  0  1  0  0  0  0  0  0
  162.2780  205.9900  145.8190 C   0  0  0  0  0  2  0  0  0  0  0  0
  161.8650  205.1520  144.7460 O   0  0  0  0  0  0  0  0  0  0  0  0
  159.7760  203.9750  144.5460 O   0  0  0  0  0  0  0  0  0  0  0  0
  161.6140  202.9700  145.4720 O   0  0  0  0  0  1  0  0  0  0  0  0
  161.1060  203.9970  144.9440 C   0  0  0  0  0  0  0  0  0  0  0  0
  160.4090  206.0520  148.7120 N   0  0  0  0  0  2  0  0  0  0  0  0
  161.0640  204.7510  148.6940 C   0  0  0  0  0  2  0  0  0  0  0  0
  160.6130  203.9550  149.7800 O   0  0  0  0  0  0  0  0  0  0  0  0
  160.6490  202.5880  149.7030 C   0  0  0  0  0  0  0  0  0  0  0  0
  160.6810  201.4320  149.6370 N   0  0  0  0  0  0  0  0  0  0  0  0
  162.8460  210.6640  148.5850 C   0  0  0  0  0  2  0  0  0  0  0  0
  162.2770  210.2330  149.9260 C   0  0  0  0  0  3  0  0  0  0  0  0
  161.3870  210.9260  148.9110 C   0  0  0  0  0  2  0  0  0  0  0  0
  3  8  1  0  0  0  0
  4 10  1  1  0  0  0
  4  5  1  0  0  0  0
  5  1  2  1  0  0  0
  5  2  1  0  0  0  0
  5  6  1  0  0  0  0
  6  9  1  1  0  0  0
  7  6  1  0  0  0  0
  7 12  1  1  0  0  0
  8  7  1  0  0  0  0
 11 32  1  6  0  0  0
 11  4  1  0  0  0  0
 11  3  1  0  0  0  0
 12 13  1  6  0  0  0
 14 20  1  0  0  0  0
 14 30  1  6  0  0  0
 14 22  1  0  0  0  0
 15 22  1  0  0  0  0
 17 16  1  6  0  0  0
 17 12  1  0  0  0  0
 17 15  1  0  0  0  0
 18 21  1  0  0  0  0
 18 23  1  0  0  0  0
 19 21  1  1  0  0  0
 19 17  1  0  0  0  0
 19 14  1  0  0  0  0
 23 24  1  0  0  0  0
 23 20  1  0  0  0  0
 24 28  1  0  0  0  0
 24 20  1  0  0  0  0
 25 24  1  0  0  0  0
 26 27  1  0  0  0  0
 28 26  1  0  0  0  0
 28 27  1  0  0  0  0
 29 28  1  0  0  0  0
 30 31  1  0  0  0  0
 33 35  1  0  0  0  0
 33 32  1  0  0  0  0
 34 33  1  0  0  0  0
 34 35  1  0  0  0  0
 36 34  1  0  0  0  0
 36 44  1  0  0  0  0
 37 36  1  0  0  0  0
 38 37  1  0  0  0  0
 39 37  1  0  0  0  0
 40 43  1  0  0  0  0
 40 39  1  0  0  0  0
 41 43  2  0  0  0  0
 43 42  1  0  0  0  0
 45 44  1  0  0  0  0
 45 46  1  0  0  0  0
 47 46  1  0  0  0  0
 48 47  3  0  0  0  0
 49 51  1  0  0  0  0
 49 50  1  0  0  0  0
 50 32  1  0  0  0  0
 51 50  1  0  0  0  0
M  END
>  <MODEL>
5

>  <REMARK>
 VINA RESULT:      -1.4      3.070      9.721
  Name = 
  16 active torsions:
  status: ('A' for Active; 'I' for Inactive)
    1  A    between atoms: C_1  and  C_15
    2  A    between atoms: C_2  and  C_7
    3  A    between atoms: C_4  and  O_34
    4  A    between atoms: C_8  and  C_23
    5  A    between atoms: C_11  and  O_34
    6  A    between atoms: C_11  and  N_38
    7  A    between atoms: C_15  and  C_28
    8  A    between atoms: C_15  and  C_43
    9  A    between atoms: C_18  and  C_23
   10  A    between atoms: C_18  and  C_47
   11  A    between atoms: C_19  and  C_27
   12  A    between atoms: C_21  and  C_50
   13  A    between atoms: C_23  and  N_38
   14  A    between atoms: C_27  and  C_29
   15  A    between atoms: O_35  and  C_36
   16  A    between atoms: O_35  and  C_47
                            x       y       z     vdW  Elec       q    Type
                         _______ _______ _______ _____ _____    ______ ____

>  <TORSDO>
F 16

$$$$
