=
 OpenBabel11072414103D

 28 31  0  0  1  0  0  0  0  0999 V2000
  161.7840  206.4950  151.8440 C   0  0  1  0  0  3  0  0  0  0  0  0
  161.3430  205.1380  152.4110 C   0  0  0  0  0  2  0  0  0  0  0  0
  160.4340  205.7610  149.8250 C   0  0  0  0  0  2  0  0  0  0  0  0
  160.6600  204.2720  150.1380 C   0  0  2  0  0  3  0  0  0  0  0  0
  161.5920  206.6240  150.3230 C   0  0  0  0  0  2  0  0  0  0  0  0
  161.1880  202.7990  151.9580 O   0  0  0  0  0  1  0  0  0  0  0  0
  161.5270  204.0240  151.3840 C   0  0  2  0  0  3  0  0  0  0  0  0
  161.0810  207.5990  152.5650 C   0  0  0  0  0  0  0  0  0  0  0  0
  160.2370  209.4530  153.0220 C   0  0  0  0  0  0  0  0  0  0  0  0
  160.7710  208.7810  151.9860 N   0  0  0  0  0  0  0  0  0  0  0  0
  160.2210  208.7260  154.1530 N   0  0  0  0  0  0  0  0  0  0  0  0
  159.8110  210.6340  152.9360 O   0  0  0  0  0  0  0  0  0  0  0  0
  160.7760  207.5590  153.8800 N   0  0  0  0  0  2  0  0  0  0  0  0
  162.3090  210.5060  155.5950 C   0  0  1  0  0  3  0  0  0  0  0  0
  161.9750  208.5410  156.7740 C   0  0  0  0  0  2  0  0  0  0  0  0
  161.1390  211.4660  155.5260 C   0  0  0  0  0  2  0  0  0  0  0  0
  160.4540  208.3590  156.6350 C   0  0  0  0  0  2  0  0  0  0  0  0
  163.4730  210.7060  156.5380 C   0  0  0  0  0  2  0  0  0  0  0  0
  159.7900  209.1680  155.4860 C   0  0  1  0  0  3  0  0  0  0  0  0
  162.2250  210.0040  157.0220 C   0  0  1  0  0  3  0  0  0  0  0  0
  159.7850  210.7150  155.6670 C   0  0  0  0  0  2  0  0  0  0  0  0
  161.1190  202.3000  148.8650 O   0  0  0  0  0  0  0  0  0  0  0  0
  161.2200  203.5550  148.9530 C   0  0  0  0  0  0  0  0  0  0  0  0
  161.7120  204.0340  146.6680 C   0  0  0  0  0  3  0  0  0  0  0  0
  161.8630  204.3110  147.9230 N   0  0  0  0  0  0  0  0  0  0  0  0
  162.3980  204.8460  145.6190 C   0  0  0  0  0  2  0  0  0  0  0  0
  160.3080  206.1390  145.1700 C   0  0  0  0  0  1  0  0  0  0  0  0
  161.4170  205.3070  144.5510 C   0  0  0  0  0  2  0  0  0  0  0  0
  1  2  1  0  0  0  0
  1  8  1  1  0  0  0
  3  4  1  0  0  0  0
  3  5  1  0  0  0  0
  4 23  1  6  0  0  0
  4  7  1  0  0  0  0
  5  1  1  0  0  0  0
  7  6  1  1  0  0  0
  7  2  1  0  0  0  0
  8 13  1  0  0  0  0
  9 11  1  0  0  0  0
 10  8  2  0  0  0  0
 10  9  1  0  0  0  0
 12  9  2  0  0  0  0
 13 11  1  0  0  0  0
 14 16  1  1  0  0  0
 14 18  1  0  0  0  0
 14 20  1  0  0  0  0
 15 20  1  0  0  0  0
 16 21  1  0  0  0  0
 17 15  1  0  0  0  0
 19 11  1  6  0  0  0
 19 21  1  0  0  0  0
 19 17  1  0  0  0  0
 20 18  1  6  0  0  0
 22 23  2  0  0  0  0
 24 25  2  0  0  0  0
 25 23  1  0  0  0  0
 26 24  1  0  0  0  0
 28 27  1  0  0  0  0
 28 26  1  0  0  0  0
M  END
>  <MODEL>
1

>  <REMARK>
 VINA RESULT:      -8.7      0.000      0.000
  Name = 
  6 active torsions:
  status: ('A' for Active; 'I' for Inactive)
    1  A    between atoms: C_4  and  C_6
    2  A    between atoms: C_7  and  C_16
    3  A    between atoms: C_7  and  C_21
    4  A    between atoms: N_11  and  C_14
    5  A    between atoms: C_18  and  N_22
    6  A    between atoms: C_18  and  C_23
                            x       y       z     vdW  Elec       q    Type
                         _______ _______ _______ _____ _____    ______ ____

>  <TORSDO>
F 6

$$$$
=
 OpenBabel11072414103D

 28 31  0  0  1  0  0  0  0  0999 V2000
  160.4330  205.0930  150.4960 C   0  0  1  0  0  3  0  0  0  0  0  0
  161.3710  204.9500  151.7030 C   0  0  0  0  0  2  0  0  0  0  0  0
  161.8080  207.1780  150.0440 C   0  0  0  0  0  2  0  0  0  0  0  0
  162.1540  207.3460  151.5330 C   0  0  2  0  0  3  0  0  0  0  0  0
  160.4560  206.4920  149.8550 C   0  0  0  0  0  2  0  0  0  0  0  0
  162.3220  206.0910  153.5720 O   0  0  0  0  0  1  0  0  0  0  0  0
  161.5260  206.2770  152.4420 C   0  0  2  0  0  3  0  0  0  0  0  0
  160.7420  204.0370  149.4850 C   0  0  0  0  0  0  0  0  0  0  0  0
  161.1000  202.1850  148.5930 C   0  0  0  0  0  0  0  0  0  0  0  0
  160.6650  202.7140  149.7510 N   0  0  0  0  0  0  0  0  0  0  0  0
  161.4150  203.1240  147.6840 N   0  0  0  0  0  0  0  0  0  0  0  0
  161.2040  200.9460  148.3940 O   0  0  0  0  0  0  0  0  0  0  0  0
  161.2150  204.3010  148.2480 N   0  0  0  0  0  2  0  0  0  0  0  0
  161.1640  205.5880  145.8220 C   0  0  1  0  0  3  0  0  0  0  0  0
  159.9750  203.8000  144.9550 C   0  0  0  0  0  2  0  0  0  0  0  0
  162.6710  205.4440  145.8740 C   0  0  0  0  0  2  0  0  0  0  0  0
  160.9230  202.6290  145.2630 C   0  0  0  0  0  2  0  0  0  0  0  0
  160.4590  206.3910  144.7520 C   0  0  0  0  0  2  0  0  0  0  0  0
  161.9950  202.9100  146.3520 C   0  0  1  0  0  3  0  0  0  0  0  0
  160.8280  204.9500  144.4900 C   0  0  1  0  0  3  0  0  0  0  0  0
  163.0900  203.9500  145.9660 C   0  0  0  0  0  2  0  0  0  0  0  0
  162.3540  209.7290  151.4920 O   0  0  0  0  0  0  0  0  0  0  0  0
  161.8060  208.7180  152.0110 C   0  0  0  0  0  0  0  0  0  0  0  0
  161.1130  209.4730  154.1660 C   0  0  0  0  0  3  0  0  0  0  0  0
  160.8410  208.8660  153.0570 N   0  0  0  0  0  0  0  0  0  0  0  0
  160.0810  209.6100  155.2360 C   0  0  0  0  0  2  0  0  0  0  0  0
  159.7140  207.3130  156.1490 C   0  0  0  0  0  1  0  0  0  0  0  0
  160.3610  208.6640  156.3950 C   0  0  0  0  0  2  0  0  0  0  0  0
  1  8  1  6  0  0  0
  1  2  1  0  0  0  0
  2  7  1  0  0  0  0
  3  4  1  0  0  0  0
  4 23  1  1  0  0  0
  4  7  1  0  0  0  0
  5  3  1  0  0  0  0
  5  1  1  0  0  0  0
  7  6  1  1  0  0  0
  8 10  2  0  0  0  0
  9 10  1  0  0  0  0
 11 13  1  0  0  0  0
 11  9  1  0  0  0  0
 12  9  2  0  0  0  0
 13  8  1  0  0  0  0
 14 18  1  6  0  0  0
 14 16  1  0  0  0  0
 15 17  1  0  0  0  0
 16 21  1  0  0  0  0
 19 17  1  6  0  0  0
 19 11  1  0  0  0  0
 20 18  1  6  0  0  0
 20 15  1  0  0  0  0
 20 14  1  0  0  0  0
 21 19  1  0  0  0  0
 22 23  2  0  0  0  0
 23 25  1  0  0  0  0
 24 26  1  0  0  0  0
 25 24  2  0  0  0  0
 26 28  1  0  0  0  0
 27 28  1  0  0  0  0
M  END
>  <MODEL>
2

>  <REMARK>
 VINA RESULT:      -8.3      1.637      8.979
  Name = 
  6 active torsions:
  status: ('A' for Active; 'I' for Inactive)
    1  A    between atoms: C_4  and  C_6
    2  A    between atoms: C_7  and  C_16
    3  A    between atoms: C_7  and  C_21
    4  A    between atoms: N_11  and  C_14
    5  A    between atoms: C_18  and  N_22
    6  A    between atoms: C_18  and  C_23
                            x       y       z     vdW  Elec       q    Type
                         _______ _______ _______ _____ _____    ______ ____

>  <TORSDO>
F 6

$$$$
=
 OpenBabel11072414103D

 28 31  0  0  1  0  0  0  0  0999 V2000
  162.0440  206.2030  152.3470 C   0  0  1  0  0  3  0  0  0  0  0  0
  161.1320  205.0830  151.8280 C   0  0  0  0  0  2  0  0  0  0  0  0
  161.1370  207.4700  150.3440 C   0  0  0  0  0  2  0  0  0  0  0  0
  160.8790  206.1720  149.5630 C   0  0  2  0  0  3  0  0  0  0  0  0
  162.3040  207.3180  151.3190 C   0  0  0  0  0  2  0  0  0  0  0  0
  160.5030  203.8250  149.8980 O   0  0  0  0  0  1  0  0  0  0  0  0
  161.2880  204.8980  150.3210 C   0  0  2  0  0  3  0  0  0  0  0  0
  161.4850  206.7660  153.6140 C   0  0  0  0  0  0  0  0  0  0  0  0
  160.3060  207.0470  155.3130 C   0  0  0  0  0  0  0  0  0  0  0  0
  160.5280  206.1450  154.3400 N   0  0  0  0  0  0  0  0  0  0  0  0
  161.0780  208.1400  155.1880 N   0  0  0  0  0  0  0  0  0  0  0  0
  159.4590  206.8810  156.2300 O   0  0  0  0  0  0  0  0  0  0  0  0
  161.8110  207.9820  154.1000 N   0  0  0  0  0  2  0  0  0  0  0  0
  159.6400  210.5230  153.8240 C   0  0  1  0  0  3  0  0  0  0  0  0
  161.8680  211.0330  154.1960 C   0  0  0  0  0  2  0  0  0  0  0  0
  158.7670  210.3480  155.0500 C   0  0  0  0  0  2  0  0  0  0  0  0
  162.0930  210.4120  155.5850 C   0  0  0  0  0  2  0  0  0  0  0  0
  159.6360  211.7870  152.9950 C   0  0  0  0  0  2  0  0  0  0  0  0
  161.0420  209.3520  156.0170 C   0  0  1  0  0  3  0  0  0  0  0  0
  160.5150  211.6940  154.2210 C   0  0  1  0  0  3  0  0  0  0  0  0
  159.6050  209.8960  156.2780 C   0  0  0  0  0  2  0  0  0  0  0  0
  162.4410  207.0580  147.9830 O   0  0  0  0  0  0  0  0  0  0  0  0
  161.5280  206.2180  148.2180 C   0  0  0  0  0  0  0  0  0  0  0  0
  161.9260  204.4760  146.6380 C   0  0  0  0  0  3  0  0  0  0  0  0
  161.1060  205.2970  147.2090 N   0  0  0  0  0  0  0  0  0  0  0  0
  161.4500  203.5260  145.5890 C   0  0  0  0  0  2  0  0  0  0  0  0
  160.1180  201.4510  145.1850 C   0  0  0  0  0  1  0  0  0  0  0  0
  160.9010  202.2500  146.2110 C   0  0  0  0  0  2  0  0  0  0  0  0
  1  8  1  1  0  0  0
  2  1  1  0  0  0  0
  3  5  1  0  0  0  0
  4 23  1  6  0  0  0
  4  7  1  0  0  0  0
  4  3  1  0  0  0  0
  5  1  1  0  0  0  0
  7  6  1  6  0  0  0
  7  2  1  0  0  0  0
  8 13  1  0  0  0  0
  8 10  2  0  0  0  0
  9 12  2  0  0  0  0
 10  9  1  0  0  0  0
 11  9  1  0  0  0  0
 13 11  1  0  0  0  0
 14 18  1  6  0  0  0
 14 20  1  0  0  0  0
 14 16  1  0  0  0  0
 15 20  1  0  0  0  0
 15 17  1  0  0  0  0
 16 21  1  0  0  0  0
 17 19  1  0  0  0  0
 19 11  1  6  0  0  0
 19 21  1  0  0  0  0
 20 18  1  6  0  0  0
 22 23  2  0  0  0  0
 24 25  2  0  0  0  0
 25 23  1  0  0  0  0
 26 28  1  0  0  0  0
 26 24  1  0  0  0  0
 27 28  1  0  0  0  0
M  END
>  <MODEL>
3

>  <REMARK>
 VINA RESULT:      -8.1      1.978      2.852
  Name = 
  6 active torsions:
  status: ('A' for Active; 'I' for Inactive)
    1  A    between atoms: C_4  and  C_6
    2  A    between atoms: C_7  and  C_16
    3  A    between atoms: C_7  and  C_21
    4  A    between atoms: N_11  and  C_14
    5  A    between atoms: C_18  and  N_22
    6  A    between atoms: C_18  and  C_23
                            x       y       z     vdW  Elec       q    Type
                         _______ _______ _______ _____ _____    ______ ____

>  <TORSDO>
F 6

$$$$
=
 OpenBabel11072414103D

 28 31  0  0  1  0  0  0  0  0999 V2000
  160.4230  205.2960  150.4200 C   0  0  1  0  0  3  0  0  0  0  0  0
  161.2550  205.1310  151.7000 C   0  0  0  0  0  2  0  0  0  0  0  0
  161.9820  207.2560  150.0090 C   0  0  0  0  0  2  0  0  0  0  0  0
  162.2280  207.4550  151.5140 C   0  0  2  0  0  3  0  0  0  0  0  0
  160.5990  206.6640  149.7380 C   0  0  0  0  0  2  0  0  0  0  0  0
  162.1490  206.2690  153.5990 O   0  0  0  0  0  1  0  0  0  0  0  0
  161.4550  206.4700  152.4060 C   0  0  2  0  0  3  0  0  0  0  0  0
  160.7260  204.1830  149.4700 C   0  0  0  0  0  0  0  0  0  0  0  0
  161.0580  202.2800  148.6820 C   0  0  0  0  0  0  0  0  0  0  0  0
  160.6160  202.8770  149.8030 N   0  0  0  0  0  0  0  0  0  0  0  0
  161.4080  203.1640  147.7310 N   0  0  0  0  0  0  0  0  0  0  0  0
  161.1390  201.0310  148.5490 O   0  0  0  0  0  0  0  0  0  0  0  0
  161.2240  204.3730  148.2300 N   0  0  0  0  0  2  0  0  0  0  0  0
  161.2150  205.5230  145.7310 C   0  0  1  0  0  3  0  0  0  0  0  0
  160.0170  203.7030  144.9470 C   0  0  0  0  0  2  0  0  0  0  0  0
  162.7190  205.3640  145.8140 C   0  0  0  0  0  2  0  0  0  0  0  0
  160.9470  202.5390  145.3340 C   0  0  0  0  0  2  0  0  0  0  0  0
  160.5360  206.2730  144.6070 C   0  0  0  0  0  2  0  0  0  0  0  0
  162.0060  202.8690  146.4220 C   0  0  1  0  0  3  0  0  0  0  0  0
  160.8920  204.8140  144.4320 C   0  0  1  0  0  3  0  0  0  0  0  0
  163.1190  203.8730  145.9960 C   0  0  0  0  0  2  0  0  0  0  0  0
  161.5260  209.1200  153.0800 O   0  0  0  0  0  0  0  0  0  0  0  0
  161.9500  208.8660  151.9190 C   0  0  0  0  0  0  0  0  0  0  0  0
  161.3240  210.8710  150.7880 C   0  0  0  0  0  3  0  0  0  0  0  0
  162.1780  209.9180  150.9780 N   0  0  0  0  0  0  0  0  0  0  0  0
  161.5950  211.9550  149.7970 C   0  0  0  0  0  2  0  0  0  0  0  0
  163.0230  212.4540  147.8090 C   0  0  0  0  0  1  0  0  0  0  0  0
  162.2050  211.3920  148.5210 C   0  0  0  0  0  2  0  0  0  0  0  0
  1  8  1  6  0  0  0
  1  2  1  0  0  0  0
  2  7  1  0  0  0  0
  3  4  1  0  0  0  0
  4 23  1  1  0  0  0
  4  7  1  0  0  0  0
  5  3  1  0  0  0  0
  5  1  1  0  0  0  0
  7  6  1  1  0  0  0
  8 10  2  0  0  0  0
  9 10  1  0  0  0  0
 11 13  1  0  0  0  0
 11  9  1  0  0  0  0
 12  9  2  0  0  0  0
 13  8  1  0  0  0  0
 14 18  1  6  0  0  0
 14 16  1  0  0  0  0
 15 17  1  0  0  0  0
 16 21  1  0  0  0  0
 19 17  1  6  0  0  0
 19 11  1  0  0  0  0
 20 18  1  6  0  0  0
 20 15  1  0  0  0  0
 20 14  1  0  0  0  0
 21 19  1  0  0  0  0
 23 22  2  0  0  0  0
 24 25  2  0  0  0  0
 25 23  1  0  0  0  0
 26 24  1  0  0  0  0
 27 28  1  0  0  0  0
 28 26  1  0  0  0  0
M  END
>  <MODEL>
4

>  <REMARK>
 VINA RESULT:      -7.6      2.979      8.484
  Name = 
  6 active torsions:
  status: ('A' for Active; 'I' for Inactive)
    1  A    between atoms: C_4  and  C_6
    2  A    between atoms: C_7  and  C_16
    3  A    between atoms: C_7  and  C_21
    4  A    between atoms: N_11  and  C_14
    5  A    between atoms: C_18  and  N_22
    6  A    between atoms: C_18  and  C_23
                            x       y       z     vdW  Elec       q    Type
                         _______ _______ _______ _____ _____    ______ ____

>  <TORSDO>
F 6

$$$$
=
 OpenBabel11072414103D

 28 31  0  0  1  0  0  0  0  0999 V2000
  162.0160  207.5880  151.8990 C   0  0  1  0  0  3  0  0  0  0  0  0
  161.2950  206.4770  152.6740 C   0  0  0  0  0  2  0  0  0  0  0  0
  160.6860  206.6800  149.9370 C   0  0  0  0  0  2  0  0  0  0  0  0
  160.6110  205.2760  150.5600 C   0  0  2  0  0  3  0  0  0  0  0  0
  161.9500  207.4210  150.3710 C   0  0  0  0  0  2  0  0  0  0  0  0
  160.7370  204.1550  152.6780 O   0  0  0  0  0  1  0  0  0  0  0  0
  161.3350  205.1550  151.9110 C   0  0  2  0  0  3  0  0  0  0  0  0
  161.4850  208.9220  152.3130 C   0  0  0  0  0  0  0  0  0  0  0  0
  160.7550  210.8760  152.2510 C   0  0  0  0  0  0  0  0  0  0  0  0
  161.0480  209.8500  151.4320 N   0  0  0  0  0  0  0  0  0  0  0  0
  160.9950  210.5890  153.5420 N   0  0  0  0  0  0  0  0  0  0  0  0
  160.3130  211.9820  151.8430 O   0  0  0  0  0  0  0  0  0  0  0  0
  161.4810  209.3620  153.5890 N   0  0  0  0  0  2  0  0  0  0  0  0
  158.3810  210.1770  155.1550 C   0  0  1  0  0  3  0  0  0  0  0  0
  158.4270  212.2970  154.2240 C   0  0  0  0  0  2  0  0  0  0  0  0
  159.4090  209.8820  156.2290 C   0  0  0  0  0  2  0  0  0  0  0  0
  159.9030  212.6830  154.4220 C   0  0  0  0  0  2  0  0  0  0  0  0
  156.9400  210.5040  155.4750 C   0  0  0  0  0  2  0  0  0  0  0  0
  160.8690  211.4960  154.6910 C   0  0  1  0  0  3  0  0  0  0  0  0
  157.9790  211.6010  155.4820 C   0  0  1  0  0  3  0  0  0  0  0  0
  160.6760  210.7650  156.0530 C   0  0  0  0  0  2  0  0  0  0  0  0
  161.1490  203.0270  149.9490 O   0  0  0  0  0  0  0  0  0  0  0  0
  161.1030  204.2400  149.6020 C   0  0  0  0  0  0  0  0  0  0  0  0
  161.5850  203.8070  147.3060 C   0  0  0  0  0  3  0  0  0  0  0  0
  161.5120  204.6410  148.2920 N   0  0  0  0  0  0  0  0  0  0  0  0
  162.0150  204.2630  145.9500 C   0  0  0  0  0  2  0  0  0  0  0  0
  160.4280  206.0540  145.2320 C   0  0  0  0  0  1  0  0  0  0  0  0
  161.8120  205.7620  145.7840 C   0  0  0  0  0  2  0  0  0  0  0  0
  1  8  1  6  0  0  0
  1  2  1  0  0  0  0
  3  5  1  0  0  0  0
  3  4  1  0  0  0  0
  4 23  1  6  0  0  0
  4  7  1  0  0  0  0
  5  1  1  0  0  0  0
  7  2  1  0  0  0  0
  7  6  1  1  0  0  0
  8 13  1  0  0  0  0
  9 11  1  0  0  0  0
 10  9  1  0  0  0  0
 10  8  2  0  0  0  0
 11 13  1  0  0  0  0
 12  9  2  0  0  0  0
 14 18  1  1  0  0  0
 14 20  1  0  0  0  0
 14 16  1  0  0  0  0
 15 17  1  0  0  0  0
 17 19  1  0  0  0  0
 18 20  1  0  0  0  0
 19 11  1  6  0  0  0
 19 21  1  0  0  0  0
 20 15  1  6  0  0  0
 21 16  1  0  0  0  0
 23 22  2  0  0  0  0
 24 25  2  0  0  0  0
 25 23  1  0  0  0  0
 26 24  1  0  0  0  0
 27 28  1  0  0  0  0
 28 26  1  0  0  0  0
M  END
>  <MODEL>
5

>  <REMARK>
 VINA RESULT:      -7.2      1.428      2.590
  Name = 
  6 active torsions:
  status: ('A' for Active; 'I' for Inactive)
    1  A    between atoms: C_4  and  C_6
    2  A    between atoms: C_7  and  C_16
    3  A    between atoms: C_7  and  C_21
    4  A    between atoms: N_11  and  C_14
    5  A    between atoms: C_18  and  N_22
    6  A    between atoms: C_18  and  C_23
                            x       y       z     vdW  Elec       q    Type
                         _______ _______ _______ _____ _____    ______ ____

>  <TORSDO>
F 6

$$$$
=
 OpenBabel11072414103D

 28 31  0  0  1  0  0  0  0  0999 V2000
  160.4610  208.5760  152.6130 C   0  0  1  0  0  3  0  0  0  0  0  0
  161.4030  208.6730  151.4050 C   0  0  0  0  0  2  0  0  0  0  0  0
  161.7950  206.4750  153.1130 C   0  0  0  0  0  2  0  0  0  0  0  0
  162.1380  206.2670  151.6290 C   0  0  2  0  0  3  0  0  0  0  0  0
  160.4560  207.1920  153.2860 C   0  0  0  0  0  2  0  0  0  0  0  0
  162.3330  207.4720  149.5630 O   0  0  0  0  0  1  0  0  0  0  0  0
  161.5320  207.3270  150.6950 C   0  0  2  0  0  3  0  0  0  0  0  0
  160.7910  209.6480  153.6010 C   0  0  0  0  0  0  0  0  0  0  0  0
  161.6840  210.7010  155.1660 C   0  0  0  0  0  0  0  0  0  0  0  0
  161.8470  209.5780  154.4420 N   0  0  0  0  0  0  0  0  0  0  0  0
  160.6040  211.4050  154.7860 N   0  0  0  0  0  0  0  0  0  0  0  0
  162.4580  211.0410  156.0980 O   0  0  0  0  0  0  0  0  0  0  0  0
  160.0180  210.7340  153.8120 N   0  0  0  0  0  2  0  0  0  0  0  0
  157.6840  211.1270  155.7840 C   0  0  1  0  0  3  0  0  0  0  0  0
  157.8140  212.7220  154.1100 C   0  0  0  0  0  2  0  0  0  0  0  0
  158.3830  211.4500  157.0880 C   0  0  0  0  0  2  0  0  0  0  0  0
  159.1340  213.4270  154.4660 C   0  0  0  0  0  2  0  0  0  0  0  0
  156.1890  211.2680  155.6050 C   0  0  0  0  0  2  0  0  0  0  0  0
  160.0800  212.6290  155.4060 C   0  0  1  0  0  3  0  0  0  0  0  0
  157.0870  212.4670  155.4040 C   0  0  1  0  0  3  0  0  0  0  0  0
  159.5680  212.4290  156.8640 C   0  0  0  0  0  2  0  0  0  0  0  0
  161.6170  203.9660  152.0270 O   0  0  0  0  0  0  0  0  0  0  0  0
  161.7630  204.8910  151.1810 C   0  0  0  0  0  0  0  0  0  0  0  0
  161.2630  203.4720  149.3290 C   0  0  0  0  0  3  0  0  0  0  0  0
  161.5660  204.6440  149.7860 N   0  0  0  0  0  0  0  0  0  0  0  0
  161.0630  203.2510  147.8660 C   0  0  0  0  0  2  0  0  0  0  0  0
  161.1990  200.9200  148.7580 C   0  0  0  0  0  1  0  0  0  0  0  0
  160.8330  201.7780  147.5600 C   0  0  0  0  0  2  0  0  0  0  0  0
  1  5  1  0  0  0  0
  1  8  1  1  0  0  0
  2  1  1  0  0  0  0
  3  5  1  0  0  0  0
  4 23  1  6  0  0  0
  4  3  1  0  0  0  0
  7  6  1  6  0  0  0
  7  2  1  0  0  0  0
  7  4  1  0  0  0  0
  8 13  1  0  0  0  0
  8 10  2  0  0  0  0
  9 12  2  0  0  0  0
 10  9  1  0  0  0  0
 11  9  1  0  0  0  0
 11 19  1  0  0  0  0
 13 11  1  0  0  0  0
 14 18  1  1  0  0  0
 14 16  1  0  0  0  0
 15 17  1  0  0  0  0
 19 17  1  6  0  0  0
 19 21  1  0  0  0  0
 20 15  1  6  0  0  0
 20 18  1  0  0  0  0
 20 14  1  0  0  0  0
 21 16  1  0  0  0  0
 23 22  2  0  0  0  0
 24 25  2  0  0  0  0
 25 23  1  0  0  0  0
 26 24  1  0  0  0  0
 28 26  1  0  0  0  0
 28 27  1  0  0  0  0
M  END
>  <MODEL>
6

>  <REMARK>
 VINA RESULT:      -7.0      2.295      4.073
  Name = 
  6 active torsions:
  status: ('A' for Active; 'I' for Inactive)
    1  A    between atoms: C_4  and  C_6
    2  A    between atoms: C_7  and  C_16
    3  A    between atoms: C_7  and  C_21
    4  A    between atoms: N_11  and  C_14
    5  A    between atoms: C_18  and  N_22
    6  A    between atoms: C_18  and  C_23
                            x       y       z     vdW  Elec       q    Type
                         _______ _______ _______ _____ _____    ______ ____

>  <TORSDO>
F 6

$$$$
=
 OpenBabel11072414103D

 28 31  0  0  1  0  0  0  0  0999 V2000
  161.6230  210.1130  154.5770 C   0  0  1  0  0  3  0  0  0  0  0  0
  160.8390  208.8390  154.9200 C   0  0  0  0  0  2  0  0  0  0  0  0
  160.9110  209.5610  152.2050 C   0  0  0  0  0  2  0  0  0  0  0  0
  160.8150  208.0590  152.5180 C   0  0  2  0  0  3  0  0  0  0  0  0
  161.9540  210.2530  153.0810 C   0  0  0  0  0  2  0  0  0  0  0  0
  160.5150  206.5420  154.3540 O   0  0  0  0  0  1  0  0  0  0  0  0
  161.1890  207.7000  153.9660 C   0  0  2  0  0  3  0  0  0  0  0  0
  160.8850  211.3130  155.0750 C   0  0  0  0  0  0  0  0  0  0  0  0
  160.2060  212.8610  156.2990 C   0  0  0  0  0  0  0  0  0  0  0  0
  161.1530  211.9060  156.2600 N   0  0  0  0  0  0  0  0  0  0  0  0
  159.4200  212.8510  155.2090 N   0  0  0  0  0  0  0  0  0  0  0  0
  160.0740  213.6660  157.2580 O   0  0  0  0  0  0  0  0  0  0  0  0
  159.8270  211.8580  154.4390 N   0  0  0  0  0  2  0  0  0  0  0  0
  156.7360  211.4300  155.8210 C   0  0  1  0  0  3  0  0  0  0  0  0
  156.8740  211.9520  153.5690 C   0  0  0  0  0  2  0  0  0  0  0  0
  156.6490  212.5940  156.7860 C   0  0  0  0  0  2  0  0  0  0  0  0
  157.5260  213.3440  153.6210 C   0  0  0  0  0  2  0  0  0  0  0  0
  155.5260  210.6190  155.4120 C   0  0  0  0  0  2  0  0  0  0  0  0
  158.2430  213.6930  154.9550 C   0  0  1  0  0  3  0  0  0  0  0  0
  155.8580  211.8980  154.6780 C   0  0  1  0  0  3  0  0  0  0  0  0
  157.3140  213.8670  156.1930 C   0  0  0  0  0  2  0  0  0  0  0  0
  162.7060  207.7180  151.0930 O   0  0  0  0  0  0  0  0  0  0  0  0
  161.6230  207.2570  151.5500 C   0  0  0  0  0  0  0  0  0  0  0  0
  161.6490  204.8740  151.6450 C   0  0  0  0  0  3  0  0  0  0  0  0
  161.1550  205.9650  151.1560 N   0  0  0  0  0  0  0  0  0  0  0  0
  161.1350  203.5400  151.2110 C   0  0  0  0  0  2  0  0  0  0  0  0
  160.5890  202.1100  149.2370 C   0  0  0  0  0  1  0  0  0  0  0  0
  160.8240  203.5290  149.7220 C   0  0  0  0  0  2  0  0  0  0  0  0
  1  2  1  0  0  0  0
  1  8  1  6  0  0  0
  3  4  1  0  0  0  0
  3  5  1  0  0  0  0
  4 23  1  6  0  0  0
  4  7  1  0  0  0  0
  5  1  1  0  0  0  0
  7  6  1  1  0  0  0
  7  2  1  0  0  0  0
  8 10  2  0  0  0  0
  9 12  2  0  0  0  0
 10  9  1  0  0  0  0
 11  9  1  0  0  0  0
 13  8  1  0  0  0  0
 13 11  1  0  0  0  0
 14 18  1  1  0  0  0
 14 16  1  0  0  0  0
 15 17  1  0  0  0  0
 19 17  1  6  0  0  0
 19 11  1  0  0  0  0
 19 21  1  0  0  0  0
 20 15  1  6  0  0  0
 20 18  1  0  0  0  0
 20 14  1  0  0  0  0
 21 16  1  0  0  0  0
 22 23  2  0  0  0  0
 25 23  1  0  0  0  0
 25 24  2  0  0  0  0
 26 24  1  0  0  0  0
 27 28  1  0  0  0  0
 28 26  1  0  0  0  0
M  END
>  <MODEL>
7

>  <REMARK>
 VINA RESULT:      -6.9      3.040      5.254
  Name = 
  6 active torsions:
  status: ('A' for Active; 'I' for Inactive)
    1  A    between atoms: C_4  and  C_6
    2  A    between atoms: C_7  and  C_16
    3  A    between atoms: C_7  and  C_21
    4  A    between atoms: N_11  and  C_14
    5  A    between atoms: C_18  and  N_22
    6  A    between atoms: C_18  and  C_23
                            x       y       z     vdW  Elec       q    Type
                         _______ _______ _______ _____ _____    ______ ____

>  <TORSDO>
F 6

$$$$
=
 OpenBabel11072414103D

 28 31  0  0  1  0  0  0  0  0999 V2000
  161.5830  209.4560  154.5490 C   0  0  1  0  0  3  0  0  0  0  0  0
  160.9340  208.0750  154.7160 C   0  0  0  0  0  2  0  0  0  0  0  0
  160.7780  209.2220  152.1540 C   0  0  0  0  0  2  0  0  0  0  0  0
  160.8310  207.6860  152.2220 C   0  0  2  0  0  3  0  0  0  0  0  0
  161.8090  209.8620  153.0820 C   0  0  0  0  0  2  0  0  0  0  0  0
  160.7760  205.8770  153.7980 O   0  0  0  0  0  1  0  0  0  0  0  0
  161.3220  207.1400  153.5730 C   0  0  2  0  0  3  0  0  0  0  0  0
  160.7760  210.4870  155.2700 C   0  0  0  0  0  0  0  0  0  0  0  0
  160.2370  212.0880  156.4950 C   0  0  0  0  0  0  0  0  0  0  0  0
  161.3300  211.4890  155.9880 N   0  0  0  0  0  0  0  0  0  0  0  0
  159.0970  211.4900  156.1080 N   0  0  0  0  0  0  0  0  0  0  0  0
  160.2860  213.0900  157.2550 O   0  0  0  0  0  0  0  0  0  0  0  0
  159.4290  210.4600  155.3510 N   0  0  0  0  0  2  0  0  0  0  0  0
  157.3550  212.6850  153.8400 C   0  0  1  0  0  3  0  0  0  0  0  0
  157.6420  214.2350  155.5360 C   0  0  0  0  0  2  0  0  0  0  0  0
  156.5470  211.4490  154.1770 C   0  0  0  0  0  2  0  0  0  0  0  0
  157.5280  213.3430  156.7840 C   0  0  0  0  0  2  0  0  0  0  0  0
  156.7790  213.8500  153.0670 C   0  0  0  0  0  2  0  0  0  0  0  0
  157.7310  211.8230  156.5340 C   0  0  1  0  0  3  0  0  0  0  0  0
  156.5890  213.7730  154.5640 C   0  0  1  0  0  3  0  0  0  0  0  0
  156.6200  211.1240  155.6940 C   0  0  0  0  0  2  0  0  0  0  0  0
  162.5520  207.8260  150.5670 O   0  0  0  0  0  0  0  0  0  0  0  0
  161.6450  207.1290  151.0990 C   0  0  0  0  0  0  0  0  0  0  0  0
  161.1040  205.5320  149.4110 C   0  0  0  0  0  3  0  0  0  0  0  0
  161.3840  205.7980  150.6460 N   0  0  0  0  0  0  0  0  0  0  0  0
  160.8390  204.1300  148.9730 C   0  0  0  0  0  2  0  0  0  0  0  0
  160.6970  201.7400  149.6870 C   0  0  0  0  0  1  0  0  0  0  0  0
  160.8220  203.1770  150.1590 C   0  0  0  0  0  2  0  0  0  0  0  0
  1  2  1  0  0  0  0
  1  8  1  6  0  0  0
  3  4  1  0  0  0  0
  3  5  1  0  0  0  0
  4 23  1  6  0  0  0
  4  7  1  0  0  0  0
  5  1  1  0  0  0  0
  7  6  1  1  0  0  0
  7  2  1  0  0  0  0
  8 13  1  0  0  0  0
  8 10  2  0  0  0  0
  9 12  2  0  0  0  0
 10  9  1  0  0  0  0
 11  9  1  0  0  0  0
 11 19  1  0  0  0  0
 13 11  1  0  0  0  0
 14 18  1  6  0  0  0
 14 16  1  0  0  0  0
 14 20  1  0  0  0  0
 15 17  1  0  0  0  0
 16 21  1  0  0  0  0
 19 21  1  6  0  0  0
 19 17  1  0  0  0  0
 20 18  1  6  0  0  0
 20 15  1  0  0  0  0
 22 23  2  0  0  0  0
 24 25  2  0  0  0  0
 25 23  1  0  0  0  0
 26 24  1  0  0  0  0
 26 28  1  0  0  0  0
 27 28  1  0  0  0  0
M  END
>  <MODEL>
8

>  <REMARK>
 VINA RESULT:      -6.8      2.927      4.870
  Name = 
  6 active torsions:
  status: ('A' for Active; 'I' for Inactive)
    1  A    between atoms: C_4  and  C_6
    2  A    between atoms: C_7  and  C_16
    3  A    between atoms: C_7  and  C_21
    4  A    between atoms: N_11  and  C_14
    5  A    between atoms: C_18  and  N_22
    6  A    between atoms: C_18  and  C_23
                            x       y       z     vdW  Elec       q    Type
                         _______ _______ _______ _____ _____    ______ ____

>  <TORSDO>
F 6

$$$$
=
 OpenBabel11072414103D

 28 31  0  0  1  0  0  0  0  0999 V2000
  160.6390  209.2800  152.3860 C   0  0  1  0  0  3  0  0  0  0  0  0
  161.5190  209.7940  151.2380 C   0  0  0  0  0  2  0  0  0  0  0  0
  161.9570  207.1380  152.0480 C   0  0  0  0  0  2  0  0  0  0  0  0
  162.2200  207.4610  150.5680 C   0  0  2  0  0  3  0  0  0  0  0  0
  160.6430  207.7480  152.5330 C   0  0  0  0  0  2  0  0  0  0  0  0
  162.3310  209.3130  149.0440 O   0  0  0  0  0  1  0  0  0  0  0  0
  161.5870  208.7810  150.0980 C   0  0  2  0  0  3  0  0  0  0  0  0
  161.0380  209.9400  153.6660 C   0  0  0  0  0  0  0  0  0  0  0  0
  162.1840  210.6980  155.2370 C   0  0  0  0  0  0  0  0  0  0  0  0
  162.3250  210.1800  154.0030 N   0  0  0  0  0  0  0  0  0  0  0  0
  160.8980  210.7700  155.6210 N   0  0  0  0  0  0  0  0  0  0  0  0
  163.1550  211.0640  155.9490 O   0  0  0  0  0  0  0  0  0  0  0  0
  160.1660  210.2690  154.6420 N   0  0  0  0  0  2  0  0  0  0  0  0
  158.3440  212.5150  155.4240 C   0  0  1  0  0  3  0  0  0  0  0  0
  160.0810  213.7320  156.3530 C   0  0  0  0  0  2  0  0  0  0  0  0
  157.8140  211.3530  156.2390 C   0  0  0  0  0  2  0  0  0  0  0  0
  160.7390  212.6770  157.2600 C   0  0  0  0  0  2  0  0  0  0  0  0
  157.6370  213.8490  155.3520 C   0  0  0  0  0  2  0  0  0  0  0  0
  160.3840  211.2010  156.9270 C   0  0  1  0  0  3  0  0  0  0  0  0
  158.5910  213.5640  156.4880 C   0  0  1  0  0  3  0  0  0  0  0  0
  158.9050  210.7890  157.1910 C   0  0  0  0  0  2  0  0  0  0  0  0
  161.8270  206.4550  148.4340 O   0  0  0  0  0  0  0  0  0  0  0  0
  161.7970  206.3290  149.6900 C   0  0  0  0  0  0  0  0  0  0  0  0
  161.1230  204.0420  149.5950 C   0  0  0  0  0  3  0  0  0  0  0  0
  161.3680  205.1050  150.2910 N   0  0  0  0  0  0  0  0  0  0  0  0
  160.6780  202.7810  150.2570 C   0  0  0  0  0  2  0  0  0  0  0  0
  161.2070  200.9550  148.6360 C   0  0  0  0  0  1  0  0  0  0  0  0
  160.1040  201.8010  149.2440 C   0  0  0  0  0  2  0  0  0  0  0  0
  1  5  1  0  0  0  0
  1  8  1  1  0  0  0
  2  1  1  0  0  0  0
  3  5  1  0  0  0  0
  4 23  1  6  0  0  0
  4  3  1  0  0  0  0
  7  6  1  6  0  0  0
  7  4  1  0  0  0  0
  7  2  1  0  0  0  0
  8 10  2  0  0  0  0
  8 13  1  0  0  0  0
  9 11  1  0  0  0  0
  9 12  2  0  0  0  0
 10  9  1  0  0  0  0
 13 11  1  0  0  0  0
 14 18  1  6  0  0  0
 14 16  1  0  0  0  0
 14 20  1  0  0  0  0
 15 20  1  0  0  0  0
 15 17  1  0  0  0  0
 16 21  1  0  0  0  0
 19 11  1  6  0  0  0
 19 21  1  0  0  0  0
 19 17  1  0  0  0  0
 20 18  1  6  0  0  0
 22 23  2  0  0  0  0
 23 25  1  0  0  0  0
 24 26  1  0  0  0  0
 24 25  2  0  0  0  0
 27 28  1  0  0  0  0
 28 26  1  0  0  0  0
M  END
>  <MODEL>
9

>  <REMARK>
 VINA RESULT:      -6.7      2.753      4.258
  Name = 
  6 active torsions:
  status: ('A' for Active; 'I' for Inactive)
    1  A    between atoms: C_4  and  C_6
    2  A    between atoms: C_7  and  C_16
    3  A    between atoms: C_7  and  C_21
    4  A    between atoms: N_11  and  C_14
    5  A    between atoms: C_18  and  N_22
    6  A    between atoms: C_18  and  C_23
                            x       y       z     vdW  Elec       q    Type
                         _______ _______ _______ _____ _____    ______ ____

>  <TORSDO>
F 6

$$$$
