=
 OpenBabel11072410593D

 42 48  0  0  1  0  0  0  0  0999 V2000
  161.4910  208.5060  149.5030 C   0  0  1  0  0  3  0  0  0  0  0  0
  162.1740  205.8170  148.5780 C   0  0  1  0  0  3  0  0  0  0  0  0
  161.2670  206.8170  147.8840 C   0  0  1  0  0  3  0  0  0  0  0  0
  162.2650  206.0540  150.0730 C   0  0  1  0  0  3  0  0  0  0  0  0
  160.0850  206.3440  148.7230 C   0  0  0  0  0  2  0  0  0  0  0  0
  161.6970  208.1460  148.1490 O   0  0  0  0  0  0  0  0  0  0  0  0
  162.2090  207.5500  150.4750 C   0  0  2  0  0  3  0  0  0  0  0  0
  161.0110  205.4010  149.4780 C   0  0  1  0  0  3  0  0  0  0  0  0
  160.7440  208.0890  154.4930 C   0  0  0  0  0  0  0  0  0  0  0  0
  161.0310  209.2010  153.6880 C   0  0  0  0  0  0  0  0  0  0  0  0
  161.7130  207.7180  151.8810 C   0  0  0  0  0  0  0  0  0  0  0  0
  161.4170  206.6150  152.6820 C   0  0  0  0  0  3  0  0  0  0  0  0
  161.5000  209.0040  152.3790 C   0  0  0  0  0  3  0  0  0  0  0  0
  160.9400  206.7990  153.9810 C   0  0  0  0  0  3  0  0  0  0  0  0
  159.9130  207.2040  156.5870 N   0  0  0  0  0  1  0  0  0  0  0  0
  160.2630  208.2720  155.7930 O   0  0  0  0  0  0  0  0  0  0  0  0
  160.7150  210.5820  154.1840 C   0  0  0  0  0  2  0  0  0  0  0  0
  157.1860  210.7830  155.5050 O   0  0  0  0  0  0  0  0  0  0  0  0
  158.6480  212.9610  154.6540 C   0  0  1  0  0  0  0  0  0  0  0  0
  157.3200  213.5380  154.2210 C   0  0  0  0  0  2  0  0  0  0  0  0
  158.5610  211.3730  155.3840 S   0  0  0  0  0  0  0  0  0  0  0  0
  159.3480  212.3600  153.4390 C   0  0  1  0  0  3  0  0  0  0  0  0
  159.3360  210.9550  153.8920 N   0  0  0  0  0  0  0  0  0  0  0  0
  159.4170  211.1820  156.6060 O   0  0  0  0  0  0  0  0  0  0  0  0
  159.4560  213.8490  155.3610 O   0  0  0  0  0  1  0  0  0  0  0  0
  158.3870  212.5350  152.2760 C   0  0  0  0  0  2  0  0  0  0  0  0
  157.3700  213.5770  152.7030 C   0  0  0  0  0  2  0  0  0  0  0  0
  161.9660  209.9340  149.7400 C   0  0  0  0  0  2  0  0  0  0  0  0
  161.8530  210.7740  148.4750 C   0  0  0  0  0  2  0  0  0  0  0  0
  161.8460  212.2670  148.7900 C   0  0  2  0  0  3  0  0  0  0  0  0
  160.9740  212.5930  149.9820 C   0  0  0  0  0  2  0  0  0  0  0  0
  162.5270  213.5000  146.7370 C   0  0  0  0  0  1  0  0  0  0  0  0
  161.3670  213.1840  147.6640 C   0  0  2  0  0  0  0  0  0  0  0  0
  160.5860  214.0480  149.8160 C   0  0  0  0  0  2  0  0  0  0  0  0
  160.9610  214.4520  148.3990 C   0  0  0  0  0  2  0  0  0  0  0  0
  160.1590  212.6030  146.8870 C   0  0  2  0  0  3  0  0  0  0  0  0
  160.5240  212.1590  145.6100 O   0  0  0  0  0  1  0  0  0  0  0  0
  158.7650  214.1880  145.4560 C   0  0  0  0  0  1  0  0  0  0  0  0
  158.9370  213.5300  146.8190 C   0  0  1  0  0  3  0  0  0  0  0  0
  157.6990  212.8040  147.2360 C   0  0  0  0  0  0  0  0  0  0  0  0
  157.0730  212.0750  146.4250 O   0  0  0  0  0  0  0  0  0  0  0  0
  157.2940  212.8570  148.5620 O   0  0  0  0  0  1  0  0  0  0  0  0
  1 28  1  6  0  0  0
  1  7  1  0  0  0  0
  2  8  1  0  0  0  0
  2  4  1  0  0  0  0
  3  6  1  0  0  0  0
  3  2  1  0  0  0  0
  3  5  1  0  0  0  0
  4  7  1  0  0  0  0
  5  8  1  0  0  0  0
  6  1  1  0  0  0  0
  7 11  1  0  0  0  0
  8  4  1  0  0  0  0
  9 16  1  0  0  0  0
 10 17  1  0  0  0  0
 10  9  2  0  0  0  0
 11 13  2  0  0  0  0
 11 12  1  0  0  0  0
 12 14  2  0  0  0  0
 13 10  1  0  0  0  0
 14  9  1  0  0  0  0
 16 15  1  0  0  0  0
 19 25  1  0  0  0  0
 19 21  1  0  0  0  0
 20 19  1  0  0  0  0
 21 18  2  0  0  0  0
 21 24  2  0  0  0  0
 22 23  1  0  0  0  0
 22 19  1  0  0  0  0
 23 17  1  0  0  0  0
 23 21  1  0  0  0  0
 26 27  1  0  0  0  0
 26 22  1  0  0  0  0
 27 20  1  0  0  0  0
 29 30  1  0  0  0  0
 29 28  1  0  0  0  0
 30 31  1  0  0  0  0
 32 33  1  0  0  0  0
 33 35  1  0  0  0  0
 33 30  1  0  0  0  0
 34 31  1  0  0  0  0
 35 34  1  0  0  0  0
 36 33  1  0  0  0  0
 37 36  1  0  0  0  0
 38 39  1  0  0  0  0
 39 36  1  0  0  0  0
 39 40  1  0  0  0  0
 40 42  1  0  0  0  0
 41 40  2  0  0  0  0
M  END
>  <MODEL>
1

>  <REMARK>
 VINA RESULT:      -7.3      0.000      0.000
  Name = 
  10 active torsions:
  status: ('A' for Active; 'I' for Inactive)
    1  A    between atoms: C_1  and  C_6
    2  A    between atoms: C_2  and  O_12
    3  A    between atoms: C_4  and  C_42
    4  A    between atoms: C_5  and  C_21
    5  A    between atoms: C_6  and  C_21
    6  A    between atoms: C_10  and  C_37
    7  A    between atoms: C_13  and  C_36
    8  A    between atoms: C_19  and  C_20
    9  A    between atoms: C_19  and  C_37
   10  A    between atoms: N_22  and  C_42
                            x       y       z     vdW  Elec       q    Type
                         _______ _______ _______ _____ _____    ______ ____

>  <TORSDO>
F 10

$$$$
=
 OpenBabel11072410593D

 42 48  0  0  1  0  0  0  0  0999 V2000
  161.7760  210.0680  152.6300 C   0  0  1  0  0  3  0  0  0  0  0  0
  159.7320  210.5320  154.6700 C   0  0  1  0  0  3  0  0  0  0  0  0
  161.1170  211.1530  154.6080 C   0  0  1  0  0  3  0  0  0  0  0  0
  159.6550  209.2090  153.9340 C   0  0  1  0  0  3  0  0  0  0  0  0
  161.7050  209.9410  155.3200 C   0  0  0  0  0  2  0  0  0  0  0  0
  161.5290  211.3140  153.2560 O   0  0  0  0  0  0  0  0  0  0  0  0
  160.5420  209.1450  152.6650 C   0  0  2  0  0  3  0  0  0  0  0  0
  160.3330  209.2800  155.3080 C   0  0  1  0  0  3  0  0  0  0  0  0
  161.6350  205.1020  151.6450 C   0  0  0  0  0  0  0  0  0  0  0  0
  161.7040  206.1200  150.6820 C   0  0  0  0  0  0  0  0  0  0  0  0
  160.9040  207.7290  152.3240 C   0  0  0  0  0  0  0  0  0  0  0  0
  160.8450  206.7160  153.2810 C   0  0  0  0  0  3  0  0  0  0  0  0
  161.3520  207.4310  151.0370 C   0  0  0  0  0  3  0  0  0  0  0  0
  161.2040  205.4090  152.9420 C   0  0  0  0  0  3  0  0  0  0  0  0
  161.2560  202.7130  151.7270 N   0  0  0  0  0  1  0  0  0  0  0  0
  161.9960  203.7940  151.3070 O   0  0  0  0  0  0  0  0  0  0  0  0
  162.2740  205.8250  149.3240 C   0  0  0  0  0  2  0  0  0  0  0  0
  159.8930  206.1480  146.4150 O   0  0  0  0  0  0  0  0  0  0  0  0
  162.0520  204.4340  146.4670 C   0  0  1  0  0  0  0  0  0  0  0  0
  161.2050  203.5250  145.6050 C   0  0  0  0  0  2  0  0  0  0  0  0
  161.2850  205.9360  146.9340 S   0  0  0  0  0  0  0  0  0  0  0  0
  161.9820  203.9530  147.9130 C   0  0  1  0  0  3  0  0  0  0  0  0
  161.3080  205.1410  148.4730 N   0  0  0  0  0  0  0  0  0  0  0  0
  162.1610  207.1550  146.8490 O   0  0  0  0  0  0  0  0  0  0  0  0
  163.3590  204.5990  146.0130 O   0  0  0  0  0  1  0  0  0  0  0  0
  161.0280  202.7710  147.9130 C   0  0  0  0  0  2  0  0  0  0  0  0
  160.8950  202.3160  146.4720 C   0  0  0  0  0  2  0  0  0  0  0  0
  162.2130  210.2900  151.1870 C   0  0  0  0  0  2  0  0  0  0  0  0
  161.0890  210.8840  150.3510 C   0  0  0  0  0  2  0  0  0  0  0  0
  161.1800  212.4060  150.2870 C   0  0  2  0  0  3  0  0  0  0  0  0
  160.0420  213.0760  151.0240 C   0  0  0  0  0  2  0  0  0  0  0  0
  162.5950  213.0210  148.3320 C   0  0  0  0  0  1  0  0  0  0  0  0
  161.1800  213.0160  148.8850 C   0  0  2  0  0  0  0  0  0  0  0  0
  159.9110  214.4530  150.4050 C   0  0  0  0  0  2  0  0  0  0  0  0
  160.7410  214.4510  149.1300 C   0  0  0  0  0  2  0  0  0  0  0  0
  160.1950  212.3100  147.9200 C   0  0  2  0  0  3  0  0  0  0  0  0
  160.8640  211.5170  146.9790 O   0  0  0  0  0  1  0  0  0  0  0  0
  159.5080  213.4900  145.7670 C   0  0  0  0  0  1  0  0  0  0  0  0
  159.1890  213.2460  147.2360 C   0  0  1  0  0  3  0  0  0  0  0  0
  157.7920  212.7420  147.4170 C   0  0  0  0  0  0  0  0  0  0  0  0
  157.2110  212.8340  148.5280 O   0  0  0  0  0  1  0  0  0  0  0  0
  157.0980  212.2590  146.3180 O   0  0  0  0  0  0  0  0  0  0  0  0
  1 28  1  6  0  0  0
  1  7  1  0  0  0  0
  1  6  1  0  0  0  0
  2  8  1  0  0  0  0
  3  2  1  0  0  0  0
  3  5  1  0  0  0  0
  4  2  1  0  0  0  0
  4  8  1  0  0  0  0
  6  3  1  0  0  0  0
  7  4  1  0  0  0  0
  8  5  1  0  0  0  0
  9 14  1  0  0  0  0
 10 13  1  0  0  0  0
 10  9  2  0  0  0  0
 11  7  1  0  0  0  0
 11 12  1  0  0  0  0
 13 11  2  0  0  0  0
 14 12  2  0  0  0  0
 16  9  1  0  0  0  0
 16 15  1  0  0  0  0
 17 10  1  0  0  0  0
 18 21  2  0  0  0  0
 19 21  1  0  0  0  0
 19 22  1  0  0  0  0
 20 19  1  0  0  0  0
 20 27  1  0  0  0  0
 21 23  1  0  0  0  0
 22 26  1  0  0  0  0
 22 23  1  0  0  0  0
 23 17  1  0  0  0  0
 24 21  2  0  0  0  0
 25 19  1  0  0  0  0
 27 26  1  0  0  0  0
 29 28  1  0  0  0  0
 30 29  1  0  0  0  0
 30 31  1  0  0  0  0
 32 33  1  0  0  0  0
 33 35  1  0  0  0  0
 33 30  1  0  0  0  0
 34 31  1  0  0  0  0
 35 34  1  0  0  0  0
 36 33  1  0  0  0  0
 37 36  1  0  0  0  0
 38 39  1  0  0  0  0
 39 40  1  0  0  0  0
 39 36  1  0  0  0  0
 40 41  1  0  0  0  0
 42 40  2  0  0  0  0
M  END
>  <MODEL>
2

>  <REMARK>
 VINA RESULT:      -6.6      3.034      6.702
  Name = 
  10 active torsions:
  status: ('A' for Active; 'I' for Inactive)
    1  A    between atoms: C_1  and  C_6
    2  A    between atoms: C_2  and  O_12
    3  A    between atoms: C_4  and  C_42
    4  A    between atoms: C_5  and  C_21
    5  A    between atoms: C_6  and  C_21
    6  A    between atoms: C_10  and  C_37
    7  A    between atoms: C_13  and  C_36
    8  A    between atoms: C_19  and  C_20
    9  A    between atoms: C_19  and  C_37
   10  A    between atoms: N_22  and  C_42
                            x       y       z     vdW  Elec       q    Type
                         _______ _______ _______ _____ _____    ______ ____

>  <TORSDO>
F 10

$$$$
=
 OpenBabel11072410593D

 42 48  0  0  1  0  0  0  0  0999 V2000
  161.0040  206.7030  150.0670 C   0  0  1  0  0  3  0  0  0  0  0  0
  162.6080  205.4640  152.1760 C   0  0  1  0  0  3  0  0  0  0  0  0
  161.3640  204.8910  151.5200 C   0  0  1  0  0  3  0  0  0  0  0  0
  162.6640  206.9770  152.0940 C   0  0  1  0  0  3  0  0  0  0  0  0
  160.4810  205.6590  152.4950 C   0  0  0  0  0  2  0  0  0  0  0  0
  161.2760  205.3170  150.1650 O   0  0  0  0  0  0  0  0  0  0  0  0
  162.0670  207.5560  150.7860 C   0  0  2  0  0  3  0  0  0  0  0  0
  161.7230  206.3000  153.1000 C   0  0  1  0  0  3  0  0  0  0  0  0
  160.7260  211.6050  151.4100 C   0  0  0  0  0  0  0  0  0  0  0  0
  160.2300  210.5630  152.2080 C   0  0  0  0  0  0  0  0  0  0  0  0
  161.6010  208.9690  150.9790 C   0  0  0  0  0  0  0  0  0  0  0  0
  162.0980  210.0100  150.1940 C   0  0  0  0  0  3  0  0  0  0  0  0
  160.6860  209.2530  151.9940 C   0  0  0  0  0  3  0  0  0  0  0  0
  161.6600  211.3190  150.4050 C   0  0  0  0  0  3  0  0  0  0  0  0
  159.0790  213.3590  151.1420 N   0  0  0  0  0  1  0  0  0  0  0  0
  160.2910  212.9170  151.6220 O   0  0  0  0  0  0  0  0  0  0  0  0
  159.3200  210.8750  153.3600 C   0  0  0  0  0  2  0  0  0  0  0  0
  159.1220  211.8810  156.9920 O   0  0  0  0  0  0  0  0  0  0  0  0
  160.3150  209.5650  156.0890 C   0  0  1  0  0  0  0  0  0  0  0  0
  161.2570  209.7300  157.2590 C   0  0  0  0  0  2  0  0  0  0  0  0
  159.0960  210.8120  155.9390 S   0  0  0  0  0  0  0  0  0  0  0  0
  160.9950  210.0840  154.8270 C   0  0  1  0  0  3  0  0  0  0  0  0
  160.0730  211.2060  154.5640 N   0  0  0  0  0  0  0  0  0  0  0  0
  157.7150  210.3210  155.6020 O   0  0  0  0  0  0  0  0  0  0  0  0
  159.8060  208.2760  155.9400 O   0  0  0  0  0  1  0  0  0  0  0  0
  162.3450  210.6200  155.2720 C   0  0  0  0  0  2  0  0  0  0  0  0
  162.6130  210.0400  156.6490 C   0  0  0  0  0  2  0  0  0  0  0  0
  160.9190  207.1130  148.6020 C   0  0  0  0  0  2  0  0  0  0  0  0
  160.3530  205.9910  147.7430 C   0  0  0  0  0  2  0  0  0  0  0  0
  161.1850  205.7720  146.4830 C   0  0  2  0  0  3  0  0  0  0  0  0
  160.3740  205.9760  145.2230 C   0  0  0  0  0  2  0  0  0  0  0  0
  163.1550  204.3720  147.0830 C   0  0  0  0  0  1  0  0  0  0  0  0
  161.8310  204.3930  146.3410 C   0  0  2  0  0  0  0  0  0  0  0  0
  161.0880  205.1830  144.1480 C   0  0  0  0  0  2  0  0  0  0  0  0
  162.0990  204.2880  144.8480 C   0  0  0  0  0  2  0  0  0  0  0  0
  160.9020  203.2420  146.8020 C   0  0  2  0  0  3  0  0  0  0  0  0
  160.9070  203.0940  148.1950 O   0  0  0  0  0  1  0  0  0  0  0  0
  161.3320  200.7450  147.0830 C   0  0  0  0  0  1  0  0  0  0  0  0
  161.1540  201.8980  146.1050 C   0  0  1  0  0  3  0  0  0  0  0  0
  160.0770  201.6100  145.1090 C   0  0  0  0  0  0  0  0  0  0  0  0
  159.9730  200.4740  144.5800 O   0  0  0  0  0  0  0  0  0  0  0  0
  159.1230  202.5800  144.8400 O   0  0  0  0  0  1  0  0  0  0  0  0
  1 28  1  6  0  0  0
  1  6  1  0  0  0  0
  1  7  1  0  0  0  0
  2  8  1  0  0  0  0
  3  2  1  0  0  0  0
  3  5  1  0  0  0  0
  4  2  1  0  0  0  0
  4  8  1  0  0  0  0
  5  8  1  0  0  0  0
  6  3  1  0  0  0  0
  7 11  1  0  0  0  0
  7  4  1  0  0  0  0
  9 16  1  0  0  0  0
  9 10  1  0  0  0  0
 10 17  1  0  0  0  0
 11 13  1  0  0  0  0
 12 14  1  0  0  0  0
 12 11  2  0  0  0  0
 13 10  2  0  0  0  0
 14  9  2  0  0  0  0
 15 16  1  0  0  0  0
 17 23  1  0  0  0  0
 19 20  1  0  0  0  0
 21 19  1  0  0  0  0
 21 18  2  0  0  0  0
 22 26  1  0  0  0  0
 22 19  1  0  0  0  0
 23 22  1  0  0  0  0
 23 21  1  0  0  0  0
 24 21  2  0  0  0  0
 25 19  1  0  0  0  0
 26 27  1  0  0  0  0
 27 20  1  0  0  0  0
 29 28  1  0  0  0  0
 30 29  1  0  0  0  0
 31 30  1  0  0  0  0
 33 30  1  0  0  0  0
 33 36  1  0  0  0  0
 33 32  1  0  0  0  0
 34 35  1  0  0  0  0
 34 31  1  0  0  0  0
 35 33  1  0  0  0  0
 36 37  1  0  0  0  0
 39 36  1  0  0  0  0
 39 38  1  0  0  0  0
 40 39  1  0  0  0  0
 41 40  2  0  0  0  0
 42 40  1  0  0  0  0
M  END
>  <MODEL>
3

>  <REMARK>
 VINA RESULT:      -6.5      3.109      6.764
  Name = 
  10 active torsions:
  status: ('A' for Active; 'I' for Inactive)
    1  A    between atoms: C_1  and  C_6
    2  A    between atoms: C_2  and  O_12
    3  A    between atoms: C_4  and  C_42
    4  A    between atoms: C_5  and  C_21
    5  A    between atoms: C_6  and  C_21
    6  A    between atoms: C_10  and  C_37
    7  A    between atoms: C_13  and  C_36
    8  A    between atoms: C_19  and  C_20
    9  A    between atoms: C_19  and  C_37
   10  A    between atoms: N_22  and  C_42
                            x       y       z     vdW  Elec       q    Type
                         _______ _______ _______ _____ _____    ______ ____

>  <TORSDO>
F 10

$$$$
=
 OpenBabel11072410593D

 42 48  0  0  1  0  0  0  0  0999 V2000
  160.8060  206.0830  150.4820 C   0  0  1  0  0  3  0  0  0  0  0  0
  162.4290  205.3240  152.7930 C   0  0  1  0  0  3  0  0  0  0  0  0
  161.0450  204.8070  152.4420 C   0  0  1  0  0  3  0  0  0  0  0  0
  162.7080  206.6900  152.1990 C   0  0  1  0  0  3  0  0  0  0  0  0
  160.4090  206.0000  153.1450 C   0  0  0  0  0  2  0  0  0  0  0  0
  160.8690  204.7790  151.0300 O   0  0  0  0  0  0  0  0  0  0  0  0
  162.0630  206.9120  150.8070 C   0  0  2  0  0  3  0  0  0  0  0  0
  161.7960  206.5630  153.4250 C   0  0  1  0  0  3  0  0  0  0  0  0
  161.4620  211.1190  150.0860 C   0  0  0  0  0  0  0  0  0  0  0  0
  161.1710  210.5660  151.3420 C   0  0  0  0  0  0  0  0  0  0  0  0
  161.8460  208.3710  150.5330 C   0  0  0  0  0  0  0  0  0  0  0  0
  162.1420  208.9270  149.2880 C   0  0  0  0  0  3  0  0  0  0  0  0
  161.3810  209.1950  151.5590 C   0  0  0  0  0  3  0  0  0  0  0  0
  161.9470  210.2920  149.0650 C   0  0  0  0  0  3  0  0  0  0  0  0
  161.6110  213.0730  148.6650 N   0  0  0  0  0  1  0  0  0  0  0  0
  161.2690  212.4860  149.8620 O   0  0  0  0  0  0  0  0  0  0  0  0
  160.7620  211.4630  152.4750 C   0  0  0  0  0  2  0  0  0  0  0  0
  160.2390  209.0250  155.3070 O   0  0  0  0  0  0  0  0  0  0  0  0
  159.5430  211.6910  155.4090 C   0  0  1  0  0  0  0  0  0  0  0  0
  158.4140  211.2440  156.3090 C   0  0  0  0  0  2  0  0  0  0  0  0
  160.5820  210.4070  154.8320 S   0  0  0  0  0  0  0  0  0  0  0  0
  159.0040  211.8850  153.9950 C   0  0  1  0  0  3  0  0  0  0  0  0
  159.7890  210.8160  153.3470 N   0  0  0  0  0  0  0  0  0  0  0  0
  162.0540  210.7130  154.8580 O   0  0  0  0  0  0  0  0  0  0  0  0
  160.2450  212.8000  155.8790 O   0  0  0  0  0  1  0  0  0  0  0  0
  157.5390  211.4880  154.0500 C   0  0  0  0  0  2  0  0  0  0  0  0
  157.1420  211.4850  155.5150 C   0  0  0  0  0  2  0  0  0  0  0  0
  160.6180  206.0020  148.9720 C   0  0  0  0  0  2  0  0  0  0  0  0
  161.8770  205.5000  148.2810 C   0  0  0  0  0  2  0  0  0  0  0  0
  161.7960  205.6730  146.7670 C   0  0  2  0  0  3  0  0  0  0  0  0
  160.5390  206.4020  146.3450 C   0  0  0  0  0  2  0  0  0  0  0  0
  163.2600  203.9620  145.7060 C   0  0  0  0  0  1  0  0  0  0  0  0
  161.8210  204.3830  145.9450 C   0  0  2  0  0  0  0  0  0  0  0  0
  160.2930  205.9870  144.9080 C   0  0  0  0  0  2  0  0  0  0  0  0
  161.2030  204.8030  144.6210 C   0  0  0  0  0  2  0  0  0  0  0  0
  160.9930  203.2430  146.5880 C   0  0  2  0  0  3  0  0  0  0  0  0
  161.2070  203.1570  147.9690 O   0  0  0  0  0  1  0  0  0  0  0  0
  161.3870  200.7450  146.9190 C   0  0  0  0  0  1  0  0  0  0  0  0
  161.1660  201.8720  145.9180 C   0  0  1  0  0  3  0  0  0  0  0  0
  160.0150  201.5790  145.0100 C   0  0  0  0  0  0  0  0  0  0  0  0
  159.2480  202.4970  144.6220 O   0  0  0  0  0  1  0  0  0  0  0  0
  159.8520  200.2950  144.5130 O   0  0  0  0  0  0  0  0  0  0  0  0
  1 28  1  6  0  0  0
  1  7  1  0  0  0  0
  1  6  1  0  0  0  0
  2  8  1  0  0  0  0
  3  2  1  0  0  0  0
  3  5  1  0  0  0  0
  4  2  1  0  0  0  0
  4  8  1  0  0  0  0
  5  8  1  0  0  0  0
  6  3  1  0  0  0  0
  7  4  1  0  0  0  0
  9 10  1  0  0  0  0
 10 13  2  0  0  0  0
 10 17  1  0  0  0  0
 11  7  1  0  0  0  0
 11 13  1  0  0  0  0
 12 11  2  0  0  0  0
 14 12  1  0  0  0  0
 14  9  2  0  0  0  0
 15 16  1  0  0  0  0
 16  9  1  0  0  0  0
 17 23  1  0  0  0  0
 19 25  1  0  0  0  0
 19 20  1  0  0  0  0
 21 24  2  0  0  0  0
 21 18  2  0  0  0  0
 21 19  1  0  0  0  0
 22 26  1  0  0  0  0
 22 19  1  0  0  0  0
 23 22  1  0  0  0  0
 23 21  1  0  0  0  0
 26 27  1  0  0  0  0
 27 20  1  0  0  0  0
 29 28  1  0  0  0  0
 30 29  1  0  0  0  0
 31 30  1  0  0  0  0
 32 33  1  0  0  0  0
 33 36  1  0  0  0  0
 33 30  1  0  0  0  0
 34 31  1  0  0  0  0
 35 34  1  0  0  0  0
 35 33  1  0  0  0  0
 36 37  1  0  0  0  0
 39 36  1  0  0  0  0
 39 38  1  0  0  0  0
 40 39  1  0  0  0  0
 41 40  1  0  0  0  0
 42 40  2  0  0  0  0
M  END
>  <MODEL>
4

>  <REMARK>
 VINA RESULT:      -6.5      3.249      6.666
  Name = 
  10 active torsions:
  status: ('A' for Active; 'I' for Inactive)
    1  A    between atoms: C_1  and  C_6
    2  A    between atoms: C_2  and  O_12
    3  A    between atoms: C_4  and  C_42
    4  A    between atoms: C_5  and  C_21
    5  A    between atoms: C_6  and  C_21
    6  A    between atoms: C_10  and  C_37
    7  A    between atoms: C_13  and  C_36
    8  A    between atoms: C_19  and  C_20
    9  A    between atoms: C_19  and  C_37
   10  A    between atoms: N_22  and  C_42
                            x       y       z     vdW  Elec       q    Type
                         _______ _______ _______ _____ _____    ______ ____

>  <TORSDO>
F 10

$$$$
=
 OpenBabel11072410593D

 42 48  0  0  1  0  0  0  0  0999 V2000
  160.7290  206.1190  149.9940 C   0  0  1  0  0  3  0  0  0  0  0  0
  162.3380  204.5120  151.8330 C   0  0  1  0  0  3  0  0  0  0  0  0
  161.0310  204.1090  151.1730 C   0  0  1  0  0  3  0  0  0  0  0  0
  162.4900  206.0160  151.9490 C   0  0  1  0  0  3  0  0  0  0  0  0
  160.2440  204.7900  152.2860 C   0  0  0  0  0  2  0  0  0  0  0  0
  160.9120  204.7180  149.8940 O   0  0  0  0  0  0  0  0  0  0  0  0
  161.8770  206.8020  150.7620 C   0  0  2  0  0  3  0  0  0  0  0  0
  161.5520  205.2680  152.9040 C   0  0  1  0  0  3  0  0  0  0  0  0
  160.8260  210.8390  151.8470 C   0  0  0  0  0  0  0  0  0  0  0  0
  161.5820  210.5890  150.6920 C   0  0  0  0  0  0  0  0  0  0  0  0
  161.5140  208.2010  151.1640 C   0  0  0  0  0  0  0  0  0  0  0  0
  160.7550  208.4530  152.3070 C   0  0  0  0  0  3  0  0  0  0  0  0
  161.9060  209.2660  150.3520 C   0  0  0  0  0  3  0  0  0  0  0  0
  160.4170  209.7650  152.6480 C   0  0  0  0  0  3  0  0  0  0  0  0
  159.1840  212.5970  152.1190 N   0  0  0  0  0  1  0  0  0  0  0  0
  160.4840  212.1510  152.1890 O   0  0  0  0  0  0  0  0  0  0  0  0
  161.9250  211.7200  149.7660 C   0  0  0  0  0  2  0  0  0  0  0  0
  159.0150  214.0250  149.0860 O   0  0  0  0  0  0  0  0  0  0  0  0
  161.1610  213.6950  147.3860 C   0  0  1  0  0  0  0  0  0  0  0  0
  160.1710  213.9530  146.2730 C   0  0  0  0  0  2  0  0  0  0  0  0
  160.4840  213.7310  148.9990 S   0  0  0  0  0  0  0  0  0  0  0  0
  161.3810  212.1910  147.5160 C   0  0  1  0  0  3  0  0  0  0  0  0
  160.8180  212.0350  148.8710 N   0  0  0  0  0  0  0  0  0  0  0  0
  161.3130  214.4530  150.0260 O   0  0  0  0  0  0  0  0  0  0  0  0
  162.3520  214.4100  147.2710 O   0  0  0  0  0  1  0  0  0  0  0  0
  160.4580  211.5460  146.4970 C   0  0  0  0  0  2  0  0  0  0  0  0
  160.0510  212.6370  145.5240 C   0  0  0  0  0  2  0  0  0  0  0  0
  160.6070  206.7270  148.6020 C   0  0  0  0  0  2  0  0  0  0  0  0
  161.9020  206.5800  147.8150 C   0  0  0  0  0  2  0  0  0  0  0  0
  161.6440  206.0780  146.3970 C   0  0  2  0  0  3  0  0  0  0  0  0
  160.1990  206.2500  145.9870 C   0  0  0  0  0  2  0  0  0  0  0  0
  163.4490  204.4690  145.8000 C   0  0  0  0  0  1  0  0  0  0  0  0
  161.9750  204.6070  146.1400 C   0  0  2  0  0  0  0  0  0  0  0  0
  159.9630  205.2270  144.8940 C   0  0  0  0  0  2  0  0  0  0  0  0
  161.1510  204.2770  144.9050 C   0  0  0  0  0  2  0  0  0  0  0  0
  161.5740  203.6840  147.3170 C   0  0  2  0  0  3  0  0  0  0  0  0
  162.6940  203.1660  147.9790 O   0  0  0  0  0  1  0  0  0  0  0  0
  160.9200  201.8970  145.6190 C   0  0  0  0  0  1  0  0  0  0  0  0
  160.5880  202.5670  146.9460 C   0  0  1  0  0  3  0  0  0  0  0  0
  160.4820  201.5670  148.0530 C   0  0  0  0  0  0  0  0  0  0  0  0
  159.6750  201.7360  149.0010 O   0  0  0  0  0  1  0  0  0  0  0  0
  161.2140  200.3920  147.9780 O   0  0  0  0  0  0  0  0  0  0  0  0
  1 28  1  6  0  0  0
  1  7  1  0  0  0  0
  2  4  1  0  0  0  0
  2  8  1  0  0  0  0
  3  2  1  0  0  0  0
  3  5  1  0  0  0  0
  4  8  1  0  0  0  0
  5  8  1  0  0  0  0
  6  1  1  0  0  0  0
  6  3  1  0  0  0  0
  7 11  1  0  0  0  0
  7  4  1  0  0  0  0
  9 16  1  0  0  0  0
  9 14  1  0  0  0  0
 10  9  2  0  0  0  0
 11 12  1  0  0  0  0
 12 14  2  0  0  0  0
 13 10  1  0  0  0  0
 13 11  2  0  0  0  0
 15 16  1  0  0  0  0
 17 10  1  0  0  0  0
 19 22  1  0  0  0  0
 19 21  1  0  0  0  0
 20 19  1  0  0  0  0
 21 18  2  0  0  0  0
 21 24  2  0  0  0  0
 22 23  1  0  0  0  0
 23 21  1  0  0  0  0
 23 17  1  0  0  0  0
 25 19  1  0  0  0  0
 26 22  1  0  0  0  0
 27 20  1  0  0  0  0
 27 26  1  0  0  0  0
 29 28  1  0  0  0  0
 30 29  1  0  0  0  0
 31 30  1  0  0  0  0
 32 33  1  0  0  0  0
 33 30  1  0  0  0  0
 33 36  1  0  0  0  0
 34 35  1  0  0  0  0
 34 31  1  0  0  0  0
 35 33  1  0  0  0  0
 36 37  1  0  0  0  0
 38 39  1  0  0  0  0
 39 36  1  0  0  0  0
 39 40  1  0  0  0  0
 40 41  1  0  0  0  0
 42 40  2  0  0  0  0
M  END
>  <MODEL>
5

>  <REMARK>
 VINA RESULT:      -6.1      3.239      7.157
  Name = 
  10 active torsions:
  status: ('A' for Active; 'I' for Inactive)
    1  A    between atoms: C_1  and  C_6
    2  A    between atoms: C_2  and  O_12
    3  A    between atoms: C_4  and  C_42
    4  A    between atoms: C_5  and  C_21
    5  A    between atoms: C_6  and  C_21
    6  A    between atoms: C_10  and  C_37
    7  A    between atoms: C_13  and  C_36
    8  A    between atoms: C_19  and  C_20
    9  A    between atoms: C_19  and  C_37
   10  A    between atoms: N_22  and  C_42
                            x       y       z     vdW  Elec       q    Type
                         _______ _______ _______ _____ _____    ______ ____

>  <TORSDO>
F 10

$$$$
=
 OpenBabel11072410593D

 42 48  0  0  1  0  0  0  0  0999 V2000
  161.9910  211.4890  149.5500 C   0  0  1  0  0  3  0  0  0  0  0  0
  161.5510  212.6920  146.9210 C   0  0  1  0  0  3  0  0  0  0  0  0
  162.8860  212.3170  147.5410 C   0  0  1  0  0  3  0  0  0  0  0  0
  160.4780  212.9470  147.9620 C   0  0  1  0  0  3  0  0  0  0  0  0
  162.9410  213.6570  148.2640 C   0  0  0  0  0  2  0  0  0  0  0  0
  162.7390  211.1830  148.3880 O   0  0  0  0  0  0  0  0  0  0  0  0
  160.5920  212.0400  149.2140 C   0  0  2  0  0  3  0  0  0  0  0  0
  161.5640  214.0010  147.7110 C   0  0  1  0  0  3  0  0  0  0  0  0
  158.8030  213.8580  152.6880 C   0  0  0  0  0  0  0  0  0  0  0  0
  159.5320  212.6650  152.8080 C   0  0  0  0  0  0  0  0  0  0  0  0
  159.9500  212.6790  150.4100 C   0  0  0  0  0  0  0  0  0  0  0  0
  159.2320  213.8700  150.2960 C   0  0  0  0  0  3  0  0  0  0  0  0
  160.1130  212.0940  151.6660 C   0  0  0  0  0  3  0  0  0  0  0  0
  158.6580  214.4530  151.4290 C   0  0  0  0  0  3  0  0  0  0  0  0
  156.9770  214.0840  154.2620 N   0  0  0  0  0  1  0  0  0  0  0  0
  158.2300  214.4440  153.8220 O   0  0  0  0  0  0  0  0  0  0  0  0
  159.7910  212.0830  154.1680 C   0  0  0  0  0  2  0  0  0  0  0  0
  163.0650  210.7110  155.4460 O   0  0  0  0  0  0  0  0  0  0  0  0
  160.6310  209.4550  155.7610 C   0  0  1  0  0  0  0  0  0  0  0  0
  161.4150  208.1650  155.6770 C   0  0  0  0  0  2  0  0  0  0  0  0
  161.5880  210.9130  155.6180 S   0  0  0  0  0  0  0  0  0  0  0  0
  160.0000  209.7410  154.4020 C   0  0  1  0  0  3  0  0  0  0  0  0
  160.7450  210.9820  154.1070 N   0  0  0  0  0  0  0  0  0  0  0  0
  161.2310  212.0100  156.5830 O   0  0  0  0  0  0  0  0  0  0  0  0
  159.7100  209.4990  156.8060 O   0  0  0  0  0  1  0  0  0  0  0  0
  160.4700  208.6280  153.4820 C   0  0  0  0  0  2  0  0  0  0  0  0
  160.9870  207.5140  154.3730 C   0  0  0  0  0  2  0  0  0  0  0  0
  161.8600  210.2480  150.4250 C   0  0  0  0  0  2  0  0  0  0  0  0
  161.9560  208.9730  149.5980 C   0  0  0  0  0  2  0  0  0  0  0  0
  161.6430  207.7360  150.4340 C   0  0  2  0  0  3  0  0  0  0  0  0
  162.8300  207.2920  151.2610 C   0  0  0  0  0  2  0  0  0  0  0  0
  159.7020  206.5680  149.4010 C   0  0  0  0  0  1  0  0  0  0  0  0
  161.1970  206.4990  149.6530 C   0  0  2  0  0  0  0  0  0  0  0  0
  162.6050  205.8190  151.5350 C   0  0  0  0  0  2  0  0  0  0  0  0
  161.4830  205.3580  150.6180 C   0  0  0  0  0  2  0  0  0  0  0  0
  161.9880  206.3000  148.3360 C   0  0  2  0  0  3  0  0  0  0  0  0
  162.3950  207.5200  147.7820 O   0  0  0  0  0  1  0  0  0  0  0  0
  160.8330  206.2180  146.0640 C   0  0  0  0  0  1  0  0  0  0  0  0
  161.2780  205.4300  147.2890 C   0  0  1  0  0  3  0  0  0  0  0  0
  162.1300  204.2610  146.9090 C   0  0  0  0  0  0  0  0  0  0  0  0
  161.6770  203.0890  146.9530 O   0  0  0  0  0  1  0  0  0  0  0  0
  163.4030  204.4840  146.4070 O   0  0  0  0  0  0  0  0  0  0  0  0
  1 28  1  1  0  0  0
  2  3  1  0  0  0  0
  2  8  1  0  0  0  0
  2  4  1  0  0  0  0
  3  5  1  0  0  0  0
  3  6  1  0  0  0  0
  4  7  1  0  0  0  0
  6  1  1  0  0  0  0
  7  1  1  0  0  0  0
  7 11  1  0  0  0  0
  8  4  1  0  0  0  0
  8  5  1  0  0  0  0
  9 10  1  0  0  0  0
  9 16  1  0  0  0  0
 10 17  1  0  0  0  0
 11 13  1  0  0  0  0
 12 11  2  0  0  0  0
 12 14  1  0  0  0  0
 13 10  2  0  0  0  0
 14  9  2  0  0  0  0
 16 15  1  0  0  0  0
 18 21  2  0  0  0  0
 19 25  1  0  0  0  0
 20 19  1  0  0  0  0
 21 19  1  0  0  0  0
 21 24  2  0  0  0  0
 22 19  1  0  0  0  0
 23 17  1  0  0  0  0
 23 22  1  0  0  0  0
 23 21  1  0  0  0  0
 26 27  1  0  0  0  0
 26 22  1  0  0  0  0
 27 20  1  0  0  0  0
 29 28  1  0  0  0  0
 29 30  1  0  0  0  0
 30 31  1  0  0  0  0
 31 34  1  0  0  0  0
 32 33  1  0  0  0  0
 33 30  1  0  0  0  0
 33 35  1  0  0  0  0
 35 34  1  0  0  0  0
 36 33  1  0  0  0  0
 37 36  1  0  0  0  0
 38 39  1  0  0  0  0
 39 36  1  0  0  0  0
 40 41  1  0  0  0  0
 40 39  1  0  0  0  0
 42 40  2  0  0  0  0
M  END
>  <MODEL>
6

>  <REMARK>
 VINA RESULT:      -5.4      2.163      6.434
  Name = 
  10 active torsions:
  status: ('A' for Active; 'I' for Inactive)
    1  A    between atoms: C_1  and  C_6
    2  A    between atoms: C_2  and  O_12
    3  A    between atoms: C_4  and  C_42
    4  A    between atoms: C_5  and  C_21
    5  A    between atoms: C_6  and  C_21
    6  A    between atoms: C_10  and  C_37
    7  A    between atoms: C_13  and  C_36
    8  A    between atoms: C_19  and  C_20
    9  A    between atoms: C_19  and  C_37
   10  A    between atoms: N_22  and  C_42
                            x       y       z     vdW  Elec       q    Type
                         _______ _______ _______ _____ _____    ______ ____

>  <TORSDO>
F 10

$$$$
=
 OpenBabel11072410593D

 42 48  0  0  1  0  0  0  0  0999 V2000
  160.6560  211.7320  150.6450 C   0  0  1  0  0  3  0  0  0  0  0  0
  162.0690  212.8810  148.3570 C   0  0  1  0  0  3  0  0  0  0  0  0
  160.7010  213.2820  148.8790 C   0  0  1  0  0  3  0  0  0  0  0  0
  162.4370  211.4570  148.7250 C   0  0  1  0  0  3  0  0  0  0  0  0
  160.0500  212.1760  148.0580 C   0  0  0  0  0  2  0  0  0  0  0  0
  160.6340  213.1030  150.2880 O   0  0  0  0  0  0  0  0  0  0  0  0
  161.9090  211.0120  150.1130 C   0  0  2  0  0  3  0  0  0  0  0  0
  161.4280  211.7180  147.6000 C   0  0  1  0  0  3  0  0  0  0  0  0
  161.5400  206.7210  150.2860 C   0  0  0  0  0  0  0  0  0  0  0  0
  161.9570  207.3500  149.1040 C   0  0  0  0  0  0  0  0  0  0  0  0
  161.7610  209.5210  150.1870 C   0  0  0  0  0  0  0  0  0  0  0  0
  161.3540  208.8910  151.3640 C   0  0  0  0  0  3  0  0  0  0  0  0
  162.0790  208.7480  149.0710 C   0  0  0  0  0  3  0  0  0  0  0  0
  161.2410  207.5000  151.4120 C   0  0  0  0  0  3  0  0  0  0  0  0
  161.5260  204.6410  151.5250 N   0  0  0  0  0  1  0  0  0  0  0  0
  161.4280  205.3280  150.3360 O   0  0  0  0  0  0  0  0  0  0  0  0
  162.3920  206.5190  147.9310 C   0  0  0  0  0  2  0  0  0  0  0  0
  159.7890  205.5550  145.3740 O   0  0  0  0  0  0  0  0  0  0  0  0
  161.9670  203.9970  146.0310 C   0  0  1  0  0  0  0  0  0  0  0  0
  161.0690  202.8180  145.7370 C   0  0  0  0  0  2  0  0  0  0  0  0
  161.2200  205.5660  145.8280 S   0  0  0  0  0  0  0  0  0  0  0  0
  162.0160  204.2200  147.5390 C   0  0  1  0  0  3  0  0  0  0  0  0
  161.3720  205.5480  147.5540 N   0  0  0  0  0  0  0  0  0  0  0  0
  162.0710  206.5960  145.1380 O   0  0  0  0  0  0  0  0  0  0  0  0
  163.2340  203.9100  145.4550 O   0  0  0  0  0  1  0  0  0  0  0  0
  161.0800  203.1870  148.1430 C   0  0  0  0  0  2  0  0  0  0  0  0
  160.8420  202.1350  147.0750 C   0  0  0  0  0  2  0  0  0  0  0  0
  160.5830  211.5900  152.1610 C   0  0  0  0  0  2  0  0  0  0  0  0
  159.1780  211.2260  152.6180 C   0  0  0  0  0  2  0  0  0  0  0  0
  158.8110  211.9280  153.9210 C   0  0  2  0  0  3  0  0  0  0  0  0
  159.6520  213.1630  154.1590 C   0  0  0  0  0  2  0  0  0  0  0  0
  157.6730  210.2810  155.4020 C   0  0  0  0  0  1  0  0  0  0  0  0
  158.9420  211.0880  155.1930 C   0  0  2  0  0  0  0  0  0  0  0  0
  159.6250  213.3910  155.6570 C   0  0  0  0  0  2  0  0  0  0  0  0
  159.0490  212.1340  156.2910 C   0  0  0  0  0  2  0  0  0  0  0  0
  160.1980  210.1820  155.1890 C   0  0  2  0  0  3  0  0  0  0  0  0
  159.8860  208.8580  154.8580 O   0  0  0  0  0  1  0  0  0  0  0  0
  161.0170  208.9410  157.2610 C   0  0  0  0  0  1  0  0  0  0  0  0
  161.0360  210.2450  156.4740 C   0  0  1  0  0  3  0  0  0  0  0  0
  162.4340  210.6820  156.1720 C   0  0  0  0  0  0  0  0  0  0  0  0
  162.8530  210.7350  154.9880 O   0  0  0  0  0  0  0  0  0  0  0  0
  163.2430  211.1280  157.2050 O   0  0  0  0  0  1  0  0  0  0  0  0
  1 28  1  1  0  0  0
  2  4  1  0  0  0  0
  2  3  1  0  0  0  0
  3  6  1  0  0  0  0
  4  7  1  0  0  0  0
  5  3  1  0  0  0  0
  6  1  1  0  0  0  0
  7 11  1  0  0  0  0
  7  1  1  0  0  0  0
  8  5  1  0  0  0  0
  8  2  1  0  0  0  0
  8  4  1  0  0  0  0
  9 16  1  0  0  0  0
  9 14  1  0  0  0  0
 10  9  2  0  0  0  0
 11 12  1  0  0  0  0
 12 14  2  0  0  0  0
 13 10  1  0  0  0  0
 13 11  2  0  0  0  0
 16 15  1  0  0  0  0
 17 10  1  0  0  0  0
 18 21  2  0  0  0  0
 19 22  1  0  0  0  0
 20 19  1  0  0  0  0
 20 27  1  0  0  0  0
 21 19  1  0  0  0  0
 21 23  1  0  0  0  0
 22 23  1  0  0  0  0
 22 26  1  0  0  0  0
 23 17  1  0  0  0  0
 24 21  2  0  0  0  0
 25 19  1  0  0  0  0
 27 26  1  0  0  0  0
 28 29  1  0  0  0  0
 29 30  1  0  0  0  0
 30 31  1  0  0  0  0
 30 33  1  0  0  0  0
 31 34  1  0  0  0  0
 33 32  1  0  0  0  0
 33 35  1  0  0  0  0
 34 35  1  0  0  0  0
 36 33  1  0  0  0  0
 36 39  1  0  0  0  0
 37 36  1  0  0  0  0
 39 38  1  0  0  0  0
 40 39  1  0  0  0  0
 40 42  1  0  0  0  0
 41 40  2  0  0  0  0
M  END
>  <MODEL>
7

>  <REMARK>
 VINA RESULT:      -5.3      3.355      8.584
  Name = 
  10 active torsions:
  status: ('A' for Active; 'I' for Inactive)
    1  A    between atoms: C_1  and  C_6
    2  A    between atoms: C_2  and  O_12
    3  A    between atoms: C_4  and  C_42
    4  A    between atoms: C_5  and  C_21
    5  A    between atoms: C_6  and  C_21
    6  A    between atoms: C_10  and  C_37
    7  A    between atoms: C_13  and  C_36
    8  A    between atoms: C_19  and  C_20
    9  A    between atoms: C_19  and  C_37
   10  A    between atoms: N_22  and  C_42
                            x       y       z     vdW  Elec       q    Type
                         _______ _______ _______ _____ _____    ______ ____

>  <TORSDO>
F 10

$$$$
=
 OpenBabel11072410593D

 42 48  0  0  1  0  0  0  0  0999 V2000
  160.6530  209.0260  152.8880 C   0  0  1  0  0  3  0  0  0  0  0  0
  161.9480  209.8830  155.3660 C   0  0  1  0  0  3  0  0  0  0  0  0
  161.2580  208.5550  155.1090 C   0  0  1  0  0  3  0  0  0  0  0  0
  161.4380  210.9870  154.4600 C   0  0  1  0  0  3  0  0  0  0  0  0
  159.9120  209.1700  155.4740 C   0  0  0  0  0  2  0  0  0  0  0  0
  161.3960  208.1790  153.7450 O   0  0  0  0  0  0  0  0  0  0  0  0
  161.0580  210.5050  153.0370 C   0  0  2  0  0  3  0  0  0  0  0  0
  160.5880  210.5230  155.6500 C   0  0  1  0  0  3  0  0  0  0  0  0
  158.1990  213.1220  151.1520 C   0  0  0  0  0  0  0  0  0  0  0  0
  159.5530  213.1700  150.7860 C   0  0  0  0  0  0  0  0  0  0  0  0
  160.0520  211.4180  152.4020 C   0  0  0  0  0  0  0  0  0  0  0  0
  158.7030  211.3680  152.7570 C   0  0  0  0  0  3  0  0  0  0  0  0
  160.4660  212.3030  151.4060 C   0  0  0  0  0  3  0  0  0  0  0  0
  157.7830  212.2180  152.1380 C   0  0  0  0  0  3  0  0  0  0  0  0
  156.4620  213.5260  149.5150 N   0  0  0  0  0  1  0  0  0  0  0  0
  157.2760  213.9700  150.5310 O   0  0  0  0  0  0  0  0  0  0  0  0
  159.9880  214.0500  149.6510 C   0  0  0  0  0  2  0  0  0  0  0  0
  161.0520  211.1180  147.5280 O   0  0  0  0  0  0  0  0  0  0  0  0
  161.0120  213.7310  146.6510 C   0  0  1  0  0  0  0  0  0  0  0  0
  162.1920  213.3400  145.7910 C   0  0  0  0  0  2  0  0  0  0  0  0
  160.3700  212.4480  147.6530 S   0  0  0  0  0  0  0  0  0  0  0  0
  161.5230  214.4440  147.8990 C   0  0  1  0  0  3  0  0  0  0  0  0
  161.0700  213.4440  148.8850 N   0  0  0  0  0  0  0  0  0  0  0  0
  158.8690  212.3620  147.6990 O   0  0  0  0  0  0  0  0  0  0  0  0
  160.0270  214.4530  145.9790 O   0  0  0  0  0  1  0  0  0  0  0  0
  163.0380  214.4220  147.8000 C   0  0  0  0  0  2  0  0  0  0  0  0
  163.3780  214.1030  146.3560 C   0  0  0  0  0  2  0  0  0  0  0  0
  160.8320  208.5860  151.4400 C   0  0  0  0  0  2  0  0  0  0  0  0
  161.8450  207.4560  151.3240 C   0  0  0  0  0  2  0  0  0  0  0  0
  161.1640  206.0900  151.3030 C   0  0  2  0  0  3  0  0  0  0  0  0
  162.0140  205.0210  151.9530 C   0  0  0  0  0  2  0  0  0  0  0  0
  159.4540  206.0990  149.4930 C   0  0  0  0  0  1  0  0  0  0  0  0
  160.8020  205.5460  149.9200 C   0  0  2  0  0  0  0  0  0  0  0  0
  161.5430  203.7100  151.3570 C   0  0  0  0  0  2  0  0  0  0  0  0
  160.6700  204.0500  150.1600 C   0  0  0  0  0  2  0  0  0  0  0  0
  161.8940  205.8260  148.8570 C   0  0  2  0  0  3  0  0  0  0  0  0
  162.5690  207.0270  149.1060 O   0  0  0  0  0  1  0  0  0  0  0  0
  161.5180  207.0950  146.6780 C   0  0  0  0  0  1  0  0  0  0  0  0
  161.4030  205.7610  147.4040 C   0  0  1  0  0  3  0  0  0  0  0  0
  162.1030  204.6700  146.6590 C   0  0  0  0  0  0  0  0  0  0  0  0
  161.4820  203.6410  146.2860 O   0  0  0  0  0  0  0  0  0  0  0  0
  163.4280  204.8420  146.2890 O   0  0  0  0  0  1  0  0  0  0  0  0
  1 28  1  6  0  0  0
  1  7  1  0  0  0  0
  1  6  1  0  0  0  0
  2  8  1  0  0  0  0
  3  2  1  0  0  0  0
  3  5  1  0  0  0  0
  4  2  1  0  0  0  0
  4  8  1  0  0  0  0
  5  8  1  0  0  0  0
  6  3  1  0  0  0  0
  7  4  1  0  0  0  0
  9 14  1  0  0  0  0
 10  9  2  0  0  0  0
 10 13  1  0  0  0  0
 11 12  1  0  0  0  0
 11  7  1  0  0  0  0
 13 11  2  0  0  0  0
 14 12  2  0  0  0  0
 15 16  1  0  0  0  0
 16  9  1  0  0  0  0
 17 10  1  0  0  0  0
 18 21  2  0  0  0  0
 19 21  1  0  0  0  0
 19 22  1  0  0  0  0
 20 27  1  0  0  0  0
 20 19  1  0  0  0  0
 21 24  2  0  0  0  0
 21 23  1  0  0  0  0
 22 23  1  0  0  0  0
 23 17  1  0  0  0  0
 25 19  1  0  0  0  0
 26 22  1  0  0  0  0
 27 26  1  0  0  0  0
 29 28  1  0  0  0  0
 30 29  1  0  0  0  0
 30 31  1  0  0  0  0
 32 33  1  0  0  0  0
 33 35  1  0  0  0  0
 33 30  1  0  0  0  0
 34 31  1  0  0  0  0
 35 34  1  0  0  0  0
 36 37  1  0  0  0  0
 36 33  1  0  0  0  0
 38 39  1  0  0  0  0
 39 36  1  0  0  0  0
 40 39  1  0  0  0  0
 41 40  2  0  0  0  0
 42 40  1  0  0  0  0
M  END
>  <MODEL>
8

>  <REMARK>
 VINA RESULT:      -5.0      3.044      7.535
  Name = 
  10 active torsions:
  status: ('A' for Active; 'I' for Inactive)
    1  A    between atoms: C_1  and  C_6
    2  A    between atoms: C_2  and  O_12
    3  A    between atoms: C_4  and  C_42
    4  A    between atoms: C_5  and  C_21
    5  A    between atoms: C_6  and  C_21
    6  A    between atoms: C_10  and  C_37
    7  A    between atoms: C_13  and  C_36
    8  A    between atoms: C_19  and  C_20
    9  A    between atoms: C_19  and  C_37
   10  A    between atoms: N_22  and  C_42
                            x       y       z     vdW  Elec       q    Type
                         _______ _______ _______ _____ _____    ______ ____

>  <TORSDO>
F 10

$$$$
=
 OpenBabel11072410593D

 42 48  0  0  1  0  0  0  0  0999 V2000
  160.8210  211.7240  150.6830 C   0  0  1  0  0  3  0  0  0  0  0  0
  162.0140  212.7920  148.2360 C   0  0  1  0  0  3  0  0  0  0  0  0
  160.7450  213.2730  148.9170 C   0  0  1  0  0  3  0  0  0  0  0  0
  162.3380  211.3470  148.5630 C   0  0  1  0  0  3  0  0  0  0  0  0
  159.9340  212.2100  148.1860 C   0  0  0  0  0  2  0  0  0  0  0  0
  160.8390  213.0940  150.3250 O   0  0  0  0  0  0  0  0  0  0  0  0
  161.9560  210.9310  150.0060 C   0  0  2  0  0  3  0  0  0  0  0  0
  161.2170  211.6720  147.5660 C   0  0  1  0  0  3  0  0  0  0  0  0
  161.3630  206.6690  150.2530 C   0  0  0  0  0  0  0  0  0  0  0  0
  161.9000  207.2440  149.0920 C   0  0  0  0  0  0  0  0  0  0  0  0
  161.7290  209.4510  150.1050 C   0  0  0  0  0  0  0  0  0  0  0  0
  161.2030  208.8740  151.2610 C   0  0  0  0  0  3  0  0  0  0  0  0
  162.0930  208.6330  149.0350 C   0  0  0  0  0  3  0  0  0  0  0  0
  161.0180  207.4920  151.3330 C   0  0  0  0  0  3  0  0  0  0  0  0
  161.8130  204.5260  151.2860 N   0  0  0  0  0  1  0  0  0  0  0  0
  161.1790  205.2840  150.3280 O   0  0  0  0  0  0  0  0  0  0  0  0
  162.3810  206.3610  147.9770 C   0  0  0  0  0  2  0  0  0  0  0  0
  159.7610  205.5440  145.3870 O   0  0  0  0  0  0  0  0  0  0  0  0
  161.9290  203.9390  145.9570 C   0  0  1  0  0  0  0  0  0  0  0  0
  161.0200  202.7830  145.6090 C   0  0  0  0  0  2  0  0  0  0  0  0
  161.1940  205.5220  145.8340 S   0  0  0  0  0  0  0  0  0  0  0  0
  161.9850  204.0870  147.4740 C   0  0  1  0  0  3  0  0  0  0  0  0
  161.3520  205.4180  147.5560 N   0  0  0  0  0  0  0  0  0  0  0  0
  162.0500  206.5780  145.1920 O   0  0  0  0  0  0  0  0  0  0  0  0
  163.1930  203.8710  145.3720 O   0  0  0  0  0  1  0  0  0  0  0  0
  161.0430  203.0330  148.0300 C   0  0  0  0  0  2  0  0  0  0  0  0
  160.7930  202.0370  146.9130 C   0  0  0  0  0  2  0  0  0  0  0  0
  160.9240  211.5810  152.1970 C   0  0  0  0  0  2  0  0  0  0  0  0
  159.7130  212.1820  152.8950 C   0  0  0  0  0  2  0  0  0  0  0  0
  159.8100  212.0390  154.4110 C   0  0  2  0  0  3  0  0  0  0  0  0
  159.6650  210.6010  154.8580 C   0  0  0  0  0  2  0  0  0  0  0  0
  159.2840  214.2460  155.4380 C   0  0  0  0  0  1  0  0  0  0  0  0
  158.7820  212.8290  155.2230 C   0  0  2  0  0  0  0  0  0  0  0  0
  159.1890  210.6680  156.2950 C   0  0  0  0  0  2  0  0  0  0  0  0
  158.7630  212.1030  156.5590 C   0  0  0  0  0  2  0  0  0  0  0  0
  157.3710  212.8160  154.5840 C   0  0  2  0  0  3  0  0  0  0  0  0
  157.2260  213.8200  153.6190 O   0  0  0  0  0  1  0  0  0  0  0  0
  155.1520  213.8850  155.2430 C   0  0  0  0  0  1  0  0  0  0  0  0
  156.2130  212.8500  155.5910 C   0  0  1  0  0  3  0  0  0  0  0  0
  155.6160  211.4880  155.7550 C   0  0  0  0  0  0  0  0  0  0  0  0
  155.2050  211.0930  156.8760 O   0  0  0  0  0  1  0  0  0  0  0  0
  155.4240  210.6920  154.6360 O   0  0  0  0  0  0  0  0  0  0  0  0
  1 28  1  1  0  0  0
  2  4  1  0  0  0  0
  2  3  1  0  0  0  0
  3  6  1  0  0  0  0
  4  7  1  0  0  0  0
  5  3  1  0  0  0  0
  6  1  1  0  0  0  0
  7 11  1  0  0  0  0
  7  1  1  0  0  0  0
  8  5  1  0  0  0  0
  8  2  1  0  0  0  0
  8  4  1  0  0  0  0
  9 16  1  0  0  0  0
  9 14  1  0  0  0  0
 10  9  2  0  0  0  0
 11 12  1  0  0  0  0
 12 14  2  0  0  0  0
 13 10  1  0  0  0  0
 13 11  2  0  0  0  0
 16 15  1  0  0  0  0
 17 10  1  0  0  0  0
 18 21  2  0  0  0  0
 19 22  1  0  0  0  0
 20 19  1  0  0  0  0
 20 27  1  0  0  0  0
 21 19  1  0  0  0  0
 21 23  1  0  0  0  0
 22 23  1  0  0  0  0
 22 26  1  0  0  0  0
 23 17  1  0  0  0  0
 24 21  2  0  0  0  0
 25 19  1  0  0  0  0
 27 26  1  0  0  0  0
 28 29  1  0  0  0  0
 29 30  1  0  0  0  0
 30 31  1  0  0  0  0
 30 33  1  0  0  0  0
 31 34  1  0  0  0  0
 33 32  1  0  0  0  0
 33 35  1  0  0  0  0
 34 35  1  0  0  0  0
 36 33  1  0  0  0  0
 36 39  1  0  0  0  0
 37 36  1  0  0  0  0
 38 39  1  0  0  0  0
 39 40  1  0  0  0  0
 40 41  1  0  0  0  0
 42 40  2  0  0  0  0
M  END
>  <MODEL>
9

>  <REMARK>
 VINA RESULT:      -5.0      3.338      8.340
  Name = 
  10 active torsions:
  status: ('A' for Active; 'I' for Inactive)
    1  A    between atoms: C_1  and  C_6
    2  A    between atoms: C_2  and  O_12
    3  A    between atoms: C_4  and  C_42
    4  A    between atoms: C_5  and  C_21
    5  A    between atoms: C_6  and  C_21
    6  A    between atoms: C_10  and  C_37
    7  A    between atoms: C_13  and  C_36
    8  A    between atoms: C_19  and  C_20
    9  A    between atoms: C_19  and  C_37
   10  A    between atoms: N_22  and  C_42
                            x       y       z     vdW  Elec       q    Type
                         _______ _______ _______ _____ _____    ______ ____

>  <TORSDO>
F 10

$$$$
