=
 OpenBabel11072414273D

 47 51  0  0  1  0  0  0  0  0999 V2000
  159.1070  210.4320  156.3420 C   0  0  2  0  0  3  0  0  0  0  0  0
  159.9980  209.6100  157.0560 O   0  0  0  0  0  0  0  0  0  0  0  0
  161.2640  206.5070  152.0790 C   0  0  2  0  0  3  0  0  0  0  0  0
  160.9640  208.5780  155.1100 C   0  0  1  0  0  3  0  0  0  0  0  0
  159.6550  210.7900  154.9340 C   0  0  2  0  0  3  0  0  0  0  0  0
  161.5660  207.7270  152.9180 C   0  0  1  0  0  3  0  0  0  0  0  0
  160.8870  205.4550  153.0340 N   0  0  0  0  0  2  0  0  0  0  0  0
  161.1440  210.1310  153.0430 C   0  0  0  0  0  3  0  0  0  0  0  0
  160.9700  210.0530  154.5610 C   0  0  2  0  0  0  0  0  0  0  0  0
  162.1590  210.7610  155.1970 C   0  0  0  0  0  1  0  0  0  0  0  0
  160.6560  206.1210  154.3200 C   0  0  0  0  0  2  0  0  0  0  0  0
  161.3880  209.0610  152.2680 C   0  0  0  0  0  3  0  0  0  0  0  0
  160.0600  208.4090  156.3380 C   0  0  0  0  0  2  0  0  0  0  0  0
  160.5730  207.5940  154.0150 C   0  0  1  0  0  3  0  0  0  0  0  0
  161.5690  204.0820  150.1800 O   0  0  0  0  0  0  0  0  0  0  0  0
  161.3190  203.9910  145.0550 O   0  0  0  0  0  0  0  0  0  0  0  0
  161.8760  205.3990  147.5400 C   0  0  0  0  0  0  0  0  0  0  0  0
  162.1150  205.9480  148.8450 N   0  0  0  0  0  0  0  0  0  0  0  0
  162.4660  206.0620  151.2380 C   0  0  2  0  0  3  0  0  0  0  0  0
  163.1220  207.2690  150.5510 C   0  0  0  0  0  2  0  0  0  0  0  0
  161.1910  203.3830  146.1500 C   0  0  0  0  0  0  0  0  0  0  0  0
  160.7570  201.9610  146.1530 C   0  0  0  0  0  1  0  0  0  0  0  0
  161.4640  204.0330  147.3940 N   0  0  0  0  0  2  0  0  0  0  0  0
  162.0430  206.1250  146.5220 O   0  0  0  0  0  0  0  0  0  0  0  0
  162.0050  205.2590  150.0800 C   0  0  0  0  0  0  0  0  0  0  0  0
  162.6750  207.2670  149.0820 C   0  0  2  0  0  3  0  0  0  0  0  0
  161.6320  208.3190  148.8730 C   0  0  0  0  0  0  0  0  0  0  0  0
  160.4300  208.0640  149.1530 O   0  0  0  0  0  0  0  0  0  0  0  0
  161.9960  209.5660  148.3580 O   0  0  0  0  0  0  0  0  0  0  0  0
  162.2430  210.6940  149.1840 C   0  0  0  0  0  2  0  0  0  0  0  0
  160.7000  212.5270  149.8830 C   0  0  0  0  0  1  0  0  0  0  0  0
  161.4270  211.8890  148.7140 C   0  0  1  0  0  3  0  0  0  0  0  0
  163.0060  212.5730  147.0490 O   0  0  0  0  0  0  0  0  0  0  0  0
  162.3050  212.8940  148.0460 C   0  0  0  0  0  0  0  0  0  0  0  0
  162.3710  214.1870  148.5410 O   0  0  0  0  0  1  0  0  0  0  0  0
  159.6680  212.2890  154.6240 C   0  0  0  0  0  2  0  0  0  0  0  0
  158.9710  212.5440  153.3030 C   0  0  0  0  0  2  0  0  0  0  0  0
  157.4030  214.3830  153.8080 C   0  0  0  0  0  2  0  0  0  0  0  0
  156.9070  213.8200  152.4910 C   0  0  2  0  0  3  0  0  0  0  0  0
  157.5120  212.8950  153.5510 C   0  0  1  0  0  3  0  0  0  0  0  0
  157.8180  214.1240  151.4710 O   0  0  0  0  0  0  0  0  0  0  0  0
  155.6680  214.1510  150.4530 C   0  0  0  0  0  1  0  0  0  0  0  0
  157.1390  213.8330  150.2870 C   0  0  0  0  0  2  0  0  0  0  0  0
  158.7910  211.5870  157.1070 O   0  0  0  0  0  0  0  0  0  0  0  0
  156.4040  212.5460  157.1300 C   0  0  0  0  0  0  0  0  0  0  0  0
  155.0490  213.0950  157.1410 C   0  0  0  0  0  1  0  0  0  0  0  0
  157.5220  212.0950  157.1180 C   0  0  0  0  0  0  0  0  0  0  0  0
  1  2  1  0  0  0  0
  1 44  1  1  0  0  0
  3  6  1  0  0  0  0
  3  7  1  1  0  0  0
  4 13  1  1  0  0  0
  5 36  1  1  0  0  0
  5  1  1  0  0  0  0
  6 12  1  6  0  0  0
  6 14  1  0  0  0  0
  7 11  1  0  0  0  0
  8  9  1  0  0  0  0
  9  5  1  0  0  0  0
  9  4  1  0  0  0  0
  9 10  1  1  0  0  0
 12  8  2  0  0  0  0
 13  2  1  0  0  0  0
 14 11  1  1  0  0  0
 14  4  1  0  0  0  0
 16 21  2  0  0  0  0
 17 18  1  0  0  0  0
 18 26  1  0  0  0  0
 18 25  1  0  0  0  0
 19 20  1  6  0  0  0
 19  3  1  0  0  0  0
 21 22  1  0  0  0  0
 21 23  1  0  0  0  0
 23 17  1  0  0  0  0
 24 17  2  0  0  0  0
 25 15  2  0  0  0  0
 25 19  1  0  0  0  0
 26 27  1  1  0  0  0
 26 20  1  0  0  0  0
 27 28  2  0  0  0  0
 29 27  1  0  0  0  0
 29 30  1  0  0  0  0
 32 30  1  0  0  0  0
 32 31  1  1  0  0  0
 33 34  2  0  0  0  0
 34 35  1  0  0  0  0
 34 32  1  0  0  0  0
 37 36  1  0  0  0  0
 39 41  1  6  0  0  0
 39 40  1  0  0  0  0
 39 38  1  0  0  0  0
 40 37  1  6  0  0  0
 40 38  1  0  0  0  0
 43 42  1  0  0  0  0
 43 41  1  0  0  0  0
 44 47  1  0  0  0  0
 45 46  1  0  0  0  0
 47 45  3  0  0  0  0
M  END
>  <MODEL>
1

>  <REMARK>
 VINA RESULT:      -5.6      0.000      0.000
  Name = 
  13 active torsions:
  status: ('A' for Active; 'I' for Inactive)
    1  A    between atoms: O_2  and  C_30
    2  A    between atoms: O_2  and  C_42
    3  A    between atoms: C_4  and  O_39
    4  A    between atoms: O_9  and  C_12
    5  A    between atoms: O_9  and  C_25
    6  A    between atoms: C_10  and  C_13
    7  A    between atoms: C_12  and  C_19
    8  A    between atoms: C_14  and  C_24
    9  A    between atoms: C_14  and  C_45
   10  A    between atoms: C_18  and  C_19
   11  A    between atoms: C_20  and  C_24
   12  A    between atoms: C_25  and  C_46
   13  A    between atoms: C_31  and  O_39
                            x       y       z     vdW  Elec       q    Type
                         _______ _______ _______ _____ _____    ______ ____

>  <TORSDO>
F 13

$$$$
=
 OpenBabel11072414273D

 47 51  0  0  1  0  0  0  0  0999 V2000
  161.3070  205.9090  149.5920 C   0  0  2  0  0  3  0  0  0  0  0  0
  162.1960  206.9960  149.6650 O   0  0  0  0  0  0  0  0  0  0  0  0
  159.8960  208.6340  154.9600 C   0  0  2  0  0  3  0  0  0  0  0  0
  161.7300  207.5170  151.9660 C   0  0  1  0  0  3  0  0  0  0  0  0
  161.1250  205.2190  150.9700 C   0  0  2  0  0  3  0  0  0  0  0  0
  160.8830  207.7530  154.2290 C   0  0  1  0  0  3  0  0  0  0  0  0
  159.8120  209.8710  154.1690 N   0  0  0  0  0  2  0  0  0  0  0  0
  161.2090  205.4580  153.4530 C   0  0  0  0  0  3  0  0  0  0  0  0
  161.8260  205.9560  152.1450 C   0  0  2  0  0  0  0  0  0  0  0  0
  163.3060  205.6000  152.1690 C   0  0  0  0  0  1  0  0  0  0  0  0
  160.4500  209.5870  152.8790 C   0  0  0  0  0  2  0  0  0  0  0  0
  160.7410  206.2770  154.4100 C   0  0  0  0  0  3  0  0  0  0  0  0
  161.5760  207.9350  150.4990 C   0  0  0  0  0  2  0  0  0  0  0  0
  160.5990  208.0900  152.8100 C   0  0  1  0  0  3  0  0  0  0  0  0
  162.7350  209.0850  156.1070 O   0  0  0  0  0  0  0  0  0  0  0  0
  165.0440  213.5220  157.2550 O   0  0  0  0  0  0  0  0  0  0  0  0
  162.6280  211.9360  156.9180 C   0  0  0  0  0  0  0  0  0  0  0  0
  161.5380  211.0230  156.7180 N   0  0  0  0  0  0  0  0  0  0  0  0
  160.3390  208.9450  156.3940 C   0  0  2  0  0  3  0  0  0  0  0  0
  159.4140  209.9930  157.0300 C   0  0  0  0  0  2  0  0  0  0  0  0
  165.1430  212.3110  156.9270 C   0  0  0  0  0  0  0  0  0  0  0  0
  166.4890  211.7150  156.7170 C   0  0  0  0  0  1  0  0  0  0  0  0
  163.9820  211.4920  156.7610 N   0  0  0  0  0  2  0  0  0  0  0  0
  162.3840  213.1300  157.2460 O   0  0  0  0  0  0  0  0  0  0  0  0
  161.6430  209.6490  156.3800 C   0  0  0  0  0  0  0  0  0  0  0  0
  160.1480  211.3410  156.9980 C   0  0  2  0  0  3  0  0  0  0  0  0
  159.5820  212.1970  155.9100 C   0  0  0  0  0  0  0  0  0  0  0  0
  160.3620  212.8470  155.1630 O   0  0  0  0  0  0  0  0  0  0  0  0
  158.1980  212.2780  155.7390 O   0  0  0  0  0  0  0  0  0  0  0  0
  157.5760  213.3200  155.0030 C   0  0  0  0  0  2  0  0  0  0  0  0
  155.5670  213.2710  153.5230 C   0  0  0  0  0  1  0  0  0  0  0  0
  156.9920  212.7820  153.7050 C   0  0  1  0  0  3  0  0  0  0  0  0
  158.8860  212.5730  152.2550 O   0  0  0  0  0  1  0  0  0  0  0  0
  157.8280  213.1970  152.5400 C   0  0  0  0  0  0  0  0  0  0  0  0
  157.4550  214.2940  151.7800 O   0  0  0  0  0  0  0  0  0  0  0  0
  161.3550  203.7060  150.9540 C   0  0  0  0  0  2  0  0  0  0  0  0
  160.1770  203.0160  150.2980 C   0  0  0  0  0  2  0  0  0  0  0  0
  159.4190  200.8880  149.3010 C   0  0  0  0  0  2  0  0  0  0  0  0
  160.8650  201.0120  148.8630 C   0  0  2  0  0  3  0  0  0  0  0  0
  160.4260  201.5170  150.2410 C   0  0  1  0  0  3  0  0  0  0  0  0
  160.9920  202.0520  147.9340 O   0  0  0  0  0  0  0  0  0  0  0  0
  160.3860  201.9460  145.6370 C   0  0  0  0  0  1  0  0  0  0  0  0
  161.2940  201.4190  146.7280 C   0  0  0  0  0  2  0  0  0  0  0  0
  161.7330  205.0000  148.5860 O   0  0  0  0  0  0  0  0  0  0  0  0
  161.2140  205.4350  146.1040 C   0  0  0  0  0  0  0  0  0  0  0  0
  160.9180  205.6780  144.6930 C   0  0  0  0  0  1  0  0  0  0  0  0
  161.4560  205.2320  147.2680 C   0  0  0  0  0  0  0  0  0  0  0  0
  1 44  1  6  0  0  0
  1  2  1  0  0  0  0
  1  5  1  0  0  0  0
  2 13  1  0  0  0  0
  3  7  1  6  0  0  0
  3 19  1  0  0  0  0
  4 13  1  6  0  0  0
  4  9  1  0  0  0  0
  4 14  1  0  0  0  0
  5 36  1  6  0  0  0
  5  9  1  0  0  0  0
  6 12  1  6  0  0  0
  6  3  1  0  0  0  0
  8 12  2  0  0  0  0
  9 10  1  6  0  0  0
  9  8  1  0  0  0  0
 11  7  1  0  0  0  0
 14 11  1  1  0  0  0
 14  6  1  0  0  0  0
 15 25  2  0  0  0  0
 17 24  2  0  0  0  0
 18 17  1  0  0  0  0
 18 26  1  0  0  0  0
 19 20  1  6  0  0  0
 21 16  2  0  0  0  0
 22 21  1  0  0  0  0
 23 17  1  0  0  0  0
 23 21  1  0  0  0  0
 25 19  1  0  0  0  0
 25 18  1  0  0  0  0
 26 27  1  6  0  0  0
 26 20  1  0  0  0  0
 28 27  2  0  0  0  0
 29 27  1  0  0  0  0
 30 29  1  0  0  0  0
 32 31  1  6  0  0  0
 32 30  1  0  0  0  0
 33 34  1  0  0  0  0
 34 32  1  0  0  0  0
 35 34  2  0  0  0  0
 37 36  1  0  0  0  0
 38 40  1  0  0  0  0
 39 41  1  6  0  0  0
 39 38  1  0  0  0  0
 39 40  1  0  0  0  0
 40 37  1  6  0  0  0
 42 43  1  0  0  0  0
 43 41  1  0  0  0  0
 45 47  3  0  0  0  0
 46 45  1  0  0  0  0
 47 44  1  0  0  0  0
M  END
>  <MODEL>
2

>  <REMARK>
 VINA RESULT:      -3.6      2.990      9.689
  Name = 
  13 active torsions:
  status: ('A' for Active; 'I' for Inactive)
    1  A    between atoms: O_2  and  C_30
    2  A    between atoms: O_2  and  C_42
    3  A    between atoms: C_4  and  O_39
    4  A    between atoms: O_9  and  C_12
    5  A    between atoms: O_9  and  C_25
    6  A    between atoms: C_10  and  C_13
    7  A    between atoms: C_12  and  C_19
    8  A    between atoms: C_14  and  C_24
    9  A    between atoms: C_14  and  C_45
   10  A    between atoms: C_18  and  C_19
   11  A    between atoms: C_20  and  C_24
   12  A    between atoms: C_25  and  C_46
   13  A    between atoms: C_31  and  O_39
                            x       y       z     vdW  Elec       q    Type
                         _______ _______ _______ _____ _____    ______ ____

>  <TORSDO>
F 13

$$$$
