=
 OpenBabel11072415033D

 39 46  0  0  1  0  0  0  0  0999 V2000
  160.8520  206.5910  153.2210 C   0  0  1  0  0  3  0  0  0  0  0  0
  161.7950  207.3090  152.2440 C   0  0  2  0  0  3  0  0  0  0  0  0
  162.0410  208.5590  149.4040 O   0  0  0  0  0  0  0  0  0  0  0  0
  161.2770  210.6050  150.5040 C   0  0  0  0  0  0  0  0  0  0  0  0
  161.5540  209.1680  150.3920 C   0  0  0  0  0  0  0  0  0  0  0  0
  161.3230  211.6290  152.6940 O   0  0  0  0  0  0  0  0  0  0  0  0
  160.5690  210.8220  151.8000 C   0  0  2  0  0  3  0  0  0  0  0  0
  161.1360  208.5300  151.6400 C   0  0  2  0  0  3  0  0  0  0  0  0
  161.7250  208.9110  155.7840 O   0  0  0  0  0  0  0  0  0  0  0  0
  161.5490  206.3260  154.4160 O   0  0  0  0  0  0  0  0  0  0  0  0
  161.5230  211.5890  149.6740 N   0  0  0  0  0  0  0  0  0  0  0  0
  160.9340  209.6840  153.7280 N   0  0  0  0  0  0  0  0  0  0  0  0
  161.1200  208.6540  154.7070 C   0  0  0  0  0  0  0  0  0  0  0  0
  160.5960  209.4880  152.3940 C   0  0  1  0  0  3  0  0  0  0  0  0
  160.5240  207.2870  154.5070 C   0  0  1  0  0  3  0  0  0  0  0  0
  161.2660  211.0300  153.9380 N   0  0  0  0  0  2  0  0  0  0  0  0
  163.7020  211.8090  148.4580 C   0  0  0  0  0  2  0  0  0  0  0  0
  162.7590  212.9610  148.2360 C   0  0  2  0  0  3  0  0  0  0  0  0
  162.2060  211.6840  148.3730 C   0  0  2  0  0  0  0  0  0  0  0  0
  161.5790  212.6020  147.3820 N   0  0  0  0  0  0  0  0  0  0  0  0
  157.6750  213.8950  143.6550 F   0  0  0  0  0  0  0  0  0  0  0  0
  159.9730  213.6160  144.2380 C   0  0  0  0  0  3  0  0  0  0  0  0
  160.5660  212.9200  146.4340 C   0  0  0  0  0  0  0  0  0  0  0  0
  158.6150  213.5660  144.5720 C   0  0  0  0  0  0  0  0  0  0  0  0
  160.9120  213.2900  145.1690 N   0  0  0  0  0  0  0  0  0  0  0  0
  159.2190  212.8700  146.8080 C   0  0  0  0  0  3  0  0  0  0  0  0
  158.2400  213.1960  145.8660 C   0  0  0  0  0  3  0  0  0  0  0  0
  162.2330  206.3150  151.1770 C   0  0  0  0  0  2  0  0  0  0  0  0
  161.2740  205.1350  151.1100 C   0  0  2  0  0  3  0  0  0  0  0  0
  161.9590  203.9660  151.4530 O   0  0  0  0  0  1  0  0  0  0  0  0
  160.7000  205.0190  149.7020 C   0  0  1  0  0  3  0  0  0  0  0  0
  160.0160  206.1860  149.3620 O   0  0  0  0  0  1  0  0  0  0  0  0
  161.8310  204.8050  148.7090 C   0  0  0  0  0  2  0  0  0  0  0  0
  160.7840  201.8080  145.8190 C   0  0  0  0  0  3  0  0  0  0  0  0
  161.1230  202.4680  148.1330 C   0  0  0  0  0  3  0  0  0  0  0  0
  160.7810  201.4940  147.1860 C   0  0  0  0  0  3  0  0  0  0  0  0
  161.1350  203.0930  145.3970 C   0  0  0  0  0  3  0  0  0  0  0  0
  161.4690  203.7570  147.7130 C   0  0  0  0  0  0  0  0  0  0  0  0
  161.4790  204.0660  146.3430 C   0  0  0  0  0  3  0  0  0  0  0  0
  1 10  1  1  0  0  0
  1 15  1  0  0  0  0
  2 28  1  6  0  0  0
  2  1  1  0  0  0  0
  3  5  2  0  0  0  0
  5  4  1  0  0  0  0
  6 16  1  0  0  0  0
  7  4  1  6  0  0  0
  7 14  1  0  0  0  0
  7  6  1  0  0  0  0
  8  5  1  1  0  0  0
  8  2  1  0  0  0  0
  8 14  1  0  0  0  0
 11  4  2  0  0  0  0
 12 16  1  0  0  0  0
 12 13  1  0  0  0  0
 13  9  2  0  0  0  0
 14 12  1  1  0  0  0
 15 10  1  1  0  0  0
 15 13  1  0  0  0  0
 18 19  1  0  0  0  0
 18 17  1  6  0  0  0
 19 17  1  0  0  0  0
 19 11  1  1  0  0  0
 20 18  1  0  0  0  0
 20 19  1  0  0  0  0
 21 24  1  0  0  0  0
 22 24  2  0  0  0  0
 22 25  1  0  0  0  0
 23 26  1  0  0  0  0
 23 20  1  0  0  0  0
 24 27  1  0  0  0  0
 25 23  2  0  0  0  0
 27 26  2  0  0  0  0
 29 28  1  0  0  0  0
 29 30  1  6  0  0  0
 31 32  1  6  0  0  0
 31 29  1  0  0  0  0
 33 31  1  0  0  0  0
 34 36  1  0  0  0  0
 36 35  2  0  0  0  0
 37 34  2  0  0  0  0
 37 39  1  0  0  0  0
 38 35  1  0  0  0  0
 38 33  1  0  0  0  0
 39 38  2  0  0  0  0
M  END
>  <MODEL>
1

>  <REMARK>
 VINA RESULT:      -7.9      0.000      0.000
  Name = 
  7 active torsions:
  status: ('A' for Active; 'I' for Inactive)
    1  A    between atoms: C_4  and  C_36
    2  A    between atoms: C_6  and  C_18
    3  A    between atoms: C_6  and  C_36
    4  A    between atoms: C_17  and  N_39
    5  A    between atoms: C_18  and  C_32
    6  A    between atoms: N_22  and  C_23
    7  A    between atoms: C_32  and  C_35
                            x       y       z     vdW  Elec       q    Type
                         _______ _______ _______ _____ _____    ______ ____

>  <TORSDO>
F 7

$$$$
=
 OpenBabel11072415033D

 39 46  0  0  1  0  0  0  0  0999 V2000
  162.6640  211.7290  149.1540 C   0  0  1  0  0  3  0  0  0  0  0  0
  161.5350  211.0070  149.9040 C   0  0  2  0  0  3  0  0  0  0  0  0
  160.2860  210.4590  152.7020 O   0  0  0  0  0  0  0  0  0  0  0  0
  158.9800  212.4750  152.2440 C   0  0  0  0  0  0  0  0  0  0  0  0
  160.0490  211.4930  152.0250 C   0  0  0  0  0  0  0  0  0  0  0  0
  158.1330  213.7110  150.3480 O   0  0  0  0  0  0  0  0  0  0  0  0
  159.1980  213.5930  151.2800 C   0  0  2  0  0  3  0  0  0  0  0  0
  160.8370  211.9340  150.8750 C   0  0  2  0  0  3  0  0  0  0  0  0
  160.2870  213.0930  146.8730 O   0  0  0  0  0  0  0  0  0  0  0  0
  162.5440  211.4570  147.7770 O   0  0  0  0  0  0  0  0  0  0  0  0
  157.9990  212.4880  153.1130 N   0  0  0  0  0  0  0  0  0  0  0  0
  160.0090  213.3980  149.1700 N   0  0  0  0  0  0  0  0  0  0  0  0
  160.8040  213.0700  148.0240 C   0  0  0  0  0  0  0  0  0  0  0  0
  160.3260  213.1050  150.4920 C   0  0  1  0  0  3  0  0  0  0  0  0
  162.2740  212.7850  148.1630 C   0  0  1  0  0  3  0  0  0  0  0  0
  158.6960  213.8850  149.0980 N   0  0  0  0  0  2  0  0  0  0  0  0
  156.1120  211.7670  154.5950 C   0  0  0  0  0  2  0  0  0  0  0  0
  157.3320  212.2350  155.3420 C   0  0  2  0  0  3  0  0  0  0  0  0
  157.5290  211.5460  154.1420 C   0  0  2  0  0  0  0  0  0  0  0  0
  158.4830  211.2770  155.2530 N   0  0  0  0  0  0  0  0  0  0  0  0
  163.0910  208.9230  157.2610 F   0  0  0  0  0  0  0  0  0  0  0  0
  161.9320  210.8420  156.4400 C   0  0  0  0  0  3  0  0  0  0  0  0
  159.6540  210.6620  155.7790 C   0  0  0  0  0  0  0  0  0  0  0  0
  161.9560  209.4860  156.7820 C   0  0  0  0  0  0  0  0  0  0  0  0
  160.7880  211.3970  155.9520 N   0  0  0  0  0  0  0  0  0  0  0  0
  159.6440  209.3000  156.1000 C   0  0  0  0  0  3  0  0  0  0  0  0
  160.8060  208.7120  156.6060 C   0  0  0  0  0  3  0  0  0  0  0  0
  162.1240  209.7900  150.6060 C   0  0  0  0  0  2  0  0  0  0  0  0
  162.3160  208.6410  149.6270 C   0  0  2  0  0  3  0  0  0  0  0  0
  161.3680  208.7440  148.6060 O   0  0  0  0  0  1  0  0  0  0  0  0
  162.1660  207.3120  150.3580 C   0  0  1  0  0  3  0  0  0  0  0  0
  162.3140  207.4960  151.7320 O   0  0  0  0  0  1  0  0  0  0  0  0
  160.7850  206.7370  150.0860 C   0  0  0  0  0  2  0  0  0  0  0  0
  161.0170  202.5120  149.3560 C   0  0  0  0  0  3  0  0  0  0  0  0
  161.0910  204.7950  148.5260 C   0  0  0  0  0  3  0  0  0  0  0  0
  161.1680  203.4160  148.2930 C   0  0  0  0  0  3  0  0  0  0  0  0
  160.7850  202.9860  150.6490 C   0  0  0  0  0  3  0  0  0  0  0  0
  160.8640  205.2720  149.8220 C   0  0  0  0  0  0  0  0  0  0  0  0
  160.7060  204.3650  150.8820 C   0  0  0  0  0  3  0  0  0  0  0  0
  1 10  1  6  0  0  0
  1  2  1  0  0  0  0
  2 28  1  1  0  0  0
  2  8  1  0  0  0  0
  4 11  2  0  0  0  0
  5  4  1  0  0  0  0
  5  3  2  0  0  0  0
  7  6  1  6  0  0  0
  7  4  1  0  0  0  0
  8  5  1  6  0  0  0
  9 13  2  0  0  0  0
 13 15  1  0  0  0  0
 13 12  1  0  0  0  0
 14 12  1  6  0  0  0
 14  8  1  0  0  0  0
 14  7  1  0  0  0  0
 15 10  1  6  0  0  0
 15  1  1  0  0  0  0
 16 12  1  0  0  0  0
 16  6  1  0  0  0  0
 18 17  1  1  0  0  0
 19 11  1  6  0  0  0
 19 17  1  0  0  0  0
 19 20  1  0  0  0  0
 19 18  1  0  0  0  0
 20 18  1  0  0  0  0
 20 23  1  0  0  0  0
 22 24  1  0  0  0  0
 23 25  1  0  0  0  0
 23 26  2  0  0  0  0
 24 21  1  0  0  0  0
 25 22  2  0  0  0  0
 26 27  1  0  0  0  0
 27 24  2  0  0  0  0
 29 30  1  6  0  0  0
 29 31  1  0  0  0  0
 29 28  1  0  0  0  0
 31 32  1  1  0  0  0
 33 31  1  0  0  0  0
 34 37  1  0  0  0  0
 35 38  2  0  0  0  0
 36 35  1  0  0  0  0
 36 34  2  0  0  0  0
 37 39  2  0  0  0  0
 38 33  1  0  0  0  0
 38 39  1  0  0  0  0
M  END
>  <MODEL>
2

>  <REMARK>
 VINA RESULT:      -7.7      3.583      7.289
  Name = 
  7 active torsions:
  status: ('A' for Active; 'I' for Inactive)
    1  A    between atoms: C_4  and  C_36
    2  A    between atoms: C_6  and  C_18
    3  A    between atoms: C_6  and  C_36
    4  A    between atoms: C_17  and  N_39
    5  A    between atoms: C_18  and  C_32
    6  A    between atoms: N_22  and  C_23
    7  A    between atoms: C_32  and  C_35
                            x       y       z     vdW  Elec       q    Type
                         _______ _______ _______ _____ _____    ______ ____

>  <TORSDO>
F 7

$$$$
=
 OpenBabel11072415033D

 39 46  0  0  1  0  0  0  0  0999 V2000
  161.2540  211.0440  154.3180 C   0  0  1  0  0  3  0  0  0  0  0  0
  160.7320  210.4030  153.0230 C   0  0  2  0  0  3  0  0  0  0  0  0
  161.5450  209.2600  150.2450 O   0  0  0  0  0  0  0  0  0  0  0  0
  161.7670  207.1450  151.4520 C   0  0  0  0  0  0  0  0  0  0  0  0
  161.6000  208.5970  151.3130 C   0  0  0  0  0  0  0  0  0  0  0  0
  160.8580  206.0540  153.4080 O   0  0  0  0  0  0  0  0  0  0  0  0
  161.9210  206.8520  152.9070 C   0  0  2  0  0  3  0  0  0  0  0  0
  161.5310  209.1730  152.6550 C   0  0  2  0  0  3  0  0  0  0  0  0
  159.3980  208.6850  156.2430 O   0  0  0  0  0  0  0  0  0  0  0  0
  160.1630  211.3030  155.1710 O   0  0  0  0  0  0  0  0  0  0  0  0
  161.8240  206.2020  150.5440 N   0  0  0  0  0  0  0  0  0  0  0  0
  160.8860  207.9420  154.6060 N   0  0  0  0  0  0  0  0  0  0  0  0
  160.3750  208.9480  155.4900 C   0  0  0  0  0  0  0  0  0  0  0  0
  161.7130  208.1650  153.5100 C   0  0  1  0  0  3  0  0  0  0  0  0
  161.0450  210.2910  155.5970 C   0  0  1  0  0  3  0  0  0  0  0  0
  160.4570  206.6080  154.6080 N   0  0  0  0  0  2  0  0  0  0  0  0
  161.1660  207.4610  148.4800 C   0  0  0  0  0  2  0  0  0  0  0  0
  160.3290  206.2380  148.7440 C   0  0  2  0  0  3  0  0  0  0  0  0
  161.6850  206.1820  149.0780 C   0  0  2  0  0  0  0  0  0  0  0  0
  161.0680  204.9540  148.5060 N   0  0  0  0  0  0  0  0  0  0  0  0
  161.2380  199.6220  146.9760 F   0  0  0  0  0  0  0  0  0  0  0  0
  161.1920  201.9400  146.4090 C   0  0  0  0  0  3  0  0  0  0  0  0
  161.1220  203.5830  148.1290 C   0  0  0  0  0  0  0  0  0  0  0  0
  161.2080  200.9190  147.3650 C   0  0  0  0  0  0  0  0  0  0  0  0
  161.1530  203.2420  146.8100 N   0  0  0  0  0  0  0  0  0  0  0  0
  161.1250  202.5870  149.1130 C   0  0  0  0  0  3  0  0  0  0  0  0
  161.1690  201.2470  148.7230 C   0  0  0  0  0  3  0  0  0  0  0  0
  160.7640  211.4520  151.9190 C   0  0  0  0  0  2  0  0  0  0  0  0
  159.5620  212.3790  152.0170 C   0  0  2  0  0  3  0  0  0  0  0  0
  158.4620  211.6560  152.4870 O   0  0  0  0  0  1  0  0  0  0  0  0
  159.2580  212.9740  150.6470 C   0  0  1  0  0  3  0  0  0  0  0  0
  158.0400  213.6520  150.6730 O   0  0  0  0  0  1  0  0  0  0  0  0
  160.3570  213.9540  150.2660 C   0  0  0  0  0  2  0  0  0  0  0  0
  161.7300  213.2090  146.2670 C   0  0  0  0  0  3  0  0  0  0  0  0
  161.9510  212.8660  148.6630 C   0  0  0  0  0  3  0  0  0  0  0  0
  162.3940  212.6250  147.3560 C   0  0  0  0  0  3  0  0  0  0  0  0
  160.6270  214.0390  146.4840 C   0  0  0  0  0  3  0  0  0  0  0  0
  160.8430  213.6920  148.8810 C   0  0  0  0  0  0  0  0  0  0  0  0
  160.1850  214.2820  147.7900 C   0  0  0  0  0  3  0  0  0  0  0  0
  1 10  1  1  0  0  0
  1 15  1  0  0  0  0
  2 28  1  6  0  0  0
  2  1  1  0  0  0  0
  3  5  2  0  0  0  0
  5  4  1  0  0  0  0
  6 16  1  0  0  0  0
  7  4  1  6  0  0  0
  7  6  1  0  0  0  0
  7 14  1  0  0  0  0
  8  5  1  6  0  0  0
  8  2  1  0  0  0  0
  8 14  1  0  0  0  0
 11  4  2  0  0  0  0
 12 16  1  0  0  0  0
 12 13  1  0  0  0  0
 13 15  1  0  0  0  0
 13  9  2  0  0  0  0
 14 12  1  1  0  0  0
 15 10  1  1  0  0  0
 17 19  1  0  0  0  0
 18 17  1  6  0  0  0
 18 19  1  0  0  0  0
 19 11  1  1  0  0  0
 20 18  1  0  0  0  0
 20 19  1  0  0  0  0
 21 24  1  0  0  0  0
 22 25  2  0  0  0  0
 22 24  1  0  0  0  0
 23 20  1  0  0  0  0
 23 26  2  0  0  0  0
 24 27  2  0  0  0  0
 25 23  1  0  0  0  0
 27 26  1  0  0  0  0
 28 29  1  0  0  0  0
 29 30  1  6  0  0  0
 31 32  1  1  0  0  0
 31 29  1  0  0  0  0
 33 31  1  0  0  0  0
 34 37  2  0  0  0  0
 34 36  1  0  0  0  0
 35 38  1  0  0  0  0
 36 35  2  0  0  0  0
 37 39  1  0  0  0  0
 38 33  1  0  0  0  0
 39 38  2  0  0  0  0
M  END
>  <MODEL>
3

>  <REMARK>
 VINA RESULT:      -7.5      3.588      7.933
  Name = 
  7 active torsions:
  status: ('A' for Active; 'I' for Inactive)
    1  A    between atoms: C_4  and  C_36
    2  A    between atoms: C_6  and  C_18
    3  A    between atoms: C_6  and  C_36
    4  A    between atoms: C_17  and  N_39
    5  A    between atoms: C_18  and  C_32
    6  A    between atoms: N_22  and  C_23
    7  A    between atoms: C_32  and  C_35
                            x       y       z     vdW  Elec       q    Type
                         _______ _______ _______ _____ _____    ______ ____

>  <TORSDO>
F 7

$$$$
=
 OpenBabel11072415033D

 39 46  0  0  1  0  0  0  0  0999 V2000
  160.7710  210.7100  154.9170 C   0  0  1  0  0  3  0  0  0  0  0  0
  160.3760  210.2030  153.5220 C   0  0  2  0  0  3  0  0  0  0  0  0
  161.4190  209.5620  150.6600 O   0  0  0  0  0  0  0  0  0  0  0  0
  161.8490  207.3370  151.5800 C   0  0  0  0  0  0  0  0  0  0  0  0
  161.5140  208.7660  151.6300 C   0  0  0  0  0  0  0  0  0  0  0  0
  161.0080  205.8850  153.3200 O   0  0  0  0  0  0  0  0  0  0  0  0
  161.9850  206.8610  152.9870 C   0  0  2  0  0  3  0  0  0  0  0  0
  161.3290  209.1360  153.0330 C   0  0  2  0  0  3  0  0  0  0  0  0
  159.1420  207.9080  156.4050 O   0  0  0  0  0  0  0  0  0  0  0  0
  159.6270  210.7210  155.7390 O   0  0  0  0  0  0  0  0  0  0  0  0
  162.0510  206.5440  150.5560 N   0  0  0  0  0  0  0  0  0  0  0  0
  160.7670  207.5780  154.7620 N   0  0  0  0  0  0  0  0  0  0  0  0
  160.1070  208.3840  155.7470 C   0  0  0  0  0  0  0  0  0  0  0  0
  161.5990  208.0450  153.7520 C   0  0  1  0  0  3  0  0  0  0  0  0
  160.6080  209.7650  156.0700 C   0  0  1  0  0  3  0  0  0  0  0  0
  160.5000  206.2160  154.5620 N   0  0  0  0  0  2  0  0  0  0  0  0
  161.5790  208.0970  148.6480 C   0  0  0  0  0  2  0  0  0  0  0  0
  160.6350  206.9290  148.7330 C   0  0  2  0  0  3  0  0  0  0  0  0
  161.9680  206.7150  149.0960 C   0  0  2  0  0  0  0  0  0  0  0  0
  161.2740  205.6240  148.3580 N   0  0  0  0  0  0  0  0  0  0  0  0
  161.0610  200.5230  146.1820 F   0  0  0  0  0  0  0  0  0  0  0  0
  161.1890  202.8910  145.9050 C   0  0  0  0  0  3  0  0  0  0  0  0
  161.2290  204.3090  147.8150 C   0  0  0  0  0  0  0  0  0  0  0  0
  161.1230  201.7600  146.7280 C   0  0  0  0  0  0  0  0  0  0  0  0
  161.2440  204.1320  146.4630 N   0  0  0  0  0  0  0  0  0  0  0  0
  161.1530  203.2030  148.6680 C   0  0  0  0  0  3  0  0  0  0  0  0
  161.1000  201.9210  148.1150 C   0  0  0  0  0  3  0  0  0  0  0  0
  160.3220  211.3940  152.5740 C   0  0  0  0  0  2  0  0  0  0  0  0
  158.8920  211.8800  152.3960 C   0  0  2  0  0  3  0  0  0  0  0  0
  158.7240  212.3450  151.0880 O   0  0  0  0  0  1  0  0  0  0  0  0
  158.5980  212.9930  153.3960 C   0  0  1  0  0  3  0  0  0  0  0  0
  159.2980  214.1480  153.0540 O   0  0  0  0  0  1  0  0  0  0  0  0
  157.1090  213.3010  153.3880 C   0  0  0  0  0  2  0  0  0  0  0  0
  155.2780  212.0860  157.0760 C   0  0  0  0  0  3  0  0  0  0  0  0
  156.1500  213.8430  155.6420 C   0  0  0  0  0  3  0  0  0  0  0  0
  155.5510  213.4420  156.8430 C   0  0  0  0  0  3  0  0  0  0  0  0
  155.6070  211.1300  156.1110 C   0  0  0  0  0  3  0  0  0  0  0  0
  156.4760  212.8880  154.6720 C   0  0  0  0  0  0  0  0  0  0  0  0
  156.2080  211.5310  154.9110 C   0  0  0  0  0  3  0  0  0  0  0  0
  1 10  1  1  0  0  0
  1 15  1  0  0  0  0
  2 28  1  6  0  0  0
  2  1  1  0  0  0  0
  3  5  2  0  0  0  0
  4  5  1  0  0  0  0
  6 16  1  0  0  0  0
  7  4  1  6  0  0  0
  7  6  1  0  0  0  0
  7 14  1  0  0  0  0
  8  5  1  6  0  0  0
  8  2  1  0  0  0  0
  8 14  1  0  0  0  0
 11  4  2  0  0  0  0
 12 13  1  0  0  0  0
 13 15  1  0  0  0  0
 13  9  2  0  0  0  0
 14 12  1  6  0  0  0
 15 10  1  1  0  0  0
 16 12  1  0  0  0  0
 17 19  1  0  0  0  0
 18 17  1  6  0  0  0
 18 19  1  0  0  0  0
 19 11  1  1  0  0  0
 20 18  1  0  0  0  0
 20 19  1  0  0  0  0
 21 24  1  0  0  0  0
 22 25  2  0  0  0  0
 22 24  1  0  0  0  0
 23 20  1  0  0  0  0
 23 26  2  0  0  0  0
 24 27  2  0  0  0  0
 25 23  1  0  0  0  0
 27 26  1  0  0  0  0
 29 30  1  6  0  0  0
 29 28  1  0  0  0  0
 29 31  1  0  0  0  0
 31 32  1  6  0  0  0
 33 31  1  0  0  0  0
 33 38  1  0  0  0  0
 35 36  2  0  0  0  0
 36 34  1  0  0  0  0
 37 34  2  0  0  0  0
 38 39  2  0  0  0  0
 38 35  1  0  0  0  0
 39 37  1  0  0  0  0
M  END
>  <MODEL>
4

>  <REMARK>
 VINA RESULT:      -6.5      4.245      8.642
  Name = 
  7 active torsions:
  status: ('A' for Active; 'I' for Inactive)
    1  A    between atoms: C_4  and  C_36
    2  A    between atoms: C_6  and  C_18
    3  A    between atoms: C_6  and  C_36
    4  A    between atoms: C_17  and  N_39
    5  A    between atoms: C_18  and  C_32
    6  A    between atoms: N_22  and  C_23
    7  A    between atoms: C_32  and  C_35
                            x       y       z     vdW  Elec       q    Type
                         _______ _______ _______ _____ _____    ______ ____

>  <TORSDO>
F 7

$$$$
=
 OpenBabel11072415033D

 39 46  0  0  1  0  0  0  0  0999 V2000
  160.7140  209.0110  154.8080 C   0  0  1  0  0  3  0  0  0  0  0  0
  160.4910  210.1070  153.7560 C   0  0  2  0  0  3  0  0  0  0  0  0
  158.3800  211.4910  151.9350 O   0  0  0  0  0  0  0  0  0  0  0  0
  158.0520  212.9700  153.8550 C   0  0  0  0  0  0  0  0  0  0  0  0
  158.5560  211.7880  153.1450 C   0  0  0  0  0  0  0  0  0  0  0  0
  159.2960  213.8050  155.7520 O   0  0  0  0  0  0  0  0  0  0  0  0
  158.3960  212.8050  155.2970 C   0  0  2  0  0  3  0  0  0  0  0  0
  159.2980  210.9700  154.1040 C   0  0  2  0  0  3  0  0  0  0  0  0
  162.4190  211.3480  156.8940 O   0  0  0  0  0  0  0  0  0  0  0  0
  162.0750  209.0000  155.1750 O   0  0  0  0  0  0  0  0  0  0  0  0
  157.3840  214.0080  153.4150 N   0  0  0  0  0  0  0  0  0  0  0  0
  160.2690  211.8250  156.1200 N   0  0  0  0  0  0  0  0  0  0  0  0
  161.3450  210.9170  156.3920 C   0  0  0  0  0  0  0  0  0  0  0  0
  159.1840  211.5750  155.2870 C   0  0  1  0  0  3  0  0  0  0  0  0
  161.1780  209.4390  156.1690 C   0  0  1  0  0  3  0  0  0  0  0  0
  160.2690  213.1730  156.5030 N   0  0  0  0  0  2  0  0  0  0  0  0
  155.4420  214.4460  151.8940 C   0  0  0  0  0  2  0  0  0  0  0  0
  156.3660  213.3620  151.4090 C   0  0  2  0  0  3  0  0  0  0  0  0
  156.9340  214.4470  152.0830 C   0  0  2  0  0  0  0  0  0  0  0  0
  157.6890  213.8840  150.9300 N   0  0  0  0  0  0  0  0  0  0  0  0
  162.1460  213.5910  147.6360 F   0  0  0  0  0  0  0  0  0  0  0  0
  159.8170  213.2240  148.0100 C   0  0  0  0  0  3  0  0  0  0  0  0
  158.8390  213.8250  150.0930 C   0  0  0  0  0  0  0  0  0  0  0  0
  161.0660  213.6790  148.4470 C   0  0  0  0  0  0  0  0  0  0  0  0
  158.7380  213.3090  148.8360 N   0  0  0  0  0  0  0  0  0  0  0  0
  160.0730  214.2810  150.5680 C   0  0  0  0  0  3  0  0  0  0  0  0
  161.1920  214.2060  149.7350 C   0  0  0  0  0  3  0  0  0  0  0  0
  160.3340  209.4430  152.3950 C   0  0  0  0  0  2  0  0  0  0  0  0
  161.6820  209.2910  151.7070 C   0  0  2  0  0  3  0  0  0  0  0  0
  161.8530  210.3350  150.7940 O   0  0  0  0  0  1  0  0  0  0  0  0
  161.7460  207.9460  150.9920 C   0  0  1  0  0  3  0  0  0  0  0  0
  163.0520  207.4590  150.9930 O   0  0  0  0  0  1  0  0  0  0  0  0
  160.8490  206.9480  151.7080 C   0  0  0  0  0  2  0  0  0  0  0  0
  161.0880  203.0750  149.8710 C   0  0  0  0  0  3  0  0  0  0  0  0
  160.7640  205.4760  149.6780 C   0  0  0  0  0  3  0  0  0  0  0  0
  160.8440  204.2100  149.0840 C   0  0  0  0  0  3  0  0  0  0  0  0
  161.2450  203.2040  151.2540 C   0  0  0  0  0  3  0  0  0  0  0  0
  160.9270  205.6070  151.0620 C   0  0  0  0  0  0  0  0  0  0  0  0
  161.1630  204.4680  151.8490 C   0  0  0  0  0  3  0  0  0  0  0  0
  1 10  1  6  0  0  0
  1 15  1  0  0  0  0
  2 28  1  6  0  0  0
  2  8  1  0  0  0  0
  2  1  1  0  0  0  0
  3  5  2  0  0  0  0
  5  4  1  0  0  0  0
  6 16  1  0  0  0  0
  7  4  1  6  0  0  0
  7  6  1  0  0  0  0
  8  5  1  6  0  0  0
  8 14  1  0  0  0  0
 11  4  2  0  0  0  0
 12 13  1  0  0  0  0
 12 16  1  0  0  0  0
 13  9  2  0  0  0  0
 14  7  1  0  0  0  0
 14 12  1  6  0  0  0
 15 10  1  6  0  0  0
 15 13  1  0  0  0  0
 17 19  1  0  0  0  0
 18 17  1  6  0  0  0
 18 19  1  0  0  0  0
 19 11  1  1  0  0  0
 20 18  1  0  0  0  0
 20 19  1  0  0  0  0
 21 24  1  0  0  0  0
 22 24  2  0  0  0  0
 22 25  1  0  0  0  0
 23 26  1  0  0  0  0
 23 20  1  0  0  0  0
 24 27  1  0  0  0  0
 25 23  2  0  0  0  0
 27 26  2  0  0  0  0
 29 30  1  6  0  0  0
 29 28  1  0  0  0  0
 31 32  1  1  0  0  0
 31 29  1  0  0  0  0
 31 33  1  0  0  0  0
 34 37  1  0  0  0  0
 35 38  2  0  0  0  0
 36 35  1  0  0  0  0
 36 34  2  0  0  0  0
 37 39  2  0  0  0  0
 38 33  1  0  0  0  0
 38 39  1  0  0  0  0
M  END
>  <MODEL>
5

>  <REMARK>
 VINA RESULT:      -6.1      3.090      4.691
  Name = 
  7 active torsions:
  status: ('A' for Active; 'I' for Inactive)
    1  A    between atoms: C_4  and  C_36
    2  A    between atoms: C_6  and  C_18
    3  A    between atoms: C_6  and  C_36
    4  A    between atoms: C_17  and  N_39
    5  A    between atoms: C_18  and  C_32
    6  A    between atoms: N_22  and  C_23
    7  A    between atoms: C_32  and  C_35
                            x       y       z     vdW  Elec       q    Type
                         _______ _______ _______ _____ _____    ______ ____

>  <TORSDO>
F 7

$$$$
=
 OpenBabel11072415033D

 39 46  0  0  1  0  0  0  0  0999 V2000
  161.3550  208.7070  148.7450 C   0  0  1  0  0  3  0  0  0  0  0  0
  162.0380  209.1340  150.0520 C   0  0  2  0  0  3  0  0  0  0  0  0
  161.6160  210.5260  152.8040 O   0  0  0  0  0  0  0  0  0  0  0  0
  161.0580  208.2760  153.5820 C   0  0  0  0  0  0  0  0  0  0  0  0
  161.3420  209.3170  152.5870 C   0  0  0  0  0  0  0  0  0  0  0  0
  161.5600  205.9760  153.0320 O   0  0  0  0  0  0  0  0  0  0  0  0
  160.6490  207.0490  152.8380 C   0  0  2  0  0  3  0  0  0  0  0  0
  161.2290  208.7140  151.2590 C   0  0  2  0  0  3  0  0  0  0  0  0
  162.7100  205.4280  149.0990 O   0  0  0  0  0  0  0  0  0  0  0  0
  162.3070  208.0790  147.9170 O   0  0  0  0  0  0  0  0  0  0  0  0
  161.0870  208.3170  154.8920 N   0  0  0  0  0  0  0  0  0  0  0  0
  161.4630  206.3690  150.8320 N   0  0  0  0  0  0  0  0  0  0  0  0
  161.8890  206.3130  149.4650 C   0  0  0  0  0  0  0  0  0  0  0  0
  160.8430  207.4510  151.4480 C   0  0  1  0  0  3  0  0  0  0  0  0
  161.3010  207.2410  148.4370 C   0  0  1  0  0  3  0  0  0  0  0  0
  161.7960  205.4070  151.7950 N   0  0  0  0  0  2  0  0  0  0  0  0
  162.3320  208.8520  156.9990 C   0  0  0  0  0  2  0  0  0  0  0  0
  160.8450  209.0610  157.0970 C   0  0  2  0  0  3  0  0  0  0  0  0
  161.4620  209.3460  155.8760 C   0  0  2  0  0  0  0  0  0  0  0  0
  160.3620  210.2480  156.3160 N   0  0  0  0  0  0  0  0  0  0  0  0
  156.8270  214.4430  155.4750 F   0  0  0  0  0  0  0  0  0  0  0  0
  157.3580  212.3530  156.5000 C   0  0  0  0  0  3  0  0  0  0  0  0
  159.4710  211.3360  156.0990 C   0  0  0  0  0  0  0  0  0  0  0  0
  157.7050  213.4320  155.6790 C   0  0  0  0  0  0  0  0  0  0  0  0
  158.2440  211.3370  156.6940 N   0  0  0  0  0  0  0  0  0  0  0  0
  159.8480  212.3920  155.2630 C   0  0  0  0  0  3  0  0  0  0  0  0
  158.9550  213.4460  155.0550 C   0  0  0  0  0  3  0  0  0  0  0  0
  162.2570  210.6410  150.0120 C   0  0  0  0  0  2  0  0  0  0  0  0
  162.1980  211.1590  148.5820 C   0  0  2  0  0  3  0  0  0  0  0  0
  163.4470  211.6780  148.2300 O   0  0  0  0  0  1  0  0  0  0  0  0
  161.1250  212.2360  148.4690 C   0  0  1  0  0  3  0  0  0  0  0  0
  160.8300  212.7600  149.7270 O   0  0  0  0  0  1  0  0  0  0  0  0
  161.6260  213.3590  147.5750 C   0  0  0  0  0  2  0  0  0  0  0  0
  160.8160  212.5290  143.4420 C   0  0  0  0  0  3  0  0  0  0  0  0
  160.0820  212.5780  145.7580 C   0  0  0  0  0  3  0  0  0  0  0  0
  159.8220  212.3110  144.4080 C   0  0  0  0  0  3  0  0  0  0  0  0
  162.0710  213.0090  143.8250 C   0  0  0  0  0  3  0  0  0  0  0  0
  161.3370  213.0650  146.1430 C   0  0  0  0  0  0  0  0  0  0  0  0
  162.3320  213.2750  145.1750 C   0  0  0  0  0  3  0  0  0  0  0  0
  1 10  1  6  0  0  0
  1  2  1  0  0  0  0
  2 28  1  6  0  0  0
  2  8  1  0  0  0  0
  4 11  2  0  0  0  0
  5  3  2  0  0  0  0
  5  4  1  0  0  0  0
  7  6  1  1  0  0  0
  7  4  1  0  0  0  0
  8 14  1  0  0  0  0
  8  5  1  1  0  0  0
  9 13  2  0  0  0  0
 12 16  1  0  0  0  0
 13 12  1  0  0  0  0
 14 12  1  1  0  0  0
 14  7  1  0  0  0  0
 15 10  1  6  0  0  0
 15  1  1  0  0  0  0
 15 13  1  0  0  0  0
 16  6  1  0  0  0  0
 18 17  1  1  0  0  0
 19 11  1  6  0  0  0
 19 20  1  0  0  0  0
 19 17  1  0  0  0  0
 19 18  1  0  0  0  0
 20 18  1  0  0  0  0
 21 24  1  0  0  0  0
 22 25  1  0  0  0  0
 23 20  1  0  0  0  0
 23 25  2  0  0  0  0
 24 22  2  0  0  0  0
 26 23  1  0  0  0  0
 27 26  2  0  0  0  0
 27 24  1  0  0  0  0
 29 30  1  1  0  0  0
 29 28  1  0  0  0  0
 31 29  1  0  0  0  0
 31 32  1  1  0  0  0
 33 31  1  0  0  0  0
 34 37  2  0  0  0  0
 34 36  1  0  0  0  0
 35 38  1  0  0  0  0
 36 35  2  0  0  0  0
 37 39  1  0  0  0  0
 38 33  1  0  0  0  0
 39 38  2  0  0  0  0
M  END
>  <MODEL>
6

>  <REMARK>
 VINA RESULT:      -5.8      3.637      7.979
  Name = 
  7 active torsions:
  status: ('A' for Active; 'I' for Inactive)
    1  A    between atoms: C_4  and  C_36
    2  A    between atoms: C_6  and  C_18
    3  A    between atoms: C_6  and  C_36
    4  A    between atoms: C_17  and  N_39
    5  A    between atoms: C_18  and  C_32
    6  A    between atoms: N_22  and  C_23
    7  A    between atoms: C_32  and  C_35
                            x       y       z     vdW  Elec       q    Type
                         _______ _______ _______ _____ _____    ______ ____

>  <TORSDO>
F 7

$$$$
=
 OpenBabel11072415033D

 39 46  0  0  1  0  0  0  0  0999 V2000
  161.5820  209.1480  148.6890 C   0  0  1  0  0  3  0  0  0  0  0  0
  162.1410  209.5540  150.0600 C   0  0  2  0  0  3  0  0  0  0  0  0
  161.4190  210.7050  152.8610 O   0  0  0  0  0  0  0  0  0  0  0  0
  161.0640  208.3610  153.4620 C   0  0  0  0  0  0  0  0  0  0  0  0
  161.2900  209.4910  152.5530 C   0  0  0  0  0  0  0  0  0  0  0  0
  161.8390  206.1680  152.8050 O   0  0  0  0  0  0  0  0  0  0  0  0
  160.8310  207.1520  152.6210 C   0  0  2  0  0  3  0  0  0  0  0  0
  161.3160  208.9720  151.1870 C   0  0  2  0  0  3  0  0  0  0  0  0
  163.2580  206.0100  148.9240 O   0  0  0  0  0  0  0  0  0  0  0  0
  162.6390  208.6790  147.8850 O   0  0  0  0  0  0  0  0  0  0  0  0
  161.0160  208.3160  154.7710 N   0  0  0  0  0  0  0  0  0  0  0  0
  161.8230  206.6980  150.6310 N   0  0  0  0  0  0  0  0  0  0  0  0
  162.3280  206.7790  149.2920 C   0  0  0  0  0  0  0  0  0  0  0  0
  161.0580  207.6660  151.2720 C   0  0  1  0  0  3  0  0  0  0  0  0
  161.7020  207.7080  148.2890 C   0  0  1  0  0  3  0  0  0  0  0  0
  162.2040  205.7120  151.5520 N   0  0  0  0  0  2  0  0  0  0  0  0
  161.9630  208.7910  157.0420 C   0  0  0  0  0  2  0  0  0  0  0  0
  160.4680  208.9460  156.9580 C   0  0  2  0  0  3  0  0  0  0  0  0
  161.2230  209.3090  155.8390 C   0  0  2  0  0  0  0  0  0  0  0  0
  160.0420  210.1510  156.1740 N   0  0  0  0  0  0  0  0  0  0  0  0
  156.5100  214.3080  155.1450 F   0  0  0  0  0  0  0  0  0  0  0  0
  157.9900  213.1640  156.6290 C   0  0  0  0  0  3  0  0  0  0  0  0
  159.1420  211.2180  155.8920 C   0  0  0  0  0  0  0  0  0  0  0  0
  157.3780  213.2950  155.3780 C   0  0  0  0  0  0  0  0  0  0  0  0
  158.8560  212.1380  156.8560 N   0  0  0  0  0  0  0  0  0  0  0  0
  158.5400  211.3100  154.6320 C   0  0  0  0  0  3  0  0  0  0  0  0
  157.6530  212.3580  154.3780 C   0  0  0  0  0  3  0  0  0  0  0  0
  162.1980  211.0750  150.1270 C   0  0  0  0  0  2  0  0  0  0  0  0
  161.9380  211.6870  148.7590 C   0  0  2  0  0  3  0  0  0  0  0  0
  163.1580  211.8980  148.1100 O   0  0  0  0  0  1  0  0  0  0  0  0
  161.1860  213.0040  148.9190 C   0  0  1  0  0  3  0  0  0  0  0  0
  161.9720  214.0650  148.4720 O   0  0  0  0  0  1  0  0  0  0  0  0
  159.9070  212.9600  148.0980 C   0  0  0  0  0  2  0  0  0  0  0  0
  156.5390  214.0820  150.5120 C   0  0  0  0  0  3  0  0  0  0  0  0
  157.4440  213.3430  148.3810 C   0  0  0  0  0  3  0  0  0  0  0  0
  156.3480  213.7080  149.1730 C   0  0  0  0  0  3  0  0  0  0  0  0
  157.8250  214.0960  151.0570 C   0  0  0  0  0  3  0  0  0  0  0  0
  158.7320  213.3510  148.9270 C   0  0  0  0  0  0  0  0  0  0  0  0
  158.9210  213.7330  150.2650 C   0  0  0  0  0  3  0  0  0  0  0  0
  1 10  1  6  0  0  0
  1  2  1  0  0  0  0
  2 28  1  6  0  0  0
  2  8  1  0  0  0  0
  4 11  2  0  0  0  0
  5  3  2  0  0  0  0
  5  4  1  0  0  0  0
  7  6  1  1  0  0  0
  7  4  1  0  0  0  0
  8 14  1  0  0  0  0
  8  5  1  1  0  0  0
  9 13  2  0  0  0  0
 12 16  1  0  0  0  0
 13 12  1  0  0  0  0
 14 12  1  1  0  0  0
 14  7  1  0  0  0  0
 15 10  1  6  0  0  0
 15  1  1  0  0  0  0
 15 13  1  0  0  0  0
 16  6  1  0  0  0  0
 18 17  1  1  0  0  0
 19 11  1  6  0  0  0
 19 20  1  0  0  0  0
 19 18  1  0  0  0  0
 19 17  1  0  0  0  0
 20 18  1  0  0  0  0
 21 24  1  0  0  0  0
 22 25  1  0  0  0  0
 23 20  1  0  0  0  0
 23 25  2  0  0  0  0
 24 22  2  0  0  0  0
 26 23  1  0  0  0  0
 27 26  2  0  0  0  0
 27 24  1  0  0  0  0
 29 30  1  1  0  0  0
 29 31  1  0  0  0  0
 29 28  1  0  0  0  0
 31 32  1  6  0  0  0
 33 31  1  0  0  0  0
 33 38  1  0  0  0  0
 34 37  1  0  0  0  0
 35 38  2  0  0  0  0
 35 36  1  0  0  0  0
 36 34  2  0  0  0  0
 38 39  1  0  0  0  0
 39 37  2  0  0  0  0
M  END
>  <MODEL>
7

>  <REMARK>
 VINA RESULT:      -5.6      3.783      8.376
  Name = 
  7 active torsions:
  status: ('A' for Active; 'I' for Inactive)
    1  A    between atoms: C_4  and  C_36
    2  A    between atoms: C_6  and  C_18
    3  A    between atoms: C_6  and  C_36
    4  A    between atoms: C_17  and  N_39
    5  A    between atoms: C_18  and  C_32
    6  A    between atoms: N_22  and  C_23
    7  A    between atoms: C_32  and  C_35
                            x       y       z     vdW  Elec       q    Type
                         _______ _______ _______ _____ _____    ______ ____

>  <TORSDO>
F 7

$$$$
=
 OpenBabel11072415033D

 39 46  0  0  1  0  0  0  0  0999 V2000
  160.7170  204.9790  149.7950 C   0  0  1  0  0  3  0  0  0  0  0  0
  161.5450  206.0070  149.0090 C   0  0  2  0  0  3  0  0  0  0  0  0
  161.4150  208.6120  147.3100 O   0  0  0  0  0  0  0  0  0  0  0  0
  161.6670  209.7400  149.4650 C   0  0  0  0  0  0  0  0  0  0  0  0
  161.4290  208.6020  148.5690 C   0  0  0  0  0  0  0  0  0  0  0  0
  162.6190  209.3190  151.6480 O   0  0  0  0  0  0  0  0  0  0  0  0
  161.4380  209.2630  150.8600 C   0  0  2  0  0  3  0  0  0  0  0  0
  161.1760  207.4220  149.3950 C   0  0  2  0  0  3  0  0  0  0  0  0
  162.9340  205.3010  152.5690 O   0  0  0  0  0  0  0  0  0  0  0  0
  161.5830  203.9990  150.3180 O   0  0  0  0  0  0  0  0  0  0  0  0
  161.9860  210.9830  149.2000 N   0  0  0  0  0  0  0  0  0  0  0  0
  161.9170  207.1950  151.6610 N   0  0  0  0  0  0  0  0  0  0  0  0
  162.0160  205.7780  151.8470 C   0  0  0  0  0  0  0  0  0  0  0  0
  161.1930  207.8370  150.6630 C   0  0  1  0  0  3  0  0  0  0  0  0
  160.9830  204.8520  151.2650 C   0  0  1  0  0  3  0  0  0  0  0  0
  162.7050  208.1300  152.3460 N   0  0  0  0  0  2  0  0  0  0  0  0
  163.6930  212.2620  147.8860 C   0  0  0  0  0  2  0  0  0  0  0  0
  162.4820  213.0710  148.2670 C   0  0  2  0  0  3  0  0  0  0  0  0
  162.2920  211.7200  147.9620 C   0  0  2  0  0  0  0  0  0  0  0  0
  161.2480  212.6800  147.5090 N   0  0  0  0  0  0  0  0  0  0  0  0
  156.3080  213.8010  145.2400 F   0  0  0  0  0  0  0  0  0  0  0  0
  157.7200  213.6440  147.1580 C   0  0  0  0  0  3  0  0  0  0  0  0
  159.9900  212.9740  146.9120 C   0  0  0  0  0  0  0  0  0  0  0  0
  157.5220  213.5340  145.7780 C   0  0  0  0  0  0  0  0  0  0  0  0
  158.9430  213.3670  147.6910 N   0  0  0  0  0  0  0  0  0  0  0  0
  159.8260  212.8430  145.5280 C   0  0  0  0  0  3  0  0  0  0  0  0
  158.5810  213.1270  144.9620 C   0  0  0  0  0  3  0  0  0  0  0  0
  161.3420  205.7540  147.5210 C   0  0  0  0  0  2  0  0  0  0  0  0
  161.9420  204.4160  147.1130 C   0  0  2  0  0  3  0  0  0  0  0  0
  163.2260  204.6260  146.6020 O   0  0  0  0  0  1  0  0  0  0  0  0
  161.0550  203.7540  146.0640 C   0  0  1  0  0  3  0  0  0  0  0  0
  161.4260  204.1680  144.7860 O   0  0  0  0  0  1  0  0  0  0  0  0
  161.2070  202.2430  146.1540 C   0  0  0  0  0  2  0  0  0  0  0  0
  160.2740  200.8720  150.1140 C   0  0  0  0  0  3  0  0  0  0  0  0
  161.8320  201.0220  148.2550 C   0  0  0  0  0  3  0  0  0  0  0  0
  161.5230  200.5780  149.5470 C   0  0  0  0  0  3  0  0  0  0  0  0
  159.3310  201.6040  149.3880 C   0  0  0  0  0  3  0  0  0  0  0  0
  160.8910  201.7600  147.5280 C   0  0  0  0  0  0  0  0  0  0  0  0
  159.6380  202.0460  148.0950 C   0  0  0  0  0  3  0  0  0  0  0  0
  1 10  1  6  0  0  0
  1 15  1  0  0  0  0
  2 28  1  6  0  0  0
  2  8  1  0  0  0  0
  2  1  1  0  0  0  0
  3  5  2  0  0  0  0
  5  4  1  0  0  0  0
  6 16  1  0  0  0  0
  7  4  1  6  0  0  0
  7  6  1  0  0  0  0
  8  5  1  6  0  0  0
  8 14  1  0  0  0  0
 11  4  2  0  0  0  0
 12 13  1  0  0  0  0
 12 16  1  0  0  0  0
 13  9  2  0  0  0  0
 14  7  1  0  0  0  0
 14 12  1  1  0  0  0
 15 10  1  6  0  0  0
 15 13  1  0  0  0  0
 17 19  1  0  0  0  0
 18 17  1  6  0  0  0
 19 18  1  0  0  0  0
 19 11  1  1  0  0  0
 20 19  1  0  0  0  0
 20 18  1  0  0  0  0
 21 24  1  0  0  0  0
 22 25  1  0  0  0  0
 23 20  1  0  0  0  0
 23 25  2  0  0  0  0
 24 22  2  0  0  0  0
 26 23  1  0  0  0  0
 27 26  2  0  0  0  0
 27 24  1  0  0  0  0
 29 30  1  6  0  0  0
 29 28  1  0  0  0  0
 31 32  1  6  0  0  0
 31 33  1  0  0  0  0
 31 29  1  0  0  0  0
 33 38  1  0  0  0  0
 35 36  2  0  0  0  0
 36 34  1  0  0  0  0
 37 34  2  0  0  0  0
 38 39  2  0  0  0  0
 38 35  1  0  0  0  0
 39 37  1  0  0  0  0
M  END
>  <MODEL>
8

>  <REMARK>
 VINA RESULT:      -5.5      1.910      3.125
  Name = 
  7 active torsions:
  status: ('A' for Active; 'I' for Inactive)
    1  A    between atoms: C_4  and  C_36
    2  A    between atoms: C_6  and  C_18
    3  A    between atoms: C_6  and  C_36
    4  A    between atoms: C_17  and  N_39
    5  A    between atoms: C_18  and  C_32
    6  A    between atoms: N_22  and  C_23
    7  A    between atoms: C_32  and  C_35
                            x       y       z     vdW  Elec       q    Type
                         _______ _______ _______ _____ _____    ______ ____

>  <TORSDO>
F 7

$$$$
=
 OpenBabel11072415033D

 39 46  0  0  1  0  0  0  0  0999 V2000
  162.3730  206.6850  149.7190 C   0  0  1  0  0  3  0  0  0  0  0  0
  161.3390  206.9990  150.8100 C   0  0  2  0  0  3  0  0  0  0  0  0
  160.8930  207.3130  153.8750 O   0  0  0  0  0  0  0  0  0  0  0  0
  161.4930  209.6500  153.4750 C   0  0  0  0  0  0  0  0  0  0  0  0
  161.3500  208.2280  153.1410 C   0  0  0  0  0  0  0  0  0  0  0  0
  161.4150  211.2770  151.6890 O   0  0  0  0  0  0  0  0  0  0  0  0
  162.2150  210.3030  152.3450 C   0  0  2  0  0  3  0  0  0  0  0  0
  161.8620  208.0300  151.7850 C   0  0  2  0  0  3  0  0  0  0  0  0
  161.3620  209.5900  147.9150 O   0  0  0  0  0  0  0  0  0  0  0  0
  161.7390  206.7360  148.4610 O   0  0  0  0  0  0  0  0  0  0  0  0
  161.1310  210.3150  154.5450 N   0  0  0  0  0  0  0  0  0  0  0  0
  162.0160  209.7710  150.1480 N   0  0  0  0  0  0  0  0  0  0  0  0
  161.9560  209.0710  148.8990 C   0  0  0  0  0  0  0  0  0  0  0  0
  162.3310  209.2120  151.3810 C   0  0  1  0  0  3  0  0  0  0  0  0
  162.6720  207.7600  148.7170 C   0  0  1  0  0  3  0  0  0  0  0  0
  161.5650  211.0860  150.3290 N   0  0  0  0  0  2  0  0  0  0  0  0
  160.7380  208.6020  156.3300 C   0  0  0  0  0  2  0  0  0  0  0  0
  159.5210  208.9110  155.5010 C   0  0  2  0  0  3  0  0  0  0  0  0
  160.4050  209.9600  155.7750 C   0  0  2  0  0  0  0  0  0  0  0  0
  158.9480  210.2700  155.7760 N   0  0  0  0  0  0  0  0  0  0  0  0
  154.7000  213.8170  156.1870 F   0  0  0  0  0  0  0  0  0  0  0  0
  156.5390  212.6620  157.1780 C   0  0  0  0  0  3  0  0  0  0  0  0
  157.8620  211.1850  155.8630 C   0  0  0  0  0  0  0  0  0  0  0  0
  155.7400  212.9580  156.0690 C   0  0  0  0  0  0  0  0  0  0  0  0
  157.5780  211.7900  157.0510 N   0  0  0  0  0  0  0  0  0  0  0  0
  157.0780  211.4500  154.7350 C   0  0  0  0  0  3  0  0  0  0  0  0
  156.0100  212.3440  154.8430 C   0  0  0  0  0  3  0  0  0  0  0  0
  160.9650  205.6970  151.5070 C   0  0  0  0  0  2  0  0  0  0  0  0
  160.5620  204.6360  150.4940 C   0  0  2  0  0  3  0  0  0  0  0  0
  159.2260  204.2820  150.7060 O   0  0  0  0  0  1  0  0  0  0  0  0
  161.4630  203.4160  150.6410 C   0  0  1  0  0  3  0  0  0  0  0  0
  161.5830  203.0610  151.9830 O   0  0  0  0  0  1  0  0  0  0  0  0
  160.8630  202.2470  149.8750 C   0  0  0  0  0  2  0  0  0  0  0  0
  161.2060  202.8270  145.6360 C   0  0  0  0  0  3  0  0  0  0  0  0
  161.5810  203.6200  147.9020 C   0  0  0  0  0  3  0  0  0  0  0  0
  161.6930  203.8030  146.5180 C   0  0  0  0  0  3  0  0  0  0  0  0
  160.6030  201.6700  146.1360 C   0  0  0  0  0  3  0  0  0  0  0  0
  160.9830  202.4590  148.4050 C   0  0  0  0  0  0  0  0  0  0  0  0
  160.4900  201.4870  147.5200 C   0  0  0  0  0  3  0  0  0  0  0  0
  1 10  1  6  0  0  0
  1  2  1  0  0  0  0
  2 28  1  1  0  0  0
  2  8  1  0  0  0  0
  4 11  2  0  0  0  0
  5  4  1  0  0  0  0
  5  3  2  0  0  0  0
  7  6  1  6  0  0  0
  7  4  1  0  0  0  0
  8  5  1  1  0  0  0
  9 13  2  0  0  0  0
 12 16  1  0  0  0  0
 13 12  1  0  0  0  0
 14 12  1  6  0  0  0
 14  8  1  0  0  0  0
 14  7  1  0  0  0  0
 15 10  1  6  0  0  0
 15 13  1  0  0  0  0
 15  1  1  0  0  0  0
 16  6  1  0  0  0  0
 18 19  1  0  0  0  0
 18 20  1  0  0  0  0
 18 17  1  1  0  0  0
 19 11  1  6  0  0  0
 19 20  1  0  0  0  0
 19 17  1  0  0  0  0
 20 23  1  0  0  0  0
 23 25  2  0  0  0  0
 24 21  1  0  0  0  0
 24 22  2  0  0  0  0
 25 22  1  0  0  0  0
 26 27  2  0  0  0  0
 26 23  1  0  0  0  0
 27 24  1  0  0  0  0
 29 31  1  0  0  0  0
 29 30  1  1  0  0  0
 29 28  1  0  0  0  0
 31 32  1  1  0  0  0
 33 31  1  0  0  0  0
 34 37  2  0  0  0  0
 34 36  1  0  0  0  0
 35 38  1  0  0  0  0
 36 35  2  0  0  0  0
 37 39  1  0  0  0  0
 38 33  1  0  0  0  0
 39 38  2  0  0  0  0
M  END
>  <MODEL>
9

>  <REMARK>
 VINA RESULT:      -5.5      3.497      6.323
  Name = 
  7 active torsions:
  status: ('A' for Active; 'I' for Inactive)
    1  A    between atoms: C_4  and  C_36
    2  A    between atoms: C_6  and  C_18
    3  A    between atoms: C_6  and  C_36
    4  A    between atoms: C_17  and  N_39
    5  A    between atoms: C_18  and  C_32
    6  A    between atoms: N_22  and  C_23
    7  A    between atoms: C_32  and  C_35
                            x       y       z     vdW  Elec       q    Type
                         _______ _______ _______ _____ _____    ______ ____

>  <TORSDO>
F 7

$$$$
