=
 OpenBabel11072413163D

 27 31  0  0  1  0  0  0  0  0999 V2000
  160.6630  209.0850  156.1950 C   0  0  1  0  0  3  0  0  0  0  0  0
  161.2400  209.1090  154.7990 C   0  0  0  0  0  2  0  0  0  0  0  0
  158.4500  213.8830  153.5700 C   0  0  0  0  0  3  0  0  0  0  0  0
  160.9600  211.2840  155.7890 C   0  0  1  0  0  3  0  0  0  0  0  0
  160.2030  210.3690  156.5420 O   0  0  0  0  0  0  0  0  0  0  0  0
  159.1760  213.3790  157.1470 N   0  0  0  0  0  1  0  0  0  0  0  0
  161.2890  210.7400  152.0200 C   0  0  0  0  0  0  0  0  0  0  0  0
  162.9710  210.7360  154.5650 O   0  0  0  0  0  1  0  0  0  0  0  0
  161.5870  210.5490  154.5890 C   0  0  1  0  0  0  0  0  0  0  0  0
  160.7610  211.3560  151.0560 O   0  0  0  0  0  0  0  0  0  0  0  0
  158.4360  214.0090  154.9320 N   0  0  0  0  0  0  0  0  0  0  0  0
  160.9620  211.0970  153.3770 N   0  0  0  0  0  0  0  0  0  0  0  0
  159.2740  212.9290  152.9540 C   0  0  0  0  0  3  0  0  0  0  0  0
  160.0430  212.2670  155.1380 C   0  0  0  0  0  0  0  0  0  0  0  0
  159.2140  213.2220  155.7320 C   0  0  0  0  0  0  0  0  0  0  0  0
  160.0680  212.1260  153.7800 C   0  0  0  0  0  0  0  0  0  0  0  0
  160.0460  207.0030  157.2610 O   0  0  0  0  0  0  0  0  0  0  0  0
  160.0360  206.6480  155.8980 C   0  0  0  0  0  2  0  0  0  0  0  0
  159.5940  207.9920  156.3570 C   0  0  2  0  0  3  0  0  0  0  0  0
  162.2430  209.6250  151.7210 C   0  0  0  0  0  2  0  0  0  0  0  0
  161.9000  208.9270  150.4070 C   0  0  0  0  0  2  0  0  0  0  0  0
  160.8890  204.7940  150.9840 C   0  0  0  0  0  3  0  0  0  0  0  0
  160.7120  205.3920  149.7330 C   0  0  0  0  0  3  0  0  0  0  0  0
  161.3950  205.5440  152.0500 C   0  0  0  0  0  3  0  0  0  0  0  0
  161.0370  206.7400  149.5490 C   0  0  0  0  0  3  0  0  0  0  0  0
  161.7240  206.8920  151.8650 C   0  0  0  0  0  3  0  0  0  0  0  0
  161.5430  207.4920  150.6150 C   0  0  0  0  0  0  0  0  0  0  0  0
  1  2  1  6  0  0  0
  1 19  1  0  0  0  0
  1  5  1  0  0  0  0
  3 11  1  0  0  0  0
  4 14  1  6  0  0  0
  4  5  1  0  0  0  0
  7 12  1  0  0  0  0
  9  8  1  6  0  0  0
  9  2  1  0  0  0  0
  9  4  1  0  0  0  0
 10  7  2  0  0  0  0
 11 15  2  0  0  0  0
 12 16  1  0  0  0  0
 12  9  1  0  0  0  0
 13  3  2  0  0  0  0
 13 16  1  0  0  0  0
 14 15  1  0  0  0  0
 15  6  1  0  0  0  0
 16 14  2  0  0  0  0
 18 17  1  0  0  0  0
 19 18  1  6  0  0  0
 19 17  1  0  0  0  0
 20  7  1  0  0  0  0
 21 27  1  0  0  0  0
 21 20  1  0  0  0  0
 22 24  1  0  0  0  0
 23 22  2  0  0  0  0
 25 23  1  0  0  0  0
 25 27  2  0  0  0  0
 26 24  2  0  0  0  0
 27 26  1  0  0  0  0
M  END
>  <MODEL>
1

>  <REMARK>
 VINA RESULT:      -6.3      0.000      0.000
  Name = 
  4 active torsions:
  status: ('A' for Active; 'I' for Inactive)
    1  A    between atoms: C_1  and  C_26
    2  A    between atoms: C_10  and  C_16
    3  A    between atoms: C_16  and  C_21
    4  A    between atoms: C_21  and  C_27
                            x       y       z     vdW  Elec       q    Type
                         _______ _______ _______ _____ _____    ______ ____

>  <TORSDO>
F 4

$$$$
=
 OpenBabel11072413163D

 27 31  0  0  1  0  0  0  0  0999 V2000
  161.4560  204.4010  152.0870 C   0  0  1  0  0  3  0  0  0  0  0  0
  161.8560  205.2040  150.8710 C   0  0  0  0  0  2  0  0  0  0  0  0
  160.0350  210.0060  153.2630 C   0  0  0  0  0  3  0  0  0  0  0  0
  162.1690  206.3550  152.9620 C   0  0  1  0  0  3  0  0  0  0  0  0
  161.3270  205.2540  153.2000 O   0  0  0  0  0  0  0  0  0  0  0  0
  161.0510  207.3730  155.6320 N   0  0  0  0  0  1  0  0  0  0  0  0
  161.9280  208.1670  149.6050 C   0  0  0  0  0  0  0  0  0  0  0  0
  163.8570  206.4550  151.2330 O   0  0  0  0  0  1  0  0  0  0  0  0
  162.4780  206.4340  151.4550 C   0  0  1  0  0  0  0  0  0  0  0  0
  161.4350  209.2900  149.3160 O   0  0  0  0  0  0  0  0  0  0  0  0
  160.2080  209.2840  154.4110 N   0  0  0  0  0  0  0  0  0  0  0  0
  161.8480  207.6630  150.9530 N   0  0  0  0  0  0  0  0  0  0  0  0
  160.5560  209.5390  152.0460 C   0  0  0  0  0  3  0  0  0  0  0  0
  161.4150  207.6180  153.2160 C   0  0  0  0  0  0  0  0  0  0  0  0
  160.8880  208.1000  154.4170 C   0  0  0  0  0  0  0  0  0  0  0  0
  161.2490  208.3250  152.0600 C   0  0  0  0  0  0  0  0  0  0  0  0
  160.5160  202.1760  151.9570 O   0  0  0  0  0  0  0  0  0  0  0  0
  160.3230  202.6520  150.6460 C   0  0  0  0  0  2  0  0  0  0  0  0
  160.2030  203.5490  151.8270 C   0  0  2  0  0  3  0  0  0  0  0  0
  162.5770  207.3680  148.5180 C   0  0  0  0  0  2  0  0  0  0  0  0
  161.7080  207.3150  147.2620 C   0  0  0  0  0  2  0  0  0  0  0  0
  161.3400  203.3150  145.7470 C   0  0  0  0  0  3  0  0  0  0  0  0
  161.5930  203.5300  147.1040 C   0  0  0  0  0  3  0  0  0  0  0  0
  161.2070  204.4030  144.8810 C   0  0  0  0  0  3  0  0  0  0  0  0
  161.7180  204.8350  147.5940 C   0  0  0  0  0  3  0  0  0  0  0  0
  161.3280  205.7080  145.3720 C   0  0  0  0  0  3  0  0  0  0  0  0
  161.5870  205.9250  146.7290 C   0  0  0  0  0  0  0  0  0  0  0  0
  1  2  1  6  0  0  0
  1  5  1  0  0  0  0
  2  9  1  0  0  0  0
  3 11  1  0  0  0  0
  4  5  1  6  0  0  0
  4 14  1  0  0  0  0
  7 12  1  0  0  0  0
  9  8  1  6  0  0  0
  9  4  1  0  0  0  0
 10  7  2  0  0  0  0
 11 15  2  0  0  0  0
 12  9  1  0  0  0  0
 12 16  1  0  0  0  0
 13 16  1  0  0  0  0
 13  3  2  0  0  0  0
 14 15  1  0  0  0  0
 15  6  1  0  0  0  0
 16 14  2  0  0  0  0
 18 17  1  0  0  0  0
 19 18  1  6  0  0  0
 19 17  1  0  0  0  0
 19  1  1  0  0  0  0
 20  7  1  0  0  0  0
 21 20  1  0  0  0  0
 22 23  1  0  0  0  0
 23 25  2  0  0  0  0
 24 26  1  0  0  0  0
 24 22  2  0  0  0  0
 26 27  2  0  0  0  0
 27 21  1  0  0  0  0
 27 25  1  0  0  0  0
M  END
>  <MODEL>
2

>  <REMARK>
 VINA RESULT:      -6.3      3.213      5.244
  Name = 
  4 active torsions:
  status: ('A' for Active; 'I' for Inactive)
    1  A    between atoms: C_1  and  C_26
    2  A    between atoms: C_10  and  C_16
    3  A    between atoms: C_16  and  C_21
    4  A    between atoms: C_21  and  C_27
                            x       y       z     vdW  Elec       q    Type
                         _______ _______ _______ _____ _____    ______ ____

>  <TORSDO>
F 4

$$$$
=
 OpenBabel11072413163D

 27 31  0  0  1  0  0  0  0  0999 V2000
  160.4520  211.8180  152.1610 C   0  0  1  0  0  3  0  0  0  0  0  0
  160.6230  211.1140  153.4870 C   0  0  0  0  0  2  0  0  0  0  0  0
  161.0460  206.0790  150.9270 C   0  0  0  0  0  3  0  0  0  0  0  0
  161.9070  210.1600  151.6890 C   0  0  1  0  0  3  0  0  0  0  0  0
  160.9310  210.9980  151.1210 O   0  0  0  0  0  0  0  0  0  0  0  0
  162.0520  208.9630  148.8670 N   0  0  0  0  0  1  0  0  0  0  0  0
  161.0560  208.2430  154.8850 C   0  0  0  0  0  0  0  0  0  0  0  0
  162.8870  210.4650  153.8780 O   0  0  0  0  0  1  0  0  0  0  0  0
  161.7070  210.1190  153.2160 C   0  0  1  0  0  0  0  0  0  0  0  0
  160.8130  207.0190  155.0630 O   0  0  0  0  0  0  0  0  0  0  0  0
  161.3930  206.8570  149.8570 N   0  0  0  0  0  0  0  0  0  0  0  0
  161.2970  208.7490  153.5570 N   0  0  0  0  0  0  0  0  0  0  0  0
  160.9890  206.6300  152.2160 C   0  0  0  0  0  3  0  0  0  0  0  0
  161.6450  208.7480  151.2780 C   0  0  0  0  0  0  0  0  0  0  0  0
  161.6950  208.1810  150.0020 C   0  0  0  0  0  0  0  0  0  0  0  0
  161.2990  207.9860  152.3570 C   0  0  0  0  0  0  0  0  0  0  0  0
  158.9450  213.1770  150.8430 O   0  0  0  0  0  0  0  0  0  0  0  0
  158.8190  213.7560  152.1200 C   0  0  0  0  0  2  0  0  0  0  0  0
  159.0040  212.2900  151.9430 C   0  0  2  0  0  3  0  0  0  0  0  0
  161.0700  209.1520  156.0740 C   0  0  0  0  0  2  0  0  0  0  0  0
  159.6690  209.3470  156.6500 C   0  0  0  0  0  2  0  0  0  0  0  0
  158.3410  213.4070  156.2160 C   0  0  0  0  0  3  0  0  0  0  0  0
  159.5370  213.1280  156.8820 C   0  0  0  0  0  3  0  0  0  0  0  0
  157.5740  212.3640  155.6900 C   0  0  0  0  0  3  0  0  0  0  0  0
  159.9640  211.8040  157.0270 C   0  0  0  0  0  3  0  0  0  0  0  0
  158.0040  211.0390  155.8320 C   0  0  0  0  0  3  0  0  0  0  0  0
  159.1980  210.7570  156.5020 C   0  0  0  0  0  0  0  0  0  0  0  0
  1  2  1  1  0  0  0
  3 13  1  0  0  0  0
  4  5  1  6  0  0  0
  4  9  1  0  0  0  0
  5  1  1  0  0  0  0
  6 15  1  0  0  0  0
  7 10  2  0  0  0  0
  7 20  1  0  0  0  0
  9  2  1  0  0  0  0
  9 12  1  0  0  0  0
  9  8  1  1  0  0  0
 11 15  1  0  0  0  0
 11  3  2  0  0  0  0
 12  7  1  0  0  0  0
 13 16  2  0  0  0  0
 14  4  1  0  0  0  0
 14 16  1  0  0  0  0
 15 14  2  0  0  0  0
 16 12  1  0  0  0  0
 17 19  1  0  0  0  0
 17 18  1  0  0  0  0
 19 18  1  1  0  0  0
 19  1  1  0  0  0  0
 20 21  1  0  0  0  0
 22 23  1  0  0  0  0
 23 25  2  0  0  0  0
 24 26  1  0  0  0  0
 24 22  2  0  0  0  0
 26 27  2  0  0  0  0
 27 21  1  0  0  0  0
 27 25  1  0  0  0  0
M  END
>  <MODEL>
3

>  <REMARK>
 VINA RESULT:      -6.1      2.240      6.875
  Name = 
  4 active torsions:
  status: ('A' for Active; 'I' for Inactive)
    1  A    between atoms: C_1  and  C_26
    2  A    between atoms: C_10  and  C_16
    3  A    between atoms: C_16  and  C_21
    4  A    between atoms: C_21  and  C_27
                            x       y       z     vdW  Elec       q    Type
                         _______ _______ _______ _____ _____    ______ ____

>  <TORSDO>
F 4

$$$$
=
 OpenBabel11072413163D

 27 31  0  0  1  0  0  0  0  0999 V2000
  160.0300  211.0590  152.8640 C   0  0  1  0  0  3  0  0  0  0  0  0
  160.7370  209.8070  152.4020 C   0  0  0  0  0  2  0  0  0  0  0  0
  161.2060  211.8410  147.1360 C   0  0  0  0  0  3  0  0  0  0  0  0
  161.5280  211.8290  151.3630 C   0  0  1  0  0  3  0  0  0  0  0  0
  160.2900  212.1120  151.9660 O   0  0  0  0  0  0  0  0  0  0  0  0
  160.9750  214.3970  149.7780 N   0  0  0  0  0  1  0  0  0  0  0  0
  162.0940  208.3590  149.8620 C   0  0  0  0  0  0  0  0  0  0  0  0
  163.0850  210.1440  152.1290 O   0  0  0  0  0  1  0  0  0  0  0  0
  161.8360  210.3280  151.5300 C   0  0  1  0  0  0  0  0  0  0  0  0
  162.1420  207.9870  148.6590 O   0  0  0  0  0  0  0  0  0  0  0  0
  161.0500  213.0370  147.7800 N   0  0  0  0  0  0  0  0  0  0  0  0
  161.8060  209.7330  150.1870 N   0  0  0  0  0  0  0  0  0  0  0  0
  161.4670  210.6710  147.8650 C   0  0  0  0  0  3  0  0  0  0  0  0
  161.4040  211.9830  149.8830 C   0  0  0  0  0  0  0  0  0  0  0  0
  161.1430  213.1360  149.1390 C   0  0  0  0  0  0  0  0  0  0  0  0
  161.5600  210.7800  149.2560 C   0  0  0  0  0  0  0  0  0  0  0  0
  157.8340  212.0490  153.0800 O   0  0  0  0  0  0  0  0  0  0  0  0
  158.0090  211.4510  154.3420 C   0  0  0  0  0  2  0  0  0  0  0  0
  158.5300  210.8190  153.1000 C   0  0  2  0  0  3  0  0  0  0  0  0
  162.3260  207.3420  150.9370 C   0  0  0  0  0  2  0  0  0  0  0  0
  161.0250  206.6610  151.3560 C   0  0  0  0  0  2  0  0  0  0  0  0
  161.0180  202.4970  150.3060 C   0  0  0  0  0  3  0  0  0  0  0  0
  160.8330  203.4700  149.3200 C   0  0  0  0  0  3  0  0  0  0  0  0
  161.2060  202.8800  151.6370 C   0  0  0  0  0  3  0  0  0  0  0  0
  160.8300  204.8250  149.6650 C   0  0  0  0  0  3  0  0  0  0  0  0
  161.2070  204.2360  151.9820 C   0  0  0  0  0  3  0  0  0  0  0  0
  161.0160  205.2100  150.9970 C   0  0  0  0  0  0  0  0  0  0  0  0
  1  2  1  6  0  0  0
  1 19  1  0  0  0  0
  3 11  2  0  0  0  0
  3 13  1  0  0  0  0
  4 14  1  6  0  0  0
  4  9  1  0  0  0  0
  4  5  1  0  0  0  0
  5  1  1  0  0  0  0
  7 12  1  0  0  0  0
  7 20  1  0  0  0  0
  9  8  1  1  0  0  0
  9  2  1  0  0  0  0
 10  7  2  0  0  0  0
 11 15  1  0  0  0  0
 12  9  1  0  0  0  0
 13 16  2  0  0  0  0
 15  6  1  0  0  0  0
 15 14  2  0  0  0  0
 16 14  1  0  0  0  0
 16 12  1  0  0  0  0
 17 19  1  0  0  0  0
 17 18  1  0  0  0  0
 19 18  1  1  0  0  0
 20 21  1  0  0  0  0
 22 24  1  0  0  0  0
 23 25  1  0  0  0  0
 23 22  2  0  0  0  0
 24 26  2  0  0  0  0
 25 27  2  0  0  0  0
 27 21  1  0  0  0  0
 27 26  1  0  0  0  0
M  END
>  <MODEL>
4

>  <REMARK>
 VINA RESULT:      -5.6      3.268      4.618
  Name = 
  4 active torsions:
  status: ('A' for Active; 'I' for Inactive)
    1  A    between atoms: C_1  and  C_26
    2  A    between atoms: C_10  and  C_16
    3  A    between atoms: C_16  and  C_21
    4  A    between atoms: C_21  and  C_27
                            x       y       z     vdW  Elec       q    Type
                         _______ _______ _______ _____ _____    ______ ____

>  <TORSDO>
F 4

$$$$
=
 OpenBabel11072413163D

 27 31  0  0  1  0  0  0  0  0999 V2000
  159.1610  213.0460  151.3190 C   0  0  1  0  0  3  0  0  0  0  0  0
  160.0620  211.9280  151.7900 C   0  0  0  0  0  2  0  0  0  0  0  0
  159.4790  213.5410  157.1890 C   0  0  0  0  0  3  0  0  0  0  0  0
  158.2460  212.4320  153.2870 C   0  0  1  0  0  3  0  0  0  0  0  0
  158.3740  213.5070  152.3910 O   0  0  0  0  0  0  0  0  0  0  0  0
  156.6760  214.4530  154.9800 N   0  0  0  0  0  1  0  0  0  0  0  0
  161.3970  210.5690  154.3900 C   0  0  0  0  0  0  0  0  0  0  0  0
  158.8360  210.1400  152.7890 O   0  0  0  0  0  1  0  0  0  0  0  0
  159.3680  211.4120  153.0120 C   0  0  1  0  0  0  0  0  0  0  0  0
  162.0130  210.5850  155.4890 O   0  0  0  0  0  0  0  0  0  0  0  0
  158.3440  214.1250  156.7010 N   0  0  0  0  0  0  0  0  0  0  0  0
  160.2470  211.4150  154.1890 N   0  0  0  0  0  0  0  0  0  0  0  0
  160.1890  212.6110  156.4140 C   0  0  0  0  0  3  0  0  0  0  0  0
  158.5540  212.9020  154.6710 C   0  0  0  0  0  0  0  0  0  0  0  0
  157.8630  213.8270  155.4580 C   0  0  0  0  0  0  0  0  0  0  0  0
  159.6910  212.3120  155.1420 C   0  0  0  0  0  0  0  0  0  0  0  0
  159.3700  214.4530  149.3620 O   0  0  0  0  0  0  0  0  0  0  0  0
  160.5850  213.7420  149.3410 C   0  0  0  0  0  2  0  0  0  0  0  0
  159.9500  214.1650  150.6190 C   0  0  2  0  0  3  0  0  0  0  0  0
  161.8960  209.6710  153.3010 C   0  0  0  0  0  2  0  0  0  0  0  0
  161.4920  208.2180  153.5410 C   0  0  0  0  0  2  0  0  0  0  0  0
  161.1360  206.0100  149.8750 C   0  0  0  0  0  3  0  0  0  0  0  0
  161.1780  205.3360  151.0990 C   0  0  0  0  0  3  0  0  0  0  0  0
  161.2110  207.4050  149.8440 C   0  0  0  0  0  3  0  0  0  0  0  0
  161.2990  206.0580  152.2910 C   0  0  0  0  0  3  0  0  0  0  0  0
  161.3280  208.1270  151.0370 C   0  0  0  0  0  3  0  0  0  0  0  0
  161.3750  207.4540  152.2620 C   0  0  0  0  0  0  0  0  0  0  0  0
  1  2  1  1  0  0  0
  1  5  1  0  0  0  0
  2  9  1  0  0  0  0
  4  5  1  6  0  0  0
  4 14  1  0  0  0  0
  6 15  1  0  0  0  0
  7 10  2  0  0  0  0
  9  8  1  6  0  0  0
  9  4  1  0  0  0  0
  9 12  1  0  0  0  0
 11  3  1  0  0  0  0
 12  7  1  0  0  0  0
 12 16  1  0  0  0  0
 13  3  2  0  0  0  0
 14 16  2  0  0  0  0
 14 15  1  0  0  0  0
 15 11  2  0  0  0  0
 16 13  1  0  0  0  0
 17 19  1  0  0  0  0
 18 17  1  0  0  0  0
 19 18  1  6  0  0  0
 19  1  1  0  0  0  0
 20 21  1  0  0  0  0
 20  7  1  0  0  0  0
 22 23  1  0  0  0  0
 23 25  2  0  0  0  0
 24 22  2  0  0  0  0
 24 26  1  0  0  0  0
 26 27  2  0  0  0  0
 27 25  1  0  0  0  0
 27 21  1  0  0  0  0
M  END
>  <MODEL>
5

>  <REMARK>
 VINA RESULT:      -5.5      1.829      4.452
  Name = 
  4 active torsions:
  status: ('A' for Active; 'I' for Inactive)
    1  A    between atoms: C_1  and  C_26
    2  A    between atoms: C_10  and  C_16
    3  A    between atoms: C_16  and  C_21
    4  A    between atoms: C_21  and  C_27
                            x       y       z     vdW  Elec       q    Type
                         _______ _______ _______ _____ _____    ______ ____

>  <TORSDO>
F 4

$$$$
=
 OpenBabel11072413163D

 27 31  0  0  1  0  0  0  0  0999 V2000
  161.5530  207.4340  151.1000 C   0  0  1  0  0  3  0  0  0  0  0  0
  161.5050  208.8430  150.5560 C   0  0  0  0  0  2  0  0  0  0  0  0
  158.8540  210.7030  155.2050 C   0  0  0  0  0  3  0  0  0  0  0  0
  161.8340  208.7130  152.9370 C   0  0  1  0  0  3  0  0  0  0  0  0
  161.3810  207.4570  152.4970 O   0  0  0  0  0  0  0  0  0  0  0  0
  160.9410  207.7070  155.6950 N   0  0  0  0  0  1  0  0  0  0  0  0
  160.5410  211.8540  151.1820 C   0  0  0  0  0  0  0  0  0  0  0  0
  163.1130  210.2670  151.5980 O   0  0  0  0  0  1  0  0  0  0  0  0
  161.8510  209.6870  151.7430 C   0  0  1  0  0  0  0  0  0  0  0  0
  159.7160  212.7240  151.5680 O   0  0  0  0  0  0  0  0  0  0  0  0
  159.4110  209.5790  155.7490 N   0  0  0  0  0  0  0  0  0  0  0  0
  160.8310  210.7100  152.0100 N   0  0  0  0  0  0  0  0  0  0  0  0
  159.2730  211.1630  153.9460 C   0  0  0  0  0  3  0  0  0  0  0  0
  160.8140  209.3160  153.8460 C   0  0  0  0  0  0  0  0  0  0  0  0
  160.3830  208.8730  155.0990 C   0  0  0  0  0  0  0  0  0  0  0  0
  160.2670  210.4350  153.2860 C   0  0  0  0  0  0  0  0  0  0  0  0
  160.7660  205.1680  150.7890 O   0  0  0  0  0  0  0  0  0  0  0  0
  161.2100  205.5030  149.4950 C   0  0  0  0  0  2  0  0  0  0  0  0
  160.5590  206.5060  150.3810 C   0  0  2  0  0  3  0  0  0  0  0  0
  161.1940  212.0280  149.8470 C   0  0  0  0  0  2  0  0  0  0  0  0
  160.7610  213.3290  149.1730 C   0  0  0  0  0  2  0  0  0  0  0  0
  158.3250  212.5790  145.7180 C   0  0  0  0  0  3  0  0  0  0  0  0
  159.7020  212.3440  145.6700 C   0  0  0  0  0  3  0  0  0  0  0  0
  157.7400  213.0600  146.8920 C   0  0  0  0  0  3  0  0  0  0  0  0
  160.4940  212.5940  146.7960 C   0  0  0  0  0  3  0  0  0  0  0  0
  158.5320  213.3070  148.0190 C   0  0  0  0  0  3  0  0  0  0  0  0
  159.9100  213.0770  147.9720 C   0  0  0  0  0  0  0  0  0  0  0  0
  1  2  1  6  0  0  0
  1  5  1  0  0  0  0
  2  9  1  0  0  0  0
  3 11  1  0  0  0  0
  4  5  1  6  0  0  0
  4 14  1  0  0  0  0
  7 10  2  0  0  0  0
  7 12  1  0  0  0  0
  9  8  1  6  0  0  0
  9 12  1  0  0  0  0
  9  4  1  0  0  0  0
 12 16  1  0  0  0  0
 13  3  2  0  0  0  0
 14 15  1  0  0  0  0
 15  6  1  0  0  0  0
 15 11  2  0  0  0  0
 16 14  2  0  0  0  0
 16 13  1  0  0  0  0
 18 17  1  0  0  0  0
 19 18  1  6  0  0  0
 19 17  1  0  0  0  0
 19  1  1  0  0  0  0
 20  7  1  0  0  0  0
 21 20  1  0  0  0  0
 22 24  1  0  0  0  0
 23 22  2  0  0  0  0
 23 25  1  0  0  0  0
 24 26  2  0  0  0  0
 25 27  2  0  0  0  0
 27 26  1  0  0  0  0
 27 21  1  0  0  0  0
M  END
>  <MODEL>
6

>  <REMARK>
 VINA RESULT:      -5.3      3.535      5.419
  Name = 
  4 active torsions:
  status: ('A' for Active; 'I' for Inactive)
    1  A    between atoms: C_1  and  C_26
    2  A    between atoms: C_10  and  C_16
    3  A    between atoms: C_16  and  C_21
    4  A    between atoms: C_21  and  C_27
                            x       y       z     vdW  Elec       q    Type
                         _______ _______ _______ _____ _____    ______ ____

>  <TORSDO>
F 4

$$$$
=
 OpenBabel11072413163D

 27 31  0  0  1  0  0  0  0  0999 V2000
  161.3940  204.4750  145.0450 C   0  0  1  0  0  3  0  0  0  0  0  0
  161.4050  205.4920  146.1620 C   0  0  0  0  0  2  0  0  0  0  0  0
  159.9610  201.5490  149.9640 C   0  0  0  0  0  3  0  0  0  0  0  0
  162.1800  203.3070  146.8070 C   0  0  1  0  0  3  0  0  0  0  0  0
  161.5050  203.1780  145.5810 O   0  0  0  0  0  0  0  0  0  0  0  0
  161.7380  200.2770  146.9980 N   0  0  0  0  0  1  0  0  0  0  0  0
  160.9440  205.9050  149.3240 C   0  0  0  0  0  0  0  0  0  0  0  0
  163.3430  205.2960  147.5420 O   0  0  0  0  0  1  0  0  0  0  0  0
  162.0760  204.7680  147.2870 C   0  0  1  0  0  0  0  0  0  0  0  0
  160.3190  205.7600  150.4090 O   0  0  0  0  0  0  0  0  0  0  0  0
  160.4780  200.7090  149.0170 N   0  0  0  0  0  0  0  0  0  0  0  0
  161.2550  204.7600  148.5060 N   0  0  0  0  0  0  0  0  0  0  0  0
  160.1740  202.9340  149.8760 C   0  0  0  0  0  3  0  0  0  0  0  0
  161.4370  202.5550  147.8620 C   0  0  0  0  0  0  0  0  0  0  0  0
  161.2130  201.1800  147.9670 C   0  0  0  0  0  0  0  0  0  0  0  0
  160.9260  203.4080  148.7970 C   0  0  0  0  0  0  0  0  0  0  0  0
  158.9900  204.6980  144.8900 O   0  0  0  0  0  0  0  0  0  0  0  0
  159.2200  203.5090  144.1720 C   0  0  0  0  0  2  0  0  0  0  0  0
  160.1770  204.6480  144.1220 C   0  0  2  0  0  3  0  0  0  0  0  0
  161.3360  207.2870  148.9030 C   0  0  0  0  0  2  0  0  0  0  0  0
  162.4600  207.8430  149.7750 C   0  0  0  0  0  2  0  0  0  0  0  0
  160.9190  210.0470  153.1230 C   0  0  0  0  0  3  0  0  0  0  0  0
  161.2380  210.7090  151.9340 C   0  0  0  0  0  3  0  0  0  0  0  0
  161.1030  208.6650  153.2230 C   0  0  0  0  0  3  0  0  0  0  0  0
  161.7450  209.9890  150.8470 C   0  0  0  0  0  3  0  0  0  0  0  0
  161.6070  207.9440  152.1340 C   0  0  0  0  0  3  0  0  0  0  0  0
  161.9310  208.6060  150.9450 C   0  0  0  0  0  0  0  0  0  0  0  0
  1  5  1  0  0  0  0
  1  2  1  1  0  0  0
  2  9  1  0  0  0  0
  4  5  1  6  0  0  0
  4  9  1  0  0  0  0
  4 14  1  0  0  0  0
  6 15  1  0  0  0  0
  7 10  2  0  0  0  0
  9  8  1  1  0  0  0
  9 12  1  0  0  0  0
 11  3  2  0  0  0  0
 12 16  1  0  0  0  0
 12  7  1  0  0  0  0
 13  3  1  0  0  0  0
 14 15  2  0  0  0  0
 14 16  1  0  0  0  0
 15 11  1  0  0  0  0
 16 13  2  0  0  0  0
 18 17  1  0  0  0  0
 19 18  1  6  0  0  0
 19 17  1  0  0  0  0
 19  1  1  0  0  0  0
 20  7  1  0  0  0  0
 20 21  1  0  0  0  0
 21 27  1  0  0  0  0
 22 24  1  0  0  0  0
 23 22  2  0  0  0  0
 25 27  2  0  0  0  0
 25 23  1  0  0  0  0
 26 24  2  0  0  0  0
 27 26  1  0  0  0  0
M  END
>  <MODEL>
7

>  <REMARK>
 VINA RESULT:      -4.9      5.493      9.922
  Name = 
  4 active torsions:
  status: ('A' for Active; 'I' for Inactive)
    1  A    between atoms: C_1  and  C_26
    2  A    between atoms: C_10  and  C_16
    3  A    between atoms: C_16  and  C_21
    4  A    between atoms: C_21  and  C_27
                            x       y       z     vdW  Elec       q    Type
                         _______ _______ _______ _____ _____    ______ ____

>  <TORSDO>
F 4

$$$$
=
 OpenBabel11072413163D

 27 31  0  0  1  0  0  0  0  0999 V2000
  160.8100  203.5570  150.3710 C   0  0  1  0  0  3  0  0  0  0  0  0
  161.0180  205.0520  150.4280 C   0  0  0  0  0  2  0  0  0  0  0  0
  163.1670  205.1010  145.1870 C   0  0  0  0  0  3  0  0  0  0  0  0
  160.3800  204.2260  148.2600 C   0  0  1  0  0  3  0  0  0  0  0  0
  160.8030  203.1280  149.0300 O   0  0  0  0  0  0  0  0  0  0  0  0
  160.8450  202.3290  145.8930 N   0  0  0  0  0  1  0  0  0  0  0  0
  162.0870  207.6070  148.7790 C   0  0  0  0  0  0  0  0  0  0  0  0
  159.3850  206.2400  149.1540 O   0  0  0  0  0  1  0  0  0  0  0  0
  160.5780  205.5180  149.0760 C   0  0  1  0  0  0  0  0  0  0  0  0
  162.9110  208.2260  148.0540 O   0  0  0  0  0  0  0  0  0  0  0  0
  162.4740  203.9260  145.0890 N   0  0  0  0  0  0  0  0  0  0  0  0
  161.6200  206.2980  148.3940 N   0  0  0  0  0  0  0  0  0  0  0  0
  162.9440  205.9680  146.2680 C   0  0  0  0  0  3  0  0  0  0  0  0
  161.3120  204.4100  147.1080 C   0  0  0  0  0  0  0  0  0  0  0  0
  161.5490  203.5600  146.0250 C   0  0  0  0  0  0  0  0  0  0  0  0
  161.9970  205.5860  147.2230 C   0  0  0  0  0  0  0  0  0  0  0  0
  161.8560  201.4360  150.8780 O   0  0  0  0  0  0  0  0  0  0  0  0
  161.2140  201.7430  152.0930 C   0  0  0  0  0  2  0  0  0  0  0  0
  161.8250  202.8010  151.2440 C   0  0  2  0  0  3  0  0  0  0  0  0
  161.6230  208.2510  150.0480 C   0  0  0  0  0  2  0  0  0  0  0  0
  162.4360  207.7760  151.2510 C   0  0  0  0  0  2  0  0  0  0  0  0
  160.3470  208.3590  154.9570 C   0  0  0  0  0  3  0  0  0  0  0  0
  160.7390  207.0760  154.5660 C   0  0  0  0  0  3  0  0  0  0  0  0
  160.6350  209.4550  154.1390 C   0  0  0  0  0  3  0  0  0  0  0  0
  161.4150  206.8880  153.3560 C   0  0  0  0  0  3  0  0  0  0  0  0
  161.3140  209.2680  152.9300 C   0  0  0  0  0  3  0  0  0  0  0  0
  161.7030  207.9840  152.5350 C   0  0  0  0  0  0  0  0  0  0  0  0
  1  2  1  6  0  0  0
  1 19  1  0  0  0  0
  3 13  1  0  0  0  0
  4 14  1  6  0  0  0
  4  5  1  0  0  0  0
  4  9  1  0  0  0  0
  5  1  1  0  0  0  0
  6 15  1  0  0  0  0
  7 20  1  0  0  0  0
  9  8  1  1  0  0  0
  9  2  1  0  0  0  0
 10  7  2  0  0  0  0
 11  3  2  0  0  0  0
 11 15  1  0  0  0  0
 12  7  1  0  0  0  0
 12  9  1  0  0  0  0
 13 16  2  0  0  0  0
 14 16  1  0  0  0  0
 15 14  2  0  0  0  0
 16 12  1  0  0  0  0
 17 19  1  0  0  0  0
 17 18  1  0  0  0  0
 19 18  1  1  0  0  0
 20 21  1  0  0  0  0
 21 27  1  0  0  0  0
 23 22  1  0  0  0  0
 24 22  2  0  0  0  0
 25 23  2  0  0  0  0
 26 24  1  0  0  0  0
 27 26  2  0  0  0  0
 27 25  1  0  0  0  0
M  END
>  <MODEL>
8

>  <REMARK>
 VINA RESULT:      -4.9      4.784      8.525
  Name = 
  4 active torsions:
  status: ('A' for Active; 'I' for Inactive)
    1  A    between atoms: C_1  and  C_26
    2  A    between atoms: C_10  and  C_16
    3  A    between atoms: C_16  and  C_21
    4  A    between atoms: C_21  and  C_27
                            x       y       z     vdW  Elec       q    Type
                         _______ _______ _______ _____ _____    ______ ____

>  <TORSDO>
F 4

$$$$
=
 OpenBabel11072413163D

 27 31  0  0  1  0  0  0  0  0999 V2000
  161.6820  205.4260  145.8320 C   0  0  1  0  0  3  0  0  0  0  0  0
  161.8210  206.6150  146.7540 C   0  0  0  0  0  2  0  0  0  0  0  0
  160.0030  203.5790  151.1780 C   0  0  0  0  0  3  0  0  0  0  0  0
  162.3590  204.5030  147.7760 C   0  0  1  0  0  3  0  0  0  0  0  0
  161.6570  204.2380  146.5860 O   0  0  0  0  0  0  0  0  0  0  0  0
  161.5870  201.6200  148.4900 N   0  0  0  0  0  1  0  0  0  0  0  0
  161.4520  207.6210  149.7940 C   0  0  0  0  0  0  0  0  0  0  0  0
  163.7440  206.4470  148.1590 O   0  0  0  0  0  1  0  0  0  0  0  0
  162.4230  206.0270  147.9920 C   0  0  1  0  0  0  0  0  0  0  0  0
  160.8300  207.7360  150.8830 O   0  0  0  0  0  0  0  0  0  0  0  0
  160.4110  202.5350  150.3950 N   0  0  0  0  0  0  0  0  0  0  0  0
  161.6230  206.3230  149.1890 N   0  0  0  0  0  0  0  0  0  0  0  0
  160.3660  204.8950  150.8510 C   0  0  0  0  0  3  0  0  0  0  0  0
  161.5520  204.0330  148.9410 C   0  0  0  0  0  0  0  0  0  0  0  0
  161.1790  202.7300  149.2830 C   0  0  0  0  0  0  0  0  0  0  0  0
  161.1510  205.0880  149.7100 C   0  0  0  0  0  0  0  0  0  0  0  0
  160.2860  204.3710  144.1610 O   0  0  0  0  0  0  0  0  0  0  0  0
  160.8310  205.4530  143.4450 C   0  0  0  0  0  2  0  0  0  0  0  0
  160.4780  205.5700  144.8860 C   0  0  2  0  0  3  0  0  0  0  0  0
  161.9890  208.8560  149.1400 C   0  0  0  0  0  2  0  0  0  0  0  0
  161.9560  210.0530  150.0870 C   0  0  0  0  0  2  0  0  0  0  0  0
  161.8340  213.7630  147.9290 C   0  0  0  0  0  3  0  0  0  0  0  0
  162.7330  212.7620  147.5530 C   0  0  0  0  0  3  0  0  0  0  0  0
  160.9730  213.5580  149.0110 C   0  0  0  0  0  3  0  0  0  0  0  0
  162.7740  211.5560  148.2610 C   0  0  0  0  0  3  0  0  0  0  0  0
  161.0120  212.3500  149.7170 C   0  0  0  0  0  3  0  0  0  0  0  0
  161.9140  211.3490  149.3450 C   0  0  0  0  0  0  0  0  0  0  0  0
  1  5  1  0  0  0  0
  1  2  1  1  0  0  0
  2  9  1  0  0  0  0
  4  5  1  6  0  0  0
  4  9  1  0  0  0  0
  4 14  1  0  0  0  0
  6 15  1  0  0  0  0
  7 10  2  0  0  0  0
  9  8  1  1  0  0  0
  9 12  1  0  0  0  0
 11  3  2  0  0  0  0
 12 16  1  0  0  0  0
 12  7  1  0  0  0  0
 13  3  1  0  0  0  0
 14 15  2  0  0  0  0
 14 16  1  0  0  0  0
 15 11  1  0  0  0  0
 16 13  2  0  0  0  0
 17 19  1  0  0  0  0
 18 17  1  0  0  0  0
 19 18  1  6  0  0  0
 19  1  1  0  0  0  0
 20  7  1  0  0  0  0
 20 21  1  0  0  0  0
 22 24  1  0  0  0  0
 23 22  2  0  0  0  0
 23 25  1  0  0  0  0
 24 26  2  0  0  0  0
 25 27  2  0  0  0  0
 27 26  1  0  0  0  0
 27 21  1  0  0  0  0
M  END
>  <MODEL>
9

>  <REMARK>
 VINA RESULT:      -4.7      5.151      9.265
  Name = 
  4 active torsions:
  status: ('A' for Active; 'I' for Inactive)
    1  A    between atoms: C_1  and  C_26
    2  A    between atoms: C_10  and  C_16
    3  A    between atoms: C_16  and  C_21
    4  A    between atoms: C_21  and  C_27
                            x       y       z     vdW  Elec       q    Type
                         _______ _______ _______ _____ _____    ______ ____

>  <TORSDO>
F 4

$$$$
