=
 OpenBabel11072411243D

 42 46  0  0  1  0  0  0  0  0999 V2000
  162.3420  210.0650  154.2810 O   0  0  0  0  0  0  0  0  0  0  0  0
  162.6140  210.7470  151.9030 C   0  0  0  0  0  2  0  0  0  0  0  0
  160.0040  212.1900  155.7290 C   0  0  0  0  0  1  0  0  0  0  0  0
  161.3950  206.1520  155.1530 C   0  0  0  0  0  2  0  0  0  0  0  0
  159.7760  208.9470  156.8000 O   0  0  0  0  0  0  0  0  0  0  0  0
  160.6280  211.4700  153.4640 C   0  0  2  0  0  3  0  0  0  0  0  0
  161.1280  207.3460  151.9900 C   0  0  0  0  0  0  0  0  0  0  0  0
  161.4140  208.6090  152.0850 N   0  0  0  0  0  0  0  0  0  0  0  0
  161.0310  205.5990  153.7760 C   0  0  0  0  0  2  0  0  0  0  0  0
  161.6190  206.5600  150.9000 N   0  0  0  0  0  2  0  0  0  0  0  0
  161.4340  209.7510  149.9400 C   0  0  0  0  0  1  0  0  0  0  0  0
  162.1620  208.5220  157.1690 O   0  0  0  0  0  0  0  0  0  0  0  0
  162.0750  211.0580  153.3260 C   0  0  1  0  0  3  0  0  0  0  0  0
  160.0100  207.6380  154.0340 O   0  0  0  0  0  0  0  0  0  0  0  0
  160.4370  206.7530  153.1040 N   0  0  0  0  0  0  0  0  0  0  0  0
  160.3330  210.9980  154.8590 C   0  0  1  0  0  3  0  0  0  0  0  0
  161.1010  207.6050  154.8900 C   0  0  1  0  0  3  0  0  0  0  0  0
  161.5470  210.3610  155.3580 N   0  0  1  0  0  0  0  0  0  0  0  0
  162.2110  209.4340  151.2030 C   0  0  1  0  0  3  0  0  0  0  0  0
  161.1210  208.8560  156.1380 S   0  0  0  0  0  0  0  0  0  0  0  0
  162.3190  204.4090  151.2250 C   0  0  0  0  0  1  0  0  0  0  0  0
  161.2300  205.2240  150.7200 N   0  0  0  0  0  0  0  0  0  0  0  0
  161.1750  204.9840  149.2830 C   0  0  0  0  0  2  0  0  0  0  0  0
  160.4430  202.6480  150.0780 C   0  0  0  0  0  3  0  0  0  0  0  0
  160.9920  201.5730  147.5140 C   0  0  0  0  0  2  0  0  0  0  0  0
  161.2360  200.7180  148.7620 C   0  0  0  0  0  2  0  0  0  0  0  0
  160.9540  203.5320  149.0100 C   0  0  0  0  0  0  0  0  0  0  0  0
  160.5390  201.3180  149.9550 C   0  0  0  0  0  3  0  0  0  0  0  0
  161.2590  203.0250  147.8080 C   0  0  0  0  0  3  0  0  0  0  0  0
  159.8010  210.7870  152.5660 O   0  0  0  0  0  0  0  0  0  0  0  0
  157.9840  211.8450  153.4560 O   0  0  0  0  0  1  0  0  0  0  0  0
  158.7420  211.6610  152.2970 C   0  0  1  0  0  3  0  0  0  0  0  0
  159.2970  213.0050  151.8090 C   0  0  2  0  0  3  0  0  0  0  0  0
  158.9420  214.0740  152.7320 N   0  0  0  0  0  1  0  0  0  0  0  0
  161.0040  213.1680  149.5240 O   0  0  0  0  0  0  0  0  0  0  0  0
  157.4970  213.3190  150.1570 C   0  0  0  0  0  3  0  0  0  0  0  0
  158.8160  213.3350  150.4230 C   0  0  0  0  0  0  0  0  0  0  0  0
  157.8520  213.1590  147.6820 C   0  0  2  0  0  3  0  0  0  0  0  0
  156.9120  213.5960  148.8000 C   0  0  0  0  0  2  0  0  0  0  0  0
  159.3320  214.2060  147.7580 S   0  0  0  0  0  0  0  0  0  0  0  0
  157.0450  213.3880  146.1170 Cl  0  0  0  0  0  0  0  0  0  0  0  0
  159.8110  213.5230  149.3450 C   0  0  0  0  0  0  0  0  0  0  0  0
  6 30  1  6  0  0  0
  6 16  1  0  0  0  0
  7  8  2  0  0  0  0
  7 15  1  0  0  0  0
  9  4  1  0  0  0  0
 10  7  1  0  0  0  0
 13  2  1  6  0  0  0
 13  6  1  0  0  0  0
 13  1  1  0  0  0  0
 14 17  1  0  0  0  0
 15  9  1  0  0  0  0
 15 14  1  0  0  0  0
 16 18  1  0  0  0  0
 16  3  1  1  0  0  0
 17  4  1  1  0  0  0
 17 20  1  0  0  0  0
 18  1  1  6  0  0  0
 18 20  1  0  0  0  0
 19 11  1  6  0  0  0
 19  2  1  0  0  0  0
 19  8  1  0  0  0  0
 20  5  2  0  0  0  0
 20 12  2  0  0  0  0
 22 10  1  0  0  0  0
 22 21  1  0  0  0  0
 23 22  1  0  0  0  0
 25 29  1  0  0  0  0
 25 26  1  0  0  0  0
 26 28  1  0  0  0  0
 27 23  1  0  0  0  0
 27 24  1  0  0  0  0
 28 24  2  0  0  0  0
 29 27  2  0  0  0  0
 32 30  1  0  0  0  0
 32 31  1  1  0  0  0
 33 32  1  0  0  0  0
 33 34  1  1  0  0  0
 36 37  2  0  0  0  0
 37 33  1  0  0  0  0
 38 41  1  6  0  0  0
 38 40  1  0  0  0  0
 38 39  1  0  0  0  0
 39 36  1  0  0  0  0
 40 42  1  0  0  0  0
 42 35  2  0  0  0  0
 42 37  1  0  0  0  0
M  END
>  <MODEL>
1

>  <REMARK>
 VINA RESULT:      -6.0      0.000      0.000
  Name = 
  7 active torsions:
  status: ('A' for Active; 'I' for Inactive)
    1  A    between atoms: C_8  and  C_24
    2  A    between atoms: C_8  and  O_38
    3  A    between atoms: C_11  and  O_38
    4  A    between atoms: C_16  and  C_34
    5  A    between atoms: N_18  and  N_25
    6  A    between atoms: C_22  and  C_24
    7  A    between atoms: N_25  and  C_34
                            x       y       z     vdW  Elec       q    Type
                         _______ _______ _______ _____ _____    ______ ____

>  <TORSDO>
F 7

$$$$
=
 OpenBabel11072411243D

 42 46  0  0  1  0  0  0  0  0999 V2000
  161.9480  209.5430  154.4850 O   0  0  0  0  0  0  0  0  0  0  0  0
  162.4430  211.1520  152.6510 C   0  0  0  0  0  2  0  0  0  0  0  0
  159.1220  210.6840  156.1560 C   0  0  0  0  0  1  0  0  0  0  0  0
  161.5160  205.5460  153.5890 C   0  0  0  0  0  2  0  0  0  0  0  0
  159.2590  207.2790  155.8360 O   0  0  0  0  0  0  0  0  0  0  0  0
  160.1670  211.0020  153.9550 C   0  0  2  0  0  3  0  0  0  0  0  0
  161.5160  207.8900  151.1390 C   0  0  0  0  0  0  0  0  0  0  0  0
  161.5820  209.0270  151.7630 N   0  0  0  0  0  0  0  0  0  0  0  0
  161.4440  205.5690  152.0630 C   0  0  0  0  0  2  0  0  0  0  0  0
  162.2740  207.6600  149.9480 N   0  0  0  0  0  2  0  0  0  0  0  0
  161.7260  210.9370  150.2680 C   0  0  0  0  0  1  0  0  0  0  0  0
  161.6050  206.9530  156.4660 O   0  0  0  0  0  0  0  0  0  0  0  0
  161.6650  210.8110  153.9520 C   0  0  1  0  0  3  0  0  0  0  0  0
  160.0870  207.2300  152.8810 O   0  0  0  0  0  0  0  0  0  0  0  0
  160.7760  206.8380  151.7840 N   0  0  0  0  0  0  0  0  0  0  0  0
  159.7550  209.9810  154.9770 C   0  0  1  0  0  3  0  0  0  0  0  0
  161.0370  206.9490  153.8520 C   0  0  1  0  0  3  0  0  0  0  0  0
  160.9720  209.3060  155.4170 N   0  0  1  0  0  0  0  0  0  0  0  0
  162.3560  210.2050  151.4380 C   0  0  1  0  0  3  0  0  0  0  0  0
  160.6820  207.5830  155.4630 S   0  0  0  0  0  0  0  0  0  0  0  0
  163.1640  206.5180  148.1800 C   0  0  0  0  0  1  0  0  0  0  0  0
  162.1310  206.4830  149.1970 N   0  0  0  0  0  0  0  0  0  0  0  0
  160.8590  206.5780  148.4900 C   0  0  0  0  0  2  0  0  0  0  0  0
  161.2630  204.2760  147.4140 C   0  0  0  0  0  3  0  0  0  0  0  0
  160.5300  205.3030  144.8760 C   0  0  0  0  0  2  0  0  0  0  0  0
  161.6170  204.2290  144.9720 C   0  0  0  0  0  2  0  0  0  0  0  0
  160.8710  205.6950  147.2860 C   0  0  0  0  0  0  0  0  0  0  0  0
  161.5830  203.5650  146.3250 C   0  0  0  0  0  3  0  0  0  0  0  0
  160.5670  206.2020  146.0840 C   0  0  0  0  0  3  0  0  0  0  0  0
  159.5940  210.6710  152.7230 O   0  0  0  0  0  0  0  0  0  0  0  0
  157.9400  211.8960  153.7100 O   0  0  0  0  0  1  0  0  0  0  0  0
  158.5970  211.6300  152.5060 C   0  0  1  0  0  3  0  0  0  0  0  0
  159.2300  212.9130  151.9540 C   0  0  2  0  0  3  0  0  0  0  0  0
  159.0100  214.0280  152.8640 N   0  0  0  0  0  1  0  0  0  0  0  0
  160.8830  213.6460  149.7420 O   0  0  0  0  0  0  0  0  0  0  0  0
  157.4230  212.9650  150.2810 C   0  0  0  0  0  3  0  0  0  0  0  0
  158.7030  213.2480  150.5860 C   0  0  0  0  0  0  0  0  0  0  0  0
  157.8320  213.1040  147.8120 C   0  0  2  0  0  3  0  0  0  0  0  0
  156.8060  213.2230  148.9340 C   0  0  0  0  0  2  0  0  0  0  0  0
  159.0410  214.4400  148.0190 S   0  0  0  0  0  0  0  0  0  0  0  0
  157.0110  213.2840  146.2490 Cl  0  0  0  0  0  0  0  0  0  0  0  0
  159.6430  213.7430  149.5580 C   0  0  0  0  0  0  0  0  0  0  0  0
  6 30  1  6  0  0  0
  6 16  1  0  0  0  0
  7  8  2  0  0  0  0
  7 15  1  0  0  0  0
  9  4  1  0  0  0  0
 10  7  1  0  0  0  0
 13  2  1  6  0  0  0
 13  6  1  0  0  0  0
 13  1  1  0  0  0  0
 14 17  1  0  0  0  0
 15  9  1  0  0  0  0
 15 14  1  0  0  0  0
 16 18  1  0  0  0  0
 16  3  1  1  0  0  0
 17  4  1  1  0  0  0
 17 20  1  0  0  0  0
 18  1  1  6  0  0  0
 18 20  1  0  0  0  0
 19 11  1  6  0  0  0
 19  8  1  0  0  0  0
 19  2  1  0  0  0  0
 20  5  2  0  0  0  0
 20 12  2  0  0  0  0
 21 22  1  0  0  0  0
 22 10  1  0  0  0  0
 23 22  1  0  0  0  0
 25 26  1  0  0  0  0
 25 29  1  0  0  0  0
 26 28  1  0  0  0  0
 27 24  1  0  0  0  0
 27 23  1  0  0  0  0
 28 24  2  0  0  0  0
 29 27  2  0  0  0  0
 32 30  1  0  0  0  0
 32 31  1  1  0  0  0
 33 32  1  0  0  0  0
 33 34  1  1  0  0  0
 36 37  2  0  0  0  0
 37 33  1  0  0  0  0
 38 41  1  6  0  0  0
 38 40  1  0  0  0  0
 38 39  1  0  0  0  0
 39 36  1  0  0  0  0
 40 42  1  0  0  0  0
 42 35  2  0  0  0  0
 42 37  1  0  0  0  0
M  END
>  <MODEL>
2

>  <REMARK>
 VINA RESULT:      -5.5      1.485      1.938
  Name = 
  7 active torsions:
  status: ('A' for Active; 'I' for Inactive)
    1  A    between atoms: C_8  and  C_24
    2  A    between atoms: C_8  and  O_38
    3  A    between atoms: C_11  and  O_38
    4  A    between atoms: C_16  and  C_34
    5  A    between atoms: N_18  and  N_25
    6  A    between atoms: C_22  and  C_24
    7  A    between atoms: N_25  and  C_34
                            x       y       z     vdW  Elec       q    Type
                         _______ _______ _______ _____ _____    ______ ____

>  <TORSDO>
F 7

$$$$
