=
 OpenBabel11072411053D

 30 33  0  0  1  0  0  0  0  0999 V2000
  161.4160  206.0290  152.1510 C   0  0  0  0  0  2  0  0  0  0  0  0
  161.6030  207.3870  151.6770 N   0  0  0  0  0  0  0  0  0  0  0  0
  161.1010  206.1520  153.6290 C   0  0  0  0  0  2  0  0  0  0  0  0
  161.4640  207.5770  154.0250 C   0  0  0  0  0  2  0  0  0  0  0  0
  162.1080  208.9100  149.9820 O   0  0  0  0  0  0  0  0  0  0  0  0
  161.5320  208.3770  152.7350 C   0  0  2  0  0  3  0  0  0  0  0  0
  161.9110  207.7090  150.3140 C   0  0  0  0  0  0  0  0  0  0  0  0
  160.8010  211.5560  155.3570 C   0  0  2  0  0  3  0  0  0  0  0  0
  161.6180  210.3090  155.1470 C   0  0  0  0  0  2  0  0  0  0  0  0
  159.4150  211.1610  155.8480 C   0  0  0  0  0  2  0  0  0  0  0  0
  161.1650  211.1060  153.9310 C   0  0  1  0  0  3  0  0  0  0  0  0
  157.7070  212.4350  154.5140 C   0  0  0  0  0  2  0  0  0  0  0  0
  158.5050  212.3810  155.8100 C   0  0  1  0  0  3  0  0  0  0  0  0
  160.0710  210.3910  153.1450 C   0  0  0  0  0  0  0  0  0  0  0  0
  158.7910  211.0760  152.7390 C   0  0  0  0  0  2  0  0  0  0  0  0
  158.6070  212.4850  153.2880 C   0  0  0  0  0  2  0  0  0  0  0  0
  160.2780  209.1900  152.5820 C   0  0  0  0  0  3  0  0  0  0  0  0
  156.2920  211.8840  156.5570 O   0  0  0  0  0  1  0  0  0  0  0  0
  157.5400  212.3450  156.9800 C   0  0  0  0  0  2  0  0  0  0  0  0
  161.9570  206.6280  149.2750 C   0  0  1  0  0  3  0  0  0  0  0  0
  160.4230  205.6370  149.2770 S   0  0  0  0  0  0  0  0  0  0  0  0
  161.3010  204.1070  149.3630 N   0  0  0  0  0  0  0  0  0  0  0  0
  160.9090  201.9600  148.6560 C   0  0  0  0  0  2  0  0  0  0  0  0
  160.8080  203.3950  150.5330 C   0  0  0  0  0  2  0  0  0  0  0  0
  160.6930  201.9470  150.1450 C   0  0  0  0  0  2  0  0  0  0  0  0
  160.9130  203.3550  148.2420 N   0  0  0  0  0  2  0  0  0  0  0  0
  162.3600  207.1340  147.8850 C   0  0  0  0  0  2  0  0  0  0  0  0
  160.8710  206.2950  146.0220 N   0  0  0  0  0  2  0  0  0  0  0  0
  162.0690  206.1700  146.7790 C   0  0  0  0  0  0  0  0  0  0  0  0
  162.9260  205.2520  146.4770 N   0  0  0  0  0  1  0  0  0  0  0  0
  1  3  1  0  0  0  0
  2  1  1  0  0  0  0
  2  6  1  0  0  0  0
  3  4  1  0  0  0  0
  5  7  2  0  0  0  0
  6 17  1  6  0  0  0
  6  4  1  0  0  0  0
  7  2  1  0  0  0  0
  8  9  1  1  0  0  0
  8 10  1  0  0  0  0
 11  9  1  1  0  0  0
 11  8  1  0  0  0  0
 12 13  1  0  0  0  0
 13 10  1  0  0  0  0
 13 19  1  1  0  0  0
 14 11  1  0  0  0  0
 15 14  1  0  0  0  0
 15 16  1  0  0  0  0
 16 12  1  0  0  0  0
 17 14  2  0  0  0  0
 18 19  1  0  0  0  0
 20 27  1  6  0  0  0
 20 21  1  0  0  0  0
 20  7  1  0  0  0  0
 21 22  1  0  0  0  0
 22 24  1  0  0  0  0
 23 25  1  0  0  0  0
 25 24  1  0  0  0  0
 26 23  1  0  0  0  0
 26 22  1  0  0  0  0
 28 29  2  0  0  0  0
 29 27  1  0  0  0  0
 30 29  1  0  0  0  0
M  END
>  <MODEL>
1

>  <REMARK>
 VINA RESULT:      -7.7      0.000      0.000
  Name = 
  7 active torsions:
  status: ('A' for Active; 'I' for Inactive)
    1  A    between atoms: N_1  and  S_4
    2  A    between atoms: S_4  and  C_13
    3  A    between atoms: C_13  and  C_14
    4  A    between atoms: C_13  and  C_28
    5  A    between atoms: C_14  and  C_17
    6  A    between atoms: C_18  and  C_24
    7  A    between atoms: C_26  and  C_30
                            x       y       z     vdW  Elec       q    Type
                         _______ _______ _______ _____ _____    ______ ____

>  <TORSDO>
F 7

$$$$
=
 OpenBabel11072411053D

 30 33  0  0  1  0  0  0  0  0999 V2000
  160.9110  206.5800  153.3250 C   0  0  0  0  0  2  0  0  0  0  0  0
  161.1040  207.8490  152.6510 N   0  0  0  0  0  0  0  0  0  0  0  0
  160.5460  206.9270  154.7550 C   0  0  0  0  0  2  0  0  0  0  0  0
  160.8860  208.4000  154.9350 C   0  0  0  0  0  2  0  0  0  0  0  0
  161.6550  209.0960  150.7560 O   0  0  0  0  0  0  0  0  0  0  0  0
  160.9920  208.9910  153.5390 C   0  0  2  0  0  3  0  0  0  0  0  0
  161.4550  207.9590  151.2650 C   0  0  0  0  0  0  0  0  0  0  0  0
  160.1300  212.5050  155.6430 C   0  0  2  0  0  3  0  0  0  0  0  0
  160.9650  211.2520  155.6480 C   0  0  0  0  0  2  0  0  0  0  0  0
  158.7280  212.1660  156.1330 C   0  0  0  0  0  2  0  0  0  0  0  0
  160.5550  211.8590  154.3130 C   0  0  1  0  0  3  0  0  0  0  0  0
  157.0650  213.2100  154.5630 C   0  0  0  0  0  2  0  0  0  0  0  0
  157.8110  213.3540  155.8830 C   0  0  1  0  0  3  0  0  0  0  0  0
  159.4990  211.0230  153.5970 C   0  0  0  0  0  0  0  0  0  0  0  0
  158.2310  211.6250  153.0460 C   0  0  0  0  0  2  0  0  0  0  0  0
  158.0130  213.0950  153.3780 C   0  0  0  0  0  2  0  0  0  0  0  0
  159.7390  209.7570  153.2220 C   0  0  0  0  0  3  0  0  0  0  0  0
  155.5190  213.1900  156.5320 O   0  0  0  0  0  1  0  0  0  0  0  0
  156.8000  213.4740  157.0070 C   0  0  0  0  0  2  0  0  0  0  0  0
  161.5420  206.7310  150.4090 C   0  0  1  0  0  3  0  0  0  0  0  0
  162.2940  207.1030  148.7860 S   0  0  0  0  0  0  0  0  0  0  0  0
  161.2650  205.9430  147.9400 N   0  0  0  0  0  0  0  0  0  0  0  0
  161.5800  204.3940  146.2770 C   0  0  0  0  0  2  0  0  0  0  0  0
  160.8100  206.5860  146.7160 C   0  0  0  0  0  2  0  0  0  0  0  0
  160.8530  205.5430  145.6330 C   0  0  0  0  0  2  0  0  0  0  0  0
  162.0940  204.8780  147.5490 N   0  0  0  0  0  2  0  0  0  0  0  0
  162.1800  205.5320  151.1220 C   0  0  0  0  0  2  0  0  0  0  0  0
  161.8130  203.1030  151.7180 N   0  0  0  0  0  1  0  0  0  0  0  0
  161.3450  204.2910  151.0910 C   0  0  0  0  0  0  0  0  0  0  0  0
  160.1800  204.3090  150.5360 N   0  0  0  0  0  2  0  0  0  0  0  0
  1  3  1  0  0  0  0
  2  1  1  0  0  0  0
  2  6  1  0  0  0  0
  3  4  1  0  0  0  0
  5  7  2  0  0  0  0
  6 17  1  6  0  0  0
  6  4  1  0  0  0  0
  7  2  1  0  0  0  0
  8  9  1  1  0  0  0
  8 10  1  0  0  0  0
 11  8  1  0  0  0  0
 11  9  1  1  0  0  0
 12 13  1  0  0  0  0
 13 10  1  0  0  0  0
 13 19  1  1  0  0  0
 14 11  1  0  0  0  0
 15 16  1  0  0  0  0
 15 14  1  0  0  0  0
 16 12  1  0  0  0  0
 17 14  2  0  0  0  0
 18 19  1  0  0  0  0
 20 27  1  1  0  0  0
 20  7  1  0  0  0  0
 21 20  1  0  0  0  0
 22 21  1  0  0  0  0
 23 26  1  0  0  0  0
 24 22  1  0  0  0  0
 25 23  1  0  0  0  0
 25 24  1  0  0  0  0
 26 22  1  0  0  0  0
 29 27  1  0  0  0  0
 29 28  1  0  0  0  0
 30 29  2  0  0  0  0
M  END
>  <MODEL>
2

>  <REMARK>
 VINA RESULT:      -6.5      1.496      2.693
  Name = 
  7 active torsions:
  status: ('A' for Active; 'I' for Inactive)
    1  A    between atoms: N_1  and  S_4
    2  A    between atoms: S_4  and  C_13
    3  A    between atoms: C_13  and  C_14
    4  A    between atoms: C_13  and  C_28
    5  A    between atoms: C_14  and  C_17
    6  A    between atoms: C_18  and  C_24
    7  A    between atoms: C_26  and  C_30
                            x       y       z     vdW  Elec       q    Type
                         _______ _______ _______ _____ _____    ______ ____

>  <TORSDO>
F 7

$$$$
=
 OpenBabel11072411053D

 30 33  0  0  1  0  0  0  0  0999 V2000
  162.2670  209.2930  148.8910 C   0  0  0  0  0  2  0  0  0  0  0  0
  161.5250  208.9560  150.0900 N   0  0  0  0  0  0  0  0  0  0  0  0
  162.5180  210.7870  148.9720 C   0  0  0  0  0  2  0  0  0  0  0  0
  161.5960  211.3140  150.0640 C   0  0  0  0  0  2  0  0  0  0  0  0
  160.4110  207.4090  151.4380 O   0  0  0  0  0  0  0  0  0  0  0  0
  161.1860  210.1120  150.8980 C   0  0  2  0  0  3  0  0  0  0  0  0
  161.0960  207.6230  150.4000 C   0  0  0  0  0  0  0  0  0  0  0  0
  159.3020  211.0010  154.5270 C   0  0  2  0  0  3  0  0  0  0  0  0
  159.1790  211.1030  153.0300 C   0  0  0  0  0  2  0  0  0  0  0  0
  160.2240  212.1070  155.0240 C   0  0  0  0  0  2  0  0  0  0  0  0
  159.9500  209.9340  153.6280 C   0  0  1  0  0  3  0  0  0  0  0  0
  161.8790  211.1000  156.6260 C   0  0  0  0  0  2  0  0  0  0  0  0
  160.5640  211.8550  156.4850 C   0  0  1  0  0  3  0  0  0  0  0  0
  161.4540  210.0580  153.4050 C   0  0  0  0  0  0  0  0  0  0  0  0
  162.4510  209.9030  154.5250 C   0  0  0  0  0  2  0  0  0  0  0  0
  161.8470  209.7550  155.9150 C   0  0  0  0  0  2  0  0  0  0  0  0
  161.9820  210.0900  152.1720 C   0  0  0  0  0  3  0  0  0  0  0  0
  159.5140  213.9280  157.0370 O   0  0  0  0  0  1  0  0  0  0  0  0
  160.6730  213.1740  157.2270 C   0  0  0  0  0  2  0  0  0  0  0  0
  161.4960  206.4770  149.5200 C   0  0  1  0  0  3  0  0  0  0  0  0
  161.8960  204.9910  150.5030 S   0  0  0  0  0  0  0  0  0  0  0  0
  160.7800  203.9720  149.5890 N   0  0  0  0  0  0  0  0  0  0  0  0
  160.1210  201.7760  149.6900 C   0  0  0  0  0  2  0  0  0  0  0  0
  161.5620  203.2820  148.5740 C   0  0  0  0  0  2  0  0  0  0  0  0
  161.0400  201.8730  148.5040 C   0  0  0  0  0  2  0  0  0  0  0  0
  160.3140  202.9860  150.4750 N   0  0  0  0  0  2  0  0  0  0  0  0
  160.5080  206.2100  148.3770 C   0  0  0  0  0  2  0  0  0  0  0  0
  160.2910  206.3850  145.8650 N   0  0  0  0  0  2  0  0  0  0  0  0
  161.1220  206.2810  147.0150 C   0  0  0  0  0  0  0  0  0  0  0  0
  162.4060  206.2940  146.8820 N   0  0  0  0  0  1  0  0  0  0  0  0
  1  3  1  0  0  0  0
  1  2  1  0  0  0  0
  2  7  1  0  0  0  0
  2  6  1  0  0  0  0
  3  4  1  0  0  0  0
  4  6  1  0  0  0  0
  6 17  1  1  0  0  0
  7  5  2  0  0  0  0
  8  9  1  6  0  0  0
  8 10  1  0  0  0  0
 10 13  1  0  0  0  0
 11  9  1  6  0  0  0
 11  8  1  0  0  0  0
 13 12  1  0  0  0  0
 13 19  1  1  0  0  0
 14 11  1  0  0  0  0
 14 15  1  0  0  0  0
 15 16  1  0  0  0  0
 16 12  1  0  0  0  0
 17 14  2  0  0  0  0
 18 19  1  0  0  0  0
 20 27  1  6  0  0  0
 20  7  1  0  0  0  0
 20 21  1  0  0  0  0
 22 26  1  0  0  0  0
 22 21  1  0  0  0  0
 23 26  1  0  0  0  0
 24 22  1  0  0  0  0
 25 24  1  0  0  0  0
 25 23  1  0  0  0  0
 28 29  2  0  0  0  0
 29 27  1  0  0  0  0
 30 29  1  0  0  0  0
M  END
>  <MODEL>
3

>  <REMARK>
 VINA RESULT:      -6.2      1.831      2.973
  Name = 
  7 active torsions:
  status: ('A' for Active; 'I' for Inactive)
    1  A    between atoms: N_1  and  S_4
    2  A    between atoms: S_4  and  C_13
    3  A    between atoms: C_13  and  C_14
    4  A    between atoms: C_13  and  C_28
    5  A    between atoms: C_14  and  C_17
    6  A    between atoms: C_18  and  C_24
    7  A    between atoms: C_26  and  C_30
                            x       y       z     vdW  Elec       q    Type
                         _______ _______ _______ _____ _____    ______ ____

>  <TORSDO>
F 7

$$$$
=
 OpenBabel11072411053D

 30 33  0  0  1  0  0  0  0  0999 V2000
  158.3390  212.6040  147.1390 C   0  0  0  0  0  2  0  0  0  0  0  0
  159.5150  212.9610  146.3680 N   0  0  0  0  0  0  0  0  0  0  0  0
  157.1840  212.6290  146.1570 C   0  0  0  0  0  2  0  0  0  0  0  0
  157.6950  213.3460  144.9150 C   0  0  0  0  0  2  0  0  0  0  0  0
  161.8010  213.4070  146.2130 O   0  0  0  0  0  0  0  0  0  0  0  0
  159.2120  213.3090  144.9930 C   0  0  2  0  0  3  0  0  0  0  0  0
  160.8300  213.0430  146.9320 C   0  0  0  0  0  0  0  0  0  0  0  0
  159.2640  213.9820  140.8620 C   0  0  2  0  0  3  0  0  0  0  0  0
  158.6840  214.4530  142.1700 C   0  0  0  0  0  2  0  0  0  0  0  0
  158.5010  212.7480  140.3990 C   0  0  0  0  0  2  0  0  0  0  0  0
  160.0720  213.8260  142.1630 C   0  0  1  0  0  3  0  0  0  0  0  0
  160.1660  211.0000  139.6990 C   0  0  0  0  0  2  0  0  0  0  0  0
  159.2400  212.1140  139.2290 C   0  0  1  0  0  3  0  0  0  0  0  0
  160.0830  212.4370  142.7920 C   0  0  0  0  0  0  0  0  0  0  0  0
  160.7100  211.2470  142.1100 C   0  0  0  0  0  2  0  0  0  0  0  0
  161.2050  211.4990  140.6920 C   0  0  0  0  0  2  0  0  0  0  0  0
  159.7370  212.2420  144.0740 C   0  0  0  0  0  3  0  0  0  0  0  0
  158.7290  210.3400  137.7150 O   0  0  0  0  0  1  0  0  0  0  0  0
  158.2450  211.5400  138.2380 C   0  0  0  0  0  2  0  0  0  0  0  0
  161.0640  212.6560  148.3620 C   0  0  1  0  0  3  0  0  0  0  0  0
  162.5630  211.6270  148.5370 S   0  0  0  0  0  0  0  0  0  0  0  0
  161.6800  210.3070  149.3100 N   0  0  0  0  0  0  0  0  0  0  0  0
  162.1340  208.7990  150.9780 C   0  0  0  0  0  2  0  0  0  0  0  0
  162.0640  209.0790  148.6320 C   0  0  0  0  0  2  0  0  0  0  0  0
  162.2130  208.0230  149.6920 C   0  0  0  0  0  2  0  0  0  0  0  0
  162.1680  210.2100  150.6240 N   0  0  0  0  0  2  0  0  0  0  0  0
  161.0170  213.8430  149.3330 C   0  0  0  0  0  2  0  0  0  0  0  0
  158.7230  214.4270  150.2210 N   0  0  0  0  0  2  0  0  0  0  0  0
  159.9540  213.7310  150.3790 C   0  0  0  0  0  0  0  0  0  0  0  0
  160.1320  212.9660  151.4040 N   0  0  0  0  0  1  0  0  0  0  0  0
  2  7  1  0  0  0  0
  2  1  1  0  0  0  0
  3  1  1  0  0  0  0
  4  6  1  0  0  0  0
  4  3  1  0  0  0  0
  5  7  2  0  0  0  0
  6 17  1  6  0  0  0
  6  2  1  0  0  0  0
  7 20  1  0  0  0  0
  8 10  1  1  0  0  0
  8 11  1  0  0  0  0
  8  9  1  0  0  0  0
 11  9  1  1  0  0  0
 11 14  1  0  0  0  0
 12 16  1  0  0  0  0
 13 19  1  6  0  0  0
 13 12  1  0  0  0  0
 13 10  1  0  0  0  0
 14 17  2  0  0  0  0
 15 14  1  0  0  0  0
 16 15  1  0  0  0  0
 18 19  1  0  0  0  0
 20 21  1  0  0  0  0
 20 27  1  1  0  0  0
 21 22  1  0  0  0  0
 22 26  1  0  0  0  0
 24 22  1  0  0  0  0
 24 25  1  0  0  0  0
 25 23  1  0  0  0  0
 26 23  1  0  0  0  0
 27 29  1  0  0  0  0
 28 29  2  0  0  0  0
 29 30  1  0  0  0  0
M  END
>  <MODEL>
4

>  <REMARK>
 VINA RESULT:      -6.0      7.337     11.035
  Name = 
  7 active torsions:
  status: ('A' for Active; 'I' for Inactive)
    1  A    between atoms: N_1  and  S_4
    2  A    between atoms: S_4  and  C_13
    3  A    between atoms: C_13  and  C_14
    4  A    between atoms: C_13  and  C_28
    5  A    between atoms: C_14  and  C_17
    6  A    between atoms: C_18  and  C_24
    7  A    between atoms: C_26  and  C_30
                            x       y       z     vdW  Elec       q    Type
                         _______ _______ _______ _____ _____    ______ ____

>  <TORSDO>
F 7

$$$$
=
 OpenBabel11072411053D

 30 33  0  0  1  0  0  0  0  0999 V2000
  162.6950  208.5030  148.2610 C   0  0  0  0  0  2  0  0  0  0  0  0
  161.5480  207.9050  148.9160 N   0  0  0  0  0  0  0  0  0  0  0  0
  163.1090  209.6660  149.1420 C   0  0  0  0  0  2  0  0  0  0  0  0
  161.9520  209.9040  150.1040 C   0  0  0  0  0  2  0  0  0  0  0  0
  159.8350  206.3210  148.9980 O   0  0  0  0  0  0  0  0  0  0  0  0
  161.1180  208.6340  150.0940 C   0  0  2  0  0  3  0  0  0  0  0  0
  160.8570  206.7590  148.4010 C   0  0  0  0  0  0  0  0  0  0  0  0
  160.2410  210.2180  153.8680 C   0  0  2  0  0  3  0  0  0  0  0  0
  160.4350  210.5600  152.4140 C   0  0  0  0  0  2  0  0  0  0  0  0
  161.6070  210.0670  154.5250 C   0  0  0  0  0  2  0  0  0  0  0  0
  159.8970  209.1830  152.7810 C   0  0  1  0  0  3  0  0  0  0  0  0
  161.6020  207.9540  155.8880 C   0  0  0  0  0  2  0  0  0  0  0  0
  161.4290  209.4670  155.9130 C   0  0  1  0  0  3  0  0  0  0  0  0
  160.9230  208.0790  152.5470 C   0  0  0  0  0  0  0  0  0  0  0  0
  161.2590  207.0520  153.5990 C   0  0  0  0  0  2  0  0  0  0  0  0
  160.6070  207.2780  154.9570 C   0  0  0  0  0  2  0  0  0  0  0  0
  161.4180  207.8260  151.3250 C   0  0  0  0  0  3  0  0  0  0  0  0
  163.4570  210.7050  156.1540 O   0  0  0  0  0  1  0  0  0  0  0  0
  162.4460  210.0620  156.8690 C   0  0  0  0  0  2  0  0  0  0  0  0
  161.3700  206.0530  147.1810 C   0  0  1  0  0  3  0  0  0  0  0  0
  162.4280  204.6330  147.6290 S   0  0  0  0  0  0  0  0  0  0  0  0
  161.0570  203.6700  148.1880 N   0  0  0  0  0  0  0  0  0  0  0  0
  160.6890  202.2060  149.9160 C   0  0  0  0  0  2  0  0  0  0  0  0
  161.2040  202.3410  147.6120 C   0  0  0  0  0  2  0  0  0  0  0  0
  160.8120  201.3570  148.6800 C   0  0  0  0  0  2  0  0  0  0  0  0
  161.2050  203.5230  149.5780 N   0  0  0  0  0  2  0  0  0  0  0  0
  160.2720  205.7070  146.1680 C   0  0  0  0  0  2  0  0  0  0  0  0
  160.4090  203.8020  144.5120 N   0  0  0  0  0  1  0  0  0  0  0  0
  160.7850  205.1200  144.8910 C   0  0  0  0  0  0  0  0  0  0  0  0
  161.5330  205.8250  144.1090 N   0  0  0  0  0  2  0  0  0  0  0  0
  1  2  1  0  0  0  0
  1  3  1  0  0  0  0
  2  6  1  0  0  0  0
  3  4  1  0  0  0  0
  6  4  1  0  0  0  0
  6 17  1  1  0  0  0
  7  2  1  0  0  0  0
  7  5  2  0  0  0  0
  8  9  1  6  0  0  0
  8 10  1  0  0  0  0
 10 13  1  0  0  0  0
 11  9  1  6  0  0  0
 11  8  1  0  0  0  0
 12 13  1  0  0  0  0
 13 19  1  1  0  0  0
 14 11  1  0  0  0  0
 14 15  1  0  0  0  0
 15 16  1  0  0  0  0
 16 12  1  0  0  0  0
 17 14  2  0  0  0  0
 18 19  1  0  0  0  0
 20 27  1  1  0  0  0
 20 21  1  0  0  0  0
 20  7  1  0  0  0  0
 21 22  1  0  0  0  0
 22 26  1  0  0  0  0
 24 22  1  0  0  0  0
 24 25  1  0  0  0  0
 25 23  1  0  0  0  0
 26 23  1  0  0  0  0
 28 29  1  0  0  0  0
 29 27  1  0  0  0  0
 30 29  2  0  0  0  0
M  END
>  <MODEL>
5

>  <REMARK>
 VINA RESULT:      -5.9      2.415      3.691
  Name = 
  7 active torsions:
  status: ('A' for Active; 'I' for Inactive)
    1  A    between atoms: N_1  and  S_4
    2  A    between atoms: S_4  and  C_13
    3  A    between atoms: C_13  and  C_14
    4  A    between atoms: C_13  and  C_28
    5  A    between atoms: C_14  and  C_17
    6  A    between atoms: C_18  and  C_24
    7  A    between atoms: C_26  and  C_30
                            x       y       z     vdW  Elec       q    Type
                         _______ _______ _______ _____ _____    ______ ____

>  <TORSDO>
F 7

$$$$
=
 OpenBabel11072411053D

 30 33  0  0  1  0  0  0  0  0999 V2000
  162.3340  206.8780  149.0530 C   0  0  0  0  0  2  0  0  0  0  0  0
  161.3010  206.5010  149.9980 N   0  0  0  0  0  0  0  0  0  0  0  0
  162.7900  208.2610  149.4760 C   0  0  0  0  0  2  0  0  0  0  0  0
  161.7430  208.7730  150.4560 C   0  0  0  0  0  2  0  0  0  0  0  0
  159.6880  205.0020  150.7750 O   0  0  0  0  0  0  0  0  0  0  0  0
  160.9750  207.5550  150.9410 C   0  0  2  0  0  3  0  0  0  0  0  0
  160.6110  205.2440  149.9500 C   0  0  0  0  0  0  0  0  0  0  0  0
  160.2280  210.1010  154.1770 C   0  0  2  0  0  3  0  0  0  0  0  0
  160.2700  210.0150  152.6740 C   0  0  0  0  0  2  0  0  0  0  0  0
  161.6480  210.2610  154.7020 C   0  0  0  0  0  2  0  0  0  0  0  0
  159.9140  208.7680  153.4730 C   0  0  1  0  0  3  0  0  0  0  0  0
  161.9770  208.6490  156.6030 C   0  0  0  0  0  2  0  0  0  0  0  0
  161.6440  210.0830  156.2140 C   0  0  1  0  0  3  0  0  0  0  0  0
  161.0320  207.7310  153.4560 C   0  0  0  0  0  0  0  0  0  0  0  0
  161.5570  207.0890  154.7150 C   0  0  0  0  0  2  0  0  0  0  0  0
  160.9920  207.6510  156.0130 C   0  0  0  0  0  2  0  0  0  0  0  0
  161.4560  207.1710  152.3120 C   0  0  0  0  0  3  0  0  0  0  0  0
  163.8270  211.0420  156.0810 O   0  0  0  0  0  1  0  0  0  0  0  0
  162.6610  211.0130  156.8480 C   0  0  0  0  0  2  0  0  0  0  0  0
  161.0120  204.2010  148.9500 C   0  0  1  0  0  3  0  0  0  0  0  0
  162.2780  204.8360  147.7960 S   0  0  0  0  0  0  0  0  0  0  0  0
  161.2130  204.6780  146.3960 N   0  0  0  0  0  0  0  0  0  0  0  0
  161.3620  205.2010  144.1670 C   0  0  0  0  0  2  0  0  0  0  0  0
  160.5130  205.9450  146.2450 C   0  0  0  0  0  2  0  0  0  0  0  0
  160.4530  206.2370  144.7700 C   0  0  0  0  0  2  0  0  0  0  0  0
  162.0430  204.5410  145.2700 N   0  0  0  0  0  2  0  0  0  0  0  0
  161.3800  202.8550  149.5860 C   0  0  0  0  0  2  0  0  0  0  0  0
  161.3810  200.7330  148.2120 N   0  0  0  0  0  2  0  0  0  0  0  0
  160.6650  201.6840  148.9900 C   0  0  0  0  0  0  0  0  0  0  0  0
  159.4060  201.5100  149.2180 N   0  0  0  0  0  1  0  0  0  0  0  0
  1  3  1  0  0  0  0
  1  2  1  0  0  0  0
  2  6  1  0  0  0  0
  3  4  1  0  0  0  0
  4  6  1  0  0  0  0
  6 17  1  1  0  0  0
  7  2  1  0  0  0  0
  7  5  2  0  0  0  0
  8  9  1  6  0  0  0
  8 10  1  0  0  0  0
 10 13  1  0  0  0  0
 11  9  1  6  0  0  0
 11  8  1  0  0  0  0
 13 12  1  0  0  0  0
 13 19  1  1  0  0  0
 14 11  1  0  0  0  0
 14 15  1  0  0  0  0
 15 16  1  0  0  0  0
 16 12  1  0  0  0  0
 17 14  2  0  0  0  0
 18 19  1  0  0  0  0
 20 27  1  1  0  0  0
 20  7  1  0  0  0  0
 21 20  1  0  0  0  0
 22 21  1  0  0  0  0
 23 25  1  0  0  0  0
 23 26  1  0  0  0  0
 24 22  1  0  0  0  0
 25 24  1  0  0  0  0
 26 22  1  0  0  0  0
 28 29  2  0  0  0  0
 29 30  1  0  0  0  0
 29 27  1  0  0  0  0
M  END
>  <MODEL>
6

>  <REMARK>
 VINA RESULT:      -5.6      2.490      4.417
  Name = 
  7 active torsions:
  status: ('A' for Active; 'I' for Inactive)
    1  A    between atoms: N_1  and  S_4
    2  A    between atoms: S_4  and  C_13
    3  A    between atoms: C_13  and  C_14
    4  A    between atoms: C_13  and  C_28
    5  A    between atoms: C_14  and  C_17
    6  A    between atoms: C_18  and  C_24
    7  A    between atoms: C_26  and  C_30
                            x       y       z     vdW  Elec       q    Type
                         _______ _______ _______ _____ _____    ______ ____

>  <TORSDO>
F 7

$$$$
=
 OpenBabel11072411053D

 30 33  0  0  1  0  0  0  0  0999 V2000
  160.7640  210.2390  139.2350 C   0  0  0  0  0  2  0  0  0  0  0  0
  160.2180  211.3850  139.9360 N   0  0  0  0  0  0  0  0  0  0  0  0
  162.0530  209.8940  139.9550 C   0  0  0  0  0  2  0  0  0  0  0  0
  162.3760  211.0870  140.8440 C   0  0  0  0  0  2  0  0  0  0  0  0
  158.5950  213.0430  140.1930 O   0  0  0  0  0  0  0  0  0  0  0  0
  161.0860  211.8760  140.9900 C   0  0  2  0  0  3  0  0  0  0  0  0
  158.9860  212.0190  139.5680 C   0  0  0  0  0  0  0  0  0  0  0  0
  161.9020  214.3970  144.2300 C   0  0  2  0  0  3  0  0  0  0  0  0
  162.3550  213.9930  142.8510 C   0  0  0  0  0  2  0  0  0  0  0  0
  162.3920  213.3630  145.2340 C   0  0  0  0  0  2  0  0  0  0  0  0
  160.8740  213.9010  143.1960 C   0  0  1  0  0  3  0  0  0  0  0  0
  160.4780  212.7540  146.7450 C   0  0  0  0  0  2  0  0  0  0  0  0
  161.7230  213.6140  146.5770 C   0  0  1  0  0  3  0  0  0  0  0  0
  160.4040  212.4580  143.3470 C   0  0  0  0  0  0  0  0  0  0  0  0
  159.6180  211.9870  144.5440 C   0  0  0  0  0  2  0  0  0  0  0  0
  159.4490  213.0150  145.6550 C   0  0  0  0  0  2  0  0  0  0  0  0
  160.4690  211.5860  142.3290 C   0  0  0  0  0  3  0  0  0  0  0  0
  162.7540  211.9260  147.9150 O   0  0  0  0  0  1  0  0  0  0  0  0
  162.6900  213.3040  147.7040 C   0  0  0  0  0  2  0  0  0  0  0  0
  158.1390  211.4440  138.4720 C   0  0  1  0  0  3  0  0  0  0  0  0
  156.3600  211.6320  138.8380 S   0  0  0  0  0  0  0  0  0  0  0  0
  155.8950  210.3780  137.6840 N   0  0  0  0  0  0  0  0  0  0  0  0
  154.0390  209.0690  137.3570 C   0  0  0  0  0  2  0  0  0  0  0  0
  156.2100  209.0950  138.2940 C   0  0  0  0  0  2  0  0  0  0  0  0
  155.0780  208.1630  137.9580 C   0  0  0  0  0  2  0  0  0  0  0  0
  154.4960  210.4350  137.5670 N   0  0  0  0  0  2  0  0  0  0  0  0
  158.5340  211.9330  137.0730 C   0  0  0  0  0  2  0  0  0  0  0  0
  158.3180  214.4510  137.1260 N   0  0  0  0  0  1  0  0  0  0  0  0
  159.1470  213.2980  137.0570 C   0  0  0  0  0  0  0  0  0  0  0  0
  160.4310  213.4310  137.0270 N   0  0  0  0  0  2  0  0  0  0  0  0
  1  2  1  0  0  0  0
  1  3  1  0  0  0  0
  2  6  1  0  0  0  0
  3  4  1  0  0  0  0
  4  6  1  0  0  0  0
  6 17  1  1  0  0  0
  7  2  1  0  0  0  0
  7  5  2  0  0  0  0
  8  9  1  6  0  0  0
  8 10  1  0  0  0  0
 10 13  1  0  0  0  0
 11  9  1  6  0  0  0
 11 14  1  0  0  0  0
 11  8  1  0  0  0  0
 13 12  1  0  0  0  0
 13 19  1  1  0  0  0
 14 15  1  0  0  0  0
 15 16  1  0  0  0  0
 16 12  1  0  0  0  0
 17 14  2  0  0  0  0
 19 18  1  0  0  0  0
 20 27  1  6  0  0  0
 20 21  1  0  0  0  0
 20  7  1  0  0  0  0
 22 24  1  0  0  0  0
 22 21  1  0  0  0  0
 23 26  1  0  0  0  0
 23 25  1  0  0  0  0
 25 24  1  0  0  0  0
 26 22  1  0  0  0  0
 29 27  1  0  0  0  0
 29 28  1  0  0  0  0
 30 29  2  0  0  0  0
M  END
>  <MODEL>
7

>  <REMARK>
 VINA RESULT:      -5.5      9.358     12.147
  Name = 
  7 active torsions:
  status: ('A' for Active; 'I' for Inactive)
    1  A    between atoms: N_1  and  S_4
    2  A    between atoms: S_4  and  C_13
    3  A    between atoms: C_13  and  C_14
    4  A    between atoms: C_13  and  C_28
    5  A    between atoms: C_14  and  C_17
    6  A    between atoms: C_18  and  C_24
    7  A    between atoms: C_26  and  C_30
                            x       y       z     vdW  Elec       q    Type
                         _______ _______ _______ _____ _____    ______ ____

>  <TORSDO>
F 7

$$$$
=
 OpenBabel11072411053D

 30 33  0  0  1  0  0  0  0  0999 V2000
  161.2210  205.0170  151.9100 C   0  0  0  0  0  2  0  0  0  0  0  0
  161.5490  206.2910  151.3000 N   0  0  0  0  0  0  0  0  0  0  0  0
  161.0680  205.3010  153.3920 C   0  0  0  0  0  2  0  0  0  0  0  0
  161.6610  206.6840  153.6240 C   0  0  0  0  0  2  0  0  0  0  0  0
  162.0970  207.5850  149.4360 O   0  0  0  0  0  0  0  0  0  0  0  0
  161.7170  207.3610  152.2650 C   0  0  2  0  0  3  0  0  0  0  0  0
  161.7680  206.4560  149.8930 C   0  0  0  0  0  0  0  0  0  0  0  0
  161.6360  210.7590  154.7070 C   0  0  2  0  0  3  0  0  0  0  0  0
  162.2550  209.3980  154.5280 C   0  0  0  0  0  2  0  0  0  0  0  0
  160.2510  210.5950  155.3170 C   0  0  0  0  0  2  0  0  0  0  0  0
  161.8250  210.1800  153.2940 C   0  0  1  0  0  3  0  0  0  0  0  0
  158.6380  212.0210  154.0180 C   0  0  0  0  0  2  0  0  0  0  0  0
  159.5180  211.9280  155.2580 C   0  0  1  0  0  3  0  0  0  0  0  0
  160.5850  209.5840  152.6350 C   0  0  0  0  0  0  0  0  0  0  0  0
  159.3840  210.4210  152.2710 C   0  0  0  0  0  2  0  0  0  0  0  0
  159.4390  211.8710  152.7340 C   0  0  0  0  0  2  0  0  0  0  0  0
  160.5800  208.3360  152.1430 C   0  0  0  0  0  3  0  0  0  0  0  0
  157.3040  211.9580  156.1510 O   0  0  0  0  0  1  0  0  0  0  0  0
  158.6500  212.0980  156.4900 C   0  0  0  0  0  2  0  0  0  0  0  0
  161.5640  205.3020  148.9560 C   0  0  1  0  0  3  0  0  0  0  0  0
  162.8430  205.2690  147.6530 S   0  0  0  0  0  0  0  0  0  0  0  0
  161.8660  206.2340  146.5410 N   0  0  0  0  0  0  0  0  0  0  0  0
  159.8190  205.9880  145.5350 C   0  0  0  0  0  2  0  0  0  0  0  0
  162.1470  205.7530  145.1960 C   0  0  0  0  0  2  0  0  0  0  0  0
  160.8370  205.7340  144.4570 C   0  0  0  0  0  2  0  0  0  0  0  0
  160.5220  205.9200  146.8060 N   0  0  0  0  0  2  0  0  0  0  0  0
  161.3810  203.9590  149.6730 C   0  0  0  0  0  2  0  0  0  0  0  0
  161.2400  202.8080  147.4260 N   0  0  0  0  0  2  0  0  0  0  0  0
  160.8550  202.8680  148.7940 C   0  0  0  0  0  0  0  0  0  0  0  0
  160.0890  201.9530  149.2860 N   0  0  0  0  0  1  0  0  0  0  0  0
  1  3  1  0  0  0  0
  2  1  1  0  0  0  0
  2  6  1  0  0  0  0
  3  4  1  0  0  0  0
  5  7  2  0  0  0  0
  6 17  1  1  0  0  0
  6  4  1  0  0  0  0
  7  2  1  0  0  0  0
  8  9  1  1  0  0  0
  8 10  1  0  0  0  0
 11  9  1  1  0  0  0
 11  8  1  0  0  0  0
 12 13  1  0  0  0  0
 13 10  1  0  0  0  0
 13 19  1  1  0  0  0
 14 11  1  0  0  0  0
 15 14  1  0  0  0  0
 15 16  1  0  0  0  0
 16 12  1  0  0  0  0
 17 14  2  0  0  0  0
 18 19  1  0  0  0  0
 20 27  1  1  0  0  0
 20  7  1  0  0  0  0
 21 20  1  0  0  0  0
 22 26  1  0  0  0  0
 22 21  1  0  0  0  0
 23 26  1  0  0  0  0
 24 22  1  0  0  0  0
 25 24  1  0  0  0  0
 25 23  1  0  0  0  0
 28 29  2  0  0  0  0
 29 30  1  0  0  0  0
 29 27  1  0  0  0  0
M  END
>  <MODEL>
8

>  <REMARK>
 VINA RESULT:      -5.2      1.361      2.826
  Name = 
  7 active torsions:
  status: ('A' for Active; 'I' for Inactive)
    1  A    between atoms: N_1  and  S_4
    2  A    between atoms: S_4  and  C_13
    3  A    between atoms: C_13  and  C_14
    4  A    between atoms: C_13  and  C_28
    5  A    between atoms: C_14  and  C_17
    6  A    between atoms: C_18  and  C_24
    7  A    between atoms: C_26  and  C_30
                            x       y       z     vdW  Elec       q    Type
                         _______ _______ _______ _____ _____    ______ ____

>  <TORSDO>
F 7

$$$$
=
 OpenBabel11072411053D

 30 33  0  0  1  0  0  0  0  0999 V2000
  160.1560  211.4990  153.1350 C   0  0  0  0  0  2  0  0  0  0  0  0
  160.9150  210.2950  153.4140 N   0  0  0  0  0  0  0  0  0  0  0  0
  160.2200  211.6830  151.6310 C   0  0  0  0  0  2  0  0  0  0  0  0
  161.3200  210.7550  151.1350 C   0  0  0  0  0  2  0  0  0  0  0  0
  161.8060  208.7390  154.9090 O   0  0  0  0  0  0  0  0  0  0  0  0
  161.5490  209.7330  152.2360 C   0  0  2  0  0  3  0  0  0  0  0  0
  161.0910  209.7650  154.7340 C   0  0  0  0  0  0  0  0  0  0  0  0
  162.7350  207.6980  148.7760 C   0  0  2  0  0  3  0  0  0  0  0  0
  162.7850  209.0220  149.4930 C   0  0  0  0  0  2  0  0  0  0  0  0
  161.3820  207.5580  148.0930 C   0  0  0  0  0  2  0  0  0  0  0  0
  162.7130  207.7420  150.3150 C   0  0  1  0  0  3  0  0  0  0  0  0
  160.4680  205.2720  148.6030 C   0  0  0  0  0  2  0  0  0  0  0  0
  161.2200  206.1290  147.5940 C   0  0  1  0  0  3  0  0  0  0  0  0
  161.3530  207.5560  150.9790 C   0  0  0  0  0  0  0  0  0  0  0  0
  160.5740  206.2680  150.8770 C   0  0  0  0  0  2  0  0  0  0  0  0
  161.1750  205.2190  149.9500 C   0  0  0  0  0  2  0  0  0  0  0  0
  160.8780  208.4400  151.8700 C   0  0  0  0  0  3  0  0  0  0  0  0
  161.2000  205.4540  145.3040 O   0  0  0  0  0  1  0  0  0  0  0  0
  160.4610  206.1210  146.2810 C   0  0  0  0  0  2  0  0  0  0  0  0
  160.3940  210.3970  155.9020 C   0  0  1  0  0  3  0  0  0  0  0  0
  158.6880  209.7690  156.0780 S   0  0  0  0  0  0  0  0  0  0  0  0
  157.9770  211.3740  155.8870 N   0  0  0  0  0  0  0  0  0  0  0  0
  156.2830  212.5390  156.9050 C   0  0  0  0  0  2  0  0  0  0  0  0
  156.8240  211.2310  155.0110 C   0  0  0  0  0  2  0  0  0  0  0  0
  155.7420  212.1150  155.5670 C   0  0  0  0  0  2  0  0  0  0  0  0
  157.4800  211.7490  157.1470 N   0  0  0  0  0  2  0  0  0  0  0  0
  161.2060  210.3450  157.2010 C   0  0  0  0  0  2  0  0  0  0  0  0
  163.6760  210.8820  157.2610 N   0  0  0  0  0  1  0  0  0  0  0  0
  162.3270  211.3340  157.2580 C   0  0  0  0  0  0  0  0  0  0  0  0
  162.0730  212.6000  157.2590 N   0  0  0  0  0  2  0  0  0  0  0  0
  1  2  1  0  0  0  0
  2  7  1  0  0  0  0
  3  1  1  0  0  0  0
  4  3  1  0  0  0  0
  4  6  1  0  0  0  0
  6 17  1  6  0  0  0
  6  2  1  0  0  0  0
  7  5  2  0  0  0  0
  7 20  1  0  0  0  0
  8 10  1  6  0  0  0
  8  9  1  0  0  0  0
  8 11  1  0  0  0  0
 11  9  1  6  0  0  0
 11 14  1  0  0  0  0
 12 16  1  0  0  0  0
 13 19  1  6  0  0  0
 13 10  1  0  0  0  0
 13 12  1  0  0  0  0
 14 17  2  0  0  0  0
 15 14  1  0  0  0  0
 16 15  1  0  0  0  0
 18 19  1  0  0  0  0
 20 21  1  0  0  0  0
 20 27  1  1  0  0  0
 22 21  1  0  0  0  0
 22 26  1  0  0  0  0
 23 26  1  0  0  0  0
 24 25  1  0  0  0  0
 24 22  1  0  0  0  0
 25 23  1  0  0  0  0
 27 29  1  0  0  0  0
 29 30  2  0  0  0  0
 29 28  1  0  0  0  0
M  END
>  <MODEL>
9

>  <REMARK>
 VINA RESULT:      -4.9      4.061      9.018
  Name = 
  7 active torsions:
  status: ('A' for Active; 'I' for Inactive)
    1  A    between atoms: N_1  and  S_4
    2  A    between atoms: S_4  and  C_13
    3  A    between atoms: C_13  and  C_14
    4  A    between atoms: C_13  and  C_28
    5  A    between atoms: C_14  and  C_17
    6  A    between atoms: C_18  and  C_24
    7  A    between atoms: C_26  and  C_30
                            x       y       z     vdW  Elec       q    Type
                         _______ _______ _______ _____ _____    ______ ____

>  <TORSDO>
F 7

$$$$
