=
 OpenBabel11072409513D

 66 69  0  0  1  0  0  0  0  0999 V2000
  161.5260  205.3190  144.4440 N   0  0  0  0  0  0  0  0  0  0  0  0
  160.3670  204.6930  145.0710 C   0  0  0  0  0  2  0  0  0  0  0  0
  158.8430  202.8770  144.6890 O   0  0  0  0  0  1  0  0  0  0  0  0
  160.1800  203.2610  144.5880 C   0  0  2  0  0  3  0  0  0  0  0  0
  161.0720  202.3060  145.3690 C   0  0  0  0  0  2  0  0  0  0  0  0
  160.2340  201.1930  145.9850 C   0  0  1  0  0  3  0  0  0  0  0  0
  160.3000  200.0500  145.2110 F   0  0  0  0  0  0  0  0  0  0  0  0
  160.6380  200.9030  147.4280 C   0  0  0  0  0  2  0  0  0  0  0  0
  160.6840  203.4020  147.7520 F   0  0  0  0  0  0  0  0  0  0  0  0
  160.5690  202.1420  148.3100 C   0  0  2  0  0  0  0  0  0  0  0  0
  161.4060  202.0150  149.4270 O   0  0  0  0  0  0  0  0  0  0  0  0
  160.0180  202.0250  149.6730 C   0  0  0  0  0  2  0  0  0  0  0  0
  162.2500  205.9890  145.5130 C   0  0  0  0  0  2  0  0  0  0  0  0
  161.2880  206.7850  146.3680 C   0  0  0  0  0  2  0  0  0  0  0  0
  161.8700  206.9100  147.7600 C   0  0  0  0  0  2  0  0  0  0  0  0
  162.4910  208.1490  147.9110 O   0  0  0  0  0  0  0  0  0  0  0  0
  161.7340  208.8270  148.8750 C   0  0  1  0  0  3  0  0  0  0  0  0
  161.2200  208.5100  151.2630 C   0  0  0  0  0  3  0  0  0  0  0  0
  161.9640  208.1840  150.2090 C   0  0  0  0  0  3  0  0  0  0  0  0
  161.4960  207.9080  152.6010 C   0  0  0  0  0  2  0  0  0  0  0  0
  160.4250  208.0790  154.9200 C   0  0  1  0  0  3  0  0  0  0  0  0
  159.4810  208.7680  153.9250 C   0  0  2  0  0  3  0  0  0  0  0  0
  160.9870  208.8230  153.7090 C   0  0  2  0  0  0  0  0  0  0  0  0
  161.7190  210.1440  153.9700 C   0  0  0  0  0  2  0  0  0  0  0  0
  162.7150  210.4370  152.8590 C   0  0  0  0  0  1  0  0  0  0  0  0
  160.3960  207.8880  157.1260 C   0  0  0  0  0  1  0  0  0  0  0  0
  160.5740  208.8200  156.0990 O   0  0  0  0  0  0  0  0  0  0  0  0
  158.9700  209.9920  154.4450 O   0  0  0  0  0  0  0  0  0  0  0  0
  159.0950  213.5450  153.4480 C   0  0  0  0  0  1  0  0  0  0  0  0
  158.9230  212.3180  154.2720 C   0  0  0  0  0  0  0  0  0  0  0  0
  159.1250  211.1600  153.7300 N   0  0  0  0  0  0  0  0  0  0  0  0
  158.5080  212.4460  155.7010 C   0  0  0  0  0  1  0  0  0  0  0  0
  162.1100  210.3220  148.9430 C   0  0  1  0  0  3  0  0  0  0  0  0
  163.2010  210.7310  147.9490 C   0  0  0  0  0  1  0  0  0  0  0  0
  160.3440  213.2010  149.8390 C   0  0  0  0  0  2  0  0  0  0  0  0
  161.0260  212.1950  147.8210 C   0  0  1  0  0  3  0  0  0  0  0  0
  162.1380  214.2780  148.5310 C   0  0  0  0  0  1  0  0  0  0  0  0
  160.8170  213.5420  148.4560 C   0  0  2  0  0  3  0  0  0  0  0  0
  160.8060  211.8500  150.1200 N   0  0  0  0  0  2  0  0  0  0  0  0
  160.9160  211.1820  148.8820 N   0  0  0  0  0  0  0  0  0  0  0  0
  159.9380  211.9760  146.7800 C   0  0  0  0  0  2  0  0  0  0  0  0
  159.1020  213.2320  146.6100 C   0  0  0  0  0  1  0  0  0  0  0  0
  161.0180  206.3620  143.5630 C   0  0  0  0  0  2  0  0  0  0  0  0
  162.0190  206.6580  142.4530 C   0  0  1  0  0  3  0  0  0  0  0  0
  162.9320  205.4640  142.2470 C   0  0  0  0  0  1  0  0  0  0  0  0
  161.3260  207.0570  141.1530 C   0  0  0  0  0  2  0  0  0  0  0  0
  160.7910  208.4100  141.2300 N   0  0  0  0  0  2  0  0  0  0  0  0
  161.1960  209.1170  140.0170 C   0  0  2  0  0  3  0  0  0  0  0  0
  161.1390  211.0570  141.6880 C   0  0  0  0  0  2  0  0  0  0  0  0
  162.2050  212.0380  141.9990 C   0  0  0  0  0  0  0  0  0  0  0  0
  162.1330  212.8840  143.0240 C   0  0  0  0  0  2  0  0  0  0  0  0
  163.2630  212.1140  140.9610 C   0  0  0  0  0  2  0  0  0  0  0  0
  162.9600  210.9300  140.0520 C   0  0  0  0  0  2  0  0  0  0  0  0
  161.4890  210.5950  140.2780 C   0  0  1  0  0  3  0  0  0  0  0  0
  160.1910  208.9350  138.8710 C   0  0  2  0  0  3  0  0  0  0  0  0
  162.1400  208.7360  137.1780 C   0  0  0  0  0  1  0  0  0  0  0  0
  160.7990  208.2880  137.6510 C   0  0  0  0  0  0  0  0  0  0  0  0
  160.2090  207.4010  137.0520 O   0  0  0  0  0  0  0  0  0  0  0  0
  159.4180  210.2410  138.5900 C   0  0  1  0  0  3  0  0  0  0  0  0
  159.3850  210.5860  137.1100 C   0  0  0  0  0  1  0  0  0  0  0  0
  158.0370  210.0950  139.0430 N   0  0  0  0  0  2  0  0  0  0  0  0
  156.9920  211.0070  138.7090 C   0  0  0  0  0  0  0  0  0  0  0  0
  157.1900  211.9430  137.8920 O   0  0  0  0  0  0  0  0  0  0  0  0
  155.6430  210.8280  139.3140 C   0  0  0  0  0  2  0  0  0  0  0  0
  154.7620  211.9060  138.9050 N   0  0  0  0  0  2  0  0  0  0  0  0
  153.5640  211.8130  139.7230 C   0  0  0  0  0  1  0  0  0  0  0  0
  1  2  1  0  0  0  0
  1 13  1  0  0  0  0
  4  3  1  1  0  0  0
  4  2  1  0  0  0  0
  4  5  1  0  0  0  0
  5  6  1  0  0  0  0
  6  7  1  6  0  0  0
  6  8  1  0  0  0  0
  8 10  1  0  0  0  0
 10  9  1  6  0  0  0
 10 11  1  0  0  0  0
 10 12  1  0  0  0  0
 11 12  1  0  0  0  0
 13 14  1  0  0  0  0
 14 15  1  0  0  0  0
 15 16  1  0  0  0  0
 16 17  1  0  0  0  0
 17 33  1  0  0  0  0
 17 19  1  1  0  0  0
 18 20  1  0  0  0  0
 19 18  2  0  0  0  0
 21 27  1  1  0  0  0
 22 28  1  1  0  0  0
 22 21  1  0  0  0  0
 23 20  1  6  0  0  0
 23 22  1  0  0  0  0
 23 24  1  0  0  0  0
 23 21  1  0  0  0  0
 25 24  1  0  0  0  0
 27 26  1  0  0  0  0
 29 30  1  0  0  0  0
 30 32  1  0  0  0  0
 31 30  2  0  0  0  0
 31 28  1  0  0  0  0
 33 34  1  6  0  0  0
 35 39  1  0  0  0  0
 36 41  1  6  0  0  0
 36 38  1  0  0  0  0
 36 40  1  0  0  0  0
 38 37  1  1  0  0  0
 38 35  1  0  0  0  0
 40 33  1  0  0  0  0
 40 39  1  0  0  0  0
 42 41  1  0  0  0  0
 43  1  1  0  0  0  0
 44 45  1  6  0  0  0
 44 43  1  0  0  0  0
 46 47  1  0  0  0  0
 46 44  1  0  0  0  0
 48 47  1  1  0  0  0
 49 50  1  0  0  0  0
 50 51  2  0  0  0  0
 52 50  1  0  0  0  0
 53 54  1  0  0  0  0
 53 52  1  0  0  0  0
 54 48  1  1  0  0  0
 54 49  1  0  0  0  0
 55 57  1  6  0  0  0
 55 48  1  0  0  0  0
 56 57  1  0  0  0  0
 58 57  2  0  0  0  0
 59 60  1  6  0  0  0
 59 55  1  0  0  0  0
 59 61  1  0  0  0  0
 62 61  1  0  0  0  0
 62 64  1  0  0  0  0
 63 62  2  0  0  0  0
 65 64  1  0  0  0  0
 65 66  1  0  0  0  0
M  END
>  <MODEL>
1

>  <REMARK>
 VINA RESULT:       1.2      0.000      0.000
  Name = 
  33 active torsions:
  status: ('A' for Active; 'I' for Inactive)
    1  A    between atoms: C_1  and  C_27
    2  A    between atoms: C_1  and  C_48
    3  A    between atoms: N_2  and  C_13
    4  A    between atoms: C_4  and  C_55
    5  A    between atoms: O_5  and  N_37
    6  A    between atoms: O_5  and  C_54
    7  A    between atoms: C_6  and  C_31
    8  A    between atoms: C_6  and  N_51
    9  A    between atoms: C_9  and  C_17
   10  A    between atoms: N_10  and  C_35
   11  A    between atoms: C_11  and  C_33
   12  A    between atoms: C_11  and  C_50
   13  A    between atoms: C_13  and  C_44
   14  A    between atoms: C_14  and  C_22
   15  A    between atoms: C_14  and  C_33
   16  A    between atoms: C_19  and  C_44
   17  A    between atoms: C_19  and  C_56
   18  A    between atoms: C_19  and  N_58
   19  A    between atoms: N_24  and  C_27
   20  A    between atoms: N_24  and  C_57
   21  A    between atoms: N_24  and  C_66
   22  A    between atoms: C_25  and  C_29
   23  A    between atoms: C_25  and  O_41
   24  A    between atoms: C_28  and  C_65
   25  A    between atoms: C_29  and  C_66
   26  A    between atoms: C_31  and  C_36
   27  A    between atoms: C_31  and  O_41
   28  A    between atoms: C_34  and  C_35
   29  A    between atoms: C_44  and  C_59
   30  A    between atoms: O_47  and  C_53
   31  A    between atoms: C_48  and  N_58
   32  A    between atoms: C_50  and  C_57
   33  A    between atoms: C_55  and  C_65
                            x       y       z     vdW  Elec       q    Type
                         _______ _______ _______ _____ _____    ______ ____

>  <TORSDO>
F 33

$$$$
=
 OpenBabel11072409513D

 66 69  0  0  1  0  0  0  0  0999 V2000
  161.1010  205.9160  146.2000 N   0  0  0  0  0  0  0  0  0  0  0  0
  160.6740  206.1520  144.8240 C   0  0  0  0  0  2  0  0  0  0  0  0
  162.8940  206.4140  143.9470 O   0  0  0  0  0  1  0  0  0  0  0  0
  161.7200  205.6700  143.8280 C   0  0  2  0  0  3  0  0  0  0  0  0
  161.1830  205.7380  142.4060 C   0  0  0  0  0  2  0  0  0  0  0  0
  162.1520  206.5090  141.5170 C   0  0  1  0  0  3  0  0  0  0  0  0
  162.8010  205.6520  140.6490 F   0  0  0  0  0  0  0  0  0  0  0  0
  161.4600  207.6390  140.7600 C   0  0  0  0  0  2  0  0  0  0  0  0
  162.1560  206.3450  138.7120 F   0  0  0  0  0  0  0  0  0  0  0  0
  161.5450  207.4630  139.2500 C   0  0  2  0  0  0  0  0  0  0  0  0
  162.0110  208.6310  138.6300 O   0  0  0  0  0  0  0  0  0  0  0  0
  160.6710  208.2730  138.3810 C   0  0  0  0  0  2  0  0  0  0  0  0
  160.9300  207.1820  146.8970 C   0  0  0  0  0  2  0  0  0  0  0  0
  162.0840  207.4080  147.8480 C   0  0  0  0  0  2  0  0  0  0  0  0
  161.7160  208.5290  148.7960 C   0  0  0  0  0  2  0  0  0  0  0  0
  161.9240  209.7640  148.1830 O   0  0  0  0  0  0  0  0  0  0  0  0
  161.6820  210.7170  149.1810 C   0  0  1  0  0  3  0  0  0  0  0  0
  161.6630  210.7210  151.6440 C   0  0  0  0  0  3  0  0  0  0  0  0
  162.0170  210.1170  150.5130 C   0  0  0  0  0  3  0  0  0  0  0  0
  162.0530  210.1460  152.9660 C   0  0  0  0  0  2  0  0  0  0  0  0
  159.9290  209.5770  154.2760 C   0  0  1  0  0  3  0  0  0  0  0  0
  159.6670  210.8890  153.5230 C   0  0  2  0  0  3  0  0  0  0  0  0
  161.0640  210.5740  154.0430 C   0  0  2  0  0  0  0  0  0  0  0  0
  161.5850  211.3460  155.2600 C   0  0  0  0  0  2  0  0  0  0  0  0
  162.7480  210.6120  155.9070 C   0  0  0  0  0  1  0  0  0  0  0  0
  159.7300  208.3590  156.1150 C   0  0  0  0  0  1  0  0  0  0  0  0
  159.4570  209.6270  155.5930 O   0  0  0  0  0  0  0  0  0  0  0  0
  158.9940  211.8410  154.3410 O   0  0  0  0  0  0  0  0  0  0  0  0
  155.5110  213.0640  154.2910 C   0  0  0  0  0  1  0  0  0  0  0  0
  156.8060  212.5200  154.7810 C   0  0  0  0  0  0  0  0  0  0  0  0
  157.7780  212.3500  153.9420 N   0  0  0  0  0  0  0  0  0  0  0  0
  156.9550  212.1700  156.2250 C   0  0  0  0  0  1  0  0  0  0  0  0
  162.5160  211.9950  148.9580 C   0  0  1  0  0  3  0  0  0  0  0  0
  163.5040  211.8940  147.7940 C   0  0  0  0  0  1  0  0  0  0  0  0
  160.7050  214.3890  147.1690 C   0  0  0  0  0  2  0  0  0  0  0  0
  160.2320  212.8440  148.8830 C   0  0  1  0  0  3  0  0  0  0  0  0
  159.3170  212.4210  146.6320 C   0  0  0  0  0  1  0  0  0  0  0  0
  159.6170  213.4840  147.6680 C   0  0  2  0  0  3  0  0  0  0  0  0
  161.9590  213.8670  147.6900 N   0  0  0  0  0  2  0  0  0  0  0  0
  161.6610  213.1930  148.8930 N   0  0  0  0  0  0  0  0  0  0  0  0
  159.5510  213.4070  150.1230 C   0  0  0  0  0  2  0  0  0  0  0  0
  158.0450  213.4390  149.9360 C   0  0  0  0  0  1  0  0  0  0  0  0
  162.5330  205.6500  146.1580 C   0  0  0  0  0  2  0  0  0  0  0  0
  162.7970  204.1500  146.1530 C   0  0  1  0  0  3  0  0  0  0  0  0
  164.2780  203.8850  146.3430 C   0  0  0  0  0  1  0  0  0  0  0  0
  161.9650  203.4220  147.2060 C   0  0  0  0  0  2  0  0  0  0  0  0
  162.7360  202.3730  147.8610 N   0  0  0  0  0  2  0  0  0  0  0  0
  161.7930  201.3860  148.3780 C   0  0  2  0  0  3  0  0  0  0  0  0
  160.2690  202.1370  146.4620 C   0  0  0  0  0  2  0  0  0  0  0  0
  160.0650  201.4960  145.1410 C   0  0  0  0  0  0  0  0  0  0  0  0
  159.3950  202.0810  144.1510 C   0  0  0  0  0  2  0  0  0  0  0  0
  160.5120  200.0820  145.0920 C   0  0  0  0  0  2  0  0  0  0  0  0
  161.2620  199.8960  146.4030 C   0  0  0  0  0  2  0  0  0  0  0  0
  160.7460  200.9840  147.3390 C   0  0  1  0  0  3  0  0  0  0  0  0
  161.1390  201.8340  149.6930 C   0  0  2  0  0  3  0  0  0  0  0  0
  159.3670  200.5350  151.0630 C   0  0  0  0  0  1  0  0  0  0  0  0
  159.7270  201.3270  149.8520 C   0  0  0  0  0  0  0  0  0  0  0  0
  158.8770  201.5600  149.0050 O   0  0  0  0  0  0  0  0  0  0  0  0
  161.3080  203.3520  149.9160 C   0  0  1  0  0  3  0  0  0  0  0  0
  160.2310  204.1620  149.2130 C   0  0  0  0  0  1  0  0  0  0  0  0
  161.2230  203.6450  151.3440 N   0  0  0  0  0  2  0  0  0  0  0  0
  161.0890  204.9620  151.8770 C   0  0  0  0  0  0  0  0  0  0  0  0
  160.9160  205.9500  151.1160 O   0  0  0  0  0  0  0  0  0  0  0  0
  161.1240  205.1620  153.3510 C   0  0  0  0  0  2  0  0  0  0  0  0
  161.5370  206.5180  153.6650 N   0  0  0  0  0  2  0  0  0  0  0  0
  162.6100  206.8620  152.7490 C   0  0  0  0  0  1  0  0  0  0  0  0
  1 13  1  0  0  0  0
  2  1  1  0  0  0  0
  4  3  1  6  0  0  0
  4  2  1  0  0  0  0
  5  4  1  0  0  0  0
  6  7  1  6  0  0  0
  6  5  1  0  0  0  0
  8  6  1  0  0  0  0
 10  9  1  6  0  0  0
 10  8  1  0  0  0  0
 11 10  1  0  0  0  0
 12 11  1  0  0  0  0
 12 10  1  0  0  0  0
 13 14  1  0  0  0  0
 14 15  1  0  0  0  0
 16 15  1  0  0  0  0
 16 17  1  0  0  0  0
 17 19  1  1  0  0  0
 18 20  1  0  0  0  0
 19 18  2  0  0  0  0
 21 27  1  1  0  0  0
 22 23  1  0  0  0  0
 22 21  1  0  0  0  0
 22 28  1  1  0  0  0
 23 20  1  6  0  0  0
 23 21  1  0  0  0  0
 23 24  1  0  0  0  0
 24 25  1  0  0  0  0
 27 26  1  0  0  0  0
 29 30  1  0  0  0  0
 30 32  1  0  0  0  0
 31 28  1  0  0  0  0
 31 30  2  0  0  0  0
 33 34  1  6  0  0  0
 33 17  1  0  0  0  0
 35 38  1  0  0  0  0
 35 39  1  0  0  0  0
 36 40  1  0  0  0  0
 36 41  1  1  0  0  0
 38 37  1  6  0  0  0
 38 36  1  0  0  0  0
 39 40  1  0  0  0  0
 40 33  1  0  0  0  0
 42 41  1  0  0  0  0
 43  1  1  0  0  0  0
 44 43  1  0  0  0  0
 44 45  1  1  0  0  0
 44 46  1  0  0  0  0
 46 47  1  0  0  0  0
 48 47  1  6  0  0  0
 48 55  1  0  0  0  0
 49 54  1  0  0  0  0
 50 49  1  0  0  0  0
 51 50  2  0  0  0  0
 52 50  1  0  0  0  0
 52 53  1  0  0  0  0
 53 54  1  0  0  0  0
 54 48  1  1  0  0  0
 55 57  1  6  0  0  0
 55 59  1  0  0  0  0
 57 56  1  0  0  0  0
 58 57  2  0  0  0  0
 59 60  1  6  0  0  0
 59 61  1  0  0  0  0
 61 62  1  0  0  0  0
 62 64  1  0  0  0  0
 63 62  2  0  0  0  0
 64 65  1  0  0  0  0
 66 65  1  0  0  0  0
M  END
>  <MODEL>
2

>  <REMARK>
 VINA RESULT:       1.3      3.364      8.501
  Name = 
  33 active torsions:
  status: ('A' for Active; 'I' for Inactive)
    1  A    between atoms: C_1  and  C_27
    2  A    between atoms: C_1  and  C_48
    3  A    between atoms: N_2  and  C_13
    4  A    between atoms: C_4  and  C_55
    5  A    between atoms: O_5  and  N_37
    6  A    between atoms: O_5  and  C_54
    7  A    between atoms: C_6  and  C_31
    8  A    between atoms: C_6  and  N_51
    9  A    between atoms: C_9  and  C_17
   10  A    between atoms: N_10  and  C_35
   11  A    between atoms: C_11  and  C_33
   12  A    between atoms: C_11  and  C_50
   13  A    between atoms: C_13  and  C_44
   14  A    between atoms: C_14  and  C_22
   15  A    between atoms: C_14  and  C_33
   16  A    between atoms: C_19  and  C_44
   17  A    between atoms: C_19  and  C_56
   18  A    between atoms: C_19  and  N_58
   19  A    between atoms: N_24  and  C_27
   20  A    between atoms: N_24  and  C_57
   21  A    between atoms: N_24  and  C_66
   22  A    between atoms: C_25  and  C_29
   23  A    between atoms: C_25  and  O_41
   24  A    between atoms: C_28  and  C_65
   25  A    between atoms: C_29  and  C_66
   26  A    between atoms: C_31  and  C_36
   27  A    between atoms: C_31  and  O_41
   28  A    between atoms: C_34  and  C_35
   29  A    between atoms: C_44  and  C_59
   30  A    between atoms: O_47  and  C_53
   31  A    between atoms: C_48  and  N_58
   32  A    between atoms: C_50  and  C_57
   33  A    between atoms: C_55  and  C_65
                            x       y       z     vdW  Elec       q    Type
                         _______ _______ _______ _____ _____    ______ ____

>  <TORSDO>
F 33

$$$$
