=
 OpenBabel11072410243D

 51 60  0  0  1  0  0  0  0  0999 V2000
  160.7320  207.2600  153.6620 O   0  0  0  0  0  0  0  0  0  0  0  0
  161.0870  211.0720  156.2070 N   0  0  0  0  0  0  0  0  0  0  0  0
  160.2220  207.4380  157.2590 C   0  0  0  0  0  1  0  0  0  0  0  0
  161.1310  207.5860  154.9600 C   0  0  2  0  0  3  0  0  0  0  0  0
  160.2480  211.2460  155.2350 C   0  0  0  0  0  0  0  0  0  0  0  0
  161.4570  209.7310  156.3200 N   0  0  0  0  0  2  0  0  0  0  0  0
  159.8970  207.8330  155.8270 C   0  0  2  0  0  3  0  0  0  0  0  0
  160.7230  209.0070  155.3060 C   0  0  2  0  0  0  0  0  0  0  0  0
  159.9080  209.9960  154.4850 C   0  0  2  0  0  3  0  0  0  0  0  0
  160.4540  210.1110  153.0720 C   0  0  0  0  0  1  0  0  0  0  0  0
  159.7120  212.4960  154.9060 O   0  0  0  0  0  0  0  0  0  0  0  0
  157.6150  212.5010  153.6570 C   0  0  1  0  0  3  0  0  0  0  0  0
  156.3810  213.3190  153.9460 C   0  0  0  0  0  2  0  0  0  0  0  0
  158.1950  213.6830  152.9080 C   0  0  2  0  0  3  0  0  0  0  0  0
  158.3130  212.7970  154.9800 C   0  0  2  0  0  0  0  0  0  0  0  0
  157.3780  214.4530  153.9290 C   0  0  2  0  0  3  0  0  0  0  0  0
  158.1060  214.1980  155.1120 O   0  0  0  0  0  0  0  0  0  0  0  0
  155.8720  214.0470  149.9860 C   0  0  0  0  0  3  0  0  0  0  0  0
  158.5630  213.9140  150.4570 N   0  0  0  0  0  0  0  0  0  0  0  0
  156.7580  214.1380  148.9140 C   0  0  0  0  0  3  0  0  0  0  0  0
  156.3470  213.8910  151.2500 N   0  0  0  0  0  0  0  0  0  0  0  0
  157.6860  213.8120  151.4910 C   0  0  0  0  0  0  0  0  0  0  0  0
  158.1250  214.0700  149.1790 C   0  0  0  0  0  3  0  0  0  0  0  0
  157.7070  212.0980  156.0710 O   0  0  0  0  0  0  0  0  0  0  0  0
  155.7800  212.7420  157.2590 C   0  0  0  0  0  2  0  0  0  0  0  0
  157.0950  212.7750  157.1230 C   0  0  0  0  0  3  0  0  0  0  0  0
  161.6060  206.2460  153.2660 C   0  0  0  0  0  2  0  0  0  0  0  0
  161.0280  205.4710  152.0900 C   0  0  0  0  0  2  0  0  0  0  0  0
  160.8790  203.9970  152.4310 C   0  0  0  0  0  2  0  0  0  0  0  0
  160.9360  203.4800  150.1780 C   0  0  1  0  0  3  0  0  0  0  0  0
  160.6030  202.3590  150.8710 O   0  0  0  0  0  0  0  0  0  0  0  0
  161.5600  203.1800  151.4430 N   0  0  0  0  0  0  0  0  0  0  0  0
  161.8050  203.1470  149.1290 O   0  0  0  0  0  0  0  0  0  0  0  0
  160.7830  206.3210  147.5690 N   0  0  1  0  0  0  0  0  0  0  0  0
  161.0750  206.0130  146.1700 C   0  0  0  0  0  2  0  0  0  0  0  0
  161.4140  203.9320  148.0240 C   0  0  1  0  0  0  0  0  0  0  0  0
  161.4970  201.7820  146.9250 C   0  0  0  0  0  1  0  0  0  0  0  0
  160.4060  205.0790  148.2400 C   0  0  0  0  0  2  0  0  0  0  0  0
  162.3610  203.9430  146.9430 N   0  0  1  0  0  0  0  0  0  0  0  0
  161.1320  203.1920  146.8210 N   0  0  0  0  0  0  0  0  0  0  0  0
  162.2930  205.0920  146.0200 C   0  0  0  0  0  2  0  0  0  0  0  0
  161.6830  212.8820  149.6030 C   0  0  0  0  0  2  0  0  0  0  0  0
  161.9280  206.9500  148.2440 C   0  0  2  0  0  3  0  0  0  0  0  0
  161.6190  207.1840  149.6140 O   0  0  0  0  0  0  0  0  0  0  0  0
  161.9000  209.2060  148.8970 C   0  0  0  0  0  0  0  0  0  0  0  0
  161.9530  210.6350  148.9090 N   0  0  0  0  0  0  0  0  0  0  0  0
  162.1650  208.3640  147.6960 C   0  0  0  0  0  2  0  0  0  0  0  0
  161.6260  211.4380  150.0710 C   0  0  0  0  0  2  0  0  0  0  0  0
  162.3220  211.4250  147.7530 C   0  0  0  0  0  2  0  0  0  0  0  0
  162.3550  212.8660  148.2370 C   0  0  0  0  0  2  0  0  0  0  0  0
  161.6040  208.5140  149.9400 N   0  0  0  0  0  0  0  0  0  0  0  0
  2  6  1  0  0  0  0
  4  1  1  6  0  0  0
  4  8  1  0  0  0  0
  4  7  1  0  0  0  0
  5  2  2  0  0  0  0
  7  3  1  1  0  0  0
  8  7  1  0  0  0  0
  8  6  1  1  0  0  0
  9 10  1  6  0  0  0
  9  5  1  0  0  0  0
  9  8  1  0  0  0  0
 11  5  1  0  0  0  0
 12 13  1  1  0  0  0
 12 15  1  0  0  0  0
 14 22  1  6  0  0  0
 14 12  1  0  0  0  0
 14 16  1  0  0  0  0
 15 11  1  6  0  0  0
 15 17  1  0  0  0  0
 15 24  1  0  0  0  0
 16 13  1  1  0  0  0
 16 17  1  0  0  0  0
 18 21  2  0  0  0  0
 19 22  2  0  0  0  0
 20 23  2  0  0  0  0
 20 18  1  0  0  0  0
 21 22  1  0  0  0  0
 23 19  1  0  0  0  0
 24 26  1  0  0  0  0
 26 25  2  0  0  0  0
 27  1  1  0  0  0  0
 28 29  1  0  0  0  0
 28 27  1  0  0  0  0
 30 33  1  6  0  0  0
 30 31  1  0  0  0  0
 30 32  1  0  0  0  0
 31 32  1  0  0  0  0
 32 29  1  0  0  0  0
 34 35  1  6  0  0  0
 34 38  1  0  0  0  0
 34 43  1  0  0  0  0
 36 38  1  0  0  0  0
 36 33  1  1  0  0  0
 39 41  1  6  0  0  0
 39 36  1  0  0  0  0
 40 37  1  0  0  0  0
 40 39  1  0  0  0  0
 40 36  1  0  0  0  0
 41 35  1  0  0  0  0
 42 48  1  0  0  0  0
 43 47  1  6  0  0  0
 43 44  1  0  0  0  0
 44 51  1  0  0  0  0
 45 46  1  0  0  0  0
 45 51  2  0  0  0  0
 46 48  1  0  0  0  0
 47 45  1  0  0  0  0
 49 50  1  0  0  0  0
 49 46  1  0  0  0  0
 50 42  1  0  0  0  0
M  END
>  <MODEL>
1

>  <REMARK>
 VINA RESULT:      -6.7      0.000      0.000
  Name = 
  13 active torsions:
  status: ('A' for Active; 'I' for Inactive)
    1  A    between atoms: N_5  and  C_11
    2  A    between atoms: C_7  and  O_43
    3  A    between atoms: C_10  and  O_22
    4  A    between atoms: C_12  and  O_45
    5  A    between atoms: C_17  and  O_45
    6  A    between atoms: C_18  and  N_29
    7  A    between atoms: C_18  and  C_34
    8  A    between atoms: O_21  and  C_26
    9  A    between atoms: O_21  and  C_28
   10  A    between atoms: O_22  and  C_28
   11  A    between atoms: C_27  and  C_36
   12  A    between atoms: C_30  and  C_34
   13  A    between atoms: C_30  and  O_43
                            x       y       z     vdW  Elec       q    Type
                         _______ _______ _______ _____ _____    ______ ____

>  <TORSDO>
F 13

$$$$
=
 OpenBabel11072410243D

 51 60  0  0  1  0  0  0  0  0999 V2000
  161.2210  212.5400  149.2440 O   0  0  0  0  0  0  0  0  0  0  0  0
  157.2670  213.4690  151.3960 N   0  0  0  0  0  0  0  0  0  0  0  0
  158.4640  214.4530  147.8390 C   0  0  0  0  0  1  0  0  0  0  0  0
  159.8820  212.7130  148.8870 C   0  0  2  0  0  3  0  0  0  0  0  0
  158.2770  213.8600  152.1070 C   0  0  0  0  0  0  0  0  0  0  0  0
  157.6660  213.0910  150.1140 N   0  0  0  0  0  2  0  0  0  0  0  0
  159.5430  214.2040  148.8810 C   0  0  2  0  0  3  0  0  0  0  0  0
  159.0940  213.3140  150.0370 C   0  0  2  0  0  0  0  0  0  0  0  0
  159.5920  213.7930  151.3930 C   0  0  2  0  0  3  0  0  0  0  0  0
  160.4570  212.7380  152.0600 C   0  0  0  0  0  1  0  0  0  0  0  0
  158.1560  214.2970  153.4300 O   0  0  0  0  0  0  0  0  0  0  0  0
  158.3140  213.0250  155.5070 C   0  0  1  0  0  3  0  0  0  0  0  0
  157.3110  212.0420  156.0560 C   0  0  0  0  0  2  0  0  0  0  0  0
  158.8970  211.9180  154.6530 C   0  0  2  0  0  3  0  0  0  0  0  0
  157.4030  213.5940  154.4250 C   0  0  2  0  0  0  0  0  0  0  0  0
  157.4580  211.4360  154.6800 C   0  0  2  0  0  3  0  0  0  0  0  0
  156.8260  212.4130  153.8790 O   0  0  0  0  0  0  0  0  0  0  0  0
  160.3310  208.9400  156.4250 C   0  0  0  0  0  3  0  0  0  0  0  0
  161.1370  211.4270  155.6190 N   0  0  0  0  0  0  0  0  0  0  0  0
  161.6410  209.3480  156.6740 C   0  0  0  0  0  3  0  0  0  0  0  0
  159.4680  209.7760  155.7890 N   0  0  0  0  0  0  0  0  0  0  0  0
  159.8580  211.0200  155.3960 C   0  0  0  0  0  0  0  0  0  0  0  0
  162.0290  210.6180  156.2520 C   0  0  0  0  0  3  0  0  0  0  0  0
  156.3870  214.4380  154.9740 O   0  0  0  0  0  0  0  0  0  0  0  0
  154.4220  214.0780  153.7280 C   0  0  0  0  0  2  0  0  0  0  0  0
  155.0370  214.1000  154.8990 C   0  0  0  0  0  3  0  0  0  0  0  0
  161.8580  212.1650  148.0600 C   0  0  0  0  0  2  0  0  0  0  0  0
  162.7500  210.9540  148.2930 C   0  0  0  0  0  2  0  0  0  0  0  0
  161.9280  209.7490  148.7240 C   0  0  0  0  0  2  0  0  0  0  0  0
  161.6120  208.0890  150.3020 C   0  0  1  0  0  3  0  0  0  0  0  0
  161.1760  209.2670  150.8200 O   0  0  0  0  0  0  0  0  0  0  0  0
  162.3260  209.3160  150.0510 N   0  0  0  0  0  0  0  0  0  0  0  0
  162.2720  207.3510  151.2950 O   0  0  0  0  0  0  0  0  0  0  0  0
  160.2490  204.5260  150.0780 N   0  0  1  0  0  0  0  0  0  0  0  0
  160.3550  203.6320  151.2300 C   0  0  0  0  0  2  0  0  0  0  0  0
  161.5120  206.1770  151.4880 C   0  0  1  0  0  0  0  0  0  0  0  0
  161.9220  206.7250  153.8060 C   0  0  0  0  0  1  0  0  0  0  0  0
  160.3100  205.9030  150.5630 C   0  0  0  0  0  2  0  0  0  0  0  0
  162.2220  205.1170  152.1490 N   0  0  1  0  0  0  0  0  0  0  0  0
  161.2120  205.8660  152.8620 N   0  0  0  0  0  0  0  0  0  0  0  0
  161.7150  203.7490  151.9320 C   0  0  0  0  0  2  0  0  0  0  0  0
  160.3320  200.1990  144.6690 C   0  0  0  0  0  2  0  0  0  0  0  0
  161.3060  204.2750  149.0880 C   0  0  2  0  0  3  0  0  0  0  0  0
  160.9680  204.8850  147.8480 O   0  0  0  0  0  0  0  0  0  0  0  0
  161.0000  202.7950  147.2900 C   0  0  0  0  0  0  0  0  0  0  0  0
  160.8770  201.6240  146.4780 N   0  0  0  0  0  0  0  0  0  0  0  0
  161.3680  202.7820  148.7340 C   0  0  0  0  0  2  0  0  0  0  0  0
  160.4510  201.6520  145.0930 C   0  0  0  0  0  2  0  0  0  0  0  0
  161.1490  200.2880  146.9660 C   0  0  0  0  0  2  0  0  0  0  0  0
  161.0030  199.3750  145.7590 C   0  0  0  0  0  2  0  0  0  0  0  0
  160.7890  203.9790  146.8360 N   0  0  0  0  0  0  0  0  0  0  0  0
  2  5  2  0  0  0  0
  4  1  1  1  0  0  0
  4  8  1  0  0  0  0
  5 11  1  0  0  0  0
  6  2  1  0  0  0  0
  7  3  1  6  0  0  0
  7  4  1  0  0  0  0
  7  8  1  0  0  0  0
  8  6  1  6  0  0  0
  8  9  1  0  0  0  0
  9 10  1  1  0  0  0
  9  5  1  0  0  0  0
 12 13  1  1  0  0  0
 14 16  1  0  0  0  0
 14 22  1  1  0  0  0
 14 12  1  0  0  0  0
 15 11  1  6  0  0  0
 15 24  1  0  0  0  0
 15 12  1  0  0  0  0
 16 13  1  1  0  0  0
 17 15  1  0  0  0  0
 17 16  1  0  0  0  0
 18 20  1  0  0  0  0
 19 23  1  0  0  0  0
 21 18  2  0  0  0  0
 22 19  2  0  0  0  0
 22 21  1  0  0  0  0
 23 20  2  0  0  0  0
 25 26  2  0  0  0  0
 26 24  1  0  0  0  0
 27 28  1  0  0  0  0
 27  1  1  0  0  0  0
 28 29  1  0  0  0  0
 29 32  1  0  0  0  0
 30 31  1  0  0  0  0
 30 33  1  1  0  0  0
 32 30  1  0  0  0  0
 32 31  1  0  0  0  0
 34 38  1  1  0  0  0
 34 35  1  0  0  0  0
 35 41  1  0  0  0  0
 36 33  1  6  0  0  0
 36 39  1  0  0  0  0
 36 40  1  0  0  0  0
 38 36  1  0  0  0  0
 39 41  1  6  0  0  0
 39 40  1  0  0  0  0
 40 37  1  0  0  0  0
 42 48  1  0  0  0  0
 42 50  1  0  0  0  0
 43 47  1  6  0  0  0
 43 34  1  0  0  0  0
 44 43  1  0  0  0  0
 45 47  1  0  0  0  0
 46 49  1  0  0  0  0
 46 45  1  0  0  0  0
 48 46  1  0  0  0  0
 50 49  1  0  0  0  0
 51 45  2  0  0  0  0
 51 44  1  0  0  0  0
M  END
>  <MODEL>
2

>  <REMARK>
 VINA RESULT:      -5.3      1.832      6.847
  Name = 
  13 active torsions:
  status: ('A' for Active; 'I' for Inactive)
    1  A    between atoms: N_5  and  C_11
    2  A    between atoms: C_7  and  O_43
    3  A    between atoms: C_10  and  O_22
    4  A    between atoms: C_12  and  O_45
    5  A    between atoms: C_17  and  O_45
    6  A    between atoms: C_18  and  N_29
    7  A    between atoms: C_18  and  C_34
    8  A    between atoms: O_21  and  C_26
    9  A    between atoms: O_21  and  C_28
   10  A    between atoms: O_22  and  C_28
   11  A    between atoms: C_27  and  C_36
   12  A    between atoms: C_30  and  C_34
   13  A    between atoms: C_30  and  O_43
                            x       y       z     vdW  Elec       q    Type
                         _______ _______ _______ _____ _____    ______ ____

>  <TORSDO>
F 13

$$$$
=
 OpenBabel11072410243D

 51 60  0  0  1  0  0  0  0  0999 V2000
  162.4130  207.3080  140.7600 O   0  0  0  0  0  0  0  0  0  0  0  0
  159.8890  209.5670  137.6520 N   0  0  0  0  0  0  0  0  0  0  0  0
  162.3220  206.5780  137.1980 C   0  0  0  0  0  1  0  0  0  0  0  0
  161.7490  207.0040  139.5690 C   0  0  2  0  0  3  0  0  0  0  0  0
  160.6390  210.3880  138.3170 C   0  0  0  0  0  0  0  0  0  0  0  0
  160.2290  208.2410  137.9210 N   0  0  0  0  0  2  0  0  0  0  0  0
  162.5770  207.4960  138.3830 C   0  0  2  0  0  3  0  0  0  0  0  0
  161.3450  208.2730  138.8410 C   0  0  2  0  0  0  0  0  0  0  0  0
  161.6480  209.7210  139.1990 C   0  0  2  0  0  3  0  0  0  0  0  0
  161.2960  210.0080  140.6490 C   0  0  0  0  0  1  0  0  0  0  0  0
  160.5130  211.7790  138.2290 O   0  0  0  0  0  0  0  0  0  0  0  0
  158.5250  211.7610  139.6450 C   0  0  1  0  0  3  0  0  0  0  0  0
  157.7450  212.9530  140.1410 C   0  0  0  0  0  2  0  0  0  0  0  0
  157.7410  211.8170  138.3490 C   0  0  2  0  0  3  0  0  0  0  0  0
  159.7230  212.5560  139.1360 C   0  0  2  0  0  0  0  0  0  0  0  0
  157.7340  213.3000  138.6710 C   0  0  2  0  0  3  0  0  0  0  0  0
  159.0890  213.6340  138.4550 O   0  0  0  0  0  0  0  0  0  0  0  0
  154.9680  209.5010  139.3570 C   0  0  0  0  0  3  0  0  0  0  0  0
  155.3230  211.6990  137.7670 N   0  0  0  0  0  0  0  0  0  0  0  0
  153.8780  210.0280  138.6660 C   0  0  0  0  0  3  0  0  0  0  0  0
  156.1930  210.0770  139.2360 N   0  0  0  0  0  0  0  0  0  0  0  0
  156.3810  211.1640  138.4360 C   0  0  0  0  0  0  0  0  0  0  0  0
  154.0830  211.1490  137.8640 C   0  0  0  0  0  3  0  0  0  0  0  0
  160.5300  213.0490  140.2090 O   0  0  0  0  0  0  0  0  0  0  0  0
  162.8120  213.4320  140.6440 C   0  0  0  0  0  2  0  0  0  0  0  0
  161.7150  213.7420  139.9720 C   0  0  0  0  0  3  0  0  0  0  0  0
  162.3520  206.1320  141.5100 C   0  0  0  0  0  2  0  0  0  0  0  0
  161.2690  206.2340  142.5750 C   0  0  0  0  0  2  0  0  0  0  0  0
  161.8030  205.8140  143.9360 C   0  0  0  0  0  2  0  0  0  0  0  0
  161.3590  204.2220  145.5520 C   0  0  1  0  0  3  0  0  0  0  0  0
  162.5820  203.9660  145.0160 O   0  0  0  0  0  0  0  0  0  0  0  0
  161.5980  204.3920  144.1410 N   0  0  0  0  0  0  0  0  0  0  0  0
  160.6800  203.0160  145.7770 O   0  0  0  0  0  0  0  0  0  0  0  0
  161.7060  203.7020  149.2450 N   0  0  1  0  0  0  0  0  0  0  0  0
  161.2660  202.4620  149.8820 C   0  0  0  0  0  2  0  0  0  0  0  0
  161.0020  202.6170  147.0910 C   0  0  1  0  0  0  0  0  0  0  0  0
  160.7050  200.4270  146.1140 C   0  0  0  0  0  1  0  0  0  0  0  0
  162.0830  203.3970  147.8670 C   0  0  0  0  0  2  0  0  0  0  0  0
  159.9570  201.8930  147.7610 N   0  0  1  0  0  0  0  0  0  0  0  0
  161.1290  201.1950  147.2820 N   0  0  0  0  0  0  0  0  0  0  0  0
  159.9940  201.8970  149.2360 C   0  0  0  0  0  2  0  0  0  0  0  0
  161.7650  209.9440  152.2490 C   0  0  0  0  0  2  0  0  0  0  0  0
  160.6650  204.7390  149.2830 C   0  0  2  0  0  3  0  0  0  0  0  0
  161.0070  205.8060  148.4050 O   0  0  0  0  0  0  0  0  0  0  0  0
  161.0190  206.8180  150.3170 C   0  0  0  0  0  0  0  0  0  0  0  0
  161.1720  207.8700  151.2740 N   0  0  0  0  0  0  0  0  0  0  0  0
  160.6340  205.4200  150.6590 C   0  0  0  0  0  2  0  0  0  0  0  0
  161.6140  209.2070  150.9290 C   0  0  0  0  0  2  0  0  0  0  0  0
  160.9190  207.6990  152.6890 C   0  0  0  0  0  2  0  0  0  0  0  0
  161.0950  209.0770  153.3060 C   0  0  0  0  0  2  0  0  0  0  0  0
  161.2140  206.9920  149.0580 N   0  0  0  0  0  0  0  0  0  0  0  0
  1 27  1  0  0  0  0
  2  6  1  0  0  0  0
  2  5  2  0  0  0  0
  4  1  1  1  0  0  0
  5  9  1  0  0  0  0
  7  3  1  6  0  0  0
  7  8  1  0  0  0  0
  7  4  1  0  0  0  0
  8  6  1  6  0  0  0
  8  9  1  0  0  0  0
  8  4  1  0  0  0  0
  9 10  1  1  0  0  0
 11  5  1  0  0  0  0
 12 13  1  1  0  0  0
 14 22  1  1  0  0  0
 14 16  1  0  0  0  0
 14 12  1  0  0  0  0
 15 11  1  6  0  0  0
 15 12  1  0  0  0  0
 15 24  1  0  0  0  0
 16 13  1  1  0  0  0
 17 16  1  0  0  0  0
 17 15  1  0  0  0  0
 19 23  1  0  0  0  0
 19 22  2  0  0  0  0
 20 18  1  0  0  0  0
 21 18  2  0  0  0  0
 22 21  1  0  0  0  0
 23 20  2  0  0  0  0
 26 24  1  0  0  0  0
 26 25  2  0  0  0  0
 27 28  1  0  0  0  0
 28 29  1  0  0  0  0
 29 32  1  0  0  0  0
 30 33  1  6  0  0  0
 31 30  1  0  0  0  0
 32 31  1  0  0  0  0
 32 30  1  0  0  0  0
 34 38  1  6  0  0  0
 34 43  1  0  0  0  0
 34 35  1  0  0  0  0
 36 33  1  6  0  0  0
 36 40  1  0  0  0  0
 36 39  1  0  0  0  0
 36 38  1  0  0  0  0
 37 40  1  0  0  0  0
 39 41  1  1  0  0  0
 40 39  1  0  0  0  0
 41 35  1  0  0  0  0
 42 50  1  0  0  0  0
 43 47  1  1  0  0  0
 44 51  1  0  0  0  0
 44 43  1  0  0  0  0
 45 47  1  0  0  0  0
 45 46  1  0  0  0  0
 46 49  1  0  0  0  0
 48 46  1  0  0  0  0
 48 42  1  0  0  0  0
 49 50  1  0  0  0  0
 51 45  2  0  0  0  0
M  END
>  <MODEL>
3

>  <REMARK>
 VINA RESULT:      -4.9      7.150     11.665
  Name = 
  13 active torsions:
  status: ('A' for Active; 'I' for Inactive)
    1  A    between atoms: N_5  and  C_11
    2  A    between atoms: C_7  and  O_43
    3  A    between atoms: C_10  and  O_22
    4  A    between atoms: C_12  and  O_45
    5  A    between atoms: C_17  and  O_45
    6  A    between atoms: C_18  and  N_29
    7  A    between atoms: C_18  and  C_34
    8  A    between atoms: O_21  and  C_26
    9  A    between atoms: O_21  and  C_28
   10  A    between atoms: O_22  and  C_28
   11  A    between atoms: C_27  and  C_36
   12  A    between atoms: C_30  and  C_34
   13  A    between atoms: C_30  and  O_43
                            x       y       z     vdW  Elec       q    Type
                         _______ _______ _______ _____ _____    ______ ____

>  <TORSDO>
F 13

$$$$
=
 OpenBabel11072410243D

 51 60  0  0  1  0  0  0  0  0999 V2000
  160.1250  212.1630  147.0340 O   0  0  0  0  0  0  0  0  0  0  0  0
  162.6270  213.6120  143.4590 N   0  0  0  0  0  0  0  0  0  0  0  0
  162.9450  214.4530  147.2350 C   0  0  0  0  0  1  0  0  0  0  0  0
  161.4540  212.5240  146.7980 C   0  0  2  0  0  3  0  0  0  0  0  0
  161.3690  213.8520  143.2650 C   0  0  0  0  0  0  0  0  0  0  0  0
  162.8650  213.1940  144.7690 N   0  0  0  0  0  2  0  0  0  0  0  0
  161.5670  214.0470  146.7370 C   0  0  2  0  0  3  0  0  0  0  0  0
  161.5910  213.2170  145.4550 C   0  0  2  0  0  0  0  0  0  0  0  0
  160.5050  213.6110  144.4640 C   0  0  2  0  0  3  0  0  0  0  0  0
  159.5830  212.4390  144.1740 C   0  0  0  0  0  1  0  0  0  0  0  0
  160.8560  214.2890  142.0390 O   0  0  0  0  0  0  0  0  0  0  0  0
  162.0850  213.0030  140.3670 C   0  0  1  0  0  3  0  0  0  0  0  0
  161.5950  212.5650  139.0100 C   0  0  0  0  0  2  0  0  0  0  0  0
  162.4580  214.3470  139.7730 C   0  0  2  0  0  3  0  0  0  0  0  0
  160.7210  213.4390  140.8940 C   0  0  2  0  0  0  0  0  0  0  0  0
  161.2730  214.0350  138.8780 C   0  0  2  0  0  3  0  0  0  0  0  0
  160.2000  214.1650  139.7870 O   0  0  0  0  0  0  0  0  0  0  0  0
  165.0150  214.3700  137.0300 C   0  0  0  0  0  3  0  0  0  0  0  0
  164.9460  214.4150  139.7640 N   0  0  0  0  0  0  0  0  0  0  0  0
  166.2120  214.4280  137.7430 C   0  0  0  0  0  3  0  0  0  0  0  0
  163.8290  214.3330  137.6930 N   0  0  0  0  0  0  0  0  0  0  0  0
  163.7870  214.3430  139.0550 C   0  0  0  0  0  0  0  0  0  0  0  0
  166.1510  214.4520  139.1350 C   0  0  0  0  0  3  0  0  0  0  0  0
  159.8840  212.3200  141.1970 O   0  0  0  0  0  0  0  0  0  0  0  0
  157.8190  212.2760  140.0660 C   0  0  0  0  0  2  0  0  0  0  0  0
  159.0280  211.7690  140.2450 C   0  0  0  0  0  3  0  0  0  0  0  0
  160.1660  211.4050  148.2050 C   0  0  0  0  0  2  0  0  0  0  0  0
  161.4120  211.7380  149.0140 C   0  0  0  0  0  2  0  0  0  0  0  0
  162.2900  210.5090  149.1910 C   0  0  0  0  0  2  0  0  0  0  0  0
  162.0020  208.2170  149.3010 C   0  0  1  0  0  3  0  0  0  0  0  0
  162.7570  208.5060  148.2080 O   0  0  0  0  0  0  0  0  0  0  0  0
  161.7160  209.3750  148.4900 N   0  0  0  0  0  0  0  0  0  0  0  0
  161.1000  207.1880  148.9930 O   0  0  0  0  0  0  0  0  0  0  0  0
  161.8630  205.7640  152.3020 N   0  0  1  0  0  0  0  0  0  0  0  0
  161.5670  204.3570  152.0380 C   0  0  0  0  0  2  0  0  0  0  0  0
  161.4130  206.1150  149.8550 C   0  0  1  0  0  0  0  0  0  0  0  0
  161.4640  204.9170  147.7570 C   0  0  0  0  0  1  0  0  0  0  0  0
  162.3410  206.3690  151.0600 C   0  0  0  0  0  2  0  0  0  0  0  0
  160.4470  205.0510  149.8470 N   0  0  1  0  0  0  0  0  0  0  0  0
  161.7240  204.8740  149.1930 N   0  0  0  0  0  0  0  0  0  0  0  0
  160.4150  204.1820  151.0390 C   0  0  0  0  0  2  0  0  0  0  0  0
  161.5030  211.6940  155.8650 C   0  0  0  0  0  2  0  0  0  0  0  0
  160.6890  206.4860  152.8150 C   0  0  2  0  0  3  0  0  0  0  0  0
  160.4330  207.6330  152.0130 O   0  0  0  0  0  0  0  0  0  0  0  0
  160.8840  208.5490  153.9210 C   0  0  0  0  0  0  0  0  0  0  0  0
  161.1130  209.5710  154.8950 N   0  0  0  0  0  0  0  0  0  0  0  0
  160.9890  207.0870  154.1950 C   0  0  0  0  0  2  0  0  0  0  0  0
  161.0730  210.9880  154.5910 C   0  0  0  0  0  2  0  0  0  0  0  0
  161.4280  209.2910  156.2800 C   0  0  0  0  0  2  0  0  0  0  0  0
  161.4790  210.6450  156.9690 C   0  0  0  0  0  2  0  0  0  0  0  0
  160.5710  208.8090  152.7020 N   0  0  0  0  0  0  0  0  0  0  0  0
  1 27  1  0  0  0  0
  2  6  1  0  0  0  0
  4  1  1  6  0  0  0
  5  2  2  0  0  0  0
  5  9  1  0  0  0  0
  7  4  1  0  0  0  0
  7  3  1  1  0  0  0
  8  6  1  6  0  0  0
  8  7  1  0  0  0  0
  8  4  1  0  0  0  0
  9 10  1  6  0  0  0
  9  8  1  0  0  0  0
 11  5  1  0  0  0  0
 12 13  1  6  0  0  0
 12 15  1  0  0  0  0
 14 22  1  6  0  0  0
 14 12  1  0  0  0  0
 15 24  1  1  0  0  0
 15 11  1  0  0  0  0
 16 13  1  1  0  0  0
 16 14  1  0  0  0  0
 16 17  1  0  0  0  0
 17 15  1  0  0  0  0
 18 21  2  0  0  0  0
 18 20  1  0  0  0  0
 20 23  2  0  0  0  0
 21 22  1  0  0  0  0
 22 19  2  0  0  0  0
 23 19  1  0  0  0  0
 25 26  2  0  0  0  0
 26 24  1  0  0  0  0
 27 28  1  0  0  0  0
 28 29  1  0  0  0  0
 30 33  1  6  0  0  0
 31 32  1  0  0  0  0
 31 30  1  0  0  0  0
 32 29  1  0  0  0  0
 32 30  1  0  0  0  0
 34 38  1  6  0  0  0
 34 43  1  0  0  0  0
 35 34  1  0  0  0  0
 36 33  1  6  0  0  0
 36 38  1  0  0  0  0
 37 40  1  0  0  0  0
 39 36  1  0  0  0  0
 39 41  1  1  0  0  0
 40 39  1  0  0  0  0
 40 36  1  0  0  0  0
 41 35  1  0  0  0  0
 42 50  1  0  0  0  0
 43 47  1  1  0  0  0
 44 51  1  0  0  0  0
 44 43  1  0  0  0  0
 45 47  1  0  0  0  0
 45 46  1  0  0  0  0
 46 49  1  0  0  0  0
 48 46  1  0  0  0  0
 48 42  1  0  0  0  0
 49 50  1  0  0  0  0
 51 45  2  0  0  0  0
M  END
>  <MODEL>
4

>  <REMARK>
 VINA RESULT:      -4.5      5.939     10.446
  Name = 
  13 active torsions:
  status: ('A' for Active; 'I' for Inactive)
    1  A    between atoms: N_5  and  C_11
    2  A    between atoms: C_7  and  O_43
    3  A    between atoms: C_10  and  O_22
    4  A    between atoms: C_12  and  O_45
    5  A    between atoms: C_17  and  O_45
    6  A    between atoms: C_18  and  N_29
    7  A    between atoms: C_18  and  C_34
    8  A    between atoms: O_21  and  C_26
    9  A    between atoms: O_21  and  C_28
   10  A    between atoms: O_22  and  C_28
   11  A    between atoms: C_27  and  C_36
   12  A    between atoms: C_30  and  C_34
   13  A    between atoms: C_30  and  O_43
                            x       y       z     vdW  Elec       q    Type
                         _______ _______ _______ _____ _____    ______ ____

>  <TORSDO>
F 13

$$$$
=
 OpenBabel11072410243D

 51 60  0  0  1  0  0  0  0  0999 V2000
  161.4660  208.5890  152.3610 O   0  0  0  0  0  0  0  0  0  0  0  0
  160.4130  206.1480  148.6100 N   0  0  0  0  0  0  0  0  0  0  0  0
  160.7210  205.0280  152.3130 C   0  0  0  0  0  1  0  0  0  0  0  0
  160.6600  207.4900  152.0520 C   0  0  2  0  0  3  0  0  0  0  0  0
  161.5400  206.7670  148.4520 C   0  0  0  0  0  0  0  0  0  0  0  0
  159.9740  206.2280  149.9320 N   0  0  0  0  0  2  0  0  0  0  0  0
  161.5320  206.2450  151.8950 C   0  0  2  0  0  3  0  0  0  0  0  0
  160.9820  206.9630  150.6650 C   0  0  2  0  0  0  0  0  0  0  0  0
  162.0670  207.4120  149.6960 C   0  0  2  0  0  3  0  0  0  0  0  0
  162.0420  208.9200  149.5130 C   0  0  0  0  0  1  0  0  0  0  0  0
  162.2060  206.8380  147.2240 O   0  0  0  0  0  0  0  0  0  0  0  0
  161.1970  204.6870  146.6630 C   0  0  1  0  0  3  0  0  0  0  0  0
  161.7110  203.6650  145.6810 C   0  0  0  0  0  2  0  0  0  0  0  0
  162.1220  204.1080  147.7140 C   0  0  2  0  0  3  0  0  0  0  0  0
  162.1360  205.8090  146.2300 C   0  0  2  0  0  0  0  0  0  0  0  0
  162.9750  203.8210  146.4930 C   0  0  2  0  0  3  0  0  0  0  0  0
  163.3790  205.1240  146.1270 O   0  0  0  0  0  0  0  0  0  0  0  0
  161.5220  200.5110  148.5890 C   0  0  0  0  0  3  0  0  0  0  0  0
  160.7330  202.9850  149.4480 N   0  0  0  0  0  0  0  0  0  0  0  0
  160.6470  200.6120  149.6700 C   0  0  0  0  0  3  0  0  0  0  0  0
  161.9740  201.6350  147.9720 N   0  0  0  0  0  0  0  0  0  0  0  0
  161.5750  202.8700  148.3850 C   0  0  0  0  0  0  0  0  0  0  0  0
  160.2610  201.8830  150.0910 C   0  0  0  0  0  3  0  0  0  0  0  0
  161.7620  206.3580  144.9640 O   0  0  0  0  0  0  0  0  0  0  0  0
  161.3820  205.9020  142.6860 C   0  0  0  0  0  2  0  0  0  0  0  0
  161.2200  205.5650  143.9550 C   0  0  0  0  0  3  0  0  0  0  0  0
  161.5280  208.6020  153.7550 C   0  0  0  0  0  2  0  0  0  0  0  0
  161.3760  210.0210  154.2840 C   0  0  0  0  0  2  0  0  0  0  0  0
  160.7750  210.0200  155.6800 C   0  0  0  0  0  2  0  0  0  0  0  0
  159.1720  211.6740  155.4780 C   0  0  1  0  0  3  0  0  0  0  0  0
  160.3310  212.1260  154.9310 O   0  0  0  0  0  0  0  0  0  0  0  0
  160.4430  211.3740  156.0870 N   0  0  0  0  0  0  0  0  0  0  0  0
  158.5430  212.7140  156.1780 O   0  0  0  0  0  0  0  0  0  0  0  0
  157.4120  214.2750  153.0420 N   0  0  1  0  0  0  0  0  0  0  0  0
  155.9970  213.9110  153.0820 C   0  0  0  0  0  2  0  0  0  0  0  0
  157.5470  213.2250  155.3210 C   0  0  1  0  0  0  0  0  0  0  0  0
  156.1560  212.7330  157.2340 C   0  0  0  0  0  1  0  0  0  0  0  0
  157.8810  214.4290  154.4180 C   0  0  0  0  0  2  0  0  0  0  0  0
  156.5190  212.2800  154.9800 N   0  0  1  0  0  0  0  0  0  0  0  0
  156.2390  213.3480  155.9130 N   0  0  0  0  0  0  0  0  0  0  0  0
  155.7680  212.5420  153.7380 C   0  0  0  0  0  2  0  0  0  0  0  0
  159.0570  213.8830  146.3240 C   0  0  0  0  0  2  0  0  0  0  0  0
  158.2170  213.2750  152.3260 C   0  0  2  0  0  3  0  0  0  0  0  0
  159.4940  213.8160  152.0050 O   0  0  0  0  0  0  0  0  0  0  0  0
  158.6810  213.4660  150.0310 C   0  0  0  0  0  0  0  0  0  0  0  0
  158.5920  213.4480  148.6040 N   0  0  0  0  0  0  0  0  0  0  0  0
  157.6090  212.9830  150.9470 C   0  0  0  0  0  2  0  0  0  0  0  0
  159.6180  213.9850  147.7310 C   0  0  0  0  0  2  0  0  0  0  0  0
  157.4560  212.9080  147.8860 C   0  0  0  0  0  2  0  0  0  0  0  0
  157.8260  212.9910  146.4140 C   0  0  0  0  0  2  0  0  0  0  0  0
  159.7100  213.9160  150.6560 N   0  0  0  0  0  0  0  0  0  0  0  0
  1 27  1  0  0  0  0
  2  6  1  0  0  0  0
  4  1  1  6  0  0  0
  5  2  2  0  0  0  0
  5  9  1  0  0  0  0
  7  4  1  0  0  0  0
  7  3  1  1  0  0  0
  8  6  1  6  0  0  0
  8  7  1  0  0  0  0
  8  4  1  0  0  0  0
  9 10  1  6  0  0  0
  9  8  1  0  0  0  0
 11  5  1  0  0  0  0
 12 13  1  6  0  0  0
 12 14  1  0  0  0  0
 14 22  1  6  0  0  0
 15 24  1  6  0  0  0
 15 12  1  0  0  0  0
 15 11  1  0  0  0  0
 16 13  1  6  0  0  0
 16 14  1  0  0  0  0
 17 15  1  0  0  0  0
 17 16  1  0  0  0  0
 18 20  1  0  0  0  0
 19 23  1  0  0  0  0
 20 23  2  0  0  0  0
 21 22  1  0  0  0  0
 21 18  2  0  0  0  0
 22 19  2  0  0  0  0
 25 26  2  0  0  0  0
 26 24  1  0  0  0  0
 27 28  1  0  0  0  0
 28 29  1  0  0  0  0
 29 32  1  0  0  0  0
 30 32  1  0  0  0  0
 30 33  1  1  0  0  0
 31 30  1  0  0  0  0
 31 32  1  0  0  0  0
 34 35  1  1  0  0  0
 34 38  1  0  0  0  0
 35 41  1  0  0  0  0
 36 40  1  0  0  0  0
 36 33  1  1  0  0  0
 38 36  1  0  0  0  0
 39 41  1  6  0  0  0
 39 36  1  0  0  0  0
 39 40  1  0  0  0  0
 40 37  1  0  0  0  0
 42 50  1  0  0  0  0
 42 48  1  0  0  0  0
 43 47  1  6  0  0  0
 43 34  1  0  0  0  0
 44 43  1  0  0  0  0
 45 51  2  0  0  0  0
 45 47  1  0  0  0  0
 46 45  1  0  0  0  0
 48 46  1  0  0  0  0
 49 46  1  0  0  0  0
 50 49  1  0  0  0  0
 51 44  1  0  0  0  0
M  END
>  <MODEL>
5

>  <REMARK>
 VINA RESULT:      -4.3      2.073     10.242
  Name = 
  13 active torsions:
  status: ('A' for Active; 'I' for Inactive)
    1  A    between atoms: N_5  and  C_11
    2  A    between atoms: C_7  and  O_43
    3  A    between atoms: C_10  and  O_22
    4  A    between atoms: C_12  and  O_45
    5  A    between atoms: C_17  and  O_45
    6  A    between atoms: C_18  and  N_29
    7  A    between atoms: C_18  and  C_34
    8  A    between atoms: O_21  and  C_26
    9  A    between atoms: O_21  and  C_28
   10  A    between atoms: O_22  and  C_28
   11  A    between atoms: C_27  and  C_36
   12  A    between atoms: C_30  and  C_34
   13  A    between atoms: C_30  and  O_43
                            x       y       z     vdW  Elec       q    Type
                         _______ _______ _______ _____ _____    ______ ____

>  <TORSDO>
F 13

$$$$
=
 OpenBabel11072410243D

 51 60  0  0  1  0  0  0  0  0999 V2000
  160.6110  211.9270  147.3400 O   0  0  0  0  0  0  0  0  0  0  0  0
  163.2300  213.4920  143.9010 N   0  0  0  0  0  0  0  0  0  0  0  0
  163.3390  214.3080  147.6940 C   0  0  0  0  0  1  0  0  0  0  0  0
  161.9370  212.3340  147.1710 C   0  0  2  0  0  3  0  0  0  0  0  0
  161.9750  213.6920  143.6480 C   0  0  0  0  0  0  0  0  0  0  0  0
  163.4190  213.0700  145.2170 N   0  0  0  0  0  2  0  0  0  0  0  0
  162.0010  213.8600  147.1270 C   0  0  2  0  0  3  0  0  0  0  0  0
  162.1140  213.0440  145.8410 C   0  0  2  0  0  0  0  0  0  0  0  0
  161.0640  213.4100  144.8020 C   0  0  2  0  0  3  0  0  0  0  0  0
  160.1960  212.2120  144.4590 C   0  0  0  0  0  1  0  0  0  0  0  0
  161.5070  214.1230  142.4030 O   0  0  0  0  0  0  0  0  0  0  0  0
  160.2410  212.2180  141.5530 C   0  0  1  0  0  3  0  0  0  0  0  0
  159.0530  212.2500  140.6240 C   0  0  0  0  0  2  0  0  0  0  0  0
  161.1560  212.2920  140.3480 C   0  0  2  0  0  3  0  0  0  0  0  0
  160.2510  213.7140  141.8490 C   0  0  2  0  0  0  0  0  0  0  0  0
  159.9910  213.0850  139.7850 C   0  0  2  0  0  3  0  0  0  0  0  0
  160.0690  214.2680  140.5510 O   0  0  0  0  0  0  0  0  0  0  0  0
  161.8320  208.6400  139.8250 C   0  0  0  0  0  3  0  0  0  0  0  0
  161.2130  210.8420  138.3250 N   0  0  0  0  0  0  0  0  0  0  0  0
  161.6840  208.5070  138.4450 C   0  0  0  0  0  3  0  0  0  0  0  0
  161.6700  209.8550  140.4130 N   0  0  0  0  0  0  0  0  0  0  0  0
  161.3750  210.9590  139.6710 C   0  0  0  0  0  0  0  0  0  0  0  0
  161.3670  209.6420  137.7020 C   0  0  0  0  0  3  0  0  0  0  0  0
  159.1750  214.0950  142.7110 O   0  0  0  0  0  0  0  0  0  0  0  0
  156.8490  214.3560  142.9680 C   0  0  0  0  0  2  0  0  0  0  0  0
  157.9270  214.4530  142.2060 C   0  0  0  0  0  3  0  0  0  0  0  0
  160.6710  210.9120  148.2960 C   0  0  0  0  0  2  0  0  0  0  0  0
  161.9420  211.0340  149.1250 C   0  0  0  0  0  2  0  0  0  0  0  0
  162.5970  209.6750  149.3170 C   0  0  0  0  0  2  0  0  0  0  0  0
  162.1820  207.4000  149.2730 C   0  0  1  0  0  3  0  0  0  0  0  0
  162.7470  207.7610  148.0900 O   0  0  0  0  0  0  0  0  0  0  0  0
  161.8330  208.6460  148.6350 N   0  0  0  0  0  0  0  0  0  0  0  0
  161.1740  206.4530  149.0460 O   0  0  0  0  0  0  0  0  0  0  0  0
  161.8460  205.2080  152.4450 N   0  0  1  0  0  0  0  0  0  0  0  0
  161.3820  203.8300  152.2990 C   0  0  0  0  0  2  0  0  0  0  0  0
  161.3810  205.4200  149.9850 C   0  0  1  0  0  0  0  0  0  0  0  0
  161.2400  204.0660  147.9890 C   0  0  0  0  0  1  0  0  0  0  0  0
  162.3610  205.6550  151.1520 C   0  0  0  0  0  2  0  0  0  0  0  0
  160.2980  204.4800  150.0770 N   0  0  1  0  0  0  0  0  0  0  0  0
  161.5290  204.1040  149.4190 N   0  0  0  0  0  0  0  0  0  0  0  0
  160.1940  203.7160  151.3340 C   0  0  0  0  0  2  0  0  0  0  0  0
  162.2430  211.0160  156.2000 C   0  0  0  0  0  2  0  0  0  0  0  0
  160.7770  206.1010  152.9170 C   0  0  2  0  0  3  0  0  0  0  0  0
  160.7630  207.2970  152.1450 O   0  0  0  0  0  0  0  0  0  0  0  0
  161.2380  208.0720  154.1080 C   0  0  0  0  0  0  0  0  0  0  0  0
  161.5710  209.0150  155.1310 N   0  0  0  0  0  0  0  0  0  0  0  0
  161.0840  206.6060  154.3330 C   0  0  0  0  0  2  0  0  0  0  0  0
  161.7830  210.4270  154.8780 C   0  0  0  0  0  2  0  0  0  0  0  0
  161.7480  208.6490  156.5200 C   0  0  0  0  0  2  0  0  0  0  0  0
  161.9790  209.9570  157.2610 C   0  0  0  0  0  2  0  0  0  0  0  0
  161.0500  208.4140  152.8840 N   0  0  0  0  0  0  0  0  0  0  0  0
  1 27  1  0  0  0  0
  2  6  1  0  0  0  0
  4  1  1  6  0  0  0
  5  2  2  0  0  0  0
  5  9  1  0  0  0  0
  7  4  1  0  0  0  0
  7  3  1  1  0  0  0
  8  6  1  6  0  0  0
  8  7  1  0  0  0  0
  8  4  1  0  0  0  0
  9 10  1  6  0  0  0
  9  8  1  0  0  0  0
 11  5  1  0  0  0  0
 12 13  1  6  0  0  0
 12 15  1  0  0  0  0
 14 22  1  6  0  0  0
 14 12  1  0  0  0  0
 15 11  1  1  0  0  0
 15 24  1  0  0  0  0
 16 14  1  0  0  0  0
 16 17  1  0  0  0  0
 16 13  1  1  0  0  0
 17 15  1  0  0  0  0
 18 21  2  0  0  0  0
 19 22  2  0  0  0  0
 20 18  1  0  0  0  0
 22 21  1  0  0  0  0
 23 19  1  0  0  0  0
 23 20  2  0  0  0  0
 26 24  1  0  0  0  0
 26 25  2  0  0  0  0
 27 28  1  0  0  0  0
 28 29  1  0  0  0  0
 30 33  1  6  0  0  0
 31 32  1  0  0  0  0
 31 30  1  0  0  0  0
 32 30  1  0  0  0  0
 32 29  1  0  0  0  0
 34 38  1  6  0  0  0
 34 43  1  0  0  0  0
 35 34  1  0  0  0  0
 36 33  1  6  0  0  0
 36 39  1  0  0  0  0
 36 38  1  0  0  0  0
 37 40  1  0  0  0  0
 39 41  1  1  0  0  0
 40 36  1  0  0  0  0
 40 39  1  0  0  0  0
 41 35  1  0  0  0  0
 42 50  1  0  0  0  0
 43 47  1  1  0  0  0
 44 51  1  0  0  0  0
 44 43  1  0  0  0  0
 45 47  1  0  0  0  0
 45 46  1  0  0  0  0
 46 49  1  0  0  0  0
 48 46  1  0  0  0  0
 48 42  1  0  0  0  0
 49 50  1  0  0  0  0
 51 45  2  0  0  0  0
M  END
>  <MODEL>
6

>  <REMARK>
 VINA RESULT:      -4.2      5.152      9.718
  Name = 
  13 active torsions:
  status: ('A' for Active; 'I' for Inactive)
    1  A    between atoms: N_5  and  C_11
    2  A    between atoms: C_7  and  O_43
    3  A    between atoms: C_10  and  O_22
    4  A    between atoms: C_12  and  O_45
    5  A    between atoms: C_17  and  O_45
    6  A    between atoms: C_18  and  N_29
    7  A    between atoms: C_18  and  C_34
    8  A    between atoms: O_21  and  C_26
    9  A    between atoms: O_21  and  C_28
   10  A    between atoms: O_22  and  C_28
   11  A    between atoms: C_27  and  C_36
   12  A    between atoms: C_30  and  C_34
   13  A    between atoms: C_30  and  O_43
                            x       y       z     vdW  Elec       q    Type
                         _______ _______ _______ _____ _____    ______ ____

>  <TORSDO>
F 13

$$$$
=
 OpenBabel11072410243D

 51 60  0  0  1  0  0  0  0  0999 V2000
  161.6380  210.3160  148.8740 O   0  0  0  0  0  0  0  0  0  0  0  0
  159.1870  214.1140  149.7090 N   0  0  0  0  0  0  0  0  0  0  0  0
  162.2000  213.5600  147.3270 C   0  0  0  0  0  1  0  0  0  0  0  0
  161.2240  211.4400  148.1560 C   0  0  2  0  0  3  0  0  0  0  0  0
  159.6580  213.6210  150.8110 C   0  0  0  0  0  0  0  0  0  0  0  0
  159.7390  213.4810  148.5950 N   0  0  0  0  0  2  0  0  0  0  0  0
  162.0990  212.6360  148.5300 C   0  0  2  0  0  3  0  0  0  0  0  0
  160.6850  212.5060  149.0940 C   0  0  2  0  0  0  0  0  0  0  0  0
  160.6430  212.5110  150.6160 C   0  0  2  0  0  3  0  0  0  0  0  0
  160.0390  211.2230  151.1470 C   0  0  0  0  0  1  0  0  0  0  0  0
  159.2750  214.0780  152.0760 O   0  0  0  0  0  0  0  0  0  0  0  0
  158.5390  213.2100  154.2350 C   0  0  1  0  0  3  0  0  0  0  0  0
  157.3530  212.3180  154.5060 C   0  0  0  0  0  2  0  0  0  0  0  0
  159.3560  211.9810  153.8920 C   0  0  2  0  0  3  0  0  0  0  0  0
  158.1560  213.5490  152.7980 C   0  0  2  0  0  0  0  0  0  0  0  0
  158.0010  211.4760  153.4310 C   0  0  2  0  0  3  0  0  0  0  0  0
  157.7840  212.2750  152.2870 O   0  0  0  0  0  0  0  0  0  0  0  0
  159.6350  209.6310  156.8010 C   0  0  0  0  0  3  0  0  0  0  0  0
  161.1720  211.4980  155.5240 N   0  0  0  0  0  0  0  0  0  0  0  0
  160.9300  209.8750  157.2550 C   0  0  0  0  0  3  0  0  0  0  0  0
  159.1460  210.3180  155.7350 N   0  0  0  0  0  0  0  0  0  0  0  0
  159.9010  211.2590  155.1020 C   0  0  0  0  0  0  0  0  0  0  0  0
  161.6950  210.8290  156.5870 C   0  0  0  0  0  3  0  0  0  0  0  0
  157.0490  214.4530  152.7410 O   0  0  0  0  0  0  0  0  0  0  0  0
  154.8750  214.1810  151.8800 C   0  0  0  0  0  2  0  0  0  0  0  0
  156.1550  214.4450  151.6730 C   0  0  0  0  0  3  0  0  0  0  0  0
  161.9700  209.3750  147.8970 C   0  0  0  0  0  2  0  0  0  0  0  0
  161.9840  207.9720  148.4890 C   0  0  0  0  0  2  0  0  0  0  0  0
  162.5880  206.9760  147.5130 C   0  0  0  0  0  2  0  0  0  0  0  0
  161.9810  204.8640  146.7920 C   0  0  1  0  0  3  0  0  0  0  0  0
  162.1090  205.6720  145.7070 O   0  0  0  0  0  0  0  0  0  0  0  0
  161.5390  206.2360  146.8350 N   0  0  0  0  0  0  0  0  0  0  0  0
  160.8790  204.0150  146.6220 O   0  0  0  0  0  0  0  0  0  0  0  0
  161.3690  202.7140  150.0310 N   0  0  1  0  0  0  0  0  0  0  0  0
  160.9180  201.3370  149.8370 C   0  0  0  0  0  2  0  0  0  0  0  0
  161.0370  202.9670  147.5540 C   0  0  1  0  0  0  0  0  0  0  0  0
  161.0080  201.6470  145.5300 C   0  0  0  0  0  1  0  0  0  0  0  0
  161.9520  203.1840  148.7760 C   0  0  0  0  0  2  0  0  0  0  0  0
  159.9530  202.0240  147.5710 N   0  0  1  0  0  0  0  0  0  0  0  0
  161.2190  201.6610  146.9750 N   0  0  0  0  0  0  0  0  0  0  0  0
  159.7830  201.2380  148.8080 C   0  0  0  0  0  2  0  0  0  0  0  0
  161.5990  208.7570  153.4120 C   0  0  0  0  0  2  0  0  0  0  0  0
  160.2740  203.5970  150.4590 C   0  0  2  0  0  3  0  0  0  0  0  0
  160.2100  204.7410  149.6150 O   0  0  0  0  0  0  0  0  0  0  0  0
  160.6770  205.6540  151.5200 C   0  0  0  0  0  0  0  0  0  0  0  0
  160.9870  206.6700  152.4780 N   0  0  0  0  0  0  0  0  0  0  0  0
  160.5780  204.2010  151.8380 C   0  0  0  0  0  2  0  0  0  0  0  0
  161.1460  208.0690  152.1360 C   0  0  0  0  0  2  0  0  0  0  0  0
  161.1910  206.3980  153.8860 C   0  0  0  0  0  2  0  0  0  0  0  0
  161.3820  207.7570  154.5400 C   0  0  0  0  0  2  0  0  0  0  0  0
  160.4640  205.9110  150.2790 N   0  0  0  0  0  0  0  0  0  0  0  0
  2  5  2  0  0  0  0
  4  7  1  0  0  0  0
  4  1  1  1  0  0  0
  4  8  1  0  0  0  0
  5 11  1  0  0  0  0
  6  2  1  0  0  0  0
  7  3  1  6  0  0  0
  7  8  1  0  0  0  0
  8  6  1  6  0  0  0
  8  9  1  0  0  0  0
  9  5  1  0  0  0  0
  9 10  1  6  0  0  0
 12 13  1  1  0  0  0
 14 12  1  0  0  0  0
 14 22  1  1  0  0  0
 15 11  1  6  0  0  0
 15 12  1  0  0  0  0
 16 14  1  0  0  0  0
 16 13  1  1  0  0  0
 17 15  1  0  0  0  0
 17 16  1  0  0  0  0
 18 20  1  0  0  0  0
 19 23  1  0  0  0  0
 21 18  2  0  0  0  0
 22 19  2  0  0  0  0
 22 21  1  0  0  0  0
 23 20  2  0  0  0  0
 24 15  1  0  0  0  0
 26 25  2  0  0  0  0
 26 24  1  0  0  0  0
 27 28  1  0  0  0  0
 27  1  1  0  0  0  0
 29 28  1  0  0  0  0
 30 33  1  6  0  0  0
 30 32  1  0  0  0  0
 31 30  1  0  0  0  0
 31 32  1  0  0  0  0
 32 29  1  0  0  0  0
 34 38  1  6  0  0  0
 34 43  1  0  0  0  0
 35 34  1  0  0  0  0
 36 33  1  6  0  0  0
 36 39  1  0  0  0  0
 36 38  1  0  0  0  0
 37 40  1  0  0  0  0
 39 41  1  1  0  0  0
 40 36  1  0  0  0  0
 40 39  1  0  0  0  0
 41 35  1  0  0  0  0
 42 50  1  0  0  0  0
 43 47  1  1  0  0  0
 44 51  1  0  0  0  0
 44 43  1  0  0  0  0
 45 47  1  0  0  0  0
 45 46  1  0  0  0  0
 46 49  1  0  0  0  0
 48 46  1  0  0  0  0
 48 42  1  0  0  0  0
 49 50  1  0  0  0  0
 51 45  2  0  0  0  0
M  END
>  <MODEL>
7

>  <REMARK>
 VINA RESULT:      -3.9      2.008      5.671
  Name = 
  13 active torsions:
  status: ('A' for Active; 'I' for Inactive)
    1  A    between atoms: N_5  and  C_11
    2  A    between atoms: C_7  and  O_43
    3  A    between atoms: C_10  and  O_22
    4  A    between atoms: C_12  and  O_45
    5  A    between atoms: C_17  and  O_45
    6  A    between atoms: C_18  and  N_29
    7  A    between atoms: C_18  and  C_34
    8  A    between atoms: O_21  and  C_26
    9  A    between atoms: O_21  and  C_28
   10  A    between atoms: O_22  and  C_28
   11  A    between atoms: C_27  and  C_36
   12  A    between atoms: C_30  and  C_34
   13  A    between atoms: C_30  and  O_43
                            x       y       z     vdW  Elec       q    Type
                         _______ _______ _______ _____ _____    ______ ____

>  <TORSDO>
F 13

$$$$
=
 OpenBabel11072410243D

 51 60  0  0  1  0  0  0  0  0999 V2000
  161.9000  209.1920  149.4430 O   0  0  0  0  0  0  0  0  0  0  0  0
  160.2130  213.4030  150.1890 N   0  0  0  0  0  0  0  0  0  0  0  0
  163.1030  212.2450  147.8720 C   0  0  0  0  0  1  0  0  0  0  0  0
  161.7220  210.3650  148.7060 C   0  0  2  0  0  3  0  0  0  0  0  0
  160.5620  212.8450  151.3050 C   0  0  0  0  0  0  0  0  0  0  0  0
  160.6530  212.6590  149.0930 N   0  0  0  0  0  2  0  0  0  0  0  0
  162.8050  211.3750  149.0840 C   0  0  2  0  0  3  0  0  0  0  0  0
  161.3840  211.5280  149.6210 C   0  0  2  0  0  0  0  0  0  0  0  0
  161.3170  211.5630  151.1410 C   0  0  2  0  0  3  0  0  0  0  0  0
  160.4670  210.4230  151.6750 C   0  0  0  0  0  1  0  0  0  0  0  0
  160.2520  213.3860  152.5580 O   0  0  0  0  0  0  0  0  0  0  0  0
  157.9050  212.7850  152.2580 C   0  0  1  0  0  3  0  0  0  0  0  0
  156.7680  213.0380  153.2160 C   0  0  0  0  0  2  0  0  0  0  0  0
  157.7320  214.1900  151.7180 C   0  0  2  0  0  3  0  0  0  0  0  0
  159.0190  213.1320  153.2410 C   0  0  2  0  0  0  0  0  0  0  0  0
  157.2950  214.4520  153.1480 C   0  0  2  0  0  3  0  0  0  0  0  0
  158.5200  214.3230  153.8380 O   0  0  0  0  0  0  0  0  0  0  0  0
  155.9160  214.4040  148.4440 C   0  0  0  0  0  3  0  0  0  0  0  0
  155.3230  214.3490  151.1130 N   0  0  0  0  0  0  0  0  0  0  0  0
  154.5830  214.4530  148.8480 C   0  0  0  0  0  3  0  0  0  0  0  0
  156.9070  214.3310  149.3720 N   0  0  0  0  0  0  0  0  0  0  0  0
  156.6200  214.3160  150.7040 C   0  0  0  0  0  0  0  0  0  0  0  0
  154.3050  214.4220  150.2130 C   0  0  0  0  0  3  0  0  0  0  0  0
  159.1940  212.1130  154.2300 O   0  0  0  0  0  0  0  0  0  0  0  0
  158.2190  211.9430  156.3660 C   0  0  0  0  0  2  0  0  0  0  0  0
  159.1860  212.4080  155.5910 C   0  0  0  0  0  3  0  0  0  0  0  0
  161.4580  208.1720  148.5990 C   0  0  0  0  0  2  0  0  0  0  0  0
  162.6380  207.3680  148.0710 C   0  0  0  0  0  2  0  0  0  0  0  0
  162.2920  206.6990  146.7490 C   0  0  0  0  0  2  0  0  0  0  0  0
  161.5650  204.6720  147.5920 C   0  0  1  0  0  3  0  0  0  0  0  0
  161.3890  204.6690  146.2450 O   0  0  0  0  0  0  0  0  0  0  0  0
  161.1190  205.8570  146.9020 N   0  0  0  0  0  0  0  0  0  0  0  0
  160.4750  204.0470  148.2140 O   0  0  0  0  0  0  0  0  0  0  0  0
  161.7790  204.2040  151.6530 N   0  0  1  0  0  0  0  0  0  0  0  0
  161.5480  202.8210  152.0680 C   0  0  0  0  0  2  0  0  0  0  0  0
  160.9770  203.4560  149.3930 C   0  0  1  0  0  0  0  0  0  0  0  0
  160.8220  201.4650  148.0320 C   0  0  0  0  0  1  0  0  0  0  0  0
  162.0400  204.2110  150.2160 C   0  0  0  0  0  2  0  0  0  0  0  0
  160.0940  202.4920  149.9910 N   0  0  1  0  0  0  0  0  0  0  0  0
  161.2790  202.0510  149.2890 N   0  0  0  0  0  0  0  0  0  0  0  0
  160.2850  202.2270  151.4290 C   0  0  0  0  0  2  0  0  0  0  0  0
  161.3410  209.4430  156.1650 C   0  0  0  0  0  2  0  0  0  0  0  0
  160.6400  205.0730  151.9800 C   0  0  2  0  0  3  0  0  0  0  0  0
  160.8250  206.3600  151.4000 O   0  0  0  0  0  0  0  0  0  0  0  0
  160.8280  206.8480  153.5080 C   0  0  0  0  0  0  0  0  0  0  0  0
  160.9180  207.6320  154.7010 N   0  0  0  0  0  0  0  0  0  0  0  0
  160.6060  205.3740  153.4850 C   0  0  0  0  0  2  0  0  0  0  0  0
  161.2020  209.0540  154.7030 C   0  0  0  0  0  2  0  0  0  0  0  0
  160.7550  207.0790  156.0290 C   0  0  0  0  0  2  0  0  0  0  0  0
  160.8180  208.2660  156.9760 C   0  0  0  0  0  2  0  0  0  0  0  0
  160.9410  207.3560  152.3330 N   0  0  0  0  0  0  0  0  0  0  0  0
  2  5  2  0  0  0  0
  4  7  1  0  0  0  0
  4  1  1  1  0  0  0
  4  8  1  0  0  0  0
  5 11  1  0  0  0  0
  6  2  1  0  0  0  0
  7  3  1  6  0  0  0
  7  8  1  0  0  0  0
  8  6  1  6  0  0  0
  8  9  1  0  0  0  0
  9  5  1  0  0  0  0
  9 10  1  6  0  0  0
 12 13  1  1  0  0  0
 12 15  1  0  0  0  0
 14 22  1  6  0  0  0
 14 12  1  0  0  0  0
 14 16  1  0  0  0  0
 15 11  1  6  0  0  0
 15 17  1  0  0  0  0
 15 24  1  0  0  0  0
 16 13  1  1  0  0  0
 16 17  1  0  0  0  0
 18 20  1  0  0  0  0
 18 21  2  0  0  0  0
 20 23  2  0  0  0  0
 21 22  1  0  0  0  0
 22 19  2  0  0  0  0
 23 19  1  0  0  0  0
 24 26  1  0  0  0  0
 26 25  2  0  0  0  0
 27  1  1  0  0  0  0
 28 27  1  0  0  0  0
 29 32  1  0  0  0  0
 29 28  1  0  0  0  0
 30 33  1  1  0  0  0
 31 32  1  0  0  0  0
 31 30  1  0  0  0  0
 32 30  1  0  0  0  0
 34 38  1  6  0  0  0
 34 43  1  0  0  0  0
 34 35  1  0  0  0  0
 36 33  1  6  0  0  0
 36 39  1  0  0  0  0
 36 38  1  0  0  0  0
 37 40  1  0  0  0  0
 39 41  1  1  0  0  0
 40 36  1  0  0  0  0
 40 39  1  0  0  0  0
 41 35  1  0  0  0  0
 42 50  1  0  0  0  0
 43 47  1  1  0  0  0
 44 43  1  0  0  0  0
 44 51  1  0  0  0  0
 45 46  1  0  0  0  0
 46 48  1  0  0  0  0
 46 49  1  0  0  0  0
 47 45  1  0  0  0  0
 48 42  1  0  0  0  0
 49 50  1  0  0  0  0
 51 45  2  0  0  0  0
M  END
>  <MODEL>
8

>  <REMARK>
 VINA RESULT:      -3.7      1.657      4.917
  Name = 
  13 active torsions:
  status: ('A' for Active; 'I' for Inactive)
    1  A    between atoms: N_5  and  C_11
    2  A    between atoms: C_7  and  O_43
    3  A    between atoms: C_10  and  O_22
    4  A    between atoms: C_12  and  O_45
    5  A    between atoms: C_17  and  O_45
    6  A    between atoms: C_18  and  N_29
    7  A    between atoms: C_18  and  C_34
    8  A    between atoms: O_21  and  C_26
    9  A    between atoms: O_21  and  C_28
   10  A    between atoms: O_22  and  C_28
   11  A    between atoms: C_27  and  C_36
   12  A    between atoms: C_30  and  C_34
   13  A    between atoms: C_30  and  O_43
                            x       y       z     vdW  Elec       q    Type
                         _______ _______ _______ _____ _____    ______ ____

>  <TORSDO>
F 13

$$$$
