=
 OpenBabel11072415133D

 39 43  0  0  1  0  0  0  0  0999 V2000
  162.1260  208.7230  148.9930 C   0  0  0  0  0  3  0  0  0  0  0  0
  161.4340  209.2620  151.2550 C   0  0  0  0  0  0  0  0  0  0  0  0
  161.3200  210.6090  150.8940 C   0  0  0  0  0  3  0  0  0  0  0  0
  161.8470  208.3240  150.2990 C   0  0  0  0  0  3  0  0  0  0  0  0
  161.6120  211.0140  149.5820 C   0  0  0  0  0  0  0  0  0  0  0  0
  162.0140  210.0690  148.6330 C   0  0  0  0  0  3  0  0  0  0  0  0
  161.1210  208.8300  152.6580 C   0  0  0  0  0  2  0  0  0  0  0  0
  160.7270  206.3950  152.8100 C   0  0  1  0  0  3  0  0  0  0  0  0
  161.0910  206.8990  154.1920 C   0  0  0  0  0  2  0  0  0  0  0  0
  161.7570  207.4860  152.9700 C   0  0  2  0  0  3  0  0  0  0  0  0
  161.4200  205.0640  152.5490 C   0  0  0  0  0  2  0  0  0  0  0  0
  160.6290  204.2750  151.5130 C   0  0  0  0  0  2  0  0  0  0  0  0
  160.8380  203.7870  149.2280 C   0  0  0  0  0  3  0  0  0  0  0  0
  161.4130  204.1090  150.3270 N   0  0  0  0  0  0  0  0  0  0  0  0
  163.1590  204.2270  145.4760 O   0  0  0  0  0  1  0  0  0  0  0  0
  161.6210  203.6100  147.9590 C   0  0  2  0  0  3  0  0  0  0  0  0
  162.0190  206.0040  147.3200 C   0  0  0  0  0  1  0  0  0  0  0  0
  161.3100  202.7280  145.4960 C   0  0  1  0  0  3  0  0  0  0  0  0
  161.7660  204.1800  145.5910 C   0  0  1  0  0  3  0  0  0  0  0  0
  161.3290  204.7000  146.9480 C   0  0  1  0  0  3  0  0  0  0  0  0
  161.2340  202.0120  147.1740 S   0  0  0  0  0  0  0  0  0  0  0  0
  159.4380  201.3620  144.9340 O   0  0  0  0  0  1  0  0  0  0  0  0
  159.9330  202.6620  144.8680 C   0  0  0  0  0  2  0  0  0  0  0  0
  161.5440  212.4590  149.1880 C   0  0  1  0  0  3  0  0  0  0  0  0
  161.1960  214.0850  144.1470 C   0  0  1  0  0  3  0  0  0  0  0  0
  160.1620  213.2370  144.5340 C   0  0  1  0  0  0  0  0  0  0  0  0
  161.7690  213.3950  146.8460 C   0  0  0  0  0  0  0  0  0  0  0  0
  161.9320  212.2030  142.4850 C   0  0  1  0  0  3  0  0  0  0  0  0
  161.0790  212.6050  147.8140 N   0  0  0  0  0  2  0  0  0  0  0  0
  160.1880  211.8300  144.1260 N   0  0  0  0  0  2  0  0  0  0  0  0
  161.2160  213.5320  145.5450 N   0  0  0  0  0  0  0  0  0  0  0  0
  160.4780  211.7910  142.6980 C   0  0  0  0  0  2  0  0  0  0  0  0
  162.8140  214.0230  147.1520 O   0  0  0  0  0  0  0  0  0  0  0  0
  162.1810  212.4500  141.0110 C   0  0  0  0  0  1  0  0  0  0  0  0
  162.3210  213.4440  143.3080 C   0  0  0  0  0  2  0  0  0  0  0  0
  158.8190  213.8450  144.8790 C   0  0  0  0  0  2  0  0  0  0  0  0
  158.2950  213.2350  146.0210 O   0  0  0  0  0  1  0  0  0  0  0  0
  159.3990  213.4590  149.4810 O   0  0  0  0  0  1  0  0  0  0  0  0
  160.6180  213.2170  150.1240 C   0  0  0  0  0  2  0  0  0  0  0  0
  1  4  1  0  0  0  0
  2  7  1  0  0  0  0
  3  2  1  0  0  0  0
  4  2  2  0  0  0  0
  5  3  2  0  0  0  0
  6  1  2  0  0  0  0
  6  5  1  0  0  0  0
  8 11  1  1  0  0  0
  8 10  1  0  0  0  0
  8  9  1  0  0  0  0
 10  7  1  6  0  0  0
 10  9  1  0  0  0  0
 12 11  1  0  0  0  0
 13 14  2  0  0  0  0
 14 12  1  0  0  0  0
 16 13  1  1  0  0  0
 18 23  1  1  0  0  0
 18 19  1  0  0  0  0
 18 21  1  0  0  0  0
 19 15  1  1  0  0  0
 19 20  1  0  0  0  0
 20 17  1  1  0  0  0
 20 16  1  0  0  0  0
 21 16  1  0  0  0  0
 23 22  1  0  0  0  0
 24  5  1  0  0  0  0
 24 39  1  1  0  0  0
 25 35  1  6  0  0  0
 25 26  1  0  0  0  0
 25 31  1  0  0  0  0
 26 36  1  1  0  0  0
 26 31  1  0  0  0  0
 27 33  2  0  0  0  0
 27 29  1  0  0  0  0
 28 34  1  6  0  0  0
 28 32  1  0  0  0  0
 28 35  1  0  0  0  0
 29 24  1  0  0  0  0
 30 26  1  0  0  0  0
 31 27  1  0  0  0  0
 32 30  1  0  0  0  0
 36 37  1  0  0  0  0
 38 39  1  0  0  0  0
M  END
>  <MODEL>
1

>  <REMARK>
 VINA RESULT:      -7.3      0.000      0.000
  Name = 
  11 active torsions:
  status: ('A' for Active; 'I' for Inactive)
    1  A    between atoms: C_1  and  C_11
    2  A    between atoms: C_1  and  C_29
    3  A    between atoms: C_2  and  C_21
    4  A    between atoms: C_4  and  C_19
    5  A    between atoms: C_6  and  C_9
    6  A    between atoms: N_7  and  C_35
    7  A    between atoms: C_13  and  C_32
    8  A    between atoms: N_16  and  CA_17
    9  A    between atoms: CA_17  and  C_31
   10  A    between atoms: CA_17  and  C_36
   11  A    between atoms: C_21  and  C_35
                            x       y       z     vdW  Elec       q    Type
                         _______ _______ _______ _____ _____    ______ ____

>  <TORSDO>
F 11

$$$$
=
 OpenBabel11072415133D

 39 43  0  0  1  0  0  0  0  0999 V2000
  161.4590  206.2920  146.8700 C   0  0  0  0  0  3  0  0  0  0  0  0
  161.2070  205.5010  149.1500 C   0  0  0  0  0  0  0  0  0  0  0  0
  161.4840  206.7890  149.6220 C   0  0  0  0  0  3  0  0  0  0  0  0
  161.2040  205.2580  147.7700 C   0  0  0  0  0  3  0  0  0  0  0  0
  161.7520  207.8290  148.7180 C   0  0  0  0  0  0  0  0  0  0  0  0
  161.7380  207.5770  147.3420 C   0  0  0  0  0  3  0  0  0  0  0  0
  160.9200  204.3910  150.1180 C   0  0  0  0  0  2  0  0  0  0  0  0
  161.9880  204.9150  152.2840 C   0  0  1  0  0  3  0  0  0  0  0  0
  160.9510  203.8350  152.5220 C   0  0  0  0  0  2  0  0  0  0  0  0
  160.6880  204.9340  151.5180 C   0  0  2  0  0  3  0  0  0  0  0  0
  161.9370  205.9340  153.4150 C   0  0  0  0  0  2  0  0  0  0  0  0
  160.6900  206.7960  153.2640 C   0  0  0  0  0  2  0  0  0  0  0  0
  159.7420  208.1970  154.8910 C   0  0  0  0  0  3  0  0  0  0  0  0
  160.7570  207.9080  154.1630 N   0  0  0  0  0  0  0  0  0  0  0  0
  159.4390  212.0850  156.9990 O   0  0  0  0  0  1  0  0  0  0  0  0
  159.7720  209.3480  155.8530 C   0  0  2  0  0  3  0  0  0  0  0  0
  158.7890  211.1680  154.4300 C   0  0  0  0  0  1  0  0  0  0  0  0
  161.4970  210.8950  157.1050 C   0  0  1  0  0  3  0  0  0  0  0  0
  160.5100  211.6450  156.2160 C   0  0  1  0  0  3  0  0  0  0  0  0
  160.0300  210.6700  155.1580 C   0  0  1  0  0  3  0  0  0  0  0  0
  161.0770  209.1190  157.1020 S   0  0  0  0  0  0  0  0  0  0  0  0
  163.7840  210.2340  157.2540 O   0  0  0  0  0  1  0  0  0  0  0  0
  162.9050  211.0710  156.5720 C   0  0  0  0  0  2  0  0  0  0  0  0
  162.1000  209.2030  149.2040 C   0  0  1  0  0  3  0  0  0  0  0  0
  161.2080  213.7170  146.5570 C   0  0  1  0  0  3  0  0  0  0  0  0
  160.1040  212.8700  146.6070 C   0  0  1  0  0  0  0  0  0  0  0  0
  162.0950  211.4190  147.9800 C   0  0  0  0  0  0  0  0  0  0  0  0
  161.2180  213.3230  143.9700 C   0  0  1  0  0  3  0  0  0  0  0  0
  161.4380  210.2240  148.4020 N   0  0  0  0  0  2  0  0  0  0  0  0
  159.7570  212.0620  145.4360 N   0  0  0  0  0  2  0  0  0  0  0  0
  161.3600  212.3910  147.2490 N   0  0  0  0  0  0  0  0  0  0  0  0
  159.7720  212.9410  144.2740 C   0  0  0  0  0  2  0  0  0  0  0  0
  163.2870  211.6500  148.3040 O   0  0  0  0  0  0  0  0  0  0  0  0
  161.2450  214.4520  142.9600 C   0  0  0  0  0  1  0  0  0  0  0  0
  162.0020  213.7180  145.2340 C   0  0  0  0  0  2  0  0  0  0  0  0
  159.0050  213.1740  147.6030 C   0  0  0  0  0  2  0  0  0  0  0  0
  158.2120  214.2250  147.1380 O   0  0  0  0  0  1  0  0  0  0  0  0
  162.5320  210.3110  151.2710 O   0  0  0  0  0  1  0  0  0  0  0  0
  161.7040  209.3620  150.6610 C   0  0  0  0  0  2  0  0  0  0  0  0
  1  6  2  0  0  0  0
  1  4  1  0  0  0  0
  2  3  1  0  0  0  0
  2  7  1  0  0  0  0
  4  2  2  0  0  0  0
  5 24  1  0  0  0  0
  5  3  2  0  0  0  0
  6  5  1  0  0  0  0
  8  9  1  0  0  0  0
  8 11  1  1  0  0  0
 10  7  1  6  0  0  0
 10  8  1  0  0  0  0
 10  9  1  0  0  0  0
 12 11  1  0  0  0  0
 12 14  1  0  0  0  0
 14 13  2  0  0  0  0
 16 13  1  6  0  0  0
 16 21  1  0  0  0  0
 18 23  1  6  0  0  0
 19 15  1  1  0  0  0
 19 18  1  0  0  0  0
 20 17  1  1  0  0  0
 20 16  1  0  0  0  0
 20 19  1  0  0  0  0
 21 18  1  0  0  0  0
 23 22  1  0  0  0  0
 24 39  1  1  0  0  0
 25 35  1  6  0  0  0
 25 26  1  0  0  0  0
 25 31  1  0  0  0  0
 26 31  1  0  0  0  0
 26 36  1  1  0  0  0
 27 33  2  0  0  0  0
 27 29  1  0  0  0  0
 28 34  1  6  0  0  0
 28 32  1  0  0  0  0
 28 35  1  0  0  0  0
 29 24  1  0  0  0  0
 30 26  1  0  0  0  0
 31 27  1  0  0  0  0
 32 30  1  0  0  0  0
 37 36  1  0  0  0  0
 39 38  1  0  0  0  0
M  END
>  <MODEL>
2

>  <REMARK>
 VINA RESULT:      -6.3      3.622      6.848
  Name = 
  11 active torsions:
  status: ('A' for Active; 'I' for Inactive)
    1  A    between atoms: C_1  and  C_11
    2  A    between atoms: C_1  and  C_29
    3  A    between atoms: C_2  and  C_21
    4  A    between atoms: C_4  and  C_19
    5  A    between atoms: C_6  and  C_9
    6  A    between atoms: N_7  and  C_35
    7  A    between atoms: C_13  and  C_32
    8  A    between atoms: N_16  and  CA_17
    9  A    between atoms: CA_17  and  C_31
   10  A    between atoms: CA_17  and  C_36
   11  A    between atoms: C_21  and  C_35
                            x       y       z     vdW  Elec       q    Type
                         _______ _______ _______ _____ _____    ______ ____

>  <TORSDO>
F 11

$$$$
=
 OpenBabel11072415133D

 39 43  0  0  1  0  0  0  0  0999 V2000
  162.2440  209.9530  151.3450 C   0  0  0  0  0  3  0  0  0  0  0  0
  161.0770  207.8540  151.6920 C   0  0  0  0  0  0  0  0  0  0  0  0
  160.8430  208.2100  153.0240 C   0  0  0  0  0  3  0  0  0  0  0  0
  161.7860  208.7290  150.8580 C   0  0  0  0  0  3  0  0  0  0  0  0
  161.3130  209.4380  153.5190 C   0  0  0  0  0  0  0  0  0  0  0  0
  162.0120  210.3070  152.6770 C   0  0  0  0  0  3  0  0  0  0  0  0
  160.5730  206.5430  151.1640 C   0  0  0  0  0  2  0  0  0  0  0  0
  160.6580  204.1830  151.8930 C   0  0  1  0  0  3  0  0  0  0  0  0
  161.2100  205.0400  153.0140 C   0  0  0  0  0  2  0  0  0  0  0  0
  161.4890  205.4020  151.5740 C   0  0  2  0  0  3  0  0  0  0  0  0
  161.5060  202.9260  151.7420 C   0  0  0  0  0  2  0  0  0  0  0  0
  160.9840  202.1000  150.5730 C   0  0  0  0  0  2  0  0  0  0  0  0
  161.0680  203.4340  148.6450 C   0  0  0  0  0  3  0  0  0  0  0  0
  161.6150  202.5220  149.3600 N   0  0  0  0  0  0  0  0  0  0  0  0
  162.9120  205.7060  145.3150 O   0  0  0  0  0  1  0  0  0  0  0  0
  161.6990  203.9130  147.3710 C   0  0  2  0  0  3  0  0  0  0  0  0
  161.9460  206.3610  147.8640 C   0  0  0  0  0  1  0  0  0  0  0  0
  161.1260  204.2140  144.8170 C   0  0  1  0  0  3  0  0  0  0  0  0
  161.5450  205.5000  145.5230 C   0  0  1  0  0  3  0  0  0  0  0  0
  161.2570  205.3140  147.0010 C   0  0  1  0  0  3  0  0  0  0  0  0
  161.2710  202.8150  145.9810 S   0  0  0  0  0  0  0  0  0  0  0  0
  159.1390  203.0590  144.1800 O   0  0  0  0  0  1  0  0  0  0  0  0
  159.6860  204.3270  144.3580 C   0  0  0  0  0  2  0  0  0  0  0  0
  161.1170  209.8150  154.9570 C   0  0  1  0  0  3  0  0  0  0  0  0
  156.8110  212.9080  154.6800 C   0  0  1  0  0  3  0  0  0  0  0  0
  157.9460  213.5680  155.1420 C   0  0  1  0  0  0  0  0  0  0  0  0
  158.8520  210.9270  154.7450 C   0  0  0  0  0  0  0  0  0  0  0  0
  155.7770  213.3170  157.0480 C   0  0  1  0  0  3  0  0  0  0  0  0
  160.2400  210.9730  155.0770 N   0  0  0  0  0  2  0  0  0  0  0  0
  158.0980  213.8310  156.5750 N   0  0  0  0  0  2  0  0  0  0  0  0
  158.0800  212.1170  154.8350 N   0  0  0  0  0  0  0  0  0  0  0  0
  156.8470  214.4050  157.0530 C   0  0  0  0  0  2  0  0  0  0  0  0
  158.3270  209.8720  154.3090 O   0  0  0  0  0  0  0  0  0  0  0  0
  154.4140  213.9410  157.2610 C   0  0  0  0  0  1  0  0  0  0  0  0
  155.7880  212.4840  155.7540 C   0  0  0  0  0  2  0  0  0  0  0  0
  158.7100  214.4530  154.1800 C   0  0  0  0  0  2  0  0  0  0  0  0
  158.3140  214.1890  152.8670 O   0  0  0  0  0  1  0  0  0  0  0  0
  160.4460  208.9840  157.0890 O   0  0  0  0  0  1  0  0  0  0  0  0
  160.5330  208.6480  155.7330 C   0  0  0  0  0  2  0  0  0  0  0  0
  1  6  1  0  0  0  0
  2  3  2  0  0  0  0
  3  5  1  0  0  0  0
  4  1  2  0  0  0  0
  4  2  1  0  0  0  0
  5 24  1  0  0  0  0
  6  5  2  0  0  0  0
  7  2  1  0  0  0  0
  8 11  1  1  0  0  0
  8  9  1  0  0  0  0
 10  7  1  6  0  0  0
 10  8  1  0  0  0  0
 10  9  1  0  0  0  0
 12 11  1  0  0  0  0
 13 14  2  0  0  0  0
 14 12  1  0  0  0  0
 16 13  1  1  0  0  0
 18 23  1  1  0  0  0
 18 19  1  0  0  0  0
 18 21  1  0  0  0  0
 19 15  1  1  0  0  0
 19 20  1  0  0  0  0
 20 16  1  0  0  0  0
 20 17  1  1  0  0  0
 21 16  1  0  0  0  0
 22 23  1  0  0  0  0
 24 29  1  0  0  0  0
 24 39  1  1  0  0  0
 25 31  1  0  0  0  0
 25 26  1  0  0  0  0
 25 35  1  1  0  0  0
 26 36  1  6  0  0  0
 26 30  1  0  0  0  0
 27 31  1  0  0  0  0
 27 29  1  0  0  0  0
 28 32  1  0  0  0  0
 28 34  1  6  0  0  0
 30 32  1  0  0  0  0
 31 26  1  0  0  0  0
 33 27  2  0  0  0  0
 35 28  1  0  0  0  0
 37 36  1  0  0  0  0
 39 38  1  0  0  0  0
M  END
>  <MODEL>
3

>  <REMARK>
 VINA RESULT:      -5.9      4.880      7.429
  Name = 
  11 active torsions:
  status: ('A' for Active; 'I' for Inactive)
    1  A    between atoms: C_1  and  C_11
    2  A    between atoms: C_1  and  C_29
    3  A    between atoms: C_2  and  C_21
    4  A    between atoms: C_4  and  C_19
    5  A    between atoms: C_6  and  C_9
    6  A    between atoms: N_7  and  C_35
    7  A    between atoms: C_13  and  C_32
    8  A    between atoms: N_16  and  CA_17
    9  A    between atoms: CA_17  and  C_31
   10  A    between atoms: CA_17  and  C_36
   11  A    between atoms: C_21  and  C_35
                            x       y       z     vdW  Elec       q    Type
                         _______ _______ _______ _____ _____    ______ ____

>  <TORSDO>
F 11

$$$$
=
 OpenBabel11072415133D

 39 43  0  0  1  0  0  0  0  0999 V2000
  160.8910  204.9120  152.7090 C   0  0  0  0  0  3  0  0  0  0  0  0
  161.9570  206.7800  151.5840 C   0  0  0  0  0  0  0  0  0  0  0  0
  161.9140  207.5140  152.7740 C   0  0  0  0  0  3  0  0  0  0  0  0
  161.4350  205.4790  151.5570 C   0  0  0  0  0  3  0  0  0  0  0  0
  161.3570  206.9480  153.9330 C   0  0  0  0  0  0  0  0  0  0  0  0
  160.8470  205.6470  153.8970 C   0  0  0  0  0  3  0  0  0  0  0  0
  162.5540  207.3850  150.3480 C   0  0  0  0  0  2  0  0  0  0  0  0
  162.0120  207.4040  147.9370 C   0  0  1  0  0  3  0  0  0  0  0  0
  161.9530  208.8320  148.4420 C   0  0  0  0  0  2  0  0  0  0  0  0
  161.4800  207.6950  149.3190 C   0  0  2  0  0  3  0  0  0  0  0  0
  160.8540  207.1500  146.9810 C   0  0  0  0  0  2  0  0  0  0  0  0
  161.3230  206.2510  145.8430 C   0  0  0  0  0  2  0  0  0  0  0  0
  161.1280  203.9130  145.8900 C   0  0  0  0  0  3  0  0  0  0  0  0
  161.6880  204.9660  146.3590 N   0  0  0  0  0  0  0  0  0  0  0  0
  161.5790  199.5780  146.6970 O   0  0  0  0  0  1  0  0  0  0  0  0
  161.4860  202.5460  146.3950 C   0  0  2  0  0  3  0  0  0  0  0  0
  160.0880  201.1100  144.8840 C   0  0  0  0  0  1  0  0  0  0  0  0
  161.1950  201.0390  148.5350 C   0  0  1  0  0  3  0  0  0  0  0  0
  160.6250  200.4320  147.2570 C   0  0  1  0  0  3  0  0  0  0  0  0
  160.3220  201.5800  146.3130 C   0  0  1  0  0  3  0  0  0  0  0  0
  162.0230  202.6150  148.1340 S   0  0  0  0  0  0  0  0  0  0  0  0
  160.1960  202.5890  150.0480 O   0  0  0  0  0  1  0  0  0  0  0  0
  160.0740  201.3060  149.5200 C   0  0  0  0  0  2  0  0  0  0  0  0
  161.2570  207.7360  155.2040 C   0  0  1  0  0  3  0  0  0  0  0  0
  159.7150  212.7470  154.3670 C   0  0  1  0  0  3  0  0  0  0  0  0
  158.6660  211.8790  154.6610 C   0  0  1  0  0  0  0  0  0  0  0  0
  160.9250  210.1910  154.6790 C   0  0  0  0  0  0  0  0  0  0  0  0
  158.6360  213.0290  152.0010 C   0  0  1  0  0  3  0  0  0  0  0  0
  160.4070  208.9070  155.0270 N   0  0  0  0  0  2  0  0  0  0  0  0
  157.8090  211.3870  153.5800 N   0  0  0  0  0  2  0  0  0  0  0  0
  160.0330  211.2930  154.5840 N   0  0  0  0  0  0  0  0  0  0  0  0
  157.4150  212.5350  152.7730 C   0  0  0  0  0  2  0  0  0  0  0  0
  162.1590  210.3690  154.5260 O   0  0  0  0  0  0  0  0  0  0  0  0
  158.3350  214.3790  151.3830 C   0  0  0  0  0  1  0  0  0  0  0  0
  159.8960  213.1120  152.8800 C   0  0  0  0  0  2  0  0  0  0  0  0
  158.0970  211.8820  156.0640 C   0  0  0  0  0  2  0  0  0  0  0  0
  156.8150  211.3290  156.0640 O   0  0  0  0  0  1  0  0  0  0  0  0
  159.3340  207.1090  156.4670 O   0  0  0  0  0  1  0  0  0  0  0  0
  160.7040  206.8670  156.3190 C   0  0  0  0  0  2  0  0  0  0  0  0
  1  6  1  0  0  0  0
  2  3  2  0  0  0  0
  3  5  1  0  0  0  0
  4  2  1  0  0  0  0
  4  1  2  0  0  0  0
  5 24  1  0  0  0  0
  6  5  2  0  0  0  0
  7  2  1  0  0  0  0
  8 11  1  6  0  0  0
  8  9  1  0  0  0  0
  8 10  1  0  0  0  0
  9 10  1  0  0  0  0
 10  7  1  1  0  0  0
 12 14  1  0  0  0  0
 12 11  1  0  0  0  0
 13 14  2  0  0  0  0
 16 13  1  1  0  0  0
 16 21  1  0  0  0  0
 18 23  1  1  0  0  0
 19 15  1  6  0  0  0
 19 18  1  0  0  0  0
 20 17  1  6  0  0  0
 20 16  1  0  0  0  0
 20 19  1  0  0  0  0
 21 18  1  0  0  0  0
 23 22  1  0  0  0  0
 24 39  1  1  0  0  0
 25 35  1  6  0  0  0
 25 31  1  0  0  0  0
 25 26  1  0  0  0  0
 26 36  1  1  0  0  0
 27 29  1  0  0  0  0
 28 34  1  1  0  0  0
 28 32  1  0  0  0  0
 28 35  1  0  0  0  0
 29 24  1  0  0  0  0
 30 26  1  0  0  0  0
 31 26  1  0  0  0  0
 31 27  1  0  0  0  0
 32 30  1  0  0  0  0
 33 27  2  0  0  0  0
 36 37  1  0  0  0  0
 39 38  1  0  0  0  0
M  END
>  <MODEL>
4

>  <REMARK>
 VINA RESULT:      -5.8      4.680      7.149
  Name = 
  11 active torsions:
  status: ('A' for Active; 'I' for Inactive)
    1  A    between atoms: C_1  and  C_11
    2  A    between atoms: C_1  and  C_29
    3  A    between atoms: C_2  and  C_21
    4  A    between atoms: C_4  and  C_19
    5  A    between atoms: C_6  and  C_9
    6  A    between atoms: N_7  and  C_35
    7  A    between atoms: C_13  and  C_32
    8  A    between atoms: N_16  and  CA_17
    9  A    between atoms: CA_17  and  C_31
   10  A    between atoms: CA_17  and  C_36
   11  A    between atoms: C_21  and  C_35
                            x       y       z     vdW  Elec       q    Type
                         _______ _______ _______ _____ _____    ______ ____

>  <TORSDO>
F 11

$$$$
=
 OpenBabel11072415133D

 39 43  0  0  1  0  0  0  0  0999 V2000
  160.6750  206.3580  149.4600 C   0  0  0  0  0  3  0  0  0  0  0  0
  161.8400  208.4690  149.1870 C   0  0  0  0  0  0  0  0  0  0  0  0
  162.0700  208.5140  150.5660 C   0  0  0  0  0  3  0  0  0  0  0  0
  161.1330  207.3890  148.6410 C   0  0  0  0  0  3  0  0  0  0  0  0
  161.6000  207.4830  151.3940 C   0  0  0  0  0  0  0  0  0  0  0  0
  160.9030  206.4050  150.8380 C   0  0  0  0  0  3  0  0  0  0  0  0
  162.3450  209.5720  148.3030 C   0  0  0  0  0  2  0  0  0  0  0  0
  161.5640  211.8320  147.6790 C   0  0  1  0  0  3  0  0  0  0  0  0
  162.9120  211.9720  148.3580 C   0  0  0  0  0  2  0  0  0  0  0  0
  161.9250  210.9320  148.8350 C   0  0  2  0  0  3  0  0  0  0  0  0
  160.6310  212.9380  148.1560 C   0  0  0  0  0  2  0  0  0  0  0  0
  159.6980  213.3390  147.0210 C   0  0  0  0  0  2  0  0  0  0  0  0
  160.3030  213.4380  144.7560 C   0  0  0  0  0  3  0  0  0  0  0  0
  160.1220  212.7200  145.8020 N   0  0  0  0  0  0  0  0  0  0  0  0
  162.4960  212.0020  141.1820 O   0  0  0  0  0  1  0  0  0  0  0  0
  160.7550  212.8330  143.4600 C   0  0  2  0  0  3  0  0  0  0  0  0
  163.1860  213.4570  143.4770 C   0  0  0  0  0  1  0  0  0  0  0  0
  160.4250  213.1290  140.8630 C   0  0  1  0  0  3  0  0  0  0  0  0
  161.8720  213.2440  141.3300 C   0  0  1  0  0  3  0  0  0  0  0  0
  161.8410  213.6500  142.7910 C   0  0  1  0  0  3  0  0  0  0  0  0
  159.3680  212.6950  142.2870 S   0  0  0  0  0  0  0  0  0  0  0  0
  158.5820  214.4420  140.1090 O   0  0  0  0  0  1  0  0  0  0  0  0
  159.9630  214.4530  140.2910 C   0  0  0  0  0  2  0  0  0  0  0  0
  161.7930  207.5380  152.8790 C   0  0  1  0  0  3  0  0  0  0  0  0
  159.8560  212.1170  154.7380 C   0  0  1  0  0  3  0  0  0  0  0  0
  159.0250  211.0230  154.9670 C   0  0  1  0  0  0  0  0  0  0  0  0
  161.1940  209.9030  153.5560 C   0  0  0  0  0  0  0  0  0  0  0  0
  157.9670  213.0520  153.1880 C   0  0  1  0  0  3  0  0  0  0  0  0
  160.8930  208.5090  153.4880 N   0  0  0  0  0  2  0  0  0  0  0  0
  157.8480  210.8170  154.1190 N   0  0  0  0  0  2  0  0  0  0  0  0
  160.2880  210.7740  154.2190 N   0  0  0  0  0  0  0  0  0  0  0  0
  157.1390  212.0880  154.0340 C   0  0  0  0  0  2  0  0  0  0  0  0
  162.2760  210.3520  153.1020 O   0  0  0  0  0  0  0  0  0  0  0  0
  157.4060  214.4530  153.3180 C   0  0  0  0  0  1  0  0  0  0  0  0
  159.4590  213.0360  153.5650 C   0  0  0  0  0  2  0  0  0  0  0  0
  159.0160  210.3980  156.3460 C   0  0  0  0  0  2  0  0  0  0  0  0
  160.3190  210.0840  156.7390 O   0  0  0  0  0  1  0  0  0  0  0  0
  160.5240  206.2480  154.4340 O   0  0  0  0  0  1  0  0  0  0  0  0
  161.5570  206.1680  153.4920 C   0  0  0  0  0  2  0  0  0  0  0  0
  1  6  1  0  0  0  0
  2  3  2  0  0  0  0
  3  5  1  0  0  0  0
  4  2  1  0  0  0  0
  4  1  2  0  0  0  0
  5 24  1  0  0  0  0
  6  5  2  0  0  0  0
  7  2  1  0  0  0  0
  8 11  1  1  0  0  0
  8  9  1  0  0  0  0
  8 10  1  0  0  0  0
  9 10  1  0  0  0  0
 10  7  1  6  0  0  0
 12 11  1  0  0  0  0
 13 14  2  0  0  0  0
 14 12  1  0  0  0  0
 16 13  1  1  0  0  0
 18 23  1  1  0  0  0
 18 19  1  0  0  0  0
 18 21  1  0  0  0  0
 19 15  1  1  0  0  0
 19 20  1  0  0  0  0
 20 16  1  0  0  0  0
 20 17  1  1  0  0  0
 21 16  1  0  0  0  0
 22 23  1  0  0  0  0
 24 29  1  0  0  0  0
 24 39  1  1  0  0  0
 25 35  1  6  0  0  0
 25 26  1  0  0  0  0
 26 36  1  1  0  0  0
 27 31  1  0  0  0  0
 28 34  1  1  0  0  0
 28 35  1  0  0  0  0
 28 32  1  0  0  0  0
 29 27  1  0  0  0  0
 30 26  1  0  0  0  0
 31 25  1  0  0  0  0
 31 26  1  0  0  0  0
 32 30  1  0  0  0  0
 33 27  2  0  0  0  0
 36 37  1  0  0  0  0
 39 38  1  0  0  0  0
M  END
>  <MODEL>
5

>  <REMARK>
 VINA RESULT:      -5.8      4.241      9.192
  Name = 
  11 active torsions:
  status: ('A' for Active; 'I' for Inactive)
    1  A    between atoms: C_1  and  C_11
    2  A    between atoms: C_1  and  C_29
    3  A    between atoms: C_2  and  C_21
    4  A    between atoms: C_4  and  C_19
    5  A    between atoms: C_6  and  C_9
    6  A    between atoms: N_7  and  C_35
    7  A    between atoms: C_13  and  C_32
    8  A    between atoms: N_16  and  CA_17
    9  A    between atoms: CA_17  and  C_31
   10  A    between atoms: CA_17  and  C_36
   11  A    between atoms: C_21  and  C_35
                            x       y       z     vdW  Elec       q    Type
                         _______ _______ _______ _____ _____    ______ ____

>  <TORSDO>
F 11

$$$$
=
 OpenBabel11072415133D

 39 43  0  0  1  0  0  0  0  0999 V2000
  160.8550  206.5170  153.8040 C   0  0  0  0  0  3  0  0  0  0  0  0
  161.2240  208.8190  153.1300 C   0  0  0  0  0  0  0  0  0  0  0  0
  161.6580  208.3760  151.8760 C   0  0  0  0  0  3  0  0  0  0  0  0
  160.8310  207.8810  154.0940 C   0  0  0  0  0  3  0  0  0  0  0  0
  161.6930  207.0030  151.5860 C   0  0  0  0  0  0  0  0  0  0  0  0
  161.2900  206.0760  152.5520 C   0  0  0  0  0  3  0  0  0  0  0  0
  161.1860  210.2870  153.4370 C   0  0  0  0  0  2  0  0  0  0  0  0
  159.6360  212.1680  153.0290 C   0  0  1  0  0  3  0  0  0  0  0  0
  159.7410  211.9630  154.5270 C   0  0  0  0  0  2  0  0  0  0  0  0
  159.7560  210.7740  153.5950 C   0  0  2  0  0  3  0  0  0  0  0  0
  158.1880  212.4490  152.6500 C   0  0  0  0  0  2  0  0  0  0  0  0
  158.1070  213.7750  151.9040 C   0  0  0  0  0  2  0  0  0  0  0  0
  158.5530  213.9320  149.6050 C   0  0  0  0  0  3  0  0  0  0  0  0
  159.0080  213.7620  150.7910 N   0  0  0  0  0  0  0  0  0  0  0  0
  160.4810  213.5470  145.6320 O   0  0  0  0  0  1  0  0  0  0  0  0
  159.4630  213.9330  148.4120 C   0  0  2  0  0  3  0  0  0  0  0  0
  157.9560  212.9220  146.6770 C   0  0  0  0  0  1  0  0  0  0  0  0
  161.6700  212.7840  147.5470 C   0  0  1  0  0  3  0  0  0  0  0  0
  160.4590  212.5810  146.6420 C   0  0  1  0  0  3  0  0  0  0  0  0
  159.2220  212.7440  147.5050 C   0  0  1  0  0  3  0  0  0  0  0  0
  161.2100  213.8890  148.9250 S   0  0  0  0  0  0  0  0  0  0  0  0
  161.9650  211.4410  149.4970 O   0  0  0  0  0  1  0  0  0  0  0  0
  162.1170  211.4510  148.1120 C   0  0  0  0  0  2  0  0  0  0  0  0
  162.2020  206.5060  150.2660 C   0  0  1  0  0  3  0  0  0  0  0  0
  159.8990  202.1380  148.3170 C   0  0  1  0  0  3  0  0  0  0  0  0
  160.7300  201.8940  149.4080 C   0  0  1  0  0  0  0  0  0  0  0  0
  160.9750  204.6760  149.0180 C   0  0  0  0  0  0  0  0  0  0  0  0
  161.5810  200.7270  146.8950 C   0  0  1  0  0  3  0  0  0  0  0  0
  161.8470  205.1070  150.0630 N   0  0  0  0  0  2  0  0  0  0  0  0
  162.0680  201.3410  149.1890 N   0  0  0  0  0  2  0  0  0  0  0  0
  160.6340  203.3000  148.9250 N   0  0  0  0  0  0  0  0  0  0  0  0
  161.9330  200.2050  148.2860 C   0  0  0  0  0  2  0  0  0  0  0  0
  160.4560  205.5050  148.2280 O   0  0  0  0  0  0  0  0  0  0  0  0
  161.1550  199.5730  146.0110 C   0  0  0  0  0  1  0  0  0  0  0  0
  160.4860  201.8070  146.9300 C   0  0  0  0  0  2  0  0  0  0  0  0
  160.0960  201.6870  150.7670 C   0  0  0  0  0  2  0  0  0  0  0  0
  160.8310  202.3580  151.7470 O   0  0  0  0  0  1  0  0  0  0  0  0
  162.6730  207.7280  148.2740 O   0  0  0  0  0  1  0  0  0  0  0  0
  161.6380  207.3460  149.1340 C   0  0  0  0  0  2  0  0  0  0  0  0
  1  4  1  0  0  0  0
  2  7  1  0  0  0  0
  2  4  2  0  0  0  0
  3  2  1  0  0  0  0
  5  3  2  0  0  0  0
  5  6  1  0  0  0  0
  6  1  2  0  0  0  0
  8 11  1  1  0  0  0
  8 10  1  0  0  0  0
  8  9  1  0  0  0  0
 10  7  1  6  0  0  0
 10  9  1  0  0  0  0
 12 11  1  0  0  0  0
 13 14  2  0  0  0  0
 14 12  1  0  0  0  0
 16 21  1  0  0  0  0
 16 13  1  1  0  0  0
 18 23  1  1  0  0  0
 18 21  1  0  0  0  0
 19 15  1  6  0  0  0
 19 20  1  0  0  0  0
 19 18  1  0  0  0  0
 20 17  1  6  0  0  0
 20 16  1  0  0  0  0
 23 22  1  0  0  0  0
 24 39  1  6  0  0  0
 24  5  1  0  0  0  0
 25 35  1  6  0  0  0
 25 31  1  0  0  0  0
 25 26  1  0  0  0  0
 26 36  1  1  0  0  0
 27 29  1  0  0  0  0
 28 34  1  6  0  0  0
 28 35  1  0  0  0  0
 28 32  1  0  0  0  0
 29 24  1  0  0  0  0
 30 26  1  0  0  0  0
 31 27  1  0  0  0  0
 31 26  1  0  0  0  0
 32 30  1  0  0  0  0
 33 27  2  0  0  0  0
 36 37  1  0  0  0  0
 38 39  1  0  0  0  0
M  END
>  <MODEL>
6

>  <REMARK>
 VINA RESULT:      -5.6      3.510      9.276
  Name = 
  11 active torsions:
  status: ('A' for Active; 'I' for Inactive)
    1  A    between atoms: C_1  and  C_11
    2  A    between atoms: C_1  and  C_29
    3  A    between atoms: C_2  and  C_21
    4  A    between atoms: C_4  and  C_19
    5  A    between atoms: C_6  and  C_9
    6  A    between atoms: N_7  and  C_35
    7  A    between atoms: C_13  and  C_32
    8  A    between atoms: N_16  and  CA_17
    9  A    between atoms: CA_17  and  C_31
   10  A    between atoms: CA_17  and  C_36
   11  A    between atoms: C_21  and  C_35
                            x       y       z     vdW  Elec       q    Type
                         _______ _______ _______ _____ _____    ______ ____

>  <TORSDO>
F 11

$$$$
=
 OpenBabel11072415133D

 39 43  0  0  1  0  0  0  0  0999 V2000
  161.2400  206.6840  154.5470 C   0  0  0  0  0  3  0  0  0  0  0  0
  160.9560  208.2030  152.6760 C   0  0  0  0  0  0  0  0  0  0  0  0
  160.7830  207.1090  151.8210 C   0  0  0  0  0  3  0  0  0  0  0  0
  161.1920  207.9820  154.0400 C   0  0  0  0  0  3  0  0  0  0  0  0
  160.8420  205.8010  152.3280 C   0  0  0  0  0  0  0  0  0  0  0  0
  161.0690  205.5920  153.6920 C   0  0  0  0  0  3  0  0  0  0  0  0
  160.8920  209.6000  152.1320 C   0  0  0  0  0  2  0  0  0  0  0  0
  160.0710  211.9020  152.4990 C   0  0  1  0  0  3  0  0  0  0  0  0
  160.8170  211.4660  153.7450 C   0  0  0  0  0  2  0  0  0  0  0  0
  159.9770  210.4720  152.9750 C   0  0  2  0  0  3  0  0  0  0  0  0
  158.8110  212.6610  152.8950 C   0  0  0  0  0  2  0  0  0  0  0  0
  158.1230  213.1900  151.6430 C   0  0  0  0  0  2  0  0  0  0  0  0
  158.6940  213.7040  149.4260 C   0  0  0  0  0  3  0  0  0  0  0  0
  159.0870  213.3760  150.6010 N   0  0  0  0  0  0  0  0  0  0  0  0
  160.9130  213.8840  145.5920 O   0  0  0  0  0  1  0  0  0  0  0  0
  159.6700  213.9180  148.3070 C   0  0  2  0  0  3  0  0  0  0  0  0
  158.4370  212.8470  146.4010 C   0  0  0  0  0  1  0  0  0  0  0  0
  162.0680  213.1440  147.5370 C   0  0  1  0  0  3  0  0  0  0  0  0
  160.9590  212.8490  146.5310 C   0  0  1  0  0  3  0  0  0  0  0  0
  159.6580  212.7790  147.3080 C   0  0  1  0  0  3  0  0  0  0  0  0
  161.3690  214.0710  148.9460 S   0  0  0  0  0  0  0  0  0  0  0  0
  162.0460  211.4730  149.2390 O   0  0  0  0  0  1  0  0  0  0  0  0
  162.6590  211.8450  148.0450 C   0  0  0  0  0  2  0  0  0  0  0  0
  160.7090  204.6150  151.4210 C   0  0  1  0  0  3  0  0  0  0  0  0
  162.1080  204.2240  146.3150 C   0  0  1  0  0  3  0  0  0  0  0  0
  161.8860  205.5330  146.7370 C   0  0  1  0  0  0  0  0  0  0  0  0
  161.3290  204.0080  149.0420 C   0  0  0  0  0  0  0  0  0  0  0  0
  160.0450  204.5300  144.7360 C   0  0  1  0  0  3  0  0  0  0  0  0
  161.0110  204.9770  150.0420 N   0  0  0  0  0  2  0  0  0  0  0  0
  160.6310  206.2030  146.3880 N   0  0  0  0  0  2  0  0  0  0  0  0
  161.6680  204.4490  147.7350 N   0  0  0  0  0  0  0  0  0  0  0  0
  160.4020  205.9960  144.9640 C   0  0  0  0  0  2  0  0  0  0  0  0
  161.3780  202.7840  149.3230 O   0  0  0  0  0  0  0  0  0  0  0  0
  160.0840  204.2210  143.2530 C   0  0  0  0  0  1  0  0  0  0  0  0
  160.9690  203.5700  145.5060 C   0  0  0  0  0  2  0  0  0  0  0  0
  163.0840  206.4030  147.0540 C   0  0  0  0  0  2  0  0  0  0  0  0
  162.7050  207.4560  147.8880 O   0  0  0  0  0  1  0  0  0  0  0  0
  160.9070  202.3170  152.0250 O   0  0  0  0  0  1  0  0  0  0  0  0
  161.6370  203.5010  151.8720 C   0  0  0  0  0  2  0  0  0  0  0  0
  2  4  2  0  0  0  0
  3  5  2  0  0  0  0
  3  2  1  0  0  0  0
  4  1  1  0  0  0  0
  5  6  1  0  0  0  0
  6  1  2  0  0  0  0
  7  2  1  0  0  0  0
  8 11  1  1  0  0  0
  8 10  1  0  0  0  0
  8  9  1  0  0  0  0
 10  7  1  6  0  0  0
 10  9  1  0  0  0  0
 12 11  1  0  0  0  0
 13 14  2  0  0  0  0
 14 12  1  0  0  0  0
 16 21  1  0  0  0  0
 16 13  1  1  0  0  0
 18 23  1  1  0  0  0
 18 21  1  0  0  0  0
 19 15  1  6  0  0  0
 19 20  1  0  0  0  0
 19 18  1  0  0  0  0
 20 17  1  6  0  0  0
 20 16  1  0  0  0  0
 23 22  1  0  0  0  0
 24 39  1  1  0  0  0
 24  5  1  0  0  0  0
 25 35  1  6  0  0  0
 25 26  1  0  0  0  0
 25 31  1  0  0  0  0
 26 36  1  1  0  0  0
 26 31  1  0  0  0  0
 27 33  2  0  0  0  0
 27 29  1  0  0  0  0
 28 34  1  6  0  0  0
 28 32  1  0  0  0  0
 28 35  1  0  0  0  0
 29 24  1  0  0  0  0
 30 26  1  0  0  0  0
 31 27  1  0  0  0  0
 32 30  1  0  0  0  0
 36 37  1  0  0  0  0
 39 38  1  0  0  0  0
M  END
>  <MODEL>
7

>  <REMARK>
 VINA RESULT:      -5.3      3.338      8.425
  Name = 
  11 active torsions:
  status: ('A' for Active; 'I' for Inactive)
    1  A    between atoms: C_1  and  C_11
    2  A    between atoms: C_1  and  C_29
    3  A    between atoms: C_2  and  C_21
    4  A    between atoms: C_4  and  C_19
    5  A    between atoms: C_6  and  C_9
    6  A    between atoms: N_7  and  C_35
    7  A    between atoms: C_13  and  C_32
    8  A    between atoms: N_16  and  CA_17
    9  A    between atoms: CA_17  and  C_31
   10  A    between atoms: CA_17  and  C_36
   11  A    between atoms: C_21  and  C_35
                            x       y       z     vdW  Elec       q    Type
                         _______ _______ _______ _____ _____    ______ ____

>  <TORSDO>
F 11

$$$$
=
 OpenBabel11072415133D

 39 43  0  0  1  0  0  0  0  0999 V2000
  160.9400  205.9480  153.8730 C   0  0  0  0  0  3  0  0  0  0  0  0
  160.5450  208.3030  154.3050 C   0  0  0  0  0  0  0  0  0  0  0  0
  161.2810  208.6310  153.1610 C   0  0  0  0  0  3  0  0  0  0  0  0
  160.3850  206.9570  154.6600 C   0  0  0  0  0  3  0  0  0  0  0  0
  161.8500  207.6170  152.3740 C   0  0  0  0  0  0  0  0  0  0  0  0
  161.6770  206.2770  152.7320 C   0  0  0  0  0  3  0  0  0  0  0  0
  159.9370  209.3880  155.1440 C   0  0  0  0  0  2  0  0  0  0  0  0
  158.7460  211.3820  154.2990 C   0  0  1  0  0  3  0  0  0  0  0  0
  159.4400  210.7180  153.1270 C   0  0  0  0  0  2  0  0  0  0  0  0
  160.1020  210.7470  154.4850 C   0  0  2  0  0  3  0  0  0  0  0  0
  158.8940  212.8940  154.1940 C   0  0  0  0  0  2  0  0  0  0  0  0
  157.8820  213.4340  153.1910 C   0  0  0  0  0  2  0  0  0  0  0  0
  158.1470  213.5500  150.8620 C   0  0  0  0  0  3  0  0  0  0  0  0
  158.5620  213.9050  152.0220 N   0  0  0  0  0  0  0  0  0  0  0  0
  159.4550  214.4530  146.7240 O   0  0  0  0  0  1  0  0  0  0  0  0
  158.8240  214.0260  149.6100 C   0  0  2  0  0  3  0  0  0  0  0  0
  157.3780  212.9530  147.8620 C   0  0  0  0  0  1  0  0  0  0  0  0
  161.0880  213.7320  148.2970 C   0  0  1  0  0  3  0  0  0  0  0  0
  159.8450  213.3560  147.4980 C   0  0  1  0  0  3  0  0  0  0  0  0
  158.7600  213.0010  148.4970 C   0  0  1  0  0  3  0  0  0  0  0  0
  160.5810  214.3940  149.9200 S   0  0  0  0  0  0  0  0  0  0  0  0
  162.9880  212.4800  147.5820 O   0  0  0  0  0  1  0  0  0  0  0  0
  161.9510  212.5050  148.5110 C   0  0  0  0  0  2  0  0  0  0  0  0
  162.6840  207.9490  151.1740 C   0  0  1  0  0  3  0  0  0  0  0  0
  160.4770  205.3400  147.1110 C   0  0  1  0  0  3  0  0  0  0  0  0
  161.6550  204.7600  147.5760 C   0  0  1  0  0  0  0  0  0  0  0  0
  161.3690  207.0410  149.2100 C   0  0  0  0  0  0  0  0  0  0  0  0
  161.7530  205.8050  144.8750 C   0  0  1  0  0  3  0  0  0  0  0  0
  162.4760  206.9770  150.1080 N   0  0  0  0  0  2  0  0  0  0  0  0
  162.9010  204.9560  146.8320 N   0  0  0  0  0  2  0  0  0  0  0  0
  161.2090  206.0190  148.2360 N   0  0  0  0  0  0  0  0  0  0  0  0
  162.6240  204.6810  145.4280 C   0  0  0  0  0  2  0  0  0  0  0  0
  160.5040  207.9460  149.3160 O   0  0  0  0  0  0  0  0  0  0  0  0
  161.2130  205.4090  143.5150 C   0  0  0  0  0  1  0  0  0  0  0  0
  160.5970  206.1770  145.8200 C   0  0  0  0  0  2  0  0  0  0  0  0
  161.5570  203.5480  148.4780 C   0  0  0  0  0  2  0  0  0  0  0  0
  160.7720  202.5630  147.8750 O   0  0  0  0  0  1  0  0  0  0  0  0
  162.6830  210.2880  151.6430 O   0  0  0  0  0  1  0  0  0  0  0  0
  162.3480  209.3410  150.6680 C   0  0  0  0  0  2  0  0  0  0  0  0
  1  4  1  0  0  0  0
  2  4  2  0  0  0  0
  2  7  1  0  0  0  0
  3  2  1  0  0  0  0
  5  6  1  0  0  0  0
  5  3  2  0  0  0  0
  6  1  2  0  0  0  0
  8 11  1  6  0  0  0
  8 10  1  0  0  0  0
  9  8  1  0  0  0  0
  9 10  1  0  0  0  0
 10  7  1  1  0  0  0
 12 11  1  0  0  0  0
 13 14  2  0  0  0  0
 14 12  1  0  0  0  0
 16 21  1  0  0  0  0
 16 13  1  1  0  0  0
 18 23  1  1  0  0  0
 18 21  1  0  0  0  0
 19 15  1  1  0  0  0
 19 18  1  0  0  0  0
 19 20  1  0  0  0  0
 20 17  1  6  0  0  0
 20 16  1  0  0  0  0
 22 23  1  0  0  0  0
 24 39  1  6  0  0  0
 24  5  1  0  0  0  0
 25 35  1  6  0  0  0
 25 26  1  0  0  0  0
 25 31  1  0  0  0  0
 26 31  1  0  0  0  0
 26 36  1  1  0  0  0
 27 33  2  0  0  0  0
 27 29  1  0  0  0  0
 28 34  1  6  0  0  0
 28 32  1  0  0  0  0
 28 35  1  0  0  0  0
 29 24  1  0  0  0  0
 30 26  1  0  0  0  0
 31 27  1  0  0  0  0
 32 30  1  0  0  0  0
 37 36  1  0  0  0  0
 39 38  1  0  0  0  0
M  END
>  <MODEL>
8

>  <REMARK>
 VINA RESULT:      -5.2      3.761      8.129
  Name = 
  11 active torsions:
  status: ('A' for Active; 'I' for Inactive)
    1  A    between atoms: C_1  and  C_11
    2  A    between atoms: C_1  and  C_29
    3  A    between atoms: C_2  and  C_21
    4  A    between atoms: C_4  and  C_19
    5  A    between atoms: C_6  and  C_9
    6  A    between atoms: N_7  and  C_35
    7  A    between atoms: C_13  and  C_32
    8  A    between atoms: N_16  and  CA_17
    9  A    between atoms: CA_17  and  C_31
   10  A    between atoms: CA_17  and  C_36
   11  A    between atoms: C_21  and  C_35
                            x       y       z     vdW  Elec       q    Type
                         _______ _______ _______ _____ _____    ______ ____

>  <TORSDO>
F 11

$$$$
=
 OpenBabel11072415133D

 39 43  0  0  1  0  0  0  0  0999 V2000
  157.4490  212.8160  146.5840 C   0  0  0  0  0  3  0  0  0  0  0  0
  157.8380  213.7510  148.7890 C   0  0  0  0  0  0  0  0  0  0  0  0
  159.1880  213.3950  148.6960 C   0  0  0  0  0  3  0  0  0  0  0  0
  156.9710  213.4500  147.7300 C   0  0  0  0  0  3  0  0  0  0  0  0
  159.6690  212.7470  147.5480 C   0  0  0  0  0  0  0  0  0  0  0  0
  158.7970  212.4600  146.4930 C   0  0  0  0  0  3  0  0  0  0  0  0
  157.3260  214.4450  150.0170 C   0  0  0  0  0  2  0  0  0  0  0  0
  157.5500  214.1020  152.4540 C   0  0  1  0  0  3  0  0  0  0  0  0
  158.4680  213.1200  151.7560 C   0  0  0  0  0  2  0  0  0  0  0  0
  157.1240  213.4600  151.1560 C   0  0  2  0  0  3  0  0  0  0  0  0
  156.8550  213.4150  153.6230 C   0  0  0  0  0  2  0  0  0  0  0  0
  157.2770  214.0820  154.9270 C   0  0  0  0  0  2  0  0  0  0  0  0
  158.8120  212.3180  155.1150 C   0  0  0  0  0  3  0  0  0  0  0  0
  158.5270  213.5420  155.3670 N   0  0  0  0  0  0  0  0  0  0  0  0
  162.7880  210.3870  155.4580 O   0  0  0  0  0  1  0  0  0  0  0  0
  160.1150  211.7130  155.5500 C   0  0  2  0  0  3  0  0  0  0  0  0
  161.0770  211.0350  153.3330 C   0  0  0  0  0  1  0  0  0  0  0  0
  161.0370  209.6370  156.8840 C   0  0  1  0  0  3  0  0  0  0  0  0
  161.5480  209.7410  155.4510 C   0  0  1  0  0  3  0  0  0  0  0  0
  160.5310  210.5520  154.6700 C   0  0  1  0  0  3  0  0  0  0  0  0
  160.0060  211.0960  157.2600 S   0  0  0  0  0  0  0  0  0  0  0  0
  160.9830  207.2520  156.8470 O   0  0  0  0  0  1  0  0  0  0  0  0
  160.1970  208.3850  157.0400 C   0  0  0  0  0  2  0  0  0  0  0  0
  161.1000  212.3130  147.4500 C   0  0  1  0  0  3  0  0  0  0  0  0
  162.8040  208.0060  150.0430 C   0  0  1  0  0  3  0  0  0  0  0  0
  161.9160  207.7230  149.0090 C   0  0  1  0  0  0  0  0  0  0  0  0
  162.0850  210.5370  148.9610 C   0  0  0  0  0  0  0  0  0  0  0  0
  160.9770  207.0930  151.6770 C   0  0  1  0  0  3  0  0  0  0  0  0
  161.2550  210.9260  147.8670 N   0  0  0  0  0  2  0  0  0  0  0  0
  160.5180  207.4120  149.3190 N   0  0  0  0  0  2  0  0  0  0  0  0
  162.2270  209.1570  149.2650 N   0  0  0  0  0  0  0  0  0  0  0  0
  160.5140  206.4210  150.3880 C   0  0  0  0  0  2  0  0  0  0  0  0
  162.7410  211.3910  149.6090 O   0  0  0  0  0  0  0  0  0  0  0  0
  161.2580  206.0390  152.7290 C   0  0  0  0  0  1  0  0  0  0  0  0
  162.2150  207.9820  151.4680 C   0  0  0  0  0  2  0  0  0  0  0  0
  162.4740  207.2180  147.6950 C   0  0  0  0  0  2  0  0  0  0  0  0
  161.4320  206.8880  146.8260 O   0  0  0  0  0  1  0  0  0  0  0  0
  162.6380  213.4220  146.0020 O   0  0  0  0  0  1  0  0  0  0  0  0
  161.6040  212.4790  146.0270 C   0  0  0  0  0  2  0  0  0  0  0  0
  1  4  1  0  0  0  0
  2  7  1  0  0  0  0
  3  2  1  0  0  0  0
  4  2  2  0  0  0  0
  5  3  2  0  0  0  0
  6  1  2  0  0  0  0
  6  5  1  0  0  0  0
  8 11  1  1  0  0  0
  9  8  1  0  0  0  0
 10  7  1  6  0  0  0
 10  9  1  0  0  0  0
 10  8  1  0  0  0  0
 11 12  1  0  0  0  0
 12 14  1  0  0  0  0
 13 14  2  0  0  0  0
 16 13  1  6  0  0  0
 16 21  1  0  0  0  0
 18 23  1  6  0  0  0
 18 21  1  0  0  0  0
 19 15  1  1  0  0  0
 19 18  1  0  0  0  0
 20 17  1  6  0  0  0
 20 19  1  0  0  0  0
 20 16  1  0  0  0  0
 22 23  1  0  0  0  0
 24 39  1  6  0  0  0
 24  5  1  0  0  0  0
 24 29  1  0  0  0  0
 25 35  1  1  0  0  0
 26 36  1  6  0  0  0
 26 31  1  0  0  0  0
 26 30  1  0  0  0  0
 26 25  1  0  0  0  0
 27 31  1  0  0  0  0
 27 33  2  0  0  0  0
 28 34  1  1  0  0  0
 29 27  1  0  0  0  0
 30 32  1  0  0  0  0
 31 25  1  0  0  0  0
 32 28  1  0  0  0  0
 35 28  1  0  0  0  0
 37 36  1  0  0  0  0
 38 39  1  0  0  0  0
M  END
>  <MODEL>
9

>  <REMARK>
 VINA RESULT:      -5.1      4.286      8.788
  Name = 
  11 active torsions:
  status: ('A' for Active; 'I' for Inactive)
    1  A    between atoms: C_1  and  C_11
    2  A    between atoms: C_1  and  C_29
    3  A    between atoms: C_2  and  C_21
    4  A    between atoms: C_4  and  C_19
    5  A    between atoms: C_6  and  C_9
    6  A    between atoms: N_7  and  C_35
    7  A    between atoms: C_13  and  C_32
    8  A    between atoms: N_16  and  CA_17
    9  A    between atoms: CA_17  and  C_31
   10  A    between atoms: CA_17  and  C_36
   11  A    between atoms: C_21  and  C_35
                            x       y       z     vdW  Elec       q    Type
                         _______ _______ _______ _____ _____    ______ ____

>  <TORSDO>
F 11

$$$$
