=
 OpenBabel11072411533D

 32 34  0  0  1  0  0  0  0  0999 V2000
  161.6810  210.6540  151.0810 O   0  0  0  0  0  0  0  0  0  0  0  0
  161.5920  209.4840  151.5430 C   0  0  0  0  0  0  0  0  0  0  0  0
  161.4370  208.3880  150.6380 N   0  0  0  0  0  2  0  0  0  0  0  0
  161.0450  204.6460  150.1920 C   0  0  0  0  0  0  0  0  0  0  0  0
  161.2210  207.0170  151.0750 C   0  0  2  0  0  3  0  0  0  0  0  0
  161.6470  204.2020  151.3070 C   0  0  0  0  0  3  0  0  0  0  0  0
  162.1480  205.1300  152.3840 C   0  0  0  0  0  2  0  0  0  0  0  0
  162.4420  206.5220  151.8350 C   0  0  0  0  0  2  0  0  0  0  0  0
  160.9780  206.1190  149.8610 C   0  0  0  0  0  2  0  0  0  0  0  0
  160.5740  203.6490  149.1810 C   0  0  0  0  0  2  0  0  0  0  0  0
  161.6260  203.3850  148.1080 C   0  0  0  0  0  2  0  0  0  0  0  0
  162.4620  205.3020  146.7760 C   0  0  0  0  0  1  0  0  0  0  0  0
  161.3860  204.2310  146.8660 C   0  0  1  0  0  3  0  0  0  0  0  0
  160.6190  203.9550  144.5780 O   0  0  0  0  0  1  0  0  0  0  0  0
  161.3430  203.3520  145.6110 C   0  0  2  0  0  3  0  0  0  0  0  0
  160.8220  201.9480  145.8970 C   0  0  0  0  0  2  0  0  0  0  0  0
  159.7120  201.6550  145.1020 O   0  0  0  0  0  1  0  0  0  0  0  0
  160.0660  210.3050  154.4850 C   0  0  2  0  0  3  0  0  0  0  0  0
  161.1910  211.1920  154.2290 N   0  0  0  0  0  2  0  0  0  0  0  0
  160.2070  209.1270  153.5560 C   0  0  1  0  0  3  0  0  0  0  0  0
  162.2300  210.3950  153.7110 N   0  0  0  0  0  2  0  0  0  0  0  0
  161.6110  209.2630  153.0290 C   0  0  2  0  0  3  0  0  0  0  0  0
  157.7970  211.0230  155.2010 C   0  0  0  0  0  3  0  0  0  0  0  0
  158.5570  211.8150  153.0120 C   0  0  0  0  0  2  0  0  0  0  0  0
  156.8660  213.1920  154.3860 C   0  0  0  0  0  2  0  0  0  0  0  0
  158.7640  211.0210  154.2700 C   0  0  0  0  0  0  0  0  0  0  0  0
  158.0110  213.2070  153.3510 C   0  0  0  0  0  2  0  0  0  0  0  0
  156.5370  211.7970  154.9410 C   0  0  0  0  0  2  0  0  0  0  0  0
  160.0760  207.8310  154.3370 C   0  0  0  0  0  2  0  0  0  0  0  0
  161.3410  207.5760  155.1330 C   0  0  0  0  0  2  0  0  0  0  0  0
  160.0860  207.0240  156.8590 C   0  0  0  0  0  1  0  0  0  0  0  0
  161.1150  207.8820  156.4740 O   0  0  0  0  0  0  0  0  0  0  0  0
  1  2  2  0  0  0  0
  3  2  1  0  0  0  0
  4  6  2  0  0  0  0
  5  3  1  6  0  0  0
  5  8  1  0  0  0  0
  6  7  1  0  0  0  0
  8  7  1  0  0  0  0
  9  4  1  0  0  0  0
  9  5  1  0  0  0  0
 10  4  1  0  0  0  0
 11 10  1  0  0  0  0
 13 12  1  6  0  0  0
 13 11  1  0  0  0  0
 15 14  1  6  0  0  0
 15 16  1  0  0  0  0
 15 13  1  0  0  0  0
 17 16  1  0  0  0  0
 18 26  1  6  0  0  0
 19 18  1  0  0  0  0
 20 29  1  1  0  0  0
 20 18  1  0  0  0  0
 21 19  1  0  0  0  0
 22  2  1  6  0  0  0
 22 20  1  0  0  0  0
 22 21  1  0  0  0  0
 24 27  1  0  0  0  0
 24 26  1  0  0  0  0
 25 28  1  0  0  0  0
 26 23  2  0  0  0  0
 27 25  1  0  0  0  0
 28 23  1  0  0  0  0
 29 30  1  0  0  0  0
 30 32  1  0  0  0  0
 32 31  1  0  0  0  0
M  END
>  <MODEL>
1

>  <REMARK>
 VINA RESULT:      -7.3      0.000      0.000
  Name = 
  11 active torsions:
  status: ('A' for Active; 'I' for Inactive)
    1  A    between atoms: C_2  and  C_27
    2  A    between atoms: C_5  and  C_8
    3  A    between atoms: C_5  and  C_25
    4  A    between atoms: C_7  and  O_15
    5  A    between atoms: C_7  and  C_18
    6  A    between atoms: C_9  and  N_22
    7  A    between atoms: C_10  and  C_17
    8  A    between atoms: C_16  and  C_31
    9  A    between atoms: C_18  and  C_21
   10  A    between atoms: C_23  and  C_25
   11  A    between atoms: C_23  and  C_27
                            x       y       z     vdW  Elec       q    Type
                         _______ _______ _______ _____ _____    ______ ____

>  <TORSDO>
F 11

$$$$
=
 OpenBabel11072411533D

 32 34  0  0  1  0  0  0  0  0999 V2000
  161.6060  209.1980  149.3480 O   0  0  0  0  0  0  0  0  0  0  0  0
  161.5360  208.2110  150.1290 C   0  0  0  0  0  0  0  0  0  0  0  0
  161.0630  206.9580  149.6260 N   0  0  0  0  0  2  0  0  0  0  0  0
  160.8030  203.2560  150.3890 C   0  0  0  0  0  0  0  0  0  0  0  0
  160.8470  205.7910  150.4670 C   0  0  2  0  0  3  0  0  0  0  0  0
  161.3250  203.2240  151.6260 C   0  0  0  0  0  3  0  0  0  0  0  0
  161.7140  204.4720  152.3760 C   0  0  0  0  0  2  0  0  0  0  0  0
  162.0160  205.6270  151.4280 C   0  0  0  0  0  2  0  0  0  0  0  0
  160.7250  204.5400  149.5950 C   0  0  0  0  0  2  0  0  0  0  0  0
  160.4410  201.9650  149.7250 C   0  0  0  0  0  2  0  0  0  0  0  0
  160.1660  202.1480  148.2360 C   0  0  0  0  0  2  0  0  0  0  0  0
  161.5080  200.2120  147.4600 C   0  0  0  0  0  1  0  0  0  0  0  0
  161.3570  201.7230  147.3890 C   0  0  1  0  0  3  0  0  0  0  0  0
  161.3520  203.6060  145.8550 O   0  0  0  0  0  1  0  0  0  0  0  0
  161.2010  202.2190  145.9470 C   0  0  2  0  0  3  0  0  0  0  0  0
  159.8910  201.7670  145.3110 C   0  0  0  0  0  2  0  0  0  0  0  0
  160.0750  200.6040  144.5610 O   0  0  0  0  0  1  0  0  0  0  0  0
  161.0410  210.1050  152.9260 C   0  0  2  0  0  3  0  0  0  0  0  0
  162.2030  210.5790  152.1870 N   0  0  0  0  0  2  0  0  0  0  0  0
  160.7030  208.7370  152.3930 C   0  0  1  0  0  3  0  0  0  0  0  0
  162.8940  209.4380  151.7360 N   0  0  0  0  0  2  0  0  0  0  0  0
  161.9130  208.3700  151.5740 C   0  0  2  0  0  3  0  0  0  0  0  0
  158.9310  211.1590  153.7070 C   0  0  0  0  0  3  0  0  0  0  0  0
  159.8350  211.9640  151.5780 C   0  0  0  0  0  2  0  0  0  0  0  0
  158.4050  213.5130  153.0620 C   0  0  0  0  0  2  0  0  0  0  0  0
  159.8890  211.0550  152.7730 C   0  0  0  0  0  0  0  0  0  0  0  0
  159.5420  213.4020  152.0230 C   0  0  0  0  0  2  0  0  0  0  0  0
  157.8310  212.1610  153.5140 C   0  0  0  0  0  2  0  0  0  0  0  0
  160.5460  207.7560  153.5410 C   0  0  0  0  0  2  0  0  0  0  0  0
  161.4160  208.1800  154.7080 C   0  0  0  0  0  2  0  0  0  0  0  0
  159.7250  208.3290  156.1140 C   0  0  0  0  0  1  0  0  0  0  0  0
  160.9110  207.6340  155.8870 O   0  0  0  0  0  0  0  0  0  0  0  0
  1  2  2  0  0  0  0
  3  2  1  0  0  0  0
  4  6  2  0  0  0  0
  5  3  1  6  0  0  0
  5  8  1  0  0  0  0
  6  7  1  0  0  0  0
  8  7  1  0  0  0  0
  9  4  1  0  0  0  0
  9  5  1  0  0  0  0
 10  4  1  0  0  0  0
 11 10  1  0  0  0  0
 13 12  1  6  0  0  0
 13 11  1  0  0  0  0
 15 14  1  1  0  0  0
 15 13  1  0  0  0  0
 16 15  1  0  0  0  0
 17 16  1  0  0  0  0
 18 26  1  6  0  0  0
 19 18  1  0  0  0  0
 20 18  1  0  0  0  0
 20 29  1  1  0  0  0
 21 19  1  0  0  0  0
 22  2  1  6  0  0  0
 22 21  1  0  0  0  0
 22 20  1  0  0  0  0
 24 27  1  0  0  0  0
 24 26  1  0  0  0  0
 25 28  1  0  0  0  0
 26 23  2  0  0  0  0
 27 25  1  0  0  0  0
 28 23  1  0  0  0  0
 29 30  1  0  0  0  0
 30 32  1  0  0  0  0
 32 31  1  0  0  0  0
M  END
>  <MODEL>
2

>  <REMARK>
 VINA RESULT:      -6.3      1.491      1.895
  Name = 
  11 active torsions:
  status: ('A' for Active; 'I' for Inactive)
    1  A    between atoms: C_2  and  C_27
    2  A    between atoms: C_5  and  C_8
    3  A    between atoms: C_5  and  C_25
    4  A    between atoms: C_7  and  O_15
    5  A    between atoms: C_7  and  C_18
    6  A    between atoms: C_9  and  N_22
    7  A    between atoms: C_10  and  C_17
    8  A    between atoms: C_16  and  C_31
    9  A    between atoms: C_18  and  C_21
   10  A    between atoms: C_23  and  C_25
   11  A    between atoms: C_23  and  C_27
                            x       y       z     vdW  Elec       q    Type
                         _______ _______ _______ _____ _____    ______ ____

>  <TORSDO>
F 11

$$$$
=
 OpenBabel11072411533D

 32 34  0  0  1  0  0  0  0  0999 V2000
  162.7200  209.4890  151.8600 O   0  0  0  0  0  0  0  0  0  0  0  0
  161.9610  208.4830  151.8380 C   0  0  0  0  0  0  0  0  0  0  0  0
  162.4070  207.2890  151.1890 N   0  0  0  0  0  2  0  0  0  0  0  0
  161.2500  204.0890  149.5220 C   0  0  0  0  0  0  0  0  0  0  0  0
  161.5690  206.1120  151.0180 C   0  0  2  0  0  3  0  0  0  0  0  0
  160.8890  203.3690  150.5970 C   0  0  0  0  0  3  0  0  0  0  0  0
  160.8930  203.9380  151.9930 C   0  0  0  0  0  2  0  0  0  0  0  0
  161.8630  205.1070  152.1220 C   0  0  0  0  0  2  0  0  0  0  0  0
  161.8470  205.4700  149.6580 C   0  0  0  0  0  2  0  0  0  0  0  0
  161.2080  203.4420  148.1740 C   0  0  0  0  0  2  0  0  0  0  0  0
  162.1600  204.1130  147.1900 C   0  0  0  0  0  2  0  0  0  0  0  0
  160.9030  202.5010  145.7850 C   0  0  0  0  0  1  0  0  0  0  0  0
  161.9720  203.5830  145.7760 C   0  0  1  0  0  3  0  0  0  0  0  0
  162.5750  205.7510  144.8630 O   0  0  0  0  0  1  0  0  0  0  0  0
  161.6290  204.7230  144.8100 C   0  0  2  0  0  3  0  0  0  0  0  0
  160.2200  205.2640  145.0200 C   0  0  0  0  0  2  0  0  0  0  0  0
  160.2530  206.6010  145.4230 O   0  0  0  0  0  1  0  0  0  0  0  0
  160.2540  209.2130  154.7030 C   0  0  2  0  0  3  0  0  0  0  0  0
  160.5450  207.7890  154.6310 N   0  0  0  0  0  2  0  0  0  0  0  0
  160.4820  209.7840  153.3270 C   0  0  1  0  0  3  0  0  0  0  0  0
  160.3390  207.3960  153.2950 N   0  0  0  0  0  2  0  0  0  0  0  0
  160.5930  208.5620  152.4540 C   0  0  2  0  0  3  0  0  0  0  0  0
  162.4310  210.0930  155.5140 C   0  0  0  0  0  3  0  0  0  0  0  0
  160.5060  210.3970  156.9960 C   0  0  0  0  0  2  0  0  0  0  0  0
  162.4810  212.0530  157.0600 C   0  0  0  0  0  2  0  0  0  0  0  0
  161.1230  209.8840  155.7270 C   0  0  0  0  0  0  0  0  0  0  0  0
  160.9650  211.8370  157.2600 C   0  0  0  0  0  2  0  0  0  0  0  0
  163.2340  210.8100  156.5610 C   0  0  0  0  0  2  0  0  0  0  0  0
  159.2820  210.6100  152.9010 C   0  0  0  0  0  2  0  0  0  0  0  0
  159.3900  212.0120  153.4670 C   0  0  0  0  0  2  0  0  0  0  0  0
  157.6640  213.2940  153.9570 C   0  0  0  0  0  1  0  0  0  0  0  0
  158.3960  212.2040  154.4260 O   0  0  0  0  0  0  0  0  0  0  0  0
  2  1  2  0  0  0  0
  3  2  1  0  0  0  0
  4  9  1  0  0  0  0
  4  6  2  0  0  0  0
  5  3  1  1  0  0  0
  5  8  1  0  0  0  0
  6  7  1  0  0  0  0
  7  8  1  0  0  0  0
  9  5  1  0  0  0  0
 10  4  1  0  0  0  0
 11 10  1  0  0  0  0
 13 12  1  1  0  0  0
 13 11  1  0  0  0  0
 15 14  1  1  0  0  0
 15 16  1  0  0  0  0
 15 13  1  0  0  0  0
 16 17  1  0  0  0  0
 18 26  1  1  0  0  0
 19 18  1  0  0  0  0
 20 29  1  6  0  0  0
 20 18  1  0  0  0  0
 21 19  1  0  0  0  0
 22  2  1  1  0  0  0
 22 21  1  0  0  0  0
 22 20  1  0  0  0  0
 23 26  2  0  0  0  0
 23 28  1  0  0  0  0
 24 27  1  0  0  0  0
 25 27  1  0  0  0  0
 26 24  1  0  0  0  0
 28 25  1  0  0  0  0
 29 30  1  0  0  0  0
 30 32  1  0  0  0  0
 31 32  1  0  0  0  0
M  END
>  <MODEL>
3

>  <REMARK>
 VINA RESULT:      -6.2      2.131      3.521
  Name = 
  11 active torsions:
  status: ('A' for Active; 'I' for Inactive)
    1  A    between atoms: C_2  and  C_27
    2  A    between atoms: C_5  and  C_8
    3  A    between atoms: C_5  and  C_25
    4  A    between atoms: C_7  and  O_15
    5  A    between atoms: C_7  and  C_18
    6  A    between atoms: C_9  and  N_22
    7  A    between atoms: C_10  and  C_17
    8  A    between atoms: C_16  and  C_31
    9  A    between atoms: C_18  and  C_21
   10  A    between atoms: C_23  and  C_25
   11  A    between atoms: C_23  and  C_27
                            x       y       z     vdW  Elec       q    Type
                         _______ _______ _______ _____ _____    ______ ____

>  <TORSDO>
F 11

$$$$
=
 OpenBabel11072411533D

 32 34  0  0  1  0  0  0  0  0999 V2000
  160.4560  205.2430  153.6100 O   0  0  0  0  0  0  0  0  0  0  0  0
  160.9470  206.4040  153.5630 C   0  0  0  0  0  0  0  0  0  0  0  0
  160.7140  207.3030  154.6510 N   0  0  0  0  0  2  0  0  0  0  0  0
  160.5130  210.9770  153.7470 C   0  0  0  0  0  0  0  0  0  0  0  0
  161.1480  208.6910  154.6450 C   0  0  2  0  0  3  0  0  0  0  0  0
  160.9720  211.5330  154.8800 C   0  0  0  0  0  3  0  0  0  0  0  0
  161.5060  210.7150  156.0270 C   0  0  0  0  0  2  0  0  0  0  0  0
  160.9380  209.3000  156.0230 C   0  0  0  0  0  2  0  0  0  0  0  0
  160.3430  209.4810  153.6110 C   0  0  0  0  0  2  0  0  0  0  0  0
  160.0060  211.8690  152.6580 C   0  0  0  0  0  2  0  0  0  0  0  0
  158.4830  211.9360  152.6370 C   0  0  0  0  0  2  0  0  0  0  0  0
  157.0380  213.9380  152.4030 C   0  0  0  0  0  1  0  0  0  0  0  0
  157.9660  213.1820  153.3410 C   0  0  1  0  0  3  0  0  0  0  0  0
  157.9770  213.2990  155.7670 O   0  0  0  0  0  1  0  0  0  0  0  0
  157.2760  212.8140  154.6600 C   0  0  2  0  0  3  0  0  0  0  0  0
  157.0190  211.3160  154.7870 C   0  0  0  0  0  2  0  0  0  0  0  0
  155.6510  211.0380  154.7480 O   0  0  0  0  0  1  0  0  0  0  0  0
  161.9610  205.4730  150.4390 C   0  0  2  0  0  3  0  0  0  0  0  0
  162.9680  205.1190  151.4290 N   0  0  0  0  0  2  0  0  0  0  0  0
  161.0130  206.4430  151.0950 C   0  0  1  0  0  3  0  0  0  0  0  0
  163.0420  206.1920  152.3380 N   0  0  0  0  0  2  0  0  0  0  0  0
  161.7330  206.8360  152.3580 C   0  0  2  0  0  3  0  0  0  0  0  0
  161.2750  203.8820  148.6580 C   0  0  0  0  0  3  0  0  0  0  0  0
  160.5240  203.3720  150.9320 C   0  0  0  0  0  2  0  0  0  0  0  0
  160.8900  201.4790  149.2200 C   0  0  0  0  0  2  0  0  0  0  0  0
  161.2430  204.2490  149.9490 C   0  0  0  0  0  0  0  0  0  0  0  0
  160.9050  201.9030  150.7050 C   0  0  0  0  0  2  0  0  0  0  0  0
  160.5730  202.6210  148.2420 C   0  0  0  0  0  2  0  0  0  0  0  0
  160.8250  207.6640  150.2120 C   0  0  0  0  0  2  0  0  0  0  0  0
  161.9830  207.7840  149.2400 C   0  0  0  0  0  2  0  0  0  0  0  0
  162.0610  209.7970  150.1340 C   0  0  0  0  0  1  0  0  0  0  0  0
  162.1820  209.1250  148.9180 O   0  0  0  0  0  0  0  0  0  0  0  0
  2  1  2  0  0  0  0
  2  3  1  0  0  0  0
  4  6  2  0  0  0  0
  5  3  1  1  0  0  0
  5  8  1  0  0  0  0
  6  7  1  0  0  0  0
  8  7  1  0  0  0  0
  9  4  1  0  0  0  0
  9  5  1  0  0  0  0
 10  4  1  0  0  0  0
 11 10  1  0  0  0  0
 11 13  1  0  0  0  0
 13 12  1  6  0  0  0
 13 15  1  0  0  0  0
 15 16  1  0  0  0  0
 15 14  1  1  0  0  0
 17 16  1  0  0  0  0
 18 26  1  1  0  0  0
 18 20  1  0  0  0  0
 18 19  1  0  0  0  0
 19 21  1  0  0  0  0
 20 29  1  6  0  0  0
 20 22  1  0  0  0  0
 21 22  1  0  0  0  0
 22  2  1  1  0  0  0
 23 26  2  0  0  0  0
 25 27  1  0  0  0  0
 26 24  1  0  0  0  0
 27 24  1  0  0  0  0
 28 23  1  0  0  0  0
 28 25  1  0  0  0  0
 30 29  1  0  0  0  0
 32 30  1  0  0  0  0
 32 31  1  0  0  0  0
M  END
>  <MODEL>
4

>  <REMARK>
 VINA RESULT:      -6.1      2.744      8.957
  Name = 
  11 active torsions:
  status: ('A' for Active; 'I' for Inactive)
    1  A    between atoms: C_2  and  C_27
    2  A    between atoms: C_5  and  C_8
    3  A    between atoms: C_5  and  C_25
    4  A    between atoms: C_7  and  O_15
    5  A    between atoms: C_7  and  C_18
    6  A    between atoms: C_9  and  N_22
    7  A    between atoms: C_10  and  C_17
    8  A    between atoms: C_16  and  C_31
    9  A    between atoms: C_18  and  C_21
   10  A    between atoms: C_23  and  C_25
   11  A    between atoms: C_23  and  C_27
                            x       y       z     vdW  Elec       q    Type
                         _______ _______ _______ _____ _____    ______ ____

>  <TORSDO>
F 11

$$$$
=
 OpenBabel11072411533D

 32 34  0  0  1  0  0  0  0  0999 V2000
  160.5190  205.0360  153.8060 O   0  0  0  0  0  0  0  0  0  0  0  0
  160.9360  206.2210  153.9070 C   0  0  0  0  0  0  0  0  0  0  0  0
  160.6170  206.9740  155.0810 N   0  0  0  0  0  2  0  0  0  0  0  0
  159.9890  210.5940  156.0050 C   0  0  0  0  0  0  0  0  0  0  0  0
  160.9610  208.3770  155.2470 C   0  0  2  0  0  3  0  0  0  0  0  0
  161.1870  210.9280  156.5130 C   0  0  0  0  0  3  0  0  0  0  0  0
  162.3680  209.9930  156.4890 C   0  0  0  0  0  2  0  0  0  0  0  0
  161.9300  208.5350  156.4090 C   0  0  0  0  0  2  0  0  0  0  0  0
  159.6960  209.1920  155.5250 C   0  0  0  0  0  2  0  0  0  0  0  0
  158.8750  211.5910  156.0680 C   0  0  0  0  0  2  0  0  0  0  0  0
  159.1060  212.7640  155.1220 C   0  0  0  0  0  2  0  0  0  0  0  0
  157.5730  213.3830  153.2720 C   0  0  0  0  0  1  0  0  0  0  0  0
  158.6800  212.4310  153.6990 C   0  0  1  0  0  3  0  0  0  0  0  0
  159.6410  213.3150  151.6510 O   0  0  0  0  0  1  0  0  0  0  0  0
  159.8810  212.4810  152.7470 C   0  0  2  0  0  3  0  0  0  0  0  0
  160.3250  211.0950  152.2940 C   0  0  0  0  0  2  0  0  0  0  0  0
  161.5350  210.7380  152.8920 O   0  0  0  0  0  1  0  0  0  0  0  0
  161.9880  205.7720  150.6900 C   0  0  2  0  0  3  0  0  0  0  0  0
  162.9910  205.2900  151.6280 N   0  0  0  0  0  2  0  0  0  0  0  0
  161.0210  206.6230  151.4720 C   0  0  1  0  0  3  0  0  0  0  0  0
  163.0430  206.2180  152.6850 N   0  0  0  0  0  2  0  0  0  0  0  0
  161.7250  206.8360  152.7860 C   0  0  2  0  0  3  0  0  0  0  0  0
  161.4260  204.3870  148.7050 C   0  0  0  0  0  3  0  0  0  0  0  0
  160.4730  203.6720  150.8450 C   0  0  0  0  0  2  0  0  0  0  0  0
  160.9480  201.9520  148.9840 C   0  0  0  0  0  2  0  0  0  0  0  0
  161.2910  204.6240  150.0190 C   0  0  0  0  0  0  0  0  0  0  0  0
  160.8430  202.2240  150.5010 C   0  0  0  0  0  2  0  0  0  0  0  0
  160.7390  203.1950  148.1060 C   0  0  0  0  0  2  0  0  0  0  0  0
  160.8220  207.9570  150.7760 C   0  0  0  0  0  2  0  0  0  0  0  0
  162.1010  208.3720  150.0750 C   0  0  0  0  0  2  0  0  0  0  0  0
  162.0340  210.1380  148.7590 C   0  0  0  0  0  1  0  0  0  0  0  0
  161.8100  208.7620  148.7690 O   0  0  0  0  0  0  0  0  0  0  0  0
  1  2  2  0  0  0  0
  2  3  1  0  0  0  0
  4 10  1  0  0  0  0
  4  6  2  0  0  0  0
  5  3  1  1  0  0  0
  5  9  1  0  0  0  0
  5  8  1  0  0  0  0
  7  6  1  0  0  0  0
  8  7  1  0  0  0  0
  9  4  1  0  0  0  0
 11 10  1  0  0  0  0
 13 12  1  6  0  0  0
 13 11  1  0  0  0  0
 15 14  1  6  0  0  0
 15 13  1  0  0  0  0
 16 15  1  0  0  0  0
 16 17  1  0  0  0  0
 18 26  1  1  0  0  0
 18 20  1  0  0  0  0
 18 19  1  0  0  0  0
 19 21  1  0  0  0  0
 20 29  1  6  0  0  0
 20 22  1  0  0  0  0
 21 22  1  0  0  0  0
 22  2  1  1  0  0  0
 23 26  2  0  0  0  0
 25 27  1  0  0  0  0
 26 24  1  0  0  0  0
 27 24  1  0  0  0  0
 28 23  1  0  0  0  0
 28 25  1  0  0  0  0
 30 29  1  0  0  0  0
 31 32  1  0  0  0  0
 32 30  1  0  0  0  0
M  END
>  <MODEL>
5

>  <REMARK>
 VINA RESULT:      -6.0      2.772      8.647
  Name = 
  11 active torsions:
  status: ('A' for Active; 'I' for Inactive)
    1  A    between atoms: C_2  and  C_27
    2  A    between atoms: C_5  and  C_8
    3  A    between atoms: C_5  and  C_25
    4  A    between atoms: C_7  and  O_15
    5  A    between atoms: C_7  and  C_18
    6  A    between atoms: C_9  and  N_22
    7  A    between atoms: C_10  and  C_17
    8  A    between atoms: C_16  and  C_31
    9  A    between atoms: C_18  and  C_21
   10  A    between atoms: C_23  and  C_25
   11  A    between atoms: C_23  and  C_27
                            x       y       z     vdW  Elec       q    Type
                         _______ _______ _______ _____ _____    ______ ____

>  <TORSDO>
F 11

$$$$
=
 OpenBabel11072411533D

 32 34  0  0  1  0  0  0  0  0999 V2000
  160.6820  205.2840  153.8170 O   0  0  0  0  0  0  0  0  0  0  0  0
  161.0240  206.4750  153.5870 C   0  0  0  0  0  0  0  0  0  0  0  0
  160.6470  207.4990  154.5120 N   0  0  0  0  0  2  0  0  0  0  0  0
  159.8140  211.0190  153.3840 C   0  0  0  0  0  0  0  0  0  0  0  0
  160.9030  208.9130  154.2860 C   0  0  2  0  0  3  0  0  0  0  0  0
  160.4590  211.7350  154.3190 C   0  0  0  0  0  3  0  0  0  0  0  0
  161.3380  211.1000  155.3650 C   0  0  0  0  0  2  0  0  0  0  0  0
  160.9530  209.6460  155.6180 C   0  0  0  0  0  2  0  0  0  0  0  0
  159.7930  209.5080  153.4180 C   0  0  0  0  0  2  0  0  0  0  0  0
  158.9660  211.7370  152.3820 C   0  0  0  0  0  2  0  0  0  0  0  0
  159.2100  213.2420  152.4030 C   0  0  0  0  0  2  0  0  0  0  0  0
  160.2030  213.5130  150.1470 C   0  0  0  0  0  1  0  0  0  0  0  0
  159.0140  213.8630  151.0280 C   0  0  1  0  0  3  0  0  0  0  0  0
  157.7610  213.3290  149.0160 O   0  0  0  0  0  1  0  0  0  0  0  0
  157.6870  213.4060  150.4100 C   0  0  2  0  0  3  0  0  0  0  0  0
  156.5100  214.2700  150.8490 C   0  0  0  0  0  2  0  0  0  0  0  0
  155.3990  214.0530  150.0310 O   0  0  0  0  0  1  0  0  0  0  0  0
  161.9970  205.2830  150.5400 C   0  0  2  0  0  3  0  0  0  0  0  0
  163.0240  205.0270  151.5390 N   0  0  0  0  0  2  0  0  0  0  0  0
  161.0490  206.2980  151.1240 C   0  0  1  0  0  3  0  0  0  0  0  0
  163.1010  206.1770  152.3490 N   0  0  0  0  0  2  0  0  0  0  0  0
  161.7850  206.8080  152.3350 C   0  0  2  0  0  3  0  0  0  0  0  0
  161.1400  203.6300  148.8940 C   0  0  0  0  0  3  0  0  0  0  0  0
  160.7760  203.1110  151.2590 C   0  0  0  0  0  2  0  0  0  0  0  0
  160.9850  201.2180  149.5210 C   0  0  0  0  0  2  0  0  0  0  0  0
  161.2850  204.0140  150.1720 C   0  0  0  0  0  0  0  0  0  0  0  0
  161.2020  201.6630  150.9830 C   0  0  0  0  0  2  0  0  0  0  0  0
  160.4570  202.3270  148.5970 C   0  0  0  0  0  2  0  0  0  0  0  0
  160.8330  207.4340  150.1410 C   0  0  0  0  0  2  0  0  0  0  0  0
  162.0260  207.5510  149.2130 C   0  0  0  0  0  2  0  0  0  0  0  0
  161.5200  206.7510  147.2230 C   0  0  0  0  0  1  0  0  0  0  0  0
  161.5940  207.9400  147.9470 O   0  0  0  0  0  0  0  0  0  0  0  0
  2  1  2  0  0  0  0
  2  3  1  0  0  0  0
  4  9  1  0  0  0  0
  4  6  2  0  0  0  0
  5  3  1  1  0  0  0
  5  8  1  0  0  0  0
  6  7  1  0  0  0  0
  7  8  1  0  0  0  0
  9  5  1  0  0  0  0
 10 11  1  0  0  0  0
 10  4  1  0  0  0  0
 13 12  1  6  0  0  0
 13 11  1  0  0  0  0
 15 14  1  6  0  0  0
 15 16  1  0  0  0  0
 15 13  1  0  0  0  0
 17 16  1  0  0  0  0
 18 26  1  1  0  0  0
 18 20  1  0  0  0  0
 18 19  1  0  0  0  0
 19 21  1  0  0  0  0
 20 29  1  6  0  0  0
 20 22  1  0  0  0  0
 22 21  1  0  0  0  0
 22  2  1  1  0  0  0
 23 26  2  0  0  0  0
 25 27  1  0  0  0  0
 26 24  1  0  0  0  0
 27 24  1  0  0  0  0
 28 23  1  0  0  0  0
 28 25  1  0  0  0  0
 30 29  1  0  0  0  0
 31 32  1  0  0  0  0
 32 30  1  0  0  0  0
M  END
>  <MODEL>
6

>  <REMARK>
 VINA RESULT:      -5.9      2.742      8.729
  Name = 
  11 active torsions:
  status: ('A' for Active; 'I' for Inactive)
    1  A    between atoms: C_2  and  C_27
    2  A    between atoms: C_5  and  C_8
    3  A    between atoms: C_5  and  C_25
    4  A    between atoms: C_7  and  O_15
    5  A    between atoms: C_7  and  C_18
    6  A    between atoms: C_9  and  N_22
    7  A    between atoms: C_10  and  C_17
    8  A    between atoms: C_16  and  C_31
    9  A    between atoms: C_18  and  C_21
   10  A    between atoms: C_23  and  C_25
   11  A    between atoms: C_23  and  C_27
                            x       y       z     vdW  Elec       q    Type
                         _______ _______ _______ _____ _____    ______ ____

>  <TORSDO>
F 11

$$$$
=
 OpenBabel11072411533D

 32 34  0  0  1  0  0  0  0  0999 V2000
  163.4130  205.7550  151.5900 O   0  0  0  0  0  0  0  0  0  0  0  0
  162.3950  206.4940  151.6710 C   0  0  0  0  0  0  0  0  0  0  0  0
  162.5320  207.8120  152.2090 N   0  0  0  0  0  2  0  0  0  0  0  0
  160.2100  209.9730  154.2810 C   0  0  0  0  0  0  0  0  0  0  0  0
  161.4040  208.7010  152.4400 C   0  0  2  0  0  3  0  0  0  0  0  0
  159.9590  210.9650  153.4130 C   0  0  0  0  0  3  0  0  0  0  0  0
  160.4590  210.9460  151.9920 C   0  0  0  0  0  2  0  0  0  0  0  0
  161.6980  210.0690  151.8420 C   0  0  0  0  0  2  0  0  0  0  0  0
  161.1570  208.8440  153.9430 C   0  0  0  0  0  2  0  0  0  0  0  0
  159.6660  210.0750  155.6720 C   0  0  0  0  0  2  0  0  0  0  0  0
  159.4210  211.5230  156.0830 C   0  0  0  0  0  2  0  0  0  0  0  0
  157.8430  213.1580  157.0780 C   0  0  0  0  0  1  0  0  0  0  0  0
  157.9900  211.7380  156.5540 C   0  0  1  0  0  3  0  0  0  0  0  0
  156.8820  212.5020  154.5330 O   0  0  0  0  0  1  0  0  0  0  0  0
  156.9960  211.4340  155.4280 C   0  0  2  0  0  3  0  0  0  0  0  0
  155.6280  211.0120  155.9520 C   0  0  0  0  0  2  0  0  0  0  0  0
  155.1060  209.9600  155.1970 O   0  0  0  0  0  1  0  0  0  0  0  0
  160.6360  205.2230  149.0350 C   0  0  2  0  0  3  0  0  0  0  0  0
  160.4620  206.6660  149.1170 N   0  0  0  0  0  2  0  0  0  0  0  0
  161.2220  204.7700  150.3470 C   0  0  1  0  0  3  0  0  0  0  0  0
  160.3260  206.9850  150.4820 N   0  0  0  0  0  2  0  0  0  0  0  0
  161.0540  205.9720  151.2390 C   0  0  2  0  0  3  0  0  0  0  0  0
  161.5830  203.6060  147.4040 C   0  0  0  0  0  3  0  0  0  0  0  0
  162.3210  205.9320  147.1950 C   0  0  0  0  0  2  0  0  0  0  0  0
  162.2630  204.3870  145.1320 C   0  0  0  0  0  2  0  0  0  0  0  0
  161.5250  204.8590  147.8810 C   0  0  0  0  0  0  0  0  0  0  0  0
  162.1440  205.8280  145.6750 C   0  0  0  0  0  2  0  0  0  0  0  0
  162.4580  203.3180  146.2180 C   0  0  0  0  0  2  0  0  0  0  0  0
  160.4210  203.6060  150.9000 C   0  0  0  0  0  2  0  0  0  0  0  0
  161.3430  202.4410  151.2070 C   0  0  0  0  0  2  0  0  0  0  0  0
  159.8600  201.6210  149.7980 C   0  0  0  0  0  1  0  0  0  0  0  0
  161.1670  201.4450  150.2490 O   0  0  0  0  0  0  0  0  0  0  0  0
  1  2  2  0  0  0  0
  2  3  1  0  0  0  0
  4 10  1  0  0  0  0
  5  3  1  1  0  0  0
  5  9  1  0  0  0  0
  6  4  2  0  0  0  0
  7  6  1  0  0  0  0
  8  7  1  0  0  0  0
  8  5  1  0  0  0  0
  9  4  1  0  0  0  0
 10 11  1  0  0  0  0
 11 13  1  0  0  0  0
 13 12  1  6  0  0  0
 15 14  1  1  0  0  0
 15 16  1  0  0  0  0
 15 13  1  0  0  0  0
 17 16  1  0  0  0  0
 18 26  1  6  0  0  0
 18 19  1  0  0  0  0
 18 20  1  0  0  0  0
 19 21  1  0  0  0  0
 20 29  1  1  0  0  0
 20 22  1  0  0  0  0
 21 22  1  0  0  0  0
 22  2  1  6  0  0  0
 23 26  2  0  0  0  0
 24 26  1  0  0  0  0
 25 27  1  0  0  0  0
 25 28  1  0  0  0  0
 27 24  1  0  0  0  0
 28 23  1  0  0  0  0
 29 30  1  0  0  0  0
 31 32  1  0  0  0  0
 32 30  1  0  0  0  0
M  END
>  <MODEL>
7

>  <REMARK>
 VINA RESULT:      -5.8      2.581      9.298
  Name = 
  11 active torsions:
  status: ('A' for Active; 'I' for Inactive)
    1  A    between atoms: C_2  and  C_27
    2  A    between atoms: C_5  and  C_8
    3  A    between atoms: C_5  and  C_25
    4  A    between atoms: C_7  and  O_15
    5  A    between atoms: C_7  and  C_18
    6  A    between atoms: C_9  and  N_22
    7  A    between atoms: C_10  and  C_17
    8  A    between atoms: C_16  and  C_31
    9  A    between atoms: C_18  and  C_21
   10  A    between atoms: C_23  and  C_25
   11  A    between atoms: C_23  and  C_27
                            x       y       z     vdW  Elec       q    Type
                         _______ _______ _______ _____ _____    ______ ____

>  <TORSDO>
F 11

$$$$
=
 OpenBabel11072411533D

 32 34  0  0  1  0  0  0  0  0999 V2000
  160.6100  211.8760  152.2200 O   0  0  0  0  0  0  0  0  0  0  0  0
  161.1710  210.7780  151.9560 C   0  0  0  0  0  0  0  0  0  0  0  0
  161.4120  210.4300  150.5900 N   0  0  0  0  0  2  0  0  0  0  0  0
  161.3830  206.6780  150.0690 C   0  0  0  0  0  0  0  0  0  0  0  0
  161.9560  209.1460  150.1780 C   0  0  2  0  0  3  0  0  0  0  0  0
  162.0650  206.5850  148.9160 C   0  0  0  0  0  3  0  0  0  0  0  0
  162.7060  207.7770  148.2540 C   0  0  0  0  0  2  0  0  0  0  0  0
  162.0250  209.0800  148.6590 C   0  0  0  0  0  2  0  0  0  0  0  0
  161.0660  208.0150  150.6970 C   0  0  0  0  0  2  0  0  0  0  0  0
  160.7860  205.4370  150.6560 C   0  0  0  0  0  2  0  0  0  0  0  0
  160.6310  204.3320  149.6170 C   0  0  0  0  0  2  0  0  0  0  0  0
  161.1370  202.9740  151.6290 C   0  0  0  0  0  1  0  0  0  0  0  0
  161.2060  203.0120  150.1110 C   0  0  1  0  0  3  0  0  0  0  0  0
  160.2060  200.8180  150.4010 O   0  0  0  0  0  1  0  0  0  0  0  0
  160.4720  201.8280  149.4720 C   0  0  2  0  0  3  0  0  0  0  0  0
  161.2050  201.2730  148.2550 C   0  0  0  0  0  2  0  0  0  0  0  0
  160.6020  201.7020  147.0700 O   0  0  0  0  0  1  0  0  0  0  0  0
  161.0210  210.2910  155.3320 C   0  0  2  0  0  3  0  0  0  0  0  0
  162.2700  210.9420  154.9650 N   0  0  0  0  0  2  0  0  0  0  0  0
  160.4180  209.7390  154.0660 C   0  0  1  0  0  3  0  0  0  0  0  0
  162.7200  210.3260  153.7810 N   0  0  0  0  0  2  0  0  0  0  0  0
  161.5420  209.8400  153.0690 C   0  0  2  0  0  3  0  0  0  0  0  0
  160.2080  212.5850  155.8300 C   0  0  0  0  0  3  0  0  0  0  0  0
  158.9640  210.7370  156.8460 C   0  0  0  0  0  2  0  0  0  0  0  0
  157.7880  212.9690  156.3110 C   0  0  0  0  0  2  0  0  0  0  0  0
  160.0930  211.2600  156.0060 C   0  0  0  0  0  0  0  0  0  0  0  0
  157.6540  211.4380  156.4620 C   0  0  0  0  0  2  0  0  0  0  0  0
  159.2190  213.4970  156.4970 C   0  0  0  0  0  2  0  0  0  0  0  0
  160.0370  208.2830  154.2620 C   0  0  0  0  0  2  0  0  0  0  0  0
  160.7280  207.7290  155.4940 C   0  0  0  0  0  2  0  0  0  0  0  0
  161.2070  206.2000  153.9800 C   0  0  0  0  0  1  0  0  0  0  0  0
  160.9280  206.3580  155.3370 O   0  0  0  0  0  0  0  0  0  0  0  0
  2  1  2  0  0  0  0
  3  2  1  0  0  0  0
  4 10  1  0  0  0  0
  4  9  1  0  0  0  0
  5  3  1  6  0  0  0
  5  9  1  0  0  0  0
  6  4  2  0  0  0  0
  7  8  1  0  0  0  0
  7  6  1  0  0  0  0
  8  5  1  0  0  0  0
 11 13  1  0  0  0  0
 11 10  1  0  0  0  0
 13 12  1  1  0  0  0
 15 13  1  0  0  0  0
 15 14  1  1  0  0  0
 16 15  1  0  0  0  0
 17 16  1  0  0  0  0
 18 26  1  6  0  0  0
 19 18  1  0  0  0  0
 20 29  1  1  0  0  0
 20 18  1  0  0  0  0
 21 19  1  0  0  0  0
 22  2  1  6  0  0  0
 22 21  1  0  0  0  0
 22 20  1  0  0  0  0
 23 26  2  0  0  0  0
 23 28  1  0  0  0  0
 25 27  1  0  0  0  0
 25 28  1  0  0  0  0
 26 24  1  0  0  0  0
 27 24  1  0  0  0  0
 29 30  1  0  0  0  0
 31 32  1  0  0  0  0
 32 30  1  0  0  0  0
M  END
>  <MODEL>
8

>  <REMARK>
 VINA RESULT:      -5.6      1.959      2.965
  Name = 
  11 active torsions:
  status: ('A' for Active; 'I' for Inactive)
    1  A    between atoms: C_2  and  C_27
    2  A    between atoms: C_5  and  C_8
    3  A    between atoms: C_5  and  C_25
    4  A    between atoms: C_7  and  O_15
    5  A    between atoms: C_7  and  C_18
    6  A    between atoms: C_9  and  N_22
    7  A    between atoms: C_10  and  C_17
    8  A    between atoms: C_16  and  C_31
    9  A    between atoms: C_18  and  C_21
   10  A    between atoms: C_23  and  C_25
   11  A    between atoms: C_23  and  C_27
                            x       y       z     vdW  Elec       q    Type
                         _______ _______ _______ _____ _____    ______ ____

>  <TORSDO>
F 11

$$$$
=
 OpenBabel11072411533D

 32 34  0  0  1  0  0  0  0  0999 V2000
  161.2420  208.4430  150.7140 O   0  0  0  0  0  0  0  0  0  0  0  0
  161.5930  208.9740  149.6260 C   0  0  0  0  0  0  0  0  0  0  0  0
  161.6960  210.3980  149.5470 N   0  0  0  0  0  2  0  0  0  0  0  0
  161.0450  212.8670  146.7470 C   0  0  0  0  0  0  0  0  0  0  0  0
  161.9910  211.1100  148.3130 C   0  0  2  0  0  3  0  0  0  0  0  0
  162.2910  213.3140  146.5200 C   0  0  0  0  0  3  0  0  0  0  0  0
  163.4980  212.7400  147.2160 C   0  0  0  0  0  2  0  0  0  0  0  0
  163.1280  212.0930  148.5460 C   0  0  0  0  0  2  0  0  0  0  0  0
  160.7490  211.8690  147.8420 C   0  0  0  0  0  2  0  0  0  0  0  0
  159.9070  213.4930  146.0050 C   0  0  0  0  0  2  0  0  0  0  0  0
  160.2920  213.8640  144.5770 C   0  0  0  0  0  2  0  0  0  0  0  0
  158.9690  213.2560  142.5690 C   0  0  0  0  0  1  0  0  0  0  0  0
  159.9650  212.7450  143.5980 C   0  0  1  0  0  3  0  0  0  0  0  0
  162.3570  212.9860  143.2590 O   0  0  0  0  0  1  0  0  0  0  0  0
  161.2420  212.2040  142.9450 C   0  0  2  0  0  3  0  0  0  0  0  0
  161.1000  212.0320  141.4370 C   0  0  0  0  0  2  0  0  0  0  0  0
  161.9740  211.0520  140.9610 O   0  0  0  0  0  1  0  0  0  0  0  0
  161.7590  205.7510  148.5120 C   0  0  2  0  0  3  0  0  0  0  0  0
  163.0720  206.2120  148.9360 N   0  0  0  0  0  2  0  0  0  0  0  0
  160.8820  206.9680  148.3720 C   0  0  1  0  0  3  0  0  0  0  0  0
  163.2020  207.5410  148.4890 N   0  0  0  0  0  2  0  0  0  0  0  0
  161.8610  208.1120  148.4250 C   0  0  2  0  0  3  0  0  0  0  0  0
  161.0620  203.4720  149.2160 C   0  0  0  0  0  3  0  0  0  0  0  0
  160.8190  205.2540  150.8780 C   0  0  0  0  0  2  0  0  0  0  0  0
  161.2060  202.8170  151.6210 C   0  0  0  0  0  2  0  0  0  0  0  0
  161.1910  204.7770  149.5030 C   0  0  0  0  0  0  0  0  0  0  0  0
  161.4040  204.3150  151.9390 C   0  0  0  0  0  2  0  0  0  0  0  0
  160.5300  202.5440  150.2690 C   0  0  0  0  0  2  0  0  0  0  0  0
  160.1840  206.9540  147.0240 C   0  0  0  0  0  2  0  0  0  0  0  0
  160.8290  205.9250  146.1170 C   0  0  0  0  0  2  0  0  0  0  0  0
  161.3010  205.4130  144.0260 C   0  0  0  0  0  1  0  0  0  0  0  0
  160.3890  206.1190  144.8080 O   0  0  0  0  0  0  0  0  0  0  0  0
  2  1  2  0  0  0  0
  3  2  1  0  0  0  0
  4  9  1  0  0  0  0
  5  8  1  0  0  0  0
  5  3  1  1  0  0  0
  6  4  2  0  0  0  0
  6  7  1  0  0  0  0
  7  8  1  0  0  0  0
  9  5  1  0  0  0  0
 10  4  1  0  0  0  0
 11 10  1  0  0  0  0
 13 12  1  6  0  0  0
 13 11  1  0  0  0  0
 15 14  1  6  0  0  0
 15 13  1  0  0  0  0
 16 15  1  0  0  0  0
 17 16  1  0  0  0  0
 18 19  1  0  0  0  0
 18 26  1  1  0  0  0
 20 29  1  6  0  0  0
 20 22  1  0  0  0  0
 20 18  1  0  0  0  0
 21 19  1  0  0  0  0
 22 21  1  0  0  0  0
 22  2  1  1  0  0  0
 23 26  2  0  0  0  0
 23 28  1  0  0  0  0
 24 27  1  0  0  0  0
 25 27  1  0  0  0  0
 26 24  1  0  0  0  0
 28 25  1  0  0  0  0
 30 29  1  0  0  0  0
 31 32  1  0  0  0  0
 32 30  1  0  0  0  0
M  END
>  <MODEL>
9

>  <REMARK>
 VINA RESULT:      -5.5      4.971      8.719
  Name = 
  11 active torsions:
  status: ('A' for Active; 'I' for Inactive)
    1  A    between atoms: C_2  and  C_27
    2  A    between atoms: C_5  and  C_8
    3  A    between atoms: C_5  and  C_25
    4  A    between atoms: C_7  and  O_15
    5  A    between atoms: C_7  and  C_18
    6  A    between atoms: C_9  and  N_22
    7  A    between atoms: C_10  and  C_17
    8  A    between atoms: C_16  and  C_31
    9  A    between atoms: C_18  and  C_21
   10  A    between atoms: C_23  and  C_25
   11  A    between atoms: C_23  and  C_27
                            x       y       z     vdW  Elec       q    Type
                         _______ _______ _______ _____ _____    ______ ____

>  <TORSDO>
F 11

$$$$
