=
 OpenBabel11072414283D

 47 52  0  0  1  0  0  0  0  0999 V2000
  162.1380  207.8240  150.1590 N   0  0  0  0  0  0  0  0  0  0  0  0
  161.4080  210.0140  153.5060 C   0  0  0  0  0  0  0  0  0  0  0  0
  161.1740  210.0960  150.9520 N   0  0  0  0  0  0  0  0  0  0  0  0
  161.4100  210.6030  154.6180 O   0  0  0  0  0  0  0  0  0  0  0  0
  161.6540  208.4390  147.9760 O   0  0  0  0  0  0  0  0  0  0  0  0
  161.9450  208.6680  153.4290 N   0  0  0  0  0  0  0  0  0  0  0  0
  162.2230  207.6220  148.7440 C   0  0  0  0  0  0  0  0  0  0  0  0
  160.8580  210.7650  152.2440 C   0  0  1  0  0  3  0  0  0  0  0  0
  162.0490  208.2170  152.2330 C   0  0  0  0  0  0  0  0  0  0  0  0
  162.4580  207.1360  151.3780 C   0  0  1  0  0  3  0  0  0  0  0  0
  161.6860  208.9190  151.0170 C   0  0  0  0  0  0  0  0  0  0  0  0
  160.4880  203.4980  150.7780 C   0  0  0  0  0  2  0  0  0  0  0  0
  160.5910  205.7370  150.3910 C   0  0  0  0  0  2  0  0  0  0  0  0
  161.5780  205.8880  151.5580 C   0  0  1  0  0  3  0  0  0  0  0  0
  162.3520  204.7130  151.6950 O   0  0  0  0  0  0  0  0  0  0  0  0
  159.7110  204.6670  150.6500 O   0  0  0  0  0  0  0  0  0  0  0  0
  161.4630  203.6510  151.9520 C   0  0  0  0  0  2  0  0  0  0  0  0
  162.3390  205.1640  148.1270 C   0  0  0  0  0  2  0  0  0  0  0  0
  163.0360  206.5090  148.1320 C   0  0  1  0  0  3  0  0  0  0  0  0
  162.4230  205.9540  146.8380 C   0  0  2  0  0  3  0  0  0  0  0  0
  161.1680  206.5110  146.5540 O   0  0  0  0  0  0  0  0  0  0  0  0
  160.5650  205.6350  145.2310 P   0  0  0  0  0  0  0  0  0  0  0  0
  161.2790  206.1850  143.7990 O   0  0  0  0  0  0  0  0  0  0  0  0
  159.0640  205.7990  145.1440 O   0  0  0  0  0  1  0  0  0  0  0  0
  160.9340  203.9990  145.4380 O   0  0  0  0  0  1  0  0  0  0  0  0
  159.3410  211.0200  152.3530 C   0  0  1  0  0  3  0  0  0  0  0  0
  158.8340  210.3690  153.4830 O   0  0  0  0  0  1  0  0  0  0  0  0
  159.0150  212.5190  152.4380 C   0  0  1  0  0  3  0  0  0  0  0  0
  158.1010  213.3600  154.6480 C   0  0  0  0  0  0  0  0  0  0  0  0
  159.1960  213.0020  153.8010 N   0  0  0  0  0  2  0  0  0  0  0  0
  158.3320  213.7850  155.8080 O   0  0  0  0  0  0  0  0  0  0  0  0
  156.6890  213.2220  154.1820 C   0  0  0  0  0  2  0  0  0  0  0  0
  155.8460  212.5750  155.2630 C   0  0  0  0  0  2  0  0  0  0  0  0
  156.1860  211.1280  155.3620 C   0  0  0  0  0  3  0  0  0  0  0  0
  155.2390  210.2140  155.1840 C   0  0  0  0  0  2  0  0  0  0  0  0
  159.9200  213.3250  151.5130 C   0  0  0  0  0  2  0  0  0  0  0  0
  160.0420  213.4250  149.0730 N   0  0  0  0  0  0  0  0  0  0  0  0
  159.3320  213.4160  150.1860 N   0  0  0  0  0  0  0  0  0  0  0  0
  159.1370  213.4960  148.0810 C   0  0  0  0  0  0  0  0  0  0  0  0
  158.0290  213.4780  149.9600 N   0  0  0  0  0  0  0  0  0  0  0  0
  157.8660  213.5360  148.6230 C   0  0  0  0  0  3  0  0  0  0  0  0
  160.3770  212.3250  144.1340 C   0  0  0  0  0  2  0  0  0  0  0  0
  159.4680  213.5660  146.6290 C   0  0  0  0  0  3  0  0  0  0  0  0
  158.9120  212.6980  144.3450 C   0  0  0  0  0  2  0  0  0  0  0  0
  158.5610  212.6310  145.8280 C   0  0  0  0  0  2  0  0  0  0  0  0
  160.9370  213.2070  146.4080 C   0  0  0  0  0  2  0  0  0  0  0  0
  161.2790  213.2700  144.9220 C   0  0  0  0  0  2  0  0  0  0  0  0
  1 11  1  0  0  0  0
  1 10  1  0  0  0  0
  2  4  2  0  0  0  0
  3 11  2  0  0  0  0
  3  8  1  0  0  0  0
  5  7  2  0  0  0  0
  6  2  1  0  0  0  0
  7  1  1  0  0  0  0
  8 26  1  1  0  0  0
  8  2  1  0  0  0  0
  9  6  2  0  0  0  0
 10 14  1  0  0  0  0
 10  9  1  1  0  0  0
 11  9  1  0  0  0  0
 12 17  1  0  0  0  0
 13 16  1  0  0  0  0
 14 13  1  6  0  0  0
 14 15  1  0  0  0  0
 15 17  1  0  0  0  0
 16 12  1  0  0  0  0
 18 19  1  0  0  0  0
 19  7  1  1  0  0  0
 20 21  1  1  0  0  0
 20 18  1  0  0  0  0
 20 19  1  0  0  0  0
 22 25  1  0  0  0  0
 22 21  1  0  0  0  0
 23 22  2  0  0  0  0
 24 22  1  0  0  0  0
 26 28  1  0  0  0  0
 26 27  1  1  0  0  0
 28 36  1  6  0  0  0
 28 30  1  0  0  0  0
 29 31  2  0  0  0  0
 30 29  1  0  0  0  0
 32 29  1  0  0  0  0
 32 33  1  0  0  0  0
 33 34  1  0  0  0  0
 35 34  2  0  0  0  0
 37 38  1  0  0  0  0
 38 36  1  0  0  0  0
 39 41  1  0  0  0  0
 39 37  2  0  0  0  0
 40 38  1  0  0  0  0
 41 40  2  0  0  0  0
 42 44  1  0  0  0  0
 42 47  1  0  0  0  0
 43 39  1  0  0  0  0
 44 45  1  0  0  0  0
 45 43  1  0  0  0  0
 46 43  1  0  0  0  0
 47 46  1  0  0  0  0
M  END
>  <MODEL>
1

>  <REMARK>
 VINA RESULT:      -5.4      0.000      0.000
  Name = 
  13 active torsions:
  status: ('A' for Active; 'I' for Inactive)
    1  A    between atoms: C_2  and  C_13
    2  A    between atoms: C_2  and  C_17
    3  A    between atoms: C_2  and  N_36
    4  A    between atoms: C_4  and  C_44
    5  A    between atoms: P_7  and  O_33
    6  A    between atoms: N_10  and  C_13
    7  A    between atoms: C_12  and  C_34
    8  A    between atoms: C_14  and  C_43
    9  A    between atoms: C_17  and  C_39
   10  A    between atoms: C_21  and  C_38
   11  A    between atoms: C_23  and  C_41
   12  A    between atoms: C_25  and  O_33
   13  A    between atoms: C_43  and  C_44
                            x       y       z     vdW  Elec       q    Type
                         _______ _______ _______ _____ _____    ______ ____

>  <TORSDO>
F 13

$$$$
=
 OpenBabel11072414283D

 47 52  0  0  1  0  0  0  0  0999 V2000
  160.6970  209.8040  154.2110 N   0  0  0  0  0  0  0  0  0  0  0  0
  162.3470  208.5140  150.7270 C   0  0  0  0  0  0  0  0  0  0  0  0
  161.0560  207.6730  152.7790 N   0  0  0  0  0  0  0  0  0  0  0  0
  163.0480  208.2750  149.7100 O   0  0  0  0  0  0  0  0  0  0  0  0
  159.5520  208.5090  155.7580 O   0  0  0  0  0  0  0  0  0  0  0  0
  162.2800  209.8760  151.2230 N   0  0  0  0  0  0  0  0  0  0  0  0
  160.0700  209.6220  155.4860 C   0  0  0  0  0  0  0  0  0  0  0  0
  161.6020  207.3310  151.4370 C   0  0  1  0  0  3  0  0  0  0  0  0
  161.6780  209.9900  152.3500 C   0  0  0  0  0  0  0  0  0  0  0  0
  161.2560  210.8590  153.4140 C   0  0  1  0  0  3  0  0  0  0  0  0
  161.0900  208.9120  153.1220 C   0  0  0  0  0  0  0  0  0  0  0  0
  158.3920  212.9170  151.1690 C   0  0  0  0  0  2  0  0  0  0  0  0
  160.5820  212.5650  151.6670 C   0  0  0  0  0  2  0  0  0  0  0  0
  160.1680  211.8470  152.9600 C   0  0  1  0  0  3  0  0  0  0  0  0
  158.9190  211.2120  152.7840 O   0  0  0  0  0  0  0  0  0  0  0  0
  159.6330  213.5580  151.3510 O   0  0  0  0  0  0  0  0  0  0  0  0
  157.9780  212.2120  152.4670 C   0  0  0  0  0  2  0  0  0  0  0  0
  159.8260  212.0890  156.0280 C   0  0  0  0  0  2  0  0  0  0  0  0
  160.0770  210.6890  156.5520 C   0  0  1  0  0  3  0  0  0  0  0  0
  158.7090  211.3590  156.7450 C   0  0  2  0  0  3  0  0  0  0  0  0
  157.7610  210.9280  155.8070 O   0  0  0  0  0  0  0  0  0  0  0  0
  156.4010  211.9170  156.0400 P   0  0  0  0  0  0  0  0  0  0  0  0
  155.5470  212.0790  154.5880 O   0  0  0  0  0  0  0  0  0  0  0  0
  156.8310  213.2810  156.5300 O   0  0  0  0  0  1  0  0  0  0  0  0
  155.3930  211.2050  157.1960 O   0  0  0  0  0  1  0  0  0  0  0  0
  160.4900  206.7450  150.5450 C   0  0  1  0  0  3  0  0  0  0  0  0
  160.1180  207.6850  149.5770 O   0  0  0  0  0  1  0  0  0  0  0  0
  160.9320  205.4460  149.8520 C   0  0  1  0  0  3  0  0  0  0  0  0
  161.9750  205.6850  147.5540 C   0  0  0  0  0  0  0  0  0  0  0  0
  162.0720  205.6990  148.9800 N   0  0  0  0  0  2  0  0  0  0  0  0
  163.0030  205.8960  146.8620 O   0  0  0  0  0  0  0  0  0  0  0  0
  160.6680  205.4390  146.8730 C   0  0  0  0  0  2  0  0  0  0  0  0
  160.5080  206.3850  145.6990 C   0  0  0  0  0  2  0  0  0  0  0  0
  160.9020  205.6930  144.4410 C   0  0  0  0  0  3  0  0  0  0  0  0
  160.7980  204.3720  144.3540 C   0  0  0  0  0  2  0  0  0  0  0  0
  161.3310  204.3920  150.8780 C   0  0  0  0  0  2  0  0  0  0  0  0
  160.8740  202.8250  149.0580 N   0  0  0  0  0  0  0  0  0  0  0  0
  161.1470  203.0590  150.3290 N   0  0  0  0  0  0  0  0  0  0  0  0
  160.8050  201.4860  148.9560 C   0  0  0  0  0  0  0  0  0  0  0  0
  161.2530  201.9480  151.0400 N   0  0  0  0  0  0  0  0  0  0  0  0
  161.0350  200.9190  150.1960 C   0  0  0  0  0  3  0  0  0  0  0  0
  161.0320  200.0530  144.9080 C   0  0  0  0  0  2  0  0  0  0  0  0
  160.4840  200.7430  147.7040 C   0  0  0  0  0  3  0  0  0  0  0  0
  161.3080  199.0640  146.0360 C   0  0  0  0  0  2  0  0  0  0  0  0
  161.6360  199.8120  147.3240 C   0  0  0  0  0  2  0  0  0  0  0  0
  160.1920  201.7260  146.5700 C   0  0  0  0  0  2  0  0  0  0  0  0
  159.8710  200.9690  145.2850 C   0  0  0  0  0  2  0  0  0  0  0  0
  1  7  1  0  0  0  0
  2  6  1  0  0  0  0
  2  8  1  0  0  0  0
  3 11  2  0  0  0  0
  4  2  2  0  0  0  0
  6  9  2  0  0  0  0
  7  5  2  0  0  0  0
  8 26  1  6  0  0  0
  8  3  1  0  0  0  0
  9 11  1  0  0  0  0
 10  9  1  6  0  0  0
 10  1  1  0  0  0  0
 11  1  1  0  0  0  0
 12 16  1  0  0  0  0
 12 17  1  0  0  0  0
 14 13  1  6  0  0  0
 14 10  1  0  0  0  0
 15 14  1  0  0  0  0
 16 13  1  0  0  0  0
 17 15  1  0  0  0  0
 18 19  1  0  0  0  0
 18 20  1  0  0  0  0
 19  7  1  6  0  0  0
 19 20  1  0  0  0  0
 20 21  1  6  0  0  0
 21 22  1  0  0  0  0
 22 24  1  0  0  0  0
 22 25  1  0  0  0  0
 23 22  2  0  0  0  0
 26 27  1  6  0  0  0
 28 26  1  0  0  0  0
 28 36  1  1  0  0  0
 29 30  1  0  0  0  0
 30 28  1  0  0  0  0
 31 29  2  0  0  0  0
 32 29  1  0  0  0  0
 33 32  1  0  0  0  0
 34 33  1  0  0  0  0
 35 34  2  0  0  0  0
 37 38  1  0  0  0  0
 38 36  1  0  0  0  0
 38 40  1  0  0  0  0
 39 37  2  0  0  0  0
 39 41  1  0  0  0  0
 41 40  2  0  0  0  0
 42 47  1  0  0  0  0
 42 44  1  0  0  0  0
 43 39  1  0  0  0  0
 44 45  1  0  0  0  0
 45 43  1  0  0  0  0
 46 43  1  0  0  0  0
 47 46  1  0  0  0  0
M  END
>  <MODEL>
2

>  <REMARK>
 VINA RESULT:      -5.2      3.744     10.045
  Name = 
  13 active torsions:
  status: ('A' for Active; 'I' for Inactive)
    1  A    between atoms: C_2  and  C_13
    2  A    between atoms: C_2  and  C_17
    3  A    between atoms: C_2  and  N_36
    4  A    between atoms: C_4  and  C_44
    5  A    between atoms: P_7  and  O_33
    6  A    between atoms: N_10  and  C_13
    7  A    between atoms: C_12  and  C_34
    8  A    between atoms: C_14  and  C_43
    9  A    between atoms: C_17  and  C_39
   10  A    between atoms: C_21  and  C_38
   11  A    between atoms: C_23  and  C_41
   12  A    between atoms: C_25  and  O_33
   13  A    between atoms: C_43  and  C_44
                            x       y       z     vdW  Elec       q    Type
                         _______ _______ _______ _____ _____    ______ ____

>  <TORSDO>
F 13

$$$$
=
 OpenBabel11072414283D

 47 52  0  0  1  0  0  0  0  0999 V2000
  160.3650  211.3400  153.4000 N   0  0  0  0  0  0  0  0  0  0  0  0
  161.9600  211.2660  149.6620 C   0  0  0  0  0  0  0  0  0  0  0  0
  161.5840  209.7840  151.7240 N   0  0  0  0  0  0  0  0  0  0  0  0
  162.5400  211.4770  148.5650 O   0  0  0  0  0  0  0  0  0  0  0  0
  160.2800  209.5720  154.8990 O   0  0  0  0  0  0  0  0  0  0  0  0
  161.2620  212.3640  150.3040 N   0  0  0  0  0  0  0  0  0  0  0  0
  160.1020  210.8020  154.7010 C   0  0  0  0  0  0  0  0  0  0  0  0
  162.0430  209.8390  150.3080 C   0  0  1  0  0  3  0  0  0  0  0  0
  160.8460  212.0950  151.4870 C   0  0  0  0  0  0  0  0  0  0  0  0
  160.1810  212.5630  152.6720 C   0  0  1  0  0  3  0  0  0  0  0  0
  161.0150  210.8380  152.1910 C   0  0  0  0  0  0  0  0  0  0  0  0
  156.5660  214.3350  151.5440 C   0  0  0  0  0  2  0  0  0  0  0  0
  158.2750  214.1920  153.0370 C   0  0  0  0  0  2  0  0  0  0  0  0
  158.6880  212.8440  152.4270 C   0  0  1  0  0  3  0  0  0  0  0  0
  158.3650  212.8140  151.0520 O   0  0  0  0  0  0  0  0  0  0  0  0
  156.8800  214.3590  152.9170 O   0  0  0  0  0  0  0  0  0  0  0  0
  156.9700  212.9830  150.9440 C   0  0  0  0  0  2  0  0  0  0  0  0
  158.8490  212.8630  155.4880 C   0  0  0  0  0  2  0  0  0  0  0  0
  159.6960  211.6650  155.8690 C   0  0  1  0  0  3  0  0  0  0  0  0
  158.1820  211.6620  156.1250 C   0  0  2  0  0  3  0  0  0  0  0  0
  157.4710  210.9540  155.1460 O   0  0  0  0  0  0  0  0  0  0  0  0
  155.8300  211.2600  155.4560 P   0  0  0  0  0  0  0  0  0  0  0  0
  155.2620  212.4740  154.4240 O   0  0  0  0  0  0  0  0  0  0  0  0
  155.6480  211.6900  156.8940 O   0  0  0  0  0  1  0  0  0  0  0  0
  154.9450  209.8450  155.1840 O   0  0  0  0  0  1  0  0  0  0  0  0
  161.2900  208.7910  149.4650 C   0  0  1  0  0  3  0  0  0  0  0  0
  161.1920  209.2340  148.1410 O   0  0  0  0  0  1  0  0  0  0  0  0
  161.9860  207.4210  149.4940 C   0  0  1  0  0  3  0  0  0  0  0  0
  161.0750  205.2900  150.5190 C   0  0  0  0  0  0  0  0  0  0  0  0
  160.9990  206.3520  149.5650 N   0  0  0  0  0  2  0  0  0  0  0  0
  160.1970  204.3900  150.5130 O   0  0  0  0  0  0  0  0  0  0  0  0
  162.1720  205.2400  151.5320 C   0  0  0  0  0  2  0  0  0  0  0  0
  161.9680  206.3250  152.5720 C   0  0  0  0  0  2  0  0  0  0  0  0
  161.1300  205.7990  153.6840 C   0  0  0  0  0  3  0  0  0  0  0  0
  160.5760  206.6410  154.5490 C   0  0  0  0  0  2  0  0  0  0  0  0
  162.8340  207.2170  148.2440 C   0  0  0  0  0  2  0  0  0  0  0  0
  162.3560  204.9680  147.4150 N   0  0  0  0  0  0  0  0  0  0  0  0
  162.1880  206.2760  147.3440 N   0  0  0  0  0  0  0  0  0  0  0  0
  161.5800  204.4630  146.4380 C   0  0  0  0  0  0  0  0  0  0  0  0
  161.3540  206.6310  146.3810 N   0  0  0  0  0  0  0  0  0  0  0  0
  160.9470  205.4970  145.7750 C   0  0  0  0  0  3  0  0  0  0  0  0
  159.9990  200.4760  146.1270 C   0  0  0  0  0  2  0  0  0  0  0  0
  161.4660  203.0140  146.1050 C   0  0  0  0  0  3  0  0  0  0  0  0
  160.1580  201.2870  144.8440 C   0  0  0  0  0  2  0  0  0  0  0  0
  160.2780  202.7720  145.1730 C   0  0  0  0  0  2  0  0  0  0  0  0
  161.3190  202.1910  147.3840 C   0  0  0  0  0  2  0  0  0  0  0  0
  161.1940  200.7080  147.0470 C   0  0  0  0  0  2  0  0  0  0  0  0
  1  7  1  0  0  0  0
  2  6  1  0  0  0  0
  2  8  1  0  0  0  0
  3 11  2  0  0  0  0
  4  2  2  0  0  0  0
  6  9  2  0  0  0  0
  7  5  2  0  0  0  0
  8 26  1  6  0  0  0
  8  3  1  0  0  0  0
  9 11  1  0  0  0  0
 10  9  1  6  0  0  0
 10  1  1  0  0  0  0
 11  1  1  0  0  0  0
 12 16  1  0  0  0  0
 14 10  1  0  0  0  0
 14 13  1  6  0  0  0
 15 14  1  0  0  0  0
 16 13  1  0  0  0  0
 17 15  1  0  0  0  0
 17 12  1  0  0  0  0
 18 19  1  0  0  0  0
 18 20  1  0  0  0  0
 19  7  1  6  0  0  0
 19 20  1  0  0  0  0
 20 21  1  6  0  0  0
 21 22  1  0  0  0  0
 22 24  1  0  0  0  0
 23 22  2  0  0  0  0
 25 22  1  0  0  0  0
 26 27  1  6  0  0  0
 26 28  1  0  0  0  0
 28 36  1  6  0  0  0
 28 30  1  0  0  0  0
 29 32  1  0  0  0  0
 30 29  1  0  0  0  0
 31 29  2  0  0  0  0
 32 33  1  0  0  0  0
 33 34  1  0  0  0  0
 34 35  2  0  0  0  0
 38 37  1  0  0  0  0
 38 36  1  0  0  0  0
 39 37  2  0  0  0  0
 40 38  1  0  0  0  0
 41 40  2  0  0  0  0
 41 39  1  0  0  0  0
 42 47  1  0  0  0  0
 43 39  1  0  0  0  0
 43 46  1  0  0  0  0
 44 45  1  0  0  0  0
 44 42  1  0  0  0  0
 45 43  1  0  0  0  0
 47 46  1  0  0  0  0
M  END
>  <MODEL>
3

>  <REMARK>
 VINA RESULT:      -5.0      3.427      9.093
  Name = 
  13 active torsions:
  status: ('A' for Active; 'I' for Inactive)
    1  A    between atoms: C_2  and  C_13
    2  A    between atoms: C_2  and  C_17
    3  A    between atoms: C_2  and  N_36
    4  A    between atoms: C_4  and  C_44
    5  A    between atoms: P_7  and  O_33
    6  A    between atoms: N_10  and  C_13
    7  A    between atoms: C_12  and  C_34
    8  A    between atoms: C_14  and  C_43
    9  A    between atoms: C_17  and  C_39
   10  A    between atoms: C_21  and  C_38
   11  A    between atoms: C_23  and  C_41
   12  A    between atoms: C_25  and  O_33
   13  A    between atoms: C_43  and  C_44
                            x       y       z     vdW  Elec       q    Type
                         _______ _______ _______ _____ _____    ______ ____

>  <TORSDO>
F 13

$$$$
=
 OpenBabel11072414283D

 47 52  0  0  1  0  0  0  0  0999 V2000
  159.6690  213.1650  151.2090 N   0  0  0  0  0  0  0  0  0  0  0  0
  162.4380  211.6040  148.6750 C   0  0  0  0  0  0  0  0  0  0  0  0
  161.0880  211.0380  150.7830 N   0  0  0  0  0  0  0  0  0  0  0  0
  163.3950  211.3570  147.8970 O   0  0  0  0  0  0  0  0  0  0  0  0
  158.7310  212.1080  153.0480 O   0  0  0  0  0  0  0  0  0  0  0  0
  161.7760  212.8920  148.5780 N   0  0  0  0  0  0  0  0  0  0  0  0
  158.8680  213.1750  152.3960 C   0  0  0  0  0  0  0  0  0  0  0  0
  162.0190  210.5300  149.7370 C   0  0  1  0  0  3  0  0  0  0  0  0
  160.9270  213.1120  149.5130 C   0  0  0  0  0  0  0  0  0  0  0  0
  159.9860  214.0240  150.1040 C   0  0  1  0  0  3  0  0  0  0  0  0
  160.5980  212.2130  150.6030 C   0  0  0  0  0  0  0  0  0  0  0  0
  156.9650  213.5720  147.2490 C   0  0  0  0  0  2  0  0  0  0  0  0
  159.1240  214.1070  147.7230 C   0  0  0  0  0  2  0  0  0  0  0  0
  158.7570  214.2520  149.2080 C   0  0  1  0  0  3  0  0  0  0  0  0
  157.6970  213.3760  149.5340 O   0  0  0  0  0  0  0  0  0  0  0  0
  158.0150  214.4530  146.9250 O   0  0  0  0  0  0  0  0  0  0  0  0
  156.5950  213.7300  148.7300 C   0  0  0  0  0  2  0  0  0  0  0  0
  156.7450  214.3470  153.1400 C   0  0  0  0  0  2  0  0  0  0  0  0
  158.2450  214.4350  152.9440 C   0  0  1  0  0  3  0  0  0  0  0  0
  157.6520  214.2540  154.3490 C   0  0  2  0  0  3  0  0  0  0  0  0
  157.7030  212.9240  154.7880 O   0  0  0  0  0  0  0  0  0  0  0  0
  158.2510  212.9890  156.3940 P   0  0  0  0  0  0  0  0  0  0  0  0
  157.3770  214.1530  157.2570 O   0  0  0  0  0  1  0  0  0  0  0  0
  159.7230  213.3360  156.4230 O   0  0  0  0  0  0  0  0  0  0  0  0
  158.0220  211.4790  157.1170 O   0  0  0  0  0  1  0  0  0  0  0  0
  161.4300  209.2710  149.0690 C   0  0  1  0  0  3  0  0  0  0  0  0
  161.4680  209.4160  147.6780 O   0  0  0  0  0  1  0  0  0  0  0  0
  162.1900  207.9980  149.4710 C   0  0  1  0  0  3  0  0  0  0  0  0
  161.1920  206.4970  151.2520 C   0  0  0  0  0  0  0  0  0  0  0  0
  161.2580  206.9650  149.9040 N   0  0  0  0  0  2  0  0  0  0  0  0
  160.3730  205.5910  151.5520 O   0  0  0  0  0  0  0  0  0  0  0  0
  162.0700  207.0760  152.3130 C   0  0  0  0  0  2  0  0  0  0  0  0
  161.4440  208.3390  152.8720 C   0  0  0  0  0  2  0  0  0  0  0  0
  160.6920  208.0160  154.1160 C   0  0  0  0  0  3  0  0  0  0  0  0
  160.9410  206.8830  154.7630 C   0  0  0  0  0  2  0  0  0  0  0  0
  163.0030  207.4580  148.3000 C   0  0  0  0  0  2  0  0  0  0  0  0
  162.0620  205.2080  148.1340 N   0  0  0  0  0  0  0  0  0  0  0  0
  162.2670  206.4060  147.6180 N   0  0  0  0  0  0  0  0  0  0  0  0
  161.3330  204.5510  147.2140 C   0  0  0  0  0  0  0  0  0  0  0  0
  161.7130  206.5480  146.4240 N   0  0  0  0  0  0  0  0  0  0  0  0
  161.1100  205.3790  146.1300 C   0  0  0  0  0  3  0  0  0  0  0  0
  161.4300  200.2560  147.4140 C   0  0  0  0  0  2  0  0  0  0  0  0
  160.8820  203.1350  147.3370 C   0  0  0  0  0  3  0  0  0  0  0  0
  161.0600  201.0260  148.6790 C   0  0  0  0  0  2  0  0  0  0  0  0
  161.5150  202.4770  148.5640 C   0  0  0  0  0  2  0  0  0  0  0  0
  161.2360  202.3590  146.0700 C   0  0  0  0  0  2  0  0  0  0  0  0
  160.7820  200.9070  146.1950 C   0  0  0  0  0  2  0  0  0  0  0  0
  1  7  1  0  0  0  0
  2  8  1  0  0  0  0
  4  2  2  0  0  0  0
  6  2  1  0  0  0  0
  6  9  2  0  0  0  0
  7  5  2  0  0  0  0
  8 26  1  6  0  0  0
  8  3  1  0  0  0  0
  9 11  1  0  0  0  0
 10  9  1  6  0  0  0
 10  1  1  0  0  0  0
 11  3  2  0  0  0  0
 11  1  1  0  0  0  0
 12 17  1  0  0  0  0
 14 13  1  6  0  0  0
 14 15  1  0  0  0  0
 14 10  1  0  0  0  0
 16 12  1  0  0  0  0
 16 13  1  0  0  0  0
 17 15  1  0  0  0  0
 18 20  1  0  0  0  0
 19  7  1  6  0  0  0
 19 18  1  0  0  0  0
 19 20  1  0  0  0  0
 20 21  1  6  0  0  0
 21 22  1  0  0  0  0
 22 24  2  0  0  0  0
 22 25  1  0  0  0  0
 22 23  1  0  0  0  0
 26 27  1  6  0  0  0
 26 28  1  0  0  0  0
 28 36  1  6  0  0  0
 28 30  1  0  0  0  0
 29 31  2  0  0  0  0
 29 32  1  0  0  0  0
 30 29  1  0  0  0  0
 32 33  1  0  0  0  0
 33 34  1  0  0  0  0
 34 35  2  0  0  0  0
 38 37  1  0  0  0  0
 38 36  1  0  0  0  0
 39 43  1  0  0  0  0
 39 37  2  0  0  0  0
 40 38  1  0  0  0  0
 41 40  2  0  0  0  0
 41 39  1  0  0  0  0
 42 44  1  0  0  0  0
 43 45  1  0  0  0  0
 45 44  1  0  0  0  0
 46 47  1  0  0  0  0
 46 43  1  0  0  0  0
 47 42  1  0  0  0  0
M  END
>  <MODEL>
4

>  <REMARK>
 VINA RESULT:      -4.8      3.216      9.362
  Name = 
  13 active torsions:
  status: ('A' for Active; 'I' for Inactive)
    1  A    between atoms: C_2  and  C_13
    2  A    between atoms: C_2  and  C_17
    3  A    between atoms: C_2  and  N_36
    4  A    between atoms: C_4  and  C_44
    5  A    between atoms: P_7  and  O_33
    6  A    between atoms: N_10  and  C_13
    7  A    between atoms: C_12  and  C_34
    8  A    between atoms: C_14  and  C_43
    9  A    between atoms: C_17  and  C_39
   10  A    between atoms: C_21  and  C_38
   11  A    between atoms: C_23  and  C_41
   12  A    between atoms: C_25  and  O_33
   13  A    between atoms: C_43  and  C_44
                            x       y       z     vdW  Elec       q    Type
                         _______ _______ _______ _____ _____    ______ ____

>  <TORSDO>
F 13

$$$$
=
 OpenBabel11072414283D

 47 52  0  0  1  0  0  0  0  0999 V2000
  159.9390  211.0010  154.5190 N   0  0  0  0  0  0  0  0  0  0  0  0
  160.8270  207.2350  153.2710 C   0  0  0  0  0  0  0  0  0  0  0  0
  160.4640  209.6180  152.3900 N   0  0  0  0  0  0  0  0  0  0  0  0
  160.9240  205.9990  153.0560 O   0  0  0  0  0  0  0  0  0  0  0  0
  159.7640  212.8900  153.1850 O   0  0  0  0  0  0  0  0  0  0  0  0
  160.6340  207.6920  154.6340 N   0  0  0  0  0  0  0  0  0  0  0  0
  159.5970  212.3770  154.3220 C   0  0  0  0  0  0  0  0  0  0  0  0
  160.8830  208.2280  152.0590 C   0  0  1  0  0  3  0  0  0  0  0  0
  160.3830  208.9460  154.7320 C   0  0  0  0  0  0  0  0  0  0  0  0
  160.0740  210.0560  155.5910 C   0  0  1  0  0  3  0  0  0  0  0  0
  160.2850  209.8890  153.6340 C   0  0  0  0  0  0  0  0  0  0  0  0
  163.8630  211.0560  157.0480 C   0  0  0  0  0  2  0  0  0  0  0  0
  162.4270  209.4540  156.3140 C   0  0  0  0  0  2  0  0  0  0  0  0
  161.2520  210.4240  156.5100 C   0  0  1  0  0  3  0  0  0  0  0  0
  161.6820  211.7550  156.3080 O   0  0  0  0  0  0  0  0  0  0  0  0
  163.4340  209.7320  157.2610 O   0  0  0  0  0  0  0  0  0  0  0  0
  162.6890  212.0210  157.2580 C   0  0  0  0  0  2  0  0  0  0  0  0
  157.6430  213.8410  155.0110 C   0  0  0  0  0  2  0  0  0  0  0  0
  158.9680  213.2190  155.4040 C   0  0  1  0  0  3  0  0  0  0  0  0
  157.6490  212.6380  155.9310 C   0  0  2  0  0  3  0  0  0  0  0  0
  157.2340  211.5060  155.2150 O   0  0  0  0  0  0  0  0  0  0  0  0
  155.5650  211.3690  155.4960 P   0  0  0  0  0  0  0  0  0  0  0  0
  155.2540  211.4020  157.1590 O   0  0  0  0  0  1  0  0  0  0  0  0
  155.0460  210.0760  154.9090 O   0  0  0  0  0  1  0  0  0  0  0  0
  154.7730  212.6700  154.7610 O   0  0  0  0  0  0  0  0  0  0  0  0
  162.2750  208.2360  151.3970 C   0  0  1  0  0  3  0  0  0  0  0  0
  162.6470  206.9280  151.0670 O   0  0  0  0  0  1  0  0  0  0  0  0
  162.3070  209.1100  150.1340 C   0  0  1  0  0  3  0  0  0  0  0  0
  161.2990  207.6610  148.3150 C   0  0  0  0  0  0  0  0  0  0  0  0
  161.2150  208.7480  149.2390 N   0  0  0  0  0  2  0  0  0  0  0  0
  160.3240  207.4150  147.5600 O   0  0  0  0  0  0  0  0  0  0  0  0
  162.5200  206.8030  148.2420 C   0  0  0  0  0  2  0  0  0  0  0  0
  162.3730  205.7840  147.1290 C   0  0  0  0  0  2  0  0  0  0  0  0
  161.5660  204.6290  147.6130 C   0  0  0  0  0  3  0  0  0  0  0  0
  161.3220  203.6080  146.8000 C   0  0  0  0  0  2  0  0  0  0  0  0
  162.1740  210.5860  150.4910 C   0  0  0  0  0  2  0  0  0  0  0  0
  160.6780  211.9330  149.1050 N   0  0  0  0  0  0  0  0  0  0  0  0
  161.8530  211.3640  149.3060 N   0  0  0  0  0  0  0  0  0  0  0  0
  160.7950  212.5670  147.9240 C   0  0  0  0  0  0  0  0  0  0  0  0
  162.7070  211.5980  148.3240 N   0  0  0  0  0  0  0  0  0  0  0  0
  162.0640  212.3610  147.4170 C   0  0  0  0  0  3  0  0  0  0  0  0
  156.9740  213.5330  146.2030 C   0  0  0  0  0  2  0  0  0  0  0  0
  159.7030  213.3310  147.2550 C   0  0  0  0  0  3  0  0  0  0  0  0
  157.3780  214.2380  147.4940 C   0  0  0  0  0  2  0  0  0  0  0  0
  158.4970  213.4660  148.1870 C   0  0  0  0  0  2  0  0  0  0  0  0
  159.3000  212.6400  145.9530 C   0  0  0  0  0  2  0  0  0  0  0  0
  158.1760  213.4150  145.2700 C   0  0  0  0  0  2  0  0  0  0  0  0
  1 10  1  0  0  0  0
  2  6  1  0  0  0  0
  3 11  2  0  0  0  0
  4  2  2  0  0  0  0
  5  7  2  0  0  0  0
  6  9  2  0  0  0  0
  7  1  1  0  0  0  0
  8 26  1  1  0  0  0
  8  3  1  0  0  0  0
  8  2  1  0  0  0  0
 10  9  1  6  0  0  0
 10 14  1  0  0  0  0
 11  1  1  0  0  0  0
 11  9  1  0  0  0  0
 12 17  1  0  0  0  0
 12 16  1  0  0  0  0
 13 16  1  0  0  0  0
 14 13  1  6  0  0  0
 15 14  1  0  0  0  0
 15 17  1  0  0  0  0
 18 19  1  0  0  0  0
 18 20  1  0  0  0  0
 19  7  1  6  0  0  0
 19 20  1  0  0  0  0
 20 21  1  6  0  0  0
 21 22  1  0  0  0  0
 22 23  1  0  0  0  0
 24 22  1  0  0  0  0
 25 22  2  0  0  0  0
 26 27  1  6  0  0  0
 28 36  1  1  0  0  0
 28 26  1  0  0  0  0
 29 30  1  0  0  0  0
 30 28  1  0  0  0  0
 31 29  2  0  0  0  0
 32 29  1  0  0  0  0
 33 34  1  0  0  0  0
 33 32  1  0  0  0  0
 35 34  2  0  0  0  0
 37 38  1  0  0  0  0
 38 36  1  0  0  0  0
 39 37  2  0  0  0  0
 40 38  1  0  0  0  0
 41 39  1  0  0  0  0
 41 40  2  0  0  0  0
 42 44  1  0  0  0  0
 43 39  1  0  0  0  0
 43 45  1  0  0  0  0
 44 45  1  0  0  0  0
 46 43  1  0  0  0  0
 47 46  1  0  0  0  0
 47 42  1  0  0  0  0
M  END
>  <MODEL>
5

>  <REMARK>
 VINA RESULT:      -4.4      2.905      7.930
  Name = 
  13 active torsions:
  status: ('A' for Active; 'I' for Inactive)
    1  A    between atoms: C_2  and  C_13
    2  A    between atoms: C_2  and  C_17
    3  A    between atoms: C_2  and  N_36
    4  A    between atoms: C_4  and  C_44
    5  A    between atoms: P_7  and  O_33
    6  A    between atoms: N_10  and  C_13
    7  A    between atoms: C_12  and  C_34
    8  A    between atoms: C_14  and  C_43
    9  A    between atoms: C_17  and  C_39
   10  A    between atoms: C_21  and  C_38
   11  A    between atoms: C_23  and  C_41
   12  A    between atoms: C_25  and  O_33
   13  A    between atoms: C_43  and  C_44
                            x       y       z     vdW  Elec       q    Type
                         _______ _______ _______ _____ _____    ______ ____

>  <TORSDO>
F 13

$$$$
=
 OpenBabel11072414283D

 47 52  0  0  1  0  0  0  0  0999 V2000
  160.6890  210.4350  154.3750 N   0  0  0  0  0  0  0  0  0  0  0  0
  161.2330  206.5110  153.4620 C   0  0  0  0  0  0  0  0  0  0  0  0
  160.4830  208.7370  152.4280 N   0  0  0  0  0  0  0  0  0  0  0  0
  161.2990  205.2560  153.4110 O   0  0  0  0  0  0  0  0  0  0  0  0
  159.9740  212.1020  152.9300 O   0  0  0  0  0  0  0  0  0  0  0  0
  161.5160  207.1740  154.7210 N   0  0  0  0  0  0  0  0  0  0  0  0
  160.2430  211.7700  154.1130 C   0  0  0  0  0  0  0  0  0  0  0  0
  160.8140  207.3070  152.1770 C   0  0  1  0  0  3  0  0  0  0  0  0
  161.2650  208.4310  154.7160 C   0  0  0  0  0  0  0  0  0  0  0  0
  161.2350  209.6640  155.4560 C   0  0  1  0  0  3  0  0  0  0  0  0
  160.7450  209.1980  153.5990 C   0  0  0  0  0  0  0  0  0  0  0  0
  164.6540  212.0060  156.0020 C   0  0  0  0  0  2  0  0  0  0  0  0
  163.3570  210.7600  154.6110 C   0  0  0  0  0  2  0  0  0  0  0  0
  162.6450  210.1510  155.8290 C   0  0  1  0  0  3  0  0  0  0  0  0
  162.6170  211.0820  156.8910 O   0  0  0  0  0  0  0  0  0  0  0  0
  164.6900  211.0720  154.9490 O   0  0  0  0  0  0  0  0  0  0  0  0
  163.9530  211.3880  157.2190 C   0  0  0  0  0  2  0  0  0  0  0  0
  158.9990  213.8530  154.8550 C   0  0  0  0  0  2  0  0  0  0  0  0
  160.0030  212.7760  155.2110 C   0  0  1  0  0  3  0  0  0  0  0  0
  158.5760  212.7270  155.7750 C   0  0  2  0  0  3  0  0  0  0  0  0
  157.7490  211.8400  155.0710 O   0  0  0  0  0  0  0  0  0  0  0  0
  156.1620  212.2160  155.5450 P   0  0  0  0  0  0  0  0  0  0  0  0
  155.3120  212.8840  154.2430 O   0  0  0  0  0  0  0  0  0  0  0  0
  156.1850  213.1990  156.6940 O   0  0  0  0  0  1  0  0  0  0  0  0
  155.3850  210.7990  156.0420 O   0  0  0  0  0  1  0  0  0  0  0  0
  161.8800  207.1950  151.0690 C   0  0  1  0  0  3  0  0  0  0  0  0
  162.8580  206.2690  151.4480 O   0  0  0  0  0  1  0  0  0  0  0  0
  161.2700  206.7720  149.7240 C   0  0  1  0  0  3  0  0  0  0  0  0
  162.2600  206.1180  147.4840 C   0  0  0  0  0  0  0  0  0  0  0  0
  162.2610  206.0760  148.9130 N   0  0  0  0  0  2  0  0  0  0  0  0
  163.1360  205.4810  146.8470 O   0  0  0  0  0  0  0  0  0  0  0  0
  161.2440  206.9190  146.7370 C   0  0  0  0  0  2  0  0  0  0  0  0
  160.3310  205.9970  145.9530 C   0  0  0  0  0  2  0  0  0  0  0  0
  160.8740  205.8060  144.5800 C   0  0  0  0  0  3  0  0  0  0  0  0
  161.3950  204.6340  144.2330 C   0  0  0  0  0  2  0  0  0  0  0  0
  160.0790  205.8440  149.9370 C   0  0  0  0  0  2  0  0  0  0  0  0
  160.1020  203.7750  148.6350 N   0  0  0  0  0  0  0  0  0  0  0  0
  160.4670  204.4630  149.7010 N   0  0  0  0  0  0  0  0  0  0  0  0
  160.6780  202.5690  148.7830 C   0  0  0  0  0  0  0  0  0  0  0  0
  161.2400  203.7650  150.5170 N   0  0  0  0  0  0  0  0  0  0  0  0
  161.3930  202.5450  149.9650 C   0  0  0  0  0  3  0  0  0  0  0  0
  161.5390  199.7130  145.6850 C   0  0  0  0  0  2  0  0  0  0  0  0
  160.5230  201.4290  147.8340 C   0  0  0  0  0  3  0  0  0  0  0  0
  161.4320  199.2050  147.1200 C   0  0  0  0  0  2  0  0  0  0  0  0
  161.5870  200.3630  148.1010 C   0  0  0  0  0  2  0  0  0  0  0  0
  160.6150  201.9290  146.3930 C   0  0  0  0  0  2  0  0  0  0  0  0
  160.4650  200.7640  145.4190 C   0  0  0  0  0  2  0  0  0  0  0  0
  1 10  1  0  0  0  0
  2  6  1  0  0  0  0
  3 11  2  0  0  0  0
  4  2  2  0  0  0  0
  5  7  2  0  0  0  0
  7  1  1  0  0  0  0
  8 26  1  6  0  0  0
  8  3  1  0  0  0  0
  8  2  1  0  0  0  0
  9  6  2  0  0  0  0
 10  9  1  6  0  0  0
 10 14  1  0  0  0  0
 11  1  1  0  0  0  0
 11  9  1  0  0  0  0
 12 17  1  0  0  0  0
 13 16  1  0  0  0  0
 14 13  1  6  0  0  0
 14 15  1  0  0  0  0
 15 17  1  0  0  0  0
 16 12  1  0  0  0  0
 18 19  1  0  0  0  0
 18 20  1  0  0  0  0
 19  7  1  6  0  0  0
 19 20  1  0  0  0  0
 20 21  1  6  0  0  0
 21 22  1  0  0  0  0
 22 25  1  0  0  0  0
 22 24  1  0  0  0  0
 23 22  2  0  0  0  0
 26 27  1  1  0  0  0
 28 36  1  1  0  0  0
 28 26  1  0  0  0  0
 29 30  1  0  0  0  0
 30 28  1  0  0  0  0
 31 29  2  0  0  0  0
 32 29  1  0  0  0  0
 33 32  1  0  0  0  0
 34 33  1  0  0  0  0
 35 34  2  0  0  0  0
 37 39  2  0  0  0  0
 37 38  1  0  0  0  0
 38 36  1  0  0  0  0
 38 40  1  0  0  0  0
 39 41  1  0  0  0  0
 41 40  2  0  0  0  0
 42 44  1  0  0  0  0
 43 45  1  0  0  0  0
 43 39  1  0  0  0  0
 44 45  1  0  0  0  0
 46 43  1  0  0  0  0
 47 42  1  0  0  0  0
 47 46  1  0  0  0  0
M  END
>  <MODEL>
6

>  <REMARK>
 VINA RESULT:      -4.4      4.110      9.843
  Name = 
  13 active torsions:
  status: ('A' for Active; 'I' for Inactive)
    1  A    between atoms: C_2  and  C_13
    2  A    between atoms: C_2  and  C_17
    3  A    between atoms: C_2  and  N_36
    4  A    between atoms: C_4  and  C_44
    5  A    between atoms: P_7  and  O_33
    6  A    between atoms: N_10  and  C_13
    7  A    between atoms: C_12  and  C_34
    8  A    between atoms: C_14  and  C_43
    9  A    between atoms: C_17  and  C_39
   10  A    between atoms: C_21  and  C_38
   11  A    between atoms: C_23  and  C_41
   12  A    between atoms: C_25  and  O_33
   13  A    between atoms: C_43  and  C_44
                            x       y       z     vdW  Elec       q    Type
                         _______ _______ _______ _____ _____    ______ ____

>  <TORSDO>
F 13

$$$$
=
 OpenBabel11072414283D

 47 52  0  0  1  0  0  0  0  0999 V2000
  161.4270  209.0330  152.8320 N   0  0  0  0  0  0  0  0  0  0  0  0
  160.0240  212.3420  154.7320 C   0  0  0  0  0  0  0  0  0  0  0  0
  159.8350  211.0550  152.5200 N   0  0  0  0  0  0  0  0  0  0  0  0
  159.8330  213.3910  155.4000 O   0  0  0  0  0  0  0  0  0  0  0  0
  160.8370  208.3070  150.7090 O   0  0  0  0  0  0  0  0  0  0  0  0
  160.9260  211.3360  155.2590 N   0  0  0  0  0  0  0  0  0  0  0  0
  161.5980  208.1710  151.7010 C   0  0  0  0  0  0  0  0  0  0  0  0
  159.3110  212.1780  153.3450 C   0  0  1  0  0  3  0  0  0  0  0  0
  161.1820  210.3850  154.4370 C   0  0  0  0  0  0  0  0  0  0  0  0
  161.9030  209.1680  154.1790 C   0  0  1  0  0  3  0  0  0  0  0  0
  160.6610  210.2520  153.0900 C   0  0  0  0  0  0  0  0  0  0  0  0
  160.1490  206.9110  157.2290 C   0  0  0  0  0  2  0  0  0  0  0  0
  161.8980  208.1710  156.5090 C   0  0  0  0  0  2  0  0  0  0  0  0
  161.4140  208.0060  155.0600 C   0  0  1  0  0  3  0  0  0  0  0  0
  160.0080  207.8770  155.0290 O   0  0  0  0  0  0  0  0  0  0  0  0
  161.5520  207.0280  157.2570 O   0  0  0  0  0  0  0  0  0  0  0  0
  159.6730  206.7340  155.7820 C   0  0  0  0  0  2  0  0  0  0  0  0
  162.3130  205.7650  152.0700 C   0  0  0  0  0  2  0  0  0  0  0  0
  162.7110  207.1560  151.6170 C   0  0  1  0  0  3  0  0  0  0  0  0
  162.4410  206.0490  150.5880 C   0  0  2  0  0  3  0  0  0  0  0  0
  161.1620  206.1390  150.0220 O   0  0  0  0  0  0  0  0  0  0  0  0
  161.3190  205.5610  148.4330 P   0  0  0  0  0  0  0  0  0  0  0  0
  160.8740  203.9300  148.3640 O   0  0  0  0  0  1  0  0  0  0  0  0
  162.7490  205.7180  147.9660 O   0  0  0  0  0  1  0  0  0  0  0  0
  160.3030  206.4540  147.4190 O   0  0  0  0  0  0  0  0  0  0  0  0
  157.7830  212.0520  153.5050 C   0  0  1  0  0  3  0  0  0  0  0  0
  157.4900  211.2970  154.6460 O   0  0  0  0  0  1  0  0  0  0  0  0
  157.1000  213.4250  153.6130 C   0  0  1  0  0  3  0  0  0  0  0  0
  156.3520  213.7410  156.0140 C   0  0  0  0  0  0  0  0  0  0  0  0
  157.2780  213.9760  154.9500 N   0  0  0  0  0  2  0  0  0  0  0  0
  156.5590  214.2620  157.1390 O   0  0  0  0  0  0  0  0  0  0  0  0
  155.1520  212.8740  155.8140 C   0  0  0  0  0  2  0  0  0  0  0  0
  155.0870  211.8190  156.9000 C   0  0  0  0  0  2  0  0  0  0  0  0
  154.3670  210.6200  156.3900 C   0  0  0  0  0  3  0  0  0  0  0  0
  154.8640  209.9380  155.3640 C   0  0  0  0  0  2  0  0  0  0  0  0
  157.6880  214.4030  152.6030 C   0  0  0  0  0  2  0  0  0  0  0  0
  158.0990  213.6490  150.3140 N   0  0  0  0  0  0  0  0  0  0  0  0
  157.2660  214.0510  151.2570 N   0  0  0  0  0  0  0  0  0  0  0  0
  157.3240  213.4050  149.2430 C   0  0  0  0  0  0  0  0  0  0  0  0
  156.0080  214.0780  150.8470 N   0  0  0  0  0  0  0  0  0  0  0  0
  156.0060  213.6760  149.5600 C   0  0  0  0  0  3  0  0  0  0  0  0
  159.5430  213.2980  145.5610 C   0  0  0  0  0  2  0  0  0  0  0  0
  157.8260  212.9570  147.9120 C   0  0  0  0  0  3  0  0  0  0  0  0
  159.8380  212.2290  146.6080 C   0  0  0  0  0  2  0  0  0  0  0  0
  159.3270  212.6750  147.9740 C   0  0  0  0  0  2  0  0  0  0  0  0
  157.5230  214.0160  146.8530 C   0  0  0  0  0  2  0  0  0  0  0  0
  158.0420  213.5640  145.4900 C   0  0  0  0  0  2  0  0  0  0  0  0
  1 11  1  0  0  0  0
  1 10  1  0  0  0  0
  2  6  1  0  0  0  0
  2  4  2  0  0  0  0
  3 11  2  0  0  0  0
  3  8  1  0  0  0  0
  5  7  2  0  0  0  0
  7  1  1  0  0  0  0
  8 26  1  1  0  0  0
  8  2  1  0  0  0  0
  9  6  2  0  0  0  0
 10  9  1  1  0  0  0
 10 14  1  0  0  0  0
 11  9  1  0  0  0  0
 12 16  1  0  0  0  0
 13 16  1  0  0  0  0
 14 13  1  1  0  0  0
 15 14  1  0  0  0  0
 15 17  1  0  0  0  0
 17 12  1  0  0  0  0
 19  7  1  6  0  0  0
 19 18  1  0  0  0  0
 20 21  1  6  0  0  0
 20 19  1  0  0  0  0
 20 18  1  0  0  0  0
 22 21  1  0  0  0  0
 23 22  1  0  0  0  0
 24 22  1  0  0  0  0
 25 22  2  0  0  0  0
 26 28  1  0  0  0  0
 26 27  1  1  0  0  0
 28 36  1  6  0  0  0
 28 30  1  0  0  0  0
 29 31  2  0  0  0  0
 30 29  1  0  0  0  0
 32 29  1  0  0  0  0
 32 33  1  0  0  0  0
 34 33  1  0  0  0  0
 35 34  2  0  0  0  0
 37 38  1  0  0  0  0
 38 36  1  0  0  0  0
 39 41  1  0  0  0  0
 39 37  2  0  0  0  0
 40 38  1  0  0  0  0
 41 40  2  0  0  0  0
 42 44  1  0  0  0  0
 43 45  1  0  0  0  0
 43 39  1  0  0  0  0
 44 45  1  0  0  0  0
 46 43  1  0  0  0  0
 47 42  1  0  0  0  0
 47 46  1  0  0  0  0
M  END
>  <MODEL>
7

>  <REMARK>
 VINA RESULT:      -4.3      2.133      3.466
  Name = 
  13 active torsions:
  status: ('A' for Active; 'I' for Inactive)
    1  A    between atoms: C_2  and  C_13
    2  A    between atoms: C_2  and  C_17
    3  A    between atoms: C_2  and  N_36
    4  A    between atoms: C_4  and  C_44
    5  A    between atoms: P_7  and  O_33
    6  A    between atoms: N_10  and  C_13
    7  A    between atoms: C_12  and  C_34
    8  A    between atoms: C_14  and  C_43
    9  A    between atoms: C_17  and  C_39
   10  A    between atoms: C_21  and  C_38
   11  A    between atoms: C_23  and  C_41
   12  A    between atoms: C_25  and  O_33
   13  A    between atoms: C_43  and  C_44
                            x       y       z     vdW  Elec       q    Type
                         _______ _______ _______ _____ _____    ______ ____

>  <TORSDO>
F 13

$$$$
=
 OpenBabel11072414283D

 47 52  0  0  1  0  0  0  0  0999 V2000
  159.0310  213.3310  151.5210 N   0  0  0  0  0  0  0  0  0  0  0  0
  162.2240  212.1150  149.3160 C   0  0  0  0  0  0  0  0  0  0  0  0
  160.8620  211.4990  151.4030 N   0  0  0  0  0  0  0  0  0  0  0  0
  163.2640  211.9900  148.6200 O   0  0  0  0  0  0  0  0  0  0  0  0
  158.1880  212.2920  153.4150 O   0  0  0  0  0  0  0  0  0  0  0  0
  161.3340  213.2290  149.0450 N   0  0  0  0  0  0  0  0  0  0  0  0
  158.1610  213.2950  152.6570 C   0  0  0  0  0  0  0  0  0  0  0  0
  161.9460  211.0880  150.4680 C   0  0  1  0  0  3  0  0  0  0  0  0
  160.3930  213.3650  149.9060 C   0  0  0  0  0  0  0  0  0  0  0  0
  159.2540  214.1240  150.3450 C   0  0  1  0  0  3  0  0  0  0  0  0
  160.1680  212.5290  151.0700 C   0  0  0  0  0  0  0  0  0  0  0  0
  156.7050  212.9310  147.2540 C   0  0  0  0  0  2  0  0  0  0  0  0
  158.5530  214.0810  147.9110 C   0  0  0  0  0  2  0  0  0  0  0  0
  158.0710  214.0120  149.3690 C   0  0  1  0  0  3  0  0  0  0  0  0
  157.3240  212.8320  149.5780 O   0  0  0  0  0  0  0  0  0  0  0  0
  157.4410  214.1130  147.0460 O   0  0  0  0  0  0  0  0  0  0  0  0
  156.2160  212.8740  148.7080 C   0  0  0  0  0  2  0  0  0  0  0  0
  155.8050  214.2360  152.6990 C   0  0  0  0  0  2  0  0  0  0  0  0
  157.2680  214.4520  153.0310 C   0  0  1  0  0  3  0  0  0  0  0  0
  156.2620  214.1050  154.1380 C   0  0  2  0  0  3  0  0  0  0  0  0
  156.2950  212.7490  154.4910 O   0  0  0  0  0  0  0  0  0  0  0  0
  155.9760  212.6990  156.1580 P   0  0  0  0  0  0  0  0  0  0  0  0
  157.3300  213.2280  157.0220 O   0  0  0  0  0  1  0  0  0  0  0  0
  155.6260  211.2880  156.5750 O   0  0  0  0  0  1  0  0  0  0  0  0
  154.6710  213.7180  156.5000 O   0  0  0  0  0  0  0  0  0  0  0  0
  161.6620  209.6780  149.9120 C   0  0  1  0  0  3  0  0  0  0  0  0
  162.2330  209.5490  148.6420 O   0  0  0  0  0  1  0  0  0  0  0  0
  162.2090  208.5760  150.8330 C   0  0  1  0  0  3  0  0  0  0  0  0
  160.8060  208.2530  152.9190 C   0  0  0  0  0  0  0  0  0  0  0  0
  161.1200  207.9360  151.5610 N   0  0  0  0  0  2  0  0  0  0  0  0
  159.8630  207.6500  153.4910 O   0  0  0  0  0  0  0  0  0  0  0  0
  161.5690  209.2990  153.6640 C   0  0  0  0  0  2  0  0  0  0  0  0
  161.4710  209.0500  155.1560 C   0  0  0  0  0  2  0  0  0  0  0  0
  160.8100  210.2100  155.8140 C   0  0  0  0  0  3  0  0  0  0  0  0
  159.6450  210.0440  156.4300 C   0  0  0  0  0  2  0  0  0  0  0  0
  162.9450  207.5120  150.0280 C   0  0  0  0  0  2  0  0  0  0  0  0
  161.9230  205.4350  149.2430 N   0  0  0  0  0  0  0  0  0  0  0  0
  162.3310  206.2100  150.2310 N   0  0  0  0  0  0  0  0  0  0  0  0
  161.4430  204.3300  149.8410 C   0  0  0  0  0  0  0  0  0  0  0  0
  162.1370  205.6640  151.4200 N   0  0  0  0  0  0  0  0  0  0  0  0
  161.5660  204.4610  151.2120 C   0  0  0  0  0  3  0  0  0  0  0  0
  161.0430  200.5540  147.8210 C   0  0  0  0  0  2  0  0  0  0  0  0
  160.8340  203.1710  149.1270 C   0  0  0  0  0  3  0  0  0  0  0  0
  160.4030  200.7030  149.1990 C   0  0  0  0  0  2  0  0  0  0  0  0
  161.0170  201.8880  149.9390 C   0  0  0  0  0  2  0  0  0  0  0  0
  161.4590  203.0220  147.7410 C   0  0  0  0  0  2  0  0  0  0  0  0
  160.8440  201.8310  147.0100 C   0  0  0  0  0  2  0  0  0  0  0  0
  1  7  1  0  0  0  0
  2  8  1  0  0  0  0
  4  2  2  0  0  0  0
  6  2  1  0  0  0  0
  6  9  2  0  0  0  0
  7  5  2  0  0  0  0
  8 26  1  6  0  0  0
  8  3  1  0  0  0  0
  9 11  1  0  0  0  0
 10  9  1  6  0  0  0
 10  1  1  0  0  0  0
 11  3  2  0  0  0  0
 11  1  1  0  0  0  0
 12 17  1  0  0  0  0
 14 13  1  6  0  0  0
 14 15  1  0  0  0  0
 14 10  1  0  0  0  0
 16 12  1  0  0  0  0
 16 13  1  0  0  0  0
 17 15  1  0  0  0  0
 18 19  1  0  0  0  0
 18 20  1  0  0  0  0
 19  7  1  6  0  0  0
 19 20  1  0  0  0  0
 20 21  1  6  0  0  0
 21 22  1  0  0  0  0
 22 25  2  0  0  0  0
 22 24  1  0  0  0  0
 22 23  1  0  0  0  0
 26 27  1  6  0  0  0
 26 28  1  0  0  0  0
 28 36  1  6  0  0  0
 28 30  1  0  0  0  0
 29 31  2  0  0  0  0
 29 32  1  0  0  0  0
 30 29  1  0  0  0  0
 32 33  1  0  0  0  0
 33 34  1  0  0  0  0
 34 35  2  0  0  0  0
 36 38  1  0  0  0  0
 37 39  2  0  0  0  0
 37 38  1  0  0  0  0
 38 40  1  0  0  0  0
 39 41  1  0  0  0  0
 41 40  2  0  0  0  0
 42 44  1  0  0  0  0
 43 39  1  0  0  0  0
 43 45  1  0  0  0  0
 44 45  1  0  0  0  0
 46 43  1  0  0  0  0
 47 46  1  0  0  0  0
 47 42  1  0  0  0  0
M  END
>  <MODEL>
8

>  <REMARK>
 VINA RESULT:      -3.7      3.424      9.207
  Name = 
  13 active torsions:
  status: ('A' for Active; 'I' for Inactive)
    1  A    between atoms: C_2  and  C_13
    2  A    between atoms: C_2  and  C_17
    3  A    between atoms: C_2  and  N_36
    4  A    between atoms: C_4  and  C_44
    5  A    between atoms: P_7  and  O_33
    6  A    between atoms: N_10  and  C_13
    7  A    between atoms: C_12  and  C_34
    8  A    between atoms: C_14  and  C_43
    9  A    between atoms: C_17  and  C_39
   10  A    between atoms: C_21  and  C_38
   11  A    between atoms: C_23  and  C_41
   12  A    between atoms: C_25  and  O_33
   13  A    between atoms: C_43  and  C_44
                            x       y       z     vdW  Elec       q    Type
                         _______ _______ _______ _____ _____    ______ ____

>  <TORSDO>
F 13

$$$$
=
 OpenBabel11072414283D

 47 52  0  0  1  0  0  0  0  0999 V2000
  162.0260  207.6630  150.2930 N   0  0  0  0  0  0  0  0  0  0  0  0
  161.0530  209.6830  153.6840 C   0  0  0  0  0  0  0  0  0  0  0  0
  161.0430  209.9120  151.1280 N   0  0  0  0  0  0  0  0  0  0  0  0
  160.9720  210.2100  154.8230 O   0  0  0  0  0  0  0  0  0  0  0  0
  161.7440  208.4090  148.1140 O   0  0  0  0  0  0  0  0  0  0  0  0
  161.5690  208.3310  153.5770 N   0  0  0  0  0  0  0  0  0  0  0  0
  162.2280  207.5370  148.8810 C   0  0  0  0  0  0  0  0  0  0  0  0
  160.6300  210.5160  152.4250 C   0  0  1  0  0  3  0  0  0  0  0  0
  161.7660  207.9440  152.3700 C   0  0  0  0  0  0  0  0  0  0  0  0
  162.2260  206.9020  151.4930 C   0  0  1  0  0  3  0  0  0  0  0  0
  161.5240  208.7210  151.1690 C   0  0  0  0  0  0  0  0  0  0  0  0
  160.7250  203.0350  152.0140 C   0  0  0  0  0  2  0  0  0  0  0  0
  161.9390  204.4930  150.7610 C   0  0  0  0  0  2  0  0  0  0  0  0
  161.3100  205.6680  151.5270 C   0  0  1  0  0  3  0  0  0  0  0  0
  161.0020  205.2760  152.8490 O   0  0  0  0  0  0  0  0  0  0  0  0
  161.0210  203.4260  150.6930 O   0  0  0  0  0  0  0  0  0  0  0  0
  160.0860  204.2080  152.7690 C   0  0  0  0  0  2  0  0  0  0  0  0
  162.3210  205.1430  148.0470 C   0  0  0  0  0  2  0  0  0  0  0  0
  163.0690  206.4400  148.2770 C   0  0  1  0  0  3  0  0  0  0  0  0
  162.6190  206.0410  146.8650 C   0  0  2  0  0  3  0  0  0  0  0  0
  161.4420  206.6920  146.4700 O   0  0  0  0  0  0  0  0  0  0  0  0
  160.6560  205.6230  145.4110 P   0  0  0  0  0  0  0  0  0  0  0  0
  160.7730  204.0390  145.9960 O   0  0  0  0  0  1  0  0  0  0  0  0
  161.2820  205.7030  144.0370 O   0  0  0  0  0  0  0  0  0  0  0  0
  159.0250  206.0520  145.3040 O   0  0  0  0  0  1  0  0  0  0  0  0
  159.1150  210.8020  152.4190 C   0  0  1  0  0  3  0  0  0  0  0  0
  158.5530  210.3870  153.6310 O   0  0  0  0  0  1  0  0  0  0  0  0
  158.8110  212.2920  152.1990 C   0  0  1  0  0  3  0  0  0  0  0  0
  157.0820  213.8200  153.2460 C   0  0  0  0  0  0  0  0  0  0  0  0
  158.1230  212.8470  153.3570 N   0  0  0  0  0  2  0  0  0  0  0  0
  156.5420  214.2680  154.2900 O   0  0  0  0  0  0  0  0  0  0  0  0
  156.6160  214.3030  151.9120 C   0  0  0  0  0  2  0  0  0  0  0  0
  155.1070  214.4530  151.9120 C   0  0  0  0  0  2  0  0  0  0  0  0
  154.5620  214.0190  150.5960 C   0  0  0  0  0  3  0  0  0  0  0  0
  155.1230  214.4530  149.4730 C   0  0  0  0  0  2  0  0  0  0  0  0
  160.0970  213.0800  151.9750 C   0  0  0  0  0  2  0  0  0  0  0  0
  159.1540  213.5000  149.7590 N   0  0  0  0  0  0  0  0  0  0  0  0
  160.1730  213.5410  150.5980 N   0  0  0  0  0  0  0  0  0  0  0  0
  159.6220  214.0300  148.6140 C   0  0  0  0  0  0  0  0  0  0  0  0
  161.2600  214.0630  150.0540 N   0  0  0  0  0  0  0  0  0  0  0  0
  160.9470  214.3840  148.7820 C   0  0  0  0  0  3  0  0  0  0  0  0
  157.9160  213.1320  144.7700 C   0  0  0  0  0  2  0  0  0  0  0  0
  158.8360  214.1660  147.3550 C   0  0  0  0  0  3  0  0  0  0  0  0
  156.9790  213.2080  145.9720 C   0  0  0  0  0  2  0  0  0  0  0  0
  157.7720  213.0710  147.2670 C   0  0  0  0  0  2  0  0  0  0  0  0
  159.7680  214.1050  146.1450 C   0  0  0  0  0  2  0  0  0  0  0  0
  158.9660  214.2360  144.8530 C   0  0  0  0  0  2  0  0  0  0  0  0
  1 11  1  0  0  0  0
  1 10  1  0  0  0  0
  2  4  2  0  0  0  0
  3 11  2  0  0  0  0
  3  8  1  0  0  0  0
  5  7  2  0  0  0  0
  6  2  1  0  0  0  0
  7  1  1  0  0  0  0
  8 26  1  6  0  0  0
  8  2  1  0  0  0  0
  9  6  2  0  0  0  0
 10 14  1  0  0  0  0
 10  9  1  1  0  0  0
 11  9  1  0  0  0  0
 12 17  1  0  0  0  0
 14 13  1  1  0  0  0
 14 15  1  0  0  0  0
 16 13  1  0  0  0  0
 16 12  1  0  0  0  0
 17 15  1  0  0  0  0
 18 19  1  0  0  0  0
 19  7  1  1  0  0  0
 20 21  1  1  0  0  0
 20 18  1  0  0  0  0
 20 19  1  0  0  0  0
 22 23  1  0  0  0  0
 22 21  1  0  0  0  0
 24 22  2  0  0  0  0
 25 22  1  0  0  0  0
 26 27  1  1  0  0  0
 28 36  1  1  0  0  0
 28 26  1  0  0  0  0
 28 30  1  0  0  0  0
 29 30  1  0  0  0  0
 29 31  2  0  0  0  0
 32 33  1  0  0  0  0
 32 29  1  0  0  0  0
 34 33  1  0  0  0  0
 35 34  2  0  0  0  0
 37 38  1  0  0  0  0
 38 36  1  0  0  0  0
 39 41  1  0  0  0  0
 39 37  2  0  0  0  0
 40 38  1  0  0  0  0
 41 40  2  0  0  0  0
 42 47  1  0  0  0  0
 42 44  1  0  0  0  0
 43 39  1  0  0  0  0
 44 45  1  0  0  0  0
 45 43  1  0  0  0  0
 46 43  1  0  0  0  0
 47 46  1  0  0  0  0
M  END
>  <MODEL>
9

>  <REMARK>
 VINA RESULT:      -3.6      1.372      2.104
  Name = 
  13 active torsions:
  status: ('A' for Active; 'I' for Inactive)
    1  A    between atoms: C_2  and  C_13
    2  A    between atoms: C_2  and  C_17
    3  A    between atoms: C_2  and  N_36
    4  A    between atoms: C_4  and  C_44
    5  A    between atoms: P_7  and  O_33
    6  A    between atoms: N_10  and  C_13
    7  A    between atoms: C_12  and  C_34
    8  A    between atoms: C_14  and  C_43
    9  A    between atoms: C_17  and  C_39
   10  A    between atoms: C_21  and  C_38
   11  A    between atoms: C_23  and  C_41
   12  A    between atoms: C_25  and  O_33
   13  A    between atoms: C_43  and  C_44
                            x       y       z     vdW  Elec       q    Type
                         _______ _______ _______ _____ _____    ______ ____

>  <TORSDO>
F 13

$$$$
