=
 OpenBabel11072410053D

 55 62  0  0  1  0  0  0  0  0999 V2000
  159.4960  211.6590  151.6720 C   0  0  2  0  0  3  0  0  0  0  0  0
  159.5860  213.9500  152.3640 O   0  0  0  0  0  0  0  0  0  0  0  0
  159.7720  212.5230  150.4690 C   0  0  1  0  0  3  0  0  0  0  0  0
  160.1230  213.8670  151.0610 C   0  0  0  0  0  2  0  0  0  0  0  0
  158.9230  212.7310  152.5850 C   0  0  2  0  0  3  0  0  0  0  0  0
  160.7650  210.9380  152.1870 C   0  0  1  0  0  3  0  0  0  0  0  0
  161.4370  211.6520  153.1800 O   0  0  0  0  0  1  0  0  0  0  0  0
  160.4540  209.5250  152.6410 C   0  0  0  0  0  2  0  0  0  0  0  0
  160.4030  207.3580  151.4260 C   0  0  1  0  0  3  0  0  0  0  0  0
  160.4610  206.2950  152.3710 O   0  0  0  0  0  0  0  0  0  0  0  0
  161.7030  206.2140  147.4510 C   0  0  1  0  0  3  0  0  0  0  0  0
  162.4030  203.9010  147.2510 O   0  0  0  0  0  1  0  0  0  0  0  0
  161.0650  205.1780  151.8150 C   0  0  0  0  0  0  0  0  0  0  0  0
  162.3080  204.9660  148.1500 C   0  0  2  0  0  3  0  0  0  0  0  0
  161.8040  209.3320  150.2540 S   0  0  0  0  0  0  0  0  0  0  0  0
  161.1610  204.0730  152.4130 O   0  0  0  0  0  0  0  0  0  0  0  0
  162.0720  207.6630  149.5950 C   0  0  2  0  0  3  0  0  0  0  0  0
  161.2650  208.5490  151.8110 C   0  0  1  0  0  3  0  0  0  0  0  0
  161.4850  204.5030  149.3710 C   0  0  0  0  0  2  0  0  0  0  0  0
  162.1380  207.5770  148.0650 C   0  0  0  0  0  2  0  0  0  0  0  0
  161.6810  205.4870  150.5090 C   0  0  1  0  0  3  0  0  0  0  0  0
  160.9930  206.7780  150.1450 C   0  0  1  0  0  3  0  0  0  0  0  0
  162.0110  206.2040  146.0580 O   0  0  0  0  0  0  0  0  0  0  0  0
  160.6950  204.7150  144.8260 C   0  0  0  0  0  0  0  0  0  0  0  0
  160.3750  203.5450  144.5650 O   0  0  0  0  0  0  0  0  0  0  0  0
  161.0310  205.9450  145.1020 C   0  0  0  0  0  3  0  0  0  0  0  0
  158.6170  212.4300  154.0680 C   0  0  1  0  0  3  0  0  0  0  0  0
  155.3000  211.5440  157.1860 O   0  0  0  0  0  0  0  0  0  0  0  0
  156.6460  211.3570  155.2480 C   0  0  2  0  0  3  0  0  0  0  0  0
  155.7870  210.4590  154.5020 N   0  0  0  0  0  1  0  0  0  0  0  0
  156.7640  213.7510  154.9160 O   0  0  0  0  0  0  0  0  0  0  0  0
  154.6530  214.0210  155.7700 O   0  0  0  0  0  1  0  0  0  0  0  0
  155.8750  212.0770  156.2500 C   0  0  0  0  0  0  0  0  0  0  0  0
  155.9330  213.5280  156.0340 C   0  0  1  0  0  3  0  0  0  0  0  0
  157.1060  212.4940  154.3460 C   0  0  1  0  0  3  0  0  0  0  0  0
  159.5040  209.7020  156.6340 N   0  0  0  0  0  2  0  0  0  0  0  0
  161.4440  210.1610  155.2970 C   0  0  1  0  0  3  0  0  0  0  0  0
  162.7670  210.5160  155.5670 O   0  0  0  0  0  1  0  0  0  0  0  0
  159.2480  211.1210  154.5640 C   0  0  2  0  0  3  0  0  0  0  0  0
  159.3770  211.0490  156.0820 C   0  0  2  0  0  0  0  0  0  0  0  0
  160.9000  209.3320  156.4460 C   0  0  2  0  0  3  0  0  0  0  0  0
  160.5860  211.4030  155.2560 C   0  0  1  0  0  3  0  0  0  0  0  0
  159.8730  207.0870  155.9390 N   0  0  0  0  0  1  0  0  0  0  0  0
  162.1650  207.3120  156.1840 O   0  0  0  0  0  0  0  0  0  0  0  0
  161.0390  207.8720  156.1590 C   0  0  0  0  0  0  0  0  0  0  0  0
  158.8760  212.1630  157.0000 C   0  0  0  0  0  2  0  0  0  0  0  0
  159.5270  214.4510  157.1350 O   0  0  0  0  0  0  0  0  0  0  0  0
  159.8890  213.2480  157.1430 C   0  0  0  0  0  0  0  0  0  0  0  0
  161.2370  212.9340  157.2600 O   0  0  0  0  0  1  0  0  0  0  0  0
  160.8250  212.0010  149.4940 C   0  0  0  0  0  2  0  0  0  0  0  0
  160.9170  213.3190  146.1050 C   0  0  0  0  0  2  0  0  0  0  0  0
  161.0430  213.0020  148.3650 C   0  0  1  0  0  3  0  0  0  0  0  0
  162.7870  213.0680  147.8890 S   0  0  0  0  0  0  0  0  0  0  0  0
  162.3550  213.1550  146.1750 N   0  0  0  0  0  2  0  0  0  0  0  0
  160.2840  212.6020  147.1910 N   0  0  0  0  0  2  0  0  0  0  0  0
  1  6  1  1  0  0  0
  1  5  1  0  0  0  0
  2  5  1  0  0  0  0
  3 50  1  1  0  0  0
  3  4  1  0  0  0  0
  3  1  1  0  0  0  0
  4  2  1  0  0  0  0
  5 27  1  1  0  0  0
  6  8  1  0  0  0  0
  6  7  1  1  0  0  0
  9 18  1  0  0  0  0
  9 10  1  1  0  0  0
 11 23  1  6  0  0  0
 11 20  1  0  0  0  0
 11 14  1  0  0  0  0
 13 10  1  0  0  0  0
 13 16  2  0  0  0  0
 14 12  1  6  0  0  0
 14 19  1  0  0  0  0
 15 18  1  0  0  0  0
 17 20  1  6  0  0  0
 17 22  1  0  0  0  0
 17 15  1  0  0  0  0
 18  8  1  1  0  0  0
 21 19  1  6  0  0  0
 21 13  1  0  0  0  0
 22 21  1  0  0  0  0
 22  9  1  0  0  0  0
 24 26  2  0  0  0  0
 25 24  2  0  0  0  0
 26 23  1  0  0  0  0
 27 35  1  0  0  0  0
 27 39  1  0  0  0  0
 29 33  1  0  0  0  0
 30 29  1  0  0  0  0
 31 34  1  0  0  0  0
 32 34  1  0  0  0  0
 33 28  2  0  0  0  0
 34 33  1  0  0  0  0
 35 31  1  0  0  0  0
 35 29  1  0  0  0  0
 37 38  1  0  0  0  0
 37 41  1  0  0  0  0
 39 42  1  0  0  0  0
 39 40  1  0  0  0  0
 40 36  1  0  0  0  0
 40 46  1  0  0  0  0
 41 36  1  0  0  0  0
 42 37  1  0  0  0  0
 42 40  1  0  0  0  0
 43 45  1  0  0  0  0
 45 44  2  0  0  0  0
 45 41  1  0  0  0  0
 46 48  1  0  0  0  0
 47 48  2  0  0  0  0
 48 49  1  0  0  0  0
 51 54  1  0  0  0  0
 51 55  1  0  0  0  0
 52 50  1  0  0  0  0
 53 52  1  0  0  0  0
 54 53  1  0  0  0  0
 55 52  1  0  0  0  0
M  END
>  <MODEL>
1

>  <REMARK>
 VINA RESULT:      -5.7      0.000      0.000
  Name = 
  13 active torsions:
  status: ('A' for Active; 'I' for Inactive)
    1  A    between atoms: C_5  and  O_28
    2  A    between atoms: C_8  and  C_26
    3  A    between atoms: C_16  and  C_47
    4  A    between atoms: C_19  and  C_34
    5  A    between atoms: C_19  and  C_35
    6  A    between atoms: C_19  and  C_52
    7  A    between atoms: C_21  and  C_23
    8  A    between atoms: C_22  and  C_23
    9  A    between atoms: C_26  and  C_44
   10  A    between atoms: O_28  and  C_32
   11  A    between atoms: C_29  and  C_44
   12  A    between atoms: C_38  and  C_47
   13  A    between atoms: C_42  and  C_48
                            x       y       z     vdW  Elec       q    Type
                         _______ _______ _______ _____ _____    ______ ____

>  <TORSDO>
F 13

$$$$
=
 OpenBabel11072410053D

 55 62  0  0  1  0  0  0  0  0999 V2000
  159.5920  211.6290  152.1750 C   0  0  2  0  0  3  0  0  0  0  0  0
  158.2830  213.6280  152.3460 O   0  0  0  0  0  0  0  0  0  0  0  0
  159.4620  212.2480  150.8070 C   0  0  1  0  0  3  0  0  0  0  0  0
  158.9170  213.6290  151.0840 C   0  0  0  0  0  2  0  0  0  0  0  0
  158.4100  212.3190  152.8400 C   0  0  2  0  0  3  0  0  0  0  0  0
  160.9760  211.8900  152.8150 C   0  0  1  0  0  3  0  0  0  0  0  0
  160.9010  212.5920  154.0180 O   0  0  0  0  0  1  0  0  0  0  0  0
  161.7640  210.6040  152.9760 C   0  0  0  0  0  2  0  0  0  0  0  0
  162.2720  209.2420  150.9600 C   0  0  1  0  0  3  0  0  0  0  0  0
  162.1840  210.0710  149.8060 O   0  0  0  0  0  0  0  0  0  0  0  0
  161.7910  205.0200  150.0990 C   0  0  1  0  0  3  0  0  0  0  0  0
  161.4120  204.5100  147.7590 O   0  0  0  0  0  1  0  0  0  0  0  0
  161.8170  209.3270  148.6960 C   0  0  0  0  0  0  0  0  0  0  0  0
  161.2300  205.4960  148.7310 C   0  0  2  0  0  3  0  0  0  0  0  0
  160.8600  208.0100  152.8900 S   0  0  0  0  0  0  0  0  0  0  0  0
  161.7550  209.8060  147.5310 O   0  0  0  0  0  0  0  0  0  0  0  0
  160.9040  207.1780  151.2770 C   0  0  2  0  0  3  0  0  0  0  0  0
  161.2240  209.5680  152.0110 C   0  0  1  0  0  3  0  0  0  0  0  0
  161.8900  206.8000  148.2340 C   0  0  0  0  0  2  0  0  0  0  0  0
  161.1030  205.6590  151.3410 C   0  0  0  0  0  2  0  0  0  0  0  0
  161.3930  207.9640  149.0710 C   0  0  1  0  0  3  0  0  0  0  0  0
  161.9750  207.8340  150.4560 C   0  0  1  0  0  3  0  0  0  0  0  0
  161.7210  203.5990  150.1990 O   0  0  0  0  0  0  0  0  0  0  0  0
  160.0460  202.0480  149.6940 C   0  0  0  0  0  0  0  0  0  0  0  0
  159.5920  201.1890  148.9230 O   0  0  0  0  0  0  0  0  0  0  0  0
  160.5260  202.9520  150.5040 C   0  0  0  0  0  3  0  0  0  0  0  0
  158.1630  212.1820  154.3570 C   0  0  1  0  0  3  0  0  0  0  0  0
  154.7060  211.0640  157.2400 O   0  0  0  0  0  0  0  0  0  0  0  0
  156.0170  211.1900  155.2730 C   0  0  2  0  0  3  0  0  0  0  0  0
  155.0180  210.7030  154.3430 N   0  0  0  0  0  1  0  0  0  0  0  0
  156.5720  213.5210  155.6120 O   0  0  0  0  0  0  0  0  0  0  0  0
  154.5360  213.9120  156.5910 O   0  0  0  0  0  1  0  0  0  0  0  0
  155.3790  211.7260  156.4660 C   0  0  0  0  0  0  0  0  0  0  0  0
  155.7020  213.1450  156.6570 C   0  0  1  0  0  3  0  0  0  0  0  0
  156.6860  212.4330  154.7040 C   0  0  1  0  0  3  0  0  0  0  0  0
  159.0030  209.6470  157.1290 N   0  0  0  0  0  2  0  0  0  0  0  0
  160.8180  209.6990  155.5580 C   0  0  1  0  0  3  0  0  0  0  0  0
  162.1960  209.9000  155.6480 O   0  0  0  0  0  1  0  0  0  0  0  0
  158.6840  210.8600  154.9410 C   0  0  2  0  0  3  0  0  0  0  0  0
  158.9770  210.9320  156.4360 C   0  0  2  0  0  0  0  0  0  0  0  0
  160.3130  209.0760  156.8470 C   0  0  2  0  0  3  0  0  0  0  0  0
  160.1170  211.0330  155.4550 C   0  0  1  0  0  3  0  0  0  0  0  0
  159.1100  206.9910  156.0970 N   0  0  0  0  0  1  0  0  0  0  0  0
  161.1250  206.8530  157.2320 O   0  0  0  0  0  0  0  0  0  0  0  0
  160.2400  207.5880  156.7230 C   0  0  0  0  0  0  0  0  0  0  0  0
  158.7240  212.1940  157.2600 C   0  0  0  0  0  2  0  0  0  0  0  0
  159.4480  214.3510  156.5510 O   0  0  0  0  0  0  0  0  0  0  0  0
  159.7710  213.2270  157.0100 C   0  0  0  0  0  0  0  0  0  0  0  0
  161.1080  212.9420  157.2610 O   0  0  0  0  0  1  0  0  0  0  0  0
  160.7270  212.2610  149.9530 C   0  0  0  0  0  2  0  0  0  0  0  0
  159.7640  213.2060  146.5750 C   0  0  0  0  0  2  0  0  0  0  0  0
  160.5310  213.1450  148.7280 C   0  0  1  0  0  3  0  0  0  0  0  0
  162.0630  213.2840  147.7780 S   0  0  0  0  0  0  0  0  0  0  0  0
  161.1750  213.1540  146.2540 N   0  0  0  0  0  2  0  0  0  0  0  0
  159.5240  212.5670  147.8520 N   0  0  0  0  0  2  0  0  0  0  0  0
  1  6  1  1  0  0  0
  1  5  1  0  0  0  0
  2  5  1  0  0  0  0
  3 50  1  1  0  0  0
  3  4  1  0  0  0  0
  3  1  1  0  0  0  0
  4  2  1  0  0  0  0
  5 27  1  1  0  0  0
  6  8  1  0  0  0  0
  6  7  1  1  0  0  0
  9 10  1  6  0  0  0
  9 18  1  0  0  0  0
 11 23  1  1  0  0  0
 11 20  1  0  0  0  0
 13 21  1  0  0  0  0
 13 10  1  0  0  0  0
 14 12  1  6  0  0  0
 14 11  1  0  0  0  0
 16 13  2  0  0  0  0
 17 20  1  1  0  0  0
 17 15  1  0  0  0  0
 18 15  1  0  0  0  0
 18  8  1  1  0  0  0
 19 14  1  0  0  0  0
 21 19  1  6  0  0  0
 21 22  1  0  0  0  0
 22  9  1  0  0  0  0
 22 17  1  0  0  0  0
 23 26  1  0  0  0  0
 24 26  2  0  0  0  0
 25 24  2  0  0  0  0
 27 35  1  0  0  0  0
 27 39  1  0  0  0  0
 29 33  1  0  0  0  0
 30 29  1  0  0  0  0
 31 34  1  0  0  0  0
 32 34  1  0  0  0  0
 33 34  1  0  0  0  0
 33 28  2  0  0  0  0
 35 29  1  0  0  0  0
 35 31  1  0  0  0  0
 37 38  1  0  0  0  0
 37 41  1  0  0  0  0
 39 42  1  0  0  0  0
 39 40  1  0  0  0  0
 40 36  1  0  0  0  0
 40 46  1  0  0  0  0
 41 36  1  0  0  0  0
 42 37  1  0  0  0  0
 42 40  1  0  0  0  0
 43 45  1  0  0  0  0
 45 41  1  0  0  0  0
 45 44  2  0  0  0  0
 47 48  2  0  0  0  0
 48 46  1  0  0  0  0
 48 49  1  0  0  0  0
 51 55  1  0  0  0  0
 52 50  1  0  0  0  0
 53 52  1  0  0  0  0
 54 51  1  0  0  0  0
 54 53  1  0  0  0  0
 55 52  1  0  0  0  0
M  END
>  <MODEL>
2

>  <REMARK>
 VINA RESULT:      -5.4      1.454      2.422
  Name = 
  13 active torsions:
  status: ('A' for Active; 'I' for Inactive)
    1  A    between atoms: C_5  and  O_28
    2  A    between atoms: C_8  and  C_26
    3  A    between atoms: C_16  and  C_47
    4  A    between atoms: C_19  and  C_34
    5  A    between atoms: C_19  and  C_35
    6  A    between atoms: C_19  and  C_52
    7  A    between atoms: C_21  and  C_23
    8  A    between atoms: C_22  and  C_23
    9  A    between atoms: C_26  and  C_44
   10  A    between atoms: O_28  and  C_32
   11  A    between atoms: C_29  and  C_44
   12  A    between atoms: C_38  and  C_47
   13  A    between atoms: C_42  and  C_48
                            x       y       z     vdW  Elec       q    Type
                         _______ _______ _______ _____ _____    ______ ____

>  <TORSDO>
F 13

$$$$
=
 OpenBabel11072410053D

 55 62  0  0  1  0  0  0  0  0999 V2000
  161.6120  210.1360  152.7430 C   0  0  2  0  0  3  0  0  0  0  0  0
  160.1910  211.0740  154.4270 O   0  0  0  0  0  0  0  0  0  0  0  0
  162.0650  209.6450  154.0940 C   0  0  1  0  0  3  0  0  0  0  0  0
  160.9300  210.0240  155.0160 C   0  0  0  0  0  2  0  0  0  0  0  0
  160.8240  211.3520  153.2040 C   0  0  2  0  0  3  0  0  0  0  0  0
  160.8120  209.0680  151.9610 C   0  0  1  0  0  3  0  0  0  0  0  0
  159.4310  209.2230  152.0760 O   0  0  0  0  0  1  0  0  0  0  0  0
  161.2400  209.0070  150.5070 C   0  0  0  0  0  2  0  0  0  0  0  0
  160.6270  206.5990  150.5130 C   0  0  1  0  0  3  0  0  0  0  0  0
  160.6960  206.1060  151.8470 O   0  0  0  0  0  0  0  0  0  0  0  0
  160.9670  203.4980  147.5010 C   0  0  1  0  0  3  0  0  0  0  0  0
  161.2510  201.2610  148.3930 O   0  0  0  0  0  1  0  0  0  0  0  0
  161.0040  204.7550  151.8540 C   0  0  0  0  0  0  0  0  0  0  0  0
  161.4920  202.6100  148.6630 C   0  0  2  0  0  3  0  0  0  0  0  0
  162.0720  207.4420  148.4070 S   0  0  0  0  0  0  0  0  0  0  0  0
  161.0390  204.0580  152.9030 O   0  0  0  0  0  0  0  0  0  0  0  0
  161.9510  205.6440  148.6240 C   0  0  2  0  0  3  0  0  0  0  0  0
  161.7190  207.6050  150.1900 C   0  0  1  0  0  3  0  0  0  0  0  0
  160.8500  202.9590  150.0220 C   0  0  0  0  0  2  0  0  0  0  0  0
  161.7150  204.8530  147.3320 C   0  0  0  0  0  2  0  0  0  0  0  0
  161.4050  204.2820  150.5140 C   0  0  1  0  0  3  0  0  0  0  0  0
  160.8700  205.3800  149.6300 C   0  0  1  0  0  3  0  0  0  0  0  0
  161.0040  202.7800  146.2690 O   0  0  0  0  0  0  0  0  0  0  0  0
  160.9490  204.4550  144.6390 C   0  0  0  0  0  0  0  0  0  0  0  0
  160.4290  205.4910  144.1980 O   0  0  0  0  0  0  0  0  0  0  0  0
  161.4950  203.3650  145.1040 C   0  0  0  0  0  3  0  0  0  0  0  0
  159.9660  212.1650  152.2120 C   0  0  1  0  0  3  0  0  0  0  0  0
  155.9410  213.0620  154.3350 O   0  0  0  0  0  0  0  0  0  0  0  0
  157.6490  213.0750  152.6970 C   0  0  2  0  0  3  0  0  0  0  0  0
  157.1570  214.1900  151.9120 N   0  0  0  0  0  1  0  0  0  0  0  0
  159.4260  213.2150  154.3340 O   0  0  0  0  0  0  0  0  0  0  0  0
  158.1000  214.4530  155.7360 O   0  0  0  0  0  1  0  0  0  0  0  0
  157.1260  213.1410  154.0530 C   0  0  0  0  0  0  0  0  0  0  0  0
  158.2060  213.2460  155.0420 C   0  0  1  0  0  3  0  0  0  0  0  0
  159.1430  213.2400  152.9410 C   0  0  1  0  0  3  0  0  0  0  0  0
  160.5000  213.9360  148.8360 N   0  0  0  0  0  2  0  0  0  0  0  0
  161.9680  212.0400  148.9510 C   0  0  1  0  0  3  0  0  0  0  0  0
  162.2120  210.9300  148.1410 O   0  0  0  0  0  1  0  0  0  0  0  0
  160.7750  212.7430  151.0410 C   0  0  2  0  0  3  0  0  0  0  0  0
  159.9420  212.9770  149.7850 C   0  0  2  0  0  0  0  0  0  0  0  0
  161.5130  213.2040  148.0890 C   0  0  2  0  0  3  0  0  0  0  0  0
  160.8100  211.7480  149.8750 C   0  0  1  0  0  3  0  0  0  0  0  0
  162.8780  214.4520  146.3770 N   0  0  0  0  0  1  0  0  0  0  0  0
  163.4980  214.4440  148.6090 O   0  0  0  0  0  0  0  0  0  0  0  0
  162.6670  214.0850  147.7350 C   0  0  0  0  0  0  0  0  0  0  0  0
  158.4400  212.7010  149.7370 C   0  0  0  0  0  2  0  0  0  0  0  0
  156.9040  214.0510  148.5120 O   0  0  0  0  0  1  0  0  0  0  0  0
  157.8330  213.2060  148.4710 C   0  0  0  0  0  0  0  0  0  0  0  0
  158.2750  212.7250  147.2440 O   0  0  0  0  0  0  0  0  0  0  0  0
  162.4430  208.1690  154.1800 C   0  0  0  0  0  2  0  0  0  0  0  0
  159.8140  207.0340  156.4230 C   0  0  0  0  0  2  0  0  0  0  0  0
  161.7990  207.5280  155.4040 C   0  0  1  0  0  3  0  0  0  0  0  0
  161.7920  208.6720  156.8040 S   0  0  0  0  0  0  0  0  0  0  0  0
  160.1570  208.1680  157.2560 N   0  0  0  0  0  2  0  0  0  0  0  0
  160.4170  207.1810  155.1150 N   0  0  0  0  0  2  0  0  0  0  0  0
  1  6  1  1  0  0  0
  1  5  1  0  0  0  0
  1  3  1  0  0  0  0
  2  4  1  0  0  0  0
  3 50  1  6  0  0  0
  3  4  1  0  0  0  0
  5 27  1  6  0  0  0
  5  2  1  0  0  0  0
  6  7  1  6  0  0  0
  8  6  1  0  0  0  0
  9 10  1  1  0  0  0
 10 13  1  0  0  0  0
 11 23  1  6  0  0  0
 11 14  1  0  0  0  0
 13 16  2  0  0  0  0
 14 12  1  6  0  0  0
 14 19  1  0  0  0  0
 15 17  1  0  0  0  0
 15 18  1  0  0  0  0
 17 20  1  6  0  0  0
 17 22  1  0  0  0  0
 18  8  1  6  0  0  0
 18  9  1  0  0  0  0
 20 11  1  0  0  0  0
 21 19  1  6  0  0  0
 21 13  1  0  0  0  0
 22  9  1  0  0  0  0
 22 21  1  0  0  0  0
 24 26  2  0  0  0  0
 25 24  2  0  0  0  0
 26 23  1  0  0  0  0
 27 35  1  0  0  0  0
 29 35  1  0  0  0  0
 29 33  1  0  0  0  0
 30 29  1  0  0  0  0
 31 34  1  0  0  0  0
 33 28  2  0  0  0  0
 33 34  1  0  0  0  0
 34 32  1  0  0  0  0
 35 31  1  0  0  0  0
 36 40  1  0  0  0  0
 37 42  1  0  0  0  0
 38 37  1  0  0  0  0
 39 27  1  0  0  0  0
 40 42  1  0  0  0  0
 40 39  1  0  0  0  0
 41 36  1  0  0  0  0
 41 37  1  0  0  0  0
 42 39  1  0  0  0  0
 43 45  1  0  0  0  0
 45 41  1  0  0  0  0
 45 44  2  0  0  0  0
 46 40  1  0  0  0  0
 48 47  1  0  0  0  0
 48 46  1  0  0  0  0
 49 48  2  0  0  0  0
 50 52  1  0  0  0  0
 51 54  1  0  0  0  0
 52 53  1  0  0  0  0
 53 54  1  0  0  0  0
 55 52  1  0  0  0  0
 55 51  1  0  0  0  0
M  END
>  <MODEL>
3

>  <REMARK>
 VINA RESULT:      -5.2      2.306      5.940
  Name = 
  13 active torsions:
  status: ('A' for Active; 'I' for Inactive)
    1  A    between atoms: C_5  and  O_28
    2  A    between atoms: C_8  and  C_26
    3  A    between atoms: C_16  and  C_47
    4  A    between atoms: C_19  and  C_34
    5  A    between atoms: C_19  and  C_35
    6  A    between atoms: C_19  and  C_52
    7  A    between atoms: C_21  and  C_23
    8  A    between atoms: C_22  and  C_23
    9  A    between atoms: C_26  and  C_44
   10  A    between atoms: O_28  and  C_32
   11  A    between atoms: C_29  and  C_44
   12  A    between atoms: C_38  and  C_47
   13  A    between atoms: C_42  and  C_48
                            x       y       z     vdW  Elec       q    Type
                         _______ _______ _______ _____ _____    ______ ____

>  <TORSDO>
F 13

$$$$
=
 OpenBabel11072410053D

 55 63  0  0  1  0  0  0  0  0999 V2000
  161.2050  209.9140  150.4910 C   0  0  2  0  0  3  0  0  0  0  0  0
  163.0290  210.7000  151.8310 O   0  0  0  0  0  0  0  0  0  0  0  0
  162.0070  210.9080  149.6920 C   0  0  1  0  0  3  0  0  0  0  0  0
  163.2760  211.0790  150.4940 C   0  0  0  0  0  2  0  0  0  0  0  0
  161.6770  210.3170  151.8800 C   0  0  2  0  0  3  0  0  0  0  0  0
  161.4920  208.4510  150.0770 C   0  0  1  0  0  3  0  0  0  0  0  0
  160.4830  207.5650  150.4550 O   0  0  0  0  0  0  0  0  0  0  0  0
  161.7930  208.3430  148.5950 C   0  0  0  0  0  2  0  0  0  0  0  0
  162.1240  206.3800  147.1070 C   0  0  1  0  0  3  0  0  0  0  0  0
  161.9800  206.7950  145.7530 O   0  0  0  0  0  0  0  0  0  0  0  0
  161.4730  202.1330  147.6950 C   0  0  1  0  0  3  0  0  0  0  0  0
  160.9210  200.9140  145.6730 O   0  0  0  0  0  1  0  0  0  0  0  0
  161.5180  205.7500  144.9670 C   0  0  0  0  0  0  0  0  0  0  0  0
  160.8320  202.1690  146.2800 C   0  0  2  0  0  3  0  0  0  0  0  0
  160.8160  205.9050  149.4090 S   0  0  1  0  0  3  0  0  0  0  0  0
  161.3880  205.8300  143.7160 O   0  0  0  0  0  0  0  0  0  0  0  0
  160.7270  204.5960  148.1550 C   0  0  2  0  0  3  0  0  0  0  0  0
  161.1600  207.0770  148.0520 C   0  0  1  0  0  3  0  0  0  0  0  0
  161.4910  203.2090  145.3500 C   0  0  0  0  0  2  0  0  0  0  0  0
  160.8890  203.1720  148.6980 C   0  0  0  0  0  2  0  0  0  0  0  0
  161.0840  204.6030  145.7890 C   0  0  1  0  0  3  0  0  0  0  0  0
  161.7560  204.9000  147.1060 C   0  0  1  0  0  3  0  0  0  0  0  0
  161.3720  200.8260  148.2560 O   0  0  0  0  0  0  0  0  0  0  0  0
  159.3300  200.8670  149.3930 C   0  0  0  0  0  0  0  0  0  0  0  0
  158.1190  201.1380  149.3930 O   0  0  0  0  0  0  0  0  0  0  0  0
  160.6030  200.5820  149.3910 C   0  0  0  0  0  3  0  0  0  0  0  0
  161.2940  209.4840  153.1210 C   0  0  1  0  0  3  0  0  0  0  0  0
  159.3310  213.4450  154.5260 O   0  0  0  0  0  0  0  0  0  0  0  0
  160.4620  211.3680  154.6020 C   0  0  2  0  0  3  0  0  0  0  0  0
  160.3520  211.1390  156.0290 N   0  0  0  0  0  1  0  0  0  0  0  0
  159.0360  210.3590  152.9270 O   0  0  0  0  0  0  0  0  0  0  0  0
  157.2440  211.5970  153.6400 O   0  0  0  0  0  1  0  0  0  0  0  0
  159.4260  212.2860  154.1560 C   0  0  0  0  0  0  0  0  0  0  0  0
  158.5510  211.6640  153.1540 C   0  0  1  0  0  3  0  0  0  0  0  0
  160.0860  210.0980  153.8500 C   0  0  1  0  0  3  0  0  0  0  0  0
  160.5580  205.7930  153.9250 N   0  0  0  0  0  2  0  0  0  0  0  0
  162.3930  205.8930  152.3800 C   0  0  1  0  0  3  0  0  0  0  0  0
  163.6930  205.3860  152.3580 O   0  0  0  0  0  1  0  0  0  0  0  0
  161.0940  207.9930  152.8140 C   0  0  2  0  0  3  0  0  0  0  0  0
  161.1940  207.1020  154.0480 C   0  0  2  0  0  0  0  0  0  0  0  0
  161.5030  204.9660  153.1880 C   0  0  2  0  0  3  0  0  0  0  0  0
  162.3760  207.2100  153.1200 C   0  0  1  0  0  3  0  0  0  0  0  0
  161.4040  202.7500  151.9900 N   0  0  0  0  0  1  0  0  0  0  0  0
  159.7040  204.3050  151.7460 O   0  0  0  0  0  0  0  0  0  0  0  0
  160.7940  203.9990  152.2940 C   0  0  0  0  0  0  0  0  0  0  0  0
  161.4230  207.6670  155.4490 C   0  0  0  0  0  2  0  0  0  0  0  0
  160.3250  206.5720  157.2590 O   0  0  0  0  0  1  0  0  0  0  0  0
  160.2480  207.4190  156.3350 C   0  0  0  0  0  0  0  0  0  0  0  0
  159.0580  208.1050  156.1250 O   0  0  0  0  0  0  0  0  0  0  0  0
  162.2620  210.5470  148.2310 C   0  0  0  0  0  2  0  0  0  0  0  0
  162.5800  214.0450  147.2890 C   0  0  0  0  0  2  0  0  0  0  0  0
  162.1960  211.7930  147.3570 C   0  0  1  0  0  3  0  0  0  0  0  0
  160.5180  212.4670  147.3200 S   0  0  0  0  0  0  0  0  0  0  0  0
  161.1400  214.1210  147.4260 N   0  0  0  0  0  2  0  0  0  0  0  0
  163.0700  212.8240  147.8930 N   0  0  0  0  0  2  0  0  0  0  0  0
  1  6  1  6  0  0  0
  1  5  1  0  0  0  0
  2  5  1  0  0  0  0
  3 50  1  6  0  0  0
  3  1  1  0  0  0  0
  3  4  1  0  0  0  0
  4  2  1  0  0  0  0
  5 27  1  1  0  0  0
  6  8  1  6  0  0  0
  6  7  1  0  0  0  0
  9 10  1  6  0  0  0
  9 18  1  0  0  0  0
 11 23  1  1  0  0  0
 11 20  1  0  0  0  0
 13 10  1  0  0  0  0
 13 21  1  0  0  0  0
 14 12  1  6  0  0  0
 14 11  1  0  0  0  0
 15  7  1  6  0  0  0
 16 13  2  0  0  0  0
 17 20  1  1  0  0  0
 17 15  1  0  0  0  0
 18  8  1  1  0  0  0
 18 15  1  0  0  0  0
 19 14  1  0  0  0  0
 21 19  1  6  0  0  0
 21 22  1  0  0  0  0
 22  9  1  0  0  0  0
 22 17  1  0  0  0  0
 23 26  1  0  0  0  0
 24 25  2  0  0  0  0
 26 24  2  0  0  0  0
 27 35  1  0  0  0  0
 29 30  1  0  0  0  0
 31 34  1  0  0  0  0
 31 35  1  0  0  0  0
 33 28  2  0  0  0  0
 33 29  1  0  0  0  0
 34 32  1  0  0  0  0
 34 33  1  0  0  0  0
 35 29  1  0  0  0  0
 36 40  1  0  0  0  0
 37 42  1  0  0  0  0
 37 41  1  0  0  0  0
 38 37  1  0  0  0  0
 39 42  1  0  0  0  0
 39 27  1  0  0  0  0
 39 40  1  0  0  0  0
 40 46  1  0  0  0  0
 41 36  1  0  0  0  0
 42 40  1  0  0  0  0
 43 45  1  0  0  0  0
 44 45  2  0  0  0  0
 45 41  1  0  0  0  0
 46 48  1  0  0  0  0
 48 47  1  0  0  0  0
 49 48  2  0  0  0  0
 51 54  1  0  0  0  0
 51 55  1  0  0  0  0
 52 55  1  0  0  0  0
 52 50  1  0  0  0  0
 53 52  1  0  0  0  0
 53 54  1  0  0  0  0
M  END
>  <MODEL>
4

>  <REMARK>
 VINA RESULT:      -4.6      2.376      4.826
  Name = 
  13 active torsions:
  status: ('A' for Active; 'I' for Inactive)
    1  A    between atoms: C_5  and  O_28
    2  A    between atoms: C_8  and  C_26
    3  A    between atoms: C_16  and  C_47
    4  A    between atoms: C_19  and  C_34
    5  A    between atoms: C_19  and  C_35
    6  A    between atoms: C_19  and  C_52
    7  A    between atoms: C_21  and  C_23
    8  A    between atoms: C_22  and  C_23
    9  A    between atoms: C_26  and  C_44
   10  A    between atoms: O_28  and  C_32
   11  A    between atoms: C_29  and  C_44
   12  A    between atoms: C_38  and  C_47
   13  A    between atoms: C_42  and  C_48
                            x       y       z     vdW  Elec       q    Type
                         _______ _______ _______ _____ _____    ______ ____

>  <TORSDO>
F 13

$$$$
=
 OpenBabel11072410053D

 55 62  0  0  1  0  0  0  0  0999 V2000
  160.5210  211.9220  149.9320 C   0  0  2  0  0  3  0  0  0  0  0  0
  160.9690  213.9870  151.0610 O   0  0  0  0  0  0  0  0  0  0  0  0
  161.2350  212.8520  148.9860 C   0  0  1  0  0  3  0  0  0  0  0  0
  161.7420  213.9600  149.8790 C   0  0  0  0  0  2  0  0  0  0  0  0
  160.0180  212.9610  150.9230 C   0  0  2  0  0  3  0  0  0  0  0  0
  161.4550  210.8320  150.5090 C   0  0  1  0  0  3  0  0  0  0  0  0
  162.3080  211.3110  151.5040 O   0  0  0  0  0  1  0  0  0  0  0  0
  160.6710  209.6270  150.9910 C   0  0  0  0  0  2  0  0  0  0  0  0
  160.3720  207.1940  150.5810 C   0  0  1  0  0  3  0  0  0  0  0  0
  160.4680  206.5000  151.8200 O   0  0  0  0  0  0  0  0  0  0  0  0
  161.1870  204.6970  147.1310 C   0  0  1  0  0  3  0  0  0  0  0  0
  161.7320  202.3950  147.6640 O   0  0  0  0  0  1  0  0  0  0  0  0
  160.9470  205.2140  151.6250 C   0  0  0  0  0  0  0  0  0  0  0  0
  161.7910  203.7010  148.1580 C   0  0  2  0  0  3  0  0  0  0  0  0
  161.7520  208.5430  148.7080 S   0  0  0  0  0  0  0  0  0  0  0  0
  161.0430  204.3630  152.5500 O   0  0  0  0  0  0  0  0  0  0  0  0
  161.8570  206.7330  148.6280 C   0  0  2  0  0  3  0  0  0  0  0  0
  161.3340  208.3660  150.4750 C   0  0  1  0  0  3  0  0  0  0  0  0
  161.0730  203.7400  149.5240 C   0  0  0  0  0  2  0  0  0  0  0  0
  161.7590  206.1430  147.2160 C   0  0  0  0  0  2  0  0  0  0  0  0
  161.4410  205.0210  150.2470 C   0  0  1  0  0  3  0  0  0  0  0  0
  160.7920  206.1760  149.5270 C   0  0  1  0  0  3  0  0  0  0  0  0
  161.3480  204.2030  145.8030 O   0  0  0  0  0  0  0  0  0  0  0  0
  161.0640  205.4050  143.8180 C   0  0  0  0  0  0  0  0  0  0  0  0
  161.5560  206.1120  142.9250 O   0  0  0  0  0  0  0  0  0  0  0  0
  160.5490  204.6610  144.7580 C   0  0  0  0  0  3  0  0  0  0  0  0
  159.3420  212.5350  152.2430 C   0  0  1  0  0  3  0  0  0  0  0  0
  155.3620  214.4510  153.6590 O   0  0  0  0  0  0  0  0  0  0  0  0
  157.1090  212.8760  153.3960 C   0  0  2  0  0  3  0  0  0  0  0  0
  156.4080  211.7200  153.9190 N   0  0  0  0  0  1  0  0  0  0  0  0
  157.4000  213.3670  151.0440 O   0  0  0  0  0  0  0  0  0  0  0  0
  155.1630  213.8120  150.8120 O   0  0  0  0  0  1  0  0  0  0  0  0
  156.1590  213.8770  152.9350 C   0  0  0  0  0  0  0  0  0  0  0  0
  156.3260  214.1580  151.5040 C   0  0  1  0  0  3  0  0  0  0  0  0
  157.8110  212.5050  152.0970 C   0  0  1  0  0  3  0  0  0  0  0  0
  159.6920  209.6800  154.8000 N   0  0  0  0  0  2  0  0  0  0  0  0
  161.8830  210.3180  154.0540 C   0  0  1  0  0  3  0  0  0  0  0  0
  163.0640  210.7130  154.6840 O   0  0  0  0  0  1  0  0  0  0  0  0
  159.9000  211.2250  152.8170 C   0  0  2  0  0  3  0  0  0  0  0  0
  159.6310  211.0540  154.3090 C   0  0  2  0  0  0  0  0  0  0  0  0
  161.1090  209.3870  154.9700 C   0  0  2  0  0  3  0  0  0  0  0  0
  160.9900  211.5190  153.8540 C   0  0  1  0  0  3  0  0  0  0  0  0
  160.8840  206.9300  155.4820 N   0  0  0  0  0  1  0  0  0  0  0  0
  162.1810  207.6550  153.7050 O   0  0  0  0  0  0  0  0  0  0  0  0
  161.4090  207.9590  154.6510 C   0  0  0  0  0  0  0  0  0  0  0  0
  158.8380  212.0780  155.1200 C   0  0  0  0  0  2  0  0  0  0  0  0
  158.0010  211.4480  157.2610 O   0  0  0  0  0  1  0  0  0  0  0  0
  158.9850  211.8430  156.5860 C   0  0  0  0  0  0  0  0  0  0  0  0
  160.2010  212.0830  157.2140 O   0  0  0  0  0  0  0  0  0  0  0  0
  162.3290  212.2260  148.1250 C   0  0  0  0  0  2  0  0  0  0  0  0
  162.3000  213.9380  144.9160 C   0  0  0  0  0  2  0  0  0  0  0  0
  162.0450  212.4680  146.6480 C   0  0  1  0  0  3  0  0  0  0  0  0
  160.3570  213.0710  146.4050 S   0  0  0  0  0  0  0  0  0  0  0  0
  160.9070  214.2290  145.1840 N   0  0  0  0  0  2  0  0  0  0  0  0
  162.9510  213.4790  146.1250 N   0  0  0  0  0  2  0  0  0  0  0  0
  1  6  1  1  0  0  0
  1  5  1  0  0  0  0
  3 50  1  1  0  0  0
  3  4  1  0  0  0  0
  3  1  1  0  0  0  0
  4  2  1  0  0  0  0
  5  2  1  0  0  0  0
  5 27  1  1  0  0  0
  6  8  1  0  0  0  0
  6  7  1  1  0  0  0
  9 10  1  1  0  0  0
 11 23  1  6  0  0  0
 11 20  1  0  0  0  0
 11 14  1  0  0  0  0
 13 10  1  0  0  0  0
 13 16  2  0  0  0  0
 14 12  1  6  0  0  0
 14 19  1  0  0  0  0
 15 18  1  0  0  0  0
 17 20  1  6  0  0  0
 17 15  1  0  0  0  0
 17 22  1  0  0  0  0
 18  9  1  0  0  0  0
 18  8  1  6  0  0  0
 21 19  1  6  0  0  0
 21 13  1  0  0  0  0
 22 21  1  0  0  0  0
 22  9  1  0  0  0  0
 24 26  2  0  0  0  0
 25 24  2  0  0  0  0
 26 23  1  0  0  0  0
 27 39  1  0  0  0  0
 29 30  1  0  0  0  0
 31 34  1  0  0  0  0
 31 35  1  0  0  0  0
 32 34  1  0  0  0  0
 33 29  1  0  0  0  0
 33 28  2  0  0  0  0
 34 33  1  0  0  0  0
 35 27  1  0  0  0  0
 35 29  1  0  0  0  0
 36 41  1  0  0  0  0
 37 38  1  0  0  0  0
 37 41  1  0  0  0  0
 39 42  1  0  0  0  0
 39 40  1  0  0  0  0
 40 36  1  0  0  0  0
 40 46  1  0  0  0  0
 42 37  1  0  0  0  0
 42 40  1  0  0  0  0
 44 45  2  0  0  0  0
 45 41  1  0  0  0  0
 45 43  1  0  0  0  0
 46 48  1  0  0  0  0
 48 49  2  0  0  0  0
 48 47  1  0  0  0  0
 51 54  1  0  0  0  0
 51 55  1  0  0  0  0
 52 50  1  0  0  0  0
 53 52  1  0  0  0  0
 54 53  1  0  0  0  0
 55 52  1  0  0  0  0
M  END
>  <MODEL>
5

>  <REMARK>
 VINA RESULT:      -4.6      1.654      2.190
  Name = 
  13 active torsions:
  status: ('A' for Active; 'I' for Inactive)
    1  A    between atoms: C_5  and  O_28
    2  A    between atoms: C_8  and  C_26
    3  A    between atoms: C_16  and  C_47
    4  A    between atoms: C_19  and  C_34
    5  A    between atoms: C_19  and  C_35
    6  A    between atoms: C_19  and  C_52
    7  A    between atoms: C_21  and  C_23
    8  A    between atoms: C_22  and  C_23
    9  A    between atoms: C_26  and  C_44
   10  A    between atoms: O_28  and  C_32
   11  A    between atoms: C_29  and  C_44
   12  A    between atoms: C_38  and  C_47
   13  A    between atoms: C_42  and  C_48
                            x       y       z     vdW  Elec       q    Type
                         _______ _______ _______ _____ _____    ______ ____

>  <TORSDO>
F 13

$$$$
=
 OpenBabel11072410053D

 55 62  0  0  1  0  0  0  0  0999 V2000
  160.8570  210.1920  151.2120 C   0  0  2  0  0  3  0  0  0  0  0  0
  162.0880  211.0180  153.0940 O   0  0  0  0  0  0  0  0  0  0  0  0
  162.1180  210.8530  150.7200 C   0  0  1  0  0  3  0  0  0  0  0  0
  162.9450  211.0360  151.9710 C   0  0  0  0  0  2  0  0  0  0  0  0
  160.7900  210.8430  152.5850 C   0  0  2  0  0  3  0  0  0  0  0  0
  160.9540  208.6480  151.1990 C   0  0  1  0  0  3  0  0  0  0  0  0
  160.2400  208.0450  152.2350 O   0  0  0  0  0  1  0  0  0  0  0  0
  160.5550  208.0780  149.8520 C   0  0  0  0  0  2  0  0  0  0  0  0
  160.2230  205.6300  150.1230 C   0  0  1  0  0  3  0  0  0  0  0  0
  160.3450  205.2960  151.5010 O   0  0  0  0  0  0  0  0  0  0  0  0
  160.9240  202.2800  147.4600 C   0  0  1  0  0  3  0  0  0  0  0  0
  161.4600  200.2000  148.5850 O   0  0  0  0  0  1  0  0  0  0  0  0
  160.8060  203.9980  151.6510 C   0  0  0  0  0  0  0  0  0  0  0  0
  161.5440  201.5890  148.7050 C   0  0  2  0  0  3  0  0  0  0  0  0
  161.5660  206.4000  147.9240 S   0  0  0  0  0  0  0  0  0  0  0  0
  160.9180  203.4270  152.7690 O   0  0  0  0  0  0  0  0  0  0  0  0
  161.6510  204.6340  148.3350 C   0  0  2  0  0  3  0  0  0  0  0  0
  161.1930  206.7140  149.6820 C   0  0  1  0  0  3  0  0  0  0  0  0
  160.8630  202.0080  150.0260 C   0  0  0  0  0  2  0  0  0  0  0  0
  161.5110  203.6860  147.1380 C   0  0  0  0  0  2  0  0  0  0  0  0
  161.2620  203.4310  150.3660 C   0  0  1  0  0  3  0  0  0  0  0  0
  160.6060  204.3580  149.3750 C   0  0  1  0  0  3  0  0  0  0  0  0
  161.0450  201.4430  146.3130 O   0  0  0  0  0  0  0  0  0  0  0  0
  160.0080  202.7750  144.6950 C   0  0  0  0  0  0  0  0  0  0  0  0
  159.8260  203.8980  144.2020 O   0  0  0  0  0  0  0  0  0  0  0  0
  160.2020  201.5930  145.2140 C   0  0  0  0  0  3  0  0  0  0  0  0
  159.7510  210.3850  153.6310 C   0  0  1  0  0  3  0  0  0  0  0  0
  161.9550  207.5790  156.5940 O   0  0  0  0  0  0  0  0  0  0  0  0
  160.2400  208.8820  155.6140 C   0  0  2  0  0  3  0  0  0  0  0  0
  159.3470  208.9180  156.7560 N   0  0  0  0  0  1  0  0  0  0  0  0
  161.7490  210.6660  154.9830 O   0  0  0  0  0  0  0  0  0  0  0  0
  163.0510  210.2810  156.8300 O   0  0  0  0  0  1  0  0  0  0  0  0
  161.6020  208.6110  156.0460 C   0  0  0  0  0  0  0  0  0  0  0  0
  162.5110  209.7030  155.6790 C   0  0  1  0  0  3  0  0  0  0  0  0
  160.3810  210.2810  155.0300 C   0  0  1  0  0  3  0  0  0  0  0  0
  157.6600  213.6010  153.9450 N   0  0  0  0  0  2  0  0  0  0  0  0
  156.5070  211.8200  155.0700 C   0  0  1  0  0  3  0  0  0  0  0  0
  155.9870  211.6360  156.3530 O   0  0  0  0  0  1  0  0  0  0  0  0
  158.4710  211.2340  153.6270 C   0  0  2  0  0  3  0  0  0  0  0  0
  158.6370  212.5820  154.3210 C   0  0  2  0  0  0  0  0  0  0  0  0
  156.4610  213.2950  154.7140 C   0  0  2  0  0  3  0  0  0  0  0  0
  157.9710  211.4500  155.0600 C   0  0  1  0  0  3  0  0  0  0  0  0
  155.1820  213.3410  152.5420 N   0  0  0  0  0  1  0  0  0  0  0  0
  154.2490  214.1910  154.4850 O   0  0  0  0  0  0  0  0  0  0  0  0
  155.2240  213.6140  153.9380 C   0  0  0  0  0  0  0  0  0  0  0  0
  159.9700  213.0410  154.9110 C   0  0  0  0  0  2  0  0  0  0  0  0
  160.4570  212.7590  157.2270 O   0  0  0  0  0  1  0  0  0  0  0  0
  159.8310  213.4070  156.3500 C   0  0  0  0  0  0  0  0  0  0  0  0
  158.9910  214.4470  156.7290 O   0  0  0  0  0  0  0  0  0  0  0  0
  162.8670  210.1280  149.6050 C   0  0  0  0  0  2  0  0  0  0  0  0
  163.0690  212.9020  147.2620 C   0  0  0  0  0  2  0  0  0  0  0  0
  162.7320  210.8900  148.2920 C   0  0  1  0  0  3  0  0  0  0  0  0
  161.0420  211.4930  148.0660 S   0  0  0  0  0  0  0  0  0  0  0  0
  161.6360  213.0340  147.4320 N   0  0  0  0  0  2  0  0  0  0  0  0
  163.6130  212.0470  148.2960 N   0  0  0  0  0  2  0  0  0  0  0  0
  1  6  1  1  0  0  0
  1  5  1  0  0  0  0
  3 50  1  6  0  0  0
  3  1  1  0  0  0  0
  3  4  1  0  0  0  0
  4  2  1  0  0  0  0
  5  2  1  0  0  0  0
  5 27  1  1  0  0  0
  6  7  1  1  0  0  0
  8  6  1  0  0  0  0
  9 10  1  1  0  0  0
 10 13  1  0  0  0  0
 11 23  1  6  0  0  0
 11 14  1  0  0  0  0
 13 16  2  0  0  0  0
 14 12  1  6  0  0  0
 14 19  1  0  0  0  0
 15 17  1  0  0  0  0
 15 18  1  0  0  0  0
 17 20  1  6  0  0  0
 17 22  1  0  0  0  0
 18  8  1  6  0  0  0
 18  9  1  0  0  0  0
 20 11  1  0  0  0  0
 21 19  1  6  0  0  0
 21 13  1  0  0  0  0
 22  9  1  0  0  0  0
 22 21  1  0  0  0  0
 24 26  2  0  0  0  0
 25 24  2  0  0  0  0
 26 23  1  0  0  0  0
 27 35  1  0  0  0  0
 29 33  1  0  0  0  0
 29 30  1  0  0  0  0
 31 35  1  0  0  0  0
 31 34  1  0  0  0  0
 33 28  2  0  0  0  0
 34 33  1  0  0  0  0
 34 32  1  0  0  0  0
 35 29  1  0  0  0  0
 36 40  1  0  0  0  0
 36 41  1  0  0  0  0
 37 38  1  0  0  0  0
 39 27  1  0  0  0  0
 39 40  1  0  0  0  0
 39 42  1  0  0  0  0
 40 46  1  0  0  0  0
 40 42  1  0  0  0  0
 41 37  1  0  0  0  0
 42 37  1  0  0  0  0
 43 45  1  0  0  0  0
 45 44  2  0  0  0  0
 45 41  1  0  0  0  0
 46 48  1  0  0  0  0
 48 49  2  0  0  0  0
 48 47  1  0  0  0  0
 51 54  1  0  0  0  0
 51 55  1  0  0  0  0
 52 55  1  0  0  0  0
 52 50  1  0  0  0  0
 53 52  1  0  0  0  0
 54 53  1  0  0  0  0
M  END
>  <MODEL>
6

>  <REMARK>
 VINA RESULT:      -4.5      1.886      4.405
  Name = 
  13 active torsions:
  status: ('A' for Active; 'I' for Inactive)
    1  A    between atoms: C_5  and  O_28
    2  A    between atoms: C_8  and  C_26
    3  A    between atoms: C_16  and  C_47
    4  A    between atoms: C_19  and  C_34
    5  A    between atoms: C_19  and  C_35
    6  A    between atoms: C_19  and  C_52
    7  A    between atoms: C_21  and  C_23
    8  A    between atoms: C_22  and  C_23
    9  A    between atoms: C_26  and  C_44
   10  A    between atoms: O_28  and  C_32
   11  A    between atoms: C_29  and  C_44
   12  A    between atoms: C_38  and  C_47
   13  A    between atoms: C_42  and  C_48
                            x       y       z     vdW  Elec       q    Type
                         _______ _______ _______ _____ _____    ______ ____

>  <TORSDO>
F 13

$$$$
=
 OpenBabel11072410053D

 55 62  0  0  1  0  0  0  0  0999 V2000
  160.8950  209.8850  151.5810 C   0  0  2  0  0  3  0  0  0  0  0  0
  162.2430  210.7620  153.3550 O   0  0  0  0  0  0  0  0  0  0  0  0
  162.1460  210.4840  150.9930 C   0  0  1  0  0  3  0  0  0  0  0  0
  163.0410  210.7010  152.1910 C   0  0  0  0  0  2  0  0  0  0  0  0
  160.9160  210.6020  152.9220 C   0  0  2  0  0  3  0  0  0  0  0  0
  160.9480  208.3400  151.6390 C   0  0  1  0  0  3  0  0  0  0  0  0
  160.4150  207.8160  152.8170 O   0  0  0  0  0  1  0  0  0  0  0  0
  160.3010  207.7150  150.4170 C   0  0  0  0  0  2  0  0  0  0  0  0
  160.0830  205.2400  150.3790 C   0  0  1  0  0  3  0  0  0  0  0  0
  160.2020  204.7440  151.7080 O   0  0  0  0  0  0  0  0  0  0  0  0
  160.9810  202.2810  147.3390 C   0  0  1  0  0  3  0  0  0  0  0  0
  161.6020  200.1050  148.2100 O   0  0  0  0  0  1  0  0  0  0  0  0
  160.7240  203.4600  151.7060 C   0  0  0  0  0  0  0  0  0  0  0  0
  161.6170  201.4710  148.5020 C   0  0  2  0  0  3  0  0  0  0  0  0
  161.4180  206.3370  148.3180 S   0  0  0  0  0  0  0  0  0  0  0  0
  160.8480  202.7610  152.7480 O   0  0  0  0  0  0  0  0  0  0  0  0
  161.5830  204.5400  148.5100 C   0  0  2  0  0  3  0  0  0  0  0  0
  161.0060  206.4130  150.0940 C   0  0  1  0  0  3  0  0  0  0  0  0
  160.8990  201.6910  149.8500 C   0  0  0  0  0  2  0  0  0  0  0  0
  161.5050  203.7420  147.2030 C   0  0  0  0  0  2  0  0  0  0  0  0
  161.2240  203.0780  150.3700 C   0  0  1  0  0  3  0  0  0  0  0  0
  160.5370  204.0900  149.4880 C   0  0  1  0  0  3  0  0  0  0  0  0
  161.1580  201.5990  146.1000 O   0  0  0  0  0  0  0  0  0  0  0  0
  159.5130  202.3650  144.6270 C   0  0  0  0  0  0  0  0  0  0  0  0
  158.9690  203.3150  144.0430 O   0  0  0  0  0  0  0  0  0  0  0  0
  160.0860  201.3670  145.2410 C   0  0  0  0  0  3  0  0  0  0  0  0
  159.9210  210.2250  154.0390 C   0  0  1  0  0  3  0  0  0  0  0  0
  162.3860  207.7210  157.0660 O   0  0  0  0  0  0  0  0  0  0  0  0
  160.5640  208.8680  156.0820 C   0  0  2  0  0  3  0  0  0  0  0  0
  159.7110  208.9180  157.2530 N   0  0  0  0  0  1  0  0  0  0  0  0
  161.9440  210.6950  155.2980 O   0  0  0  0  0  0  0  0  0  0  0  0
  163.3290  210.4890  157.1130 O   0  0  0  0  0  1  0  0  0  0  0  0
  161.9540  208.6980  156.4760 C   0  0  0  0  0  0  0  0  0  0  0  0
  162.7850  209.8180  156.0160 C   0  0  1  0  0  3  0  0  0  0  0  0
  160.6030  210.2370  155.4170 C   0  0  1  0  0  3  0  0  0  0  0  0
  157.5000  212.9190  152.7360 N   0  0  0  0  0  2  0  0  0  0  0  0
  157.5680  213.0410  155.1330 C   0  0  1  0  0  3  0  0  0  0  0  0
  157.8200  214.0510  156.0630 O   0  0  0  0  0  1  0  0  0  0  0  0
  158.6360  211.0670  154.0160 C   0  0  2  0  0  3  0  0  0  0  0  0
  158.7620  212.3430  153.1920 C   0  0  2  0  0  0  0  0  0  0  0  0
  156.9670  213.6480  153.8780 C   0  0  2  0  0  3  0  0  0  0  0  0
  158.8730  212.4210  154.6920 C   0  0  1  0  0  3  0  0  0  0  0  0
  154.8000  213.6970  155.1660 N   0  0  0  0  0  1  0  0  0  0  0  0
  154.8100  213.3370  152.8770 O   0  0  0  0  0  0  0  0  0  0  0  0
  155.4750  213.5770  153.9180 C   0  0  0  0  0  0  0  0  0  0  0  0
  160.0380  212.7040  152.4320 C   0  0  0  0  0  2  0  0  0  0  0  0
  158.6600  213.0500  150.5190 O   0  0  0  0  0  0  0  0  0  0  0  0
  159.7290  213.3340  151.1160 C   0  0  0  0  0  0  0  0  0  0  0  0
  160.6310  214.2160  150.5340 O   0  0  0  0  0  1  0  0  0  0  0  0
  162.8160  209.6840  149.8790 C   0  0  0  0  0  2  0  0  0  0  0  0
  162.7210  212.5640  147.6610 C   0  0  0  0  0  2  0  0  0  0  0  0
  162.7930  210.4700  148.5740 C   0  0  1  0  0  3  0  0  0  0  0  0
  161.1220  210.5310  147.8860 S   0  0  0  0  0  0  0  0  0  0  0  0
  161.3310  212.2270  147.4280 N   0  0  0  0  0  2  0  0  0  0  0  0
  163.2190  211.8400  148.8110 N   0  0  0  0  0  2  0  0  0  0  0  0
  1  6  1  1  0  0  0
  1  5  1  0  0  0  0
  3 50  1  6  0  0  0
  3  1  1  0  0  0  0
  3  4  1  0  0  0  0
  4  2  1  0  0  0  0
  5  2  1  0  0  0  0
  5 27  1  1  0  0  0
  6  7  1  1  0  0  0
  8  6  1  0  0  0  0
  9 10  1  1  0  0  0
 11 23  1  6  0  0  0
 11 14  1  0  0  0  0
 13 10  1  0  0  0  0
 13 16  2  0  0  0  0
 14 12  1  6  0  0  0
 14 19  1  0  0  0  0
 15 17  1  0  0  0  0
 15 18  1  0  0  0  0
 17 20  1  6  0  0  0
 17 22  1  0  0  0  0
 18  9  1  0  0  0  0
 18  8  1  6  0  0  0
 20 11  1  0  0  0  0
 21 19  1  6  0  0  0
 21 13  1  0  0  0  0
 22 21  1  0  0  0  0
 22  9  1  0  0  0  0
 24 26  2  0  0  0  0
 25 24  2  0  0  0  0
 26 23  1  0  0  0  0
 27 35  1  0  0  0  0
 29 33  1  0  0  0  0
 29 30  1  0  0  0  0
 31 35  1  0  0  0  0
 31 34  1  0  0  0  0
 33 28  2  0  0  0  0
 34 33  1  0  0  0  0
 34 32  1  0  0  0  0
 35 29  1  0  0  0  0
 36 40  1  0  0  0  0
 36 41  1  0  0  0  0
 37 38  1  0  0  0  0
 39 27  1  0  0  0  0
 39 42  1  0  0  0  0
 40 39  1  0  0  0  0
 40 42  1  0  0  0  0
 41 45  1  0  0  0  0
 41 37  1  0  0  0  0
 42 37  1  0  0  0  0
 44 45  2  0  0  0  0
 45 43  1  0  0  0  0
 46 40  1  0  0  0  0
 47 48  2  0  0  0  0
 48 46  1  0  0  0  0
 49 48  1  0  0  0  0
 51 55  1  0  0  0  0
 52 55  1  0  0  0  0
 52 50  1  0  0  0  0
 53 52  1  0  0  0  0
 54 51  1  0  0  0  0
 54 53  1  0  0  0  0
M  END
>  <MODEL>
7

>  <REMARK>
 VINA RESULT:      -4.4      1.992      4.739
  Name = 
  13 active torsions:
  status: ('A' for Active; 'I' for Inactive)
    1  A    between atoms: C_5  and  O_28
    2  A    between atoms: C_8  and  C_26
    3  A    between atoms: C_16  and  C_47
    4  A    between atoms: C_19  and  C_34
    5  A    between atoms: C_19  and  C_35
    6  A    between atoms: C_19  and  C_52
    7  A    between atoms: C_21  and  C_23
    8  A    between atoms: C_22  and  C_23
    9  A    between atoms: C_26  and  C_44
   10  A    between atoms: O_28  and  C_32
   11  A    between atoms: C_29  and  C_44
   12  A    between atoms: C_38  and  C_47
   13  A    between atoms: C_42  and  C_48
                            x       y       z     vdW  Elec       q    Type
                         _______ _______ _______ _____ _____    ______ ____

>  <TORSDO>
F 13

$$$$
=
 OpenBabel11072410053D

 55 62  0  0  1  0  0  0  0  0999 V2000
  161.0830  208.9480  150.3860 C   0  0  2  0  0  3  0  0  0  0  0  0
  161.9800  211.0490  149.6670 O   0  0  0  0  0  0  0  0  0  0  0  0
  161.3490  208.8850  148.9050 C   0  0  1  0  0  3  0  0  0  0  0  0
  162.1920  210.1090  148.6350 C   0  0  0  0  0  2  0  0  0  0  0  0
  161.0480  210.4610  150.5390 C   0  0  2  0  0  3  0  0  0  0  0  0
  162.1620  208.2100  151.2140 C   0  0  1  0  0  3  0  0  0  0  0  0
  162.9770  209.0720  151.9480 O   0  0  0  0  0  1  0  0  0  0  0  0
  161.5470  207.1450  152.1030 C   0  0  0  0  0  2  0  0  0  0  0  0
  160.5780  204.9860  151.3470 C   0  0  1  0  0  3  0  0  0  0  0  0
  160.2340  204.2070  152.4880 O   0  0  0  0  0  0  0  0  0  0  0  0
  161.1590  202.6280  147.7540 C   0  0  1  0  0  3  0  0  0  0  0  0
  160.8530  200.2430  148.0590 O   0  0  0  0  0  1  0  0  0  0  0  0
  160.3120  202.8540  152.1990 C   0  0  0  0  0  0  0  0  0  0  0  0
  161.2310  201.4140  148.7200 C   0  0  2  0  0  3  0  0  0  0  0  0
  162.6160  205.9410  149.8750 S   0  0  0  0  0  0  0  0  0  0  0  0
  159.9730  201.9520  153.0110 O   0  0  0  0  0  0  0  0  0  0  0  0
  162.1610  204.2100  149.5790 C   0  0  2  0  0  3  0  0  0  0  0  0
  161.8620  205.7790  151.5290 C   0  0  1  0  0  3  0  0  0  0  0  0
  160.3350  201.5840  149.9650 C   0  0  0  0  0  2  0  0  0  0  0  0
  162.1310  203.7940  148.1040 C   0  0  0  0  0  2  0  0  0  0  0  0
  160.9530  202.6140  150.8910 C   0  0  1  0  0  3  0  0  0  0  0  0
  160.8350  203.9690  150.2400 C   0  0  1  0  0  3  0  0  0  0  0  0
  161.3860  202.2110  146.4100 O   0  0  0  0  0  0  0  0  0  0  0  0
  159.6490  202.4630  144.8660 C   0  0  0  0  0  0  0  0  0  0  0  0
  158.9750  203.2070  144.1370 O   0  0  0  0  0  0  0  0  0  0  0  0
  160.3590  201.6810  145.6320 C   0  0  0  0  0  3  0  0  0  0  0  0
  160.9760  211.1170  151.9340 C   0  0  1  0  0  3  0  0  0  0  0  0
  158.4710  213.9480  149.2460 O   0  0  0  0  0  0  0  0  0  0  0  0
  160.2060  213.1660  150.6530 C   0  0  2  0  0  3  0  0  0  0  0  0
  160.7890  214.4530  150.9770 N   0  0  0  0  0  1  0  0  0  0  0  0
  158.6940  211.9340  152.0850 O   0  0  0  0  0  0  0  0  0  0  0  0
  157.0420  213.4890  151.7570 O   0  0  0  0  0  1  0  0  0  0  0  0
  158.8220  213.3280  150.2370 C   0  0  0  0  0  0  0  0  0  0  0  0
  157.9050  212.5950  151.1200 C   0  0  1  0  0  3  0  0  0  0  0  0
  160.0460  212.3420  151.9230 C   0  0  1  0  0  3  0  0  0  0  0  0
  159.2820  209.9290  155.1790 N   0  0  0  0  0  2  0  0  0  0  0  0
  161.5540  209.1520  155.1680 C   0  0  1  0  0  3  0  0  0  0  0  0
  162.6350  209.2520  156.0460 O   0  0  0  0  0  1  0  0  0  0  0  0
  160.6250  210.1260  153.0530 C   0  0  2  0  0  3  0  0  0  0  0  0
  160.0630  210.7970  154.3020 C   0  0  2  0  0  0  0  0  0  0  0  0
  160.2580  209.1800  155.9580 C   0  0  2  0  0  3  0  0  0  0  0  0
  161.5090  210.3740  154.2810 C   0  0  1  0  0  3  0  0  0  0  0  0
  160.4060  207.0270  157.2610 N   0  0  0  0  0  1  0  0  0  0  0  0
  158.8800  207.2640  155.5340 O   0  0  0  0  0  0  0  0  0  0  0  0
  159.7780  207.7930  156.2380 C   0  0  0  0  0  0  0  0  0  0  0  0
  159.8350  212.3060  154.3880 C   0  0  0  0  0  2  0  0  0  0  0  0
  158.2410  213.1430  155.9500 O   0  0  0  0  0  0  0  0  0  0  0  0
  159.4070  212.7150  155.7580 C   0  0  0  0  0  0  0  0  0  0  0  0
  160.3020  212.6490  156.8180 O   0  0  0  0  0  1  0  0  0  0  0  0
  161.9810  207.5940  148.3900 C   0  0  0  0  0  2  0  0  0  0  0  0
  160.1620  206.1190  145.6070 C   0  0  0  0  0  2  0  0  0  0  0  0
  161.5560  207.3340  146.9500 C   0  0  1  0  0  3  0  0  0  0  0  0
  162.7030  206.1990  146.1330 S   0  0  0  0  0  0  0  0  0  0  0  0
  161.3640  205.3560  145.3410 N   0  0  0  0  0  2  0  0  0  0  0  0
  160.2380  206.7200  146.9220 N   0  0  0  0  0  2  0  0  0  0  0  0
  1  5  1  0  0  0  0
  1  6  1  1  0  0  0
  2  5  1  0  0  0  0
  3 50  1  1  0  0  0
  3  1  1  0  0  0  0
  4  3  1  0  0  0  0
  4  2  1  0  0  0  0
  5 27  1  1  0  0  0
  6  7  1  1  0  0  0
  6  8  1  0  0  0  0
  9 18  1  0  0  0  0
  9 10  1  1  0  0  0
 11 23  1  6  0  0  0
 11 20  1  0  0  0  0
 11 14  1  0  0  0  0
 13 10  1  0  0  0  0
 13 16  2  0  0  0  0
 14 12  1  6  0  0  0
 14 19  1  0  0  0  0
 15 18  1  0  0  0  0
 17 20  1  6  0  0  0
 17 15  1  0  0  0  0
 17 22  1  0  0  0  0
 18  8  1  6  0  0  0
 21 19  1  6  0  0  0
 21 13  1  0  0  0  0
 22 21  1  0  0  0  0
 22  9  1  0  0  0  0
 24 26  2  0  0  0  0
 25 24  2  0  0  0  0
 26 23  1  0  0  0  0
 27 39  1  0  0  0  0
 28 33  2  0  0  0  0
 29 30  1  0  0  0  0
 29 35  1  0  0  0  0
 33 29  1  0  0  0  0
 33 34  1  0  0  0  0
 34 32  1  0  0  0  0
 34 31  1  0  0  0  0
 35 27  1  0  0  0  0
 35 31  1  0  0  0  0
 36 41  1  0  0  0  0
 37 41  1  0  0  0  0
 37 38  1  0  0  0  0
 39 42  1  0  0  0  0
 39 40  1  0  0  0  0
 40 46  1  0  0  0  0
 40 36  1  0  0  0  0
 41 45  1  0  0  0  0
 42 40  1  0  0  0  0
 42 37  1  0  0  0  0
 44 45  2  0  0  0  0
 45 43  1  0  0  0  0
 46 48  1  0  0  0  0
 48 47  2  0  0  0  0
 48 49  1  0  0  0  0
 51 55  1  0  0  0  0
 52 50  1  0  0  0  0
 53 52  1  0  0  0  0
 54 51  1  0  0  0  0
 54 53  1  0  0  0  0
 55 52  1  0  0  0  0
M  END
>  <MODEL>
8

>  <REMARK>
 VINA RESULT:      -2.8      2.502      4.077
  Name = 
  13 active torsions:
  status: ('A' for Active; 'I' for Inactive)
    1  A    between atoms: C_5  and  O_28
    2  A    between atoms: C_8  and  C_26
    3  A    between atoms: C_16  and  C_47
    4  A    between atoms: C_19  and  C_34
    5  A    between atoms: C_19  and  C_35
    6  A    between atoms: C_19  and  C_52
    7  A    between atoms: C_21  and  C_23
    8  A    between atoms: C_22  and  C_23
    9  A    between atoms: C_26  and  C_44
   10  A    between atoms: O_28  and  C_32
   11  A    between atoms: C_29  and  C_44
   12  A    between atoms: C_38  and  C_47
   13  A    between atoms: C_42  and  C_48
                            x       y       z     vdW  Elec       q    Type
                         _______ _______ _______ _____ _____    ______ ____

>  <TORSDO>
F 13

$$$$
=
 OpenBabel11072410053D

 55 62  0  0  1  0  0  0  0  0999 V2000
  162.0940  209.1200  150.9570 C   0  0  2  0  0  3  0  0  0  0  0  0
  160.4790  209.1050  152.7250 O   0  0  0  0  0  0  0  0  0  0  0  0
  162.4360  208.0150  151.9220 C   0  0  1  0  0  3  0  0  0  0  0  0
  161.2030  207.8950  152.7870 C   0  0  0  0  0  2  0  0  0  0  0  0
  161.2130  209.9520  151.8770 C   0  0  2  0  0  3  0  0  0  0  0  0
  161.4190  208.5930  149.6680 C   0  0  1  0  0  3  0  0  0  0  0  0
  160.9780  209.6120  148.8230 O   0  0  0  0  0  1  0  0  0  0  0  0
  162.3150  207.6170  148.9310 C   0  0  0  0  0  2  0  0  0  0  0  0
  162.2340  205.9360  147.1020 C   0  0  1  0  0  3  0  0  0  0  0  0
  162.0780  206.6120  145.8590 O   0  0  0  0  0  0  0  0  0  0  0  0
  160.9400  201.7990  147.0000 C   0  0  1  0  0  3  0  0  0  0  0  0
  160.0780  201.0710  144.8540 O   0  0  0  0  0  1  0  0  0  0  0  0
  161.4070  205.8110  144.9480 C   0  0  0  0  0  0  0  0  0  0  0  0
  160.2300  202.1900  145.6750 C   0  0  2  0  0  3  0  0  0  0  0  0
  161.0080  205.2440  149.3930 S   0  0  0  0  0  0  0  0  0  0  0  0
  161.2160  206.1390  143.7460 O   0  0  0  0  0  0  0  0  0  0  0  0
  160.6320  204.2170  147.9440 C   0  0  2  0  0  3  0  0  0  0  0  0
  161.4540  206.5820  148.2360 C   0  0  1  0  0  3  0  0  0  0  0  0
  160.9910  203.2760  144.8840 C   0  0  0  0  0  2  0  0  0  0  0  0
  160.5940  202.7090  148.2160 C   0  0  0  0  0  2  0  0  0  0  0  0
  160.8430  204.6090  145.5930 C   0  0  1  0  0  3  0  0  0  0  0  0
  161.6320  204.5540  146.8770 C   0  0  1  0  0  3  0  0  0  0  0  0
  160.6630  200.4400  147.3320 O   0  0  0  0  0  0  0  0  0  0  0  0
  161.5720  198.7650  145.9790 C   0  0  0  0  0  0  0  0  0  0  0  0
  161.5490  198.1300  144.9140 O   0  0  0  0  0  0  0  0  0  0  0  0
  161.5970  199.4330  147.1000 C   0  0  0  0  0  3  0  0  0  0  0  0
  160.4200  211.1600  151.3370 C   0  0  1  0  0  3  0  0  0  0  0  0
  157.6480  211.3190  155.0530 O   0  0  0  0  0  0  0  0  0  0  0  0
  158.4750  211.7080  152.8700 C   0  0  2  0  0  3  0  0  0  0  0  0
  157.6040  212.8150  152.5270 N   0  0  0  0  0  1  0  0  0  0  0  0
  160.7660  211.9300  153.6150 O   0  0  0  0  0  0  0  0  0  0  0  0
  160.0810  212.8480  155.6000 O   0  0  0  0  0  1  0  0  0  0  0  0
  158.5840  211.5790  154.3150 C   0  0  0  0  0  0  0  0  0  0  0  0
  159.9730  211.7340  154.7650 C   0  0  1  0  0  3  0  0  0  0  0  0
  159.9090  212.0460  152.4860 C   0  0  1  0  0  3  0  0  0  0  0  0
  161.2740  214.2410  149.1940 N   0  0  0  0  0  2  0  0  0  0  0  0
  161.3290  212.2910  147.7940 C   0  0  1  0  0  3  0  0  0  0  0  0
  160.7170  211.9180  146.5960 O   0  0  0  0  0  1  0  0  0  0  0  0
  161.1850  211.9640  150.2760 C   0  0  2  0  0  3  0  0  0  0  0  0
  160.4410  213.2100  149.8060 C   0  0  2  0  0  0  0  0  0  0  0  0
  161.5030  213.7980  147.8250 C   0  0  2  0  0  3  0  0  0  0  0  0
  160.4130  211.9690  148.9520 C   0  0  1  0  0  3  0  0  0  0  0  0
  163.0800  214.4510  145.9700 N   0  0  0  0  0  1  0  0  0  0  0  0
  163.8450  214.2030  148.1420 O   0  0  0  0  0  0  0  0  0  0  0  0
  162.8670  214.1840  147.3520 C   0  0  0  0  0  0  0  0  0  0  0  0
  159.0880  213.6220  150.3850 C   0  0  0  0  0  2  0  0  0  0  0  0
  156.8670  213.4890  149.5310 O   0  0  0  0  0  1  0  0  0  0  0  0
  158.0660  213.7960  149.3120 C   0  0  0  0  0  0  0  0  0  0  0  0
  158.4400  214.2710  148.0620 O   0  0  0  0  0  0  0  0  0  0  0  0
  162.8680  206.6900  151.3010 C   0  0  0  0  0  2  0  0  0  0  0  0
  162.1630  203.2780  152.3470 C   0  0  0  0  0  2  0  0  0  0  0  0
  162.5240  205.5320  152.2310 C   0  0  1  0  0  3  0  0  0  0  0  0
  160.7410  205.4440  152.5210 S   0  0  0  0  0  0  0  0  0  0  0  0
  160.7720  203.6780  152.4070 N   0  0  0  0  0  2  0  0  0  0  0  0
  162.9330  204.2730  151.6300 N   0  0  0  0  0  2  0  0  0  0  0  0
  1  6  1  6  0  0  0
  1  5  1  0  0  0  0
  1  3  1  0  0  0  0
  2  4  1  0  0  0  0
  3 50  1  6  0  0  0
  3  4  1  0  0  0  0
  5 27  1  6  0  0  0
  5  2  1  0  0  0  0
  6  7  1  6  0  0  0
  8  6  1  0  0  0  0
  9 10  1  6  0  0  0
  9 18  1  0  0  0  0
 11 23  1  1  0  0  0
 11 20  1  0  0  0  0
 13 21  1  0  0  0  0
 13 10  1  0  0  0  0
 14 12  1  6  0  0  0
 14 11  1  0  0  0  0
 16 13  2  0  0  0  0
 17 20  1  1  0  0  0
 17 15  1  0  0  0  0
 18  8  1  1  0  0  0
 18 15  1  0  0  0  0
 19 14  1  0  0  0  0
 21 19  1  6  0  0  0
 21 22  1  0  0  0  0
 22  9  1  0  0  0  0
 22 17  1  0  0  0  0
 24 26  2  0  0  0  0
 25 24  2  0  0  0  0
 26 23  1  0  0  0  0
 27 35  1  0  0  0  0
 29 33  1  0  0  0  0
 30 29  1  0  0  0  0
 31 34  1  0  0  0  0
 33 34  1  0  0  0  0
 33 28  2  0  0  0  0
 34 32  1  0  0  0  0
 35 29  1  0  0  0  0
 35 31  1  0  0  0  0
 36 40  1  0  0  0  0
 37 41  1  0  0  0  0
 37 42  1  0  0  0  0
 38 37  1  0  0  0  0
 39 27  1  0  0  0  0
 40 39  1  0  0  0  0
 40 46  1  0  0  0  0
 41 36  1  0  0  0  0
 42 40  1  0  0  0  0
 42 39  1  0  0  0  0
 43 45  1  0  0  0  0
 45 41  1  0  0  0  0
 45 44  2  0  0  0  0
 48 47  1  0  0  0  0
 48 46  1  0  0  0  0
 49 48  2  0  0  0  0
 50 52  1  0  0  0  0
 51 54  1  0  0  0  0
 52 53  1  0  0  0  0
 54 53  1  0  0  0  0
 55 52  1  0  0  0  0
 55 51  1  0  0  0  0
M  END
>  <MODEL>
9

>  <REMARK>
 VINA RESULT:      -2.8      2.929      6.776
  Name = 
  13 active torsions:
  status: ('A' for Active; 'I' for Inactive)
    1  A    between atoms: C_5  and  O_28
    2  A    between atoms: C_8  and  C_26
    3  A    between atoms: C_16  and  C_47
    4  A    between atoms: C_19  and  C_34
    5  A    between atoms: C_19  and  C_35
    6  A    between atoms: C_19  and  C_52
    7  A    between atoms: C_21  and  C_23
    8  A    between atoms: C_22  and  C_23
    9  A    between atoms: C_26  and  C_44
   10  A    between atoms: O_28  and  C_32
   11  A    between atoms: C_29  and  C_44
   12  A    between atoms: C_38  and  C_47
   13  A    between atoms: C_42  and  C_48
                            x       y       z     vdW  Elec       q    Type
                         _______ _______ _______ _____ _____    ______ ____

>  <TORSDO>
F 13

$$$$
