=
 OpenBabel11072410213D

 33 35  0  0  1  0  0  0  0  0999 V2000
  160.8470  207.1710  154.1420 C   0  0  0  0  0  0  0  0  0  0  0  0
  160.8820  207.4440  152.7380 N   0  0  0  0  0  2  0  0  0  0  0  0
  160.8930  205.9780  154.5510 O   0  0  0  0  0  0  0  0  0  0  0  0
  160.7890  208.3060  155.1370 C   0  0  2  0  0  0  0  0  0  0  0  0
  162.0180  208.4150  155.7930 O   0  0  0  0  0  1  0  0  0  0  0  0
  159.7360  208.0070  156.1940 C   0  0  0  0  0  1  0  0  0  0  0  0
  161.5930  210.2440  153.6330 C   0  0  0  0  0  1  0  0  0  0  0  0
  160.4520  209.6530  154.4610 C   0  0  2  0  0  3  0  0  0  0  0  0
  159.7460  210.6830  155.3720 C   0  0  2  0  0  3  0  0  0  0  0  0
  158.5670  212.4780  154.0400 C   0  0  0  0  0  2  0  0  0  0  0  0
  155.4530  210.7790  154.5520 O   0  0  0  0  0  1  0  0  0  0  0  0
  157.2380  212.8950  153.4200 C   0  0  0  0  0  2  0  0  0  0  0  0
  156.1810  213.0700  154.5100 C   0  0  0  0  0  2  0  0  0  0  0  0
  158.4040  211.1570  154.7940 C   0  0  2  0  0  3  0  0  0  0  0  0
  157.3610  211.3370  155.9040 C   0  0  0  0  0  2  0  0  0  0  0  0
  156.0170  211.7910  155.3330 C   0  0  2  0  0  3  0  0  0  0  0  0
  160.6520  211.8460  155.7900 C   0  0  0  0  0  2  0  0  0  0  0  0
  161.4200  211.5130  156.9080 O   0  0  0  0  0  1  0  0  0  0  0  0
  161.0440  206.3880  151.7520 C   0  0  0  0  0  2  0  0  0  0  0  0
  161.8320  206.9200  147.9930 C   0  0  0  0  0  2  0  0  0  0  0  0
  161.4540  206.9760  150.4390 C   0  0  0  0  0  0  0  0  0  0  0  0
  161.5570  206.2320  149.3110 C   0  0  0  0  0  0  0  0  0  0  0  0
  162.6380  208.1240  148.1740 N   0  0  0  0  0  2  0  0  0  0  0  0
  161.8870  209.0230  149.0410 C   0  0  0  0  0  2  0  0  0  0  0  0
  161.8260  208.4370  150.4470 C   0  0  0  0  0  2  0  0  0  0  0  0
  161.3640  204.0540  148.0720 C   0  0  0  0  0  3  0  0  0  0  0  0
  160.8410  204.1210  150.4330 C   0  0  0  0  0  3  0  0  0  0  0  0
  160.5240  202.7620  150.4020 C   0  0  0  0  0  3  0  0  0  0  0  0
  161.0430  202.6930  148.0320 C   0  0  0  0  0  0  0  0  0  0  0  0
  160.6260  202.0480  149.2060 C   0  0  0  0  0  3  0  0  0  0  0  0
  161.2770  204.7770  149.2720 C   0  0  0  0  0  0  0  0  0  0  0  0
  160.9420  202.6480  145.5610 C   0  0  0  0  0  1  0  0  0  0  0  0
  161.1380  202.0110  146.8160 O   0  0  0  0  0  0  0  0  0  0  0  0
  1  3  2  0  0  0  0
  1  4  1  0  0  0  0
  2  1  1  0  0  0  0
  4  5  1  0  0  0  0
  4  6  1  1  0  0  0
  8  7  1  1  0  0  0
  8  4  1  0  0  0  0
  8  9  1  0  0  0  0
  9 17  1  6  0  0  0
 10 14  1  0  0  0  0
 12 10  1  0  0  0  0
 12 13  1  0  0  0  0
 13 16  1  0  0  0  0
 14  9  1  1  0  0  0
 14 15  1  0  0  0  0
 16 11  1  6  0  0  0
 16 15  1  0  0  0  0
 17 18  1  0  0  0  0
 19  2  1  0  0  0  0
 20 23  1  0  0  0  0
 20 22  1  0  0  0  0
 21 25  1  0  0  0  0
 21 19  1  0  0  0  0
 22 21  2  0  0  0  0
 23 24  1  0  0  0  0
 24 25  1  0  0  0  0
 26 31  1  0  0  0  0
 28 27  1  0  0  0  0
 29 26  2  0  0  0  0
 29 30  1  0  0  0  0
 30 28  2  0  0  0  0
 31 22  1  0  0  0  0
 31 27  2  0  0  0  0
 32 33  1  0  0  0  0
 33 29  1  0  0  0  0
M  END
>  <MODEL>
1

>  <REMARK>
 VINA RESULT:      -8.3      0.000      0.000
  Name = 
  9 active torsions:
  status: ('A' for Active; 'I' for Inactive)
    1  A    between atoms: C_1  and  C_21
    2  A    between atoms: C_5  and  N_7
    3  A    between atoms: C_5  and  C_14
    4  A    between atoms: C_15  and  C_27
    5  A    between atoms: C_16  and  C_33
    6  A    between atoms: C_20  and  C_27
    7  A    between atoms: C_21  and  C_25
    8  A    between atoms: C_23  and  O_24
    9  A    between atoms: C_25  and  C_27
                            x       y       z     vdW  Elec       q    Type
                         _______ _______ _______ _____ _____    ______ ____

>  <TORSDO>
F 9

$$$$
=
 OpenBabel11072410213D

 33 35  0  0  1  0  0  0  0  0999 V2000
  160.7250  209.2140  154.3520 C   0  0  0  0  0  0  0  0  0  0  0  0
  161.2530  208.9800  153.0430 N   0  0  0  0  0  2  0  0  0  0  0  0
  160.0020  208.3380  154.9030 O   0  0  0  0  0  0  0  0  0  0  0  0
  161.0570  210.4890  155.0910 C   0  0  2  0  0  0  0  0  0  0  0  0
  162.4160  210.7760  154.9380 O   0  0  0  0  0  1  0  0  0  0  0  0
  160.7970  210.3020  156.5790 C   0  0  0  0  0  1  0  0  0  0  0  0
  159.9900  212.7770  155.6300 C   0  0  0  0  0  1  0  0  0  0  0  0
  160.2230  211.6870  154.5850 C   0  0  2  0  0  3  0  0  0  0  0  0
  158.9560  211.3090  153.7850 C   0  0  2  0  0  3  0  0  0  0  0  0
  160.3330  212.3220  151.9230 C   0  0  0  0  0  2  0  0  0  0  0  0
  157.3210  213.0380  150.1180 O   0  0  0  0  0  1  0  0  0  0  0  0
  160.2820  212.9050  150.5150 C   0  0  0  0  0  2  0  0  0  0  0  0
  159.4130  214.1610  150.4970 C   0  0  0  0  0  2  0  0  0  0  0  0
  158.9230  211.9600  152.3930 C   0  0  2  0  0  3  0  0  0  0  0  0
  158.0550  213.2240  152.3990 C   0  0  0  0  0  2  0  0  0  0  0  0
  158.0020  213.8660  151.0120 C   0  0  2  0  0  3  0  0  0  0  0  0
  157.6560  211.5260  154.5690 C   0  0  0  0  0  2  0  0  0  0  0  0
  157.4170  210.4720  155.4540 O   0  0  0  0  0  1  0  0  0  0  0  0
  161.0450  207.7240  152.3410 C   0  0  0  0  0  2  0  0  0  0  0  0
  161.8770  207.0270  148.6190 C   0  0  0  0  0  2  0  0  0  0  0  0
  161.4680  207.8630  150.9140 C   0  0  0  0  0  0  0  0  0  0  0  0
  161.5900  206.7970  150.0850 C   0  0  0  0  0  0  0  0  0  0  0  0
  162.6730  208.2330  148.4120 N   0  0  0  0  0  2  0  0  0  0  0  0
  161.9060  209.3560  148.9350 C   0  0  0  0  0  2  0  0  0  0  0  0
  161.8310  209.2520  150.4550 C   0  0  0  0  0  2  0  0  0  0  0  0
  160.9190  204.4260  149.5900 C   0  0  0  0  0  3  0  0  0  0  0  0
  161.3860  205.0690  151.8750 C   0  0  0  0  0  3  0  0  0  0  0  0
  161.0850  203.7740  152.3020 C   0  0  0  0  0  3  0  0  0  0  0  0
  160.6100  203.1280  150.0110 C   0  0  0  0  0  0  0  0  0  0  0  0
  160.7000  202.8050  151.3730 C   0  0  0  0  0  3  0  0  0  0  0  0
  161.3200  205.4040  150.5140 C   0  0  0  0  0  0  0  0  0  0  0  0
  160.9830  201.8820  147.9070 C   0  0  0  0  0  1  0  0  0  0  0  0
  160.2100  202.1860  149.0590 O   0  0  0  0  0  0  0  0  0  0  0  0
  1  3  2  0  0  0  0
  1  4  1  0  0  0  0
  2  1  1  0  0  0  0
  4  6  1  1  0  0  0
  5  4  1  0  0  0  0
  8  4  1  0  0  0  0
  8  7  1  1  0  0  0
  9 17  1  1  0  0  0
  9  8  1  0  0  0  0
 10 14  1  0  0  0  0
 12 10  1  0  0  0  0
 13 12  1  0  0  0  0
 13 16  1  0  0  0  0
 14 15  1  0  0  0  0
 14  9  1  1  0  0  0
 16 11  1  6  0  0  0
 16 15  1  0  0  0  0
 17 18  1  0  0  0  0
 19  2  1  0  0  0  0
 20 22  1  0  0  0  0
 21 19  1  0  0  0  0
 22 31  1  0  0  0  0
 22 21  2  0  0  0  0
 23 20  1  0  0  0  0
 23 24  1  0  0  0  0
 24 25  1  0  0  0  0
 25 21  1  0  0  0  0
 26 29  2  0  0  0  0
 26 31  1  0  0  0  0
 27 28  1  0  0  0  0
 29 30  1  0  0  0  0
 30 28  2  0  0  0  0
 31 27  2  0  0  0  0
 32 33  1  0  0  0  0
 33 29  1  0  0  0  0
M  END
>  <MODEL>
2

>  <REMARK>
 VINA RESULT:      -8.1      1.951      2.767
  Name = 
  9 active torsions:
  status: ('A' for Active; 'I' for Inactive)
    1  A    between atoms: C_1  and  C_21
    2  A    between atoms: C_5  and  N_7
    3  A    between atoms: C_5  and  C_14
    4  A    between atoms: C_15  and  C_27
    5  A    between atoms: C_16  and  C_33
    6  A    between atoms: C_20  and  C_27
    7  A    between atoms: C_21  and  C_25
    8  A    between atoms: C_23  and  O_24
    9  A    between atoms: C_25  and  C_27
                            x       y       z     vdW  Elec       q    Type
                         _______ _______ _______ _____ _____    ______ ____

>  <TORSDO>
F 9

$$$$
=
 OpenBabel11072410213D

 33 35  0  0  1  0  0  0  0  0999 V2000
  162.0050  207.2690  148.2880 C   0  0  0  0  0  0  0  0  0  0  0  0
  161.1120  207.4580  149.3900 N   0  0  0  0  0  2  0  0  0  0  0  0
  163.1440  207.8120  148.3030 O   0  0  0  0  0  0  0  0  0  0  0  0
  161.6020  206.3960  147.1230 C   0  0  2  0  0  0  0  0  0  0  0  0
  161.9650  207.0180  145.9260 O   0  0  0  0  0  1  0  0  0  0  0  0
  160.0890  206.2290  147.1070 C   0  0  0  0  0  1  0  0  0  0  0  0
  163.5150  204.8530  146.3330 C   0  0  0  0  0  1  0  0  0  0  0  0
  162.2590  204.9990  147.1910 C   0  0  2  0  0  3  0  0  0  0  0  0
  161.2790  203.8100  147.0700 C   0  0  2  0  0  3  0  0  0  0  0  0
  161.0590  201.3960  147.7860 C   0  0  0  0  0  2  0  0  0  0  0  0
  161.9240  202.3380  151.1340 O   0  0  0  0  0  1  0  0  0  0  0  0
  161.2620  200.4190  148.9390 C   0  0  0  0  0  2  0  0  0  0  0  0
  160.3730  200.8060  150.1200 C   0  0  0  0  0  2  0  0  0  0  0  0
  161.4130  202.8160  148.2330 C   0  0  2  0  0  3  0  0  0  0  0  0
  160.5060  203.2160  149.4040 C   0  0  0  0  0  2  0  0  0  0  0  0
  160.6490  202.2410  150.5730 C   0  0  2  0  0  3  0  0  0  0  0  0
  161.3240  203.1240  145.6990 C   0  0  0  0  0  2  0  0  0  0  0  0
  160.6350  203.8670  144.7380 O   0  0  0  0  0  1  0  0  0  0  0  0
  161.5010  208.2040  150.5760 C   0  0  0  0  0  2  0  0  0  0  0  0
  160.7570  206.8960  154.1500 C   0  0  0  0  0  2  0  0  0  0  0  0
  161.3570  207.3410  151.7890 C   0  0  0  0  0  0  0  0  0  0  0  0
  161.0280  207.8440  153.0040 C   0  0  0  0  0  0  0  0  0  0  0  0
  161.5460  205.6730  154.0330 N   0  0  0  0  0  2  0  0  0  0  0  0
  161.1740  205.0330  152.7780 C   0  0  0  0  0  2  0  0  0  0  0  0
  161.6750  205.8770  151.6110 C   0  0  0  0  0  2  0  0  0  0  0  0
  161.1140  209.8830  154.4700 C   0  0  0  0  0  3  0  0  0  0  0  0
  160.1400  210.0550  152.2620 C   0  0  0  0  0  3  0  0  0  0  0  0
  159.8560  211.4030  152.4920 C   0  0  0  0  0  3  0  0  0  0  0  0
  160.8280  211.2320  154.7090 C   0  0  0  0  0  0  0  0  0  0  0  0
  160.2000  211.9910  153.7110 C   0  0  0  0  0  3  0  0  0  0  0  0
  160.7840  209.2860  153.2430 C   0  0  0  0  0  0  0  0  0  0  0  0
  161.6170  211.0010  157.0420 C   0  0  0  0  0  1  0  0  0  0  0  0
  161.1680  211.7860  155.9460 O   0  0  0  0  0  0  0  0  0  0  0  0
  1  3  2  0  0  0  0
  1  2  1  0  0  0  0
  2 19  1  0  0  0  0
  4  6  1  1  0  0  0
  4  8  1  0  0  0  0
  4  1  1  0  0  0  0
  5  4  1  0  0  0  0
  8  7  1  6  0  0  0
  9 17  1  6  0  0  0
  9  8  1  0  0  0  0
 10 14  1  0  0  0  0
 10 12  1  0  0  0  0
 12 13  1  0  0  0  0
 13 16  1  0  0  0  0
 14  9  1  6  0  0  0
 14 15  1  0  0  0  0
 15 16  1  0  0  0  0
 16 11  1  6  0  0  0
 18 17  1  0  0  0  0
 19 21  1  0  0  0  0
 21 22  2  0  0  0  0
 22 31  1  0  0  0  0
 22 20  1  0  0  0  0
 23 20  1  0  0  0  0
 24 23  1  0  0  0  0
 25 21  1  0  0  0  0
 25 24  1  0  0  0  0
 26 29  1  0  0  0  0
 27 28  2  0  0  0  0
 27 31  1  0  0  0  0
 28 30  1  0  0  0  0
 29 33  1  0  0  0  0
 30 29  2  0  0  0  0
 31 26  2  0  0  0  0
 33 32  1  0  0  0  0
M  END
>  <MODEL>
3

>  <REMARK>
 VINA RESULT:      -8.0      2.416      9.619
  Name = 
  9 active torsions:
  status: ('A' for Active; 'I' for Inactive)
    1  A    between atoms: C_1  and  C_21
    2  A    between atoms: C_5  and  N_7
    3  A    between atoms: C_5  and  C_14
    4  A    between atoms: C_15  and  C_27
    5  A    between atoms: C_16  and  C_33
    6  A    between atoms: C_20  and  C_27
    7  A    between atoms: C_21  and  C_25
    8  A    between atoms: C_23  and  O_24
    9  A    between atoms: C_25  and  C_27
                            x       y       z     vdW  Elec       q    Type
                         _______ _______ _______ _____ _____    ______ ____

>  <TORSDO>
F 9

$$$$
=
 OpenBabel11072410213D

 33 35  0  0  1  0  0  0  0  0999 V2000
  161.9680  207.2600  148.4160 C   0  0  0  0  0  0  0  0  0  0  0  0
  161.0600  207.5120  149.4930 N   0  0  0  0  0  2  0  0  0  0  0  0
  163.1390  207.7290  148.4610 O   0  0  0  0  0  0  0  0  0  0  0  0
  161.5420  206.4090  147.2440 C   0  0  2  0  0  0  0  0  0  0  0  0
  161.8340  207.0770  146.0510 O   0  0  0  0  0  1  0  0  0  0  0  0
  160.0350  206.1960  147.2860 C   0  0  0  0  0  1  0  0  0  0  0  0
  163.4890  204.9630  146.3590 C   0  0  0  0  0  1  0  0  0  0  0  0
  162.2420  205.0320  147.2410 C   0  0  2  0  0  3  0  0  0  0  0  0
  161.2980  203.8190  147.0800 C   0  0  2  0  0  3  0  0  0  0  0  0
  161.0250  201.4110  147.7980 C   0  0  0  0  0  2  0  0  0  0  0  0
  161.9500  202.3280  151.1370 O   0  0  0  0  0  1  0  0  0  0  0  0
  161.2160  200.4280  148.9480 C   0  0  0  0  0  2  0  0  0  0  0  0
  160.3510  200.8360  150.1390 C   0  0  0  0  0  2  0  0  0  0  0  0
  161.4200  202.8220  148.2420 C   0  0  2  0  0  3  0  0  0  0  0  0
  160.5360  203.2430  149.4230 C   0  0  0  0  0  2  0  0  0  0  0  0
  160.6670  202.2640  150.5900 C   0  0  2  0  0  3  0  0  0  0  0  0
  161.4050  203.1440  145.7080 C   0  0  0  0  0  2  0  0  0  0  0  0
  160.5380  203.7330  144.7850 O   0  0  0  0  0  1  0  0  0  0  0  0
  161.4630  208.2350  150.6870 C   0  0  0  0  0  2  0  0  0  0  0  0
  160.7220  206.8690  154.2400 C   0  0  0  0  0  2  0  0  0  0  0  0
  161.3250  207.3540  151.8870 C   0  0  0  0  0  0  0  0  0  0  0  0
  160.9860  207.8360  153.1080 C   0  0  0  0  0  0  0  0  0  0  0  0
  161.5270  205.6580  154.1080 N   0  0  0  0  0  2  0  0  0  0  0  0
  161.1670  205.0300  152.8430 C   0  0  0  0  0  2  0  0  0  0  0  0
  161.6620  205.8970  151.6900 C   0  0  0  0  0  2  0  0  0  0  0  0
  160.0370  210.0620  152.4310 C   0  0  0  0  0  3  0  0  0  0  0  0
  161.2320  209.8750  154.5260 C   0  0  0  0  0  3  0  0  0  0  0  0
  161.0370  211.2380  154.7600 C   0  0  0  0  0  3  0  0  0  0  0  0
  159.8430  211.4290  152.6560 C   0  0  0  0  0  0  0  0  0  0  0  0
  160.3430  212.0130  153.8290 C   0  0  0  0  0  3  0  0  0  0  0  0
  160.7230  209.2710  153.3670 C   0  0  0  0  0  0  0  0  0  0  0  0
  159.7910  213.1900  150.9190 C   0  0  0  0  0  1  0  0  0  0  0  0
  159.1600  212.1820  151.6960 O   0  0  0  0  0  0  0  0  0  0  0  0
  1  3  2  0  0  0  0
  1  2  1  0  0  0  0
  2 19  1  0  0  0  0
  4  6  1  1  0  0  0
  4  1  1  0  0  0  0
  5  4  1  0  0  0  0
  8  7  1  6  0  0  0
  8  4  1  0  0  0  0
  9 17  1  6  0  0  0
  9  8  1  0  0  0  0
 10 14  1  0  0  0  0
 10 12  1  0  0  0  0
 12 13  1  0  0  0  0
 13 16  1  0  0  0  0
 14  9  1  6  0  0  0
 14 15  1  0  0  0  0
 15 16  1  0  0  0  0
 16 11  1  6  0  0  0
 18 17  1  0  0  0  0
 19 21  1  0  0  0  0
 21 22  2  0  0  0  0
 22 31  1  0  0  0  0
 22 20  1  0  0  0  0
 23 20  1  0  0  0  0
 24 23  1  0  0  0  0
 25 21  1  0  0  0  0
 25 24  1  0  0  0  0
 26 29  2  0  0  0  0
 26 31  1  0  0  0  0
 27 28  1  0  0  0  0
 29 30  1  0  0  0  0
 30 28  2  0  0  0  0
 31 27  2  0  0  0  0
 32 33  1  0  0  0  0
 33 29  1  0  0  0  0
M  END
>  <MODEL>
4

>  <REMARK>
 VINA RESULT:      -7.9      2.712      9.405
  Name = 
  9 active torsions:
  status: ('A' for Active; 'I' for Inactive)
    1  A    between atoms: C_1  and  C_21
    2  A    between atoms: C_5  and  N_7
    3  A    between atoms: C_5  and  C_14
    4  A    between atoms: C_15  and  C_27
    5  A    between atoms: C_16  and  C_33
    6  A    between atoms: C_20  and  C_27
    7  A    between atoms: C_21  and  C_25
    8  A    between atoms: C_23  and  O_24
    9  A    between atoms: C_25  and  C_27
                            x       y       z     vdW  Elec       q    Type
                         _______ _______ _______ _____ _____    ______ ____

>  <TORSDO>
F 9

$$$$
=
 OpenBabel11072410213D

 33 35  0  0  1  0  0  0  0  0999 V2000
  161.1950  207.0540  154.3970 C   0  0  0  0  0  0  0  0  0  0  0  0
  161.4790  207.4880  153.0630 N   0  0  0  0  0  2  0  0  0  0  0  0
  161.1540  205.8200  154.6590 O   0  0  0  0  0  0  0  0  0  0  0  0
  160.9790  208.0660  155.4970 C   0  0  2  0  0  0  0  0  0  0  0  0
  161.9270  207.8700  156.5050 O   0  0  0  0  0  1  0  0  0  0  0  0
  159.6060  207.8600  156.1200 C   0  0  0  0  0  1  0  0  0  0  0  0
  162.3950  210.2170  155.3210 C   0  0  0  0  0  1  0  0  0  0  0  0
  161.0800  209.5180  154.9780 C   0  0  2  0  0  3  0  0  0  0  0  0
  159.8290  210.3890  155.2250 C   0  0  2  0  0  3  0  0  0  0  0  0
  160.4940  211.1320  152.9030 C   0  0  0  0  0  2  0  0  0  0  0  0
  157.4280  212.9690  152.6400 O   0  0  0  0  0  1  0  0  0  0  0  0
  160.0250  211.8660  151.6510 C   0  0  0  0  0  2  0  0  0  0  0  0
  159.7130  213.3240  151.9820 C   0  0  0  0  0  2  0  0  0  0  0  0
  159.4050  211.1780  153.9770 C   0  0  2  0  0  3  0  0  0  0  0  0
  159.1070  212.6410  154.3280 C   0  0  0  0  0  2  0  0  0  0  0  0
  158.6660  213.4280  153.0930 C   0  0  2  0  0  3  0  0  0  0  0  0
  159.9400  211.2730  156.4730 C   0  0  0  0  0  2  0  0  0  0  0  0
  158.7900  211.1850  157.2610 O   0  0  0  0  0  1  0  0  0  0  0  0
  161.7970  206.5500  151.9990 C   0  0  0  0  0  2  0  0  0  0  0  0
  161.5240  207.4420  148.2350 C   0  0  0  0  0  2  0  0  0  0  0  0
  161.8350  207.2640  150.6850 C   0  0  0  0  0  0  0  0  0  0  0  0
  161.6160  206.6300  149.5070 C   0  0  0  0  0  0  0  0  0  0  0  0
  162.3600  208.6370  148.3000 N   0  0  0  0  0  2  0  0  0  0  0  0
  161.8860  209.4400  149.4200 C   0  0  0  0  0  2  0  0  0  0  0  0
  162.2090  208.7240  150.7280 C   0  0  0  0  0  2  0  0  0  0  0  0
  161.4660  204.4920  148.1960 C   0  0  0  0  0  3  0  0  0  0  0  0
  160.8190  204.4970  150.5270 C   0  0  0  0  0  3  0  0  0  0  0  0
  160.4890  203.1430  150.4390 C   0  0  0  0  0  3  0  0  0  0  0  0
  161.1330  203.1370  148.0990 C   0  0  0  0  0  0  0  0  0  0  0  0
  160.6470  202.4630  149.2290 C   0  0  0  0  0  3  0  0  0  0  0  0
  161.3230  205.1810  149.4110 C   0  0  0  0  0  0  0  0  0  0  0  0
  161.1880  203.1700  145.6260 C   0  0  0  0  0  1  0  0  0  0  0  0
  161.2850  202.4890  146.8690 O   0  0  0  0  0  0  0  0  0  0  0  0
  1  3  2  0  0  0  0
  1  4  1  0  0  0  0
  2  1  1  0  0  0  0
  4  6  1  1  0  0  0
  4  5  1  0  0  0  0
  8  9  1  0  0  0  0
  8  7  1  1  0  0  0
  8  4  1  0  0  0  0
  9 17  1  1  0  0  0
 10 14  1  0  0  0  0
 12 13  1  0  0  0  0
 12 10  1  0  0  0  0
 13 16  1  0  0  0  0
 14 15  1  0  0  0  0
 14  9  1  1  0  0  0
 16 11  1  6  0  0  0
 16 15  1  0  0  0  0
 17 18  1  0  0  0  0
 19  2  1  0  0  0  0
 20 23  1  0  0  0  0
 20 22  1  0  0  0  0
 21 25  1  0  0  0  0
 21 19  1  0  0  0  0
 22 21  2  0  0  0  0
 23 24  1  0  0  0  0
 24 25  1  0  0  0  0
 26 31  1  0  0  0  0
 28 27  1  0  0  0  0
 29 26  2  0  0  0  0
 29 30  1  0  0  0  0
 30 28  2  0  0  0  0
 31 22  1  0  0  0  0
 31 27  2  0  0  0  0
 32 33  1  0  0  0  0
 33 29  1  0  0  0  0
M  END
>  <MODEL>
5

>  <REMARK>
 VINA RESULT:      -7.8      1.363      1.674
  Name = 
  9 active torsions:
  status: ('A' for Active; 'I' for Inactive)
    1  A    between atoms: C_1  and  C_21
    2  A    between atoms: C_5  and  N_7
    3  A    between atoms: C_5  and  C_14
    4  A    between atoms: C_15  and  C_27
    5  A    between atoms: C_16  and  C_33
    6  A    between atoms: C_20  and  C_27
    7  A    between atoms: C_21  and  C_25
    8  A    between atoms: C_23  and  O_24
    9  A    between atoms: C_25  and  C_27
                            x       y       z     vdW  Elec       q    Type
                         _______ _______ _______ _____ _____    ______ ____

>  <TORSDO>
F 9

$$$$
=
 OpenBabel11072410213D

 33 35  0  0  1  0  0  0  0  0999 V2000
  161.4340  206.7330  148.3620 C   0  0  0  0  0  0  0  0  0  0  0  0
  162.5210  207.4150  148.9980 N   0  0  0  0  0  2  0  0  0  0  0  0
  160.3300  206.6170  148.9620 O   0  0  0  0  0  0  0  0  0  0  0  0
  161.5940  206.1830  146.9650 C   0  0  2  0  0  0  0  0  0  0  0  0
  162.3630  207.0660  146.2010 O   0  0  0  0  0  1  0  0  0  0  0  0
  160.2300  206.0760  146.2970 C   0  0  0  0  0  1  0  0  0  0  0  0
  163.3640  204.6250  145.9140 C   0  0  0  0  0  1  0  0  0  0  0  0
  162.2640  204.7910  146.9620 C   0  0  2  0  0  3  0  0  0  0  0  0
  161.2870  203.5960  147.0340 C   0  0  2  0  0  3  0  0  0  0  0  0
  160.9900  201.3570  148.1670 C   0  0  0  0  0  2  0  0  0  0  0  0
  161.9500  202.8370  151.2870 O   0  0  0  0  0  1  0  0  0  0  0  0
  161.1780  200.5900  149.4720 C   0  0  0  0  0  2  0  0  0  0  0  0
  160.3260  201.2130  150.5760 C   0  0  0  0  0  2  0  0  0  0  0  0
  161.4050  202.8180  148.3530 C   0  0  2  0  0  3  0  0  0  0  0  0
  160.5350  203.4530  149.4450 C   0  0  0  0  0  2  0  0  0  0  0  0
  160.6630  202.6930  150.7660 C   0  0  2  0  0  3  0  0  0  0  0  0
  161.3510  202.6840  145.8020 C   0  0  0  0  0  2  0  0  0  0  0  0
  160.2790  202.9230  144.9400 O   0  0  0  0  0  1  0  0  0  0  0  0
  162.3770  208.0500  150.2970 C   0  0  0  0  0  2  0  0  0  0  0  0
  161.3790  211.7440  150.9250 C   0  0  0  0  0  2  0  0  0  0  0  0
  162.0320  209.4940  150.1220 C   0  0  0  0  0  0  0  0  0  0  0  0
  161.5650  210.2590  151.1390 C   0  0  0  0  0  0  0  0  0  0  0  0
  161.0330  212.0470  149.5390 N   0  0  0  0  0  2  0  0  0  0  0  0
  162.1290  211.5720  148.7040 C   0  0  0  0  0  2  0  0  0  0  0  0
  162.1580  210.0480  148.7240 C   0  0  0  0  0  2  0  0  0  0  0  0
  161.1390  208.3700  152.7400 C   0  0  0  0  0  3  0  0  0  0  0  0
  161.2800  210.6300  153.5900 C   0  0  0  0  0  3  0  0  0  0  0  0
  161.0280  210.1610  154.8810 C   0  0  0  0  0  3  0  0  0  0  0  0
  160.8810  207.8930  154.0300 C   0  0  0  0  0  0  0  0  0  0  0  0
  160.8310  208.7960  155.1020 C   0  0  0  0  0  3  0  0  0  0  0  0
  161.3510  209.7380  152.5100 C   0  0  0  0  0  0  0  0  0  0  0  0
  161.2740  205.5350  153.3930 C   0  0  0  0  0  1  0  0  0  0  0  0
  160.6700  206.5240  154.2150 O   0  0  0  0  0  0  0  0  0  0  0  0
  1  3  2  0  0  0  0
  1  2  1  0  0  0  0
  2 19  1  0  0  0  0
  4  6  1  6  0  0  0
  4  1  1  0  0  0  0
  5  4  1  0  0  0  0
  8  7  1  6  0  0  0
  8  4  1  0  0  0  0
  8  9  1  0  0  0  0
  9 17  1  6  0  0  0
 10 14  1  0  0  0  0
 10 12  1  0  0  0  0
 12 13  1  0  0  0  0
 13 16  1  0  0  0  0
 14  9  1  6  0  0  0
 14 15  1  0  0  0  0
 15 16  1  0  0  0  0
 16 11  1  6  0  0  0
 18 17  1  0  0  0  0
 20 22  1  0  0  0  0
 21 19  1  0  0  0  0
 21 22  2  0  0  0  0
 22 31  1  0  0  0  0
 23 20  1  0  0  0  0
 24 25  1  0  0  0  0
 24 23  1  0  0  0  0
 25 21  1  0  0  0  0
 26 29  1  0  0  0  0
 27 28  2  0  0  0  0
 28 30  1  0  0  0  0
 29 33  1  0  0  0  0
 29 30  2  0  0  0  0
 31 26  2  0  0  0  0
 31 27  1  0  0  0  0
 32 33  1  0  0  0  0
M  END
>  <MODEL>
6

>  <REMARK>
 VINA RESULT:      -7.3      2.767      8.938
  Name = 
  9 active torsions:
  status: ('A' for Active; 'I' for Inactive)
    1  A    between atoms: C_1  and  C_21
    2  A    between atoms: C_5  and  N_7
    3  A    between atoms: C_5  and  C_14
    4  A    between atoms: C_15  and  C_27
    5  A    between atoms: C_16  and  C_33
    6  A    between atoms: C_20  and  C_27
    7  A    between atoms: C_21  and  C_25
    8  A    between atoms: C_23  and  O_24
    9  A    between atoms: C_25  and  C_27
                            x       y       z     vdW  Elec       q    Type
                         _______ _______ _______ _____ _____    ______ ____

>  <TORSDO>
F 9

$$$$
=
 OpenBabel11072410213D

 33 35  0  0  1  0  0  0  0  0999 V2000
  161.2870  206.4860  148.5280 C   0  0  0  0  0  0  0  0  0  0  0  0
  162.3510  207.0280  149.3170 N   0  0  0  0  0  2  0  0  0  0  0  0
  160.1520  206.2990  149.0480 O   0  0  0  0  0  0  0  0  0  0  0  0
  161.5070  206.1710  147.0670 C   0  0  2  0  0  0  0  0  0  0  0  0
  162.3250  207.1490  146.4970 O   0  0  0  0  0  1  0  0  0  0  0  0
  160.1760  206.2060  146.3290 C   0  0  0  0  0  1  0  0  0  0  0  0
  163.1060  204.7020  145.6710 C   0  0  0  0  0  1  0  0  0  0  0  0
  162.1550  204.7840  146.8650 C   0  0  2  0  0  3  0  0  0  0  0  0
  161.1840  203.5860  146.9700 C   0  0  2  0  0  3  0  0  0  0  0  0
  160.9750  201.3370  148.1050 C   0  0  0  0  0  2  0  0  0  0  0  0
  161.9370  202.8430  151.2110 O   0  0  0  0  0  1  0  0  0  0  0  0
  161.2070  200.5750  149.4050 C   0  0  0  0  0  2  0  0  0  0  0  0
  160.3540  201.1710  150.5230 C   0  0  0  0  0  2  0  0  0  0  0  0
  161.3470  202.8110  148.2860 C   0  0  2  0  0  3  0  0  0  0  0  0
  160.4750  203.4170  149.3930 C   0  0  0  0  0  2  0  0  0  0  0  0
  160.6470  202.6600  150.7110 C   0  0  2  0  0  3  0  0  0  0  0  0
  161.2100  202.6730  145.7390 C   0  0  0  0  0  2  0  0  0  0  0  0
  160.1300  202.9320  144.8930 O   0  0  0  0  0  1  0  0  0  0  0  0
  162.1520  207.4430  150.6960 C   0  0  0  0  0  2  0  0  0  0  0  0
  161.0760  210.9790  151.8690 C   0  0  0  0  0  2  0  0  0  0  0  0
  161.8070  208.8980  150.7450 C   0  0  0  0  0  0  0  0  0  0  0  0
  161.2610  209.4790  151.8400 C   0  0  0  0  0  0  0  0  0  0  0  0
  160.8290  211.5150  150.5340 N   0  0  0  0  0  2  0  0  0  0  0  0
  161.9860  211.1870  149.7120 C   0  0  0  0  0  2  0  0  0  0  0  0
  162.0280  209.6810  149.4750 C   0  0  0  0  0  2  0  0  0  0  0  0
  160.6280  209.4070  154.2710 C   0  0  0  0  0  3  0  0  0  0  0  0
  161.0650  207.3340  153.1020 C   0  0  0  0  0  3  0  0  0  0  0  0
  160.8290  206.6200  154.2780 C   0  0  0  0  0  3  0  0  0  0  0  0
  160.3960  208.6980  155.4550 C   0  0  0  0  0  0  0  0  0  0  0  0
  160.4930  207.2980  155.4510 C   0  0  0  0  0  3  0  0  0  0  0  0
  160.9540  208.7330  153.0830 C   0  0  0  0  0  0  0  0  0  0  0  0
  159.8410  210.8080  156.6210 C   0  0  0  0  0  1  0  0  0  0  0  0
  160.0800  209.4080  156.6170 O   0  0  0  0  0  0  0  0  0  0  0  0
  1  3  2  0  0  0  0
  1  2  1  0  0  0  0
  2 19  1  0  0  0  0
  4  6  1  6  0  0  0
  4  1  1  0  0  0  0
  5  4  1  0  0  0  0
  8  7  1  6  0  0  0
  8  9  1  0  0  0  0
  8  4  1  0  0  0  0
  9 17  1  6  0  0  0
 10 14  1  0  0  0  0
 10 12  1  0  0  0  0
 12 13  1  0  0  0  0
 13 16  1  0  0  0  0
 14  9  1  6  0  0  0
 14 15  1  0  0  0  0
 15 16  1  0  0  0  0
 16 11  1  6  0  0  0
 18 17  1  0  0  0  0
 19 21  1  0  0  0  0
 21 22  2  0  0  0  0
 22 20  1  0  0  0  0
 22 31  1  0  0  0  0
 23 20  1  0  0  0  0
 24 23  1  0  0  0  0
 25 24  1  0  0  0  0
 25 21  1  0  0  0  0
 26 29  1  0  0  0  0
 27 28  2  0  0  0  0
 28 30  1  0  0  0  0
 29 33  1  0  0  0  0
 30 29  2  0  0  0  0
 31 27  1  0  0  0  0
 31 26  2  0  0  0  0
 33 32  1  0  0  0  0
M  END
>  <MODEL>
7

>  <REMARK>
 VINA RESULT:      -7.2      2.367      9.173
  Name = 
  9 active torsions:
  status: ('A' for Active; 'I' for Inactive)
    1  A    between atoms: C_1  and  C_21
    2  A    between atoms: C_5  and  N_7
    3  A    between atoms: C_5  and  C_14
    4  A    between atoms: C_15  and  C_27
    5  A    between atoms: C_16  and  C_33
    6  A    between atoms: C_20  and  C_27
    7  A    between atoms: C_21  and  C_25
    8  A    between atoms: C_23  and  O_24
    9  A    between atoms: C_25  and  C_27
                            x       y       z     vdW  Elec       q    Type
                         _______ _______ _______ _____ _____    ______ ____

>  <TORSDO>
F 9

$$$$
=
 OpenBabel11072410213D

 33 35  0  0  1  0  0  0  0  0999 V2000
  161.7980  208.7100  151.6400 C   0  0  0  0  0  0  0  0  0  0  0  0
  160.6800  209.4480  152.1450 N   0  0  0  0  0  2  0  0  0  0  0  0
  162.9230  209.2720  151.5330 O   0  0  0  0  0  0  0  0  0  0  0  0
  161.6430  207.2550  151.2650 C   0  0  2  0  0  0  0  0  0  0  0  0
  160.3910  206.7960  151.6830 O   0  0  0  0  0  1  0  0  0  0  0  0
  162.6950  206.4260  151.9890 C   0  0  0  0  0  1  0  0  0  0  0  0
  161.9130  208.3140  148.9270 C   0  0  0  0  0  1  0  0  0  0  0  0
  161.7870  207.0290  149.7440 C   0  0  2  0  0  3  0  0  0  0  0  0
  160.8040  206.0010  149.1410 C   0  0  2  0  0  3  0  0  0  0  0  0
  161.0880  203.6540  148.2440 C   0  0  0  0  0  2  0  0  0  0  0  0
  161.9270  202.5240  151.5400 O   0  0  0  0  0  1  0  0  0  0  0  0
  161.5340  202.2380  148.5890 C   0  0  0  0  0  2  0  0  0  0  0  0
  160.6500  201.6630  149.6950 C   0  0  0  0  0  2  0  0  0  0  0  0
  161.1860  204.5520  149.4800 C   0  0  2  0  0  3  0  0  0  0  0  0
  160.2800  203.9890  150.5830 C   0  0  0  0  0  2  0  0  0  0  0  0
  160.6680  202.5530  150.9380 C   0  0  2  0  0  3  0  0  0  0  0  0
  160.5510  206.2090  147.6430 C   0  0  0  0  0  2  0  0  0  0  0  0
  161.7510  206.2810  146.9320 O   0  0  0  0  0  1  0  0  0  0  0  0
  160.8100  210.8170  152.6160 C   0  0  0  0  0  2  0  0  0  0  0  0
  158.0940  211.3500  155.3310 C   0  0  0  0  0  2  0  0  0  0  0  0
  159.5710  211.2230  153.3470 C   0  0  0  0  0  0  0  0  0  0  0  0
  159.2870  210.7820  154.5980 C   0  0  0  0  0  0  0  0  0  0  0  0
  157.0270  211.7260  154.4080 N   0  0  0  0  0  2  0  0  0  0  0  0
  157.5650  212.7370  153.5070 C   0  0  0  0  0  2  0  0  0  0  0  0
  158.6020  212.0960  152.5900 C   0  0  0  0  0  2  0  0  0  0  0  0
  161.3330  210.3290  155.9860 C   0  0  0  0  0  3  0  0  0  0  0  0
  159.8930  208.4860  155.3660 C   0  0  0  0  0  3  0  0  0  0  0  0
  160.7440  207.5980  156.0270 C   0  0  0  0  0  3  0  0  0  0  0  0
  162.1920  209.4450  156.6460 C   0  0  0  0  0  0  0  0  0  0  0  0
  161.8900  208.0750  156.6670 C   0  0  0  0  0  3  0  0  0  0  0  0
  160.1710  209.8610  155.3500 C   0  0  0  0  0  0  0  0  0  0  0  0
  163.7970  211.2810  157.0590 C   0  0  0  0  0  1  0  0  0  0  0  0
  163.3410  209.9510  157.2610 O   0  0  0  0  0  0  0  0  0  0  0  0
  1  2  1  0  0  0  0
  2 19  1  0  0  0  0
  3  1  2  0  0  0  0
  4  1  1  0  0  0  0
  4  5  1  0  0  0  0
  4  6  1  1  0  0  0
  8  7  1  6  0  0  0
  8  4  1  0  0  0  0
  9 17  1  6  0  0  0
  9  8  1  0  0  0  0
 10 12  1  0  0  0  0
 10 14  1  0  0  0  0
 12 13  1  0  0  0  0
 13 16  1  0  0  0  0
 14  9  1  6  0  0  0
 14 15  1  0  0  0  0
 15 16  1  0  0  0  0
 16 11  1  6  0  0  0
 18 17  1  0  0  0  0
 19 21  1  0  0  0  0
 21 22  2  0  0  0  0
 22 20  1  0  0  0  0
 22 31  1  0  0  0  0
 23 20  1  0  0  0  0
 24 23  1  0  0  0  0
 25 21  1  0  0  0  0
 25 24  1  0  0  0  0
 26 29  1  0  0  0  0
 27 28  2  0  0  0  0
 28 30  1  0  0  0  0
 29 30  2  0  0  0  0
 29 33  1  0  0  0  0
 31 27  1  0  0  0  0
 31 26  2  0  0  0  0
 32 33  1  0  0  0  0
M  END
>  <MODEL>
8

>  <REMARK>
 VINA RESULT:      -7.2      2.222      8.773
  Name = 
  9 active torsions:
  status: ('A' for Active; 'I' for Inactive)
    1  A    between atoms: C_1  and  C_21
    2  A    between atoms: C_5  and  N_7
    3  A    between atoms: C_5  and  C_14
    4  A    between atoms: C_15  and  C_27
    5  A    between atoms: C_16  and  C_33
    6  A    between atoms: C_20  and  C_27
    7  A    between atoms: C_21  and  C_25
    8  A    between atoms: C_23  and  O_24
    9  A    between atoms: C_25  and  C_27
                            x       y       z     vdW  Elec       q    Type
                         _______ _______ _______ _____ _____    ______ ____

>  <TORSDO>
F 9

$$$$
=
 OpenBabel11072410213D

 33 35  0  0  1  0  0  0  0  0999 V2000
  160.8300  203.0510  151.2510 C   0  0  0  0  0  0  0  0  0  0  0  0
  160.9100  204.4060  150.7960 N   0  0  0  0  0  2  0  0  0  0  0  0
  160.6190  202.8110  152.4720 O   0  0  0  0  0  0  0  0  0  0  0  0
  160.9620  201.9090  150.2710 C   0  0  2  0  0  0  0  0  0  0  0  0
  160.5000  200.7310  150.8620 O   0  0  0  0  0  1  0  0  0  0  0  0
  162.4300  201.6980  149.9270 C   0  0  0  0  0  1  0  0  0  0  0  0
  158.8540  201.4070  148.8700 C   0  0  0  0  0  1  0  0  0  0  0  0
  160.1750  202.1690  148.9680 C   0  0  2  0  0  3  0  0  0  0  0  0
  161.0190  202.1210  147.6740 C   0  0  2  0  0  3  0  0  0  0  0  0
  160.8270  203.0490  145.3310 C   0  0  0  0  0  2  0  0  0  0  0  0
  160.7310  206.3680  146.6800 O   0  0  0  0  0  1  0  0  0  0  0  0
  160.6050  204.3150  144.5100 C   0  0  0  0  0  2  0  0  0  0  0  0
  161.7330  205.3130  144.7670 C   0  0  0  0  0  2  0  0  0  0  0  0
  160.8620  203.3900  146.8220 C   0  0  2  0  0  3  0  0  0  0  0  0
  162.0090  204.3740  147.0860 C   0  0  0  0  0  2  0  0  0  0  0  0
  161.8480  205.6470  146.2550 C   0  0  2  0  0  3  0  0  0  0  0  0
  160.8140  200.8360  146.8620 C   0  0  0  0  0  2  0  0  0  0  0  0
  161.6650  199.8190  147.3020 O   0  0  0  0  0  1  0  0  0  0  0  0
  160.6820  205.5320  151.6860 C   0  0  0  0  0  2  0  0  0  0  0  0
  162.1180  209.0970  151.1740 C   0  0  0  0  0  2  0  0  0  0  0  0
  161.2590  206.7760  151.0900 C   0  0  0  0  0  0  0  0  0  0  0  0
  161.3920  207.9260  151.7960 C   0  0  0  0  0  0  0  0  0  0  0  0
  161.9520  209.1220  149.7240 N   0  0  0  0  0  2  0  0  0  0  0  0
  162.5050  207.8790  149.2010 C   0  0  0  0  0  2  0  0  0  0  0  0
  161.6200  206.7130  149.6270 C   0  0  0  0  0  2  0  0  0  0  0  0
  160.8310  209.3190  153.8100 C   0  0  0  0  0  3  0  0  0  0  0  0
  160.8080  206.9070  153.9980 C   0  0  0  0  0  3  0  0  0  0  0  0
  160.4690  207.0150  155.3480 C   0  0  0  0  0  3  0  0  0  0  0  0
  160.4960  209.4350  155.1640 C   0  0  0  0  0  0  0  0  0  0  0  0
  160.3120  208.2740  155.9300 C   0  0  0  0  0  3  0  0  0  0  0  0
  160.9790  208.0570  153.2130 C   0  0  0  0  0  0  0  0  0  0  0  0
  160.0470  211.8570  154.9470 C   0  0  0  0  0  1  0  0  0  0  0  0
  160.3640  210.7100  155.7210 O   0  0  0  0  0  0  0  0  0  0  0  0
  1  3  2  0  0  0  0
  2  1  1  0  0  0  0
  2 19  1  0  0  0  0
  4  6  1  6  0  0  0
  4  5  1  0  0  0  0
  4  1  1  0  0  0  0
  8  7  1  6  0  0  0
  8  4  1  0  0  0  0
  9 17  1  6  0  0  0
  9  8  1  0  0  0  0
 10 14  1  0  0  0  0
 12 13  1  0  0  0  0
 12 10  1  0  0  0  0
 13 16  1  0  0  0  0
 14 15  1  0  0  0  0
 14  9  1  1  0  0  0
 16 11  1  1  0  0  0
 16 15  1  0  0  0  0
 17 18  1  0  0  0  0
 20 22  1  0  0  0  0
 21 19  1  0  0  0  0
 21 22  2  0  0  0  0
 22 31  1  0  0  0  0
 23 20  1  0  0  0  0
 24 25  1  0  0  0  0
 24 23  1  0  0  0  0
 25 21  1  0  0  0  0
 26 29  1  0  0  0  0
 27 28  2  0  0  0  0
 28 30  1  0  0  0  0
 29 33  1  0  0  0  0
 29 30  2  0  0  0  0
 31 26  2  0  0  0  0
 31 27  1  0  0  0  0
 32 33  1  0  0  0  0
M  END
>  <MODEL>
9

>  <REMARK>
 VINA RESULT:      -7.0      2.166      9.219
  Name = 
  9 active torsions:
  status: ('A' for Active; 'I' for Inactive)
    1  A    between atoms: C_1  and  C_21
    2  A    between atoms: C_5  and  N_7
    3  A    between atoms: C_5  and  C_14
    4  A    between atoms: C_15  and  C_27
    5  A    between atoms: C_16  and  C_33
    6  A    between atoms: C_20  and  C_27
    7  A    between atoms: C_21  and  C_25
    8  A    between atoms: C_23  and  O_24
    9  A    between atoms: C_25  and  C_27
                            x       y       z     vdW  Elec       q    Type
                         _______ _______ _______ _____ _____    ______ ____

>  <TORSDO>
F 9

$$$$
