=
 OpenBabel11072415283D

 59 65  0  0  1  0  0  0  0  0999 V2000
  161.8360  205.3800  153.0160 C   0  0  0  0  0  0  0  0  0  0  0  0
  159.6360  205.9390  153.8830 C   0  0  0  0  0  3  0  0  0  0  0  0
  159.8370  203.7930  152.6700 C   0  0  0  0  0  2  0  0  0  0  0  0
  162.8110  204.5130  152.2610 C   0  0  0  0  0  2  0  0  0  0  0  0
  161.3590  202.7110  151.2140 C   0  0  0  0  0  2  0  0  0  0  0  0
  161.4570  207.5150  154.1270 C   0  0  0  0  0  0  0  0  0  0  0  0
  160.1200  207.1710  154.3290 C   0  0  0  0  0  3  0  0  0  0  0  0
  160.7860  202.6960  152.5600 N   0  0  0  0  0  2  0  0  0  0  0  0
  162.3120  206.6110  153.4830 C   0  0  0  0  0  3  0  0  0  0  0  0
  160.4780  205.0310  153.2330 C   0  0  0  0  0  0  0  0  0  0  0  0
  162.2450  203.9410  150.9470 C   0  0  1  0  0  3  0  0  0  0  0  0
  161.3620  203.1740  148.2030 C   0  0  0  0  0  2  0  0  0  0  0  0
  160.5150  203.8450  146.0040 N   0  0  0  0  0  0  0  0  0  0  0  0
  161.2650  204.6220  148.6360 C   0  0  0  0  0  0  0  0  0  0  0  0
  162.1770  206.3010  150.1530 N   0  0  0  0  0  2  0  0  0  0  0  0
  160.4490  201.1580  145.0140 C   0  0  0  0  0  1  0  0  0  0  0  0
  160.5040  205.2170  146.4010 C   0  0  0  0  0  0  0  0  0  0  0  0
  160.0790  207.3490  150.3810 O   0  0  0  0  0  1  0  0  0  0  0  0
  160.8870  201.5350  146.3490 N   0  0  0  0  0  2  0  0  0  0  0  0
  161.2580  207.3110  149.6310 C   0  0  2  0  0  3  0  0  0  0  0  0
  160.9530  207.0650  148.1460 C   0  0  2  0  0  3  0  0  0  0  0  0
  161.5170  204.9970  150.0830 C   0  0  2  0  0  3  0  0  0  0  0  0
  160.8910  202.8900  146.8020 C   0  0  0  0  0  0  0  0  0  0  0  0
  160.9080  205.5930  147.7680 C   0  0  0  0  0  0  0  0  0  0  0  0
  160.1280  206.0940  145.5800 O   0  0  0  0  0  0  0  0  0  0  0  0
  161.9120  207.7220  147.3690 O   0  0  0  0  0  0  0  0  0  0  0  0
  162.5240  208.6300  148.2420 C   0  0  0  0  0  2  0  0  0  0  0  0
  161.6090  209.8170  148.4950 C   0  0  0  0  0  2  0  0  0  0  0  0
  162.4230  211.0640  148.7540 C   0  0  0  0  0  2  0  0  0  0  0  0
  160.6680  212.2210  147.3600 N   0  0  0  0  0  2  0  0  0  0  0  0
  162.8730  212.9900  147.4260 O   0  0  0  0  0  0  0  0  0  0  0  0
  162.0220  212.1410  147.8090 C   0  0  0  0  0  0  0  0  0  0  0  0
  159.7880  212.5330  145.2490 C   0  0  0  0  0  2  0  0  0  0  0  0
  157.8760  213.6010  146.1510 C   0  0  0  0  0  2  0  0  0  0  0  0
  158.4650  213.1380  144.8490 C   0  0  0  0  0  2  0  0  0  0  0  0
  160.2460  213.2100  146.4590 N   0  0  0  0  0  0  0  0  0  0  0  0
  159.0710  213.8440  147.0540 C   0  0  0  0  0  2  0  0  0  0  0  0
  161.9500  208.8530  154.6010 C   0  0  2  0  0  3  0  0  0  0  0  0
  161.6700  207.9340  156.7860 O   0  0  0  0  0  0  0  0  0  0  0  0
  162.0220  208.9290  156.1020 C   0  0  0  0  0  0  0  0  0  0  0  0
  163.7800  210.2730  156.9090 O   0  0  0  0  0  0  0  0  0  0  0  0
  161.6980  211.2410  157.1970 N   0  0  0  0  0  2  0  0  0  0  0  0
  162.5350  210.1610  156.7430 C   0  0  0  0  0  0  0  0  0  0  0  0
  159.5750  209.9800  157.2340 C   0  0  0  0  0  1  0  0  0  0  0  0
  159.7400  212.1890  156.0280 C   0  0  0  0  0  1  0  0  0  0  0  0
  160.2400  211.3460  157.1890 C   0  0  0  0  0  3  0  0  0  0  0  0
  161.1460  210.0120  154.0160 C   0  0  0  0  0  2  0  0  0  0  0  0
  161.5580  210.2920  152.6060 C   0  0  0  0  0  0  0  0  0  0  0  0
  160.9190  211.3170  151.8440 N   0  0  0  0  0  2  0  0  0  0  0  0
  162.4720  209.6050  152.0760 O   0  0  0  0  0  0  0  0  0  0  0  0
  159.9150  212.2070  152.4060 C   0  0  0  0  0  2  0  0  0  0  0  0
  157.2100  212.4410  153.6980 F   0  0  0  0  0  0  0  0  0  0  0  0
  157.4490  213.7150  153.2060 C   0  0  2  0  0  3  0  0  0  0  0  0
  156.8670  214.0830  150.8400 C   0  0  0  0  0  2  0  0  0  0  0  0
  159.2060  212.9530  151.2910 C   0  0  2  0  0  3  0  0  0  0  0  0
  156.1870  214.4520  153.1480 N   0  0  0  0  0  2  0  0  0  0  0  0
  159.1940  214.4450  151.5900 C   0  0  0  0  0  2  0  0  0  0  0  0
  157.9300  213.6310  151.7830 C   0  0  2  0  0  0  0  0  0  0  0  0
  155.6900  214.3610  151.7710 C   0  0  0  0  0  2  0  0  0  0  0  0
  1 10  2  0  0  0  0
  1  9  1  0  0  0  0
  2  7  2  0  0  0  0
  3 10  1  0  0  0  0
  4  1  1  0  0  0  0
  5  8  1  0  0  0  0
  6  7  1  0  0  0  0
  6 38  1  0  0  0  0
  8  3  1  0  0  0  0
  9  6  2  0  0  0  0
 10  2  1  0  0  0  0
 11  5  1  1  0  0  0
 11  4  1  0  0  0  0
 12 14  1  0  0  0  0
 13 17  1  0  0  0  0
 13 23  2  0  0  0  0
 16 19  1  0  0  0  0
 17 24  1  0  0  0  0
 19 23  1  0  0  0  0
 20 15  1  0  0  0  0
 20 18  1  1  0  0  0
 21 26  1  6  0  0  0
 21 20  1  0  0  0  0
 22 14  1  6  0  0  0
 22 15  1  0  0  0  0
 22 11  1  0  0  0  0
 23 12  1  0  0  0  0
 24 21  1  0  0  0  0
 24 14  2  0  0  0  0
 25 17  2  0  0  0  0
 26 27  1  0  0  0  0
 27 28  1  0  0  0  0
 28 29  1  0  0  0  0
 30 32  1  0  0  0  0
 31 32  2  0  0  0  0
 32 29  1  0  0  0  0
 33 36  1  0  0  0  0
 34 37  1  0  0  0  0
 35 33  1  0  0  0  0
 35 34  1  0  0  0  0
 36 37  1  0  0  0  0
 36 30  1  0  0  0  0
 38 47  1  1  0  0  0
 38 40  1  0  0  0  0
 40 43  1  0  0  0  0
 40 39  2  0  0  0  0
 43 41  2  0  0  0  0
 43 42  1  0  0  0  0
 45 46  1  0  0  0  0
 46 42  1  0  0  0  0
 46 44  1  0  0  0  0
 48 47  1  0  0  0  0
 49 51  1  0  0  0  0
 49 48  1  0  0  0  0
 50 48  2  0  0  0  0
 53 52  1  6  0  0  0
 54 59  1  0  0  0  0
 55 57  1  0  0  0  0
 55 58  1  0  0  0  0
 55 51  1  1  0  0  0
 56 53  1  0  0  0  0
 57 58  1  0  0  0  0
 58 54  1  6  0  0  0
 58 53  1  0  0  0  0
 59 56  1  0  0  0  0
M  END
>  <MODEL>
1

>  <REMARK>
 VINA RESULT:      -2.0      0.000      0.000
  Name = 
  15 active torsions:
  status: ('A' for Active; 'I' for Inactive)
    1  A    between atoms: C_6  and  C_34
    2  A    between atoms: C_12  and  C_18
    3  A    between atoms: C_12  and  C_32
    4  A    between atoms: C_18  and  C_57
    5  A    between atoms: O_21  and  C_32
    6  A    between atoms: O_21  and  C_39
    7  A    between atoms: N_24  and  C_28
    8  A    between atoms: N_26  and  N_29
    9  A    between atoms: N_27  and  C_40
   10  A    between atoms: C_34  and  C_47
   11  A    between atoms: C_35  and  C_47
   12  A    between atoms: C_40  and  C_43
   13  A    between atoms: C_45  and  C_49
   14  A    between atoms: C_47  and  C_49
   15  A    between atoms: C_51  and  C_56
                            x       y       z     vdW  Elec       q    Type
                         _______ _______ _______ _____ _____    ______ ____

>  <TORSDO>
F 15

$$$$
=
 OpenBabel11072415283D

 59 65  0  0  1  0  0  0  0  0999 V2000
  162.0560  205.8130  151.5670 C   0  0  0  0  0  0  0  0  0  0  0  0
  159.9320  206.7810  152.2440 C   0  0  0  0  0  3  0  0  0  0  0  0
  160.0180  204.3160  152.0560 C   0  0  0  0  0  2  0  0  0  0  0  0
  162.9630  204.6660  151.1970 C   0  0  0  0  0  2  0  0  0  0  0  0
  161.4150  202.6540  151.1120 C   0  0  0  0  0  2  0  0  0  0  0  0
  161.7860  208.2310  151.6800 C   0  0  0  0  0  0  0  0  0  0  0  0
  160.4640  208.0630  152.0910 C   0  0  0  0  0  3  0  0  0  0  0  0
  160.9420  203.2370  152.3670 N   0  0  0  0  0  2  0  0  0  0  0  0
  162.5800  207.1040  151.4330 C   0  0  0  0  0  3  0  0  0  0  0  0
  160.7140  205.6470  151.9950 C   0  0  0  0  0  0  0  0  0  0  0  0
  162.2940  203.6140  150.2920 C   0  0  1  0  0  3  0  0  0  0  0  0
  161.6190  201.8700  147.9670 C   0  0  0  0  0  2  0  0  0  0  0  0
  160.8250  201.6600  145.6590 N   0  0  0  0  0  0  0  0  0  0  0  0
  161.3730  203.3620  147.8730 C   0  0  0  0  0  0  0  0  0  0  0  0
  162.0550  205.5410  148.7310 N   0  0  0  0  0  2  0  0  0  0  0  0
  161.0480  198.8050  145.6550 C   0  0  0  0  0  1  0  0  0  0  0  0
  160.6720  203.0770  145.5580 C   0  0  0  0  0  0  0  0  0  0  0  0
  159.8630  206.3860  148.5510 O   0  0  0  0  0  1  0  0  0  0  0  0
  161.3850  199.6580  146.7850 N   0  0  0  0  0  2  0  0  0  0  0  0
  161.0760  206.2130  147.8780 C   0  0  2  0  0  3  0  0  0  0  0  0
  160.8670  205.4450  146.5650 C   0  0  2  0  0  3  0  0  0  0  0  0
  161.5180  204.2320  149.1050 C   0  0  2  0  0  3  0  0  0  0  0  0
  161.2450  201.0790  146.7430 C   0  0  0  0  0  0  0  0  0  0  0  0
  160.9730  203.9360  146.7170 C   0  0  0  0  0  0  0  0  0  0  0  0
  160.2590  203.5780  144.4790 O   0  0  0  0  0  0  0  0  0  0  0  0
  161.8010  205.8900  145.6240 O   0  0  0  0  0  0  0  0  0  0  0  0
  161.1620  205.7460  144.3860 C   0  0  0  0  0  2  0  0  0  0  0  0
  162.0090  206.3580  143.2820 C   0  0  0  0  0  2  0  0  0  0  0  0
  161.5420  205.8710  141.9280 C   0  0  0  0  0  2  0  0  0  0  0  0
  161.4330  207.9940  140.5700 N   0  0  0  0  0  2  0  0  0  0  0  0
  163.1150  206.4090  140.2220 O   0  0  0  0  0  0  0  0  0  0  0  0
  162.0800  206.7520  140.8560 C   0  0  0  0  0  0  0  0  0  0  0  0
  160.8590  208.9170  138.5330 C   0  0  0  0  0  2  0  0  0  0  0  0
  161.0230  211.1060  139.4260 C   0  0  0  0  0  2  0  0  0  0  0  0
  160.6570  210.3680  138.1690 C   0  0  0  0  0  2  0  0  0  0  0  0
  161.8960  208.8510  139.5590 N   0  0  0  0  0  0  0  0  0  0  0  0
  161.9860  210.1840  140.1510 C   0  0  0  0  0  2  0  0  0  0  0  0
  162.3290  209.6220  151.5060 C   0  0  2  0  0  3  0  0  0  0  0  0
  163.6040  210.5500  153.2960 O   0  0  0  0  0  0  0  0  0  0  0  0
  162.4590  210.3460  152.8180 C   0  0  0  0  0  0  0  0  0  0  0  0
  160.6380  211.8250  153.0230 O   0  0  0  0  0  0  0  0  0  0  0  0
  160.7000  210.2340  154.7010 N   0  0  0  0  0  2  0  0  0  0  0  0
  161.2400  210.8290  153.5060 C   0  0  0  0  0  0  0  0  0  0  0  0
  160.1120  208.3640  156.2030 C   0  0  0  0  0  1  0  0  0  0  0  0
  162.3040  209.5840  156.4630 C   0  0  0  0  0  1  0  0  0  0  0  0
  161.2220  209.1260  155.4990 C   0  0  0  0  0  3  0  0  0  0  0  0
  161.5320  210.4360  150.4890 C   0  0  0  0  0  2  0  0  0  0  0  0
  162.0850  210.2600  149.1110 C   0  0  0  0  0  0  0  0  0  0  0  0
  161.9550  211.2910  148.1300 N   0  0  0  0  0  2  0  0  0  0  0  0
  162.6630  209.1830  148.8030 O   0  0  0  0  0  0  0  0  0  0  0  0
  161.3770  212.5930  148.4280 C   0  0  0  0  0  2  0  0  0  0  0  0
  159.3100  212.8780  150.5920 F   0  0  0  0  0  0  0  0  0  0  0  0
  159.0430  213.9410  149.7420 C   0  0  2  0  0  3  0  0  0  0  0  0
  157.6150  213.4360  147.7990 C   0  0  0  0  0  2  0  0  0  0  0  0
  160.1680  212.8330  147.5420 C   0  0  2  0  0  3  0  0  0  0  0  0
  157.6980  214.4470  150.0120 N   0  0  0  0  0  2  0  0  0  0  0  0
  159.8910  214.3260  147.4350 C   0  0  0  0  0  2  0  0  0  0  0  0
  159.0130  213.4610  148.3170 C   0  0  2  0  0  0  0  0  0  0  0  0
  156.7980  213.8460  149.0210 C   0  0  0  0  0  2  0  0  0  0  0  0
  1 10  1  0  0  0  0
  3  8  1  0  0  0  0
  4  1  1  0  0  0  0
  5  8  1  0  0  0  0
  6  7  2  0  0  0  0
  7  2  1  0  0  0  0
  9  1  2  0  0  0  0
  9  6  1  0  0  0  0
 10  3  1  0  0  0  0
 10  2  2  0  0  0  0
 11  5  1  1  0  0  0
 11  4  1  0  0  0  0
 13 23  2  0  0  0  0
 14 12  1  0  0  0  0
 15 22  1  0  0  0  0
 16 19  1  0  0  0  0
 17 13  1  0  0  0  0
 17 24  1  0  0  0  0
 20 18  1  1  0  0  0
 20 15  1  0  0  0  0
 21 26  1  6  0  0  0
 21 24  1  0  0  0  0
 21 20  1  0  0  0  0
 22 14  1  6  0  0  0
 22 11  1  0  0  0  0
 23 19  1  0  0  0  0
 23 12  1  0  0  0  0
 24 14  2  0  0  0  0
 25 17  2  0  0  0  0
 27 26  1  0  0  0  0
 28 27  1  0  0  0  0
 29 28  1  0  0  0  0
 30 32  1  0  0  0  0
 31 32  2  0  0  0  0
 32 29  1  0  0  0  0
 33 36  1  0  0  0  0
 34 37  1  0  0  0  0
 35 33  1  0  0  0  0
 35 34  1  0  0  0  0
 36 37  1  0  0  0  0
 36 30  1  0  0  0  0
 38 47  1  6  0  0  0
 38  6  1  0  0  0  0
 38 40  1  0  0  0  0
 40 39  2  0  0  0  0
 40 43  1  0  0  0  0
 41 43  2  0  0  0  0
 42 46  1  0  0  0  0
 43 42  1  0  0  0  0
 46 44  1  0  0  0  0
 46 45  1  0  0  0  0
 48 47  1  0  0  0  0
 49 51  1  0  0  0  0
 49 48  1  0  0  0  0
 50 48  2  0  0  0  0
 53 56  1  0  0  0  0
 53 52  1  1  0  0  0
 54 58  1  0  0  0  0
 54 59  1  0  0  0  0
 55 58  1  0  0  0  0
 55 51  1  1  0  0  0
 57 55  1  0  0  0  0
 58 57  1  6  0  0  0
 58 53  1  0  0  0  0
 59 56  1  0  0  0  0
M  END
>  <MODEL>
2

>  <REMARK>
 VINA RESULT:      -1.8      3.098      4.278
  Name = 
  15 active torsions:
  status: ('A' for Active; 'I' for Inactive)
    1  A    between atoms: C_6  and  C_34
    2  A    between atoms: C_12  and  C_18
    3  A    between atoms: C_12  and  C_32
    4  A    between atoms: C_18  and  C_57
    5  A    between atoms: O_21  and  C_32
    6  A    between atoms: O_21  and  C_39
    7  A    between atoms: N_24  and  C_28
    8  A    between atoms: N_26  and  N_29
    9  A    between atoms: N_27  and  C_40
   10  A    between atoms: C_34  and  C_47
   11  A    between atoms: C_35  and  C_47
   12  A    between atoms: C_40  and  C_43
   13  A    between atoms: C_45  and  C_49
   14  A    between atoms: C_47  and  C_49
   15  A    between atoms: C_51  and  C_56
                            x       y       z     vdW  Elec       q    Type
                         _______ _______ _______ _____ _____    ______ ____

>  <TORSDO>
F 15

$$$$
=
 OpenBabel11072415283D

 59 65  0  0  1  0  0  0  0  0999 V2000
  160.4620  207.0880  154.4070 C   0  0  0  0  0  0  0  0  0  0  0  0
  162.8760  206.9820  154.6640 C   0  0  0  0  0  3  0  0  0  0  0  0
  161.6010  207.9480  156.5510 C   0  0  0  0  0  2  0  0  0  0  0  0
  159.0690  207.4510  154.8560 C   0  0  0  0  0  2  0  0  0  0  0  0
  159.4320  208.7940  156.9810 C   0  0  0  0  0  2  0  0  0  0  0  0
  161.8590  206.2720  152.5860 C   0  0  0  0  0  0  0  0  0  0  0  0
  162.9960  206.4780  153.3670 C   0  0  0  0  0  3  0  0  0  0  0  0
  160.3560  207.6960  157.2600 N   0  0  0  0  0  2  0  0  0  0  0  0
  160.5960  206.5660  153.1160 C   0  0  0  0  0  3  0  0  0  0  0  0
  161.6200  207.2850  155.2020 C   0  0  0  0  0  0  0  0  0  0  0  0
  158.9720  208.8410  155.5130 C   0  0  1  0  0  3  0  0  0  0  0  0
  157.5970  211.4590  155.1210 C   0  0  0  0  0  2  0  0  0  0  0  0
  157.4900  213.6260  153.9830 N   0  0  0  0  0  0  0  0  0  0  0  0
  158.8880  211.1800  154.3800 C   0  0  0  0  0  0  0  0  0  0  0  0
  160.3290  209.4170  153.5060 N   0  0  0  0  0  2  0  0  0  0  0  0
  155.1350  214.4480  155.3890 C   0  0  0  0  0  1  0  0  0  0  0  0
  158.6660  213.3170  153.2320 C   0  0  0  0  0  0  0  0  0  0  0  0
  162.2730  210.6680  153.9660 O   0  0  0  0  0  1  0  0  0  0  0  0
  155.8020  213.1680  155.5730 N   0  0  0  0  0  2  0  0  0  0  0  0
  161.2860  210.4060  153.0110 C   0  0  2  0  0  3  0  0  0  0  0  0
  160.5740  211.7010  152.5930 C   0  0  2  0  0  3  0  0  0  0  0  0
  159.7030  209.9470  154.7170 C   0  0  2  0  0  3  0  0  0  0  0  0
  156.9830  212.8080  154.8560 C   0  0  0  0  0  0  0  0  0  0  0  0
  159.3650  212.0380  153.4510 C   0  0  0  0  0  0  0  0  0  0  0  0
  159.1070  214.1540  152.4020 O   0  0  0  0  0  0  0  0  0  0  0  0
  160.1870  211.5960  151.2530 O   0  0  0  0  0  0  0  0  0  0  0  0
  161.3850  211.6140  150.5280 C   0  0  0  0  0  2  0  0  0  0  0  0
  161.2840  212.5870  149.3660 C   0  0  0  0  0  2  0  0  0  0  0  0
  162.1030  212.0960  148.1940 C   0  0  0  0  0  2  0  0  0  0  0  0
  161.5400  212.7070  145.8120 N   0  0  0  0  0  2  0  0  0  0  0  0
  162.4550  214.2710  147.2870 O   0  0  0  0  0  0  0  0  0  0  0  0
  162.0580  213.0900  147.0870 C   0  0  0  0  0  0  0  0  0  0  0  0
  162.8660  213.9150  144.3590 C   0  0  0  0  0  2  0  0  0  0  0  0
  161.9230  212.7970  142.4940 C   0  0  0  0  0  2  0  0  0  0  0  0
  162.9710  213.8110  142.8570 C   0  0  0  0  0  2  0  0  0  0  0  0
  161.4890  213.6050  144.7350 N   0  0  0  0  0  0  0  0  0  0  0  0
  160.9000  212.8790  143.6130 C   0  0  0  0  0  2  0  0  0  0  0  0
  162.0160  205.7440  151.1880 C   0  0  2  0  0  3  0  0  0  0  0  0
  159.7770  205.6200  150.3730 O   0  0  0  0  0  0  0  0  0  0  0  0
  160.8960  206.1880  150.2870 C   0  0  0  0  0  0  0  0  0  0  0  0
  161.2310  208.4690  149.8050 O   0  0  0  0  0  0  0  0  0  0  0  0
  161.2240  207.1380  147.9120 N   0  0  0  0  0  2  0  0  0  0  0  0
  161.1240  207.3020  149.3390 C   0  0  0  0  0  0  0  0  0  0  0  0
  162.4000  205.2020  146.9280 C   0  0  0  0  0  1  0  0  0  0  0  0
  160.3890  206.2060  145.7820 C   0  0  0  0  0  1  0  0  0  0  0  0
  161.0750  205.9250  147.1090 C   0  0  0  0  0  3  0  0  0  0  0  0
  162.2030  204.2290  151.1530 C   0  0  0  0  0  2  0  0  0  0  0  0
  161.2150  203.5470  152.0450 C   0  0  0  0  0  0  0  0  0  0  0  0
  160.5920  202.3240  151.6500 N   0  0  0  0  0  2  0  0  0  0  0  0
  160.9170  204.0640  153.1550 O   0  0  0  0  0  0  0  0  0  0  0  0
  160.9420  201.6210  150.4250 C   0  0  0  0  0  2  0  0  0  0  0  0
  162.5000  200.2710  148.2370 F   0  0  0  0  0  0  0  0  0  0  0  0
  161.1850  200.1830  147.8040 C   0  0  2  0  0  3  0  0  0  0  0  0
  160.3110  202.1510  146.6060 C   0  0  0  0  0  2  0  0  0  0  0  0
  160.2750  202.2930  149.2380 C   0  0  2  0  0  3  0  0  0  0  0  0
  161.1680  199.8850  146.3720 N   0  0  0  0  0  2  0  0  0  0  0  0
  159.1890  201.3890  148.6720 C   0  0  0  0  0  2  0  0  0  0  0  0
  160.5120  201.5210  147.9430 C   0  0  2  0  0  0  0  0  0  0  0  0
  160.9800  201.1550  145.6630 C   0  0  0  0  0  2  0  0  0  0  0  0
  1  4  1  0  0  0  0
  1 10  1  0  0  0  0
  2 10  2  0  0  0  0
  3  8  1  0  0  0  0
  5  8  1  0  0  0  0
  6  9  1  0  0  0  0
  6  7  2  0  0  0  0
  7  2  1  0  0  0  0
  9  1  2  0  0  0  0
 10  3  1  0  0  0  0
 11  4  1  6  0  0  0
 11  5  1  0  0  0  0
 13 23  2  0  0  0  0
 14 22  1  0  0  0  0
 14 12  1  0  0  0  0
 16 19  1  0  0  0  0
 17 24  1  0  0  0  0
 17 13  1  0  0  0  0
 20 15  1  0  0  0  0
 20 18  1  1  0  0  0
 21 26  1  6  0  0  0
 21 20  1  0  0  0  0
 21 24  1  0  0  0  0
 22 15  1  6  0  0  0
 22 11  1  0  0  0  0
 23 12  1  0  0  0  0
 23 19  1  0  0  0  0
 24 14  2  0  0  0  0
 25 17  2  0  0  0  0
 27 26  1  0  0  0  0
 28 27  1  0  0  0  0
 29 28  1  0  0  0  0
 30 32  1  0  0  0  0
 32 31  2  0  0  0  0
 32 29  1  0  0  0  0
 33 36  1  0  0  0  0
 34 35  1  0  0  0  0
 34 37  1  0  0  0  0
 35 33  1  0  0  0  0
 36 30  1  0  0  0  0
 37 36  1  0  0  0  0
 38 47  1  1  0  0  0
 38  6  1  0  0  0  0
 40 39  2  0  0  0  0
 40 38  1  0  0  0  0
 42 43  1  0  0  0  0
 43 41  2  0  0  0  0
 43 40  1  0  0  0  0
 44 46  1  0  0  0  0
 45 46  1  0  0  0  0
 46 42  1  0  0  0  0
 47 48  1  0  0  0  0
 48 50  2  0  0  0  0
 49 48  1  0  0  0  0
 51 49  1  0  0  0  0
 53 58  1  0  0  0  0
 53 52  1  6  0  0  0
 55 51  1  1  0  0  0
 56 53  1  0  0  0  0
 57 55  1  0  0  0  0
 58 54  1  6  0  0  0
 58 57  1  0  0  0  0
 58 55  1  0  0  0  0
 59 56  1  0  0  0  0
 59 54  1  0  0  0  0
M  END
>  <MODEL>
3

>  <REMARK>
 VINA RESULT:      -1.1      2.817      8.920
  Name = 
  15 active torsions:
  status: ('A' for Active; 'I' for Inactive)
    1  A    between atoms: C_6  and  C_34
    2  A    between atoms: C_12  and  C_18
    3  A    between atoms: C_12  and  C_32
    4  A    between atoms: C_18  and  C_57
    5  A    between atoms: O_21  and  C_32
    6  A    between atoms: O_21  and  C_39
    7  A    between atoms: N_24  and  C_28
    8  A    between atoms: N_26  and  N_29
    9  A    between atoms: N_27  and  C_40
   10  A    between atoms: C_34  and  C_47
   11  A    between atoms: C_35  and  C_47
   12  A    between atoms: C_40  and  C_43
   13  A    between atoms: C_45  and  C_49
   14  A    between atoms: C_47  and  C_49
   15  A    between atoms: C_51  and  C_56
                            x       y       z     vdW  Elec       q    Type
                         _______ _______ _______ _____ _____    ______ ____

>  <TORSDO>
F 15

$$$$
=
 OpenBabel11072415283D

 59 65  0  0  1  0  0  0  0  0999 V2000
  158.9640  213.6150  154.2380 C   0  0  0  0  0  0  0  0  0  0  0  0
  157.2570  212.5610  152.8690 C   0  0  0  0  0  3  0  0  0  0  0  0
  156.5630  213.3150  155.1200 C   0  0  0  0  0  2  0  0  0  0  0  0
  159.4780  214.2570  155.5030 C   0  0  0  0  0  2  0  0  0  0  0  0
  157.5670  213.9910  157.1550 C   0  0  0  0  0  2  0  0  0  0  0  0
  159.5280  212.7150  152.0460 C   0  0  0  0  0  0  0  0  0  0  0  0
  158.2030  212.3140  151.8720 C   0  0  0  0  0  3  0  0  0  0  0  0
  156.7930  214.4490  156.0020 N   0  0  0  0  0  2  0  0  0  0  0  0
  159.8990  213.3760  153.2240 C   0  0  0  0  0  3  0  0  0  0  0  0
  157.6170  213.2150  154.0520 C   0  0  0  0  0  0  0  0  0  0  0  0
  158.9990  213.5600  156.7900 C   0  0  1  0  0  3  0  0  0  0  0  0
  161.7380  212.3800  156.8650 C   0  0  0  0  0  2  0  0  0  0  0  0
  163.1930  210.4280  156.5900 N   0  0  0  0  0  0  0  0  0  0  0  0
  160.5500  211.4830  156.5870 C   0  0  0  0  0  0  0  0  0  0  0  0
  158.2660  211.4280  155.7340 N   0  0  0  0  0  2  0  0  0  0  0  0
  165.5690  211.8850  157.2520 C   0  0  0  0  0  1  0  0  0  0  0  0
  162.0720  209.6110  156.2520 C   0  0  0  0  0  0  0  0  0  0  0  0
  157.6520  209.7410  157.2610 O   0  0  0  0  0  1  0  0  0  0  0  0
  164.2330  212.4600  157.2070 N   0  0  0  0  0  2  0  0  0  0  0  0
  158.1760  209.9910  155.9890 C   0  0  2  0  0  3  0  0  0  0  0  0
  159.5440  209.3140  155.8200 C   0  0  2  0  0  3  0  0  0  0  0  0
  159.1420  212.0210  156.7440 C   0  0  2  0  0  3  0  0  0  0  0  0
  163.0760  211.6890  156.8830 C   0  0  0  0  0  0  0  0  0  0  0  0
  160.7140  210.1850  156.2480 C   0  0  0  0  0  0  0  0  0  0  0  0
  162.2530  208.3950  155.9790 O   0  0  0  0  0  0  0  0  0  0  0  0
  159.7030  208.9350  154.4830 O   0  0  0  0  0  0  0  0  0  0  0  0
  159.8070  207.5390  154.5130 C   0  0  0  0  0  2  0  0  0  0  0  0
  160.7050  207.0530  153.3870 C   0  0  0  0  0  2  0  0  0  0  0  0
  161.5740  205.9100  153.8610 C   0  0  0  0  0  2  0  0  0  0  0  0
  161.3350  203.9340  152.3120 N   0  0  0  0  0  2  0  0  0  0  0  0
  163.0570  205.4910  152.0450 O   0  0  0  0  0  0  0  0  0  0  0  0
  162.0460  205.1120  152.6980 C   0  0  0  0  0  0  0  0  0  0  0  0
  161.3380  201.7690  151.5100 C   0  0  0  0  0  2  0  0  0  0  0  0
  160.1190  202.4280  149.5890 C   0  0  0  0  0  2  0  0  0  0  0  0
  160.6920  201.2140  150.2650 C   0  0  0  0  0  2  0  0  0  0  0  0
  161.7500  203.1420  151.2300 N   0  0  0  0  0  0  0  0  0  0  0  0
  160.9790  203.5830  150.0700 C   0  0  0  0  0  2  0  0  0  0  0  0
  160.5310  212.4220  150.9660 C   0  0  2  0  0  3  0  0  0  0  0  0
  159.7500  214.3760  149.8410 O   0  0  0  0  0  0  0  0  0  0  0  0
  160.2860  213.2440  149.7300 C   0  0  0  0  0  0  0  0  0  0  0  0
  161.8470  212.1830  148.3210 O   0  0  0  0  0  0  0  0  0  0  0  0
  159.9010  212.7840  147.2220 N   0  0  0  0  0  2  0  0  0  0  0  0
  160.7090  212.7170  148.4130 C   0  0  0  0  0  0  0  0  0  0  0  0
  157.5070  212.3540  146.7970 C   0  0  0  0  0  1  0  0  0  0  0  0
  158.6110  214.4510  145.9360 C   0  0  0  0  0  1  0  0  0  0  0  0
  158.5880  213.3960  147.0290 C   0  0  0  0  0  3  0  0  0  0  0  0
  160.6240  210.9320  150.6440 C   0  0  0  0  0  2  0  0  0  0  0  0
  161.7620  210.2950  151.3760 C   0  0  0  0  0  0  0  0  0  0  0  0
  162.1410  208.9440  151.1110 N   0  0  0  0  0  2  0  0  0  0  0  0
  162.3880  210.9540  152.2490 O   0  0  0  0  0  0  0  0  0  0  0  0
  161.5250  208.1440  150.0630 C   0  0  0  0  0  2  0  0  0  0  0  0
  159.7940  206.1610  148.6110 F   0  0  0  0  0  0  0  0  0  0  0  0
  160.5600  206.7270  147.6030 C   0  0  2  0  0  3  0  0  0  0  0  0
  162.7900  205.7370  147.2590 C   0  0  0  0  0  2  0  0  0  0  0  0
  162.6010  207.5070  149.2030 C   0  0  2  0  0  3  0  0  0  0  0  0
  160.5080  205.8680  146.4200 N   0  0  0  0  0  2  0  0  0  0  0  0
  162.5990  208.1370  147.8170 C   0  0  0  0  0  2  0  0  0  0  0  0
  162.0070  206.7550  148.0150 C   0  0  2  0  0  0  0  0  0  0  0  0
  161.7170  205.0360  146.4310 C   0  0  0  0  0  2  0  0  0  0  0  0
  1  4  1  0  0  0  0
  2 10  2  0  0  0  0
  3  8  1  0  0  0  0
  6  9  1  0  0  0  0
  7  6  2  0  0  0  0
  7  2  1  0  0  0  0
  8  5  1  0  0  0  0
  9  1  2  0  0  0  0
 10  1  1  0  0  0  0
 10  3  1  0  0  0  0
 11  4  1  6  0  0  0
 11  5  1  0  0  0  0
 12 23  1  0  0  0  0
 13 23  2  0  0  0  0
 14 22  1  0  0  0  0
 14 12  1  0  0  0  0
 15 20  1  0  0  0  0
 17 13  1  0  0  0  0
 19 16  1  0  0  0  0
 20 18  1  1  0  0  0
 21 26  1  6  0  0  0
 21 20  1  0  0  0  0
 21 24  1  0  0  0  0
 22 15  1  6  0  0  0
 22 11  1  0  0  0  0
 23 19  1  0  0  0  0
 24 17  1  0  0  0  0
 24 14  2  0  0  0  0
 25 17  2  0  0  0  0
 26 27  1  0  0  0  0
 28 29  1  0  0  0  0
 28 27  1  0  0  0  0
 30 32  1  0  0  0  0
 31 32  2  0  0  0  0
 32 29  1  0  0  0  0
 34 37  1  0  0  0  0
 34 35  1  0  0  0  0
 35 33  1  0  0  0  0
 36 33  1  0  0  0  0
 36 30  1  0  0  0  0
 37 36  1  0  0  0  0
 38 47  1  6  0  0  0
 38  6  1  0  0  0  0
 40 39  2  0  0  0  0
 40 38  1  0  0  0  0
 41 43  2  0  0  0  0
 42 43  1  0  0  0  0
 43 40  1  0  0  0  0
 44 46  1  0  0  0  0
 45 46  1  0  0  0  0
 46 42  1  0  0  0  0
 47 48  1  0  0  0  0
 48 50  2  0  0  0  0
 49 48  1  0  0  0  0
 51 49  1  0  0  0  0
 53 58  1  0  0  0  0
 53 52  1  1  0  0  0
 55 51  1  1  0  0  0
 56 59  1  0  0  0  0
 56 53  1  0  0  0  0
 57 58  1  0  0  0  0
 57 55  1  0  0  0  0
 58 54  1  6  0  0  0
 58 55  1  0  0  0  0
 59 54  1  0  0  0  0
M  END
>  <MODEL>
4

>  <REMARK>
 VINA RESULT:      -0.7      2.391      9.759
  Name = 
  15 active torsions:
  status: ('A' for Active; 'I' for Inactive)
    1  A    between atoms: C_6  and  C_34
    2  A    between atoms: C_12  and  C_18
    3  A    between atoms: C_12  and  C_32
    4  A    between atoms: C_18  and  C_57
    5  A    between atoms: O_21  and  C_32
    6  A    between atoms: O_21  and  C_39
    7  A    between atoms: N_24  and  C_28
    8  A    between atoms: N_26  and  N_29
    9  A    between atoms: N_27  and  C_40
   10  A    between atoms: C_34  and  C_47
   11  A    between atoms: C_35  and  C_47
   12  A    between atoms: C_40  and  C_43
   13  A    between atoms: C_45  and  C_49
   14  A    between atoms: C_47  and  C_49
   15  A    between atoms: C_51  and  C_56
                            x       y       z     vdW  Elec       q    Type
                         _______ _______ _______ _____ _____    ______ ____

>  <TORSDO>
F 15

$$$$
=
 OpenBabel11072415283D

 59 65  0  0  1  0  0  0  0  0999 V2000
  160.7260  210.7670  152.4790 C   0  0  0  0  0  0  0  0  0  0  0  0
  158.4090  210.1320  152.8430 C   0  0  0  0  0  3  0  0  0  0  0  0
  160.1310  208.5150  153.5770 C   0  0  0  0  0  2  0  0  0  0  0  0
  162.2150  210.5330  152.5190 C   0  0  0  0  0  2  0  0  0  0  0  0
  162.4420  208.1120  153.2540 C   0  0  0  0  0  2  0  0  0  0  0  0
  158.9190  212.2040  151.7000 C   0  0  0  0  0  0  0  0  0  0  0  0
  157.9840  211.2980  152.2020 C   0  0  0  0  0  3  0  0  0  0  0  0
  161.4340  208.5380  154.2240 N   0  0  0  0  0  2  0  0  0  0  0  0
  160.2860  211.9400  151.8530 C   0  0  0  0  0  3  0  0  0  0  0  0
  159.7720  209.8540  152.9960 C   0  0  0  0  0  0  0  0  0  0  0  0
  162.6300  209.1100  152.0980 C   0  0  1  0  0  3  0  0  0  0  0  0
  161.5470  206.3320  152.0120 C   0  0  0  0  0  2  0  0  0  0  0  0
  160.6350  204.4720  150.7030 N   0  0  0  0  0  0  0  0  0  0  0  0
  161.5810  207.1560  150.7410 C   0  0  0  0  0  0  0  0  0  0  0  0
  162.6930  209.0090  149.6110 N   0  0  0  0  0  2  0  0  0  0  0  0
  160.3190  202.7830  152.9940 C   0  0  0  0  0  1  0  0  0  0  0  0
  160.7460  205.2340  149.5000 C   0  0  0  0  0  0  0  0  0  0  0  0
  160.6930  209.6690  148.5540 O   0  0  0  0  0  1  0  0  0  0  0  0
  160.8550  204.1360  153.0330 N   0  0  0  0  0  2  0  0  0  0  0  0
  161.8240  208.8550  148.4450 C   0  0  2  0  0  3  0  0  0  0  0  0
  161.4220  207.3860  148.2460 C   0  0  2  0  0  3  0  0  0  0  0  0
  161.9360  208.6280  150.8030 C   0  0  2  0  0  3  0  0  0  0  0  0
  160.9820  204.9440  151.8630 C   0  0  0  0  0  0  0  0  0  0  0  0
  161.2490  206.6190  149.5470 C   0  0  0  0  0  0  0  0  0  0  0  0
  160.3920  204.7180  148.4070 O   0  0  0  0  0  0  0  0  0  0  0  0
  162.3840  206.7550  147.4500 O   0  0  0  0  0  0  0  0  0  0  0  0
  161.7200  205.6620  146.8800 C   0  0  0  0  0  2  0  0  0  0  0  0
  162.1690  205.4640  145.4420 C   0  0  0  0  0  2  0  0  0  0  0  0
  161.0280  204.9360  144.6010 C   0  0  0  0  0  2  0  0  0  0  0  0
  161.2500  203.0190  146.2250 N   0  0  0  0  0  2  0  0  0  0  0  0
  159.8240  202.8930  144.3790 O   0  0  0  0  0  0  0  0  0  0  0  0
  160.6640  203.5620  145.0410 C   0  0  0  0  0  0  0  0  0  0  0  0
  161.9500  201.3600  147.6710 C   0  0  0  0  0  2  0  0  0  0  0  0
  159.8840  201.4310  148.8280 C   0  0  0  0  0  2  0  0  0  0  0  0
  161.2310  200.7660  148.8560 C   0  0  0  0  0  2  0  0  0  0  0  0
  160.9480  201.7240  146.6720 N   0  0  0  0  0  0  0  0  0  0  0  0
  159.6690  201.8120  147.3740 C   0  0  0  0  0  2  0  0  0  0  0  0
  158.4360  213.4420  151.0000 C   0  0  2  0  0  3  0  0  0  0  0  0
  160.5770  214.4530  150.7000 O   0  0  0  0  0  0  0  0  0  0  0  0
  159.5110  214.0690  150.1540 C   0  0  0  0  0  0  0  0  0  0  0  0
  158.1260  214.3200  148.2660 O   0  0  0  0  0  0  0  0  0  0  0  0
  160.3710  214.1720  147.7250 N   0  0  0  0  0  2  0  0  0  0  0  0
  159.3050  214.1940  148.6930 C   0  0  0  0  0  0  0  0  0  0  0  0
  162.6180  214.4530  146.7410 C   0  0  0  0  0  1  0  0  0  0  0  0
  162.1290  212.5400  148.3100 C   0  0  0  0  0  1  0  0  0  0  0  0
  161.8040  213.9750  147.9330 C   0  0  0  0  0  3  0  0  0  0  0  0
  157.8140  214.4520  151.9620 C   0  0  0  0  0  2  0  0  0  0  0  0
  156.3530  214.1870  152.1460 C   0  0  0  0  0  0  0  0  0  0  0  0
  155.8260  213.8420  153.4280 N   0  0  0  0  0  2  0  0  0  0  0  0
  155.5780  214.2550  151.1550 O   0  0  0  0  0  0  0  0  0  0  0  0
  156.6380  213.8230  154.6350 C   0  0  0  0  0  2  0  0  0  0  0  0
  159.5400  214.0070  155.3990 F   0  0  0  0  0  0  0  0  0  0  0  0
  158.9600  213.3510  156.4740 C   0  0  2  0  0  3  0  0  0  0  0  0
  158.6960  210.9130  156.2350 C   0  0  0  0  0  2  0  0  0  0  0  0
  156.8300  212.3920  155.1030 C   0  0  2  0  0  3  0  0  0  0  0  0
  160.0050  212.6930  157.2570 N   0  0  0  0  0  2  0  0  0  0  0  0
  156.7000  212.3190  156.6180 C   0  0  0  0  0  2  0  0  0  0  0  0
  158.0720  212.2420  155.9780 C   0  0  2  0  0  0  0  0  0  0  0  0
  160.0470  211.2880  156.8360 C   0  0  0  0  0  2  0  0  0  0  0  0
  1  4  1  0  0  0  0
  1 10  1  0  0  0  0
  2 10  2  0  0  0  0
  3  8  1  0  0  0  0
  5  8  1  0  0  0  0
  6  9  1  0  0  0  0
  6  7  2  0  0  0  0
  7  2  1  0  0  0  0
  9  1  2  0  0  0  0
 10  3  1  0  0  0  0
 11  4  1  1  0  0  0
 11  5  1  0  0  0  0
 13 23  2  0  0  0  0
 14 22  1  0  0  0  0
 14 12  1  0  0  0  0
 16 19  1  0  0  0  0
 17 24  1  0  0  0  0
 17 13  1  0  0  0  0
 20 18  1  1  0  0  0
 20 15  1  0  0  0  0
 21 26  1  6  0  0  0
 21 20  1  0  0  0  0
 21 24  1  0  0  0  0
 22 15  1  6  0  0  0
 22 11  1  0  0  0  0
 23 12  1  0  0  0  0
 23 19  1  0  0  0  0
 24 14  2  0  0  0  0
 25 17  2  0  0  0  0
 27 26  1  0  0  0  0
 28 27  1  0  0  0  0
 29 32  1  0  0  0  0
 29 28  1  0  0  0  0
 30 36  1  0  0  0  0
 31 32  2  0  0  0  0
 32 30  1  0  0  0  0
 33 35  1  0  0  0  0
 34 35  1  0  0  0  0
 36 37  1  0  0  0  0
 36 33  1  0  0  0  0
 37 34  1  0  0  0  0
 38  6  1  0  0  0  0
 38 47  1  1  0  0  0
 40 39  2  0  0  0  0
 40 38  1  0  0  0  0
 41 43  2  0  0  0  0
 42 46  1  0  0  0  0
 42 43  1  0  0  0  0
 43 40  1  0  0  0  0
 44 46  1  0  0  0  0
 46 45  1  0  0  0  0
 47 48  1  0  0  0  0
 48 49  1  0  0  0  0
 49 51  1  0  0  0  0
 50 48  2  0  0  0  0
 53 52  1  6  0  0  0
 53 56  1  0  0  0  0
 54 59  1  0  0  0  0
 55 51  1  1  0  0  0
 55 58  1  0  0  0  0
 55 57  1  0  0  0  0
 58 54  1  6  0  0  0
 58 53  1  0  0  0  0
 58 57  1  0  0  0  0
 59 56  1  0  0  0  0
M  END
>  <MODEL>
5

>  <REMARK>
 VINA RESULT:       0.1      2.494      7.099
  Name = 
  15 active torsions:
  status: ('A' for Active; 'I' for Inactive)
    1  A    between atoms: C_6  and  C_34
    2  A    between atoms: C_12  and  C_18
    3  A    between atoms: C_12  and  C_32
    4  A    between atoms: C_18  and  C_57
    5  A    between atoms: O_21  and  C_32
    6  A    between atoms: O_21  and  C_39
    7  A    between atoms: N_24  and  C_28
    8  A    between atoms: N_26  and  N_29
    9  A    between atoms: N_27  and  C_40
   10  A    between atoms: C_34  and  C_47
   11  A    between atoms: C_35  and  C_47
   12  A    between atoms: C_40  and  C_43
   13  A    between atoms: C_45  and  C_49
   14  A    between atoms: C_47  and  C_49
   15  A    between atoms: C_51  and  C_56
                            x       y       z     vdW  Elec       q    Type
                         _______ _______ _______ _____ _____    ______ ____

>  <TORSDO>
F 15

$$$$
=
 OpenBabel11072415283D

 59 65  0  0  1  0  0  0  0  0999 V2000
  161.9970  211.3430  148.1300 C   0  0  0  0  0  0  0  0  0  0  0  0
  160.4350  210.0560  146.7860 C   0  0  0  0  0  3  0  0  0  0  0  0
  160.4350  212.5060  146.4450 C   0  0  0  0  0  2  0  0  0  0  0  0
  162.6300  212.6240  148.6130 C   0  0  0  0  0  2  0  0  0  0  0  0
  161.2350  214.4510  147.5340 C   0  0  0  0  0  2  0  0  0  0  0  0
  161.8000  208.9350  148.4410 C   0  0  0  0  0  0  0  0  0  0  0  0
  160.8260  208.8870  147.4440 C   0  0  0  0  0  3  0  0  0  0  0  0
  161.4030  213.5890  146.3640 N   0  0  0  0  0  2  0  0  0  0  0  0
  162.3910  210.1610  148.7690 C   0  0  0  0  0  3  0  0  0  0  0  0
  161.0140  211.2880  147.1100 C   0  0  0  0  0  0  0  0  0  0  0  0
  161.6210  213.7610  148.8550 C   0  0  1  0  0  3  0  0  0  0  0  0
  158.9400  213.9840  147.5640 C   0  0  0  0  0  2  0  0  0  0  0  0
  156.4990  213.9370  147.7680 N   0  0  0  0  0  0  0  0  0  0  0  0
  159.0300  213.6300  149.0330 C   0  0  0  0  0  0  0  0  0  0  0  0
  160.4150  213.8060  151.0330 N   0  0  0  0  0  2  0  0  0  0  0  0
  156.0790  214.4340  144.9790 C   0  0  0  0  0  1  0  0  0  0  0  0
  156.5980  213.6800  149.1700 C   0  0  0  0  0  0  0  0  0  0  0  0
  159.7100  211.6940  151.8040 O   0  0  0  0  0  1  0  0  0  0  0  0
  157.3860  214.3330  145.6120 N   0  0  0  0  0  2  0  0  0  0  0  0
  159.4280  213.0630  151.8150 C   0  0  2  0  0  3  0  0  0  0  0  0
  158.0040  213.3310  151.3060 C   0  0  2  0  0  3  0  0  0  0  0  0
  160.3750  213.3150  149.6560 C   0  0  2  0  0  3  0  0  0  0  0  0
  157.5440  214.0710  147.0070 C   0  0  0  0  0  0  0  0  0  0  0  0
  157.9220  213.5360  149.8020 C   0  0  0  0  0  0  0  0  0  0  0  0
  155.5470  213.5590  149.8520 O   0  0  0  0  0  0  0  0  0  0  0  0
  157.4900  214.4530  151.9640 O   0  0  0  0  0  0  0  0  0  0  0  0
  156.8510  213.9440  153.1010 C   0  0  0  0  0  2  0  0  0  0  0  0
  157.8050  213.9410  154.2850 C   0  0  0  0  0  2  0  0  0  0  0  0
  157.0500  213.6950  155.5710 C   0  0  0  0  0  2  0  0  0  0  0  0
  158.7740  211.8900  155.9330 N   0  0  0  0  0  2  0  0  0  0  0  0
  156.6390  211.7410  156.8690 O   0  0  0  0  0  0  0  0  0  0  0  0
  157.4540  212.3890  156.1580 C   0  0  0  0  0  0  0  0  0  0  0  0
  159.1010  209.6720  155.3820 C   0  0  0  0  0  2  0  0  0  0  0  0
  161.4060  209.8320  155.9060 C   0  0  0  0  0  2  0  0  0  0  0  0
  160.3810  208.8740  155.3680 C   0  0  0  0  0  2  0  0  0  0  0  0
  159.1970  210.6580  156.4550 N   0  0  0  0  0  0  0  0  0  0  0  0
  160.6170  210.8010  156.7670 C   0  0  0  0  0  2  0  0  0  0  0  0
  162.1900  207.6660  149.1450 C   0  0  2  0  0  3  0  0  0  0  0  0
  163.4870  206.0720  147.9320 O   0  0  0  0  0  0  0  0  0  0  0  0
  162.3380  206.5130  148.1910 C   0  0  0  0  0  0  0  0  0  0  0  0
  160.0860  205.8320  148.3060 O   0  0  0  0  0  0  0  0  0  0  0  0
  161.0650  205.3700  146.2610 N   0  0  0  0  0  2  0  0  0  0  0  0
  161.1270  205.9010  147.5980 C   0  0  0  0  0  0  0  0  0  0  0  0
  161.5810  205.3990  143.8460 C   0  0  0  0  0  1  0  0  0  0  0  0
  162.9430  203.9950  145.4380 C   0  0  0  0  0  1  0  0  0  0  0  0
  162.1240  205.2620  145.2600 C   0  0  0  0  0  3  0  0  0  0  0  0
  161.2500  207.3270  150.3000 C   0  0  0  0  0  2  0  0  0  0  0  0
  161.8740  207.6660  151.6160 C   0  0  0  0  0  0  0  0  0  0  0  0
  162.3430  206.6410  152.4930 N   0  0  0  0  0  2  0  0  0  0  0  0
  161.9750  208.8730  151.9650 O   0  0  0  0  0  0  0  0  0  0  0  0
  162.3380  205.2310  152.1300 C   0  0  0  0  0  2  0  0  0  0  0  0
  162.8000  202.2830  151.7730 F   0  0  0  0  0  0  0  0  0  0  0  0
  161.4190  202.4050  151.7300 C   0  0  2  0  0  3  0  0  0  0  0  0
  160.4570  202.9930  149.5400 C   0  0  0  0  0  2  0  0  0  0  0  0
  161.3900  205.0030  150.9670 C   0  0  2  0  0  3  0  0  0  0  0  0
  160.8480  201.1970  151.1360 N   0  0  0  0  0  2  0  0  0  0  0  0
  160.0580  204.4720  151.4790 C   0  0  0  0  0  2  0  0  0  0  0  0
  161.0340  203.5280  150.8060 C   0  0  2  0  0  0  0  0  0  0  0  0
  160.5960  201.4840  149.7190 C   0  0  0  0  0  2  0  0  0  0  0  0
  1  4  1  0  0  0  0
  1  9  1  0  0  0  0
  2 10  1  0  0  0  0
  2  7  2  0  0  0  0
  3 10  1  0  0  0  0
  4 11  1  0  0  0  0
  6  9  2  0  0  0  0
  6 38  1  0  0  0  0
  7  6  1  0  0  0  0
  8  3  1  0  0  0  0
  8  5  1  0  0  0  0
 10  1  2  0  0  0  0
 11  5  1  6  0  0  0
 11 22  1  0  0  0  0
 12 14  1  0  0  0  0
 13 17  1  0  0  0  0
 14 24  2  0  0  0  0
 15 20  1  0  0  0  0
 16 19  1  0  0  0  0
 17 24  1  0  0  0  0
 17 25  2  0  0  0  0
 19 23  1  0  0  0  0
 20 18  1  6  0  0  0
 21 20  1  0  0  0  0
 21 26  1  1  0  0  0
 22 14  1  6  0  0  0
 22 15  1  0  0  0  0
 23 12  1  0  0  0  0
 23 13  2  0  0  0  0
 24 21  1  0  0  0  0
 26 27  1  0  0  0  0
 27 28  1  0  0  0  0
 28 29  1  0  0  0  0
 29 32  1  0  0  0  0
 30 32  1  0  0  0  0
 30 36  1  0  0  0  0
 32 31  2  0  0  0  0
 33 36  1  0  0  0  0
 34 37  1  0  0  0  0
 35 33  1  0  0  0  0
 35 34  1  0  0  0  0
 36 37  1  0  0  0  0
 38 47  1  1  0  0  0
 39 40  2  0  0  0  0
 40 38  1  0  0  0  0
 42 43  1  0  0  0  0
 43 40  1  0  0  0  0
 43 41  2  0  0  0  0
 44 46  1  0  0  0  0
 46 45  1  0  0  0  0
 46 42  1  0  0  0  0
 47 48  1  0  0  0  0
 48 50  2  0  0  0  0
 48 49  1  0  0  0  0
 51 49  1  0  0  0  0
 53 52  1  6  0  0  0
 54 59  1  0  0  0  0
 55 57  1  0  0  0  0
 55 51  1  1  0  0  0
 56 53  1  0  0  0  0
 58 54  1  6  0  0  0
 58 55  1  0  0  0  0
 58 57  1  0  0  0  0
 58 53  1  0  0  0  0
 59 56  1  0  0  0  0
M  END
>  <MODEL>
6

>  <REMARK>
 VINA RESULT:       0.2      2.856      9.925
  Name = 
  15 active torsions:
  status: ('A' for Active; 'I' for Inactive)
    1  A    between atoms: C_6  and  C_34
    2  A    between atoms: C_12  and  C_18
    3  A    between atoms: C_12  and  C_32
    4  A    between atoms: C_18  and  C_57
    5  A    between atoms: O_21  and  C_32
    6  A    between atoms: O_21  and  C_39
    7  A    between atoms: N_24  and  C_28
    8  A    between atoms: N_26  and  N_29
    9  A    between atoms: N_27  and  C_40
   10  A    between atoms: C_34  and  C_47
   11  A    between atoms: C_35  and  C_47
   12  A    between atoms: C_40  and  C_43
   13  A    between atoms: C_45  and  C_49
   14  A    between atoms: C_47  and  C_49
   15  A    between atoms: C_51  and  C_56
                            x       y       z     vdW  Elec       q    Type
                         _______ _______ _______ _____ _____    ______ ____

>  <TORSDO>
F 15

$$$$
=
 OpenBabel11072415283D

 59 65  0  0  1  0  0  0  0  0999 V2000
  161.9150  205.5790  151.6750 C   0  0  0  0  0  0  0  0  0  0  0  0
  159.8160  206.6440  152.2780 C   0  0  0  0  0  3  0  0  0  0  0  0
  159.7840  204.1810  152.0510 C   0  0  0  0  0  2  0  0  0  0  0  0
  162.7770  204.3920  151.3230 C   0  0  0  0  0  2  0  0  0  0  0  0
  161.1350  202.4640  151.1390 C   0  0  0  0  0  2  0  0  0  0  0  0
  161.7640  208.0050  151.8180 C   0  0  0  0  0  0  0  0  0  0  0  0
  160.4180  207.9000  152.1690 C   0  0  0  0  0  3  0  0  0  0  0  0
  160.6390  203.0510  152.3830 N   0  0  0  0  0  2  0  0  0  0  0  0
  162.5090  206.8420  151.5850 C   0  0  0  0  0  3  0  0  0  0  0  0
  160.5490  205.4760  152.0420 C   0  0  0  0  0  0  0  0  0  0  0  0
  162.0960  203.3900  150.3720 C   0  0  1  0  0  3  0  0  0  0  0  0
  161.4990  201.7350  147.9630 C   0  0  0  0  0  2  0  0  0  0  0  0
  160.8270  201.6150  145.6100 N   0  0  0  0  0  0  0  0  0  0  0  0
  161.3010  203.2350  147.9010 C   0  0  0  0  0  0  0  0  0  0  0  0
  161.9970  205.3670  148.8610 N   0  0  0  0  0  2  0  0  0  0  0  0
  160.9680  198.7560  145.5320 C   0  0  0  0  0  1  0  0  0  0  0  0
  160.7190  203.0380  145.5440 C   0  0  0  0  0  0  0  0  0  0  0  0
  159.8430  206.2830  148.5890 O   0  0  0  0  0  1  0  0  0  0  0  0
  161.2670  199.5650  146.7040 N   0  0  0  0  0  2  0  0  0  0  0  0
  161.0860  206.0930  147.9770 C   0  0  2  0  0  3  0  0  0  0  0  0
  160.9270  205.3690  146.6320 C   0  0  2  0  0  3  0  0  0  0  0  0
  161.4030  204.0650  149.1650 C   0  0  2  0  0  3  0  0  0  0  0  0
  161.1700  200.9900  146.6970 C   0  0  0  0  0  0  0  0  0  0  0  0
  160.9810  203.8540  146.7440 C   0  0  0  0  0  0  0  0  0  0  0  0
  160.3810  203.5820  144.4600 O   0  0  0  0  0  0  0  0  0  0  0  0
  161.9230  205.8130  145.7560 O   0  0  0  0  0  0  0  0  0  0  0  0
  161.7490  205.0510  144.5950 C   0  0  0  0  0  2  0  0  0  0  0  0
  162.3840  205.7510  143.4040 C   0  0  0  0  0  2  0  0  0  0  0  0
  161.3230  206.1630  142.4080 C   0  0  0  0  0  2  0  0  0  0  0  0
  161.5640  207.8220  140.5240 N   0  0  0  0  0  2  0  0  0  0  0  0
  162.8610  205.8800  140.6110 O   0  0  0  0  0  0  0  0  0  0  0  0
  161.9600  206.5920  141.1340 C   0  0  0  0  0  0  0  0  0  0  0  0
  161.8760  207.2290  138.3140 C   0  0  0  0  0  2  0  0  0  0  0  0
  160.6810  209.1390  137.5830 C   0  0  0  0  0  2  0  0  0  0  0  0
  161.3650  207.9050  137.0660 C   0  0  0  0  0  2  0  0  0  0  0  0
  162.1270  208.2620  139.3150 N   0  0  0  0  0  0  0  0  0  0  0  0
  161.3660  209.4390  138.9040 C   0  0  0  0  0  2  0  0  0  0  0  0
  162.3830  209.3680  151.6910 C   0  0  2  0  0  3  0  0  0  0  0  0
  163.5230  210.8030  153.2200 O   0  0  0  0  0  0  0  0  0  0  0  0
  162.5390  210.0450  153.0250 C   0  0  0  0  0  0  0  0  0  0  0  0
  161.5990  208.7930  154.7850 O   0  0  0  0  0  0  0  0  0  0  0  0
  160.4180  210.7280  154.3240 N   0  0  0  0  0  2  0  0  0  0  0  0
  161.5150  209.8290  154.0730 C   0  0  0  0  0  0  0  0  0  0  0  0
  159.4510  212.9880  154.5560 C   0  0  0  0  0  1  0  0  0  0  0  0
  159.1390  211.6670  152.4310 C   0  0  0  0  0  1  0  0  0  0  0  0
  160.0460  211.9520  153.6170 C   0  0  0  0  0  3  0  0  0  0  0  0
  161.6430  210.2550  150.6910 C   0  0  0  0  0  2  0  0  0  0  0  0
  161.9850  209.8770  149.2850 C   0  0  0  0  0  0  0  0  0  0  0  0
  162.2360  210.8770  148.2960 N   0  0  0  0  0  2  0  0  0  0  0  0
  162.0380  208.6600  148.9620 O   0  0  0  0  0  0  0  0  0  0  0  0
  162.2740  212.2990  148.6060 C   0  0  0  0  0  2  0  0  0  0  0  0
  160.2990  211.8000  146.3950 F   0  0  0  0  0  0  0  0  0  0  0  0
  160.5750  213.1550  146.2880 C   0  0  2  0  0  3  0  0  0  0  0  0
  162.5840  213.7460  144.9910 C   0  0  0  0  0  2  0  0  0  0  0  0
  162.9950  213.0460  147.4990 C   0  0  2  0  0  3  0  0  0  0  0  0
  160.1530  213.6290  144.9700 N   0  0  0  0  0  2  0  0  0  0  0  0
  162.4150  214.4460  147.3540 C   0  0  0  0  0  2  0  0  0  0  0  0
  162.0620  213.3790  146.3370 C   0  0  2  0  0  0  0  0  0  0  0  0
  161.3420  213.6460  144.1110 C   0  0  0  0  0  2  0  0  0  0  0  0
  1 10  1  0  0  0  0
  3  8  1  0  0  0  0
  4  1  1  0  0  0  0
  5  8  1  0  0  0  0
  6  7  2  0  0  0  0
  7  2  1  0  0  0  0
  9  1  2  0  0  0  0
  9  6  1  0  0  0  0
 10  3  1  0  0  0  0
 10  2  2  0  0  0  0
 11  5  1  1  0  0  0
 11  4  1  0  0  0  0
 13 23  2  0  0  0  0
 14 12  1  0  0  0  0
 15 22  1  0  0  0  0
 16 19  1  0  0  0  0
 17 13  1  0  0  0  0
 17 24  1  0  0  0  0
 20 18  1  1  0  0  0
 20 15  1  0  0  0  0
 21 26  1  6  0  0  0
 21 24  1  0  0  0  0
 21 20  1  0  0  0  0
 22 14  1  6  0  0  0
 22 11  1  0  0  0  0
 23 19  1  0  0  0  0
 23 12  1  0  0  0  0
 24 14  2  0  0  0  0
 25 17  2  0  0  0  0
 27 26  1  0  0  0  0
 28 27  1  0  0  0  0
 29 28  1  0  0  0  0
 30 32  1  0  0  0  0
 31 32  2  0  0  0  0
 32 29  1  0  0  0  0
 33 36  1  0  0  0  0
 34 37  1  0  0  0  0
 35 34  1  0  0  0  0
 35 33  1  0  0  0  0
 36 30  1  0  0  0  0
 37 36  1  0  0  0  0
 38 47  1  6  0  0  0
 38  6  1  0  0  0  0
 38 40  1  0  0  0  0
 40 39  2  0  0  0  0
 40 43  1  0  0  0  0
 43 42  1  0  0  0  0
 43 41  2  0  0  0  0
 45 46  1  0  0  0  0
 46 42  1  0  0  0  0
 46 44  1  0  0  0  0
 48 47  1  0  0  0  0
 49 51  1  0  0  0  0
 49 48  1  0  0  0  0
 50 48  2  0  0  0  0
 53 58  1  0  0  0  0
 53 52  1  6  0  0  0
 55 51  1  1  0  0  0
 56 53  1  0  0  0  0
 57 55  1  0  0  0  0
 58 54  1  6  0  0  0
 58 57  1  0  0  0  0
 58 55  1  0  0  0  0
 59 56  1  0  0  0  0
 59 54  1  0  0  0  0
M  END
>  <MODEL>
7

>  <REMARK>
 VINA RESULT:       0.4      3.422      5.148
  Name = 
  15 active torsions:
  status: ('A' for Active; 'I' for Inactive)
    1  A    between atoms: C_6  and  C_34
    2  A    between atoms: C_12  and  C_18
    3  A    between atoms: C_12  and  C_32
    4  A    between atoms: C_18  and  C_57
    5  A    between atoms: O_21  and  C_32
    6  A    between atoms: O_21  and  C_39
    7  A    between atoms: N_24  and  C_28
    8  A    between atoms: N_26  and  N_29
    9  A    between atoms: N_27  and  C_40
   10  A    between atoms: C_34  and  C_47
   11  A    between atoms: C_35  and  C_47
   12  A    between atoms: C_40  and  C_43
   13  A    between atoms: C_45  and  C_49
   14  A    between atoms: C_47  and  C_49
   15  A    between atoms: C_51  and  C_56
                            x       y       z     vdW  Elec       q    Type
                         _______ _______ _______ _____ _____    ______ ____

>  <TORSDO>
F 15

$$$$
=
 OpenBabel11072415283D

 59 65  0  0  1  0  0  0  0  0999 V2000
  161.2860  207.5720  147.2700 C   0  0  0  0  0  0  0  0  0  0  0  0
  163.6390  208.1130  147.5380 C   0  0  0  0  0  3  0  0  0  0  0  0
  163.1050  206.1640  146.1110 C   0  0  0  0  0  2  0  0  0  0  0  0
  160.1400  206.7390  146.7520 C   0  0  0  0  0  2  0  0  0  0  0  0
  161.2680  204.7380  145.6680 C   0  0  0  0  0  2  0  0  0  0  0  0
  161.9710  209.3900  148.7400 C   0  0  0  0  0  0  0  0  0  0  0  0
  163.3070  209.1380  148.4270 C   0  0  0  0  0  3  0  0  0  0  0  0
  162.1160  205.7920  145.1120 N   0  0  0  0  0  2  0  0  0  0  0  0
  160.9660  208.6130  148.1490 C   0  0  0  0  0  3  0  0  0  0  0  0
  162.6450  207.3270  146.9470 C   0  0  0  0  0  0  0  0  0  0  0  0
  160.3900  205.2210  146.8360 C   0  0  1  0  0  3  0  0  0  0  0  0
  160.9190  202.3170  147.2650 C   0  0  0  0  0  2  0  0  0  0  0  0
  161.4310  200.4800  148.8030 N   0  0  0  0  0  0  0  0  0  0  0  0
  161.0180  203.2710  148.4380 C   0  0  0  0  0  0  0  0  0  0  0  0
  160.2570  205.4160  149.3150 N   0  0  0  0  0  2  0  0  0  0  0  0
  161.4660  198.5130  146.7220 C   0  0  0  0  0  1  0  0  0  0  0  0
  161.4440  201.3800  149.9120 C   0  0  0  0  0  0  0  0  0  0  0  0
  162.3240  205.8050  150.3770 O   0  0  0  0  0  1  0  0  0  0  0  0
  161.2000  199.9280  146.5160 N   0  0  0  0  0  2  0  0  0  0  0  0
  161.0560  205.2350  150.5260 C   0  0  2  0  0  3  0  0  0  0  0  0
  161.1660  203.7490  150.8980 C   0  0  2  0  0  3  0  0  0  0  0  0
  160.9520  204.7670  148.2030 C   0  0  2  0  0  3  0  0  0  0  0  0
  161.2050  200.8740  147.5860 C   0  0  0  0  0  0  0  0  0  0  0  0
  161.2160  202.8210  149.6960 C   0  0  0  0  0  0  0  0  0  0  0  0
  161.6700  200.9340  151.0680 O   0  0  0  0  0  0  0  0  0  0  0  0
  160.0840  203.4040  151.7160 O   0  0  0  0  0  0  0  0  0  0  0  0
  160.5260  203.6500  153.0220 C   0  0  0  0  0  2  0  0  0  0  0  0
  160.0150  204.9970  153.5070 C   0  0  0  0  0  2  0  0  0  0  0  0
  161.1720  205.9080  153.8480 C   0  0  0  0  0  2  0  0  0  0  0  0
  161.7660  207.7160  155.5030 N   0  0  0  0  0  2  0  0  0  0  0  0
  159.6630  206.6970  155.5140 O   0  0  0  0  0  0  0  0  0  0  0  0
  160.8130  206.7780  155.0010 C   0  0  0  0  0  0  0  0  0  0  0  0
  162.1110  209.8390  156.3420 C   0  0  0  0  0  2  0  0  0  0  0  0
  159.7790  210.2590  156.3700 C   0  0  0  0  0  2  0  0  0  0  0  0
  161.1000  210.9190  156.6430 C   0  0  0  0  0  2  0  0  0  0  0  0
  161.4780  208.5480  156.5970 N   0  0  0  0  0  0  0  0  0  0  0  0
  160.0350  208.7770  156.5790 C   0  0  0  0  0  2  0  0  0  0  0  0
  161.6400  210.4870  149.7120 C   0  0  2  0  0  3  0  0  0  0  0  0
  162.8030  212.1390  148.4420 O   0  0  0  0  0  0  0  0  0  0  0  0
  161.7640  211.8500  149.0880 C   0  0  0  0  0  0  0  0  0  0  0  0
  160.4940  213.3980  150.3290 O   0  0  0  0  0  0  0  0  0  0  0  0
  159.7170  213.1220  148.1670 N   0  0  0  0  0  2  0  0  0  0  0  0
  160.6480  212.8140  149.2220 C   0  0  0  0  0  0  0  0  0  0  0  0
  160.6100  213.2000  145.8650 C   0  0  0  0  0  1  0  0  0  0  0  0
  158.2000  212.5890  146.2920 C   0  0  0  0  0  1  0  0  0  0  0  0
  159.6230  212.5530  146.8240 C   0  0  0  0  0  3  0  0  0  0  0  0
  162.4440  210.3830  151.0060 C   0  0  0  0  0  2  0  0  0  0  0  0
  161.7800  209.4610  151.9770 C   0  0  0  0  0  0  0  0  0  0  0  0
  160.7400  209.9270  152.8390 N   0  0  0  0  0  2  0  0  0  0  0  0
  162.1500  208.2580  152.0490 O   0  0  0  0  0  0  0  0  0  0  0  0
  160.1990  211.2760  152.7620 C   0  0  0  0  0  2  0  0  0  0  0  0
  159.9400  213.1620  155.0880 F   0  0  0  0  0  0  0  0  0  0  0  0
  158.9610  213.5950  154.2060 C   0  0  2  0  0  3  0  0  0  0  0  0
  156.8030  212.4110  154.3240 C   0  0  0  0  0  2  0  0  0  0  0  0
  158.6890  211.2340  152.9080 C   0  0  2  0  0  3  0  0  0  0  0  0
  158.0070  214.4410  154.9220 N   0  0  0  0  0  2  0  0  0  0  0  0
  158.0650  212.4280  152.1990 C   0  0  0  0  0  2  0  0  0  0  0  0
  158.1630  212.4190  153.7120 C   0  0  2  0  0  0  0  0  0  0  0  0
  156.8590  213.6000  155.2790 C   0  0  0  0  0  2  0  0  0  0  0  0
  1  9  1  0  0  0  0
  2  7  2  0  0  0  0
  3 10  1  0  0  0  0
  4 11  1  0  0  0  0
  4  1  1  0  0  0  0
  6 38  1  0  0  0  0
  7  6  1  0  0  0  0
  8  5  1  0  0  0  0
  8  3  1  0  0  0  0
  9  6  2  0  0  0  0
 10  1  2  0  0  0  0
 10  2  1  0  0  0  0
 11  5  1  6  0  0  0
 11 22  1  0  0  0  0
 12 23  1  0  0  0  0
 12 14  1  0  0  0  0
 13 17  1  0  0  0  0
 14 24  2  0  0  0  0
 15 20  1  0  0  0  0
 17 25  2  0  0  0  0
 19 16  1  0  0  0  0
 19 23  1  0  0  0  0
 20 18  1  6  0  0  0
 20 21  1  0  0  0  0
 21 26  1  1  0  0  0
 22 14  1  1  0  0  0
 22 15  1  0  0  0  0
 23 13  2  0  0  0  0
 24 17  1  0  0  0  0
 24 21  1  0  0  0  0
 26 27  1  0  0  0  0
 27 28  1  0  0  0  0
 28 29  1  0  0  0  0
 29 32  1  0  0  0  0
 30 36  1  0  0  0  0
 32 30  1  0  0  0  0
 32 31  2  0  0  0  0
 33 36  1  0  0  0  0
 33 35  1  0  0  0  0
 34 37  1  0  0  0  0
 34 35  1  0  0  0  0
 37 36  1  0  0  0  0
 38 47  1  1  0  0  0
 39 40  2  0  0  0  0
 40 43  1  0  0  0  0
 40 38  1  0  0  0  0
 42 43  1  0  0  0  0
 43 41  2  0  0  0  0
 44 46  1  0  0  0  0
 45 46  1  0  0  0  0
 46 42  1  0  0  0  0
 47 48  1  0  0  0  0
 48 50  2  0  0  0  0
 48 49  1  0  0  0  0
 51 49  1  0  0  0  0
 53 56  1  0  0  0  0
 53 52  1  1  0  0  0
 54 59  1  0  0  0  0
 55 51  1  6  0  0  0
 55 58  1  0  0  0  0
 56 59  1  0  0  0  0
 57 55  1  0  0  0  0
 58 57  1  6  0  0  0
 58 53  1  0  0  0  0
 58 54  1  0  0  0  0
M  END
>  <MODEL>
8

>  <REMARK>
 VINA RESULT:       0.7      2.062      6.673
  Name = 
  15 active torsions:
  status: ('A' for Active; 'I' for Inactive)
    1  A    between atoms: C_6  and  C_34
    2  A    between atoms: C_12  and  C_18
    3  A    between atoms: C_12  and  C_32
    4  A    between atoms: C_18  and  C_57
    5  A    between atoms: O_21  and  C_32
    6  A    between atoms: O_21  and  C_39
    7  A    between atoms: N_24  and  C_28
    8  A    between atoms: N_26  and  N_29
    9  A    between atoms: N_27  and  C_40
   10  A    between atoms: C_34  and  C_47
   11  A    between atoms: C_35  and  C_47
   12  A    between atoms: C_40  and  C_43
   13  A    between atoms: C_45  and  C_49
   14  A    between atoms: C_47  and  C_49
   15  A    between atoms: C_51  and  C_56
                            x       y       z     vdW  Elec       q    Type
                         _______ _______ _______ _____ _____    ______ ____

>  <TORSDO>
F 15

$$$$
=
 OpenBabel11072415283D

 59 65  0  0  1  0  0  0  0  0999 V2000
  161.6400  209.6210  151.7410 C   0  0  0  0  0  0  0  0  0  0  0  0
  159.2650  209.5640  152.2480 C   0  0  0  0  0  3  0  0  0  0  0  0
  160.5830  207.5700  152.8850 C   0  0  0  0  0  2  0  0  0  0  0  0
  163.0280  209.0310  151.6930 C   0  0  0  0  0  2  0  0  0  0  0  0
  162.7030  206.6210  152.4250 C   0  0  0  0  0  2  0  0  0  0  0  0
  160.1940  211.4610  151.0660 C   0  0  0  0  0  0  0  0  0  0  0  0
  159.0990  210.8040  151.6280 C   0  0  0  0  0  3  0  0  0  0  0  0
  161.8890  207.2700  153.4520 N   0  0  0  0  0  2  0  0  0  0  0  0
  161.4620  210.8710  151.1380 C   0  0  0  0  0  3  0  0  0  0  0  0
  160.5260  208.9620  152.3200 C   0  0  0  0  0  0  0  0  0  0  0  0
  163.0590  207.5550  151.2540 C   0  0  1  0  0  3  0  0  0  0  0  0
  161.9480  204.8100  150.8900 C   0  0  0  0  0  2  0  0  0  0  0  0
  160.8510  203.1620  149.4470 N   0  0  0  0  0  0  0  0  0  0  0  0
  161.8180  205.8190  149.7680 C   0  0  0  0  0  0  0  0  0  0  0  0
  162.7850  207.8360  148.7950 N   0  0  0  0  0  2  0  0  0  0  0  0
  160.8310  201.1390  151.4740 C   0  0  0  0  0  1  0  0  0  0  0  0
  160.8050  204.1000  148.3710 C   0  0  0  0  0  0  0  0  0  0  0  0
  160.6670  208.6270  148.1320 O   0  0  0  0  0  1  0  0  0  0  0  0
  161.3790  202.4760  151.6470 N   0  0  0  0  0  2  0  0  0  0  0  0
  161.7650  207.8520  147.7470 C   0  0  2  0  0  3  0  0  0  0  0  0
  161.3260  206.4270  147.3810 C   0  0  2  0  0  3  0  0  0  0  0  0
  162.1920  207.2680  150.0060 C   0  0  2  0  0  3  0  0  0  0  0  0
  161.3550  203.4550  150.6080 C   0  0  0  0  0  0  0  0  0  0  0  0
  161.3230  205.4680  148.5610 C   0  0  0  0  0  0  0  0  0  0  0  0
  160.3020  203.7540  147.2690 O   0  0  0  0  0  0  0  0  0  0  0  0
  162.1660  205.9360  146.3760 O   0  0  0  0  0  0  0  0  0  0  0  0
  161.3430  205.8030  145.2510 C   0  0  0  0  0  2  0  0  0  0  0  0
  162.1500  206.0120  143.9800 C   0  0  0  0  0  2  0  0  0  0  0  0
  161.2730  205.8300  142.7620 C   0  0  0  0  0  2  0  0  0  0  0  0
  161.5810  207.6530  141.0470 N   0  0  0  0  0  2  0  0  0  0  0  0
  162.8750  205.7080  141.0040 O   0  0  0  0  0  0  0  0  0  0  0  0
  161.9550  206.3720  141.5560 C   0  0  0  0  0  0  0  0  0  0  0  0
  161.4190  207.7520  138.7460 C   0  0  0  0  0  2  0  0  0  0  0  0
  161.1660  210.1070  138.8180 C   0  0  0  0  0  2  0  0  0  0  0  0
  161.1750  208.9490  137.8600 C   0  0  0  0  0  2  0  0  0  0  0  0
  162.1870  208.1990  139.9050 N   0  0  0  0  0  0  0  0  0  0  0  0
  162.0120  209.6470  139.9910 C   0  0  0  0  0  2  0  0  0  0  0  0
  159.9850  212.7870  150.3900 C   0  0  2  0  0  3  0  0  0  0  0  0
  161.7840  214.1710  149.6530 O   0  0  0  0  0  0  0  0  0  0  0  0
  161.1120  213.1270  149.4540 C   0  0  0  0  0  0  0  0  0  0  0  0
  162.3710  211.3880  148.4840 O   0  0  0  0  0  0  0  0  0  0  0  0
  160.7270  212.2050  147.0760 N   0  0  0  0  0  2  0  0  0  0  0  0
  161.4280  212.2100  148.3340 C   0  0  0  0  0  0  0  0  0  0  0  0
  158.2860  212.5790  147.0570 C   0  0  0  0  0  1  0  0  0  0  0  0
  159.7170  213.3120  145.1140 C   0  0  0  0  0  1  0  0  0  0  0  0
  159.6510  213.0800  146.6140 C   0  0  0  0  0  3  0  0  0  0  0  0
  159.7180  213.9140  151.3850 C   0  0  0  0  0  2  0  0  0  0  0  0
  158.2520  214.1730  151.5210 C   0  0  0  0  0  0  0  0  0  0  0  0
  157.6060  214.0900  152.7930 N   0  0  0  0  0  2  0  0  0  0  0  0
  157.5710  214.4530  150.4980 O   0  0  0  0  0  0  0  0  0  0  0  0
  158.3330  213.8530  154.0310 C   0  0  0  0  0  2  0  0  0  0  0  0
  160.8180  212.1630  154.1130 F   0  0  0  0  0  0  0  0  0  0  0  0
  160.3140  212.0660  155.4010 C   0  0  2  0  0  3  0  0  0  0  0  0
  158.5770  210.3550  155.7540 C   0  0  0  0  0  2  0  0  0  0  0  0
  157.7510  212.6470  154.7460 C   0  0  2  0  0  3  0  0  0  0  0  0
  160.9240  210.9180  156.0710 N   0  0  0  0  0  2  0  0  0  0  0  0
  158.0640  212.7250  156.2340 C   0  0  0  0  0  2  0  0  0  0  0  0
  158.8410  211.7670  155.3520 C   0  0  2  0  0  0  0  0  0  0  0  0
  159.9820  209.7990  155.9630 C   0  0  0  0  0  2  0  0  0  0  0  0
  1 10  1  0  0  0  0
  2 10  2  0  0  0  0
  3  8  1  0  0  0  0
  4  1  1  0  0  0  0
  5  8  1  0  0  0  0
  6  9  1  0  0  0  0
  6  7  2  0  0  0  0
  7  2  1  0  0  0  0
  9  1  2  0  0  0  0
 10  3  1  0  0  0  0
 11  4  1  1  0  0  0
 11  5  1  0  0  0  0
 13 23  2  0  0  0  0
 14 22  1  0  0  0  0
 14 12  1  0  0  0  0
 16 19  1  0  0  0  0
 17 24  1  0  0  0  0
 17 13  1  0  0  0  0
 20 18  1  1  0  0  0
 20 15  1  0  0  0  0
 21 26  1  6  0  0  0
 21 20  1  0  0  0  0
 21 24  1  0  0  0  0
 22 15  1  6  0  0  0
 22 11  1  0  0  0  0
 23 12  1  0  0  0  0
 23 19  1  0  0  0  0
 24 14  2  0  0  0  0
 25 17  2  0  0  0  0
 27 26  1  0  0  0  0
 28 27  1  0  0  0  0
 29 28  1  0  0  0  0
 30 32  1  0  0  0  0
 31 32  2  0  0  0  0
 32 29  1  0  0  0  0
 33 36  1  0  0  0  0
 34 37  1  0  0  0  0
 35 33  1  0  0  0  0
 35 34  1  0  0  0  0
 36 37  1  0  0  0  0
 36 30  1  0  0  0  0
 38  6  1  0  0  0  0
 38 47  1  1  0  0  0
 40 39  2  0  0  0  0
 40 38  1  0  0  0  0
 42 43  1  0  0  0  0
 43 41  2  0  0  0  0
 43 40  1  0  0  0  0
 45 46  1  0  0  0  0
 46 44  1  0  0  0  0
 46 42  1  0  0  0  0
 47 48  1  0  0  0  0
 48 49  1  0  0  0  0
 49 51  1  0  0  0  0
 50 48  2  0  0  0  0
 53 52  1  6  0  0  0
 53 56  1  0  0  0  0
 54 59  1  0  0  0  0
 55 51  1  6  0  0  0
 55 58  1  0  0  0  0
 55 57  1  0  0  0  0
 58 53  1  0  0  0  0
 58 54  1  1  0  0  0
 58 57  1  0  0  0  0
 59 56  1  0  0  0  0
M  END
>  <MODEL>
9

>  <REMARK>
 VINA RESULT:       0.7      3.155      6.146
  Name = 
  15 active torsions:
  status: ('A' for Active; 'I' for Inactive)
    1  A    between atoms: C_6  and  C_34
    2  A    between atoms: C_12  and  C_18
    3  A    between atoms: C_12  and  C_32
    4  A    between atoms: C_18  and  C_57
    5  A    between atoms: O_21  and  C_32
    6  A    between atoms: O_21  and  C_39
    7  A    between atoms: N_24  and  C_28
    8  A    between atoms: N_26  and  N_29
    9  A    between atoms: N_27  and  C_40
   10  A    between atoms: C_34  and  C_47
   11  A    between atoms: C_35  and  C_47
   12  A    between atoms: C_40  and  C_43
   13  A    between atoms: C_45  and  C_49
   14  A    between atoms: C_47  and  C_49
   15  A    between atoms: C_51  and  C_56
                            x       y       z     vdW  Elec       q    Type
                         _______ _______ _______ _____ _____    ______ ____

>  <TORSDO>
F 15

$$$$
