=
 OpenBabel11072411353D

 25 27  0  0  0  0  0  0  0  0999 V2000
  160.9260  203.8020  151.7370 C   0  0  0  0  0  3  0  0  0  0  0  0
  161.4600  206.3020  149.8670 C   0  0  0  0  0  0  0  0  0  0  0  0
  161.4320  206.2460  151.2200 C   0  0  0  0  0  0  0  0  0  0  0  0
  161.3110  205.1690  148.9020 C   0  0  0  0  0  0  0  0  0  0  0  0
  161.6430  207.5590  149.2880 O   0  0  0  0  0  1  0  0  0  0  0  0
  160.7860  203.2800  150.4240 N   0  0  0  0  0  0  0  0  0  0  0  0
  161.0050  203.9000  149.1630 C   0  0  0  0  0  3  0  0  0  0  0  0
  161.2080  205.0550  152.0550 C   0  0  0  0  0  2  0  0  0  0  0  0
  161.9060  204.1900  146.6610 C   0  0  0  0  0  2  0  0  0  0  0  0
  161.9160  204.5070  145.1660 C   0  0  0  0  0  2  0  0  0  0  0  0
  160.4300  206.2010  145.3070 C   0  0  0  0  0  2  0  0  0  0  0  0
  160.2370  206.0930  146.8190 C   0  0  0  0  0  2  0  0  0  0  0  0
  160.6360  204.9230  144.7560 O   0  0  0  0  0  0  0  0  0  0  0  0
  161.4780  205.4400  147.4330 C   0  0  0  0  0  3  0  0  0  0  0  0
  162.3840  208.4070  151.5160 O   0  0  0  0  0  0  0  0  0  0  0  0
  161.6690  207.4880  152.0020 C   0  0  0  0  0  0  0  0  0  0  0  0
  160.3780  207.2780  155.3960 C   0  0  0  0  0  3  0  0  0  0  0  0
  160.9350  206.6610  154.2880 C   0  0  0  0  0  3  0  0  0  0  0  0
  160.2490  208.6100  155.0470 C   0  0  0  0  0  0  0  0  0  0  0  0
  161.0980  207.6650  153.3500 C   0  0  0  0  0  0  0  0  0  0  0  0
  160.6840  208.8120  153.8290 O   0  0  0  0  0  0  0  0  0  0  0  0
  160.0300  209.7280  157.1200 O   0  0  0  0  0  0  0  0  0  0  0  0
  158.8000  210.6260  155.3500 N   0  0  0  0  0  2  0  0  0  0  0  0
  159.7030  209.6670  155.9030 C   0  0  0  0  0  0  0  0  0  0  0  0
  158.2270  211.6950  156.1510 C   0  0  0  0  0  1  0  0  0  0  0  0
  1  8  1  0  0  0  0
  2  3  2  0  0  0  0
  3 16  1  0  0  0  0
  3  8  1  0  0  0  0
  4  7  2  0  0  0  0
  4  2  1  0  0  0  0
  5  2  1  0  0  0  0
  6  1  2  0  0  0  0
  7  6  1  0  0  0  0
  9 14  1  0  0  0  0
 10  9  1  0  0  0  0
 11 12  1  0  0  0  0
 12 14  1  0  0  0  0
 13 10  1  0  0  0  0
 13 11  1  0  0  0  0
 14  4  1  0  0  0  0
 15 16  2  0  0  0  0
 16 20  1  0  0  0  0
 18 17  1  0  0  0  0
 19 17  2  0  0  0  0
 19 24  1  0  0  0  0
 20 21  1  0  0  0  0
 20 18  2  0  0  0  0
 21 19  1  0  0  0  0
 23 24  1  0  0  0  0
 23 25  1  0  0  0  0
 24 22  2  0  0  0  0
M  END
>  <MODEL>
1

>  <REMARK>
 VINA RESULT:      -8.9      0.000      0.000
  Name = 
  4 active torsions:
  status: ('A' for Active; 'I' for Inactive)
    1  A    between atoms: C_5  and  C_25
    2  A    between atoms: C_7  and  C_22
    3  A    between atoms: C_11  and  C_18
    4  A    between atoms: C_13  and  C_25
                            x       y       z     vdW  Elec       q    Type
                         _______ _______ _______ _____ _____    ______ ____

>  <TORSDO>
F 4

$$$$
=
 OpenBabel11072411353D

 25 27  0  0  0  0  0  0  0  0999 V2000
  161.2380  205.1480  152.8120 C   0  0  0  0  0  3  0  0  0  0  0  0
  161.3320  206.9240  150.1910 C   0  0  0  0  0  0  0  0  0  0  0  0
  161.4480  207.3130  151.4840 C   0  0  0  0  0  0  0  0  0  0  0  0
  161.1950  205.5300  149.6650 C   0  0  0  0  0  0  0  0  0  0  0  0
  161.3320  207.9290  149.2230 O   0  0  0  0  0  1  0  0  0  0  0  0
  161.0150  204.2170  151.7640 N   0  0  0  0  0  0  0  0  0  0  0  0
  161.0430  204.4010  150.3540 C   0  0  0  0  0  3  0  0  0  0  0  0
  161.4280  206.4500  152.6760 C   0  0  0  0  0  2  0  0  0  0  0  0
  162.2280  206.1720  147.4620 C   0  0  0  0  0  2  0  0  0  0  0  0
  162.2530  205.7930  145.9810 C   0  0  0  0  0  2  0  0  0  0  0  0
  161.4350  203.7110  146.2890 C   0  0  0  0  0  2  0  0  0  0  0  0
  161.3100  203.8340  147.8060 C   0  0  0  0  0  2  0  0  0  0  0  0
  162.5610  204.4280  145.8410 O   0  0  0  0  0  0  0  0  0  0  0  0
  161.1830  205.3140  148.1780 C   0  0  0  0  0  3  0  0  0  0  0  0
  162.5730  209.3950  151.2290 O   0  0  0  0  0  0  0  0  0  0  0  0
  161.6430  208.7530  151.7920 C   0  0  0  0  0  0  0  0  0  0  0  0
  159.8670  210.1610  154.6370 C   0  0  0  0  0  3  0  0  0  0  0  0
  160.8500  209.3230  154.1360 C   0  0  0  0  0  3  0  0  0  0  0  0
  159.2770  210.7370  153.5280 C   0  0  0  0  0  0  0  0  0  0  0  0
  160.7780  209.4540  152.7600 C   0  0  0  0  0  0  0  0  0  0  0  0
  159.8360  210.3010  152.4280 O   0  0  0  0  0  0  0  0  0  0  0  0
  158.1540  212.6600  152.7290 O   0  0  0  0  0  0  0  0  0  0  0  0
  157.1290  211.5580  154.5140 N   0  0  0  0  0  2  0  0  0  0  0  0
  158.1750  211.7040  153.5530 C   0  0  0  0  0  0  0  0  0  0  0  0
  156.0130  212.4860  154.5860 C   0  0  0  0  0  1  0  0  0  0  0  0
  2  3  2  0  0  0  0
  3 16  1  0  0  0  0
  3  8  1  0  0  0  0
  4  2  1  0  0  0  0
  4  7  2  0  0  0  0
  5  2  1  0  0  0  0
  6  1  2  0  0  0  0
  7  6  1  0  0  0  0
  8  1  1  0  0  0  0
  9 14  1  0  0  0  0
 10  9  1  0  0  0  0
 11 12  1  0  0  0  0
 12 14  1  0  0  0  0
 13 10  1  0  0  0  0
 13 11  1  0  0  0  0
 14  4  1  0  0  0  0
 15 16  2  0  0  0  0
 16 20  1  0  0  0  0
 18 17  1  0  0  0  0
 19 24  1  0  0  0  0
 19 17  2  0  0  0  0
 20 18  2  0  0  0  0
 21 20  1  0  0  0  0
 21 19  1  0  0  0  0
 22 24  2  0  0  0  0
 23 25  1  0  0  0  0
 24 23  1  0  0  0  0
M  END
>  <MODEL>
2

>  <REMARK>
 VINA RESULT:      -8.8      1.825      2.297
  Name = 
  4 active torsions:
  status: ('A' for Active; 'I' for Inactive)
    1  A    between atoms: C_5  and  C_25
    2  A    between atoms: C_7  and  C_22
    3  A    between atoms: C_11  and  C_18
    4  A    between atoms: C_13  and  C_25
                            x       y       z     vdW  Elec       q    Type
                         _______ _______ _______ _____ _____    ______ ____

>  <TORSDO>
F 4

$$$$
=
 OpenBabel11072411353D

 25 27  0  0  0  0  0  0  0  0999 V2000
  161.1250  205.3470  151.7740 C   0  0  0  0  0  3  0  0  0  0  0  0
  161.5260  207.2000  149.2370 C   0  0  0  0  0  0  0  0  0  0  0  0
  161.5120  207.5470  150.5470 C   0  0  0  0  0  0  0  0  0  0  0  0
  161.4220  205.8270  148.6540 C   0  0  0  0  0  0  0  0  0  0  0  0
  161.6460  208.2340  148.3080 O   0  0  0  0  0  1  0  0  0  0  0  0
  160.9990  204.4530  150.6780 N   0  0  0  0  0  0  0  0  0  0  0  0
  161.1780  204.6800  149.2860 C   0  0  0  0  0  3  0  0  0  0  0  0
  161.3510  206.6480  151.7010 C   0  0  0  0  0  2  0  0  0  0  0  0
  161.8510  204.2040  146.7790 C   0  0  0  0  0  2  0  0  0  0  0  0
  161.8400  204.0860  145.2540 C   0  0  0  0  0  2  0  0  0  0  0  0
  160.5200  205.8870  144.9190 C   0  0  0  0  0  2  0  0  0  0  0  0
  160.3680  206.2260  146.4010 C   0  0  0  0  0  2  0  0  0  0  0  0
  160.5900  204.4910  144.7520 O   0  0  0  0  0  0  0  0  0  0  0  0
  161.5640  205.6560  147.1680 C   0  0  0  0  0  3  0  0  0  0  0  0
  162.2550  209.7650  150.1110 O   0  0  0  0  0  0  0  0  0  0  0  0
  161.6980  208.9730  150.9200 C   0  0  0  0  0  0  0  0  0  0  0  0
  160.0500  210.3830  153.8400 C   0  0  0  0  0  3  0  0  0  0  0  0
  160.0290  210.0650  152.4920 C   0  0  0  0  0  3  0  0  0  0  0  0
  161.2890  209.9690  154.2940 C   0  0  0  0  0  0  0  0  0  0  0  0
  161.2580  209.4850  152.2320 C   0  0  0  0  0  0  0  0  0  0  0  0
  161.9850  209.4400  153.3210 O   0  0  0  0  0  0  0  0  0  0  0  0
  161.0920  209.6480  156.6300 O   0  0  0  0  0  0  0  0  0  0  0  0
  163.0360  210.7280  155.9170 N   0  0  0  0  0  2  0  0  0  0  0  0
  161.7790  210.0960  155.6710 C   0  0  0  0  0  0  0  0  0  0  0  0
  163.5710  210.8820  157.2600 C   0  0  0  0  0  1  0  0  0  0  0  0
  2  3  2  0  0  0  0
  3 16  1  0  0  0  0
  3  8  1  0  0  0  0
  4  2  1  0  0  0  0
  4  7  2  0  0  0  0
  5  2  1  0  0  0  0
  6  1  2  0  0  0  0
  7  6  1  0  0  0  0
  8  1  1  0  0  0  0
  9 14  1  0  0  0  0
 10  9  1  0  0  0  0
 11 12  1  0  0  0  0
 12 14  1  0  0  0  0
 13 11  1  0  0  0  0
 13 10  1  0  0  0  0
 14  4  1  0  0  0  0
 15 16  2  0  0  0  0
 16 20  1  0  0  0  0
 17 19  2  0  0  0  0
 18 17  1  0  0  0  0
 19 24  1  0  0  0  0
 20 18  2  0  0  0  0
 20 21  1  0  0  0  0
 21 19  1  0  0  0  0
 23 25  1  0  0  0  0
 24 23  1  0  0  0  0
 24 22  2  0  0  0  0
M  END
>  <MODEL>
3

>  <REMARK>
 VINA RESULT:      -8.8      1.796      2.132
  Name = 
  4 active torsions:
  status: ('A' for Active; 'I' for Inactive)
    1  A    between atoms: C_5  and  C_25
    2  A    between atoms: C_7  and  C_22
    3  A    between atoms: C_11  and  C_18
    4  A    between atoms: C_13  and  C_25
                            x       y       z     vdW  Elec       q    Type
                         _______ _______ _______ _____ _____    ______ ____

>  <TORSDO>
F 4

$$$$
=
 OpenBabel11072411353D

 25 27  0  0  0  0  0  0  0  0999 V2000
  162.2740  208.5910  150.1840 C   0  0  0  0  0  3  0  0  0  0  0  0
  161.0700  207.6670  152.9640 C   0  0  0  0  0  0  0  0  0  0  0  0
  161.4530  206.9060  151.9110 C   0  0  0  0  0  0  0  0  0  0  0  0
  161.1830  209.1520  153.1080 C   0  0  0  0  0  0  0  0  0  0  0  0
  160.4950  207.0060  154.0500 O   0  0  0  0  0  1  0  0  0  0  0  0
  162.0220  209.8100  150.8660 N   0  0  0  0  0  2  0  0  0  0  0  0
  161.5720  210.0410  152.1950 C   0  0  0  0  0  3  0  0  0  0  0  0
  162.0370  207.3740  150.6430 C   0  0  0  0  0  3  0  0  0  0  0  0
  161.9620  210.5080  155.0800 C   0  0  0  0  0  2  0  0  0  0  0  0
  161.4530  211.2440  156.3190 C   0  0  0  0  0  2  0  0  0  0  0  0
  159.3210  211.4150  155.5930 C   0  0  0  0  0  2  0  0  0  0  0  0
  159.5680  210.6990  154.2660 C   0  0  0  0  0  2  0  0  0  0  0  0
  160.4560  212.1670  155.9510 O   0  0  0  0  0  0  0  0  0  0  0  0
  160.7890  209.7880  154.4110 C   0  0  0  0  0  3  0  0  0  0  0  0
  161.3210  204.8630  153.1240 O   0  0  0  0  0  0  0  0  0  0  0  0
  161.3140  205.4290  151.9960 C   0  0  0  0  0  0  0  0  0  0  0  0
  160.7310  202.9350  149.4140 C   0  0  0  0  0  3  0  0  0  0  0  0
  160.6720  203.3150  150.7440 C   0  0  0  0  0  3  0  0  0  0  0  0
  161.2710  204.0190  148.7470 C   0  0  0  0  0  0  0  0  0  0  0  0
  161.1830  204.6000  150.7830 C   0  0  0  0  0  0  0  0  0  0  0  0
  161.5290  204.9930  149.5820 O   0  0  0  0  0  0  0  0  0  0  0  0
  161.2900  203.0970  146.5690 O   0  0  0  0  0  0  0  0  0  0  0  0
  162.0530  205.2960  146.7430 N   0  0  0  0  0  2  0  0  0  0  0  0
  161.5300  204.0920  147.3060 C   0  0  0  0  0  0  0  0  0  0  0  0
  162.3300  205.4260  145.3220 C   0  0  0  0  0  1  0  0  0  0  0  0
  1  8  2  0  0  0  0
  1  6  1  0  0  0  0
  2  4  1  0  0  0  0
  2  5  1  0  0  0  0
  3 16  1  0  0  0  0
  3  2  2  0  0  0  0
  4 14  1  0  0  0  0
  6  7  1  0  0  0  0
  7  4  2  0  0  0  0
  8  3  1  0  0  0  0
  9 10  1  0  0  0  0
 11 13  1  0  0  0  0
 12 14  1  0  0  0  0
 12 11  1  0  0  0  0
 13 10  1  0  0  0  0
 14  9  1  0  0  0  0
 16 15  2  0  0  0  0
 17 18  1  0  0  0  0
 18 20  2  0  0  0  0
 19 17  2  0  0  0  0
 19 21  1  0  0  0  0
 20 16  1  0  0  0  0
 21 20  1  0  0  0  0
 22 24  2  0  0  0  0
 23 24  1  0  0  0  0
 24 19  1  0  0  0  0
 25 23  1  0  0  0  0
M  END
>  <MODEL>
4

>  <REMARK>
 VINA RESULT:      -8.7      2.307      8.240
  Name = 
  4 active torsions:
  status: ('A' for Active; 'I' for Inactive)
    1  A    between atoms: C_5  and  C_25
    2  A    between atoms: C_7  and  C_22
    3  A    between atoms: C_11  and  C_18
    4  A    between atoms: C_13  and  C_25
                            x       y       z     vdW  Elec       q    Type
                         _______ _______ _______ _____ _____    ______ ____

>  <TORSDO>
F 4

$$$$
=
 OpenBabel11072411353D

 25 27  0  0  0  0  0  0  0  0999 V2000
  162.1490  208.0590  149.1040 C   0  0  0  0  0  3  0  0  0  0  0  0
  161.2480  205.5620  150.8310 C   0  0  0  0  0  0  0  0  0  0  0  0
  161.5560  206.8140  151.2470 C   0  0  0  0  0  0  0  0  0  0  0  0
  161.1890  205.0540  149.4250 C   0  0  0  0  0  0  0  0  0  0  0  0
  160.9530  204.6200  151.8170 O   0  0  0  0  0  1  0  0  0  0  0  0
  162.0110  207.0190  148.1480 N   0  0  0  0  0  0  0  0  0  0  0  0
  161.5370  205.6870  148.3060 C   0  0  0  0  0  3  0  0  0  0  0  0
  161.9440  207.9580  150.4060 C   0  0  0  0  0  2  0  0  0  0  0  0
  161.2500  203.0860  147.8580 C   0  0  0  0  0  2  0  0  0  0  0  0
  160.8530  201.6140  147.7480 C   0  0  0  0  0  2  0  0  0  0  0  0
  160.6590  201.2890  149.9740 C   0  0  0  0  0  2  0  0  0  0  0  0
  161.0320  202.7200  150.3570 C   0  0  0  0  0  2  0  0  0  0  0  0
  161.3840  200.8930  148.8340 O   0  0  0  0  0  0  0  0  0  0  0  0
  160.7220  203.6470  149.1800 C   0  0  0  0  0  3  0  0  0  0  0  0
  161.9320  206.3030  153.5410 O   0  0  0  0  0  0  0  0  0  0  0  0
  161.4910  207.1320  152.6970 C   0  0  0  0  0  0  0  0  0  0  0  0
  160.2030  210.0250  154.4860 C   0  0  0  0  0  3  0  0  0  0  0  0
  160.8070  208.7790  154.5050 C   0  0  0  0  0  3  0  0  0  0  0  0
  159.9820  210.3040  153.1500 C   0  0  0  0  0  0  0  0  0  0  0  0
  160.9030  208.3960  153.1790 C   0  0  0  0  0  0  0  0  0  0  0  0
  160.4060  209.3220  152.3960 O   0  0  0  0  0  0  0  0  0  0  0  0
  158.2010  211.8530  153.0010 O   0  0  0  0  0  0  0  0  0  0  0  0
  160.0700  212.3310  151.6860 N   0  0  0  0  0  2  0  0  0  0  0  0
  159.3580  211.5230  152.6250 C   0  0  0  0  0  0  0  0  0  0  0  0
  159.5010  213.5480  151.1310 C   0  0  0  0  0  1  0  0  0  0  0  0
  1  8  1  0  0  0  0
  2  3  2  0  0  0  0
  2  5  1  0  0  0  0
  3 16  1  0  0  0  0
  4  2  1  0  0  0  0
  6  7  1  0  0  0  0
  6  1  2  0  0  0  0
  7  4  2  0  0  0  0
  8  3  1  0  0  0  0
  9 14  1  0  0  0  0
 10  9  1  0  0  0  0
 10 13  1  0  0  0  0
 11 12  1  0  0  0  0
 13 11  1  0  0  0  0
 14  4  1  0  0  0  0
 14 12  1  0  0  0  0
 16 20  1  0  0  0  0
 16 15  2  0  0  0  0
 17 18  1  0  0  0  0
 19 17  2  0  0  0  0
 20 18  2  0  0  0  0
 21 19  1  0  0  0  0
 21 20  1  0  0  0  0
 23 24  1  0  0  0  0
 24 22  2  0  0  0  0
 24 19  1  0  0  0  0
 25 23  1  0  0  0  0
M  END
>  <MODEL>
5

>  <REMARK>
 VINA RESULT:      -8.5      2.814      3.633
  Name = 
  4 active torsions:
  status: ('A' for Active; 'I' for Inactive)
    1  A    between atoms: C_5  and  C_25
    2  A    between atoms: C_7  and  C_22
    3  A    between atoms: C_11  and  C_18
    4  A    between atoms: C_13  and  C_25
                            x       y       z     vdW  Elec       q    Type
                         _______ _______ _______ _____ _____    ______ ____

>  <TORSDO>
F 4

$$$$
=
 OpenBabel11072411353D

 25 27  0  0  0  0  0  0  0  0999 V2000
  161.2480  207.2420  149.6770 C   0  0  0  0  0  3  0  0  0  0  0  0
  161.1580  205.7130  152.4490 C   0  0  0  0  0  0  0  0  0  0  0  0
  161.1890  205.1970  151.1970 C   0  0  0  0  0  0  0  0  0  0  0  0
  161.2290  207.1530  152.8460 C   0  0  0  0  0  0  0  0  0  0  0  0
  161.0420  204.8090  153.5050 O   0  0  0  0  0  1  0  0  0  0  0  0
  161.1830  208.2850  150.6370 N   0  0  0  0  0  2  0  0  0  0  0  0
  161.2180  208.2260  152.0570 C   0  0  0  0  0  3  0  0  0  0  0  0
  161.2600  205.9440  149.9300 C   0  0  0  0  0  3  0  0  0  0  0  0
  161.4690  209.0040  154.5350 C   0  0  0  0  0  2  0  0  0  0  0  0
  161.3720  209.2960  156.0320 C   0  0  0  0  0  2  0  0  0  0  0  0
  160.1360  207.4690  156.5160 C   0  0  0  0  0  2  0  0  0  0  0  0
  160.0810  206.9530  155.0790 C   0  0  0  0  0  2  0  0  0  0  0  0
  160.1210  208.8770  156.5210 O   0  0  0  0  0  0  0  0  0  0  0  0
  161.2830  207.5020  154.3070 C   0  0  0  0  0  3  0  0  0  0  0  0
  161.2590  202.9690  152.0310 O   0  0  0  0  0  0  0  0  0  0  0  0
  161.1740  203.7210  151.0210 C   0  0  0  0  0  0  0  0  0  0  0  0
  160.8300  201.6520  148.0490 C   0  0  0  0  0  3  0  0  0  0  0  0
  160.8480  201.7690  149.4300 C   0  0  0  0  0  3  0  0  0  0  0  0
  161.0500  202.9300  147.5710 C   0  0  0  0  0  0  0  0  0  0  0  0
  161.0800  203.1100  149.6820 C   0  0  0  0  0  0  0  0  0  0  0  0
  161.1940  203.7750  148.5590 O   0  0  0  0  0  0  0  0  0  0  0  0
  160.8440  202.4670  145.2600 O   0  0  0  0  0  0  0  0  0  0  0  0
  161.4960  204.6420  145.8020 N   0  0  0  0  0  2  0  0  0  0  0  0
  161.1180  203.3110  146.1570 C   0  0  0  0  0  0  0  0  0  0  0  0
  161.5810  205.0760  144.4170 C   0  0  0  0  0  1  0  0  0  0  0  0
  1  8  2  0  0  0  0
  1  6  1  0  0  0  0
  2  4  1  0  0  0  0
  2  5  1  0  0  0  0
  3  2  2  0  0  0  0
  4 14  1  0  0  0  0
  6  7  1  0  0  0  0
  7  4  2  0  0  0  0
  8  3  1  0  0  0  0
  9 10  1  0  0  0  0
 10 13  1  0  0  0  0
 11 13  1  0  0  0  0
 12 11  1  0  0  0  0
 14  9  1  0  0  0  0
 14 12  1  0  0  0  0
 16  3  1  0  0  0  0
 16 15  2  0  0  0  0
 17 18  1  0  0  0  0
 18 20  2  0  0  0  0
 19 17  2  0  0  0  0
 19 21  1  0  0  0  0
 20 16  1  0  0  0  0
 21 20  1  0  0  0  0
 22 24  2  0  0  0  0
 23 24  1  0  0  0  0
 24 19  1  0  0  0  0
 25 23  1  0  0  0  0
M  END
>  <MODEL>
6

>  <REMARK>
 VINA RESULT:      -8.5      2.488      8.416
  Name = 
  4 active torsions:
  status: ('A' for Active; 'I' for Inactive)
    1  A    between atoms: C_5  and  C_25
    2  A    between atoms: C_7  and  C_22
    3  A    between atoms: C_11  and  C_18
    4  A    between atoms: C_13  and  C_25
                            x       y       z     vdW  Elec       q    Type
                         _______ _______ _______ _____ _____    ______ ____

>  <TORSDO>
F 4

$$$$
=
 OpenBabel11072411353D

 25 27  0  0  0  0  0  0  0  0999 V2000
  161.1600  204.6060  151.7610 C   0  0  0  0  0  3  0  0  0  0  0  0
  161.3940  207.6930  151.0970 C   0  0  0  0  0  0  0  0  0  0  0  0
  161.3600  206.6430  150.2420 C   0  0  0  0  0  0  0  0  0  0  0  0
  161.2600  207.6650  152.5870 C   0  0  0  0  0  0  0  0  0  0  0  0
  161.5800  208.9590  150.5400 O   0  0  0  0  0  1  0  0  0  0  0  0
  161.1950  205.2250  153.0380 N   0  0  0  0  0  2  0  0  0  0  0  0
  161.1970  206.6030  153.3880 C   0  0  0  0  0  3  0  0  0  0  0  0
  161.2210  205.2200  150.5910 C   0  0  0  0  0  3  0  0  0  0  0  0
  160.0830  209.8720  152.8650 C   0  0  0  0  0  2  0  0  0  0  0  0
  160.0220  211.1060  153.7660 C   0  0  0  0  0  2  0  0  0  0  0  0
  161.0120  210.1150  155.5370 C   0  0  0  0  0  2  0  0  0  0  0  0
  161.1950  208.7600  154.8540 C   0  0  0  0  0  2  0  0  0  0  0  0
  159.8150  210.7140  155.1010 O   0  0  0  0  0  0  0  0  0  0  0  0
  161.2220  208.9670  153.3370 C   0  0  0  0  0  3  0  0  0  0  0  0
  161.2780  208.0640  148.3360 O   0  0  0  0  0  0  0  0  0  0  0  0
  161.4450  206.8950  148.7810 C   0  0  0  0  0  0  0  0  0  0  0  0
  162.5530  204.5960  146.1890 C   0  0  0  0  0  3  0  0  0  0  0  0
  162.6530  205.8250  146.8200 C   0  0  0  0  0  3  0  0  0  0  0  0
  161.5540  203.9190  146.8640 C   0  0  0  0  0  0  0  0  0  0  0  0
  161.7050  205.8000  147.8280 C   0  0  0  0  0  0  0  0  0  0  0  0
  161.0690  204.6540  147.8310 O   0  0  0  0  0  0  0  0  0  0  0  0
  161.1460  201.6600  147.4360 O   0  0  0  0  0  0  0  0  0  0  0  0
  160.5600  202.2750  145.2610 N   0  0  0  0  0  2  0  0  0  0  0  0
  161.0850  202.5640  146.5580 C   0  0  0  0  0  0  0  0  0  0  0  0
  160.0820  200.9500  144.9010 C   0  0  0  0  0  1  0  0  0  0  0  0
  1  6  1  0  0  0  0
  2  4  1  0  0  0  0
  3  8  1  0  0  0  0
  3  2  2  0  0  0  0
  4 14  1  0  0  0  0
  4  7  2  0  0  0  0
  5  2  1  0  0  0  0
  6  7  1  0  0  0  0
  8  1  2  0  0  0  0
  9 14  1  0  0  0  0
  9 10  1  0  0  0  0
 10 13  1  0  0  0  0
 12 11  1  0  0  0  0
 13 11  1  0  0  0  0
 14 12  1  0  0  0  0
 15 16  2  0  0  0  0
 16  3  1  0  0  0  0
 17 18  1  0  0  0  0
 17 19  2  0  0  0  0
 18 20  2  0  0  0  0
 19 21  1  0  0  0  0
 20 21  1  0  0  0  0
 20 16  1  0  0  0  0
 23 24  1  0  0  0  0
 24 19  1  0  0  0  0
 24 22  2  0  0  0  0
 25 23  1  0  0  0  0
M  END
>  <MODEL>
7

>  <REMARK>
 VINA RESULT:      -8.4      2.198      8.295
  Name = 
  4 active torsions:
  status: ('A' for Active; 'I' for Inactive)
    1  A    between atoms: C_5  and  C_25
    2  A    between atoms: C_7  and  C_22
    3  A    between atoms: C_11  and  C_18
    4  A    between atoms: C_13  and  C_25
                            x       y       z     vdW  Elec       q    Type
                         _______ _______ _______ _____ _____    ______ ____

>  <TORSDO>
F 4

$$$$
=
 OpenBabel11072411353D

 25 27  0  0  0  0  0  0  0  0999 V2000
  160.6920  207.2490  154.9990 C   0  0  0  0  0  3  0  0  0  0  0  0
  160.6710  209.7100  153.0070 C   0  0  0  0  0  0  0  0  0  0  0  0
  161.1460  208.4580  152.8020 C   0  0  0  0  0  0  0  0  0  0  0  0
  159.9670  210.2350  154.2180 C   0  0  0  0  0  0  0  0  0  0  0  0
  160.8570  210.6360  151.9790 O   0  0  0  0  0  1  0  0  0  0  0  0
  160.1210  208.2990  155.7650 N   0  0  0  0  0  2  0  0  0  0  0  0
  159.7640  209.6220  155.3830 C   0  0  0  0  0  3  0  0  0  0  0  0
  161.1100  207.3300  153.7470 C   0  0  0  0  0  3  0  0  0  0  0  0
  157.9260  211.6740  153.9100 C   0  0  0  0  0  2  0  0  0  0  0  0
  157.4290  213.1140  154.0440 C   0  0  0  0  0  2  0  0  0  0  0  0
  159.0880  213.7750  155.4260 C   0  0  0  0  0  2  0  0  0  0  0  0
  159.7880  212.4180  155.4620 C   0  0  0  0  0  2  0  0  0  0  0  0
  157.6940  213.5940  155.3390 O   0  0  0  0  0  0  0  0  0  0  0  0
  159.4280  211.6380  154.1950 C   0  0  0  0  0  3  0  0  0  0  0  0
  162.6560  208.8660  151.0090 O   0  0  0  0  0  0  0  0  0  0  0  0
  161.7590  208.1210  151.4910 C   0  0  0  0  0  0  0  0  0  0  0  0
  160.5360  205.6360  149.1340 C   0  0  0  0  0  3  0  0  0  0  0  0
  160.7730  206.9620  149.4590 C   0  0  0  0  0  3  0  0  0  0  0  0
  160.9670  204.9090  150.2280 C   0  0  0  0  0  0  0  0  0  0  0  0
  161.3290  206.9370  150.7260 C   0  0  0  0  0  0  0  0  0  0  0  0
  161.4330  205.7040  151.1570 O   0  0  0  0  0  0  0  0  0  0  0  0
  160.9290  202.9120  151.4960 O   0  0  0  0  0  0  0  0  0  0  0  0
  160.8620  202.6400  149.1780 N   0  0  0  0  0  2  0  0  0  0  0  0
  160.9190  203.4490  150.3540 C   0  0  0  0  0  0  0  0  0  0  0  0
  160.8140  201.1890  149.2430 C   0  0  0  0  0  1  0  0  0  0  0  0
  1  6  1  0  0  0  0
  2  4  1  0  0  0  0
  3  2  2  0  0  0  0
  3  8  1  0  0  0  0
  4  7  2  0  0  0  0
  5  2  1  0  0  0  0
  7  6  1  0  0  0  0
  8  1  2  0  0  0  0
  9 10  1  0  0  0  0
  9 14  1  0  0  0  0
 10 13  1  0  0  0  0
 11 12  1  0  0  0  0
 13 11  1  0  0  0  0
 14  4  1  0  0  0  0
 14 12  1  0  0  0  0
 15 16  2  0  0  0  0
 16  3  1  0  0  0  0
 17 18  1  0  0  0  0
 17 19  2  0  0  0  0
 18 20  2  0  0  0  0
 19 24  1  0  0  0  0
 19 21  1  0  0  0  0
 20 21  1  0  0  0  0
 20 16  1  0  0  0  0
 23 25  1  0  0  0  0
 23 24  1  0  0  0  0
 24 22  2  0  0  0  0
M  END
>  <MODEL>
8

>  <REMARK>
 VINA RESULT:      -8.3      2.517      8.168
  Name = 
  4 active torsions:
  status: ('A' for Active; 'I' for Inactive)
    1  A    between atoms: C_5  and  C_25
    2  A    between atoms: C_7  and  C_22
    3  A    between atoms: C_11  and  C_18
    4  A    between atoms: C_13  and  C_25
                            x       y       z     vdW  Elec       q    Type
                         _______ _______ _______ _____ _____    ______ ____

>  <TORSDO>
F 4

$$$$
=
 OpenBabel11072411353D

 25 27  0  0  0  0  0  0  0  0999 V2000
  162.1140  209.1200  150.0320 C   0  0  0  0  0  3  0  0  0  0  0  0
  161.3260  206.0660  149.7490 C   0  0  0  0  0  0  0  0  0  0  0  0
  161.4510  206.8080  150.8750 C   0  0  0  0  0  0  0  0  0  0  0  0
  161.4660  206.5240  148.3310 C   0  0  0  0  0  0  0  0  0  0  0  0
  161.0400  204.7100  149.9110 O   0  0  0  0  0  1  0  0  0  0  0  0
  162.1890  208.8790  148.6350 N   0  0  0  0  0  0  0  0  0  0  0  0
  161.8530  207.7180  147.8860 C   0  0  0  0  0  3  0  0  0  0  0  0
  161.7920  208.2370  150.9630 C   0  0  0  0  0  2  0  0  0  0  0  0
  160.4550  206.2070  146.0490 C   0  0  0  0  0  2  0  0  0  0  0  0
  160.3320  205.1950  144.9090 C   0  0  0  0  0  2  0  0  0  0  0  0
  162.1030  203.9500  145.5510 C   0  0  0  0  0  2  0  0  0  0  0  0
  162.4440  204.8080  146.7680 C   0  0  0  0  0  2  0  0  0  0  0  0
  161.6110  204.7630  144.5130 O   0  0  0  0  0  0  0  0  0  0  0  0
  161.1840  205.5500  147.2220 C   0  0  0  0  0  3  0  0  0  0  0  0
  161.2110  204.9120  152.2920 O   0  0  0  0  0  0  0  0  0  0  0  0
  161.2050  206.1700  152.1940 C   0  0  0  0  0  0  0  0  0  0  0  0
  160.5520  207.5830  155.4820 C   0  0  0  0  0  3  0  0  0  0  0  0
  160.7730  206.4770  154.6780 C   0  0  0  0  0  3  0  0  0  0  0  0
  160.6000  208.6700  154.6290 C   0  0  0  0  0  0  0  0  0  0  0  0
  160.9360  206.9780  153.3980 C   0  0  0  0  0  0  0  0  0  0  0  0
  160.8300  208.2840  153.4000 O   0  0  0  0  0  0  0  0  0  0  0  0
  160.9090  210.4910  156.1070 O   0  0  0  0  0  0  0  0  0  0  0  0
  159.6900  210.9550  154.1710 N   0  0  0  0  0  2  0  0  0  0  0  0
  160.4210  210.0710  155.0220 C   0  0  0  0  0  0  0  0  0  0  0  0
  159.4800  212.3530  154.5090 C   0  0  0  0  0  1  0  0  0  0  0  0
  1  8  1  0  0  0  0
  2  5  1  0  0  0  0
  2  3  2  0  0  0  0
  3  8  1  0  0  0  0
  3 16  1  0  0  0  0
  4  2  1  0  0  0  0
  6  1  2  0  0  0  0
  7  4  2  0  0  0  0
  7  6  1  0  0  0  0
  9 14  1  0  0  0  0
 10  9  1  0  0  0  0
 11 12  1  0  0  0  0
 12 14  1  0  0  0  0
 13 10  1  0  0  0  0
 13 11  1  0  0  0  0
 14  4  1  0  0  0  0
 16 15  2  0  0  0  0
 16 20  1  0  0  0  0
 18 17  1  0  0  0  0
 19 24  1  0  0  0  0
 19 17  2  0  0  0  0
 20 21  1  0  0  0  0
 20 18  2  0  0  0  0
 21 19  1  0  0  0  0
 23 25  1  0  0  0  0
 23 24  1  0  0  0  0
 24 22  2  0  0  0  0
M  END
>  <MODEL>
9

>  <REMARK>
 VINA RESULT:      -8.2      1.935      2.555
  Name = 
  4 active torsions:
  status: ('A' for Active; 'I' for Inactive)
    1  A    between atoms: C_5  and  C_25
    2  A    between atoms: C_7  and  C_22
    3  A    between atoms: C_11  and  C_18
    4  A    between atoms: C_13  and  C_25
                            x       y       z     vdW  Elec       q    Type
                         _______ _______ _______ _____ _____    ______ ____

>  <TORSDO>
F 4

$$$$
