=
 OpenBabel11072410593D

 42 45  0  0  1  0  0  0  0  0999 V2000
  161.4700  203.4640  149.5130 C   0  0  2  0  0  3  0  0  0  0  0  0
  160.4640  204.7960  150.2730 S   0  0  0  0  0  0  0  0  0  0  0  0
  161.0570  203.1340  148.2030 O   0  0  0  0  0  0  0  0  0  0  0  0
  162.5970  206.0470  148.2150 C   0  0  0  0  0  0  0  0  0  0  0  0
  160.1460  207.7500  150.7480 C   0  0  0  0  0  1  0  0  0  0  0  0
  160.8750  203.8500  145.9500 C   0  0  0  0  0  2  0  0  0  0  0  0
  161.9180  205.9030  150.5670 C   0  0  2  0  0  3  0  0  0  0  0  0
  162.8110  205.2710  145.9520 O   0  0  0  0  0  0  0  0  0  0  0  0
  161.1470  204.2630  147.3560 C   0  0  2  0  0  3  0  0  0  0  0  0
  162.5400  204.8760  147.2770 C   0  0  2  0  0  3  0  0  0  0  0  0
  162.1190  208.4910  148.6880 C   0  0  0  0  0  2  0  0  0  0  0  0
  161.8380  204.6770  145.1240 C   0  0  2  0  0  3  0  0  0  0  0  0
  161.6150  207.3770  150.9860 C   0  0  1  0  0  0  0  0  0  0  0  0
  162.9050  205.7860  149.5450 O   0  0  0  0  0  0  0  0  0  0  0  0
  162.5290  208.3390  150.1610 C   0  0  2  0  0  3  0  0  0  0  0  0
  162.2230  207.2660  147.8170 C   0  0  0  0  0  3  0  0  0  0  0  0
  162.5930  209.6150  150.7240 O   0  0  0  0  0  1  0  0  0  0  0  0
  160.8790  205.9770  154.0480 C   0  0  0  0  0  2  0  0  0  0  0  0
  162.1040  206.1310  153.1770 C   0  0  0  0  0  2  0  0  0  0  0  0
  160.8950  208.2120  153.3360 C   0  0  0  0  0  2  0  0  0  0  0  0
  160.3480  207.3040  154.3380 N   0  0  0  0  0  0  0  0  0  0  0  0
  161.9470  207.4790  152.5040 C   0  0  2  0  0  3  0  0  0  0  0  0
  160.8810  207.7340  155.6260 C   0  0  0  0  0  2  0  0  0  0  0  0
  160.8550  209.2560  155.7420 C   0  0  2  0  0  3  0  0  0  0  0  0
  162.7180  209.3720  157.2500 O   0  0  0  0  0  1  0  0  0  0  0  0
  162.7820  210.8140  155.4730 O   0  0  0  0  0  0  0  0  0  0  0  0
  162.1720  209.8000  156.1990 C   0  0  0  0  0  0  0  0  0  0  0  0
  159.6880  209.7610  156.6010 C   0  0  0  0  0  2  0  0  0  0  0  0
  157.9870  211.4330  156.5900 O   0  0  0  0  0  0  0  0  0  0  0  0
  159.2750  211.3110  154.6420 N   0  0  0  0  0  2  0  0  0  0  0  0
  158.9340  210.8860  155.9640 C   0  0  0  0  0  0  0  0  0  0  0  0
  158.5890  212.4050  153.9680 C   0  0  0  0  0  2  0  0  0  0  0  0
  160.1970  211.6240  152.2600 C   0  0  0  0  0  1  0  0  0  0  0  0
  159.1000  213.7190  152.0450 O   0  0  0  0  0  1  0  0  0  0  0  0
  158.9200  212.4060  152.4850 C   0  0  2  0  0  3  0  0  0  0  0  0
  160.1250  206.4990  144.9920 O   0  0  0  0  0  1  0  0  0  0  0  0
  161.3760  205.9370  143.1560 O   0  0  0  0  0  0  0  0  0  0  0  0
  161.1030  205.7330  144.3670 C   0  0  0  0  0  0  0  0  0  0  0  0
  161.4430  202.2330  150.4010 C   0  0  0  0  0  2  0  0  0  0  0  0
  159.5830  200.8430  149.8720 O   0  0  0  0  0  1  0  0  0  0  0  0
  161.5410  200.3250  148.7960 O   0  0  0  0  0  0  0  0  0  0  0  0
  160.8010  201.0950  149.6850 C   0  0  0  0  0  0  0  0  0  0  0  0
  1  2  1  0  0  0  0
  1 39  1  1  0  0  0
  2  7  1  0  0  0  0
  3  1  1  0  0  0  0
  4 14  1  0  0  0  0
  7 14  1  6  0  0  0
  7 13  1  0  0  0  0
  9  6  1  6  0  0  0
  9  3  1  0  0  0  0
 10  8  1  6  0  0  0
 10  9  1  0  0  0  0
 10  4  1  0  0  0  0
 11 15  1  0  0  0  0
 12 38  1  1  0  0  0
 12  6  1  0  0  0  0
 12  8  1  0  0  0  0
 13  5  1  6  0  0  0
 13 22  1  0  0  0  0
 15 17  1  1  0  0  0
 15 13  1  0  0  0  0
 16  4  2  0  0  0  0
 16 11  1  0  0  0  0
 18 21  1  0  0  0  0
 19 18  1  0  0  0  0
 20 21  1  0  0  0  0
 21 23  1  0  0  0  0
 22 19  1  1  0  0  0
 22 20  1  0  0  0  0
 24 23  1  1  0  0  0
 24 27  1  0  0  0  0
 24 28  1  0  0  0  0
 26 27  2  0  0  0  0
 27 25  1  0  0  0  0
 30 31  1  0  0  0  0
 31 29  2  0  0  0  0
 31 28  1  0  0  0  0
 32 30  1  0  0  0  0
 34 35  1  0  0  0  0
 35 33  1  1  0  0  0
 35 32  1  0  0  0  0
 37 38  2  0  0  0  0
 38 36  1  0  0  0  0
 41 42  2  0  0  0  0
 42 40  1  0  0  0  0
 42 39  1  0  0  0  0
M  END
>  <MODEL>
1

>  <REMARK>
 VINA RESULT:      -5.0      0.000      0.000
  Name = 
  11 active torsions:
  status: ('A' for Active; 'I' for Inactive)
    1  A    between atoms: C_3  and  N_18
    2  A    between atoms: C_3  and  C_40
    3  A    between atoms: C_4  and  C_13
    4  A    between atoms: C_13  and  C_33
    5  A    between atoms: N_14  and  C_32
    6  A    between atoms: C_20  and  C_30
    7  A    between atoms: C_20  and  C_38
    8  A    between atoms: C_24  and  C_38
    9  A    between atoms: C_25  and  C_34
   10  A    between atoms: C_32  and  C_38
   11  A    between atoms: C_35  and  C_39
                            x       y       z     vdW  Elec       q    Type
                         _______ _______ _______ _____ _____    ______ ____

>  <TORSDO>
F 11

$$$$
=
 OpenBabel11072410593D

 42 45  0  0  1  0  0  0  0  0999 V2000
  162.0010  210.5320  150.1710 C   0  0  2  0  0  3  0  0  0  0  0  0
  160.9380  209.1390  149.6320 S   0  0  0  0  0  0  0  0  0  0  0  0
  161.3230  211.4650  150.9890 O   0  0  0  0  0  0  0  0  0  0  0  0
  161.9100  208.6900  152.6650 C   0  0  0  0  0  0  0  0  0  0  0  0
  159.9600  206.3520  150.2040 C   0  0  0  0  0  1  0  0  0  0  0  0
  160.2780  211.8660  153.0790 C   0  0  0  0  0  2  0  0  0  0  0  0
  162.0400  207.8450  150.3660 C   0  0  2  0  0  3  0  0  0  0  0  0
  161.6420  210.3650  154.3650 O   0  0  0  0  0  0  0  0  0  0  0  0
  160.8330  210.8350  152.1570 C   0  0  2  0  0  3  0  0  0  0  0  0
  161.9060  210.1530  152.9980 C   0  0  2  0  0  3  0  0  0  0  0  0
  160.9290  206.3750  152.9870 C   0  0  0  0  0  2  0  0  0  0  0  0
  160.6740  211.3850  154.4590 C   0  0  2  0  0  3  0  0  0  0  0  0
  161.4750  206.3920  150.4430 C   0  0  1  0  0  0  0  0  0  0  0  0
  162.6640  208.2840  151.5710 O   0  0  0  0  0  0  0  0  0  0  0  0
  161.7880  205.7970  151.8530 C   0  0  2  0  0  3  0  0  0  0  0  0
  161.1060  207.8360  153.3060 C   0  0  0  0  0  3  0  0  0  0  0  0
  161.6570  204.4070  151.8780 O   0  0  0  0  0  1  0  0  0  0  0  0
  162.2740  206.4400  147.0910 C   0  0  0  0  0  2  0  0  0  0  0  0
  163.0280  206.4400  148.3990 C   0  0  0  0  0  2  0  0  0  0  0  0
  161.2780  204.7810  148.4160 C   0  0  0  0  0  2  0  0  0  0  0  0
  161.4280  205.2520  147.0440 N   0  0  0  0  0  0  0  0  0  0  0  0
  162.2050  205.5780  149.3340 C   0  0  2  0  0  3  0  0  0  0  0  0
  162.1490  204.2110  146.3210 C   0  0  0  0  0  2  0  0  0  0  0  0
  161.4420  203.8720  145.0110 C   0  0  2  0  0  3  0  0  0  0  0  0
  161.5610  205.5130  143.2650 O   0  0  0  0  0  0  0  0  0  0  0  0
  159.8970  205.8170  144.8080 O   0  0  0  0  0  1  0  0  0  0  0  0
  160.9720  205.1020  144.3000 C   0  0  0  0  0  0  0  0  0  0  0  0
  160.3190  202.8430  145.1980 C   0  0  0  0  0  2  0  0  0  0  0  0
  160.9150  200.5480  145.4640 O   0  0  0  0  0  0  0  0  0  0  0  0
  160.8900  201.8050  147.4350 N   0  0  0  0  0  2  0  0  0  0  0  0
  160.7340  201.6640  146.0210 C   0  0  0  0  0  0  0  0  0  0  0  0
  161.3000  200.7030  148.2940 C   0  0  0  0  0  2  0  0  0  0  0  0
  159.4090  201.6690  149.5610 C   0  0  0  0  0  1  0  0  0  0  0  0
  161.5650  201.4700  150.5360 O   0  0  0  0  0  1  0  0  0  0  0  0
  160.6700  200.8380  149.6700 C   0  0  2  0  0  3  0  0  0  0  0  0
  158.1960  211.1700  154.7490 O   0  0  0  0  0  0  0  0  0  0  0  0
  159.6350  210.1850  156.2360 O   0  0  0  0  0  1  0  0  0  0  0  0
  159.4790  210.8820  155.1990 C   0  0  0  0  0  0  0  0  0  0  0  0
  162.5910  211.2270  148.9570 C   0  0  0  0  0  2  0  0  0  0  0  0
  160.8370  211.9020  147.4940 O   0  0  0  0  0  0  0  0  0  0  0  0
  161.5890  213.5120  148.9430 O   0  0  0  0  0  1  0  0  0  0  0  0
  161.6280  212.2270  148.4160 C   0  0  0  0  0  0  0  0  0  0  0  0
  1 39  1  6  0  0  0
  1  3  1  0  0  0  0
  2  1  1  0  0  0  0
  3  9  1  0  0  0  0
  4 16  2  0  0  0  0
  6 12  1  0  0  0  0
  7  2  1  1  0  0  0
  7 13  1  0  0  0  0
  7 14  1  0  0  0  0
  8 12  1  0  0  0  0
  9 10  1  0  0  0  0
  9  6  1  1  0  0  0
 10  4  1  1  0  0  0
 10  8  1  0  0  0  0
 11 16  1  0  0  0  0
 12 38  1  6  0  0  0
 13  5  1  6  0  0  0
 13 15  1  0  0  0  0
 14  4  1  0  0  0  0
 15 17  1  6  0  0  0
 15 11  1  0  0  0  0
 18 19  1  0  0  0  0
 20 22  1  0  0  0  0
 21 18  1  0  0  0  0
 21 20  1  0  0  0  0
 22 19  1  6  0  0  0
 22 13  1  0  0  0  0
 23 21  1  0  0  0  0
 24 28  1  1  0  0  0
 24 23  1  0  0  0  0
 25 27  2  0  0  0  0
 27 26  1  0  0  0  0
 27 24  1  0  0  0  0
 28 31  1  0  0  0  0
 29 31  2  0  0  0  0
 30 32  1  0  0  0  0
 31 30  1  0  0  0  0
 32 35  1  0  0  0  0
 35 33  1  6  0  0  0
 35 34  1  0  0  0  0
 36 38  2  0  0  0  0
 38 37  1  0  0  0  0
 40 42  2  0  0  0  0
 42 41  1  0  0  0  0
 42 39  1  0  0  0  0
M  END
>  <MODEL>
2

>  <REMARK>
 VINA RESULT:      -4.6      2.678      9.802
  Name = 
  11 active torsions:
  status: ('A' for Active; 'I' for Inactive)
    1  A    between atoms: C_3  and  N_18
    2  A    between atoms: C_3  and  C_40
    3  A    between atoms: C_4  and  C_13
    4  A    between atoms: C_13  and  C_33
    5  A    between atoms: N_14  and  C_32
    6  A    between atoms: C_20  and  C_30
    7  A    between atoms: C_20  and  C_38
    8  A    between atoms: C_24  and  C_38
    9  A    between atoms: C_25  and  C_34
   10  A    between atoms: C_32  and  C_38
   11  A    between atoms: C_35  and  C_39
                            x       y       z     vdW  Elec       q    Type
                         _______ _______ _______ _____ _____    ______ ____

>  <TORSDO>
F 11

$$$$
=
 OpenBabel11072410593D

 42 45  0  0  1  0  0  0  0  0999 V2000
  161.4550  203.5300  149.5550 C   0  0  2  0  0  3  0  0  0  0  0  0
  160.4550  204.8730  150.3020 S   0  0  0  0  0  0  0  0  0  0  0  0
  161.0410  203.1910  148.2460 O   0  0  0  0  0  0  0  0  0  0  0  0
  162.5950  206.0950  148.2350 C   0  0  0  0  0  0  0  0  0  0  0  0
  160.1520  207.8320  150.7510 C   0  0  0  0  0  1  0  0  0  0  0  0
  160.8640  203.8880  145.9870 C   0  0  0  0  0  2  0  0  0  0  0  0
  161.9140  205.9760  150.5880 C   0  0  2  0  0  3  0  0  0  0  0  0
  162.8070  205.2990  145.9790 O   0  0  0  0  0  0  0  0  0  0  0  0
  161.1380  204.3110  147.3900 C   0  0  2  0  0  3  0  0  0  0  0  0
  162.5340  204.9170  147.3070 C   0  0  2  0  0  3  0  0  0  0  0  0
  162.1290  208.5460  148.6870 C   0  0  0  0  0  2  0  0  0  0  0  0
  161.8320  204.7020  145.1550 C   0  0  2  0  0  3  0  0  0  0  0  0
  161.6190  207.4540  150.9940 C   0  0  1  0  0  0  0  0  0  0  0  0
  162.9020  205.8450  149.5670 O   0  0  0  0  0  0  0  0  0  0  0  0
  162.5380  208.4050  150.1610 C   0  0  2  0  0  3  0  0  0  0  0  0
  162.2280  207.3130  147.8260 C   0  0  0  0  0  3  0  0  0  0  0  0
  162.6080  209.6850  150.7130 O   0  0  0  0  0  1  0  0  0  0  0  0
  160.7270  206.2280  154.0880 C   0  0  0  0  0  2  0  0  0  0  0  0
  161.9660  206.2320  153.2240 C   0  0  0  0  0  2  0  0  0  0  0  0
  160.9720  208.4280  153.3120 C   0  0  0  0  0  2  0  0  0  0  0  0
  160.3300  207.6100  154.3350 N   0  0  0  0  0  0  0  0  0  0  0  0
  161.9500  207.5680  152.5110 C   0  0  2  0  0  3  0  0  0  0  0  0
  160.8960  208.0220  155.6140 C   0  0  0  0  0  2  0  0  0  0  0  0
  160.7830  209.5340  155.7950 C   0  0  2  0  0  3  0  0  0  0  0  0
  162.7190  209.3020  157.1940 O   0  0  0  0  0  1  0  0  0  0  0  0
  161.7840  211.3910  157.1230 O   0  0  0  0  0  0  0  0  0  0  0  0
  161.8250  210.0600  156.7310 C   0  0  0  0  0  0  0  0  0  0  0  0
  159.3680  209.9750  156.1910 C   0  0  0  0  0  2  0  0  0  0  0  0
  159.1100  211.1920  154.1560 O   0  0  0  0  0  0  0  0  0  0  0  0
  158.1540  212.1910  156.0410 N   0  0  0  0  0  2  0  0  0  0  0  0
  158.8700  211.1380  155.3920 C   0  0  0  0  0  0  0  0  0  0  0  0
  157.6330  213.3460  155.3220 C   0  0  0  0  0  2  0  0  0  0  0  0
  155.5930  213.0010  156.6750 C   0  0  0  0  0  1  0  0  0  0  0  0
  155.6890  212.3190  154.4030 O   0  0  0  0  0  1  0  0  0  0  0  0
  156.1150  213.3110  155.2880 C   0  0  2  0  0  3  0  0  0  0  0  0
  161.3690  205.9600  143.0400 O   0  0  0  0  0  0  0  0  0  0  0  0
  160.2350  206.4600  144.9670 O   0  0  0  0  0  1  0  0  0  0  0  0
  161.1030  205.7560  144.3890 C   0  0  0  0  0  0  0  0  0  0  0  0
  161.4220  202.3060  150.4530 C   0  0  0  0  0  2  0  0  0  0  0  0
  159.5800  200.9080  149.8830 O   0  0  0  0  0  1  0  0  0  0  0  0
  161.5740  200.3710  148.8850 O   0  0  0  0  0  0  0  0  0  0  0  0
  160.8040  201.1560  149.7350 C   0  0  0  0  0  0  0  0  0  0  0  0
  1  2  1  0  0  0  0
  1 39  1  1  0  0  0
  2  7  1  0  0  0  0
  3  1  1  0  0  0  0
  4 14  1  0  0  0  0
  7 14  1  6  0  0  0
  7 13  1  0  0  0  0
  9  6  1  6  0  0  0
  9  3  1  0  0  0  0
 10  8  1  6  0  0  0
 10  9  1  0  0  0  0
 10  4  1  0  0  0  0
 11 15  1  0  0  0  0
 12 38  1  1  0  0  0
 12  8  1  0  0  0  0
 12  6  1  0  0  0  0
 13  5  1  6  0  0  0
 13 22  1  0  0  0  0
 15 17  1  1  0  0  0
 15 13  1  0  0  0  0
 16  4  2  0  0  0  0
 16 11  1  0  0  0  0
 18 21  1  0  0  0  0
 19 18  1  0  0  0  0
 20 21  1  0  0  0  0
 21 23  1  0  0  0  0
 22 19  1  1  0  0  0
 22 20  1  0  0  0  0
 24 23  1  1  0  0  0
 24 28  1  0  0  0  0
 24 27  1  0  0  0  0
 27 26  2  0  0  0  0
 27 25  1  0  0  0  0
 29 31  2  0  0  0  0
 31 30  1  0  0  0  0
 31 28  1  0  0  0  0
 32 30  1  0  0  0  0
 34 35  1  0  0  0  0
 35 32  1  0  0  0  0
 35 33  1  1  0  0  0
 36 38  2  0  0  0  0
 38 37  1  0  0  0  0
 41 42  2  0  0  0  0
 42 40  1  0  0  0  0
 42 39  1  0  0  0  0
M  END
>  <MODEL>
3

>  <REMARK>
 VINA RESULT:      -4.6      1.158      1.614
  Name = 
  11 active torsions:
  status: ('A' for Active; 'I' for Inactive)
    1  A    between atoms: C_3  and  N_18
    2  A    between atoms: C_3  and  C_40
    3  A    between atoms: C_4  and  C_13
    4  A    between atoms: C_13  and  C_33
    5  A    between atoms: N_14  and  C_32
    6  A    between atoms: C_20  and  C_30
    7  A    between atoms: C_20  and  C_38
    8  A    between atoms: C_24  and  C_38
    9  A    between atoms: C_25  and  C_34
   10  A    between atoms: C_32  and  C_38
   11  A    between atoms: C_35  and  C_39
                            x       y       z     vdW  Elec       q    Type
                         _______ _______ _______ _____ _____    ______ ____

>  <TORSDO>
F 11

$$$$
=
 OpenBabel11072410593D

 42 45  0  0  1  0  0  0  0  0999 V2000
  161.8830  208.2870  149.2240 C   0  0  2  0  0  3  0  0  0  0  0  0
  162.8470  207.3620  150.4790 S   0  0  0  0  0  0  0  0  0  0  0  0
  162.2880  208.0120  147.8980 O   0  0  0  0  0  0  0  0  0  0  0  0
  160.6350  205.4480  149.1420 C   0  0  0  0  0  0  0  0  0  0  0  0
  163.0560  204.8780  152.1640 C   0  0  0  0  0  1  0  0  0  0  0  0
  162.4060  206.4010  146.1620 C   0  0  0  0  0  2  0  0  0  0  0  0
  161.3560  206.5470  151.2120 C   0  0  2  0  0  3  0  0  0  0  0  0
  160.4160  205.1990  146.7630 O   0  0  0  0  0  0  0  0  0  0  0  0
  162.1400  206.6360  147.6100 C   0  0  2  0  0  3  0  0  0  0  0  0
  160.7230  206.1060  147.7960 C   0  0  2  0  0  3  0  0  0  0  0  0
  161.0240  203.4180  150.6090 C   0  0  0  0  0  2  0  0  0  0  0  0
  161.3980  205.3440  145.7630 C   0  0  2  0  0  3  0  0  0  0  0  0
  161.6070  205.3790  152.2180 C   0  0  1  0  0  0  0  0  0  0  0  0
  160.3580  206.2600  150.2340 O   0  0  0  0  0  0  0  0  0  0  0  0
  160.6440  204.1970  151.8770 C   0  0  2  0  0  3  0  0  0  0  0  0
  160.9550  204.1600  149.3000 C   0  0  0  0  0  3  0  0  0  0  0  0
  160.5380  203.2840  152.9280 O   0  0  0  0  0  1  0  0  0  0  0  0
  160.2490  208.0990  153.8410 C   0  0  0  0  0  2  0  0  0  0  0  0
  159.9450  206.6240  153.7260 C   0  0  0  0  0  2  0  0  0  0  0  0
  162.2940  206.9870  154.1370 C   0  0  0  0  0  2  0  0  0  0  0  0
  161.6040  208.2530  154.3600 N   0  0  0  0  0  0  0  0  0  0  0  0
  161.2950  205.9440  153.6350 C   0  0  2  0  0  3  0  0  0  0  0  0
  161.5180  208.4310  155.8040 C   0  0  0  0  0  2  0  0  0  0  0  0
  161.1350  209.8690  156.1510 C   0  0  2  0  0  3  0  0  0  0  0  0
  162.0950  211.7680  157.2610 O   0  0  0  0  0  1  0  0  0  0  0  0
  163.4140  209.8990  157.1600 O   0  0  0  0  0  0  0  0  0  0  0  0
  162.2270  210.5690  156.8970 C   0  0  0  0  0  0  0  0  0  0  0  0
  159.7850  209.9610  156.8730 C   0  0  0  0  0  2  0  0  0  0  0  0
  158.8240  212.1440  156.8870 O   0  0  0  0  0  0  0  0  0  0  0  0
  158.0980  210.7470  155.1580 N   0  0  0  0  0  2  0  0  0  0  0  0
  158.8910  211.0230  156.3150 C   0  0  0  0  0  0  0  0  0  0  0  0
  157.2140  211.7380  154.5580 C   0  0  0  0  0  2  0  0  0  0  0  0
  155.1630  210.5680  155.2910 C   0  0  0  0  0  1  0  0  0  0  0  0
  155.1520  212.9000  154.8440 O   0  0  0  0  0  1  0  0  0  0  0  0
  155.9350  211.8680  155.3660 C   0  0  2  0  0  3  0  0  0  0  0  0
  161.3700  202.8440  145.6170 O   0  0  0  0  0  1  0  0  0  0  0  0
  163.3040  204.0130  145.2410 O   0  0  0  0  0  0  0  0  0  0  0  0
  162.0790  204.0360  145.5280 C   0  0  0  0  0  0  0  0  0  0  0  0
  161.9720  209.7760  149.5040 C   0  0  0  0  0  2  0  0  0  0  0  0
  160.7780  209.9060  151.5620 O   0  0  0  0  0  0  0  0  0  0  0  0
  163.0160  210.3890  151.6860 O   0  0  0  0  0  1  0  0  0  0  0  0
  161.8800  210.0320  150.9690 C   0  0  0  0  0  0  0  0  0  0  0  0
  1 39  1  1  0  0  0
  1  2  1  0  0  0  0
  2  7  1  0  0  0  0
  3  1  1  0  0  0  0
  4 16  2  0  0  0  0
  4 14  1  0  0  0  0
  7 14  1  6  0  0  0
  7 13  1  0  0  0  0
  9  6  1  6  0  0  0
  9 10  1  0  0  0  0
  9  3  1  0  0  0  0
 10  8  1  6  0  0  0
 10  4  1  0  0  0  0
 11 15  1  0  0  0  0
 12 38  1  1  0  0  0
 12  6  1  0  0  0  0
 12  8  1  0  0  0  0
 13  5  1  6  0  0  0
 13 22  1  0  0  0  0
 15 13  1  0  0  0  0
 15 17  1  1  0  0  0
 16 11  1  0  0  0  0
 18 21  1  0  0  0  0
 19 18  1  0  0  0  0
 20 21  1  0  0  0  0
 21 23  1  0  0  0  0
 22 19  1  6  0  0  0
 22 20  1  0  0  0  0
 24 23  1  1  0  0  0
 24 28  1  0  0  0  0
 24 27  1  0  0  0  0
 27 26  2  0  0  0  0
 27 25  1  0  0  0  0
 30 31  1  0  0  0  0
 31 28  1  0  0  0  0
 31 29  2  0  0  0  0
 32 30  1  0  0  0  0
 32 35  1  0  0  0  0
 34 35  1  0  0  0  0
 35 33  1  6  0  0  0
 37 38  2  0  0  0  0
 38 36  1  0  0  0  0
 39 42  1  0  0  0  0
 42 40  2  0  0  0  0
 42 41  1  0  0  0  0
M  END
>  <MODEL>
4

>  <REMARK>
 VINA RESULT:      -3.8      1.960      4.175
  Name = 
  11 active torsions:
  status: ('A' for Active; 'I' for Inactive)
    1  A    between atoms: C_3  and  N_18
    2  A    between atoms: C_3  and  C_40
    3  A    between atoms: C_4  and  C_13
    4  A    between atoms: C_13  and  C_33
    5  A    between atoms: N_14  and  C_32
    6  A    between atoms: C_20  and  C_30
    7  A    between atoms: C_20  and  C_38
    8  A    between atoms: C_24  and  C_38
    9  A    between atoms: C_25  and  C_34
   10  A    between atoms: C_32  and  C_38
   11  A    between atoms: C_35  and  C_39
                            x       y       z     vdW  Elec       q    Type
                         _______ _______ _______ _____ _____    ______ ____

>  <TORSDO>
F 11

$$$$
=
 OpenBabel11072410593D

 42 45  0  0  1  0  0  0  0  0999 V2000
  161.8020  208.8860  149.4820 C   0  0  2  0  0  3  0  0  0  0  0  0
  162.8920  208.0060  150.6650 S   0  0  0  0  0  0  0  0  0  0  0  0
  162.0600  208.5520  148.1330 O   0  0  0  0  0  0  0  0  0  0  0  0
  160.5400  206.0570  149.6570 C   0  0  0  0  0  0  0  0  0  0  0  0
  163.2710  205.5940  152.4230 C   0  0  0  0  0  1  0  0  0  0  0  0
  161.9830  206.8680  146.4660 C   0  0  0  0  0  2  0  0  0  0  0  0
  161.4850  207.2360  151.5890 C   0  0  2  0  0  3  0  0  0  0  0  0
  160.0640  205.7100  147.3290 O   0  0  0  0  0  0  0  0  0  0  0  0
  161.8750  207.1660  147.9230 C   0  0  2  0  0  3  0  0  0  0  0  0
  160.4840  206.6570  148.2830 C   0  0  2  0  0  3  0  0  0  0  0  0
  161.0760  204.0880  151.1600 C   0  0  0  0  0  2  0  0  0  0  0  0
  160.9320  205.8040  146.2240 C   0  0  2  0  0  3  0  0  0  0  0  0
  161.8380  206.1100  152.6110 C   0  0  1  0  0  0  0  0  0  0  0  0
  160.3860  206.9180  150.7380 O   0  0  0  0  0  0  0  0  0  0  0  0
  160.8380  204.9240  152.4270 C   0  0  2  0  0  3  0  0  0  0  0  0
  160.8680  204.7750  149.8350 C   0  0  0  0  0  3  0  0  0  0  0  0
  160.8420  204.0570  153.5210 O   0  0  0  0  0  1  0  0  0  0  0  0
  159.5070  207.4250  154.7820 C   0  0  0  0  0  2  0  0  0  0  0  0
  160.4560  206.2500  154.7690 C   0  0  0  0  0  2  0  0  0  0  0  0
  161.5690  208.2610  154.0390 C   0  0  0  0  0  2  0  0  0  0  0  0
  160.2830  208.6480  154.6080 N   0  0  0  0  0  0  0  0  0  0  0  0
  161.6840  206.7370  154.0280 C   0  0  2  0  0  3  0  0  0  0  0  0
  160.5600  209.2010  155.9280 C   0  0  0  0  0  2  0  0  0  0  0  0
  160.4630  210.7250  155.9100 C   0  0  2  0  0  3  0  0  0  0  0  0
  161.4410  212.4510  157.2600 O   0  0  0  0  0  1  0  0  0  0  0  0
  162.8500  210.7620  156.6270 O   0  0  0  0  0  0  0  0  0  0  0  0
  161.5990  211.3610  156.6480 C   0  0  0  0  0  0  0  0  0  0  0  0
  159.0980  211.2340  156.3900 C   0  0  0  0  0  2  0  0  0  0  0  0
  158.2590  213.4430  156.0670 O   0  0  0  0  0  0  0  0  0  0  0  0
  158.3310  212.1150  154.1440 N   0  0  0  0  0  2  0  0  0  0  0  0
  158.5500  212.3360  155.5400 C   0  0  0  0  0  0  0  0  0  0  0  0
  157.8090  213.1460  153.2580 C   0  0  0  0  0  2  0  0  0  0  0  0
  158.1670  213.2970  150.8170 C   0  0  0  0  0  1  0  0  0  0  0  0
  159.9130  212.6130  152.2720 O   0  0  0  0  0  1  0  0  0  0  0  0
  158.8180  213.4740  152.1710 C   0  0  2  0  0  3  0  0  0  0  0  0
  161.3400  203.4070  146.8220 O   0  0  0  0  0  1  0  0  0  0  0  0
  162.3390  204.3360  144.9820 O   0  0  0  0  0  0  0  0  0  0  0  0
  161.5780  204.4810  145.9740 C   0  0  0  0  0  0  0  0  0  0  0  0
  161.9270  210.3850  149.6870 C   0  0  0  0  0  2  0  0  0  0  0  0
  163.1080  211.6740  148.0700 O   0  0  0  0  0  1  0  0  0  0  0  0
  160.9830  211.0480  147.4750 O   0  0  0  0  0  0  0  0  0  0  0  0
  162.0430  211.0780  148.3740 C   0  0  0  0  0  0  0  0  0  0  0  0
  1 39  1  6  0  0  0
  1  2  1  0  0  0  0
  3  1  1  0  0  0  0
  4 16  2  0  0  0  0
  4 14  1  0  0  0  0
  7  2  1  6  0  0  0
  7 13  1  0  0  0  0
  9  6  1  6  0  0  0
  9  3  1  0  0  0  0
  9 10  1  0  0  0  0
 10  8  1  6  0  0  0
 10  4  1  0  0  0  0
 11 15  1  0  0  0  0
 12 38  1  1  0  0  0
 12  6  1  0  0  0  0
 12  8  1  0  0  0  0
 13  5  1  6  0  0  0
 13 22  1  0  0  0  0
 14  7  1  0  0  0  0
 15 13  1  0  0  0  0
 15 17  1  1  0  0  0
 16 11  1  0  0  0  0
 19 18  1  0  0  0  0
 20 21  1  0  0  0  0
 21 18  1  0  0  0  0
 21 23  1  0  0  0  0
 22 20  1  6  0  0  0
 22 19  1  0  0  0  0
 24 23  1  1  0  0  0
 24 28  1  0  0  0  0
 24 27  1  0  0  0  0
 26 27  2  0  0  0  0
 27 25  1  0  0  0  0
 30 31  1  0  0  0  0
 31 29  2  0  0  0  0
 31 28  1  0  0  0  0
 32 30  1  0  0  0  0
 35 33  1  6  0  0  0
 35 34  1  0  0  0  0
 35 32  1  0  0  0  0
 37 38  2  0  0  0  0
 38 36  1  0  0  0  0
 40 42  1  0  0  0  0
 41 42  2  0  0  0  0
 42 39  1  0  0  0  0
M  END
>  <MODEL>
5

>  <REMARK>
 VINA RESULT:      -3.5      2.013      4.265
  Name = 
  11 active torsions:
  status: ('A' for Active; 'I' for Inactive)
    1  A    between atoms: C_3  and  N_18
    2  A    between atoms: C_3  and  C_40
    3  A    between atoms: C_4  and  C_13
    4  A    between atoms: C_13  and  C_33
    5  A    between atoms: N_14  and  C_32
    6  A    between atoms: C_20  and  C_30
    7  A    between atoms: C_20  and  C_38
    8  A    between atoms: C_24  and  C_38
    9  A    between atoms: C_25  and  C_34
   10  A    between atoms: C_32  and  C_38
   11  A    between atoms: C_35  and  C_39
                            x       y       z     vdW  Elec       q    Type
                         _______ _______ _______ _____ _____    ______ ____

>  <TORSDO>
F 11

$$$$
=
 OpenBabel11072410593D

 42 45  0  0  1  0  0  0  0  0999 V2000
  161.0200  205.9740  147.3220 C   0  0  2  0  0  3  0  0  0  0  0  0
  162.2710  206.6930  148.4530 S   0  0  0  0  0  0  0  0  0  0  0  0
  161.3110  204.6430  146.9450 O   0  0  0  0  0  0  0  0  0  0  0  0
  160.2900  204.7450  150.0750 C   0  0  0  0  0  0  0  0  0  0  0  0
  163.1070  207.1700  151.3040 C   0  0  0  0  0  1  0  0  0  0  0  0
  161.5090  202.3880  147.6500 C   0  0  0  0  0  2  0  0  0  0  0  0
  161.0410  207.0620  149.7870 C   0  0  2  0  0  3  0  0  0  0  0  0
  159.8440  202.4910  149.3780 O   0  0  0  0  0  0  0  0  0  0  0  0
  161.3750  203.8080  148.0840 C   0  0  2  0  0  3  0  0  0  0  0  0
  160.1040  203.7990  148.9250 C   0  0  2  0  0  3  0  0  0  0  0  0
  161.1960  205.2100  152.3960 C   0  0  0  0  0  2  0  0  0  0  0  0
  160.6630  201.6140  148.6390 C   0  0  2  0  0  3  0  0  0  0  0  0
  161.6080  207.4750  151.1810 C   0  0  1  0  0  0  0  0  0  0  0  0
  160.0020  206.0870  149.8520 O   0  0  0  0  0  0  0  0  0  0  0  0
  160.8340  206.7000  152.2950 C   0  0  2  0  0  3  0  0  0  0  0  0
  160.8460  204.3370  151.2190 C   0  0  0  0  0  3  0  0  0  0  0  0
  161.0130  207.2720  153.5560 O   0  0  0  0  0  1  0  0  0  0  0  0
  162.3590  210.1950  153.1580 C   0  0  0  0  0  2  0  0  0  0  0  0
  162.6080  209.7740  151.7290 C   0  0  0  0  0  2  0  0  0  0  0  0
  160.3080  209.3950  152.3480 C   0  0  0  0  0  2  0  0  0  0  0  0
  160.9180  210.2110  153.3920 N   0  0  0  0  0  0  0  0  0  0  0  0
  161.3680  209.0070  151.3180 C   0  0  2  0  0  3  0  0  0  0  0  0
  160.4420  211.5740  153.1880 C   0  0  0  0  0  2  0  0  0  0  0  0
  159.5460  212.0140  154.3450 C   0  0  2  0  0  3  0  0  0  0  0  0
  160.6910  211.4600  156.3800 O   0  0  0  0  0  1  0  0  0  0  0  0
  158.9760  210.0630  155.7880 O   0  0  0  0  0  0  0  0  0  0  0  0
  159.7700  211.1800  155.5670 C   0  0  0  0  0  0  0  0  0  0  0  0
  158.0660  212.0830  153.9500 C   0  0  0  0  0  2  0  0  0  0  0  0
  157.4610  214.3860  153.8090 O   0  0  0  0  0  0  0  0  0  0  0  0
  157.6520  213.2790  151.7580 N   0  0  0  0  0  2  0  0  0  0  0  0
  157.7190  213.3210  153.1850 C   0  0  0  0  0  0  0  0  0  0  0  0
  157.3290  214.4490  150.9520 C   0  0  0  0  0  2  0  0  0  0  0  0
  155.4420  214.3720  149.3570 C   0  0  0  0  0  1  0  0  0  0  0  0
  157.0800  212.6540  149.4030 O   0  0  0  0  0  1  0  0  0  0  0  0
  156.9030  214.0300  149.5550 C   0  0  2  0  0  3  0  0  0  0  0  0
  161.5780  201.1380  150.9210 O   0  0  0  0  0  1  0  0  0  0  0  0
  162.2210  199.8770  149.1190 O   0  0  0  0  0  0  0  0  0  0  0  0
  161.5310  200.8300  149.5660 C   0  0  0  0  0  0  0  0  0  0  0  0
  160.8780  206.8520  146.0910 C   0  0  0  0  0  2  0  0  0  0  0  0
  159.2820  205.5580  144.8840 O   0  0  0  0  0  1  0  0  0  0  0  0
  161.3200  205.8180  143.8640 O   0  0  0  0  0  0  0  0  0  0  0  0
  160.4460  206.0350  144.9220 C   0  0  0  0  0  0  0  0  0  0  0  0
  1 39  1  6  0  0  0
  1  2  1  0  0  0  0
  3  1  1  0  0  0  0
  3  9  1  0  0  0  0
  4 16  2  0  0  0  0
  6 12  1  0  0  0  0
  7  2  1  6  0  0  0
  7 14  1  0  0  0  0
  7 13  1  0  0  0  0
  9  6  1  6  0  0  0
  9 10  1  0  0  0  0
 10  8  1  1  0  0  0
 10  4  1  0  0  0  0
 12  8  1  0  0  0  0
 12 38  1  1  0  0  0
 13  5  1  1  0  0  0
 13 22  1  0  0  0  0
 13 15  1  0  0  0  0
 14  4  1  0  0  0  0
 15 11  1  0  0  0  0
 15 17  1  1  0  0  0
 16 11  1  0  0  0  0
 18 21  1  0  0  0  0
 19 18  1  0  0  0  0
 20 21  1  0  0  0  0
 22 19  1  1  0  0  0
 22 20  1  0  0  0  0
 23 21  1  0  0  0  0
 24 23  1  6  0  0  0
 24 27  1  0  0  0  0
 27 26  2  0  0  0  0
 27 25  1  0  0  0  0
 28 24  1  0  0  0  0
 30 31  1  0  0  0  0
 31 29  2  0  0  0  0
 31 28  1  0  0  0  0
 32 30  1  0  0  0  0
 34 35  1  0  0  0  0
 35 33  1  1  0  0  0
 35 32  1  0  0  0  0
 37 38  2  0  0  0  0
 38 36  1  0  0  0  0
 40 42  1  0  0  0  0
 41 42  2  0  0  0  0
 42 39  1  0  0  0  0
M  END
>  <MODEL>
6

>  <REMARK>
 VINA RESULT:      -3.3      2.193      4.465
  Name = 
  11 active torsions:
  status: ('A' for Active; 'I' for Inactive)
    1  A    between atoms: C_3  and  N_18
    2  A    between atoms: C_3  and  C_40
    3  A    between atoms: C_4  and  C_13
    4  A    between atoms: C_13  and  C_33
    5  A    between atoms: N_14  and  C_32
    6  A    between atoms: C_20  and  C_30
    7  A    between atoms: C_20  and  C_38
    8  A    between atoms: C_24  and  C_38
    9  A    between atoms: C_25  and  C_34
   10  A    between atoms: C_32  and  C_38
   11  A    between atoms: C_35  and  C_39
                            x       y       z     vdW  Elec       q    Type
                         _______ _______ _______ _____ _____    ______ ____

>  <TORSDO>
F 11

$$$$
=
 OpenBabel11072410593D

 42 45  0  0  1  0  0  0  0  0999 V2000
  161.1950  206.0640  147.3560 C   0  0  2  0  0  3  0  0  0  0  0  0
  162.4260  206.7600  148.5240 S   0  0  0  0  0  0  0  0  0  0  0  0
  161.4550  204.7180  147.0110 O   0  0  0  0  0  0  0  0  0  0  0  0
  160.3210  204.9060  150.0990 C   0  0  0  0  0  0  0  0  0  0  0  0
  163.1690  207.2560  151.3960 C   0  0  0  0  0  1  0  0  0  0  0  0
  161.5500  202.4700  147.7590 C   0  0  0  0  0  2  0  0  0  0  0  0
  161.1600  207.1920  149.8030 C   0  0  2  0  0  3  0  0  0  0  0  0
  159.8260  202.6560  149.4200 O   0  0  0  0  0  0  0  0  0  0  0  0
  161.4470  203.9000  148.1650 C   0  0  2  0  0  3  0  0  0  0  0  0
  160.1460  203.9470  148.9570 C   0  0  2  0  0  3  0  0  0  0  0  0
  161.1550  205.3790  152.4450 C   0  0  0  0  0  2  0  0  0  0  0  0
  160.6420  201.7410  148.7260 C   0  0  2  0  0  3  0  0  0  0  0  0
  161.6870  207.6090  151.2120 C   0  0  1  0  0  0  0  0  0  0  0  0
  160.0870  206.2520  149.8450 O   0  0  0  0  0  0  0  0  0  0  0  0
  160.8470  206.8780  152.3080 C   0  0  2  0  0  3  0  0  0  0  0  0
  160.8200  204.4990  151.2690 C   0  0  0  0  0  3  0  0  0  0  0  0
  160.9970  207.4650  153.5650 O   0  0  0  0  0  1  0  0  0  0  0  0
  162.3100  210.3120  153.2560 C   0  0  0  0  0  2  0  0  0  0  0  0
  162.7070  209.8710  151.8670 C   0  0  0  0  0  2  0  0  0  0  0  0
  160.3370  209.5870  152.2140 C   0  0  0  0  0  2  0  0  0  0  0  0
  160.8540  210.3860  153.3200 N   0  0  0  0  0  0  0  0  0  0  0  0
  161.4940  209.1510  151.3160 C   0  0  2  0  0  3  0  0  0  0  0  0
  160.4590  211.7650  153.0580 C   0  0  0  0  0  2  0  0  0  0  0  0
  159.0370  211.8250  152.5020 C   0  0  2  0  0  3  0  0  0  0  0  0
  159.7360  213.8710  151.4610 O   0  0  0  0  0  1  0  0  0  0  0  0
  157.7020  213.0570  150.7950 O   0  0  0  0  0  0  0  0  0  0  0  0
  158.8610  212.9700  151.5540 C   0  0  0  0  0  0  0  0  0  0  0  0
  157.9730  211.8140  153.6060 C   0  0  0  0  0  2  0  0  0  0  0  0
  158.8610  213.1290  155.3880 O   0  0  0  0  0  0  0  0  0  0  0  0
  158.7630  210.8290  155.8000 N   0  0  0  0  0  2  0  0  0  0  0  0
  158.5470  211.9790  154.9780 C   0  0  0  0  0  0  0  0  0  0  0  0
  159.3090  210.9190  157.1480 C   0  0  0  0  0  2  0  0  0  0  0  0
  161.7570  211.0490  156.8220 C   0  0  0  0  0  1  0  0  0  0  0  0
  160.5690  209.0380  156.3990 O   0  0  0  0  0  1  0  0  0  0  0  0
  160.6150  210.1490  157.2440 C   0  0  2  0  0  3  0  0  0  0  0  0
  161.6560  201.4080  150.9920 O   0  0  0  0  0  1  0  0  0  0  0  0
  161.9380  199.8400  149.3450 O   0  0  0  0  0  0  0  0  0  0  0  0
  161.4480  200.9440  149.6980 C   0  0  0  0  0  0  0  0  0  0  0  0
  161.1280  206.9250  146.1080 C   0  0  0  0  0  2  0  0  0  0  0  0
  161.1370  205.8950  143.9600 O   0  0  0  0  0  0  0  0  0  0  0  0
  159.1590  205.7610  145.1120 O   0  0  0  0  0  1  0  0  0  0  0  0
  160.4810  206.1740  144.9970 C   0  0  0  0  0  0  0  0  0  0  0  0
  1 39  1  6  0  0  0
  1  2  1  0  0  0  0
  3  1  1  0  0  0  0
  3  9  1  0  0  0  0
  4 16  2  0  0  0  0
  6 12  1  0  0  0  0
  7  2  1  6  0  0  0
  7 14  1  0  0  0  0
  7 13  1  0  0  0  0
  9  6  1  6  0  0  0
  9 10  1  0  0  0  0
 10  8  1  1  0  0  0
 10  4  1  0  0  0  0
 12  8  1  0  0  0  0
 12 38  1  1  0  0  0
 13 22  1  0  0  0  0
 13  5  1  1  0  0  0
 13 15  1  0  0  0  0
 14  4  1  0  0  0  0
 15 11  1  0  0  0  0
 15 17  1  1  0  0  0
 16 11  1  0  0  0  0
 18 21  1  0  0  0  0
 19 18  1  0  0  0  0
 20 21  1  0  0  0  0
 22 19  1  1  0  0  0
 22 20  1  0  0  0  0
 23 21  1  0  0  0  0
 24 23  1  1  0  0  0
 24 28  1  0  0  0  0
 25 27  1  0  0  0  0
 26 27  2  0  0  0  0
 27 24  1  0  0  0  0
 28 31  1  0  0  0  0
 30 32  1  0  0  0  0
 31 29  2  0  0  0  0
 31 30  1  0  0  0  0
 32 35  1  0  0  0  0
 34 35  1  0  0  0  0
 35 33  1  6  0  0  0
 37 38  2  0  0  0  0
 38 36  1  0  0  0  0
 40 42  2  0  0  0  0
 42 41  1  0  0  0  0
 42 39  1  0  0  0  0
M  END
>  <MODEL>
7

>  <REMARK>
 VINA RESULT:      -3.1      1.849      4.830
  Name = 
  11 active torsions:
  status: ('A' for Active; 'I' for Inactive)
    1  A    between atoms: C_3  and  N_18
    2  A    between atoms: C_3  and  C_40
    3  A    between atoms: C_4  and  C_13
    4  A    between atoms: C_13  and  C_33
    5  A    between atoms: N_14  and  C_32
    6  A    between atoms: C_20  and  C_30
    7  A    between atoms: C_20  and  C_38
    8  A    between atoms: C_24  and  C_38
    9  A    between atoms: C_25  and  C_34
   10  A    between atoms: C_32  and  C_38
   11  A    between atoms: C_35  and  C_39
                            x       y       z     vdW  Elec       q    Type
                         _______ _______ _______ _____ _____    ______ ____

>  <TORSDO>
F 11

$$$$
=
 OpenBabel11072410593D

 42 45  0  0  1  0  0  0  0  0999 V2000
  160.8820  205.2600  152.7510 C   0  0  2  0  0  3  0  0  0  0  0  0
  162.2940  205.5240  151.6120 S   0  0  0  0  0  0  0  0  0  0  0  0
  161.1710  205.6190  154.0880 O   0  0  0  0  0  0  0  0  0  0  0  0
  160.8230  208.3180  152.2290 C   0  0  0  0  0  0  0  0  0  0  0  0
  163.6750  207.4020  149.7100 C   0  0  0  0  0  1  0  0  0  0  0  0
  161.6540  207.3810  155.5990 C   0  0  0  0  0  2  0  0  0  0  0  0
  161.3490  206.6620  150.4980 C   0  0  2  0  0  3  0  0  0  0  0  0
  160.3840  209.0750  154.4660 O   0  0  0  0  0  0  0  0  0  0  0  0
  161.5240  206.9860  154.1680 C   0  0  2  0  0  3  0  0  0  0  0  0
  160.4610  207.9400  153.6360 C   0  0  2  0  0  3  0  0  0  0  0  0
  162.1630  209.7580  150.6310 C   0  0  0  0  0  2  0  0  0  0  0  0
  161.0840  208.7830  155.6530 C   0  0  2  0  0  3  0  0  0  0  0  0
  162.1670  207.4500  149.4280 C   0  0  1  0  0  0  0  0  0  0  0  0
  160.4110  207.4650  151.2120 O   0  0  0  0  0  0  0  0  0  0  0  0
  161.6950  208.9390  149.4190 C   0  0  2  0  0  3  0  0  0  0  0  0
  161.6310  209.3520  151.9810 C   0  0  0  0  0  3  0  0  0  0  0  0
  162.0960  209.6120  148.2640 O   0  0  0  0  0  1  0  0  0  0  0  0
  160.8300  204.6050  148.0160 C   0  0  0  0  0  2  0  0  0  0  0  0
  160.5180  206.0830  148.0140 C   0  0  0  0  0  2  0  0  0  0  0  0
  162.8710  205.7010  147.6430 C   0  0  0  0  0  2  0  0  0  0  0  0
  162.1880  204.4180  147.5160 N   0  0  0  0  0  0  0  0  0  0  0  0
  161.8650  206.7750  148.0570 C   0  0  2  0  0  3  0  0  0  0  0  0
  162.1090  204.1260  146.0900 C   0  0  0  0  0  2  0  0  0  0  0  0
  160.7390  203.5580  145.7270 C   0  0  2  0  0  3  0  0  0  0  0  0
  160.2100  201.3600  144.9240 O   0  0  0  0  0  0  0  0  0  0  0  0
  161.2070  201.4560  146.9830 O   0  0  0  0  0  1  0  0  0  0  0  0
  160.7100  202.0660  145.8390 C   0  0  0  0  0  0  0  0  0  0  0  0
  160.2400  204.0500  144.3630 C   0  0  0  0  0  2  0  0  0  0  0  0
  160.7700  206.3410  144.7650 O   0  0  0  0  0  0  0  0  0  0  0  0
  161.4080  205.5240  142.6690 N   0  0  0  0  0  2  0  0  0  0  0  0
  160.8240  205.3690  143.9640 C   0  0  0  0  0  0  0  0  0  0  0  0
  162.0020  206.7770  142.2200 C   0  0  0  0  0  2  0  0  0  0  0  0
  162.9380  206.1710  140.0140 C   0  0  0  0  0  1  0  0  0  0  0  0
  161.9210  208.2860  140.3760 O   0  0  0  0  0  1  0  0  0  0  0  0
  161.8370  206.9350  140.7180 C   0  0  2  0  0  3  0  0  0  0  0  0
  162.4810  210.7070  154.8650 O   0  0  0  0  0  0  0  0  0  0  0  0
  162.8180  209.7910  156.9380 O   0  0  0  0  0  1  0  0  0  0  0  0
  162.1750  209.7820  155.8570 C   0  0  0  0  0  0  0  0  0  0  0  0
  160.4300  203.8120  152.6810 C   0  0  0  0  0  2  0  0  0  0  0  0
  160.4690  203.1630  150.3890 O   0  0  0  0  0  0  0  0  0  0  0  0
  162.2730  202.4930  151.6370 O   0  0  0  0  0  1  0  0  0  0  0  0
  161.0480  203.1360  151.5060 C   0  0  0  0  0  0  0  0  0  0  0  0
  1 39  1  1  0  0  0
  1  3  1  0  0  0  0
  2  1  1  0  0  0  0
  3  9  1  0  0  0  0
  6 12  1  0  0  0  0
  7 14  1  1  0  0  0
  7  2  1  0  0  0  0
  8 12  1  0  0  0  0
  9  6  1  1  0  0  0
 10  4  1  6  0  0  0
 10  9  1  0  0  0  0
 10  8  1  0  0  0  0
 11 16  1  0  0  0  0
 12 38  1  6  0  0  0
 13  5  1  1  0  0  0
 13  7  1  0  0  0  0
 14  4  1  0  0  0  0
 15 17  1  6  0  0  0
 15 13  1  0  0  0  0
 15 11  1  0  0  0  0
 16  4  2  0  0  0  0
 19 18  1  0  0  0  0
 19 22  1  0  0  0  0
 21 20  1  0  0  0  0
 21 18  1  0  0  0  0
 22 20  1  1  0  0  0
 22 13  1  0  0  0  0
 23 21  1  0  0  0  0
 24 28  1  6  0  0  0
 24 27  1  0  0  0  0
 24 23  1  0  0  0  0
 25 27  2  0  0  0  0
 27 26  1  0  0  0  0
 30 31  1  0  0  0  0
 31 28  1  0  0  0  0
 31 29  2  0  0  0  0
 32 30  1  0  0  0  0
 34 35  1  0  0  0  0
 35 33  1  6  0  0  0
 35 32  1  0  0  0  0
 36 38  2  0  0  0  0
 38 37  1  0  0  0  0
 40 42  2  0  0  0  0
 42 41  1  0  0  0  0
 42 39  1  0  0  0  0
M  END
>  <MODEL>
8

>  <REMARK>
 VINA RESULT:      -2.9      3.050      9.146
  Name = 
  11 active torsions:
  status: ('A' for Active; 'I' for Inactive)
    1  A    between atoms: C_3  and  N_18
    2  A    between atoms: C_3  and  C_40
    3  A    between atoms: C_4  and  C_13
    4  A    between atoms: C_13  and  C_33
    5  A    between atoms: N_14  and  C_32
    6  A    between atoms: C_20  and  C_30
    7  A    between atoms: C_20  and  C_38
    8  A    between atoms: C_24  and  C_38
    9  A    between atoms: C_25  and  C_34
   10  A    between atoms: C_32  and  C_38
   11  A    between atoms: C_35  and  C_39
                            x       y       z     vdW  Elec       q    Type
                         _______ _______ _______ _____ _____    ______ ____

>  <TORSDO>
F 11

$$$$
=
 OpenBabel11072410593D

 42 45  0  0  1  0  0  0  0  0999 V2000
  162.1130  212.9110  140.3610 C   0  0  2  0  0  3  0  0  0  0  0  0
  161.4150  212.0550  141.8250 S   0  0  0  0  0  0  0  0  0  0  0  0
  161.6970  212.3440  139.1350 O   0  0  0  0  0  0  0  0  0  0  0  0
  159.2170  214.0110  140.5240 C   0  0  0  0  0  0  0  0  0  0  0  0
  159.1840  211.9290  143.8380 C   0  0  0  0  0  1  0  0  0  0  0  0
  159.8880  211.9540  137.6520 C   0  0  0  0  0  2  0  0  0  0  0  0
  160.6120  213.5830  142.4950 C   0  0  2  0  0  3  0  0  0  0  0  0
  158.6550  213.9440  138.1900 O   0  0  0  0  0  0  0  0  0  0  0  0
  160.2890  212.3960  139.0180 C   0  0  2  0  0  3  0  0  0  0  0  0
  159.7030  213.7990  139.1190 C   0  0  2  0  0  3  0  0  0  0  0  0
  157.4180  213.7010  142.2810 C   0  0  0  0  0  2  0  0  0  0  0  0
  158.7300  212.8620  137.2910 C   0  0  2  0  0  3  0  0  0  0  0  0
  159.5990  213.3960  143.6680 C   0  0  1  0  0  0  0  0  0  0  0  0
  160.1440  214.4480  141.4620 O   0  0  0  0  0  0  0  0  0  0  0  0
  158.3280  214.2590  143.3860 C   0  0  2  0  0  3  0  0  0  0  0  0
  157.9820  213.6540  140.8860 C   0  0  0  0  0  3  0  0  0  0  0  0
  157.5520  214.4430  144.5320 O   0  0  0  0  0  1  0  0  0  0  0  0
  162.4830  213.0040  145.5120 C   0  0  0  0  0  2  0  0  0  0  0  0
  161.8050  214.1240  144.7610 C   0  0  0  0  0  2  0  0  0  0  0  0
  160.2250  212.9390  146.1460 C   0  0  0  0  0  2  0  0  0  0  0  0
  161.5640  212.5070  146.5310 N   0  0  0  0  0  0  0  0  0  0  0  0
  160.3200  213.8930  144.9560 C   0  0  2  0  0  3  0  0  0  0  0  0
  161.8740  213.1790  147.7870 C   0  0  0  0  0  2  0  0  0  0  0  0
  161.2900  212.4110  148.9710 C   0  0  2  0  0  3  0  0  0  0  0  0
  159.8450  214.2850  149.3700 O   0  0  0  0  0  0  0  0  0  0  0  0
  160.3890  213.0370  151.2100 O   0  0  0  0  0  1  0  0  0  0  0  0
  160.4570  213.2940  149.8480 C   0  0  0  0  0  0  0  0  0  0  0  0
  162.3580  211.6460  149.7620 C   0  0  0  0  0  2  0  0  0  0  0  0
  162.7190  209.6210  148.5540 O   0  0  0  0  0  0  0  0  0  0  0  0
  161.6240  209.3750  150.6060 N   0  0  0  0  0  2  0  0  0  0  0  0
  162.2610  210.1620  149.5960 C   0  0  0  0  0  0  0  0  0  0  0  0
  161.5040  207.9260  150.5120 C   0  0  0  0  0  2  0  0  0  0  0  0
  161.5850  205.7930  151.7590 C   0  0  0  0  0  1  0  0  0  0  0  0
  161.1360  207.8450  152.8660 O   0  0  0  0  0  1  0  0  0  0  0  0
  161.8820  207.2760  151.8320 C   0  0  2  0  0  3  0  0  0  0  0  0
  156.2330  212.7610  137.4600 O   0  0  0  0  0  1  0  0  0  0  0  0
  157.4620  210.8480  137.1750 O   0  0  0  0  0  0  0  0  0  0  0  0
  157.4460  212.0990  137.3080 C   0  0  0  0  0  0  0  0  0  0  0  0
  163.6290  212.9220  140.4480 C   0  0  0  0  0  2  0  0  0  0  0  0
  163.5890  213.9610  138.3050 O   0  0  0  0  0  0  0  0  0  0  0  0
  165.4770  212.7490  138.7810 O   0  0  0  0  0  1  0  0  0  0  0  0
  164.2200  213.2370  139.1180 C   0  0  0  0  0  0  0  0  0  0  0  0
  1 39  1  1  0  0  0
  1  2  1  0  0  0  0
  2  7  1  0  0  0  0
  3  1  1  0  0  0  0
  4 16  2  0  0  0  0
  4 14  1  0  0  0  0
  7 14  1  6  0  0  0
  7 13  1  0  0  0  0
  9  6  1  6  0  0  0
  9 10  1  0  0  0  0
  9  3  1  0  0  0  0
 10  8  1  6  0  0  0
 10  4  1  0  0  0  0
 11 15  1  0  0  0  0
 12 38  1  1  0  0  0
 12  6  1  0  0  0  0
 12  8  1  0  0  0  0
 13  5  1  1  0  0  0
 13 22  1  0  0  0  0
 15 13  1  0  0  0  0
 15 17  1  1  0  0  0
 16 11  1  0  0  0  0
 18 21  1  0  0  0  0
 19 18  1  0  0  0  0
 20 21  1  0  0  0  0
 21 23  1  0  0  0  0
 22 19  1  6  0  0  0
 22 20  1  0  0  0  0
 24 23  1  6  0  0  0
 24 28  1  0  0  0  0
 24 27  1  0  0  0  0
 25 27  2  0  0  0  0
 27 26  1  0  0  0  0
 29 31  2  0  0  0  0
 31 28  1  0  0  0  0
 31 30  1  0  0  0  0
 32 30  1  0  0  0  0
 32 35  1  0  0  0  0
 35 33  1  6  0  0  0
 35 34  1  0  0  0  0
 37 38  2  0  0  0  0
 38 36  1  0  0  0  0
 40 42  2  0  0  0  0
 41 42  1  0  0  0  0
 42 39  1  0  0  0  0
M  END
>  <MODEL>
9

>  <REMARK>
 VINA RESULT:      -2.4      7.390     10.615
  Name = 
  11 active torsions:
  status: ('A' for Active; 'I' for Inactive)
    1  A    between atoms: C_3  and  N_18
    2  A    between atoms: C_3  and  C_40
    3  A    between atoms: C_4  and  C_13
    4  A    between atoms: C_13  and  C_33
    5  A    between atoms: N_14  and  C_32
    6  A    between atoms: C_20  and  C_30
    7  A    between atoms: C_20  and  C_38
    8  A    between atoms: C_24  and  C_38
    9  A    between atoms: C_25  and  C_34
   10  A    between atoms: C_32  and  C_38
   11  A    between atoms: C_35  and  C_39
                            x       y       z     vdW  Elec       q    Type
                         _______ _______ _______ _____ _____    ______ ____

>  <TORSDO>
F 11

$$$$
