=
 OpenBabel11072411443D

 49 55  0  0  1  0  0  0  0  0999 V2000
  162.2320  205.6890  153.1430 C   0  0  0  0  0  3  0  0  0  0  0  0
  161.9260  211.1990  148.2600 C   0  0  0  0  0  3  0  0  0  0  0  0
  159.2550  210.1710  153.8840 O   0  0  0  0  0  0  0  0  0  0  0  0
  161.6050  210.4610  149.4180 C   0  0  0  0  0  0  0  0  0  0  0  0
  161.5450  208.3550  150.7400 C   0  0  2  0  0  3  0  0  0  0  0  0
  161.5890  209.2410  151.8530 O   0  0  0  0  0  0  0  0  0  0  0  0
  160.4320  210.7480  154.2910 C   0  0  1  0  0  3  0  0  0  0  0  0
  160.7000  212.5340  150.3990 C   0  0  0  0  0  0  0  0  0  0  0  0
  162.4830  207.2250  151.0410 C   0  0  0  0  0  3  0  0  0  0  0  0
  161.8740  209.1160  149.4600 C   0  0  1  0  0  3  0  0  0  0  0  0
  162.3160  206.4590  152.0860 C   0  0  0  0  0  0  0  0  0  0  0  0
  161.1010  211.1730  150.5610 C   0  0  0  0  0  0  0  0  0  0  0  0
  161.0200  208.2330  154.5510 N   0  0  0  0  0  0  0  0  0  0  0  0
  161.0880  213.2220  149.2580 C   0  0  0  0  0  3  0  0  0  0  0  0
  160.3270  206.9930  154.2530 C   0  0  0  0  0  2  0  0  0  0  0  0
  161.7360  212.5850  148.2090 C   0  0  0  0  0  0  0  0  0  0  0  0
  161.2050  210.5780  151.7820 C   0  0  2  0  0  3  0  0  0  0  0  0
  161.2790  205.8940  154.1960 N   0  0  0  0  0  2  0  0  0  0  0  0
  160.4460  209.3680  154.3310 C   0  0  0  0  0  0  0  0  0  0  0  0
  161.1950  211.3500  153.0850 C   0  0  0  0  0  2  0  0  0  0  0  0
  159.7750  213.2460  151.3240 C   0  0  0  0  0  0  0  0  0  0  0  0
  160.1970  214.2130  152.0110 O   0  0  0  0  0  0  0  0  0  0  0  0
  158.3870  212.7370  151.5870 C   0  0  0  0  0  2  0  0  0  0  0  0
  155.2620  214.0700  154.3570 N   0  0  0  0  0  0  0  0  0  0  0  0
  156.3000  213.8100  153.6300 C   0  0  0  0  0  0  0  0  0  0  0  0
  156.3510  214.1590  152.2400 N   0  0  0  0  0  2  0  0  0  0  0  0
  157.3170  214.3240  150.1370 O   0  0  0  0  0  0  0  0  0  0  0  0
  157.3330  213.7630  151.2700 C   0  0  0  0  0  0  0  0  0  0  0  0
  156.7380  213.0370  155.7270 N   0  0  0  0  0  0  0  0  0  0  0  0
  155.5630  213.5700  155.6510 C   0  0  0  0  0  3  0  0  0  0  0  0
  157.3670  213.1290  154.4150 C   0  0  0  0  0  2  0  0  0  0  0  0
  162.1900  213.3710  147.0490 C   0  0  0  0  0  0  0  0  0  0  0  0
  162.9110  214.4000  147.2330 O   0  0  0  0  0  0  0  0  0  0  0  0
  161.8770  212.9540  145.7440 O   0  0  0  0  0  0  0  0  0  0  0  0
  162.5020  213.5680  144.6160 C   0  0  0  0  0  2  0  0  0  0  0  0
  162.3330  212.6810  143.4020 C   0  0  0  0  0  1  0  0  0  0  0  0
  160.9590  207.9740  147.4190 C   0  0  0  0  0  1  0  0  0  0  0  0
  162.2220  208.3810  148.1670 C   0  0  2  0  0  3  0  0  0  0  0  0
  162.9880  207.2320  148.3880 O   0  0  0  0  0  0  0  0  0  0  0  0
  162.8060  206.4420  147.2490 C   0  0  0  0  0  2  0  0  0  0  0  0
  162.8900  204.9610  147.6230 C   0  0  0  0  0  2  0  0  0  0  0  0
  161.6930  202.7220  147.4350 C   0  0  1  0  0  3  0  0  0  0  0  0
  160.7510  201.8960  148.3220 C   0  0  0  0  0  2  0  0  0  0  0  0
  161.0410  202.8300  146.0660 C   0  0  0  0  0  2  0  0  0  0  0  0
  160.9560  203.8240  150.0130 C   0  0  0  0  0  2  0  0  0  0  0  0
  161.5290  204.2390  147.6160 C   0  0  1  0  0  0  0  0  0  0  0  0
  160.5930  204.6300  148.7710 C   0  0  0  0  0  2  0  0  0  0  0  0
  160.8380  204.3280  146.2650 C   0  0  0  0  0  2  0  0  0  0  0  0
  160.8100  202.3120  149.7990 C   0  0  0  0  0  2  0  0  0  0  0  0
  1 18  1  0  0  0  0
  2  4  1  0  0  0  0
  3  7  1  0  0  0  0
  3 19  1  0  0  0  0
  4 10  1  0  0  0  0
  4 12  2  0  0  0  0
  5  9  1  1  0  0  0
  5  6  1  0  0  0  0
  7 20  1  6  0  0  0
  7 19  1  0  0  0  0
  8 12  1  0  0  0  0
  8 21  1  0  0  0  0
  9 11  2  0  0  0  0
 10 38  1  6  0  0  0
 10  5  1  0  0  0  0
 11  1  2  0  0  0  0
 12 17  1  0  0  0  0
 14  8  2  0  0  0  0
 15 13  1  0  0  0  0
 16  2  2  0  0  0  0
 16 14  1  0  0  0  0
 17  6  1  0  0  0  0
 17 20  1  1  0  0  0
 18 15  1  0  0  0  0
 19 13  2  0  0  0  0
 21 23  1  0  0  0  0
 21 22  2  0  0  0  0
 24 30  1  0  0  0  0
 25 24  2  0  0  0  0
 25 31  1  0  0  0  0
 26 25  1  0  0  0  0
 27 28  2  0  0  0  0
 28 23  1  0  0  0  0
 28 26  1  0  0  0  0
 30 29  2  0  0  0  0
 31 29  1  0  0  0  0
 32 33  2  0  0  0  0
 32 16  1  0  0  0  0
 34 32  1  0  0  0  0
 35 34  1  0  0  0  0
 36 35  1  0  0  0  0
 38 37  1  1  0  0  0
 38 39  1  0  0  0  0
 40 41  1  0  0  0  0
 40 39  1  0  0  0  0
 42 44  1  6  0  0  0
 42 46  1  0  0  0  0
 42 43  1  0  0  0  0
 43 49  1  0  0  0  0
 44 48  1  0  0  0  0
 46 41  1  1  0  0  0
 46 47  1  0  0  0  0
 47 45  1  0  0  0  0
 48 46  1  0  0  0  0
 49 45  1  0  0  0  0
M  END
>  <MODEL>
1

>  <REMARK>
 VINA RESULT:      -5.7      0.000      0.000
  Name = 
  11 active torsions:
  status: ('A' for Active; 'I' for Inactive)
    1  A    between atoms: C_6  and  O_13
    2  A    between atoms: C_12  and  C_21
    3  A    between atoms: O_13  and  C_23
    4  A    between atoms: C_17  and  C_39
    5  A    between atoms: C_21  and  C_48
    6  A    between atoms: C_23  and  C_28
    7  A    between atoms: C_24  and  C_32
    8  A    between atoms: C_24  and  C_47
    9  A    between atoms: C_36  and  C_48
   10  A    between atoms: C_39  and  O_45
   11  A    between atoms: O_45  and  C_47
                            x       y       z     vdW  Elec       q    Type
                         _______ _______ _______ _____ _____    ______ ____

>  <TORSDO>
F 11

$$$$
=
 OpenBabel11072411443D

 49 55  0  0  1  0  0  0  0  0999 V2000
  160.3410  214.4380  148.9260 C   0  0  0  0  0  3  0  0  0  0  0  0
  159.9690  209.7610  154.6080 C   0  0  0  0  0  3  0  0  0  0  0  0
  161.3470  209.1190  148.4840 O   0  0  0  0  0  0  0  0  0  0  0  0
  160.1180  210.1810  153.2700 C   0  0  0  0  0  0  0  0  0  0  0  0
  159.8180  211.8340  151.4350 C   0  0  2  0  0  3  0  0  0  0  0  0
  160.9900  211.2220  150.9090 O   0  0  0  0  0  0  0  0  0  0  0  0
  162.5940  209.4300  148.9670 C   0  0  1  0  0  3  0  0  0  0  0  0
  161.2580  208.0450  152.8020 C   0  0  0  0  0  0  0  0  0  0  0  0
  159.9780  213.3130  151.2590 C   0  0  0  0  0  3  0  0  0  0  0  0
  159.6110  211.3950  152.8810 C   0  0  1  0  0  3  0  0  0  0  0  0
  160.1320  213.8480  150.0770 C   0  0  0  0  0  0  0  0  0  0  0  0
  160.8950  209.3610  152.3810 C   0  0  0  0  0  0  0  0  0  0  0  0
  161.8080  211.7630  148.1410 N   0  0  0  0  0  0  0  0  0  0  0  0
  161.1350  207.7070  154.1430 C   0  0  0  0  0  3  0  0  0  0  0  0
  160.5730  212.2750  147.5740 C   0  0  0  0  0  2  0  0  0  0  0  0
  160.5390  208.5640  155.0580 C   0  0  0  0  0  0  0  0  0  0  0  0
  161.4070  209.9400  151.2590 C   0  0  2  0  0  3  0  0  0  0  0  0
  160.5360  213.7240  147.6960 N   0  0  0  0  0  2  0  0  0  0  0  0
  161.9150  210.5110  148.4390 C   0  0  0  0  0  0  0  0  0  0  0  0
  162.6070  209.3910  150.5150 C   0  0  0  0  0  2  0  0  0  0  0  0
  161.6510  206.9510  151.8720 C   0  0  0  0  0  0  0  0  0  0  0  0
  162.8680  206.7520  151.6160 O   0  0  0  0  0  0  0  0  0  0  0  0
  160.6240  206.1770  151.0970 C   0  0  0  0  0  2  0  0  0  0  0  0
  161.2610  203.3790  147.7840 N   0  0  0  0  0  0  0  0  0  0  0  0
  161.2690  204.2360  148.7530 C   0  0  0  0  0  0  0  0  0  0  0  0
  161.0200  203.8410  150.1080 N   0  0  0  0  0  2  0  0  0  0  0  0
  160.7830  204.1630  152.3940 O   0  0  0  0  0  0  0  0  0  0  0  0
  160.7980  204.6890  151.2450 C   0  0  0  0  0  0  0  0  0  0  0  0
  161.6990  205.3870  146.8350 N   0  0  0  0  0  0  0  0  0  0  0  0
  161.5230  204.1260  146.6060 C   0  0  0  0  0  3  0  0  0  0  0  0
  161.5570  205.6140  148.2670 C   0  0  0  0  0  2  0  0  0  0  0  0
  160.4930  208.1900  156.4820 C   0  0  0  0  0  0  0  0  0  0  0  0
  159.3700  208.0080  157.0460 O   0  0  0  0  0  0  0  0  0  0  0  0
  161.6830  207.9770  157.1980 O   0  0  0  0  0  0  0  0  0  0  0  0
  162.7100  208.9700  157.2120 C   0  0  0  0  0  2  0  0  0  0  0  0
  162.0820  210.3450  157.2580 C   0  0  0  0  0  1  0  0  0  0  0  0
  158.0970  213.3830  153.1290 C   0  0  0  0  0  1  0  0  0  0  0  0
  158.6360  212.1280  153.8010 C   0  0  2  0  0  3  0  0  0  0  0  0
  159.2180  212.5000  155.0180 O   0  0  0  0  0  0  0  0  0  0  0  0
  158.5660  213.6790  155.3930 C   0  0  0  0  0  2  0  0  0  0  0  0
  157.8810  213.4860  156.7480 C   0  0  0  0  0  2  0  0  0  0  0  0
  155.8360  213.3290  155.2410 C   0  0  1  0  0  3  0  0  0  0  0  0
  154.9280  212.2030  154.7260 C   0  0  0  0  0  2  0  0  0  0  0  0
  154.9330  214.4020  155.8280 C   0  0  0  0  0  2  0  0  0  0  0  0
  156.4230  210.6240  156.1010 C   0  0  0  0  0  2  0  0  0  0  0  0
  156.4040  213.0620  156.6440 C   0  0  1  0  0  0  0  0  0  0  0  0
  156.1050  211.6530  157.1790 C   0  0  0  0  0  2  0  0  0  0  0  0
  155.4650  214.1060  157.2250 C   0  0  0  0  0  2  0  0  0  0  0  0
  155.5820  210.8180  154.8320 C   0  0  0  0  0  2  0  0  0  0  0  0
  1 11  2  0  0  0  0
  2 16  1  0  0  0  0
  3  7  1  0  0  0  0
  4  2  2  0  0  0  0
  5  9  1  1  0  0  0
  5 10  1  0  0  0  0
  6 17  1  0  0  0  0
  6  5  1  0  0  0  0
  7 20  1  1  0  0  0
  8 14  1  0  0  0  0
 10  4  1  0  0  0  0
 10 38  1  6  0  0  0
 11  9  2  0  0  0  0
 12  8  2  0  0  0  0
 12  4  1  0  0  0  0
 13 19  2  0  0  0  0
 14 16  2  0  0  0  0
 15 18  1  0  0  0  0
 15 13  1  0  0  0  0
 16 32  1  0  0  0  0
 17 20  1  1  0  0  0
 17 12  1  0  0  0  0
 18  1  1  0  0  0  0
 19  3  1  0  0  0  0
 19  7  1  0  0  0  0
 21  8  1  0  0  0  0
 22 21  2  0  0  0  0
 23 28  1  0  0  0  0
 23 21  1  0  0  0  0
 24 25  2  0  0  0  0
 25 26  1  0  0  0  0
 26 28  1  0  0  0  0
 28 27  2  0  0  0  0
 29 31  1  0  0  0  0
 30 29  2  0  0  0  0
 30 24  1  0  0  0  0
 31 25  1  0  0  0  0
 32 33  2  0  0  0  0
 32 34  1  0  0  0  0
 34 35  1  0  0  0  0
 35 36  1  0  0  0  0
 38 37  1  6  0  0  0
 38 39  1  0  0  0  0
 39 40  1  0  0  0  0
 40 41  1  0  0  0  0
 42 43  1  1  0  0  0
 42 44  1  0  0  0  0
 42 46  1  0  0  0  0
 43 49  1  0  0  0  0
 44 48  1  0  0  0  0
 45 47  1  0  0  0  0
 46 41  1  1  0  0  0
 46 47  1  0  0  0  0
 46 48  1  0  0  0  0
 49 45  1  0  0  0  0
M  END
>  <MODEL>
2

>  <REMARK>
 VINA RESULT:      -4.9      3.073     10.019
  Name = 
  11 active torsions:
  status: ('A' for Active; 'I' for Inactive)
    1  A    between atoms: C_6  and  O_13
    2  A    between atoms: C_12  and  C_21
    3  A    between atoms: O_13  and  C_23
    4  A    between atoms: C_17  and  C_39
    5  A    between atoms: C_21  and  C_48
    6  A    between atoms: C_23  and  C_28
    7  A    between atoms: C_24  and  C_32
    8  A    between atoms: C_24  and  C_47
    9  A    between atoms: C_36  and  C_48
   10  A    between atoms: C_39  and  O_45
   11  A    between atoms: O_45  and  C_47
                            x       y       z     vdW  Elec       q    Type
                         _______ _______ _______ _____ _____    ______ ____

>  <TORSDO>
F 11

$$$$
=
 OpenBabel11072411443D

 49 55  0  0  1  0  0  0  0  0999 V2000
  161.7690  203.2200  151.5580 C   0  0  0  0  0  3  0  0  0  0  0  0
  161.9890  210.0170  148.7220 C   0  0  0  0  0  3  0  0  0  0  0  0
  159.7520  207.5780  154.0940 O   0  0  0  0  0  0  0  0  0  0  0  0
  161.6560  208.9910  149.6310 C   0  0  0  0  0  0  0  0  0  0  0  0
  161.3450  206.5980  150.2310 C   0  0  2  0  0  3  0  0  0  0  0  0
  161.6610  207.0520  151.5420 O   0  0  0  0  0  0  0  0  0  0  0  0
  161.0490  207.8170  154.4740 C   0  0  1  0  0  3  0  0  0  0  0  0
  161.2480  210.7310  151.3310 C   0  0  0  0  0  0  0  0  0  0  0  0
  162.0850  205.3120  150.0210 C   0  0  0  0  0  3  0  0  0  0  0  0
  161.6770  207.6850  149.2140 C   0  0  1  0  0  3  0  0  0  0  0  0
  161.8860  204.2750  150.7900 C   0  0  0  0  0  0  0  0  0  0  0  0
  161.4080  209.3500  151.0010 C   0  0  0  0  0  0  0  0  0  0  0  0
  161.1900  205.3000  153.8510 N   0  0  0  0  0  0  0  0  0  0  0  0
  161.6390  211.6950  150.4120 C   0  0  0  0  0  3  0  0  0  0  0  0
  160.2550  204.3390  153.2940 C   0  0  0  0  0  2  0  0  0  0  0  0
  162.0510  211.3550  149.1310 C   0  0  0  0  0  0  0  0  0  0  0  0
  161.5220  208.3770  151.9470 C   0  0  2  0  0  3  0  0  0  0  0  0
  160.9800  203.1980  152.7560 N   0  0  0  0  0  2  0  0  0  0  0  0
  160.8140  206.5130  154.0820 C   0  0  0  0  0  0  0  0  0  0  0  0
  161.7840  208.6690  153.4100 C   0  0  0  0  0  2  0  0  0  0  0  0
  160.5660  211.2200  152.5600 C   0  0  0  0  0  0  0  0  0  0  0  0
  161.2470  211.5320  153.5730 O   0  0  0  0  0  0  0  0  0  0  0  0
  159.0700  211.1950  152.6880 C   0  0  0  0  0  2  0  0  0  0  0  0
  156.6690  213.2940  155.6950 N   0  0  0  0  0  0  0  0  0  0  0  0
  157.5350  212.7480  154.9040 C   0  0  0  0  0  0  0  0  0  0  0  0
  157.6970  213.1870  153.5490 N   0  0  0  0  0  2  0  0  0  0  0  0
  158.6380  213.1930  151.4280 O   0  0  0  0  0  0  0  0  0  0  0  0
  158.4590  212.5580  152.5060 C   0  0  0  0  0  0  0  0  0  0  0  0
  157.6800  211.6700  156.9060 N   0  0  0  0  0  0  0  0  0  0  0  0
  156.7790  212.5970  156.9270 C   0  0  0  0  0  3  0  0  0  0  0  0
  158.2880  211.6550  155.5810 C   0  0  0  0  0  2  0  0  0  0  0  0
  162.5230  212.4070  148.2150 C   0  0  0  0  0  0  0  0  0  0  0  0
  163.7670  212.5280  147.9870 O   0  0  0  0  0  0  0  0  0  0  0  0
  161.6020  213.2350  147.5520 O   0  0  0  0  0  0  0  0  0  0  0  0
  160.3470  212.7170  147.1080 C   0  0  0  0  0  2  0  0  0  0  0  0
  159.2270  213.3750  147.8830 C   0  0  0  0  0  1  0  0  0  0  0  0
  160.4120  206.8790  147.2000 C   0  0  0  0  0  1  0  0  0  0  0  0
  161.7540  207.3770  147.7190 C   0  0  2  0  0  3  0  0  0  0  0  0
  162.7230  206.4150  147.4150 O   0  0  0  0  0  0  0  0  0  0  0  0
  162.3330  205.8740  146.1860 C   0  0  0  0  0  2  0  0  0  0  0  0
  162.4860  204.3520  146.2160 C   0  0  0  0  0  2  0  0  0  0  0  0
  161.1090  202.4380  145.2560 C   0  0  1  0  0  3  0  0  0  0  0  0
  160.4560  201.1630  145.8070 C   0  0  0  0  0  2  0  0  0  0  0  0
  160.0440  203.1830  144.4690 C   0  0  0  0  0  2  0  0  0  0  0  0
  161.3870  201.8990  148.0900 C   0  0  0  0  0  2  0  0  0  0  0  0
  161.1470  203.5930  146.2690 C   0  0  1  0  0  0  0  0  0  0  0  0
  160.6950  203.1950  147.6830 C   0  0  0  0  0  2  0  0  0  0  0  0
  160.0500  204.3080  145.4980 C   0  0  0  0  0  2  0  0  0  0  0  0
  161.0470  200.7290  147.1560 C   0  0  0  0  0  2  0  0  0  0  0  0
  1 18  1  0  0  0  0
  2 16  2  0  0  0  0
  2  4  1  0  0  0  0
  3  7  1  0  0  0  0
  4 12  2  0  0  0  0
  5  9  1  6  0  0  0
  5  6  1  0  0  0  0
  6 17  1  0  0  0  0
  7 20  1  6  0  0  0
  8 21  1  0  0  0  0
  9 11  2  0  0  0  0
 10 38  1  6  0  0  0
 10  4  1  0  0  0  0
 10  5  1  0  0  0  0
 11  1  2  0  0  0  0
 12  8  1  0  0  0  0
 12 17  1  0  0  0  0
 13 19  2  0  0  0  0
 14  8  2  0  0  0  0
 15 13  1  0  0  0  0
 16 14  1  0  0  0  0
 17 20  1  6  0  0  0
 18 15  1  0  0  0  0
 19  3  1  0  0  0  0
 19  7  1  0  0  0  0
 21 23  1  0  0  0  0
 21 22  2  0  0  0  0
 24 30  1  0  0  0  0
 25 31  1  0  0  0  0
 25 24  2  0  0  0  0
 26 25  1  0  0  0  0
 27 28  2  0  0  0  0
 28 23  1  0  0  0  0
 28 26  1  0  0  0  0
 29 30  2  0  0  0  0
 31 29  1  0  0  0  0
 32 16  1  0  0  0  0
 33 32  2  0  0  0  0
 34 32  1  0  0  0  0
 35 34  1  0  0  0  0
 35 36  1  0  0  0  0
 38 37  1  1  0  0  0
 39 38  1  0  0  0  0
 40 41  1  0  0  0  0
 40 39  1  0  0  0  0
 42 44  1  6  0  0  0
 42 43  1  0  0  0  0
 42 46  1  0  0  0  0
 43 49  1  0  0  0  0
 44 48  1  0  0  0  0
 46 41  1  6  0  0  0
 46 47  1  0  0  0  0
 47 45  1  0  0  0  0
 48 46  1  0  0  0  0
 49 45  1  0  0  0  0
M  END
>  <MODEL>
3

>  <REMARK>
 VINA RESULT:      -4.6      1.703      2.344
  Name = 
  11 active torsions:
  status: ('A' for Active; 'I' for Inactive)
    1  A    between atoms: C_6  and  O_13
    2  A    between atoms: C_12  and  C_21
    3  A    between atoms: O_13  and  C_23
    4  A    between atoms: C_17  and  C_39
    5  A    between atoms: C_21  and  C_48
    6  A    between atoms: C_23  and  C_28
    7  A    between atoms: C_24  and  C_32
    8  A    between atoms: C_24  and  C_47
    9  A    between atoms: C_36  and  C_48
   10  A    between atoms: C_39  and  O_45
   11  A    between atoms: O_45  and  C_47
                            x       y       z     vdW  Elec       q    Type
                         _______ _______ _______ _____ _____    ______ ____

>  <TORSDO>
F 11

$$$$
=
 OpenBabel11072411443D

 49 55  0  0  1  0  0  0  0  0999 V2000
  160.8790  213.1540  147.2760 C   0  0  0  0  0  3  0  0  0  0  0  0
  161.6820  207.1410  151.4590 C   0  0  0  0  0  3  0  0  0  0  0  0
  160.8000  213.2640  152.7050 O   0  0  0  0  0  0  0  0  0  0  0  0
  161.5460  208.5120  151.1550 C   0  0  0  0  0  0  0  0  0  0  0  0
  161.6770  210.4430  149.5920 C   0  0  2  0  0  3  0  0  0  0  0  0
  160.6560  210.9800  150.4250 O   0  0  0  0  0  0  0  0  0  0  0  0
  159.4920  212.8650  152.5810 C   0  0  1  0  0  3  0  0  0  0  0  0
  160.8070  208.8800  153.4780 C   0  0  0  0  0  0  0  0  0  0  0  0
  161.2840  210.7310  148.1750 C   0  0  0  0  0  3  0  0  0  0  0  0
  161.8670  208.9600  149.8980 C   0  0  1  0  0  3  0  0  0  0  0  0
  161.1140  211.9550  147.7490 C   0  0  0  0  0  0  0  0  0  0  0  0
  160.9710  209.3760  152.1490 C   0  0  0  0  0  0  0  0  0  0  0  0
  159.9280  213.8160  150.2050 N   0  0  0  0  0  0  0  0  0  0  0  0
  160.9050  207.5140  153.7060 C   0  0  0  0  0  3  0  0  0  0  0  0
  161.0910  214.3580  149.5270 C   0  0  0  0  0  2  0  0  0  0  0  0
  161.2930  206.6350  152.7050 C   0  0  0  0  0  0  0  0  0  0  0  0
  160.4380  210.5600  151.7360 C   0  0  2  0  0  3  0  0  0  0  0  0
  160.8800  214.3370  148.0880 N   0  0  0  0  0  2  0  0  0  0  0  0
  160.0120  213.4350  151.4360 C   0  0  0  0  0  0  0  0  0  0  0  0
  159.3930  211.3200  152.5260 C   0  0  0  0  0  2  0  0  0  0  0  0
  160.6580  209.7480  154.6790 C   0  0  0  0  0  0  0  0  0  0  0  0
  161.6800  210.1210  155.3130 O   0  0  0  0  0  0  0  0  0  0  0  0
  159.3080  210.0570  155.2580 C   0  0  0  0  0  2  0  0  0  0  0  0
  156.6160  213.4940  155.6490 N   0  0  0  0  0  0  0  0  0  0  0  0
  157.2680  212.3780  155.6270 C   0  0  0  0  0  0  0  0  0  0  0  0
  158.4460  212.1780  156.4200 N   0  0  0  0  0  2  0  0  0  0  0  0
  160.2510  210.9870  157.2600 O   0  0  0  0  0  0  0  0  0  0  0  0
  159.3780  211.0880  156.3520 C   0  0  0  0  0  0  0  0  0  0  0  0
  155.5170  212.1620  154.1870 N   0  0  0  0  0  0  0  0  0  0  0  0
  155.5400  213.3310  154.7390 C   0  0  0  0  0  3  0  0  0  0  0  0
  156.6430  211.3930  154.7000 C   0  0  0  0  0  2  0  0  0  0  0  0
  161.3150  205.1880  152.9770 C   0  0  0  0  0  0  0  0  0  0  0  0
  160.6790  204.7280  153.9750 O   0  0  0  0  0  0  0  0  0  0  0  0
  161.9860  204.3130  152.1060 O   0  0  0  0  0  0  0  0  0  0  0  0
  161.3140  203.1830  151.5510 C   0  0  0  0  0  2  0  0  0  0  0  0
  160.7660  203.5410  150.1870 C   0  0  0  0  0  1  0  0  0  0  0  0
  163.1940  208.8350  147.7700 C   0  0  0  0  0  1  0  0  0  0  0  0
  162.6490  208.0490  148.9550 C   0  0  2  0  0  3  0  0  0  0  0  0
  161.8760  206.9940  148.4590 O   0  0  0  0  0  0  0  0  0  0  0  0
  161.6300  207.3130  147.1200 C   0  0  0  0  0  2  0  0  0  0  0  0
  160.6930  206.2740  146.5000 C   0  0  0  0  0  2  0  0  0  0  0  0
  161.7480  203.9580  146.5630 C   0  0  1  0  0  3  0  0  0  0  0  0
  161.5190  202.6210  145.8450 C   0  0  0  0  0  2  0  0  0  0  0  0
  163.2280  204.2850  146.4410 C   0  0  0  0  0  2  0  0  0  0  0  0
  159.6330  203.8350  144.5850 C   0  0  0  0  0  2  0  0  0  0  0  0
  161.4220  205.1820  145.6940 C   0  0  1  0  0  0  0  0  0  0  0  0
  160.7610  204.8340  144.3510 C   0  0  0  0  0  2  0  0  0  0  0  0
  162.9060  205.4730  145.5430 C   0  0  0  0  0  2  0  0  0  0  0  0
  160.1260  202.5220  145.2050 C   0  0  0  0  0  2  0  0  0  0  0  0
  1 11  2  0  0  0  0
  1 18  1  0  0  0  0
  2 16  1  0  0  0  0
  4  2  2  0  0  0  0
  4 12  1  0  0  0  0
  5  9  1  6  0  0  0
  5 10  1  0  0  0  0
  5  6  1  0  0  0  0
  6 17  1  0  0  0  0
  7 20  1  6  0  0  0
  7  3  1  0  0  0  0
  8 14  1  0  0  0  0
  8 21  1  0  0  0  0
 10 38  1  1  0  0  0
 10  4  1  0  0  0  0
 11  9  2  0  0  0  0
 12  8  2  0  0  0  0
 13 19  2  0  0  0  0
 15 13  1  0  0  0  0
 16 32  1  0  0  0  0
 16 14  2  0  0  0  0
 17 12  1  0  0  0  0
 17 20  1  6  0  0  0
 18 15  1  0  0  0  0
 19  7  1  0  0  0  0
 19  3  1  0  0  0  0
 21 23  1  0  0  0  0
 21 22  2  0  0  0  0
 23 28  1  0  0  0  0
 25 24  2  0  0  0  0
 25 26  1  0  0  0  0
 28 26  1  0  0  0  0
 28 27  2  0  0  0  0
 29 31  1  0  0  0  0
 29 30  2  0  0  0  0
 30 24  1  0  0  0  0
 31 25  1  0  0  0  0
 32 33  2  0  0  0  0
 34 32  1  0  0  0  0
 35 34  1  0  0  0  0
 36 35  1  0  0  0  0
 38 37  1  6  0  0  0
 39 38  1  0  0  0  0
 40 39  1  0  0  0  0
 41 40  1  0  0  0  0
 42 43  1  6  0  0  0
 44 42  1  0  0  0  0
 45 49  1  0  0  0  0
 46 41  1  1  0  0  0
 46 42  1  0  0  0  0
 47 45  1  0  0  0  0
 47 46  1  0  0  0  0
 48 46  1  0  0  0  0
 48 44  1  0  0  0  0
 49 43  1  0  0  0  0
M  END
>  <MODEL>
4

>  <REMARK>
 VINA RESULT:      -2.8      2.322      5.773
  Name = 
  11 active torsions:
  status: ('A' for Active; 'I' for Inactive)
    1  A    between atoms: C_6  and  O_13
    2  A    between atoms: C_12  and  C_21
    3  A    between atoms: O_13  and  C_23
    4  A    between atoms: C_17  and  C_39
    5  A    between atoms: C_21  and  C_48
    6  A    between atoms: C_23  and  C_28
    7  A    between atoms: C_24  and  C_32
    8  A    between atoms: C_24  and  C_47
    9  A    between atoms: C_36  and  C_48
   10  A    between atoms: C_39  and  O_45
   11  A    between atoms: O_45  and  C_47
                            x       y       z     vdW  Elec       q    Type
                         _______ _______ _______ _____ _____    ______ ____

>  <TORSDO>
F 11

$$$$
