=
 OpenBabel11072412153D

 38 41  0  0  1  0  0  0  0  0999 V2000
  161.1590  205.8220  153.8160 C   0  0  0  0  0  3  0  0  0  0  0  0
  161.1660  204.5970  150.2280 C   0  0  2  0  0  3  0  0  0  0  0  0
  160.9680  208.2490  153.8270 C   0  0  0  0  0  0  0  0  0  0  0  0
  161.3610  205.8240  152.4290 C   0  0  0  0  0  0  0  0  0  0  0  0
  161.2130  208.2500  152.4470 C   0  0  0  0  0  3  0  0  0  0  0  0
  162.2580  208.2680  148.2510 C   0  0  0  0  0  3  0  0  0  0  0  0
  161.6090  205.8660  149.5460 C   0  0  0  0  0  0  0  0  0  0  0  0
  161.6710  207.0710  150.2800 C   0  0  0  0  0  0  0  0  0  0  0  0
  161.8660  205.8750  148.1630 C   0  0  0  0  0  0  0  0  0  0  0  0
  161.4130  207.0540  151.7410 C   0  0  0  0  0  0  0  0  0  0  0  0
  161.1490  203.2910  152.3800 C   0  0  0  0  0  1  0  0  0  0  0  0
  161.9970  208.2650  149.6220 C   0  0  0  0  0  3  0  0  0  0  0  0
  162.1920  207.0780  147.5260 C   0  0  0  0  0  3  0  0  0  0  0  0
  160.9560  207.0200  154.5050 C   0  0  0  0  0  3  0  0  0  0  0  0
  159.7700  204.5140  150.1830 O   0  0  0  0  0  1  0  0  0  0  0  0
  161.6650  204.5430  151.6800 C   0  0  1  0  0  3  0  0  0  0  0  0
  158.9950  208.6830  155.8700 O   0  0  0  0  0  0  0  0  0  0  0  0
  159.6940  209.6630  155.5010 C   0  0  0  0  0  0  0  0  0  0  0  0
  160.7710  209.4850  154.5540 N   0  0  0  0  0  0  0  0  0  0  0  0
  161.6910  210.5950  154.3130 C   0  0  0  0  0  2  0  0  0  0  0  0
  162.7490  210.6400  155.3990 C   0  0  0  0  0  1  0  0  0  0  0  0
  159.4020  211.0040  156.0990 C   0  0  0  0  0  2  0  0  0  0  0  0
  157.4190  211.5700  157.2610 O   0  0  0  0  0  1  0  0  0  0  0  0
  157.9210  211.3420  155.9780 C   0  0  1  0  0  3  0  0  0  0  0  0
  158.4710  212.4170  153.7740 C   0  0  0  0  0  2  0  0  0  0  0  0
  154.5990  213.9520  153.2690 O   0  0  0  0  0  1  0  0  0  0  0  0
  158.3230  213.6940  152.9600 C   0  0  0  0  0  2  0  0  0  0  0  0
  156.8760  213.9830  152.7070 C   0  0  0  0  0  3  0  0  0  0  0  0
  156.2060  212.8180  154.8110 C   0  0  1  0  0  3  0  0  0  0  0  0
  155.9150  213.6240  153.5640 C   0  0  0  0  0  0  0  0  0  0  0  0
  157.7060  212.5760  155.0870 C   0  0  1  0  0  3  0  0  0  0  0  0
  155.6210  213.4470  155.9120 O   0  0  0  0  0  1  0  0  0  0  0  0
  161.7760  204.6630  147.4050 N   0  0  0  0  0  2  0  0  0  0  0  0
  160.9580  204.5500  146.3290 O   0  0  0  0  0  0  0  0  0  0  0  0
  161.5080  203.5150  145.5670 C   0  0  0  0  0  2  0  0  0  0  0  0
  160.8610  201.5820  147.0490 N   0  0  0  0  0  1  0  0  0  0  0  0
  160.7450  202.2600  145.8040 C   0  0  0  0  0  0  0  0  0  0  0  0
  160.0260  201.7780  144.8910 O   0  0  0  0  0  0  0  0  0  0  0  0
  1 14  1  0  0  0  0
  2 15  1  1  0  0  0
  2 16  1  0  0  0  0
  3 14  2  0  0  0  0
  3 19  1  0  0  0  0
  4  1  2  0  0  0  0
  5  3  1  0  0  0  0
  6 12  1  0  0  0  0
  7  2  1  0  0  0  0
  7  8  1  0  0  0  0
  8 10  1  0  0  0  0
  9  7  2  0  0  0  0
 10  4  1  0  0  0  0
 10  5  2  0  0  0  0
 12  8  2  0  0  0  0
 13  9  1  0  0  0  0
 13  6  2  0  0  0  0
 16 11  1  1  0  0  0
 16  4  1  0  0  0  0
 18 17  2  0  0  0  0
 18 22  1  0  0  0  0
 19 18  1  0  0  0  0
 20 19  1  0  0  0  0
 20 21  1  0  0  0  0
 24 22  1  0  0  0  0
 24 23  1  1  0  0  0
 25 31  1  0  0  0  0
 26 30  1  0  0  0  0
 27 25  1  0  0  0  0
 28 27  1  0  0  0  0
 28 30  2  0  0  0  0
 29 31  1  0  0  0  0
 29 32  1  1  0  0  0
 30 29  1  0  0  0  0
 31 24  1  1  0  0  0
 33  9  1  0  0  0  0
 34 33  1  0  0  0  0
 35 37  1  0  0  0  0
 35 34  1  0  0  0  0
 37 36  1  0  0  0  0
 38 37  2  0  0  0  0
M  END
>  <MODEL>
1

>  <REMARK>
 VINA RESULT:      -8.6      0.000      0.000
  Name = 
  9 active torsions:
  status: ('A' for Active; 'I' for Inactive)
    1  A    between atoms: O_3  and  C_4
    2  A    between atoms: O_3  and  N_29
    3  A    between atoms: C_4  and  C_12
    4  A    between atoms: C_7  and  C_20
    5  A    between atoms: C_7  and  C_25
    6  A    between atoms: C_11  and  N_33
    7  A    between atoms: C_13  and  N_33
    8  A    between atoms: C_20  and  C_34
    9  A    between atoms: C_21  and  N_29
                            x       y       z     vdW  Elec       q    Type
                         _______ _______ _______ _____ _____    ______ ____

>  <TORSDO>
F 9

$$$$
=
 OpenBabel11072412153D

 38 41  0  0  1  0  0  0  0  0999 V2000
  160.8750  206.8760  154.3390 C   0  0  0  0  0  3  0  0  0  0  0  0
  160.1550  210.0930  156.2110 C   0  0  2  0  0  3  0  0  0  0  0  0
  161.3560  207.4010  152.0110 C   0  0  0  0  0  0  0  0  0  0  0  0
  160.4580  208.1940  154.5710 C   0  0  0  0  0  0  0  0  0  0  0  0
  160.8990  208.7070  152.2360 C   0  0  0  0  0  3  0  0  0  0  0  0
  159.2160  212.6400  152.8630 C   0  0  0  0  0  3  0  0  0  0  0  0
  159.7660  210.9640  155.0440 C   0  0  0  0  0  0  0  0  0  0  0  0
  159.9660  210.4990  153.7260 C   0  0  0  0  0  0  0  0  0  0  0  0
  159.2980  212.2730  155.2610 C   0  0  0  0  0  0  0  0  0  0  0  0
  160.4480  209.1130  153.5010 C   0  0  0  0  0  0  0  0  0  0  0  0
  160.3540  207.7350  157.0700 C   0  0  0  0  0  1  0  0  0  0  0  0
  159.6870  211.3460  152.6430 C   0  0  0  0  0  3  0  0  0  0  0  0
  159.0220  213.1010  154.1660 C   0  0  0  0  0  3  0  0  0  0  0  0
  161.3270  206.4870  153.0760 C   0  0  0  0  0  3  0  0  0  0  0  0
  161.5060  210.3010  156.5090 O   0  0  0  0  0  1  0  0  0  0  0  0
  159.8880  208.6110  155.9110 C   0  0  1  0  0  3  0  0  0  0  0  0
  160.5110  205.0250  150.6340 O   0  0  0  0  0  0  0  0  0  0  0  0
  161.4180  205.7240  150.1120 C   0  0  0  0  0  0  0  0  0  0  0  0
  161.8130  206.9830  150.7030 N   0  0  0  0  0  0  0  0  0  0  0  0
  162.7120  207.8620  149.9590 C   0  0  0  0  0  2  0  0  0  0  0  0
  161.9470  208.5890  148.8690 C   0  0  0  0  0  1  0  0  0  0  0  0
  162.0480  205.2340  148.8450 C   0  0  0  0  0  2  0  0  0  0  0  0
  160.8900  205.4090  146.7870 O   0  0  0  0  0  1  0  0  0  0  0  0
  161.0050  204.6090  147.9260 C   0  0  1  0  0  3  0  0  0  0  0  0
  160.9670  202.1980  148.6370 C   0  0  0  0  0  2  0  0  0  0  0  0
  160.1560  200.8050  144.7630 O   0  0  0  0  0  1  0  0  0  0  0  0
  161.4580  200.8050  148.2760 C   0  0  0  0  0  2  0  0  0  0  0  0
  160.9100  200.3900  146.9460 C   0  0  0  0  0  3  0  0  0  0  0  0
  160.7770  202.7650  146.1860 C   0  0  1  0  0  3  0  0  0  0  0  0
  160.6380  201.2730  145.9790 C   0  0  0  0  0  0  0  0  0  0  0  0
  161.3950  203.1730  147.5400 C   0  0  1  0  0  3  0  0  0  0  0  0
  161.5320  203.3050  145.1430 O   0  0  0  0  0  1  0  0  0  0  0  0
  159.1200  212.7640  156.5940 N   0  0  0  0  0  2  0  0  0  0  0  0
  157.9650  213.3480  156.9950 O   0  0  0  0  0  0  0  0  0  0  0  0
  157.0970  212.2850  157.2610 C   0  0  0  0  0  2  0  0  0  0  0  0
  155.6360  210.9340  155.7140 N   0  0  0  0  0  1  0  0  0  0  0  0
  156.0650  212.2040  156.1920 C   0  0  0  0  0  0  0  0  0  0  0  0
  155.5960  213.2560  155.6870 O   0  0  0  0  0  0  0  0  0  0  0  0
  1  4  1  0  0  0  0
  2 15  1  6  0  0  0
  3  5  2  0  0  0  0
  3 14  1  0  0  0  0
  4 16  1  0  0  0  0
  5 10  1  0  0  0  0
  6 13  1  0  0  0  0
  7  9  1  0  0  0  0
  7  2  1  0  0  0  0
  8  7  2  0  0  0  0
  9 33  1  0  0  0  0
 10  8  1  0  0  0  0
 10  4  2  0  0  0  0
 12  6  2  0  0  0  0
 12  8  1  0  0  0  0
 13  9  2  0  0  0  0
 14  1  2  0  0  0  0
 16  2  1  0  0  0  0
 16 11  1  1  0  0  0
 18 17  2  0  0  0  0
 18 19  1  0  0  0  0
 19  3  1  0  0  0  0
 20 19  1  0  0  0  0
 21 20  1  0  0  0  0
 22 18  1  0  0  0  0
 24 23  1  6  0  0  0
 24 22  1  0  0  0  0
 26 30  1  0  0  0  0
 27 25  1  0  0  0  0
 28 27  1  0  0  0  0
 29 32  1  6  0  0  0
 29 31  1  0  0  0  0
 30 29  1  0  0  0  0
 30 28  2  0  0  0  0
 31 24  1  1  0  0  0
 31 25  1  0  0  0  0
 33 34  1  0  0  0  0
 34 35  1  0  0  0  0
 36 37  1  0  0  0  0
 37 35  1  0  0  0  0
 38 37  2  0  0  0  0
M  END
>  <MODEL>
2

>  <REMARK>
 VINA RESULT:      -8.3      2.119     10.416
  Name = 
  9 active torsions:
  status: ('A' for Active; 'I' for Inactive)
    1  A    between atoms: O_3  and  C_4
    2  A    between atoms: O_3  and  N_29
    3  A    between atoms: C_4  and  C_12
    4  A    between atoms: C_7  and  C_20
    5  A    between atoms: C_7  and  C_25
    6  A    between atoms: C_11  and  N_33
    7  A    between atoms: C_13  and  N_33
    8  A    between atoms: C_20  and  C_34
    9  A    between atoms: C_21  and  N_29
                            x       y       z     vdW  Elec       q    Type
                         _______ _______ _______ _____ _____    ______ ____

>  <TORSDO>
F 9

$$$$
=
 OpenBabel11072412153D

 38 41  0  0  1  0  0  0  0  0999 V2000
  161.0460  205.9510  154.0910 C   0  0  0  0  0  3  0  0  0  0  0  0
  161.1500  205.0250  150.4160 C   0  0  2  0  0  3  0  0  0  0  0  0
  160.8030  208.3650  154.2970 C   0  0  0  0  0  0  0  0  0  0  0  0
  161.2760  206.0720  152.7140 C   0  0  0  0  0  0  0  0  0  0  0  0
  161.0750  208.4850  152.9260 C   0  0  0  0  0  3  0  0  0  0  0  0
  162.2040  208.8680  148.7700 C   0  0  0  0  0  3  0  0  0  0  0  0
  161.5800  206.3540  149.8500 C   0  0  0  0  0  0  0  0  0  0  0  0
  161.6020  207.4960  150.6810 C   0  0  0  0  0  0  0  0  0  0  0  0
  161.8640  206.4820  148.4780 C   0  0  0  0  0  0  0  0  0  0  0  0
  161.3150  207.3550  152.1300 C   0  0  0  0  0  0  0  0  0  0  0  0
  161.1170  203.5470  152.4540 C   0  0  0  0  0  1  0  0  0  0  0  0
  161.9160  208.7470  150.1300 C   0  0  0  0  0  3  0  0  0  0  0  0
  162.1780  207.7400  147.9480 C   0  0  0  0  0  3  0  0  0  0  0  0
  160.8040  207.0850  154.8710 C   0  0  0  0  0  3  0  0  0  0  0  0
  159.7570  204.9200  150.3340 O   0  0  0  0  0  1  0  0  0  0  0  0
  161.6220  204.8620  151.8690 C   0  0  1  0  0  3  0  0  0  0  0  0
  158.5010  210.0760  154.1310 O   0  0  0  0  0  0  0  0  0  0  0  0
  159.4310  210.4050  154.9130 C   0  0  0  0  0  0  0  0  0  0  0  0
  160.5660  209.5330  155.1170 N   0  0  0  0  0  0  0  0  0  0  0  0
  161.5140  209.8450  156.1850 C   0  0  0  0  0  2  0  0  0  0  0  0
  162.6950  210.6150  155.6250 C   0  0  0  0  0  1  0  0  0  0  0  0
  159.3090  211.7010  155.6510 C   0  0  0  0  0  2  0  0  0  0  0  0
  160.0810  212.3880  153.5210 O   0  0  0  0  0  1  0  0  0  0  0  0
  159.5660  212.8820  154.7210 C   0  0  1  0  0  3  0  0  0  0  0  0
  157.6250  213.2240  153.1610 C   0  0  0  0  0  2  0  0  0  0  0  0
  154.8790  213.7610  156.2880 O   0  0  0  0  0  1  0  0  0  0  0  0
  156.4110  214.0970  152.8860 C   0  0  0  0  0  2  0  0  0  0  0  0
  155.4430  214.0130  154.0250 C   0  0  0  0  0  3  0  0  0  0  0  0
  157.2830  213.5330  155.6420 C   0  0  1  0  0  3  0  0  0  0  0  0
  155.8380  213.7990  155.2840 C   0  0  0  0  0  0  0  0  0  0  0  0
  158.2750  213.6780  154.4680 C   0  0  1  0  0  3  0  0  0  0  0  0
  157.6620  214.3810  156.6850 O   0  0  0  0  0  1  0  0  0  0  0  0
  161.8150  205.3350  147.6220 N   0  0  0  0  0  2  0  0  0  0  0  0
  162.5330  205.2670  146.4740 O   0  0  0  0  0  0  0  0  0  0  0  0
  161.7290  204.5410  145.5900 C   0  0  0  0  0  2  0  0  0  0  0  0
  161.4250  205.6790  143.3610 N   0  0  0  0  0  1  0  0  0  0  0  0
  160.9910  205.4780  144.7010 C   0  0  0  0  0  0  0  0  0  0  0  0
  160.0030  206.1200  145.1440 O   0  0  0  0  0  0  0  0  0  0  0  0
  1 14  1  0  0  0  0
  2 15  1  1  0  0  0
  2 16  1  0  0  0  0
  3 14  2  0  0  0  0
  3 19  1  0  0  0  0
  4  1  2  0  0  0  0
  5  3  1  0  0  0  0
  6 12  1  0  0  0  0
  7  2  1  0  0  0  0
  7  8  1  0  0  0  0
  8 10  1  0  0  0  0
  9  7  2  0  0  0  0
 10  4  1  0  0  0  0
 10  5  2  0  0  0  0
 12  8  2  0  0  0  0
 13  9  1  0  0  0  0
 13  6  2  0  0  0  0
 16 11  1  1  0  0  0
 16  4  1  0  0  0  0
 17 18  2  0  0  0  0
 18 19  1  0  0  0  0
 18 22  1  0  0  0  0
 19 20  1  0  0  0  0
 21 20  1  0  0  0  0
 24 23  1  6  0  0  0
 24 22  1  0  0  0  0
 25 31  1  0  0  0  0
 27 25  1  0  0  0  0
 27 28  1  0  0  0  0
 28 30  2  0  0  0  0
 29 32  1  1  0  0  0
 30 29  1  0  0  0  0
 30 26  1  0  0  0  0
 31 24  1  1  0  0  0
 31 29  1  0  0  0  0
 33  9  1  0  0  0  0
 34 33  1  0  0  0  0
 35 34  1  0  0  0  0
 36 37  1  0  0  0  0
 37 38  2  0  0  0  0
 37 35  1  0  0  0  0
M  END
>  <MODEL>
3

>  <REMARK>
 VINA RESULT:      -8.2      1.505      1.932
  Name = 
  9 active torsions:
  status: ('A' for Active; 'I' for Inactive)
    1  A    between atoms: O_3  and  C_4
    2  A    between atoms: O_3  and  N_29
    3  A    between atoms: C_4  and  C_12
    4  A    between atoms: C_7  and  C_20
    5  A    between atoms: C_7  and  C_25
    6  A    between atoms: C_11  and  N_33
    7  A    between atoms: C_13  and  N_33
    8  A    between atoms: C_20  and  C_34
    9  A    between atoms: C_21  and  N_29
                            x       y       z     vdW  Elec       q    Type
                         _______ _______ _______ _____ _____    ______ ____

>  <TORSDO>
F 9

$$$$
=
 OpenBabel11072412153D

 38 41  0  0  1  0  0  0  0  0999 V2000
  161.1900  207.9080  149.0350 C   0  0  0  0  0  3  0  0  0  0  0  0
  161.4530  204.3680  147.7040 C   0  0  2  0  0  3  0  0  0  0  0  0
  161.4530  207.8690  151.4550 C   0  0  0  0  0  0  0  0  0  0  0  0
  161.1070  206.5090  149.0020 C   0  0  0  0  0  0  0  0  0  0  0  0
  161.3280  206.4730  151.4220 C   0  0  0  0  0  3  0  0  0  0  0  0
  160.6460  202.2040  151.3440 C   0  0  0  0  0  3  0  0  0  0  0  0
  161.1080  203.6150  148.9640 C   0  0  0  0  0  0  0  0  0  0  0  0
  161.0210  204.3080  150.1910 C   0  0  0  0  0  0  0  0  0  0  0  0
  160.9720  202.2150  148.9390 C   0  0  0  0  0  0  0  0  0  0  0  0
  161.1520  205.7860  150.2120 C   0  0  0  0  0  0  0  0  0  0  0  0
  161.2460  206.5480  146.4630 C   0  0  0  0  0  1  0  0  0  0  0  0
  160.7890  203.5920  151.3750 C   0  0  0  0  0  3  0  0  0  0  0  0
  160.7380  201.5200  150.1310 C   0  0  0  0  0  3  0  0  0  0  0  0
  161.3690  208.5790  150.2470 C   0  0  0  0  0  3  0  0  0  0  0  0
  162.8450  204.4450  147.5810 O   0  0  0  0  0  1  0  0  0  0  0  0
  160.8290  205.7720  147.7080 C   0  0  1  0  0  3  0  0  0  0  0  0
  161.0360  206.7520  154.0690 O   0  0  0  0  0  0  0  0  0  0  0  0
  161.3030  207.9800  153.9820 C   0  0  0  0  0  0  0  0  0  0  0  0
  161.6240  208.5760  152.7060 N   0  0  0  0  0  0  0  0  0  0  0  0
  162.1330  209.9460  152.6740 C   0  0  0  0  0  2  0  0  0  0  0  0
  160.9830  210.9260  152.5330 C   0  0  0  0  0  1  0  0  0  0  0  0
  161.3130  208.7910  155.2400 C   0  0  0  0  0  2  0  0  0  0  0  0
  159.8340  208.0610  156.9390 O   0  0  0  0  0  1  0  0  0  0  0  0
  159.9110  208.9030  155.8270 C   0  0  1  0  0  3  0  0  0  0  0  0
  160.8770  211.1740  156.3000 C   0  0  0  0  0  2  0  0  0  0  0  0
  157.7240  213.1900  154.4020 O   0  0  0  0  0  1  0  0  0  0  0  0
  160.5400  212.5730  156.7940 C   0  0  0  0  0  2  0  0  0  0  0  0
  159.5440  213.2190  155.8830 C   0  0  0  0  0  3  0  0  0  0  0  0
  158.5950  211.0010  155.2390 C   0  0  1  0  0  3  0  0  0  0  0  0
  158.6320  212.5130  155.2070 C   0  0  0  0  0  0  0  0  0  0  0  0
  159.5910  210.3530  156.2240 C   0  0  1  0  0  3  0  0  0  0  0  0
  157.2970  210.5790  155.5360 O   0  0  0  0  0  1  0  0  0  0  0  0
  161.0890  201.5010  147.7030 N   0  0  0  0  0  2  0  0  0  0  0  0
  160.0430  201.3670  146.8510 O   0  0  0  0  0  0  0  0  0  0  0  0
  160.6170  201.3530  145.5770 C   0  0  0  0  0  2  0  0  0  0  0  0
  159.1020  202.8890  144.2720 N   0  0  0  0  0  1  0  0  0  0  0  0
  160.3580  202.6520  144.8980 C   0  0  0  0  0  0  0  0  0  0  0  0
  161.2600  203.5270  144.8460 O   0  0  0  0  0  0  0  0  0  0  0  0
  1 14  1  0  0  0  0
  2 15  1  1  0  0  0
  2 16  1  0  0  0  0
  2  7  1  0  0  0  0
  3 19  1  0  0  0  0
  4  1  2  0  0  0  0
  4 10  1  0  0  0  0
  5  3  1  0  0  0  0
  6 12  1  0  0  0  0
  7  8  1  0  0  0  0
  8 10  1  0  0  0  0
  8 12  2  0  0  0  0
  9  7  2  0  0  0  0
  9 13  1  0  0  0  0
 10  5  2  0  0  0  0
 13  6  2  0  0  0  0
 14  3  2  0  0  0  0
 16 11  1  6  0  0  0
 16  4  1  0  0  0  0
 18 17  2  0  0  0  0
 18 22  1  0  0  0  0
 19 18  1  0  0  0  0
 20 19  1  0  0  0  0
 21 20  1  0  0  0  0
 22 24  1  0  0  0  0
 24 23  1  1  0  0  0
 25 27  1  0  0  0  0
 26 30  1  0  0  0  0
 28 27  1  0  0  0  0
 29 32  1  1  0  0  0
 29 31  1  0  0  0  0
 30 29  1  0  0  0  0
 30 28  2  0  0  0  0
 31 24  1  6  0  0  0
 31 25  1  0  0  0  0
 33  9  1  0  0  0  0
 34 33  1  0  0  0  0
 35 34  1  0  0  0  0
 36 37  1  0  0  0  0
 37 35  1  0  0  0  0
 38 37  2  0  0  0  0
M  END
>  <MODEL>
4

>  <REMARK>
 VINA RESULT:      -8.2      1.902      3.740
  Name = 
  9 active torsions:
  status: ('A' for Active; 'I' for Inactive)
    1  A    between atoms: O_3  and  C_4
    2  A    between atoms: O_3  and  N_29
    3  A    between atoms: C_4  and  C_12
    4  A    between atoms: C_7  and  C_20
    5  A    between atoms: C_7  and  C_25
    6  A    between atoms: C_11  and  N_33
    7  A    between atoms: C_13  and  N_33
    8  A    between atoms: C_20  and  C_34
    9  A    between atoms: C_21  and  N_29
                            x       y       z     vdW  Elec       q    Type
                         _______ _______ _______ _____ _____    ______ ____

>  <TORSDO>
F 9

$$$$
=
 OpenBabel11072412153D

 38 41  0  0  1  0  0  0  0  0999 V2000
  160.9750  206.5150  153.8410 C   0  0  0  0  0  3  0  0  0  0  0  0
  161.0480  204.6480  150.5420 C   0  0  2  0  0  3  0  0  0  0  0  0
  160.8980  208.9070  153.4000 C   0  0  0  0  0  0  0  0  0  0  0  0
  161.2250  206.2530  152.4870 C   0  0  0  0  0  0  0  0  0  0  0  0
  161.1900  208.6440  152.0540 C   0  0  0  0  0  3  0  0  0  0  0  0
  162.3780  207.8450  147.9740 C   0  0  0  0  0  3  0  0  0  0  0  0
  161.5740  205.7510  149.6580 C   0  0  0  0  0  0  0  0  0  0  0  0
  161.6670  207.0670  150.1610 C   0  0  0  0  0  0  0  0  0  0  0  0
  161.8780  205.4940  148.3090 C   0  0  0  0  0  0  0  0  0  0  0  0
  161.3580  207.3310  151.5890 C   0  0  0  0  0  0  0  0  0  0  0  0
  160.8960  203.7640  152.8950 C   0  0  0  0  0  1  0  0  0  0  0  0
  162.0700  208.1060  149.3100 C   0  0  0  0  0  3  0  0  0  0  0  0
  162.2820  206.5450  147.4770 C   0  0  0  0  0  3  0  0  0  0  0  0
  160.8050  207.8270  154.2900 C   0  0  0  0  0  3  0  0  0  0  0  0
  159.6520  204.6150  150.4530 O   0  0  0  0  0  1  0  0  0  0  0  0
  161.4950  204.8440  151.9990 C   0  0  1  0  0  3  0  0  0  0  0  0
  158.5890  210.5600  152.9620 O   0  0  0  0  0  0  0  0  0  0  0  0
  159.5850  211.0710  153.5390 C   0  0  0  0  0  0  0  0  0  0  0  0
  160.7340  210.2630  153.8790 N   0  0  0  0  0  0  0  0  0  0  0  0
  161.7750  210.8370  154.7310 C   0  0  0  0  0  2  0  0  0  0  0  0
  161.4910  210.5190  156.1870 C   0  0  0  0  0  1  0  0  0  0  0  0
  159.5290  212.5240  153.8920 C   0  0  0  0  0  2  0  0  0  0  0  0
  157.7690  214.0540  154.2970 O   0  0  0  0  0  1  0  0  0  0  0  0
  158.2650  213.1710  153.3370 C   0  0  1  0  0  3  0  0  0  0  0  0
  159.9200  213.4990  151.4740 C   0  0  0  0  0  2  0  0  0  0  0  0
  156.9430  213.7090  148.5250 O   0  0  0  0  0  1  0  0  0  0  0  0
  160.2220  214.3210  150.2300 C   0  0  0  0  0  2  0  0  0  0  0  0
  159.1500  214.1210  149.2040 C   0  0  0  0  0  3  0  0  0  0  0  0
  157.4520  213.6460  150.9710 C   0  0  1  0  0  3  0  0  0  0  0  0
  157.8830  213.8550  149.5370 C   0  0  0  0  0  0  0  0  0  0  0  0
  158.5540  213.9100  152.0200 C   0  0  1  0  0  3  0  0  0  0  0  0
  156.3440  214.4510  151.2410 O   0  0  0  0  0  1  0  0  0  0  0  0
  161.7570  204.1670  147.7830 N   0  0  0  0  0  2  0  0  0  0  0  0
  161.3950  203.9370  146.4970 O   0  0  0  0  0  0  0  0  0  0  0  0
  161.0880  202.5740  146.4490 C   0  0  0  0  0  2  0  0  0  0  0  0
  160.0160  200.9320  144.8650 N   0  0  0  0  0  1  0  0  0  0  0  0
  160.3230  202.2780  145.2070 C   0  0  0  0  0  0  0  0  0  0  0  0
  159.9780  203.2150  144.4410 O   0  0  0  0  0  0  0  0  0  0  0  0
  1 14  1  0  0  0  0
  2 15  1  1  0  0  0
  2 16  1  0  0  0  0
  3 19  1  0  0  0  0
  3 14  2  0  0  0  0
  4  1  2  0  0  0  0
  5  3  1  0  0  0  0
  6 12  1  0  0  0  0
  7  8  1  0  0  0  0
  7  2  1  0  0  0  0
  8 10  1  0  0  0  0
  9  7  2  0  0  0  0
 10  5  2  0  0  0  0
 10  4  1  0  0  0  0
 12  8  2  0  0  0  0
 13  6  2  0  0  0  0
 13  9  1  0  0  0  0
 16  4  1  0  0  0  0
 16 11  1  1  0  0  0
 17 18  2  0  0  0  0
 18 19  1  0  0  0  0
 18 22  1  0  0  0  0
 19 20  1  0  0  0  0
 20 21  1  0  0  0  0
 24 22  1  0  0  0  0
 24 23  1  1  0  0  0
 25 31  1  0  0  0  0
 26 30  1  0  0  0  0
 27 25  1  0  0  0  0
 28 30  2  0  0  0  0
 28 27  1  0  0  0  0
 29 32  1  1  0  0  0
 29 31  1  0  0  0  0
 30 29  1  0  0  0  0
 31 24  1  1  0  0  0
 33  9  1  0  0  0  0
 34 33  1  0  0  0  0
 35 34  1  0  0  0  0
 36 37  1  0  0  0  0
 37 35  1  0  0  0  0
 38 37  2  0  0  0  0
M  END
>  <MODEL>
5

>  <REMARK>
 VINA RESULT:      -8.0      1.810      2.340
  Name = 
  9 active torsions:
  status: ('A' for Active; 'I' for Inactive)
    1  A    between atoms: O_3  and  C_4
    2  A    between atoms: O_3  and  N_29
    3  A    between atoms: C_4  and  C_12
    4  A    between atoms: C_7  and  C_20
    5  A    between atoms: C_7  and  C_25
    6  A    between atoms: C_11  and  N_33
    7  A    between atoms: C_13  and  N_33
    8  A    between atoms: C_20  and  C_34
    9  A    between atoms: C_21  and  N_29
                            x       y       z     vdW  Elec       q    Type
                         _______ _______ _______ _____ _____    ______ ____

>  <TORSDO>
F 9

$$$$
=
 OpenBabel11072412153D

 38 41  0  0  1  0  0  0  0  0999 V2000
  161.2950  204.7740  152.7580 C   0  0  0  0  0  3  0  0  0  0  0  0
  161.0730  203.0200  149.4040 C   0  0  2  0  0  3  0  0  0  0  0  0
  161.0350  207.1700  152.4210 C   0  0  0  0  0  0  0  0  0  0  0  0
  161.3950  204.5700  151.3750 C   0  0  0  0  0  0  0  0  0  0  0  0
  161.1760  206.9670  151.0410 C   0  0  0  0  0  3  0  0  0  0  0  0
  161.9080  206.3690  146.8220 C   0  0  0  0  0  3  0  0  0  0  0  0
  161.4280  204.1780  148.5080 C   0  0  0  0  0  0  0  0  0  0  0  0
  161.5080  205.4820  149.0460 C   0  0  0  0  0  0  0  0  0  0  0  0
  161.5810  203.9830  147.1230 C   0  0  0  0  0  0  0  0  0  0  0  0
  161.3590  205.6820  150.5090 C   0  0  0  0  0  0  0  0  0  0  0  0
  161.2530  202.0550  151.7230 C   0  0  0  0  0  1  0  0  0  0  0  0
  161.7490  206.5690  148.1940 C   0  0  0  0  0  3  0  0  0  0  0  0
  161.8240  205.0810  146.2900 C   0  0  0  0  0  3  0  0  0  0  0  0
  161.1090  206.0580  153.2740 C   0  0  0  0  0  3  0  0  0  0  0  0
  159.6810  202.9070  149.4800 O   0  0  0  0  0  1  0  0  0  0  0  0
  161.6800  203.1950  150.8050 C   0  0  1  0  0  3  0  0  0  0  0  0
  161.5490  207.9330  155.1430 O   0  0  0  0  0  0  0  0  0  0  0  0
  161.0410  208.7890  154.3710 C   0  0  0  0  0  0  0  0  0  0  0  0
  160.8560  208.4980  152.9680 N   0  0  0  0  0  0  0  0  0  0  0  0
  160.4640  209.5810  152.0670 C   0  0  0  0  0  2  0  0  0  0  0  0
  161.6970  210.2710  151.5150 C   0  0  0  0  0  1  0  0  0  0  0  0
  160.6720  210.1230  154.9410 C   0  0  0  0  0  2  0  0  0  0  0  0
  159.6930  209.5450  157.0170 O   0  0  0  0  0  1  0  0  0  0  0  0
  159.3810  210.0320  155.7460 C   0  0  1  0  0  3  0  0  0  0  0  0
  159.7050  212.5200  155.5890 C   0  0  0  0  0  2  0  0  0  0  0  0
  156.0210  213.1320  153.6750 O   0  0  0  0  0  1  0  0  0  0  0  0
  159.0210  213.8620  155.7970 C   0  0  0  0  0  2  0  0  0  0  0  0
  157.8370  213.9880  154.8890 C   0  0  0  0  0  3  0  0  0  0  0  0
  157.5060  211.5140  154.8670 C   0  0  1  0  0  3  0  0  0  0  0  0
  157.1220  212.9290  154.4970 C   0  0  0  0  0  0  0  0  0  0  0  0
  158.6940  211.4030  155.8480 C   0  0  1  0  0  3  0  0  0  0  0  0
  156.3940  210.8590  155.4000 O   0  0  0  0  0  1  0  0  0  0  0  0
  161.4710  202.6680  146.5640 N   0  0  0  0  0  2  0  0  0  0  0  0
  160.8980  202.4500  145.3550 O   0  0  0  0  0  0  0  0  0  0  0  0
  160.0840  201.3290  145.5410 C   0  0  0  0  0  2  0  0  0  0  0  0
  161.2070  199.0730  145.4570 N   0  0  0  0  0  1  0  0  0  0  0  0
  160.8690  200.2440  146.1910 C   0  0  0  0  0  0  0  0  0  0  0  0
  161.2030  200.3460  147.4000 O   0  0  0  0  0  0  0  0  0  0  0  0
  1 14  1  0  0  0  0
  2 15  1  1  0  0  0
  2 16  1  0  0  0  0
  3 19  1  0  0  0  0
  3 14  2  0  0  0  0
  4  1  2  0  0  0  0
  5  3  1  0  0  0  0
  6 12  1  0  0  0  0
  7  8  1  0  0  0  0
  7  2  1  0  0  0  0
  8 10  1  0  0  0  0
  9  7  2  0  0  0  0
 10  5  2  0  0  0  0
 10  4  1  0  0  0  0
 12  8  2  0  0  0  0
 13  6  2  0  0  0  0
 13  9  1  0  0  0  0
 16  4  1  0  0  0  0
 16 11  1  1  0  0  0
 18 22  1  0  0  0  0
 18 17  2  0  0  0  0
 19 18  1  0  0  0  0
 20 19  1  0  0  0  0
 21 20  1  0  0  0  0
 22 24  1  0  0  0  0
 24 23  1  1  0  0  0
 25 27  1  0  0  0  0
 25 31  1  0  0  0  0
 26 30  1  0  0  0  0
 28 27  1  0  0  0  0
 29 32  1  1  0  0  0
 29 31  1  0  0  0  0
 30 29  1  0  0  0  0
 30 28  2  0  0  0  0
 31 24  1  6  0  0  0
 33  9  1  0  0  0  0
 34 35  1  0  0  0  0
 34 33  1  0  0  0  0
 35 37  1  0  0  0  0
 36 37  1  0  0  0  0
 37 38  2  0  0  0  0
M  END
>  <MODEL>
6

>  <REMARK>
 VINA RESULT:      -8.0      1.589      2.247
  Name = 
  9 active torsions:
  status: ('A' for Active; 'I' for Inactive)
    1  A    between atoms: O_3  and  C_4
    2  A    between atoms: O_3  and  N_29
    3  A    between atoms: C_4  and  C_12
    4  A    between atoms: C_7  and  C_20
    5  A    between atoms: C_7  and  C_25
    6  A    between atoms: C_11  and  N_33
    7  A    between atoms: C_13  and  N_33
    8  A    between atoms: C_20  and  C_34
    9  A    between atoms: C_21  and  N_29
                            x       y       z     vdW  Elec       q    Type
                         _______ _______ _______ _____ _____    ______ ____

>  <TORSDO>
F 9

$$$$
=
 OpenBabel11072412153D

 38 41  0  0  1  0  0  0  0  0999 V2000
  161.0980  206.3430  154.1920 C   0  0  0  0  0  3  0  0  0  0  0  0
  161.4340  206.2230  150.4180 C   0  0  2  0  0  3  0  0  0  0  0  0
  160.6430  208.6340  154.8780 C   0  0  0  0  0  0  0  0  0  0  0  0
  161.3740  206.7680  152.8850 C   0  0  0  0  0  0  0  0  0  0  0  0
  160.9610  209.0600  153.5800 C   0  0  0  0  0  3  0  0  0  0  0  0
  162.2270  210.3940  149.6660 C   0  0  0  0  0  3  0  0  0  0  0  0
  161.7740  207.6700  150.1640 C   0  0  0  0  0  0  0  0  0  0  0  0
  161.6640  208.6090  151.2140 C   0  0  0  0  0  0  0  0  0  0  0  0
  162.1030  208.1050  148.8680 C   0  0  0  0  0  0  0  0  0  0  0  0
  161.3290  208.1450  152.5830 C   0  0  0  0  0  0  0  0  0  0  0  0
  161.4420  204.3500  152.1000 C   0  0  0  0  0  1  0  0  0  0  0  0
  161.8930  209.9680  150.9530 C   0  0  0  0  0  3  0  0  0  0  0  0
  162.3310  209.4660  148.6290 C   0  0  0  0  0  3  0  0  0  0  0  0
  160.7280  207.2650  155.1740 C   0  0  0  0  0  3  0  0  0  0  0  0
  160.0600  206.0350  150.2330 O   0  0  0  0  0  1  0  0  0  0  0  0
  161.8570  205.7930  151.8310 C   0  0  1  0  0  3  0  0  0  0  0  0
  158.1120  209.9810  155.0680 O   0  0  0  0  0  0  0  0  0  0  0  0
  159.0170  210.2960  155.8860 C   0  0  0  0  0  0  0  0  0  0  0  0
  160.2730  209.5820  155.9070 N   0  0  0  0  0  0  0  0  0  0  0  0
  161.2090  209.8310  157.0010 C   0  0  0  0  0  2  0  0  0  0  0  0
  162.5030  210.4090  156.4590 C   0  0  0  0  0  1  0  0  0  0  0  0
  158.7390  211.4020  156.8560 C   0  0  0  0  0  2  0  0  0  0  0  0
  160.0810  212.9620  155.6870 O   0  0  0  0  0  1  0  0  0  0  0  0
  158.7840  212.7580  156.1620 C   0  0  1  0  0  3  0  0  0  0  0  0
  156.5690  213.6780  155.4130 C   0  0  0  0  0  2  0  0  0  0  0  0
  157.9190  214.4440  151.5150 O   0  0  0  0  0  1  0  0  0  0  0  0
  155.5390  213.6410  154.2940 C   0  0  0  0  0  2  0  0  0  0  0  0
  156.1430  214.1340  153.0160 C   0  0  0  0  0  3  0  0  0  0  0  0
  158.4160  213.3790  153.7210 C   0  0  1  0  0  3  0  0  0  0  0  0
  157.4410  213.9810  152.7340 C   0  0  0  0  0  0  0  0  0  0  0  0
  157.7700  212.8250  155.0090 C   0  0  1  0  0  3  0  0  0  0  0  0
  159.1460  212.3710  153.0890 O   0  0  0  0  0  1  0  0  0  0  0  0
  162.1880  207.1640  147.7910 N   0  0  0  0  0  2  0  0  0  0  0  0
  161.0820  206.6040  147.2410 O   0  0  0  0  0  0  0  0  0  0  0  0
  161.4810  205.3200  146.8610 C   0  0  0  0  0  2  0  0  0  0  0  0
  160.7570  204.6020  144.5550 N   0  0  0  0  0  1  0  0  0  0  0  0
  161.6920  205.2770  145.3880 C   0  0  0  0  0  0  0  0  0  0  0  0
  162.7150  205.8080  144.8820 O   0  0  0  0  0  0  0  0  0  0  0  0
  1 14  1  0  0  0  0
  2 15  1  1  0  0  0
  2 16  1  0  0  0  0
  3 14  2  0  0  0  0
  3 19  1  0  0  0  0
  4  1  2  0  0  0  0
  5  3  1  0  0  0  0
  6 12  1  0  0  0  0
  7  2  1  0  0  0  0
  7  8  1  0  0  0  0
  8 10  1  0  0  0  0
  9  7  2  0  0  0  0
 10  4  1  0  0  0  0
 10  5  2  0  0  0  0
 12  8  2  0  0  0  0
 13  9  1  0  0  0  0
 13  6  2  0  0  0  0
 16 11  1  1  0  0  0
 16  4  1  0  0  0  0
 17 18  2  0  0  0  0
 18 19  1  0  0  0  0
 18 22  1  0  0  0  0
 19 20  1  0  0  0  0
 21 20  1  0  0  0  0
 24 23  1  6  0  0  0
 24 22  1  0  0  0  0
 26 30  1  0  0  0  0
 27 25  1  0  0  0  0
 28 27  1  0  0  0  0
 29 32  1  6  0  0  0
 29 31  1  0  0  0  0
 30 28  2  0  0  0  0
 30 29  1  0  0  0  0
 31 25  1  0  0  0  0
 31 24  1  1  0  0  0
 33  9  1  0  0  0  0
 34 33  1  0  0  0  0
 35 34  1  0  0  0  0
 36 37  1  0  0  0  0
 37 35  1  0  0  0  0
 38 37  2  0  0  0  0
M  END
>  <MODEL>
7

>  <REMARK>
 VINA RESULT:      -8.0      1.916      2.329
  Name = 
  9 active torsions:
  status: ('A' for Active; 'I' for Inactive)
    1  A    between atoms: O_3  and  C_4
    2  A    between atoms: O_3  and  N_29
    3  A    between atoms: C_4  and  C_12
    4  A    between atoms: C_7  and  C_20
    5  A    between atoms: C_7  and  C_25
    6  A    between atoms: C_11  and  N_33
    7  A    between atoms: C_13  and  N_33
    8  A    between atoms: C_20  and  C_34
    9  A    between atoms: C_21  and  N_29
                            x       y       z     vdW  Elec       q    Type
                         _______ _______ _______ _____ _____    ______ ____

>  <TORSDO>
F 9

$$$$
=
 OpenBabel11072412153D

 38 41  0  0  1  0  0  0  0  0999 V2000
  160.7750  207.4140  154.8750 C   0  0  0  0  0  3  0  0  0  0  0  0
  160.0800  211.0240  155.8040 C   0  0  2  0  0  3  0  0  0  0  0  0
  161.3560  207.2980  152.5140 C   0  0  0  0  0  0  0  0  0  0  0  0
  160.3880  208.7540  154.7350 C   0  0  0  0  0  0  0  0  0  0  0  0
  160.9290  208.6260  152.3690 C   0  0  0  0  0  3  0  0  0  0  0  0
  159.3390  212.6150  151.8670 C   0  0  0  0  0  3  0  0  0  0  0  0
  159.7600  211.5630  154.4340 C   0  0  0  0  0  0  0  0  0  0  0  0
  159.9950  210.7630  153.2940 C   0  0  0  0  0  0  0  0  0  0  0  0
  159.3220  212.8910  154.2790 C   0  0  0  0  0  0  0  0  0  0  0  0
  160.4440  209.3590  153.4620 C   0  0  0  0  0  0  0  0  0  0  0  0
  160.1780  208.9720  157.2600 C   0  0  0  0  0  1  0  0  0  0  0  0
  159.7800  211.3000  152.0160 C   0  0  0  0  0  3  0  0  0  0  0  0
  159.1110  213.4070  152.9940 C   0  0  0  0  0  3  0  0  0  0  0  0
  161.2610  206.6980  153.7790 C   0  0  0  0  0  3  0  0  0  0  0  0
  161.4250  211.2780  156.0950 O   0  0  0  0  0  1  0  0  0  0  0  0
  159.7810  209.5200  155.8930 C   0  0  1  0  0  3  0  0  0  0  0  0
  161.6900  208.3180  149.8490 O   0  0  0  0  0  0  0  0  0  0  0  0
  161.8980  207.0920  150.0470 C   0  0  0  0  0  0  0  0  0  0  0  0
  161.8480  206.5420  151.3830 N   0  0  0  0  0  0  0  0  0  0  0  0
  162.3020  205.1690  151.6000 C   0  0  0  0  0  2  0  0  0  0  0  0
  161.1310  204.2900  151.9960 C   0  0  0  0  0  1  0  0  0  0  0  0
  162.2350  206.2330  148.8690 C   0  0  0  0  0  2  0  0  0  0  0  0
  160.4570  206.1580  147.3080 O   0  0  0  0  0  1  0  0  0  0  0  0
  161.0090  205.4650  148.3870 C   0  0  1  0  0  3  0  0  0  0  0  0
  160.7290  203.0270  148.9270 C   0  0  0  0  0  2  0  0  0  0  0  0
  160.4810  201.9030  144.8920 O   0  0  0  0  0  1  0  0  0  0  0  0
  161.1960  201.6260  148.5590 C   0  0  0  0  0  2  0  0  0  0  0  0
  160.8480  201.3210  147.1350 C   0  0  0  0  0  3  0  0  0  0  0  0
  160.9680  203.7370  146.5180 C   0  0  1  0  0  3  0  0  0  0  0  0
  160.7840  202.2710  146.1960 C   0  0  0  0  0  0  0  0  0  0  0  0
  161.3800  204.0310  147.9760 C   0  0  1  0  0  3  0  0  0  0  0  0
  161.9080  204.2860  145.6440 O   0  0  0  0  0  1  0  0  0  0  0  0
  159.1100  213.7190  155.4280 N   0  0  0  0  0  2  0  0  0  0  0  0
  157.9810  214.4530  155.5840 O   0  0  0  0  0  0  0  0  0  0  0  0
  157.2970  213.8410  156.6370 C   0  0  0  0  0  2  0  0  0  0  0  0
  155.2500  212.4130  156.9940 N   0  0  0  0  0  1  0  0  0  0  0  0
  156.0710  213.1760  156.1170 C   0  0  0  0  0  0  0  0  0  0  0  0
  155.7790  213.2570  154.8960 O   0  0  0  0  0  0  0  0  0  0  0  0
  2 16  1  0  0  0  0
  2 15  1  6  0  0  0
  3 14  1  0  0  0  0
  4  1  1  0  0  0  0
  4 16  1  0  0  0  0
  5  3  2  0  0  0  0
  5 10  1  0  0  0  0
  6 12  2  0  0  0  0
  6 13  1  0  0  0  0
  7  2  1  0  0  0  0
  8 10  1  0  0  0  0
  8  7  2  0  0  0  0
  9  7  1  0  0  0  0
  9 33  1  0  0  0  0
 10  4  2  0  0  0  0
 12  8  1  0  0  0  0
 13  9  2  0  0  0  0
 14  1  2  0  0  0  0
 16 11  1  1  0  0  0
 17 18  2  0  0  0  0
 18 19  1  0  0  0  0
 19 20  1  0  0  0  0
 19  3  1  0  0  0  0
 20 21  1  0  0  0  0
 22 18  1  0  0  0  0
 24 23  1  6  0  0  0
 24 22  1  0  0  0  0
 26 30  1  0  0  0  0
 27 25  1  0  0  0  0
 28 27  1  0  0  0  0
 29 32  1  6  0  0  0
 29 31  1  0  0  0  0
 30 29  1  0  0  0  0
 30 28  2  0  0  0  0
 31 24  1  1  0  0  0
 31 25  1  0  0  0  0
 33 34  1  0  0  0  0
 34 35  1  0  0  0  0
 37 35  1  0  0  0  0
 37 36  1  0  0  0  0
 38 37  2  0  0  0  0
M  END
>  <MODEL>
8

>  <REMARK>
 VINA RESULT:      -7.9      2.219     10.209
  Name = 
  9 active torsions:
  status: ('A' for Active; 'I' for Inactive)
    1  A    between atoms: O_3  and  C_4
    2  A    between atoms: O_3  and  N_29
    3  A    between atoms: C_4  and  C_12
    4  A    between atoms: C_7  and  C_20
    5  A    between atoms: C_7  and  C_25
    6  A    between atoms: C_11  and  N_33
    7  A    between atoms: C_13  and  N_33
    8  A    between atoms: C_20  and  C_34
    9  A    between atoms: C_21  and  N_29
                            x       y       z     vdW  Elec       q    Type
                         _______ _______ _______ _____ _____    ______ ____

>  <TORSDO>
F 9

$$$$
=
 OpenBabel11072412153D

 38 41  0  0  1  0  0  0  0  0999 V2000
  161.8390  208.4470  150.5890 C   0  0  0  0  0  3  0  0  0  0  0  0
  160.5880  210.6020  153.4470 C   0  0  2  0  0  3  0  0  0  0  0  0
  161.3460  206.1140  151.0780 C   0  0  0  0  0  0  0  0  0  0  0  0
  161.4730  208.8180  151.8910 C   0  0  0  0  0  0  0  0  0  0  0  0
  161.0220  206.4820  152.3910 C   0  0  0  0  0  3  0  0  0  0  0  0
  160.3090  207.5830  156.5120 C   0  0  0  0  0  3  0  0  0  0  0  0
  160.5520  209.5570  154.5330 C   0  0  0  0  0  0  0  0  0  0  0  0
  160.7380  208.1960  154.2020 C   0  0  0  0  0  0  0  0  0  0  0  0
  160.2360  209.9180  155.8550 C   0  0  0  0  0  0  0  0  0  0  0  0
  161.0840  207.8210  152.8090 C   0  0  0  0  0  0  0  0  0  0  0  0
  161.5980  211.2730  151.2410 C   0  0  0  0  0  1  0  0  0  0  0  0
  160.6140  207.2190  155.2000 C   0  0  0  0  0  3  0  0  0  0  0  0
  160.1200  208.9270  156.8370 C   0  0  0  0  0  3  0  0  0  0  0  0
  161.7680  207.1120  150.1860 C   0  0  0  0  0  3  0  0  0  0  0  0
  159.3120  210.7250  152.8850 O   0  0  0  0  0  1  0  0  0  0  0  0
  161.6240  210.2470  152.3700 C   0  0  1  0  0  3  0  0  0  0  0  0
  160.4300  205.1970  148.5140 O   0  0  0  0  0  0  0  0  0  0  0  0
  160.7260  204.3350  149.3830 C   0  0  0  0  0  0  0  0  0  0  0  0
  161.2910  204.7320  150.6530 N   0  0  0  0  0  0  0  0  0  0  0  0
  161.8160  203.7010  151.5460 C   0  0  0  0  0  2  0  0  0  0  0  0
  160.6910  203.0970  152.3630 C   0  0  0  0  0  1  0  0  0  0  0  0
  160.5120  202.8920  149.0480 C   0  0  0  0  0  2  0  0  0  0  0  0
  161.8940  201.0100  148.6560 O   0  0  0  0  0  1  0  0  0  0  0  0
  161.6940  202.3350  148.2630 C   0  0  1  0  0  3  0  0  0  0  0  0
  160.0820  201.8060  146.4080 C   0  0  0  0  0  2  0  0  0  0  0  0
  160.8510  205.3950  144.3750 O   0  0  0  0  0  1  0  0  0  0  0  0
  159.9060  201.8080  144.8980 C   0  0  0  0  0  2  0  0  0  0  0  0
  160.0170  203.2030  144.3640 C   0  0  0  0  0  3  0  0  0  0  0  0
  161.5200  203.8730  146.2410 C   0  0  1  0  0  3  0  0  0  0  0  0
  160.7810  204.1320  144.9480 C   0  0  0  0  0  0  0  0  0  0  0  0
  161.4410  202.4170  146.7490 C   0  0  1  0  0  3  0  0  0  0  0  0
  162.8570  204.2470  146.0910 O   0  0  0  0  0  1  0  0  0  0  0  0
  160.0160  211.2930  156.1940 N   0  0  0  0  0  2  0  0  0  0  0  0
  158.8610  211.7130  156.7670 O   0  0  0  0  0  0  0  0  0  0  0  0
  158.2500  212.5140  155.7980 C   0  0  0  0  0  2  0  0  0  0  0  0
  155.7840  212.8610  155.4100 N   0  0  0  0  0  1  0  0  0  0  0  0
  156.8970  211.9780  155.4880 C   0  0  0  0  0  0  0  0  0  0  0  0
  156.7300  210.7410  155.3290 O   0  0  0  0  0  0  0  0  0  0  0  0
  1  4  1  0  0  0  0
  2 15  1  6  0  0  0
  2  7  1  0  0  0  0
  3  5  2  0  0  0  0
  4 16  1  0  0  0  0
  4 10  2  0  0  0  0
  5 10  1  0  0  0  0
  6 13  1  0  0  0  0
  7  9  1  0  0  0  0
  8  7  2  0  0  0  0
  8 12  1  0  0  0  0
  9 33  1  0  0  0  0
  9 13  2  0  0  0  0
 10  8  1  0  0  0  0
 12  6  2  0  0  0  0
 14  1  2  0  0  0  0
 14  3  1  0  0  0  0
 16 11  1  6  0  0  0
 16  2  1  0  0  0  0
 17 18  2  0  0  0  0
 18 19  1  0  0  0  0
 19  3  1  0  0  0  0
 19 20  1  0  0  0  0
 20 21  1  0  0  0  0
 22 18  1  0  0  0  0
 24 23  1  1  0  0  0
 24 22  1  0  0  0  0
 25 31  1  0  0  0  0
 26 30  1  0  0  0  0
 27 25  1  0  0  0  0
 28 27  1  0  0  0  0
 28 30  2  0  0  0  0
 29 32  1  6  0  0  0
 29 31  1  0  0  0  0
 30 29  1  0  0  0  0
 31 24  1  1  0  0  0
 33 34  1  0  0  0  0
 35 34  1  0  0  0  0
 36 37  1  0  0  0  0
 37 35  1  0  0  0  0
 38 37  2  0  0  0  0
M  END
>  <MODEL>
9

>  <REMARK>
 VINA RESULT:      -7.6      2.171     10.303
  Name = 
  9 active torsions:
  status: ('A' for Active; 'I' for Inactive)
    1  A    between atoms: O_3  and  C_4
    2  A    between atoms: O_3  and  N_29
    3  A    between atoms: C_4  and  C_12
    4  A    between atoms: C_7  and  C_20
    5  A    between atoms: C_7  and  C_25
    6  A    between atoms: C_11  and  N_33
    7  A    between atoms: C_13  and  N_33
    8  A    between atoms: C_20  and  C_34
    9  A    between atoms: C_21  and  N_29
                            x       y       z     vdW  Elec       q    Type
                         _______ _______ _______ _____ _____    ______ ____

>  <TORSDO>
F 9

$$$$
