=
 OpenBabel11072412133D

 31 35  0  0  1  0  0  0  0  0999 V2000
  161.3870  205.8350  149.8730 C   0  0  0  0  0  0  0  0  0  0  0  0
  161.4340  207.1420  150.2340 C   0  0  1  0  0  3  0  0  0  0  0  0
  160.8650  203.1250  149.2420 C   0  0  0  0  0  0  0  0  0  0  0  0
  162.3260  208.3240  148.2830 C   0  0  0  0  0  3  0  0  0  0  0  0
  161.0620  204.8950  150.8690 C   0  0  0  0  0  3  0  0  0  0  0  0
  162.6730  207.3420  147.5170 N   0  0  0  0  0  0  0  0  0  0  0  0
  161.2330  204.0240  148.2400 C   0  0  0  0  0  3  0  0  0  0  0  0
  161.5360  205.3610  148.5270 C   0  0  0  0  0  0  0  0  0  0  0  0
  161.1890  208.2130  149.2210 C   0  0  0  0  0  2  0  0  0  0  0  0
  160.8040  203.5610  150.5630 C   0  0  0  0  0  3  0  0  0  0  0  0
  162.1000  206.0260  147.5010 C   0  0  0  0  0  2  0  0  0  0  0  0
  159.9870  209.6650  152.4780 C   0  0  0  0  0  1  0  0  0  0  0  0
  161.4430  209.4990  152.9350 C   0  0  1  0  0  0  0  0  0  0  0  0
  161.0400  206.6030  152.6840 C   0  0  0  0  0  2  0  0  0  0  0  0
  161.4710  207.5290  151.6230 N   0  0  1  0  0  0  0  0  0  0  0  0
  160.7570  207.3360  154.0310 C   0  0  0  0  0  2  0  0  0  0  0  0
  161.5710  208.6570  154.2160 C   0  0  2  0  0  3  0  0  0  0  0  0
  162.3740  208.5520  152.1240 C   0  0  1  0  0  3  0  0  0  0  0  0
  162.2960  209.9750  151.7570 C   0  0  0  0  0  2  0  0  0  0  0  0
  161.1000  209.4300  155.4550 C   0  0  1  0  0  3  0  0  0  0  0  0
  162.6610  209.3770  157.2610 O   0  0  0  0  0  0  0  0  0  0  0  0
  161.1110  207.6890  157.2610 O   0  0  0  0  0  1  0  0  0  0  0  0
  161.6690  208.8360  156.7070 C   0  0  0  0  0  0  0  0  0  0  0  0
  160.2850  211.7890  155.5910 C   0  0  0  0  0  1  0  0  0  0  0  0
  161.4930  210.9010  155.3600 C   0  0  0  0  0  2  0  0  0  0  0  0
  160.5800  200.7170  150.0400 C   0  0  0  0  0  2  0  0  0  0  0  0
  160.5210  201.7100  148.8970 C   0  0  0  0  0  0  0  0  0  0  0  0
  159.2360  201.1690  149.4900 C   0  0  0  0  0  2  0  0  0  0  0  0
  160.8970  201.1640  147.5590 C   0  0  0  0  0  0  0  0  0  0  0  0
  160.5740  201.7840  146.5110 O   0  0  0  0  0  0  0  0  0  0  0  0
  161.6400  199.9940  147.4680 O   0  0  0  0  0  1  0  0  0  0  0  0
  1  2  1  0  0  0  0
  1  5  1  0  0  0  0
  2  9  1  1  0  0  0
  2 15  1  0  0  0  0
  3 10  1  0  0  0  0
  4  9  1  0  0  0  0
  6  4  2  0  0  0  0
  7  8  1  0  0  0  0
  7  3  2  0  0  0  0
  8  1  2  0  0  0  0
 10  5  2  0  0  0  0
 11  6  1  0  0  0  0
 11  8  1  0  0  0  0
 13 12  1  6  0  0  0
 13 17  1  0  0  0  0
 14 16  1  0  0  0  0
 15 18  1  0  0  0  0
 15 14  1  1  0  0  0
 16 17  1  0  0  0  0
 17 20  1  1  0  0  0
 18 19  1  6  0  0  0
 18 13  1  0  0  0  0
 19 13  1  0  0  0  0
 20 25  1  6  0  0  0
 20 23  1  0  0  0  0
 23 21  2  0  0  0  0
 23 22  1  0  0  0  0
 25 24  1  0  0  0  0
 27  3  1  0  0  0  0
 27 28  1  0  0  0  0
 27 26  1  0  0  0  0
 28 26  1  0  0  0  0
 29 27  1  0  0  0  0
 30 29  2  0  0  0  0
 31 29  1  0  0  0  0
M  END
>  <MODEL>
1

>  <REMARK>
 VINA RESULT:      -8.4      0.000      0.000
  Name = 
  6 active torsions:
  status: ('A' for Active; 'I' for Inactive)
    1  A    between atoms: C_4  and  C_10
    2  A    between atoms: C_7  and  C_24
    3  A    between atoms: C_8  and  N_20
    4  A    between atoms: C_10  and  C_11
    5  A    between atoms: C_24  and  C_25
    6  A    between atoms: C_24  and  C_28
                            x       y       z     vdW  Elec       q    Type
                         _______ _______ _______ _____ _____    ______ ____

>  <TORSDO>
F 6

$$$$
=
 OpenBabel11072412133D

 31 35  0  0  1  0  0  0  0  0999 V2000
  161.4320  208.0520  151.1950 C   0  0  0  0  0  0  0  0  0  0  0  0
  161.7850  207.6380  149.9520 C   0  0  1  0  0  3  0  0  0  0  0  0
  161.0310  208.6620  153.9300 C   0  0  0  0  0  0  0  0  0  0  0  0
  162.1020  209.6880  148.6490 C   0  0  0  0  0  3  0  0  0  0  0  0
  161.0280  207.0700  152.1190 C   0  0  0  0  0  3  0  0  0  0  0  0
  161.6650  210.5890  149.4670 N   0  0  0  0  0  0  0  0  0  0  0  0
  161.3850  209.6660  153.0280 C   0  0  0  0  0  3  0  0  0  0  0  0
  161.5520  209.4030  151.6630 C   0  0  0  0  0  0  0  0  0  0  0  0
  162.7390  208.4440  149.1310 C   0  0  0  0  0  2  0  0  0  0  0  0
  160.8290  207.3650  153.4650 C   0  0  0  0  0  3  0  0  0  0  0  0
  161.6520  210.5080  150.9010 C   0  0  0  0  0  2  0  0  0  0  0  0
  162.8760  205.2040  147.4250 C   0  0  0  0  0  1  0  0  0  0  0  0
  161.3450  205.1010  147.4580 C   0  0  1  0  0  0  0  0  0  0  0  0
  161.5490  205.1470  150.3860 C   0  0  0  0  0  2  0  0  0  0  0  0
  161.4570  206.3120  149.4890 N   0  0  1  0  0  0  0  0  0  0  0  0
  161.5710  203.7980  149.6040 C   0  0  0  0  0  2  0  0  0  0  0  0
  160.8510  203.8580  148.2180 C   0  0  2  0  0  3  0  0  0  0  0  0
  160.5520  206.0750  148.3770 C   0  0  1  0  0  3  0  0  0  0  0  0
  160.8340  206.4630  146.9850 C   0  0  0  0  0  2  0  0  0  0  0  0
  161.0830  202.5700  147.4160 C   0  0  1  0  0  3  0  0  0  0  0  0
  159.5700  201.3600  148.8120 O   0  0  0  0  0  1  0  0  0  0  0  0
  161.5020  200.2510  148.2750 O   0  0  0  0  0  0  0  0  0  0  0  0
  160.6730  201.3640  148.2050 C   0  0  0  0  0  0  0  0  0  0  0  0
  160.3920  201.2590  145.4030 C   0  0  0  0  0  1  0  0  0  0  0  0
  160.3170  202.6050  146.0970 C   0  0  0  0  0  2  0  0  0  0  0  0
  160.0720  207.9860  156.1970 C   0  0  0  0  0  2  0  0  0  0  0  0
  160.8870  208.9730  155.3870 C   0  0  0  0  0  0  0  0  0  0  0  0
  161.5850  208.0280  156.3450 C   0  0  0  0  0  2  0  0  0  0  0  0
  160.7940  210.3940  155.8330 C   0  0  0  0  0  0  0  0  0  0  0  0
  159.6760  210.9750  155.8630 O   0  0  0  0  0  0  0  0  0  0  0  0
  161.9330  211.0670  156.2560 O   0  0  0  0  0  1  0  0  0  0  0  0
  1  8  2  0  0  0  0
  1  5  1  0  0  0  0
  2  9  1  1  0  0  0
  2  1  1  0  0  0  0
  3 27  1  0  0  0  0
  4  9  1  0  0  0  0
  4  6  2  0  0  0  0
  5 10  2  0  0  0  0
  6 11  1  0  0  0  0
  7  3  2  0  0  0  0
  8  7  1  0  0  0  0
 10  3  1  0  0  0  0
 11  8  1  0  0  0  0
 13 12  1  1  0  0  0
 13 17  1  0  0  0  0
 13 18  1  0  0  0  0
 15  2  1  0  0  0  0
 15 14  1  1  0  0  0
 16 14  1  0  0  0  0
 17 20  1  6  0  0  0
 17 16  1  0  0  0  0
 18 19  1  6  0  0  0
 18 15  1  0  0  0  0
 19 13  1  0  0  0  0
 20 25  1  6  0  0  0
 20 23  1  0  0  0  0
 23 22  2  0  0  0  0
 23 21  1  0  0  0  0
 24 25  1  0  0  0  0
 26 28  1  0  0  0  0
 27 29  1  0  0  0  0
 27 26  1  0  0  0  0
 27 28  1  0  0  0  0
 29 30  2  0  0  0  0
 29 31  1  0  0  0  0
M  END
>  <MODEL>
2

>  <REMARK>
 VINA RESULT:      -8.4      1.599      8.417
  Name = 
  6 active torsions:
  status: ('A' for Active; 'I' for Inactive)
    1  A    between atoms: C_4  and  C_10
    2  A    between atoms: C_7  and  C_24
    3  A    between atoms: C_8  and  N_20
    4  A    between atoms: C_10  and  C_11
    5  A    between atoms: C_24  and  C_25
    6  A    between atoms: C_24  and  C_28
                            x       y       z     vdW  Elec       q    Type
                         _______ _______ _______ _____ _____    ______ ____

>  <TORSDO>
F 6

$$$$
=
 OpenBabel11072412133D

 31 35  0  0  1  0  0  0  0  0999 V2000
  161.3530  205.8400  150.0160 C   0  0  0  0  0  0  0  0  0  0  0  0
  161.3910  207.1140  150.4810 C   0  0  1  0  0  3  0  0  0  0  0  0
  160.8530  203.1780  149.1900 C   0  0  0  0  0  0  0  0  0  0  0  0
  162.1640  208.4720  148.5950 C   0  0  0  0  0  3  0  0  0  0  0  0
  161.0950  204.8150  150.9460 C   0  0  0  0  0  3  0  0  0  0  0  0
  162.4920  207.5640  147.7350 N   0  0  0  0  0  0  0  0  0  0  0  0
  161.1540  204.1650  148.2500 C   0  0  0  0  0  3  0  0  0  0  0  0
  161.4450  205.4800  148.6310 C   0  0  0  0  0  0  0  0  0  0  0  0
  161.0760  208.2580  149.5730 C   0  0  0  0  0  2  0  0  0  0  0  0
  160.8490  203.5040  150.5450 C   0  0  0  0  0  3  0  0  0  0  0  0
  161.9450  206.2390  147.6380 C   0  0  0  0  0  2  0  0  0  0  0  0
  159.8360  209.2500  153.0350 C   0  0  0  0  0  1  0  0  0  0  0  0
  161.3320  209.2250  153.3770 C   0  0  1  0  0  0  0  0  0  0  0  0
  161.2500  206.3320  152.8930 C   0  0  0  0  0  2  0  0  0  0  0  0
  161.4890  207.3880  151.8940 N   0  0  1  0  0  0  0  0  0  0  0  0
  160.9870  206.9120  154.3160 C   0  0  0  0  0  2  0  0  0  0  0  0
  161.6540  208.3040  154.5660 C   0  0  2  0  0  3  0  0  0  0  0  0
  162.3030  208.4690  152.4250 C   0  0  1  0  0  3  0  0  0  0  0  0
  162.0320  209.8970  152.1940 C   0  0  0  0  0  2  0  0  0  0  0  0
  161.1920  208.9100  155.8980 C   0  0  1  0  0  3  0  0  0  0  0  0
  160.0360  210.9980  155.9640 O   0  0  0  0  0  1  0  0  0  0  0  0
  162.2910  211.1420  155.5820 O   0  0  0  0  0  0  0  0  0  0  0  0
  161.1360  210.4050  155.8180 C   0  0  0  0  0  0  0  0  0  0  0  0
  159.9770  207.2030  157.2610 C   0  0  0  0  0  1  0  0  0  0  0  0
  159.8250  208.3650  156.2980 C   0  0  0  0  0  2  0  0  0  0  0  0
  160.5020  200.7340  149.8340 C   0  0  0  0  0  2  0  0  0  0  0  0
  160.5220  201.7880  148.7470 C   0  0  0  0  0  0  0  0  0  0  0  0
  159.1970  201.2300  149.2280 C   0  0  0  0  0  2  0  0  0  0  0  0
  160.9750  201.3130  147.4060 C   0  0  0  0  0  0  0  0  0  0  0  0
  160.7770  202.0220  146.3840 O   0  0  0  0  0  0  0  0  0  0  0  0
  161.6550  200.1080  147.2890 O   0  0  0  0  0  1  0  0  0  0  0  0
  1  2  1  0  0  0  0
  1  5  1  0  0  0  0
  2  9  1  1  0  0  0
  2 15  1  0  0  0  0
  3 10  1  0  0  0  0
  4  9  1  0  0  0  0
  6  4  2  0  0  0  0
  7  8  1  0  0  0  0
  7  3  2  0  0  0  0
  8  1  2  0  0  0  0
 10  5  2  0  0  0  0
 11  6  1  0  0  0  0
 11  8  1  0  0  0  0
 13 12  1  6  0  0  0
 13 17  1  0  0  0  0
 14 16  1  0  0  0  0
 15 18  1  0  0  0  0
 15 14  1  1  0  0  0
 16 17  1  0  0  0  0
 17 20  1  1  0  0  0
 18 19  1  6  0  0  0
 18 13  1  0  0  0  0
 19 13  1  0  0  0  0
 20 25  1  6  0  0  0
 22 23  2  0  0  0  0
 23 20  1  0  0  0  0
 23 21  1  0  0  0  0
 25 24  1  0  0  0  0
 27  3  1  0  0  0  0
 27 28  1  0  0  0  0
 27 26  1  0  0  0  0
 28 26  1  0  0  0  0
 29 27  1  0  0  0  0
 30 29  2  0  0  0  0
 31 29  1  0  0  0  0
M  END
>  <MODEL>
3

>  <REMARK>
 VINA RESULT:      -7.5      0.994      1.485
  Name = 
  6 active torsions:
  status: ('A' for Active; 'I' for Inactive)
    1  A    between atoms: C_4  and  C_10
    2  A    between atoms: C_7  and  C_24
    3  A    between atoms: C_8  and  N_20
    4  A    between atoms: C_10  and  C_11
    5  A    between atoms: C_24  and  C_25
    6  A    between atoms: C_24  and  C_28
                            x       y       z     vdW  Elec       q    Type
                         _______ _______ _______ _____ _____    ______ ____

>  <TORSDO>
F 6

$$$$
=
 OpenBabel11072412133D

 31 35  0  0  1  0  0  0  0  0999 V2000
  161.3770  205.6190  150.3500 C   0  0  0  0  0  0  0  0  0  0  0  0
  161.7350  206.7300  151.0420 C   0  0  1  0  0  3  0  0  0  0  0  0
  161.0100  203.3590  148.6840 C   0  0  0  0  0  0  0  0  0  0  0  0
  161.6240  206.0880  153.4030 C   0  0  0  0  0  3  0  0  0  0  0  0
  161.1960  205.7480  148.9600 C   0  0  0  0  0  3  0  0  0  0  0  0
  161.0780  204.9180  153.3320 N   0  0  0  0  0  0  0  0  0  0  0  0
  161.1390  203.2050  150.0660 C   0  0  0  0  0  3  0  0  0  0  0  0
  161.2820  204.3060  150.9190 C   0  0  0  0  0  0  0  0  0  0  0  0
  162.4920  206.6070  152.3250 C   0  0  0  0  0  2  0  0  0  0  0  0
  161.0150  204.6400  148.1360 C   0  0  0  0  0  3  0  0  0  0  0  0
  161.1500  204.0060  152.2240 C   0  0  0  0  0  2  0  0  0  0  0  0
  163.0210  210.1370  151.5260 C   0  0  0  0  0  1  0  0  0  0  0  0
  161.5480  210.3080  151.1320 C   0  0  1  0  0  0  0  0  0  0  0  0
  162.0170  208.2870  149.0560 C   0  0  0  0  0  2  0  0  0  0  0  0
  161.6210  208.0420  150.4540 N   0  0  1  0  0  0  0  0  0  0  0  0
  162.2190  209.8040  148.7560 C   0  0  0  0  0  2  0  0  0  0  0  0
  161.3720  210.7490  149.6690 C   0  0  2  0  0  3  0  0  0  0  0  0
  160.6760  209.0340  150.9360 C   0  0  1  0  0  3  0  0  0  0  0  0
  160.7460  209.6650  152.2650 C   0  0  0  0  0  2  0  0  0  0  0  0
  161.7660  212.2180  149.4640 C   0  0  1  0  0  3  0  0  0  0  0  0
  163.7250  212.4300  148.1150 O   0  0  0  0  0  1  0  0  0  0  0  0
  161.7380  212.5660  146.9800 O   0  0  0  0  0  0  0  0  0  0  0  0
  162.4670  212.4090  148.1540 C   0  0  0  0  0  0  0  0  0  0  0  0
  160.1380  213.3720  150.9690 C   0  0  0  0  0  1  0  0  0  0  0  0
  160.5400  213.1230  149.5280 C   0  0  0  0  0  2  0  0  0  0  0  0
  161.4660  200.8710  148.3460 C   0  0  0  0  0  2  0  0  0  0  0  0
  160.8860  202.1590  147.7990 C   0  0  0  0  0  0  0  0  0  0  0  0
  159.9580  201.0630  148.2830 C   0  0  0  0  0  2  0  0  0  0  0  0
  160.9780  202.3210  146.3180 C   0  0  0  0  0  0  0  0  0  0  0  0
  160.2370  201.6410  145.5610 O   0  0  0  0  0  0  0  0  0  0  0  0
  161.8510  203.2540  145.7740 O   0  0  0  0  0  1  0  0  0  0  0  0
  1  8  1  0  0  0  0
  1  2  1  0  0  0  0
  2  9  1  6  0  0  0
  3  7  1  0  0  0  0
  5  1  2  0  0  0  0
  6  4  2  0  0  0  0
  7  8  2  0  0  0  0
  8 11  1  0  0  0  0
  9  4  1  0  0  0  0
 10  3  2  0  0  0  0
 10  5  1  0  0  0  0
 11  6  1  0  0  0  0
 13 12  1  1  0  0  0
 13 19  1  0  0  0  0
 15 14  1  6  0  0  0
 15 18  1  0  0  0  0
 15  2  1  0  0  0  0
 16 14  1  0  0  0  0
 16 17  1  0  0  0  0
 17 20  1  1  0  0  0
 17 13  1  0  0  0  0
 18 13  1  0  0  0  0
 18 19  1  1  0  0  0
 20 25  1  6  0  0  0
 21 23  1  0  0  0  0
 22 23  2  0  0  0  0
 23 20  1  0  0  0  0
 25 24  1  0  0  0  0
 27 28  1  0  0  0  0
 27 26  1  0  0  0  0
 27  3  1  0  0  0  0
 28 26  1  0  0  0  0
 29 27  1  0  0  0  0
 30 29  2  0  0  0  0
 31 29  1  0  0  0  0
M  END
>  <MODEL>
4

>  <REMARK>
 VINA RESULT:      -7.4      3.207      4.695
  Name = 
  6 active torsions:
  status: ('A' for Active; 'I' for Inactive)
    1  A    between atoms: C_4  and  C_10
    2  A    between atoms: C_7  and  C_24
    3  A    between atoms: C_8  and  N_20
    4  A    between atoms: C_10  and  C_11
    5  A    between atoms: C_24  and  C_25
    6  A    between atoms: C_24  and  C_28
                            x       y       z     vdW  Elec       q    Type
                         _______ _______ _______ _____ _____    ______ ____

>  <TORSDO>
F 6

$$$$
=
 OpenBabel11072412133D

 31 35  0  0  1  0  0  0  0  0999 V2000
  160.6810  209.1160  153.0160 C   0  0  0  0  0  0  0  0  0  0  0  0
  161.0650  207.8760  152.6230 C   0  0  1  0  0  3  0  0  0  0  0  0
  159.5100  211.6260  153.6030 C   0  0  0  0  0  0  0  0  0  0  0  0
  161.6350  206.6870  154.6870 C   0  0  0  0  0  3  0  0  0  0  0  0
  160.4490  210.0750  152.0120 C   0  0  0  0  0  3  0  0  0  0  0  0
  161.5820  207.6380  155.5620 N   0  0  0  0  0  0  0  0  0  0  0  0
  159.7720  210.7130  154.6260 C   0  0  0  0  0  3  0  0  0  0  0  0
  160.3860  209.4810  154.3720 C   0  0  0  0  0  0  0  0  0  0  0  0
  160.7760  206.6890  153.4840 C   0  0  0  0  0  2  0  0  0  0  0  0
  159.8740  211.3110  152.2960 C   0  0  0  0  0  3  0  0  0  0  0  0
  160.7850  208.8300  155.4810 C   0  0  0  0  0  2  0  0  0  0  0  0
  159.9040  206.3450  149.4920 C   0  0  0  0  0  1  0  0  0  0  0  0
  161.3850  205.9610  149.6100 C   0  0  1  0  0  0  0  0  0  0  0  0
  161.8970  208.7440  150.3860 C   0  0  0  0  0  2  0  0  0  0  0  0
  161.5300  207.6320  151.2800 N   0  0  1  0  0  0  0  0  0  0  0  0
  161.9570  208.3080  148.8910 C   0  0  0  0  0  2  0  0  0  0  0  0
  162.2890  206.7940  148.6860 C   0  0  2  0  0  3  0  0  0  0  0  0
  162.1650  206.3840  150.8880 C   0  0  1  0  0  3  0  0  0  0  0  0
  161.4800  205.0820  150.8590 C   0  0  0  0  0  2  0  0  0  0  0  0
  162.1330  206.3850  147.2150 C   0  0  1  0  0  3  0  0  0  0  0  0
  163.5990  204.7030  146.3660 O   0  0  0  0  0  0  0  0  0  0  0  0
  161.7750  203.9210  147.5110 O   0  0  0  0  0  1  0  0  0  0  0  0
  162.5460  204.9610  147.0060 C   0  0  0  0  0  0  0  0  0  0  0  0
  160.5560  206.2010  145.2850 C   0  0  0  0  0  1  0  0  0  0  0  0
  160.6930  206.5760  146.7480 C   0  0  0  0  0  2  0  0  0  0  0  0
  158.9510  213.9990  152.8450 C   0  0  0  0  0  2  0  0  0  0  0  0
  158.8280  212.9230  153.9050 C   0  0  0  0  0  0  0  0  0  0  0  0
  157.6310  213.2680  153.0410 C   0  0  0  0  0  2  0  0  0  0  0  0
  158.7740  213.4190  155.3120 C   0  0  0  0  0  0  0  0  0  0  0  0
  159.7020  214.1400  155.7640 O   0  0  0  0  0  0  0  0  0  0  0  0
  157.6790  213.1210  156.1130 O   0  0  0  0  0  1  0  0  0  0  0  0
  1  8  1  0  0  0  0
  2  1  1  0  0  0  0
  2  9  1  6  0  0  0
  3 27  1  0  0  0  0
  3  7  1  0  0  0  0
  4  6  2  0  0  0  0
  5 10  1  0  0  0  0
  5  1  2  0  0  0  0
  8  7  2  0  0  0  0
  8 11  1  0  0  0  0
  9  4  1  0  0  0  0
 10  3  2  0  0  0  0
 11  6  1  0  0  0  0
 13 12  1  1  0  0  0
 13 19  1  0  0  0  0
 13 18  1  0  0  0  0
 15 14  1  1  0  0  0
 15  2  1  0  0  0  0
 16 14  1  0  0  0  0
 17 20  1  6  0  0  0
 17 16  1  0  0  0  0
 17 13  1  0  0  0  0
 18 19  1  1  0  0  0
 18 15  1  0  0  0  0
 20 25  1  1  0  0  0
 21 23  2  0  0  0  0
 23 20  1  0  0  0  0
 23 22  1  0  0  0  0
 24 25  1  0  0  0  0
 26 28  1  0  0  0  0
 26 27  1  0  0  0  0
 27 29  1  0  0  0  0
 28 27  1  0  0  0  0
 29 30  2  0  0  0  0
 29 31  1  0  0  0  0
M  END
>  <MODEL>
5

>  <REMARK>
 VINA RESULT:      -6.9      2.716      9.150
  Name = 
  6 active torsions:
  status: ('A' for Active; 'I' for Inactive)
    1  A    between atoms: C_4  and  C_10
    2  A    between atoms: C_7  and  C_24
    3  A    between atoms: C_8  and  N_20
    4  A    between atoms: C_10  and  C_11
    5  A    between atoms: C_24  and  C_25
    6  A    between atoms: C_24  and  C_28
                            x       y       z     vdW  Elec       q    Type
                         _______ _______ _______ _____ _____    ______ ____

>  <TORSDO>
F 6

$$$$
=
 OpenBabel11072412133D

 31 35  0  0  1  0  0  0  0  0999 V2000
  161.2410  205.9110  150.4070 C   0  0  0  0  0  0  0  0  0  0  0  0
  161.3550  206.2760  151.7090 C   0  0  1  0  0  3  0  0  0  0  0  0
  161.3920  205.3580  147.6350 C   0  0  0  0  0  0  0  0  0  0  0  0
  161.1140  204.2030  152.9900 C   0  0  0  0  0  3  0  0  0  0  0  0
  161.1800  206.9370  149.4460 C   0  0  0  0  0  3  0  0  0  0  0  0
  160.7640  203.3650  152.0690 N   0  0  0  0  0  0  0  0  0  0  0  0
  161.4070  204.3160  148.5640 C   0  0  0  0  0  3  0  0  0  0  0  0
  161.2940  204.5560  149.9390 C   0  0  0  0  0  0  0  0  0  0  0  0
  161.9930  205.3550  152.6980 C   0  0  0  0  0  2  0  0  0  0  0  0
  161.2530  206.6700  148.0810 C   0  0  0  0  0  3  0  0  0  0  0  0
  161.0830  203.4470  150.6720 C   0  0  0  0  0  2  0  0  0  0  0  0
  162.1570  208.5550  154.4770 C   0  0  0  0  0  1  0  0  0  0  0  0
  160.6950  208.8500  154.1150 C   0  0  1  0  0  0  0  0  0  0  0  0
  161.5260  208.7770  151.3020 C   0  0  0  0  0  2  0  0  0  0  0  0
  161.0990  207.6340  152.1260 N   0  0  1  0  0  0  0  0  0  0  0  0
  161.5420  210.1130  152.1060 C   0  0  0  0  0  2  0  0  0  0  0  0
  160.5350  210.1440  153.3010 C   0  0  2  0  0  3  0  0  0  0  0  0
  160.0080  207.9820  153.0210 C   0  0  1  0  0  3  0  0  0  0  0  0
  159.9300  207.5630  154.4300 C   0  0  0  0  0  2  0  0  0  0  0  0
  160.7420  211.3930  154.1690 C   0  0  1  0  0  3  0  0  0  0  0  0
  159.2330  213.2150  154.4960 O   0  0  0  0  0  1  0  0  0  0  0  0
  159.8610  212.8450  152.3230 O   0  0  0  0  0  0  0  0  0  0  0  0
  159.9040  212.5340  153.6770 C   0  0  0  0  0  0  0  0  0  0  0  0
  161.5410  211.5510  156.5310 C   0  0  0  0  0  1  0  0  0  0  0  0
  160.4080  211.1030  155.6280 C   0  0  0  0  0  2  0  0  0  0  0  0
  162.9480  204.7650  145.7010 C   0  0  0  0  0  2  0  0  0  0  0  0
  161.5410  205.0680  146.1740 C   0  0  0  0  0  0  0  0  0  0  0  0
  161.9210  203.6470  145.8090 C   0  0  0  0  0  2  0  0  0  0  0  0
  160.6760  205.7810  145.1880 C   0  0  0  0  0  0  0  0  0  0  0  0
  159.5680  206.2590  145.5490 O   0  0  0  0  0  1  0  0  0  0  0  0
  161.1110  205.9560  143.8800 O   0  0  0  0  0  0  0  0  0  0  0  0
  1  2  1  0  0  0  0
  2 15  1  0  0  0  0
  2  9  1  6  0  0  0
  3 10  2  0  0  0  0
  3  7  1  0  0  0  0
  5  1  2  0  0  0  0
  6  4  2  0  0  0  0
  7  8  2  0  0  0  0
  8  1  1  0  0  0  0
  8 11  1  0  0  0  0
  9  4  1  0  0  0  0
 10  5  1  0  0  0  0
 11  6  1  0  0  0  0
 13 19  1  0  0  0  0
 13 12  1  6  0  0  0
 14 16  1  0  0  0  0
 15 14  1  6  0  0  0
 15 18  1  0  0  0  0
 16 17  1  0  0  0  0
 17 13  1  0  0  0  0
 17 20  1  1  0  0  0
 18 13  1  0  0  0  0
 18 19  1  1  0  0  0
 20 25  1  1  0  0  0
 22 23  2  0  0  0  0
 23 20  1  0  0  0  0
 23 21  1  0  0  0  0
 25 24  1  0  0  0  0
 26 28  1  0  0  0  0
 26 27  1  0  0  0  0
 27  3  1  0  0  0  0
 28 27  1  0  0  0  0
 29 30  1  0  0  0  0
 29 27  1  0  0  0  0
 31 29  2  0  0  0  0
M  END
>  <MODEL>
6

>  <REMARK>
 VINA RESULT:      -6.8      2.738      4.111
  Name = 
  6 active torsions:
  status: ('A' for Active; 'I' for Inactive)
    1  A    between atoms: C_4  and  C_10
    2  A    between atoms: C_7  and  C_24
    3  A    between atoms: C_8  and  N_20
    4  A    between atoms: C_10  and  C_11
    5  A    between atoms: C_24  and  C_25
    6  A    between atoms: C_24  and  C_28
                            x       y       z     vdW  Elec       q    Type
                         _______ _______ _______ _____ _____    ______ ____

>  <TORSDO>
F 6

$$$$
=
 OpenBabel11072412133D

 31 35  0  0  1  0  0  0  0  0999 V2000
  161.2860  204.2850  149.9090 C   0  0  0  0  0  0  0  0  0  0  0  0
  161.5620  204.0980  151.2240 C   0  0  1  0  0  3  0  0  0  0  0  0
  161.1100  204.8630  147.1430 C   0  0  0  0  0  0  0  0  0  0  0  0
  161.2140  201.7080  151.6290 C   0  0  0  0  0  3  0  0  0  0  0  0
  161.2480  205.6090  149.4320 C   0  0  0  0  0  3  0  0  0  0  0  0
  160.6870  201.3270  150.5110 N   0  0  0  0  0  0  0  0  0  0  0  0
  161.0970  203.5410  147.5900 C   0  0  0  0  0  3  0  0  0  0  0  0
  161.1420  203.2250  148.9530 C   0  0  0  0  0  0  0  0  0  0  0  0
  162.1840  202.8220  151.6900 C   0  0  0  0  0  2  0  0  0  0  0  0
  161.1610  205.8990  148.0730 C   0  0  0  0  0  3  0  0  0  0  0  0
  160.8790  201.9330  149.2240 C   0  0  0  0  0  2  0  0  0  0  0  0
  160.4560  207.5990  151.3680 C   0  0  0  0  0  1  0  0  0  0  0  0
  161.7560  207.5470  152.1820 C   0  0  1  0  0  0  0  0  0  0  0  0
  160.7220  205.0890  153.4070 C   0  0  0  0  0  2  0  0  0  0  0  0
  161.4990  205.1940  152.1600 N   0  0  1  0  0  0  0  0  0  0  0  0
  160.4380  206.4820  154.0470 C   0  0  0  0  0  2  0  0  0  0  0  0
  161.5070  207.5680  153.6990 C   0  0  2  0  0  3  0  0  0  0  0  0
  162.5400  206.2050  152.2490 C   0  0  1  0  0  3  0  0  0  0  0  0
  162.8490  207.1690  151.1810 C   0  0  0  0  0  2  0  0  0  0  0  0
  161.0660  208.9550  154.1860 C   0  0  1  0  0  3  0  0  0  0  0  0
  162.3400  209.5570  156.1140 O   0  0  0  0  0  0  0  0  0  0  0  0
  160.2550  208.7080  156.5470 O   0  0  0  0  0  1  0  0  0  0  0  0
  161.2590  209.0930  155.6650 C   0  0  0  0  0  0  0  0  0  0  0  0
  160.8830  211.0950  152.9070 C   0  0  0  0  0  1  0  0  0  0  0  0
  161.8370  210.0550  153.4630 C   0  0  0  0  0  2  0  0  0  0  0  0
  159.8420  204.7290  144.9320 C   0  0  0  0  0  2  0  0  0  0  0  0
  161.0870  205.1650  145.6770 C   0  0  0  0  0  0  0  0  0  0  0  0
  160.0810  206.2030  145.2230 C   0  0  0  0  0  2  0  0  0  0  0  0
  162.3540  205.1040  144.8910 C   0  0  0  0  0  0  0  0  0  0  0  0
  162.3650  205.4540  143.6810 O   0  0  0  0  0  0  0  0  0  0  0  0
  163.5340  204.7040  145.5040 O   0  0  0  0  0  1  0  0  0  0  0  0
  1  2  1  0  0  0  0
  2  9  1  6  0  0  0
  2 15  1  0  0  0  0
  3  7  2  0  0  0  0
  3 10  1  0  0  0  0
  4  9  1  0  0  0  0
  5  1  1  0  0  0  0
  6  4  2  0  0  0  0
  7  8  1  0  0  0  0
  8 11  1  0  0  0  0
  8  1  2  0  0  0  0
 10  5  2  0  0  0  0
 11  6  1  0  0  0  0
 13 12  1  6  0  0  0
 13 18  1  0  0  0  0
 13 17  1  0  0  0  0
 14 16  1  0  0  0  0
 15 18  1  0  0  0  0
 15 14  1  1  0  0  0
 17 16  1  0  0  0  0
 17 20  1  6  0  0  0
 18 19  1  6  0  0  0
 19 13  1  0  0  0  0
 20 25  1  6  0  0  0
 20 23  1  0  0  0  0
 23 21  2  0  0  0  0
 23 22  1  0  0  0  0
 24 25  1  0  0  0  0
 26 28  1  0  0  0  0
 26 27  1  0  0  0  0
 27  3  1  0  0  0  0
 28 27  1  0  0  0  0
 29 31  1  0  0  0  0
 29 27  1  0  0  0  0
 30 29  2  0  0  0  0
M  END
>  <MODEL>
7

>  <REMARK>
 VINA RESULT:      -6.6      2.272      3.793
  Name = 
  6 active torsions:
  status: ('A' for Active; 'I' for Inactive)
    1  A    between atoms: C_4  and  C_10
    2  A    between atoms: C_7  and  C_24
    3  A    between atoms: C_8  and  N_20
    4  A    between atoms: C_10  and  C_11
    5  A    between atoms: C_24  and  C_25
    6  A    between atoms: C_24  and  C_28
                            x       y       z     vdW  Elec       q    Type
                         _______ _______ _______ _____ _____    ______ ____

>  <TORSDO>
F 6

$$$$
=
 OpenBabel11072412133D

 31 35  0  0  1  0  0  0  0  0999 V2000
  161.5890  208.7110  150.5810 C   0  0  0  0  0  0  0  0  0  0  0  0
  161.1610  207.6580  151.3230 C   0  0  1  0  0  3  0  0  0  0  0  0
  162.0880  210.8790  148.8310 C   0  0  0  0  0  0  0  0  0  0  0  0
  161.4420  208.3510  153.6560 C   0  0  0  0  0  3  0  0  0  0  0  0
  161.6920  208.5270  149.1890 C   0  0  0  0  0  3  0  0  0  0  0  0
  162.0910  209.4610  153.5240 N   0  0  0  0  0  0  0  0  0  0  0  0
  162.0390  211.0830  150.2120 C   0  0  0  0  0  3  0  0  0  0  0  0
  161.8340  210.0240  151.1040 C   0  0  0  0  0  0  0  0  0  0  0  0
  160.4800  207.8870  152.6340 C   0  0  0  0  0  2  0  0  0  0  0  0
  161.9370  209.5910  148.3250 C   0  0  0  0  0  3  0  0  0  0  0  0
  162.0540  210.3450  152.3930 C   0  0  0  0  0  2  0  0  0  0  0  0
  162.4590  205.7810  148.4450 C   0  0  0  0  0  1  0  0  0  0  0  0
  161.0300  205.2640  148.6590 C   0  0  1  0  0  0  0  0  0  0  0  0
  161.6450  205.1740  151.5270 C   0  0  0  0  0  2  0  0  0  0  0  0
  161.1230  206.3260  150.7720 N   0  0  1  0  0  0  0  0  0  0  0  0
  161.9000  203.9350  150.6150 C   0  0  0  0  0  2  0  0  0  0  0  0
  160.9920  203.8880  149.3430 C   0  0  2  0  0  3  0  0  0  0  0  0
  160.1560  205.9260  149.7640 C   0  0  1  0  0  3  0  0  0  0  0  0
  160.1190  206.4650  148.3940 C   0  0  0  0  0  2  0  0  0  0  0  0
  161.4290  202.7660  148.3910 C   0  0  1  0  0  3  0  0  0  0  0  0
  161.4800  200.3950  148.6750 O   0  0  0  0  0  0  0  0  0  0  0  0
  159.5110  201.4070  149.2670 O   0  0  0  0  0  1  0  0  0  0  0  0
  160.8130  201.4570  148.7840 C   0  0  0  0  0  0  0  0  0  0  0  0
  160.8420  201.8260  146.1510 C   0  0  0  0  0  1  0  0  0  0  0  0
  161.0520  203.0980  146.9510 C   0  0  0  0  0  2  0  0  0  0  0  0
  163.1820  213.1460  148.4100 C   0  0  0  0  0  2  0  0  0  0  0  0
  162.2820  212.0380  147.9040 C   0  0  0  0  0  0  0  0  0  0  0  0
  163.6720  212.2030  147.3220 C   0  0  0  0  0  2  0  0  0  0  0  0
  161.1570  212.4800  147.0290 C   0  0  0  0  0  0  0  0  0  0  0  0
  159.9870  212.5480  147.4900 O   0  0  0  0  0  1  0  0  0  0  0  0
  161.4040  212.8580  145.7150 O   0  0  0  0  0  0  0  0  0  0  0  0
  1  8  1  0  0  0  0
  1  2  1  0  0  0  0
  2  9  1  6  0  0  0
  3  7  1  0  0  0  0
  5  1  2  0  0  0  0
  6  4  2  0  0  0  0
  7  8  2  0  0  0  0
  8 11  1  0  0  0  0
  9  4  1  0  0  0  0
 10  3  2  0  0  0  0
 10  5  1  0  0  0  0
 11  6  1  0  0  0  0
 13 12  1  1  0  0  0
 13 17  1  0  0  0  0
 13 18  1  0  0  0  0
 15  2  1  0  0  0  0
 15 14  1  1  0  0  0
 16 14  1  0  0  0  0
 17 20  1  6  0  0  0
 17 16  1  0  0  0  0
 18 19  1  6  0  0  0
 18 15  1  0  0  0  0
 19 13  1  0  0  0  0
 20 25  1  6  0  0  0
 20 23  1  0  0  0  0
 21 23  2  0  0  0  0
 23 22  1  0  0  0  0
 24 25  1  0  0  0  0
 27 26  1  0  0  0  0
 27  3  1  0  0  0  0
 28 27  1  0  0  0  0
 28 26  1  0  0  0  0
 29 30  1  0  0  0  0
 29 27  1  0  0  0  0
 31 29  2  0  0  0  0
M  END
>  <MODEL>
8

>  <REMARK>
 VINA RESULT:      -6.4      3.438      8.359
  Name = 
  6 active torsions:
  status: ('A' for Active; 'I' for Inactive)
    1  A    between atoms: C_4  and  C_10
    2  A    between atoms: C_7  and  C_24
    3  A    between atoms: C_8  and  N_20
    4  A    between atoms: C_10  and  C_11
    5  A    between atoms: C_24  and  C_25
    6  A    between atoms: C_24  and  C_28
                            x       y       z     vdW  Elec       q    Type
                         _______ _______ _______ _____ _____    ______ ____

>  <TORSDO>
F 6

$$$$
=
 OpenBabel11072412133D

 31 35  0  0  1  0  0  0  0  0999 V2000
  160.5950  208.8980  153.2960 C   0  0  0  0  0  0  0  0  0  0  0  0
  160.8870  207.5860  153.1050 C   0  0  1  0  0  3  0  0  0  0  0  0
  159.5860  211.5330  153.5290 C   0  0  0  0  0  0  0  0  0  0  0  0
  161.6960  206.7780  155.2710 C   0  0  0  0  0  3  0  0  0  0  0  0
  160.2570  209.6620  152.1630 C   0  0  0  0  0  3  0  0  0  0  0  0
  161.7880  207.8780  155.9440 N   0  0  0  0  0  0  0  0  0  0  0  0
  159.9580  210.8160  154.6680 C   0  0  0  0  0  3  0  0  0  0  0  0
  160.4960  209.5270  154.5810 C   0  0  0  0  0  0  0  0  0  0  0  0
  160.6830  206.6000  154.2080 C   0  0  0  0  0  2  0  0  0  0  0  0
  159.7610  210.9580  152.2720 C   0  0  0  0  0  3  0  0  0  0  0  0
  161.0220  209.0750  155.7360 C   0  0  0  0  0  2  0  0  0  0  0  0
  159.7980  204.8740  150.8790 C   0  0  0  0  0  1  0  0  0  0  0  0
  161.3150  204.9850  150.6760 C   0  0  1  0  0  0  0  0  0  0  0  0
  160.9450  207.8950  150.5840 C   0  0  0  0  0  2  0  0  0  0  0  0
  161.1600  207.0700  151.7860 N   0  0  1  0  0  0  0  0  0  0  0  0
  160.8860  207.0400  149.2820 C   0  0  0  0  0  2  0  0  0  0  0  0
  161.6880  205.7010  149.3670 C   0  0  2  0  0  3  0  0  0  0  0  0
  162.1120  205.9970  151.5490 C   0  0  1  0  0  3  0  0  0  0  0  0
  161.9350  204.6160  152.0250 C   0  0  0  0  0  2  0  0  0  0  0  0
  161.4240  204.8180  148.1390 C   0  0  1  0  0  3  0  0  0  0  0  0
  163.3200  204.9540  146.6950 O   0  0  0  0  0  1  0  0  0  0  0  0
  161.5330  206.2530  146.0850 O   0  0  0  0  0  0  0  0  0  0  0  0
  162.1470  205.3410  146.9360 C   0  0  0  0  0  0  0  0  0  0  0  0
  160.8700  202.4100  147.7630 C   0  0  0  0  0  1  0  0  0  0  0  0
  161.8460  203.3760  148.4060 C   0  0  0  0  0  2  0  0  0  0  0  0
  157.9960  213.0810  154.7890 C   0  0  0  0  0  2  0  0  0  0  0  0
  158.9880  212.8980  153.6590 C   0  0  0  0  0  0  0  0  0  0  0  0
  159.3870  213.6900  154.8880 C   0  0  0  0  0  2  0  0  0  0  0  0
  158.7120  213.7030  152.4320 C   0  0  0  0  0  0  0  0  0  0  0  0
  159.6530  214.2980  151.8420 O   0  0  0  0  0  0  0  0  0  0  0  0
  157.4250  213.7630  151.9140 O   0  0  0  0  0  1  0  0  0  0  0  0
  1  8  1  0  0  0  0
  2  1  1  0  0  0  0
  2  9  1  6  0  0  0
  3 27  1  0  0  0  0
  3  7  1  0  0  0  0
  4  6  2  0  0  0  0
  5 10  1  0  0  0  0
  5  1  2  0  0  0  0
  8  7  2  0  0  0  0
  8 11  1  0  0  0  0
  9  4  1  0  0  0  0
 10  3  2  0  0  0  0
 11  6  1  0  0  0  0
 13 12  1  1  0  0  0
 13 18  1  0  0  0  0
 13 19  1  0  0  0  0
 15 14  1  6  0  0  0
 15  2  1  0  0  0  0
 16 17  1  0  0  0  0
 16 14  1  0  0  0  0
 17 20  1  6  0  0  0
 17 13  1  0  0  0  0
 18 15  1  0  0  0  0
 18 19  1  1  0  0  0
 20 25  1  1  0  0  0
 21 23  1  0  0  0  0
 22 23  2  0  0  0  0
 23 20  1  0  0  0  0
 24 25  1  0  0  0  0
 26 28  1  0  0  0  0
 27 26  1  0  0  0  0
 27 28  1  0  0  0  0
 29 27  1  0  0  0  0
 30 29  2  0  0  0  0
 31 29  1  0  0  0  0
M  END
>  <MODEL>
9

>  <REMARK>
 VINA RESULT:      -6.3      2.892      9.052
  Name = 
  6 active torsions:
  status: ('A' for Active; 'I' for Inactive)
    1  A    between atoms: C_4  and  C_10
    2  A    between atoms: C_7  and  C_24
    3  A    between atoms: C_8  and  N_20
    4  A    between atoms: C_10  and  C_11
    5  A    between atoms: C_24  and  C_25
    6  A    between atoms: C_24  and  C_28
                            x       y       z     vdW  Elec       q    Type
                         _______ _______ _______ _____ _____    ______ ____

>  <TORSDO>
F 6

$$$$
