=
 OpenBabel11072412113D

 31 36  0  0  1  0  0  0  0  0999 V2000
  161.3030  207.5560  152.5280 N   0  0  0  0  0  0  0  0  0  0  0  0
  160.4440  209.4990  152.5250 C   0  0  0  0  0  0  0  0  0  0  0  0
  162.9050  207.9540  150.9290 O   0  0  0  0  0  0  0  0  0  0  0  0
  161.4290  209.5800  151.5980 N   0  0  0  0  0  0  0  0  0  0  0  0
  161.9410  208.3380  151.6450 C   0  0  0  0  0  0  0  0  0  0  0  0
  160.3490  208.2750  153.0890 N   0  0  0  0  0  2  0  0  0  0  0  0
  159.5820  211.2070  154.2530 C   0  0  2  0  0  3  0  0  0  0  0  0
  159.4910  210.6210  152.8330 C   0  0  1  0  0  3  0  0  0  0  0  0
  160.2540  211.9100  153.0840 C   0  0  1  0  0  3  0  0  0  0  0  0
  162.7920  210.3480  156.0190 C   0  0  0  0  0  3  0  0  0  0  0  0
  160.1350  209.5520  156.0490 C   0  0  0  0  0  3  0  0  0  0  0  0
  161.8890  210.9210  155.1790 N   0  0  0  0  0  0  0  0  0  0  0  0
  160.5790  210.5410  155.1650 C   0  0  0  0  0  0  0  0  0  0  0  0
  162.3850  209.3500  156.9080 C   0  0  0  0  0  3  0  0  0  0  0  0
  161.0460  208.9550  156.9220 C   0  0  0  0  0  3  0  0  0  0  0  0
  159.4720  212.9920  152.6870 O   0  0  0  0  0  0  0  0  0  0  0  0
  159.6630  213.0770  151.3080 C   0  0  0  0  0  2  0  0  0  0  0  0
  158.3920  213.5710  150.6510 C   0  0  0  0  0  1  0  0  0  0  0  0
  161.5660  206.1560  152.8300 C   0  0  0  0  0  2  0  0  0  0  0  0
  162.0820  205.4280  151.5980 C   0  0  0  0  0  2  0  0  0  0  0  0
  161.0400  203.5900  150.1970 C   0  0  1  0  0  0  0  0  0  0  0  0
  161.5350  204.0060  151.5420 C   0  0  2  0  0  3  0  0  0  0  0  0
  160.1640  204.0440  151.2040 O   0  0  0  0  0  0  0  0  0  0  0  0
  161.1450  204.5410  149.0370 C   0  0  0  0  0  0  0  0  0  0  0  0
  160.7460  206.2730  147.6880 C   0  0  0  0  0  3  0  0  0  0  0  0
  160.3730  205.5610  148.9020 N   0  0  0  0  0  0  0  0  0  0  0  0
  162.0830  204.4140  148.0340 O   0  0  0  0  0  0  0  0  0  0  0  0
  161.9150  205.4720  147.1090 C   0  0  0  0  0  3  0  0  0  0  0  0
  160.9660  201.7400  148.4830 C   0  0  0  0  0  2  0  0  0  0  0  0
  159.6980  201.6520  149.2990 C   0  0  0  0  0  2  0  0  0  0  0  0
  160.9990  202.0740  149.9670 C   0  0  0  0  0  3  0  0  0  0  0  0
  1 19  1  0  0  0  0
  1  6  1  0  0  0  0
  2  6  1  0  0  0  0
  3  5  2  0  0  0  0
  4  5  1  0  0  0  0
  4  2  2  0  0  0  0
  5  1  1  0  0  0  0
  7 13  1  1  0  0  0
  8  2  1  1  0  0  0
  8  9  1  0  0  0  0
  8  7  1  0  0  0  0
  9 16  1  6  0  0  0
  9  7  1  0  0  0  0
 10 14  1  0  0  0  0
 11 15  1  0  0  0  0
 12 10  2  0  0  0  0
 13 12  1  0  0  0  0
 13 11  2  0  0  0  0
 14 15  2  0  0  0  0
 17 16  1  0  0  0  0
 18 17  1  0  0  0  0
 20 19  1  0  0  0  0
 21 24  1  6  0  0  0
 21 23  1  0  0  0  0
 21 22  1  0  0  0  0
 22 20  1  6  0  0  0
 23 22  1  0  0  0  0
 25 26  1  0  0  0  0
 26 24  2  0  0  0  0
 27 24  1  0  0  0  0
 28 25  2  0  0  0  0
 28 27  1  0  0  0  0
 29 30  1  0  0  0  0
 29 31  1  0  0  0  0
 30 31  1  0  0  0  0
 31 21  1  0  0  0  0
M  END
>  <MODEL>
1

>  <REMARK>
 VINA RESULT:      -7.4      0.000      0.000
  Name = 
  9 active torsions:
  status: ('A' for Active; 'I' for Inactive)
    1  A    between atoms: C_1  and  C_25
    2  A    between atoms: C_2  and  O_9
    3  A    between atoms: C_3  and  C_11
    4  A    between atoms: C_4  and  C_5
    5  A    between atoms: C_5  and  C_31
    6  A    between atoms: N_6  and  C_28
    7  A    between atoms: C_8  and  C_14
    8  A    between atoms: O_9  and  C_23
    9  A    between atoms: C_14  and  C_28
                            x       y       z     vdW  Elec       q    Type
                         _______ _______ _______ _____ _____    ______ ____

>  <TORSDO>
F 9

$$$$
=
 OpenBabel11072412113D

 31 36  0  0  1  0  0  0  0  0999 V2000
  161.4890  208.5720  152.0690 N   0  0  0  0  0  0  0  0  0  0  0  0
  160.1390  210.0700  152.7390 C   0  0  0  0  0  0  0  0  0  0  0  0
  162.9120  209.9670  150.9240 O   0  0  0  0  0  0  0  0  0  0  0  0
  161.0590  210.7610  152.0220 N   0  0  0  0  0  0  0  0  0  0  0  0
  161.8860  209.7760  151.6310 C   0  0  0  0  0  0  0  0  0  0  0  0
  160.3810  208.7410  152.7660 N   0  0  0  0  0  2  0  0  0  0  0  0
  158.9940  210.9300  154.8820 C   0  0  2  0  0  3  0  0  0  0  0  0
  158.9230  210.6960  153.3620 C   0  0  1  0  0  3  0  0  0  0  0  0
  159.2580  212.0720  153.9130 C   0  0  1  0  0  3  0  0  0  0  0  0
  162.5390  210.7750  156.1330 C   0  0  0  0  0  3  0  0  0  0  0  0
  160.2240  209.2540  156.2770 C   0  0  0  0  0  3  0  0  0  0  0  0
  161.4040  211.1840  155.5070 N   0  0  0  0  0  0  0  0  0  0  0  0
  160.2540  210.4490  155.5520 C   0  0  0  0  0  0  0  0  0  0  0  0
  162.5470  209.5800  156.8580 C   0  0  0  0  0  3  0  0  0  0  0  0
  161.3790  208.8200  156.9310 C   0  0  0  0  0  3  0  0  0  0  0  0
  158.1290  212.8840  153.8400 O   0  0  0  0  0  0  0  0  0  0  0  0
  157.1030  212.1090  154.3830 C   0  0  0  0  0  2  0  0  0  0  0  0
  155.8100  212.8960  154.3570 C   0  0  0  0  0  1  0  0  0  0  0  0
  162.1210  207.2830  151.8240 C   0  0  0  0  0  2  0  0  0  0  0  0
  161.6110  206.6710  150.5290 C   0  0  0  0  0  2  0  0  0  0  0  0
  161.1130  204.4370  149.4400 C   0  0  1  0  0  0  0  0  0  0  0  0
  161.3090  205.1890  150.7130 C   0  0  2  0  0  3  0  0  0  0  0  0
  160.0240  204.9040  150.2020 O   0  0  0  0  0  0  0  0  0  0  0  0
  161.2590  205.1490  148.1240 C   0  0  0  0  0  0  0  0  0  0  0  0
  160.7910  206.4270  146.3550 C   0  0  0  0  0  3  0  0  0  0  0  0
  160.3250  205.8780  147.6210 N   0  0  0  0  0  0  0  0  0  0  0  0
  162.4030  205.0990  147.3560 O   0  0  0  0  0  0  0  0  0  0  0  0
  162.2120  205.8810  146.1930 C   0  0  0  0  0  3  0  0  0  0  0  0
  161.0610  202.2290  148.2190 C   0  0  0  0  0  2  0  0  0  0  0  0
  160.0510  202.1500  149.3400 C   0  0  0  0  0  2  0  0  0  0  0  0
  161.3460  202.9240  149.5430 C   0  0  0  0  0  3  0  0  0  0  0  0
  1  6  1  0  0  0  0
  2  6  1  0  0  0  0
  3  5  2  0  0  0  0
  4  2  2  0  0  0  0
  5  4  1  0  0  0  0
  5  1  1  0  0  0  0
  7 13  1  6  0  0  0
  8  2  1  6  0  0  0
  8  9  1  0  0  0  0
  8  7  1  0  0  0  0
  9 16  1  1  0  0  0
  9  7  1  0  0  0  0
 10 14  1  0  0  0  0
 11 15  1  0  0  0  0
 12 13  1  0  0  0  0
 12 10  2  0  0  0  0
 13 11  2  0  0  0  0
 14 15  2  0  0  0  0
 16 17  1  0  0  0  0
 18 17  1  0  0  0  0
 19  1  1  0  0  0  0
 20 19  1  0  0  0  0
 21 24  1  6  0  0  0
 21 31  1  0  0  0  0
 21 23  1  0  0  0  0
 21 22  1  0  0  0  0
 22 20  1  6  0  0  0
 23 22  1  0  0  0  0
 25 26  1  0  0  0  0
 26 24  2  0  0  0  0
 27 24  1  0  0  0  0
 28 25  2  0  0  0  0
 28 27  1  0  0  0  0
 29 30  1  0  0  0  0
 29 31  1  0  0  0  0
 30 31  1  0  0  0  0
M  END
>  <MODEL>
2

>  <REMARK>
 VINA RESULT:      -7.3      1.353      1.551
  Name = 
  9 active torsions:
  status: ('A' for Active; 'I' for Inactive)
    1  A    between atoms: C_1  and  C_25
    2  A    between atoms: C_2  and  O_9
    3  A    between atoms: C_3  and  C_11
    4  A    between atoms: C_4  and  C_5
    5  A    between atoms: C_5  and  C_31
    6  A    between atoms: N_6  and  C_28
    7  A    between atoms: C_8  and  C_14
    8  A    between atoms: O_9  and  C_23
    9  A    between atoms: C_14  and  C_28
                            x       y       z     vdW  Elec       q    Type
                         _______ _______ _______ _____ _____    ______ ____

>  <TORSDO>
F 9

$$$$
=
 OpenBabel11072412113D

 31 36  0  0  1  0  0  0  0  0999 V2000
  161.2070  208.3070  151.9670 N   0  0  0  0  0  0  0  0  0  0  0  0
  161.7080  209.4330  153.6970 C   0  0  0  0  0  0  0  0  0  0  0  0
  162.1310  209.7370  150.4230 O   0  0  0  0  0  0  0  0  0  0  0  0
  162.1980  210.1770  152.6760 N   0  0  0  0  0  0  0  0  0  0  0  0
  161.8640  209.4220  151.6140 C   0  0  0  0  0  0  0  0  0  0  0  0
  161.0950  208.3040  153.2820 N   0  0  0  0  0  2  0  0  0  0  0  0
  160.7340  210.9350  155.5520 C   0  0  2  0  0  3  0  0  0  0  0  0
  161.7550  209.8600  155.1380 C   0  0  1  0  0  3  0  0  0  0  0  0
  160.4710  209.4670  155.8490 C   0  0  1  0  0  3  0  0  0  0  0  0
  159.5810  212.7460  152.4610 C   0  0  0  0  0  3  0  0  0  0  0  0
  158.5290  211.0290  154.3690 C   0  0  0  0  0  3  0  0  0  0  0  0
  160.3540  212.2930  153.4840 N   0  0  0  0  0  0  0  0  0  0  0  0
  159.8580  211.4560  154.4420 C   0  0  0  0  0  0  0  0  0  0  0  0
  158.2460  212.3470  152.3630 C   0  0  0  0  0  3  0  0  0  0  0  0
  157.7210  211.4800  153.3230 C   0  0  0  0  0  3  0  0  0  0  0  0
  160.7480  209.2130  157.1900 O   0  0  0  0  0  0  0  0  0  0  0  0
  160.9130  207.8290  157.2590 C   0  0  0  0  0  2  0  0  0  0  0  0
  159.7810  207.1490  156.5190 C   0  0  0  0  0  1  0  0  0  0  0  0
  160.6750  207.2730  151.0900 C   0  0  0  0  0  2  0  0  0  0  0  0
  161.7850  206.3550  150.6060 C   0  0  0  0  0  2  0  0  0  0  0  0
  161.1170  204.1940  149.4610 C   0  0  1  0  0  0  0  0  0  0  0  0
  161.3800  204.8920  150.7530 C   0  0  2  0  0  3  0  0  0  0  0  0
  160.0720  204.7150  150.2500 O   0  0  0  0  0  0  0  0  0  0  0  0
  161.2990  204.9320  148.1640 C   0  0  0  0  0  0  0  0  0  0  0  0
  162.1740  205.5980  146.2230 C   0  0  0  0  0  3  0  0  0  0  0  0
  162.3090  204.7400  147.3910 N   0  0  0  0  0  0  0  0  0  0  0  0
  160.3970  205.8590  147.6850 O   0  0  0  0  0  0  0  0  0  0  0  0
  160.8620  206.3550  146.4440 C   0  0  0  0  0  3  0  0  0  0  0  0
  160.9190  202.0330  148.1730 C   0  0  0  0  0  2  0  0  0  0  0  0
  159.8980  201.9920  149.2850 C   0  0  0  0  0  2  0  0  0  0  0  0
  161.2430  202.6660  149.5190 C   0  0  0  0  0  3  0  0  0  0  0  0
  1  6  1  0  0  0  0
  3  5  2  0  0  0  0
  4  2  2  0  0  0  0
  5  1  1  0  0  0  0
  5  4  1  0  0  0  0
  6  2  1  0  0  0  0
  7 13  1  6  0  0  0
  7  9  1  0  0  0  0
  8  2  1  6  0  0  0
  8  7  1  0  0  0  0
  8  9  1  0  0  0  0
  9 16  1  1  0  0  0
 10 12  1  0  0  0  0
 11 13  1  0  0  0  0
 12 13  2  0  0  0  0
 14 10  2  0  0  0  0
 14 15  1  0  0  0  0
 15 11  2  0  0  0  0
 16 17  1  0  0  0  0
 18 17  1  0  0  0  0
 19  1  1  0  0  0  0
 20 19  1  0  0  0  0
 21 24  1  6  0  0  0
 21 31  1  0  0  0  0
 21 23  1  0  0  0  0
 21 22  1  0  0  0  0
 22 20  1  6  0  0  0
 23 22  1  0  0  0  0
 25 28  2  0  0  0  0
 25 26  1  0  0  0  0
 26 24  2  0  0  0  0
 27 24  1  0  0  0  0
 28 27  1  0  0  0  0
 29 30  1  0  0  0  0
 29 31  1  0  0  0  0
 30 31  1  0  0  0  0
M  END
>  <MODEL>
3

>  <REMARK>
 VINA RESULT:      -7.0      1.783      3.462
  Name = 
  9 active torsions:
  status: ('A' for Active; 'I' for Inactive)
    1  A    between atoms: C_1  and  C_25
    2  A    between atoms: C_2  and  O_9
    3  A    between atoms: C_3  and  C_11
    4  A    between atoms: C_4  and  C_5
    5  A    between atoms: C_5  and  C_31
    6  A    between atoms: N_6  and  C_28
    7  A    between atoms: C_8  and  C_14
    8  A    between atoms: O_9  and  C_23
    9  A    between atoms: C_14  and  C_28
                            x       y       z     vdW  Elec       q    Type
                         _______ _______ _______ _____ _____    ______ ____

>  <TORSDO>
F 9

$$$$
=
 OpenBabel11072412113D

 31 36  0  0  1  0  0  0  0  0999 V2000
  161.1770  208.8090  152.1140 N   0  0  0  0  0  0  0  0  0  0  0  0
  160.0280  210.4230  152.8820 C   0  0  0  0  0  0  0  0  0  0  0  0
  162.7110  210.0770  150.9640 O   0  0  0  0  0  0  0  0  0  0  0  0
  160.9970  211.0320  152.1550 N   0  0  0  0  0  0  0  0  0  0  0  0
  161.6930  209.9760  151.7010 C   0  0  0  0  0  0  0  0  0  0  0  0
  160.1190  209.0750  152.8560 N   0  0  0  0  0  2  0  0  0  0  0  0
  159.0470  211.3050  155.0960 C   0  0  2  0  0  3  0  0  0  0  0  0
  158.9120  211.1580  153.5700 C   0  0  1  0  0  3  0  0  0  0  0  0
  159.4240  212.4540  154.1740 C   0  0  1  0  0  3  0  0  0  0  0  0
  162.5730  210.6730  156.2490 C   0  0  0  0  0  3  0  0  0  0  0  0
  160.1020  209.4170  156.3570 C   0  0  0  0  0  3  0  0  0  0  0  0
  161.4800  211.2460  155.6760 N   0  0  0  0  0  0  0  0  0  0  0  0
  160.2560  210.6440  155.7050 C   0  0  0  0  0  0  0  0  0  0  0  0
  162.4570  209.4420  156.9000 C   0  0  0  0  0  3  0  0  0  0  0  0
  161.2110  208.8150  156.9550 C   0  0  0  0  0  3  0  0  0  0  0  0
  158.3990  213.3980  154.1730 O   0  0  0  0  0  0  0  0  0  0  0  0
  157.2260  212.6440  154.2130 C   0  0  0  0  0  2  0  0  0  0  0  0
  156.0880  213.5080  154.7140 C   0  0  0  0  0  1  0  0  0  0  0  0
  161.6510  207.4670  151.8030 C   0  0  0  0  0  2  0  0  0  0  0  0
  160.6210  206.7100  150.9790 C   0  0  0  0  0  2  0  0  0  0  0  0
  161.2550  205.4420  148.8780 C   0  0  1  0  0  0  0  0  0  0  0  0
  160.9650  206.7680  149.4950 C   0  0  2  0  0  3  0  0  0  0  0  0
  162.2850  206.3050  149.3020 O   0  0  0  0  0  0  0  0  0  0  0  0
  161.1530  204.1940  149.7110 C   0  0  0  0  0  0  0  0  0  0  0  0
  160.6300  202.1200  150.3450 C   0  0  0  0  0  3  0  0  0  0  0  0
  160.5280  203.1420  149.3140 N   0  0  0  0  0  0  0  0  0  0  0  0
  161.7320  204.0630  150.9560 O   0  0  0  0  0  0  0  0  0  0  0  0
  161.4540  202.7700  151.4590 C   0  0  0  0  0  3  0  0  0  0  0  0
  161.9230  204.2880  146.7350 C   0  0  0  0  0  2  0  0  0  0  0  0
  162.3640  205.7290  146.6300 C   0  0  0  0  0  2  0  0  0  0  0  0
  161.0710  205.3860  147.3560 C   0  0  0  0  0  3  0  0  0  0  0  0
  1  6  1  0  0  0  0
  3  5  2  0  0  0  0
  4  2  2  0  0  0  0
  5  1  1  0  0  0  0
  5  4  1  0  0  0  0
  6  2  1  0  0  0  0
  7 13  1  6  0  0  0
  8  2  1  6  0  0  0
  8  9  1  0  0  0  0
  8  7  1  0  0  0  0
  9 16  1  1  0  0  0
  9  7  1  0  0  0  0
 10 14  1  0  0  0  0
 11 15  1  0  0  0  0
 12 13  1  0  0  0  0
 12 10  2  0  0  0  0
 13 11  2  0  0  0  0
 14 15  2  0  0  0  0
 16 17  1  0  0  0  0
 17 18  1  0  0  0  0
 19  1  1  0  0  0  0
 20 19  1  0  0  0  0
 21 31  1  6  0  0  0
 21 23  1  0  0  0  0
 21 22  1  0  0  0  0
 21 24  1  0  0  0  0
 22 20  1  1  0  0  0
 23 22  1  0  0  0  0
 24 27  1  0  0  0  0
 25 28  2  0  0  0  0
 26 24  2  0  0  0  0
 26 25  1  0  0  0  0
 27 28  1  0  0  0  0
 29 31  1  0  0  0  0
 30 29  1  0  0  0  0
 30 31  1  0  0  0  0
M  END
>  <MODEL>
4

>  <REMARK>
 VINA RESULT:      -6.7      1.542      2.676
  Name = 
  9 active torsions:
  status: ('A' for Active; 'I' for Inactive)
    1  A    between atoms: C_1  and  C_25
    2  A    between atoms: C_2  and  O_9
    3  A    between atoms: C_3  and  C_11
    4  A    between atoms: C_4  and  C_5
    5  A    between atoms: C_5  and  C_31
    6  A    between atoms: N_6  and  C_28
    7  A    between atoms: C_8  and  C_14
    8  A    between atoms: O_9  and  C_23
    9  A    between atoms: C_14  and  C_28
                            x       y       z     vdW  Elec       q    Type
                         _______ _______ _______ _____ _____    ______ ____

>  <TORSDO>
F 9

$$$$
=
 OpenBabel11072412113D

 31 36  0  0  1  0  0  0  0  0999 V2000
  161.9110  211.7040  148.7740 N   0  0  0  0  0  0  0  0  0  0  0  0
  160.8000  213.2690  149.6850 C   0  0  0  0  0  0  0  0  0  0  0  0
  163.1250  213.0220  147.3340 O   0  0  0  0  0  0  0  0  0  0  0  0
  161.5800  213.9110  148.7810 N   0  0  0  0  0  0  0  0  0  0  0  0
  162.2620  212.8850  148.2420 C   0  0  0  0  0  0  0  0  0  0  0  0
  160.9830  211.9310  149.6840 N   0  0  0  0  0  2  0  0  0  0  0  0
  158.4130  214.2240  149.8640 C   0  0  2  0  0  3  0  0  0  0  0  0
  159.7710  213.9570  150.5380 C   0  0  1  0  0  3  0  0  0  0  0  0
  158.5920  213.0340  150.7930 C   0  0  1  0  0  3  0  0  0  0  0  0
  158.9690  214.0680  146.1460 C   0  0  0  0  0  3  0  0  0  0  0  0
  157.5210  212.7080  148.0820 C   0  0  0  0  0  3  0  0  0  0  0  0
  159.0260  214.4530  147.4490 N   0  0  0  0  0  0  0  0  0  0  0  0
  158.3150  213.8090  148.4190 C   0  0  0  0  0  0  0  0  0  0  0  0
  158.1780  212.9790  145.7720 C   0  0  0  0  0  3  0  0  0  0  0  0
  157.4540  212.2950  146.7500 C   0  0  0  0  0  3  0  0  0  0  0  0
  158.0350  213.3320  152.0350 O   0  0  0  0  0  0  0  0  0  0  0  0
  158.2510  212.1860  152.8010 C   0  0  0  0  0  2  0  0  0  0  0  0
  159.4480  212.4010  153.7030 C   0  0  0  0  0  1  0  0  0  0  0  0
  162.4200  210.3850  148.4230 C   0  0  0  0  0  2  0  0  0  0  0  0
  161.8980  209.3330  149.3890 C   0  0  0  0  0  2  0  0  0  0  0  0
  161.3170  206.8700  149.5400 C   0  0  1  0  0  0  0  0  0  0  0  0
  161.5600  208.0430  148.6510 C   0  0  2  0  0  3  0  0  0  0  0  0
  162.5600  207.0790  148.9090 O   0  0  0  0  0  0  0  0  0  0  0  0
  161.3800  207.0410  151.0330 C   0  0  0  0  0  0  0  0  0  0  0  0
  162.0700  206.8670  153.1480 C   0  0  0  0  0  3  0  0  0  0  0  0
  162.2900  206.4930  151.7580 N   0  0  0  0  0  0  0  0  0  0  0  0
  160.4850  207.8100  151.7470 O   0  0  0  0  0  0  0  0  0  0  0  0
  160.8310  207.7660  153.1180 C   0  0  0  0  0  3  0  0  0  0  0  0
  160.4690  204.5070  149.7920 C   0  0  0  0  0  2  0  0  0  0  0  0
  161.3380  204.5470  148.5580 C   0  0  0  0  0  2  0  0  0  0  0  0
  160.4760  205.7500  148.9140 C   0  0  0  0  0  3  0  0  0  0  0  0
  1  6  1  0  0  0  0
  3  5  2  0  0  0  0
  4  2  2  0  0  0  0
  5  1  1  0  0  0  0
  5  4  1  0  0  0  0
  6  2  1  0  0  0  0
  7 13  1  6  0  0  0
  7  8  1  0  0  0  0
  7  9  1  0  0  0  0
  8  2  1  6  0  0  0
  8  9  1  0  0  0  0
  9 16  1  1  0  0  0
 10 12  1  0  0  0  0
 11 13  1  0  0  0  0
 12 13  2  0  0  0  0
 14 10  2  0  0  0  0
 14 15  1  0  0  0  0
 15 11  2  0  0  0  0
 16 17  1  0  0  0  0
 17 18  1  0  0  0  0
 19  1  1  0  0  0  0
 19 20  1  0  0  0  0
 21 31  1  6  0  0  0
 21 24  1  0  0  0  0
 22 23  1  0  0  0  0
 22 20  1  1  0  0  0
 22 21  1  0  0  0  0
 23 21  1  0  0  0  0
 24 27  1  0  0  0  0
 24 26  2  0  0  0  0
 26 25  1  0  0  0  0
 27 28  1  0  0  0  0
 28 25  2  0  0  0  0
 30 31  1  0  0  0  0
 30 29  1  0  0  0  0
 31 29  1  0  0  0  0
M  END
>  <MODEL>
5

>  <REMARK>
 VINA RESULT:      -6.1      3.082      6.112
  Name = 
  9 active torsions:
  status: ('A' for Active; 'I' for Inactive)
    1  A    between atoms: C_1  and  C_25
    2  A    between atoms: C_2  and  O_9
    3  A    between atoms: C_3  and  C_11
    4  A    between atoms: C_4  and  C_5
    5  A    between atoms: C_5  and  C_31
    6  A    between atoms: N_6  and  C_28
    7  A    between atoms: C_8  and  C_14
    8  A    between atoms: O_9  and  C_23
    9  A    between atoms: C_14  and  C_28
                            x       y       z     vdW  Elec       q    Type
                         _______ _______ _______ _____ _____    ______ ____

>  <TORSDO>
F 9

$$$$
=
 OpenBabel11072412113D

 31 36  0  0  1  0  0  0  0  0999 V2000
  161.9290  212.2560  148.4030 N   0  0  0  0  0  0  0  0  0  0  0  0
  160.3120  213.6100  148.1490 C   0  0  0  0  0  0  0  0  0  0  0  0
  163.6220  213.7730  148.0630 O   0  0  0  0  0  0  0  0  0  0  0  0
  161.4110  214.3820  147.9660 N   0  0  0  0  0  0  0  0  0  0  0  0
  162.3980  213.4860  148.1430 C   0  0  0  0  0  0  0  0  0  0  0  0
  160.6110  212.3170  148.4040 N   0  0  0  0  0  2  0  0  0  0  0  0
  158.3390  214.0930  146.5620 C   0  0  2  0  0  3  0  0  0  0  0  0
  158.9030  214.1120  147.9940 C   0  0  1  0  0  3  0  0  0  0  0  0
  157.9870  212.9870  147.5450 C   0  0  1  0  0  3  0  0  0  0  0  0
  161.1630  214.0210  144.0760 C   0  0  0  0  0  3  0  0  0  0  0  0
  159.2030  212.3070  145.0350 C   0  0  0  0  0  3  0  0  0  0  0  0
  160.2750  214.4420  145.0160 N   0  0  0  0  0  0  0  0  0  0  0  0
  159.2950  213.6240  145.4970 C   0  0  0  0  0  0  0  0  0  0  0  0
  161.0940  212.7140  143.5850 C   0  0  0  0  0  3  0  0  0  0  0  0
  160.1090  211.8540  144.0730 C   0  0  0  0  0  3  0  0  0  0  0  0
  156.7060  213.2090  148.0470 O   0  0  0  0  0  0  0  0  0  0  0  0
  156.9100  213.9330  149.2220 C   0  0  0  0  0  2  0  0  0  0  0  0
  155.5960  214.0750  149.9610 C   0  0  0  0  0  1  0  0  0  0  0  0
  162.6990  211.0400  148.6270 C   0  0  0  0  0  2  0  0  0  0  0  0
  161.7770  209.8440  148.8010 C   0  0  0  0  0  2  0  0  0  0  0  0
  161.9220  207.6890  150.1300 C   0  0  1  0  0  0  0  0  0  0  0  0
  162.0050  209.1780  150.1540 C   0  0  2  0  0  3  0  0  0  0  0  0
  160.8350  208.4870  150.5400 O   0  0  0  0  0  0  0  0  0  0  0  0
  161.6710  206.9780  148.8290 C   0  0  0  0  0  0  0  0  0  0  0  0
  160.6130  205.9050  147.1820 C   0  0  0  0  0  3  0  0  0  0  0  0
  160.5150  206.5220  148.4980 N   0  0  0  0  0  0  0  0  0  0  0  0
  162.6470  206.7700  147.8770 O   0  0  0  0  0  0  0  0  0  0  0  0
  162.0790  206.0840  146.7770 C   0  0  0  0  0  3  0  0  0  0  0  0
  162.1260  205.5710  151.4860 C   0  0  0  0  0  2  0  0  0  0  0  0
  161.7010  206.6730  152.4280 C   0  0  0  0  0  2  0  0  0  0  0  0
  162.6520  206.9850  151.2810 C   0  0  0  0  0  3  0  0  0  0  0  0
  1  6  1  0  0  0  0
  1 19  1  0  0  0  0
  2  6  1  0  0  0  0
  3  5  2  0  0  0  0
  4  5  1  0  0  0  0
  4  2  2  0  0  0  0
  5  1  1  0  0  0  0
  7 13  1  6  0  0  0
  7  9  1  0  0  0  0
  7  8  1  0  0  0  0
  8  2  1  6  0  0  0
  9  8  1  0  0  0  0
  9 16  1  1  0  0  0
 10 12  1  0  0  0  0
 11 13  1  0  0  0  0
 12 13  2  0  0  0  0
 14 15  1  0  0  0  0
 14 10  2  0  0  0  0
 15 11  2  0  0  0  0
 16 17  1  0  0  0  0
 17 18  1  0  0  0  0
 19 20  1  0  0  0  0
 21 24  1  6  0  0  0
 21 22  1  0  0  0  0
 21 23  1  0  0  0  0
 21 31  1  0  0  0  0
 22 20  1  6  0  0  0
 22 23  1  0  0  0  0
 25 26  1  0  0  0  0
 26 24  2  0  0  0  0
 27 24  1  0  0  0  0
 28 25  2  0  0  0  0
 28 27  1  0  0  0  0
 29 30  1  0  0  0  0
 31 29  1  0  0  0  0
 31 30  1  0  0  0  0
M  END
>  <MODEL>
6

>  <REMARK>
 VINA RESULT:      -6.1      4.214      7.059
  Name = 
  9 active torsions:
  status: ('A' for Active; 'I' for Inactive)
    1  A    between atoms: C_1  and  C_25
    2  A    between atoms: C_2  and  O_9
    3  A    between atoms: C_3  and  C_11
    4  A    between atoms: C_4  and  C_5
    5  A    between atoms: C_5  and  C_31
    6  A    between atoms: N_6  and  C_28
    7  A    between atoms: C_8  and  C_14
    8  A    between atoms: O_9  and  C_23
    9  A    between atoms: C_14  and  C_28
                            x       y       z     vdW  Elec       q    Type
                         _______ _______ _______ _____ _____    ______ ____

>  <TORSDO>
F 9

$$$$
=
 OpenBabel11072412113D

 31 36  0  0  1  0  0  0  0  0999 V2000
  161.8820  206.5880  150.0750 N   0  0  0  0  0  0  0  0  0  0  0  0
  160.8760  204.9130  149.2410 C   0  0  0  0  0  0  0  0  0  0  0  0
  161.2040  208.1310  148.5130 O   0  0  0  0  0  0  0  0  0  0  0  0
  160.5660  205.9290  148.3990 N   0  0  0  0  0  0  0  0  0  0  0  0
  161.2160  206.9570  148.9710 C   0  0  0  0  0  0  0  0  0  0  0  0
  161.6820  205.2960  150.2550 N   0  0  0  0  0  2  0  0  0  0  0  0
  160.8180  202.8780  147.6600 C   0  0  2  0  0  3  0  0  0  0  0  0
  160.4490  203.4880  149.0240 C   0  0  1  0  0  3  0  0  0  0  0  0
  161.6630  202.5860  148.8890 C   0  0  1  0  0  3  0  0  0  0  0  0
  163.4530  205.0090  146.0240 C   0  0  0  0  0  3  0  0  0  0  0  0
  160.8260  204.2460  145.5630 C   0  0  0  0  0  3  0  0  0  0  0  0
  162.8070  204.1920  146.8980 N   0  0  0  0  0  0  0  0  0  0  0  0
  161.5110  203.8100  146.7010 C   0  0  0  0  0  0  0  0  0  0  0  0
  162.7950  205.4710  144.8810 C   0  0  0  0  0  3  0  0  0  0  0  0
  161.4740  205.0810  144.6510 C   0  0  0  0  0  3  0  0  0  0  0  0
  161.3500  201.3170  149.3720 O   0  0  0  0  0  0  0  0  0  0  0  0
  160.7670  201.5500  150.6180 C   0  0  0  0  0  2  0  0  0  0  0  0
  161.8270  202.0220  151.5910 C   0  0  0  0  0  1  0  0  0  0  0  0
  162.7080  207.4230  150.9360 C   0  0  0  0  0  2  0  0  0  0  0  0
  161.9550  207.8040  152.2000 C   0  0  0  0  0  2  0  0  0  0  0  0
  160.8750  209.7680  153.3860 C   0  0  1  0  0  0  0  0  0  0  0  0
  161.4340  209.2340  152.1100 C   0  0  2  0  0  3  0  0  0  0  0  0
  160.0460  209.2460  152.3730 O   0  0  0  0  0  0  0  0  0  0  0  0
  160.8990  208.9160  154.6240 C   0  0  0  0  0  0  0  0  0  0  0  0
  161.5220  208.0820  156.5980 C   0  0  0  0  0  3  0  0  0  0  0  0
  161.7930  209.0450  155.5400 N   0  0  0  0  0  0  0  0  0  0  0  0
  159.9620  207.9400  154.8920 O   0  0  0  0  0  0  0  0  0  0  0  0
  160.2680  207.3360  156.1340 C   0  0  0  0  0  3  0  0  0  0  0  0
  160.0760  211.7600  154.7120 C   0  0  0  0  0  2  0  0  0  0  0  0
  159.4370  211.8400  153.3460 C   0  0  0  0  0  2  0  0  0  0  0  0
  160.8520  211.2990  153.4870 C   0  0  0  0  0  3  0  0  0  0  0  0
  1  6  1  0  0  0  0
  1 19  1  0  0  0  0
  2  6  1  0  0  0  0
  3  5  2  0  0  0  0
  4  5  1  0  0  0  0
  4  2  2  0  0  0  0
  5  1  1  0  0  0  0
  7 13  1  6  0  0  0
  7  9  1  0  0  0  0
  7  8  1  0  0  0  0
  8  2  1  6  0  0  0
  9  8  1  0  0  0  0
  9 16  1  1  0  0  0
 10 12  1  0  0  0  0
 11 13  1  0  0  0  0
 13 12  2  0  0  0  0
 14 10  2  0  0  0  0
 15 14  1  0  0  0  0
 15 11  2  0  0  0  0
 16 17  1  0  0  0  0
 17 18  1  0  0  0  0
 19 20  1  0  0  0  0
 21 31  1  1  0  0  0
 21 24  1  0  0  0  0
 22 20  1  1  0  0  0
 22 23  1  0  0  0  0
 22 21  1  0  0  0  0
 23 21  1  0  0  0  0
 24 27  1  0  0  0  0
 24 26  2  0  0  0  0
 26 25  1  0  0  0  0
 27 28  1  0  0  0  0
 28 25  2  0  0  0  0
 30 31  1  0  0  0  0
 30 29  1  0  0  0  0
 31 29  1  0  0  0  0
M  END
>  <MODEL>
7

>  <REMARK>
 VINA RESULT:      -6.1      2.132      8.914
  Name = 
  9 active torsions:
  status: ('A' for Active; 'I' for Inactive)
    1  A    between atoms: C_1  and  C_25
    2  A    between atoms: C_2  and  O_9
    3  A    between atoms: C_3  and  C_11
    4  A    between atoms: C_4  and  C_5
    5  A    between atoms: C_5  and  C_31
    6  A    between atoms: N_6  and  C_28
    7  A    between atoms: C_8  and  C_14
    8  A    between atoms: O_9  and  C_23
    9  A    between atoms: C_14  and  C_28
                            x       y       z     vdW  Elec       q    Type
                         _______ _______ _______ _____ _____    ______ ____

>  <TORSDO>
F 9

$$$$
=
 OpenBabel11072412113D

 31 36  0  0  1  0  0  0  0  0999 V2000
  160.7510  209.5930  153.8280 N   0  0  0  0  0  0  0  0  0  0  0  0
  159.8480  211.3100  152.9630 C   0  0  0  0  0  0  0  0  0  0  0  0
  162.3290  210.7030  155.0760 O   0  0  0  0  0  0  0  0  0  0  0  0
  160.8310  211.8210  153.7430 N   0  0  0  0  0  0  0  0  0  0  0  0
  161.3610  210.7030  154.2690 C   0  0  0  0  0  0  0  0  0  0  0  0
  159.7960  209.9600  152.9960 N   0  0  0  0  0  2  0  0  0  0  0  0
  157.7780  212.8340  152.7720 C   0  0  2  0  0  3  0  0  0  0  0  0
  158.9650  212.1440  152.0770 C   0  0  1  0  0  3  0  0  0  0  0  0
  159.0510  213.6080  152.4710 C   0  0  1  0  0  3  0  0  0  0  0  0
  158.0510  213.0930  156.5160 C   0  0  0  0  0  3  0  0  0  0  0  0
  156.8350  211.4540  154.6360 C   0  0  0  0  0  3  0  0  0  0  0  0
  158.2050  213.3330  155.1870 N   0  0  0  0  0  0  0  0  0  0  0  0
  157.6270  212.5370  154.2410 C   0  0  0  0  0  0  0  0  0  0  0  0
  157.2750  212.0140  156.9460 C   0  0  0  0  0  3  0  0  0  0  0  0
  156.6620  211.1940  155.9970 C   0  0  0  0  0  3  0  0  0  0  0  0
  158.8520  214.4010  151.3420 O   0  0  0  0  0  0  0  0  0  0  0  0
  158.2470  213.5490  150.4180 C   0  0  0  0  0  2  0  0  0  0  0  0
  158.0050  214.2990  149.1250 C   0  0  0  0  0  1  0  0  0  0  0  0
  161.0690  208.2110  154.1630 C   0  0  0  0  0  2  0  0  0  0  0  0
  160.8310  207.3000  152.9690 C   0  0  0  0  0  2  0  0  0  0  0  0
  161.5540  207.0330  150.5540 C   0  0  1  0  0  0  0  0  0  0  0  0
  161.2750  207.9750  151.6760 C   0  0  2  0  0  3  0  0  0  0  0  0
  162.5860  207.5590  151.3560 O   0  0  0  0  0  0  0  0  0  0  0  0
  161.3490  205.5570  150.7520 C   0  0  0  0  0  0  0  0  0  0  0  0
  161.5910  203.4810  151.5330 C   0  0  0  0  0  3  0  0  0  0  0  0
  162.0500  204.8620  151.5760 N   0  0  0  0  0  0  0  0  0  0  0  0
  160.3870  204.8280  150.0840 O   0  0  0  0  0  0  0  0  0  0  0  0
  160.4560  203.4790  150.5060 C   0  0  0  0  0  3  0  0  0  0  0  0
  161.4140  206.5850  148.0740 C   0  0  0  0  0  2  0  0  0  0  0  0
  162.7040  207.3280  148.3280 C   0  0  0  0  0  2  0  0  0  0  0  0
  161.4690  207.6570  149.1540 C   0  0  0  0  0  3  0  0  0  0  0  0
  1 19  1  0  0  0  0
  1  5  1  0  0  0  0
  2  6  1  0  0  0  0
  2  4  2  0  0  0  0
  4  5  1  0  0  0  0
  5  3  2  0  0  0  0
  6  1  1  0  0  0  0
  7 13  1  1  0  0  0
  8  9  1  0  0  0  0
  8  7  1  0  0  0  0
  8  2  1  1  0  0  0
  9 16  1  6  0  0  0
  9  7  1  0  0  0  0
 10 14  1  0  0  0  0
 11 15  1  0  0  0  0
 12 10  2  0  0  0  0
 13 11  2  0  0  0  0
 13 12  1  0  0  0  0
 15 14  2  0  0  0  0
 17 16  1  0  0  0  0
 18 17  1  0  0  0  0
 20 19  1  0  0  0  0
 21 31  1  6  0  0  0
 21 24  1  0  0  0  0
 21 23  1  0  0  0  0
 21 22  1  0  0  0  0
 22 20  1  1  0  0  0
 23 22  1  0  0  0  0
 24 26  2  0  0  0  0
 25 26  1  0  0  0  0
 27 28  1  0  0  0  0
 27 24  1  0  0  0  0
 28 25  2  0  0  0  0
 29 30  1  0  0  0  0
 29 31  1  0  0  0  0
 30 31  1  0  0  0  0
M  END
>  <MODEL>
8

>  <REMARK>
 VINA RESULT:      -6.1      2.198      3.791
  Name = 
  9 active torsions:
  status: ('A' for Active; 'I' for Inactive)
    1  A    between atoms: C_1  and  C_25
    2  A    between atoms: C_2  and  O_9
    3  A    between atoms: C_3  and  C_11
    4  A    between atoms: C_4  and  C_5
    5  A    between atoms: C_5  and  C_31
    6  A    between atoms: N_6  and  C_28
    7  A    between atoms: C_8  and  C_14
    8  A    between atoms: O_9  and  C_23
    9  A    between atoms: C_14  and  C_28
                            x       y       z     vdW  Elec       q    Type
                         _______ _______ _______ _____ _____    ______ ____

>  <TORSDO>
F 9

$$$$
=
 OpenBabel11072412113D

 31 36  0  0  1  0  0  0  0  0999 V2000
  161.8260  207.4340  150.2700 N   0  0  0  0  0  0  0  0  0  0  0  0
  160.8550  205.6510  149.6430 C   0  0  0  0  0  0  0  0  0  0  0  0
  161.5010  208.6280  148.3330 O   0  0  0  0  0  0  0  0  0  0  0  0
  160.7460  206.4730  148.5700 N   0  0  0  0  0  0  0  0  0  0  0  0
  161.3640  207.5790  149.0190 C   0  0  0  0  0  0  0  0  0  0  0  0
  161.5170  206.2160  150.6760 N   0  0  0  0  0  2  0  0  0  0  0  0
  160.7040  203.3970  148.4020 C   0  0  2  0  0  3  0  0  0  0  0  0
  160.3750  204.2260  149.6560 C   0  0  1  0  0  3  0  0  0  0  0  0
  161.5550  203.2700  149.6550 C   0  0  1  0  0  3  0  0  0  0  0  0
  163.4280  204.9730  146.3390 C   0  0  0  0  0  3  0  0  0  0  0  0
  160.6830  204.5970  146.2040 C   0  0  0  0  0  3  0  0  0  0  0  0
  162.7690  204.3300  147.3390 N   0  0  0  0  0  0  0  0  0  0  0  0
  161.4180  204.1410  147.3030 C   0  0  0  0  0  0  0  0  0  0  0  0
  162.7240  205.4510  145.2310 C   0  0  0  0  0  3  0  0  0  0  0  0
  161.3430  205.2560  145.1650 C   0  0  0  0  0  3  0  0  0  0  0  0
  161.2030  202.1050  150.3340 O   0  0  0  0  0  0  0  0  0  0  0  0
  160.5440  201.3290  149.3810 C   0  0  0  0  0  2  0  0  0  0  0  0
  161.5620  200.5650  148.5610 C   0  0  0  0  0  1  0  0  0  0  0  0
  162.5610  208.4070  151.0650 C   0  0  0  0  0  2  0  0  0  0  0  0
  161.8760  208.6360  152.4040 C   0  0  0  0  0  2  0  0  0  0  0  0
  160.5330  210.3390  153.7160 C   0  0  1  0  0  0  0  0  0  0  0  0
  161.0790  209.9360  152.3880 C   0  0  2  0  0  3  0  0  0  0  0  0
  159.7430  209.6710  152.7600 O   0  0  0  0  0  0  0  0  0  0  0  0
  160.8250  209.4980  154.9290 C   0  0  0  0  0  0  0  0  0  0  0  0
  160.5910  207.9790  156.5460 C   0  0  0  0  0  3  0  0  0  0  0  0
  160.0010  208.6180  155.3780 N   0  0  0  0  0  0  0  0  0  0  0  0
  161.9980  209.5840  155.6470 O   0  0  0  0  0  0  0  0  0  0  0  0
  161.9550  208.6550  156.7140 C   0  0  0  0  0  3  0  0  0  0  0  0
  159.9560  212.2110  155.3080 C   0  0  0  0  0  2  0  0  0  0  0  0
  158.7960  212.0550  154.3530 C   0  0  0  0  0  2  0  0  0  0  0  0
  160.2180  211.8340  153.8560 C   0  0  0  0  0  3  0  0  0  0  0  0
  1  6  1  0  0  0  0
  1 19  1  0  0  0  0
  2  6  1  0  0  0  0
  3  5  2  0  0  0  0
  4  5  1  0  0  0  0
  4  2  2  0  0  0  0
  5  1  1  0  0  0  0
  7 13  1  6  0  0  0
  7  9  1  0  0  0  0
  7  8  1  0  0  0  0
  8  2  1  6  0  0  0
  9  8  1  0  0  0  0
  9 16  1  1  0  0  0
 10 12  1  0  0  0  0
 11 13  1  0  0  0  0
 13 12  2  0  0  0  0
 14 10  2  0  0  0  0
 15 14  1  0  0  0  0
 15 11  2  0  0  0  0
 17 16  1  0  0  0  0
 18 17  1  0  0  0  0
 19 20  1  0  0  0  0
 21 31  1  1  0  0  0
 21 24  1  0  0  0  0
 22 20  1  1  0  0  0
 22 23  1  0  0  0  0
 22 21  1  0  0  0  0
 23 21  1  0  0  0  0
 24 26  2  0  0  0  0
 24 27  1  0  0  0  0
 25 28  2  0  0  0  0
 26 25  1  0  0  0  0
 27 28  1  0  0  0  0
 30 29  1  0  0  0  0
 31 30  1  0  0  0  0
 31 29  1  0  0  0  0
M  END
>  <MODEL>
9

>  <REMARK>
 VINA RESULT:      -6.0      2.041      8.898
  Name = 
  9 active torsions:
  status: ('A' for Active; 'I' for Inactive)
    1  A    between atoms: C_1  and  C_25
    2  A    between atoms: C_2  and  O_9
    3  A    between atoms: C_3  and  C_11
    4  A    between atoms: C_4  and  C_5
    5  A    between atoms: C_5  and  C_31
    6  A    between atoms: N_6  and  C_28
    7  A    between atoms: C_8  and  C_14
    8  A    between atoms: O_9  and  C_23
    9  A    between atoms: C_14  and  C_28
                            x       y       z     vdW  Elec       q    Type
                         _______ _______ _______ _____ _____    ______ ____

>  <TORSDO>
F 9

$$$$
