=
 OpenBabel11072413103D

 35 39  0  0  1  0  0  0  0  0999 V2000
  160.8520  210.0370  154.8440 C   0  0  1  0  0  3  0  0  0  0  0  0
  160.2610  211.7330  153.2970 C   0  0  2  0  0  3  0  0  0  0  0  0
  158.9900  214.2080  154.5720 O   0  0  0  0  0  1  0  0  0  0  0  0
  158.7630  211.5240  153.1050 C   0  0  1  0  0  3  0  0  0  0  0  0
  158.0370  212.1880  154.1160 O   0  0  0  0  0  0  0  0  0  0  0  0
  158.9680  212.8590  154.9350 C   0  0  1  0  0  0  0  0  0  0  0  0
  161.0390  210.4410  153.3850 C   0  0  2  0  0  3  0  0  0  0  0  0
  160.6530  211.2130  155.5940 O   0  0  0  0  0  0  0  0  0  0  0  0
  160.3530  212.2660  154.6900 C   0  0  1  0  0  3  0  0  0  0  0  0
  161.4460  209.6230  151.1630 C   0  0  0  0  0  2  0  0  0  0  0  0
  161.0080  206.9950  151.9440 C   0  0  0  0  0  2  0  0  0  0  0  0
  162.2790  207.2460  151.1100 C   0  0  2  0  0  3  0  0  0  0  0  0
  162.6820  208.7240  151.0630 C   0  0  0  0  0  2  0  0  0  0  0  0
  160.6510  209.4170  152.3960 N   0  0  1  0  0  0  0  0  0  0  0  0
  160.8600  208.0850  152.9990 C   0  0  0  0  0  2  0  0  0  0  0  0
  160.4310  206.5590  148.1670 C   0  0  0  0  0  2  0  0  0  0  0  0
  161.1820  207.8370  147.9250 C   0  0  0  0  0  2  0  0  0  0  0  0
  162.2310  206.6660  149.7560 N   0  0  1  0  0  0  0  0  0  0  0  0
  160.9030  206.0960  149.5250 C   0  0  2  0  0  3  0  0  0  0  0  0
  162.4530  207.6900  148.7300 C   0  0  0  0  0  2  0  0  0  0  0  0
  160.9660  204.5780  149.5480 C   0  0  0  0  0  2  0  0  0  0  0  0
  161.3290  204.0410  148.1770 C   0  0  0  0  0  1  0  0  0  0  0  0
  158.5480  212.7600  156.3760 C   0  0  0  0  0  0  0  0  0  0  0  0
  159.1480  213.4330  157.2560 O   0  0  0  0  0  1  0  0  0  0  0  0
  157.5140  211.9100  156.7530 O   0  0  0  0  0  0  0  0  0  0  0  0
  158.2800  211.9410  151.7150 C   0  0  0  0  0  2  0  0  0  0  0  0
  157.0370  213.9610  151.9930 O   0  0  0  0  0  1  0  0  0  0  0  0
  158.2470  213.4540  151.5190 C   0  0  2  0  0  3  0  0  0  0  0  0
  157.5560  213.1020  149.2440 O   0  0  0  0  0  1  0  0  0  0  0  0
  158.4290  213.8330  150.0530 C   0  0  0  0  0  2  0  0  0  0  0  0
  159.6640  209.0950  155.0610 C   0  0  0  0  0  2  0  0  0  0  0  0
  160.6840  208.2440  157.2480 C   0  0  0  0  0  2  0  0  0  0  0  0
  161.5330  207.6370  156.1330 C   0  0  0  0  0  2  0  0  0  0  0  0
  160.0660  207.9070  155.9160 C   0  0  0  0  0  0  0  0  0  0  0  0
  159.2400  206.7820  155.9470 O   0  0  0  0  0  1  0  0  0  0  0  0
  1 31  1  6  0  0  0
  1  8  1  0  0  0  0
  2  7  1  0  0  0  0
  2  9  1  0  0  0  0
  3  6  1  0  0  0  0
  4  2  1  0  0  0  0
  4  5  1  0  0  0  0
  5  6  1  0  0  0  0
  6 23  1  0  0  0  0
  7  1  1  0  0  0  0
  9  6  1  0  0  0  0
  9  8  1  0  0  0  0
 10 14  1  0  0  0  0
 11 15  1  0  0  0  0
 12 11  1  0  0  0  0
 13 12  1  0  0  0  0
 13 10  1  0  0  0  0
 14 15  1  0  0  0  0
 14  7  1  0  0  0  0
 16 19  1  0  0  0  0
 17 16  1  0  0  0  0
 17 20  1  0  0  0  0
 18 12  1  0  0  0  0
 19 21  1  0  0  0  0
 19 18  1  0  0  0  0
 20 18  1  0  0  0  0
 22 21  1  0  0  0  0
 23 25  2  0  0  0  0
 23 24  1  0  0  0  0
 26  4  1  0  0  0  0
 28 26  1  0  0  0  0
 28 27  1  0  0  0  0
 29 30  1  0  0  0  0
 30 28  1  0  0  0  0
 31 34  1  0  0  0  0
 33 32  1  0  0  0  0
 34 35  1  0  0  0  0
 34 33  1  0  0  0  0
 34 32  1  0  0  0  0
M  END
>  <MODEL>
1

>  <REMARK>
 VINA RESULT:      -5.6      0.000      0.000
  Name = 
  9 active torsions:
  status: ('A' for Active; 'I' for Inactive)
    1  A    between atoms: C_2  and  C_16
    2  A    between atoms: C_2  and  C_17
    3  A    between atoms: C_4  and  C_19
    4  A    between atoms: C_5  and  C_25
    5  A    between atoms: C_10  and  C_27
    6  A    between atoms: C_13  and  N_15
    7  A    between atoms: C_16  and  C_29
    8  A    between atoms: C_19  and  C_23
    9  A    between atoms: N_24  and  C_26
                            x       y       z     vdW  Elec       q    Type
                         _______ _______ _______ _____ _____    ______ ____

>  <TORSDO>
F 9

$$$$
=
 OpenBabel11072413103D

 35 39  0  0  1  0  0  0  0  0999 V2000
  161.6790  209.8770  153.1250 C   0  0  1  0  0  3  0  0  0  0  0  0
  160.2790  211.3460  154.3500 C   0  0  2  0  0  3  0  0  0  0  0  0
  159.8180  210.5100  157.2580 O   0  0  0  0  0  1  0  0  0  0  0  0
  158.9270  210.6410  154.3260 C   0  0  1  0  0  3  0  0  0  0  0  0
  158.8450  209.6920  155.3650 O   0  0  0  0  0  0  0  0  0  0  0  0
  160.0470  209.7620  156.1000 C   0  0  1  0  0  0  0  0  0  0  0  0
  161.0260  211.2530  153.0400 C   0  0  2  0  0  3  0  0  0  0  0  0
  161.8770  209.5790  154.4890 O   0  0  0  0  0  0  0  0  0  0  0  0
  161.0960  210.4820  155.2550 C   0  0  1  0  0  3  0  0  0  0  0  0
  159.3120  212.6410  152.0890 C   0  0  0  0  0  2  0  0  0  0  0  0
  160.4160  212.4340  149.5490 C   0  0  0  0  0  2  0  0  0  0  0  0
  160.0510  213.8590  150.0110 C   0  0  2  0  0  3  0  0  0  0  0  0
  159.8430  213.9630  151.5250 C   0  0  0  0  0  2  0  0  0  0  0  0
  160.1990  211.4810  151.8400 N   0  0  1  0  0  0  0  0  0  0  0  0
  161.1000  211.6840  150.6870 C   0  0  0  0  0  2  0  0  0  0  0  0
  157.1880  213.4160  147.9720 C   0  0  0  0  0  2  0  0  0  0  0  0
  156.7060  213.4950  149.3930 C   0  0  0  0  0  2  0  0  0  0  0  0
  158.9190  214.4530  149.2780 N   0  0  1  0  0  0  0  0  0  0  0  0
  158.6730  213.6760  148.0620 C   0  0  2  0  0  3  0  0  0  0  0  0
  157.6910  214.4180  150.0760 C   0  0  0  0  0  2  0  0  0  0  0  0
  159.1270  214.4500  146.8350 C   0  0  0  0  0  2  0  0  0  0  0  0
  160.1270  213.6370  146.0360 C   0  0  0  0  0  1  0  0  0  0  0  0
  160.4840  208.3810  156.5030 C   0  0  0  0  0  0  0  0  0  0  0  0
  161.4790  208.2290  157.2600 O   0  0  0  0  0  1  0  0  0  0  0  0
  159.8120  207.2610  156.0250 O   0  0  0  0  0  0  0  0  0  0  0  0
  157.7500  211.6170  154.3760 C   0  0  0  0  0  2  0  0  0  0  0  0
  155.4590  211.0010  154.6540 O   0  0  0  0  0  1  0  0  0  0  0  0
  156.6540  211.1870  155.3480 C   0  0  2  0  0  3  0  0  0  0  0  0
  157.5470  213.0840  156.5250 O   0  0  0  0  0  1  0  0  0  0  0  0
  156.4550  212.2160  156.4560 C   0  0  0  0  0  2  0  0  0  0  0  0
  160.8370  208.7700  152.4860 C   0  0  0  0  0  2  0  0  0  0  0  0
  161.0860  206.6180  151.1240 C   0  0  0  0  0  2  0  0  0  0  0  0
  162.3260  206.6890  152.0120 C   0  0  0  0  0  2  0  0  0  0  0  0
  161.6680  207.9520  151.5140 C   0  0  0  0  0  0  0  0  0  0  0  0
  162.3320  208.6020  150.4730 O   0  0  0  0  0  1  0  0  0  0  0  0
  1 31  1  1  0  0  0
  1  8  1  0  0  0  0
  2  9  1  0  0  0  0
  4  2  1  0  0  0  0
  4 26  1  0  0  0  0
  4  5  1  0  0  0  0
  5  6  1  0  0  0  0
  6 23  1  0  0  0  0
  6  3  1  0  0  0  0
  7  1  1  0  0  0  0
  7  2  1  0  0  0  0
  8  9  1  0  0  0  0
  9  6  1  0  0  0  0
 11 12  1  0  0  0  0
 11 15  1  0  0  0  0
 12 13  1  0  0  0  0
 13 10  1  0  0  0  0
 14 10  1  0  0  0  0
 14  7  1  0  0  0  0
 15 14  1  0  0  0  0
 16 19  1  0  0  0  0
 16 17  1  0  0  0  0
 17 20  1  0  0  0  0
 18 12  1  0  0  0  0
 18 20  1  0  0  0  0
 19 18  1  0  0  0  0
 21 19  1  0  0  0  0
 22 21  1  0  0  0  0
 23 24  1  0  0  0  0
 25 23  2  0  0  0  0
 26 28  1  0  0  0  0
 27 28  1  0  0  0  0
 28 30  1  0  0  0  0
 30 29  1  0  0  0  0
 32 34  1  0  0  0  0
 32 33  1  0  0  0  0
 34 33  1  0  0  0  0
 34 31  1  0  0  0  0
 35 34  1  0  0  0  0
M  END
>  <MODEL>
2

>  <REMARK>
 VINA RESULT:      -5.5      2.398      5.621
  Name = 
  9 active torsions:
  status: ('A' for Active; 'I' for Inactive)
    1  A    between atoms: C_2  and  C_16
    2  A    between atoms: C_2  and  C_17
    3  A    between atoms: C_4  and  C_19
    4  A    between atoms: C_5  and  C_25
    5  A    between atoms: C_10  and  C_27
    6  A    between atoms: C_13  and  N_15
    7  A    between atoms: C_16  and  C_29
    8  A    between atoms: C_19  and  C_23
    9  A    between atoms: N_24  and  C_26
                            x       y       z     vdW  Elec       q    Type
                         _______ _______ _______ _____ _____    ______ ____

>  <TORSDO>
F 9

$$$$
=
 OpenBabel11072413103D

 35 39  0  0  1  0  0  0  0  0999 V2000
  162.3380  207.4690  149.1510 C   0  0  1  0  0  3  0  0  0  0  0  0
  162.1890  208.3340  151.3530 C   0  0  2  0  0  3  0  0  0  0  0  0
  162.1720  206.1950  153.5430 O   0  0  0  0  0  1  0  0  0  0  0  0
  160.7130  208.1630  151.6970 C   0  0  1  0  0  3  0  0  0  0  0  0
  160.4660  206.8630  152.1860 O   0  0  0  0  0  0  0  0  0  0  0  0
  161.7010  206.1840  152.2280 C   0  0  1  0  0  0  0  0  0  0  0  0
  162.4250  208.7790  149.9290 C   0  0  2  0  0  3  0  0  0  0  0  0
  162.7230  206.4280  150.0190 O   0  0  0  0  0  0  0  0  0  0  0  0
  162.7010  206.9300  151.3460 C   0  0  1  0  0  3  0  0  0  0  0  0
  161.9950  211.1410  150.0080 C   0  0  0  0  0  2  0  0  0  0  0  0
  161.0640  211.1590  147.3920 C   0  0  0  0  0  2  0  0  0  0  0  0
  162.0920  212.2510  147.7490 C   0  0  2  0  0  3  0  0  0  0  0  0
  162.8620  211.9490  149.0390 C   0  0  0  0  0  2  0  0  0  0  0  0
  161.5240  209.8480  149.4590 N   0  0  1  0  0  0  0  0  0  0  0  0
  161.5050  209.8240  147.9820 C   0  0  0  0  0  2  0  0  0  0  0  0
  159.2530  214.3680  147.6950 C   0  0  0  0  0  2  0  0  0  0  0  0
  159.6230  214.1670  149.1370 C   0  0  0  0  0  2  0  0  0  0  0  0
  161.5340  213.6140  147.7700 N   0  0  1  0  0  0  0  0  0  0  0  0
  160.3400  213.6570  146.9250 C   0  0  2  0  0  3  0  0  0  0  0  0
  161.1260  214.0010  149.1240 C   0  0  0  0  0  2  0  0  0  0  0  0
  160.6270  214.4160  145.6390 C   0  0  0  0  0  2  0  0  0  0  0  0
  159.6520  214.0040  144.5520 C   0  0  0  0  0  1  0  0  0  0  0  0
  161.5150  204.7540  151.8010 C   0  0  0  0  0  0  0  0  0  0  0  0
  162.4450  203.9200  151.9640 O   0  0  0  0  0  1  0  0  0  0  0  0
  160.3290  204.3460  151.2020 O   0  0  0  0  0  0  0  0  0  0  0  0
  160.2050  209.2260  152.6720 C   0  0  0  0  0  2  0  0  0  0  0  0
  160.8620  208.8180  154.9320 O   0  0  0  0  0  1  0  0  0  0  0  0
  161.1990  209.5410  153.7880 C   0  0  2  0  0  3  0  0  0  0  0  0
  160.4610  211.7470  153.1830 O   0  0  0  0  0  1  0  0  0  0  0  0
  161.2270  211.0310  154.1070 C   0  0  0  0  0  2  0  0  0  0  0  0
  160.9350  207.1810  148.6100 C   0  0  0  0  0  2  0  0  0  0  0  0
  162.0650  206.0650  146.6040 C   0  0  0  0  0  2  0  0  0  0  0  0
  160.6140  206.2920  146.1870 C   0  0  0  0  0  2  0  0  0  0  0  0
  160.9610  206.0230  147.6290 C   0  0  0  0  0  0  0  0  0  0  0  0
  160.6660  204.7390  148.0870 O   0  0  0  0  0  1  0  0  0  0  0  0
  1 31  1  1  0  0  0
  1  7  1  0  0  0  0
  1  8  1  0  0  0  0
  2  4  1  0  0  0  0
  4  5  1  0  0  0  0
  4 26  1  0  0  0  0
  5  6  1  0  0  0  0
  6  3  1  0  0  0  0
  7  2  1  0  0  0  0
  8  9  1  0  0  0  0
  9  2  1  0  0  0  0
  9  6  1  0  0  0  0
 11 12  1  0  0  0  0
 11 15  1  0  0  0  0
 12 18  1  0  0  0  0
 12 13  1  0  0  0  0
 13 10  1  0  0  0  0
 14  7  1  0  0  0  0
 14 10  1  0  0  0  0
 15 14  1  0  0  0  0
 16 17  1  0  0  0  0
 18 20  1  0  0  0  0
 19 16  1  0  0  0  0
 19 18  1  0  0  0  0
 20 17  1  0  0  0  0
 21 19  1  0  0  0  0
 22 21  1  0  0  0  0
 23 24  1  0  0  0  0
 23  6  1  0  0  0  0
 25 23  2  0  0  0  0
 26 28  1  0  0  0  0
 28 30  1  0  0  0  0
 28 27  1  0  0  0  0
 29 30  1  0  0  0  0
 32 34  1  0  0  0  0
 33 32  1  0  0  0  0
 33 34  1  0  0  0  0
 34 35  1  0  0  0  0
 34 31  1  0  0  0  0
M  END
>  <MODEL>
3

>  <REMARK>
 VINA RESULT:      -5.3      3.521      7.312
  Name = 
  9 active torsions:
  status: ('A' for Active; 'I' for Inactive)
    1  A    between atoms: C_2  and  C_16
    2  A    between atoms: C_2  and  C_17
    3  A    between atoms: C_4  and  C_19
    4  A    between atoms: C_5  and  C_25
    5  A    between atoms: C_10  and  C_27
    6  A    between atoms: C_13  and  N_15
    7  A    between atoms: C_16  and  C_29
    8  A    between atoms: C_19  and  C_23
    9  A    between atoms: N_24  and  C_26
                            x       y       z     vdW  Elec       q    Type
                         _______ _______ _______ _____ _____    ______ ____

>  <TORSDO>
F 9

$$$$
=
 OpenBabel11072413103D

 35 39  0  0  1  0  0  0  0  0999 V2000
  160.5370  205.2740  150.5200 C   0  0  1  0  0  3  0  0  0  0  0  0
  160.8360  207.2910  149.3120 C   0  0  2  0  0  3  0  0  0  0  0  0
  161.0920  206.9160  146.2850 O   0  0  0  0  0  1  0  0  0  0  0  0
  162.3390  207.3260  149.0570 C   0  0  1  0  0  3  0  0  0  0  0  0
  162.6630  206.5820  147.9030 O   0  0  0  0  0  0  0  0  0  0  0  0
  161.4560  206.0980  147.3580 C   0  0  1  0  0  0  0  0  0  0  0  0
  160.4740  206.7890  150.6890 C   0  0  2  0  0  3  0  0  0  0  0  0
  160.2540  204.9800  149.1710 O   0  0  0  0  0  0  0  0  0  0  0  0
  160.3680  206.1820  148.4260 C   0  0  1  0  0  3  0  0  0  0  0  0
  161.2060  208.8100  151.7600 C   0  0  0  0  0  2  0  0  0  0  0  0
  161.2290  207.5960  154.2580 C   0  0  0  0  0  2  0  0  0  0  0  0
  160.5220  208.9640  154.1800 C   0  0  2  0  0  3  0  0  0  0  0  0
  160.1820  209.3810  152.7450 C   0  0  0  0  0  2  0  0  0  0  0  0
  161.3030  207.3320  151.7830 N   0  0  1  0  0  0  0  0  0  0  0  0
  160.8360  206.7450  153.0550 C   0  0  0  0  0  2  0  0  0  0  0  0
  160.7710  211.0680  157.0190 C   0  0  0  0  0  2  0  0  0  0  0  0
  161.6800  209.8960  157.2610 C   0  0  0  0  0  2  0  0  0  0  0  0
  161.2280  210.0430  154.8940 N   0  0  1  0  0  0  0  0  0  0  0  0
  160.2520  210.8590  155.6160 C   0  0  2  0  0  3  0  0  0  0  0  0
  162.1650  209.5020  155.8830 C   0  0  0  0  0  2  0  0  0  0  0  0
  160.0800  212.2080  154.9350 C   0  0  0  0  0  2  0  0  0  0  0  0
  158.6080  212.5250  154.7520 C   0  0  0  0  0  1  0  0  0  0  0  0
  161.6500  204.6970  146.8460 C   0  0  0  0  0  0  0  0  0  0  0  0
  162.3280  203.8700  147.5090 O   0  0  0  0  0  1  0  0  0  0  0  0
  161.1030  204.3110  145.6270 O   0  0  0  0  0  0  0  0  0  0  0  0
  162.8920  208.7490  148.9690 C   0  0  0  0  0  2  0  0  0  0  0  0
  161.3910  209.9110  147.5190 O   0  0  0  0  0  1  0  0  0  0  0  0
  161.8010  209.8110  148.8480 C   0  0  2  0  0  3  0  0  0  0  0  0
  162.7000  211.9660  148.2740 O   0  0  0  0  0  1  0  0  0  0  0  0
  162.2860  211.1690  149.3440 C   0  0  0  0  0  2  0  0  0  0  0  0
  161.9000  204.6820  150.8890 C   0  0  0  0  0  2  0  0  0  0  0  0
  160.7740  202.3870  150.7930 C   0  0  0  0  0  2  0  0  0  0  0  0
  160.4390  202.9530  152.1700 C   0  0  0  0  0  2  0  0  0  0  0  0
  161.7430  203.3000  151.4980 C   0  0  0  0  0  0  0  0  0  0  0  0
  162.8690  202.6470  152.0000 O   0  0  0  0  0  1  0  0  0  0  0  0
  1  7  1  0  0  0  0
  1 31  1  6  0  0  0
  2  7  1  0  0  0  0
  3  6  1  0  0  0  0
  4  2  1  0  0  0  0
  5  4  1  0  0  0  0
  6  5  1  0  0  0  0
  6  9  1  0  0  0  0
  7 14  1  0  0  0  0
  8  1  1  0  0  0  0
  9  8  1  0  0  0  0
  9  2  1  0  0  0  0
 10 14  1  0  0  0  0
 10 13  1  0  0  0  0
 12 11  1  0  0  0  0
 12 18  1  0  0  0  0
 13 12  1  0  0  0  0
 14 15  1  0  0  0  0
 15 11  1  0  0  0  0
 16 17  1  0  0  0  0
 18 19  1  0  0  0  0
 18 20  1  0  0  0  0
 19 16  1  0  0  0  0
 20 17  1  0  0  0  0
 21 19  1  0  0  0  0
 22 21  1  0  0  0  0
 23  6  1  0  0  0  0
 23 24  1  0  0  0  0
 25 23  2  0  0  0  0
 26  4  1  0  0  0  0
 27 28  1  0  0  0  0
 28 26  1  0  0  0  0
 28 30  1  0  0  0  0
 29 30  1  0  0  0  0
 31 34  1  0  0  0  0
 32 34  1  0  0  0  0
 32 33  1  0  0  0  0
 34 35  1  0  0  0  0
 34 33  1  0  0  0  0
M  END
>  <MODEL>
4

>  <REMARK>
 VINA RESULT:      -5.2      4.106      7.934
  Name = 
  9 active torsions:
  status: ('A' for Active; 'I' for Inactive)
    1  A    between atoms: C_2  and  C_16
    2  A    between atoms: C_2  and  C_17
    3  A    between atoms: C_4  and  C_19
    4  A    between atoms: C_5  and  C_25
    5  A    between atoms: C_10  and  C_27
    6  A    between atoms: C_13  and  N_15
    7  A    between atoms: C_16  and  C_29
    8  A    between atoms: C_19  and  C_23
    9  A    between atoms: N_24  and  C_26
                            x       y       z     vdW  Elec       q    Type
                         _______ _______ _______ _____ _____    ______ ____

>  <TORSDO>
F 9

$$$$
=
 OpenBabel11072413103D

 35 39  0  0  1  0  0  0  0  0999 V2000
  162.1320  209.6790  151.8920 C   0  0  1  0  0  3  0  0  0  0  0  0
  160.8530  211.4310  152.8470 C   0  0  2  0  0  3  0  0  0  0  0  0
  160.2470  211.0660  155.8250 O   0  0  0  0  0  1  0  0  0  0  0  0
  159.4400  210.8580  152.8730 C   0  0  1  0  0  3  0  0  0  0  0  0
  159.2440  210.0780  154.0320 O   0  0  0  0  0  0  0  0  0  0  0  0
  160.4290  210.1420  154.7920 C   0  0  1  0  0  0  0  0  0  0  0  0
  161.6170  211.0830  151.5910 C   0  0  2  0  0  3  0  0  0  0  0  0
  162.2700  209.5620  153.2900 O   0  0  0  0  0  0  0  0  0  0  0  0
  161.5620  210.6330  153.8930 C   0  0  1  0  0  3  0  0  0  0  0  0
  160.3320  212.5990  150.2430 C   0  0  0  0  0  2  0  0  0  0  0  0
  161.2350  211.4290  147.8920 C   0  0  0  0  0  2  0  0  0  0  0  0
  161.3060  212.9670  147.9490 C   0  0  2  0  0  3  0  0  0  0  0  0
  161.1940  213.5190  149.3740 C   0  0  0  0  0  2  0  0  0  0  0  0
  160.8440  211.2120  150.3410 N   0  0  1  0  0  0  0  0  0  0  0  0
  161.7210  210.8410  149.2120 C   0  0  0  0  0  2  0  0  0  0  0  0
  158.4230  212.8030  145.8970 C   0  0  0  0  0  2  0  0  0  0  0  0
  157.9790  213.3150  147.2370 C   0  0  0  0  0  2  0  0  0  0  0  0
  160.3620  213.6430  147.0420 N   0  0  1  0  0  0  0  0  0  0  0  0
  159.9250  212.6990  146.0120 C   0  0  2  0  0  3  0  0  0  0  0  0
  159.1660  214.0940  147.7590 C   0  0  0  0  0  2  0  0  0  0  0  0
  160.5600  213.0410  144.6740 C   0  0  0  0  0  2  0  0  0  0  0  0
  159.7070  212.5180  143.5340 C   0  0  0  0  0  1  0  0  0  0  0  0
  160.7220  208.7980  155.4010 C   0  0  0  0  0  0  0  0  0  0  0  0
  160.2320  207.7550  154.8930 O   0  0  0  0  0  0  0  0  0  0  0  0
  161.5130  208.6980  156.5400 O   0  0  0  0  0  1  0  0  0  0  0  0
  158.3620  211.9350  152.7430 C   0  0  0  0  0  2  0  0  0  0  0  0
  158.1550  213.2180  154.7470 O   0  0  0  0  0  1  0  0  0  0  0  0
  158.7160  213.2300  153.4700 C   0  0  2  0  0  3  0  0  0  0  0  0
  157.4580  214.0700  151.6010 O   0  0  0  0  0  1  0  0  0  0  0  0
  158.2280  214.4530  152.7020 C   0  0  0  0  0  2  0  0  0  0  0  0
  161.2020  208.5740  151.3840 C   0  0  0  0  0  2  0  0  0  0  0  0
  161.2390  206.0470  150.9860 C   0  0  0  0  0  2  0  0  0  0  0  0
  162.3370  206.3180  152.0110 C   0  0  0  0  0  2  0  0  0  0  0  0
  161.9960  207.3490  150.9650 C   0  0  0  0  0  0  0  0  0  0  0  0
  162.9040  207.4560  149.9120 O   0  0  0  0  0  1  0  0  0  0  0  0
  1 31  1  1  0  0  0
  1  8  1  0  0  0  0
  2  4  1  0  0  0  0
  2  9  1  0  0  0  0
  4  5  1  0  0  0  0
  5  6  1  0  0  0  0
  6 23  1  0  0  0  0
  6  3  1  0  0  0  0
  7  1  1  0  0  0  0
  7  2  1  0  0  0  0
  8  9  1  0  0  0  0
  9  6  1  0  0  0  0
 10 14  1  0  0  0  0
 11 12  1  0  0  0  0
 11 15  1  0  0  0  0
 12 13  1  0  0  0  0
 13 10  1  0  0  0  0
 14  7  1  0  0  0  0
 15 14  1  0  0  0  0
 16 19  1  0  0  0  0
 16 17  1  0  0  0  0
 17 20  1  0  0  0  0
 18 20  1  0  0  0  0
 18 12  1  0  0  0  0
 19 18  1  0  0  0  0
 21 19  1  0  0  0  0
 22 21  1  0  0  0  0
 23 25  1  0  0  0  0
 24 23  2  0  0  0  0
 26  4  1  0  0  0  0
 26 28  1  0  0  0  0
 28 27  1  0  0  0  0
 29 30  1  0  0  0  0
 30 28  1  0  0  0  0
 32 33  1  0  0  0  0
 34 32  1  0  0  0  0
 34 31  1  0  0  0  0
 34 33  1  0  0  0  0
 35 34  1  0  0  0  0
M  END
>  <MODEL>
5

>  <REMARK>
 VINA RESULT:      -5.1      3.052      5.162
  Name = 
  9 active torsions:
  status: ('A' for Active; 'I' for Inactive)
    1  A    between atoms: C_2  and  C_16
    2  A    between atoms: C_2  and  C_17
    3  A    between atoms: C_4  and  C_19
    4  A    between atoms: C_5  and  C_25
    5  A    between atoms: C_10  and  C_27
    6  A    between atoms: C_13  and  N_15
    7  A    between atoms: C_16  and  C_29
    8  A    between atoms: C_19  and  C_23
    9  A    between atoms: N_24  and  C_26
                            x       y       z     vdW  Elec       q    Type
                         _______ _______ _______ _____ _____    ______ ____

>  <TORSDO>
F 9

$$$$
=
 OpenBabel11072413103D

 35 39  0  0  1  0  0  0  0  0999 V2000
  162.0290  208.4640  152.4590 C   0  0  1  0  0  3  0  0  0  0  0  0
  161.1650  210.5340  153.2250 C   0  0  2  0  0  3  0  0  0  0  0  0
  160.3610  210.5440  156.1790 O   0  0  0  0  0  1  0  0  0  0  0  0
  159.6560  210.3130  153.2030 C   0  0  1  0  0  3  0  0  0  0  0  0
  159.2300  209.6890  154.3940 O   0  0  0  0  0  0  0  0  0  0  0  0
  160.3620  209.5290  155.2180 C   0  0  1  0  0  0  0  0  0  0  0  0
  161.8780  209.9240  152.0420 C   0  0  2  0  0  3  0  0  0  0  0  0
  162.0750  208.4230  153.8680 O   0  0  0  0  0  0  0  0  0  0  0  0
  161.6170  209.6730  154.3600 C   0  0  1  0  0  3  0  0  0  0  0  0
  161.1840  211.5920  150.4590 C   0  0  0  0  0  2  0  0  0  0  0  0
  161.6970  209.9080  148.3110 C   0  0  0  0  0  2  0  0  0  0  0  0
  162.2670  211.3360  148.1980 C   0  0  2  0  0  3  0  0  0  0  0  0
  162.3160  212.0680  149.5430 C   0  0  0  0  0  2  0  0  0  0  0  0
  161.2130  210.1380  150.7420 N   0  0  1  0  0  0  0  0  0  0  0  0
  161.9410  209.3650  149.7150 C   0  0  0  0  0  2  0  0  0  0  0  0
  160.8930  214.4530  147.2260 C   0  0  0  0  0  2  0  0  0  0  0  0
  162.3160  214.4300  146.7430 C   0  0  0  0  0  2  0  0  0  0  0  0
  161.6130  212.1610  147.1680 N   0  0  1  0  0  0  0  0  0  0  0  0
  160.6730  213.0780  147.8110 C   0  0  2  0  0  3  0  0  0  0  0  0
  162.5900  212.9740  146.4380 C   0  0  0  0  0  2  0  0  0  0  0  0
  159.2400  212.6420  147.5500 C   0  0  0  0  0  2  0  0  0  0  0  0
  158.9700  212.5760  146.0590 C   0  0  0  0  0  1  0  0  0  0  0  0
  160.2990  208.2030  155.9250 C   0  0  0  0  0  0  0  0  0  0  0  0
  159.6350  207.2540  155.4300 O   0  0  0  0  0  0  0  0  0  0  0  0
  160.9510  208.0210  157.1400 O   0  0  0  0  0  1  0  0  0  0  0  0
  158.8730  211.6000  152.9420 C   0  0  0  0  0  2  0  0  0  0  0  0
  156.7110  211.6550  153.9550 O   0  0  0  0  0  1  0  0  0  0  0  0
  158.0370  212.0470  154.1380 C   0  0  2  0  0  3  0  0  0  0  0  0
  157.2980  213.9520  155.4050 O   0  0  0  0  0  1  0  0  0  0  0  0
  158.1080  213.5570  154.3370 C   0  0  0  0  0  2  0  0  0  0  0  0
  160.8860  207.5740  151.9660 C   0  0  0  0  0  2  0  0  0  0  0  0
  161.0520  205.8060  150.1250 C   0  0  0  0  0  2  0  0  0  0  0  0
  160.4180  205.0980  151.3200 C   0  0  0  0  0  2  0  0  0  0  0  0
  161.4070  206.2170  151.5300 C   0  0  0  0  0  0  0  0  0  0  0  0
  162.6840  205.8200  151.9270 O   0  0  0  0  0  1  0  0  0  0  0  0
  1 31  1  1  0  0  0
  1  8  1  0  0  0  0
  2  9  1  0  0  0  0
  4  2  1  0  0  0  0
  4  5  1  0  0  0  0
  5  6  1  0  0  0  0
  6 23  1  0  0  0  0
  6  3  1  0  0  0  0
  7  1  1  0  0  0  0
  7  2  1  0  0  0  0
  8  9  1  0  0  0  0
  9  6  1  0  0  0  0
 10 14  1  0  0  0  0
 11 15  1  0  0  0  0
 12 11  1  0  0  0  0
 12 13  1  0  0  0  0
 13 10  1  0  0  0  0
 14  7  1  0  0  0  0
 15 14  1  0  0  0  0
 16 19  1  0  0  0  0
 17 16  1  0  0  0  0
 18 19  1  0  0  0  0
 18 12  1  0  0  0  0
 20 17  1  0  0  0  0
 20 18  1  0  0  0  0
 21 19  1  0  0  0  0
 22 21  1  0  0  0  0
 23 25  1  0  0  0  0
 24 23  2  0  0  0  0
 26  4  1  0  0  0  0
 26 28  1  0  0  0  0
 27 28  1  0  0  0  0
 28 30  1  0  0  0  0
 30 29  1  0  0  0  0
 32 33  1  0  0  0  0
 32 34  1  0  0  0  0
 33 34  1  0  0  0  0
 34 35  1  0  0  0  0
 34 31  1  0  0  0  0
M  END
>  <MODEL>
6

>  <REMARK>
 VINA RESULT:      -4.3      2.710      4.986
  Name = 
  9 active torsions:
  status: ('A' for Active; 'I' for Inactive)
    1  A    between atoms: C_2  and  C_16
    2  A    between atoms: C_2  and  C_17
    3  A    between atoms: C_4  and  C_19
    4  A    between atoms: C_5  and  C_25
    5  A    between atoms: C_10  and  C_27
    6  A    between atoms: C_13  and  N_15
    7  A    between atoms: C_16  and  C_29
    8  A    between atoms: C_19  and  C_23
    9  A    between atoms: N_24  and  C_26
                            x       y       z     vdW  Elec       q    Type
                         _______ _______ _______ _____ _____    ______ ____

>  <TORSDO>
F 9

$$$$
=
 OpenBabel11072413103D

 35 39  0  0  1  0  0  0  0  0999 V2000
  162.3520  209.0090  148.9250 C   0  0  1  0  0  3  0  0  0  0  0  0
  162.0820  206.8640  149.8970 C   0  0  2  0  0  3  0  0  0  0  0  0
  162.2230  204.5520  147.8960 O   0  0  0  0  0  1  0  0  0  0  0  0
  160.6220  206.5310  149.6070 C   0  0  1  0  0  3  0  0  0  0  0  0
  160.4890  205.9690  148.3210 O   0  0  0  0  0  0  0  0  0  0  0  0
  161.7800  205.8710  147.7640 C   0  0  1  0  0  0  0  0  0  0  0  0
  162.3020  208.3090  150.2790 C   0  0  2  0  0  3  0  0  0  0  0  0
  162.8160  208.0760  147.9760 O   0  0  0  0  0  0  0  0  0  0  0  0
  162.7220  206.7820  148.5490 C   0  0  1  0  0  3  0  0  0  0  0  0
  161.4850  208.1720  152.5340 C   0  0  0  0  0  2  0  0  0  0  0  0
  160.9430  210.8940  152.6080 C   0  0  0  0  0  2  0  0  0  0  0  0
  161.7180  210.3290  153.8150 C   0  0  2  0  0  3  0  0  0  0  0  0
  162.3370  208.9550  153.5380 C   0  0  0  0  0  2  0  0  0  0  0  0
  161.3140  208.8540  151.2300 N   0  0  1  0  0  0  0  0  0  0  0  0
  161.5080  210.3160  151.3150 C   0  0  0  0  0  2  0  0  0  0  0  0
  161.4590  209.3580  157.2110 C   0  0  0  0  0  2  0  0  0  0  0  0
  162.0030  210.7580  157.1960 C   0  0  0  0  0  2  0  0  0  0  0  0
  160.9470  210.3210  155.0700 N   0  0  1  0  0  0  0  0  0  0  0  0
  161.1680  209.0510  155.7620 C   0  0  2  0  0  3  0  0  0  0  0  0
  161.3840  211.3920  155.9700 C   0  0  0  0  0  2  0  0  0  0  0  0
  159.9300  208.1730  155.6700 C   0  0  0  0  0  2  0  0  0  0  0  0
  160.0940  206.9330  156.5280 C   0  0  0  0  0  1  0  0  0  0  0  0
  161.7370  206.2150  146.3010 C   0  0  0  0  0  0  0  0  0  0  0  0
  160.7140  206.7610  145.8110 O   0  0  0  0  0  1  0  0  0  0  0  0
  162.8130  205.9120  145.4740 O   0  0  0  0  0  0  0  0  0  0  0  0
  159.9990  205.6270  150.6720 C   0  0  0  0  0  2  0  0  0  0  0  0
  160.3010  203.3080  150.1870 O   0  0  0  0  0  1  0  0  0  0  0  0
  160.8140  204.3640  150.9400 C   0  0  2  0  0  3  0  0  0  0  0  0
  161.2130  205.0830  153.1990 O   0  0  0  0  0  1  0  0  0  0  0  0
  160.8060  203.9970  152.4200 C   0  0  0  0  0  2  0  0  0  0  0  0
  160.9930  209.5510  148.4750 C   0  0  0  0  0  2  0  0  0  0  0  0
  162.4960  211.5770  148.0510 C   0  0  0  0  0  2  0  0  0  0  0  0
  161.3380  212.0940  148.9030 C   0  0  0  0  0  2  0  0  0  0  0  0
  161.1260  210.9610  147.9300 C   0  0  0  0  0  0  0  0  0  0  0  0
  160.4580  211.3000  146.7530 O   0  0  0  0  0  1  0  0  0  0  0  0
  1 31  1  6  0  0  0
  1  7  1  0  0  0  0
  2  7  1  0  0  0  0
  4  2  1  0  0  0  0
  4 26  1  0  0  0  0
  5  4  1  0  0  0  0
  6  3  1  0  0  0  0
  6  5  1  0  0  0  0
  6  9  1  0  0  0  0
  7 14  1  0  0  0  0
  8  9  1  0  0  0  0
  8  1  1  0  0  0  0
  9  2  1  0  0  0  0
 10 13  1  0  0  0  0
 11 12  1  0  0  0  0
 12 18  1  0  0  0  0
 13 12  1  0  0  0  0
 14 15  1  0  0  0  0
 14 10  1  0  0  0  0
 15 11  1  0  0  0  0
 17 16  1  0  0  0  0
 18 19  1  0  0  0  0
 18 20  1  0  0  0  0
 19 16  1  0  0  0  0
 20 17  1  0  0  0  0
 21 19  1  0  0  0  0
 21 22  1  0  0  0  0
 23  6  1  0  0  0  0
 24 23  1  0  0  0  0
 25 23  2  0  0  0  0
 26 28  1  0  0  0  0
 27 28  1  0  0  0  0
 28 30  1  0  0  0  0
 30 29  1  0  0  0  0
 32 33  1  0  0  0  0
 34 32  1  0  0  0  0
 34 31  1  0  0  0  0
 34 33  1  0  0  0  0
 35 34  1  0  0  0  0
M  END
>  <MODEL>
7

>  <REMARK>
 VINA RESULT:      -4.0      3.872      8.495
  Name = 
  9 active torsions:
  status: ('A' for Active; 'I' for Inactive)
    1  A    between atoms: C_2  and  C_16
    2  A    between atoms: C_2  and  C_17
    3  A    between atoms: C_4  and  C_19
    4  A    between atoms: C_5  and  C_25
    5  A    between atoms: C_10  and  C_27
    6  A    between atoms: C_13  and  N_15
    7  A    between atoms: C_16  and  C_29
    8  A    between atoms: C_19  and  C_23
    9  A    between atoms: N_24  and  C_26
                            x       y       z     vdW  Elec       q    Type
                         _______ _______ _______ _____ _____    ______ ____

>  <TORSDO>
F 9

$$$$
=
 OpenBabel11072413103D

 35 39  0  0  1  0  0  0  0  0999 V2000
  161.6230  208.4720  154.5170 C   0  0  1  0  0  3  0  0  0  0  0  0
  161.0580  210.3210  153.1450 C   0  0  2  0  0  3  0  0  0  0  0  0
  160.6510  212.9410  154.6730 O   0  0  0  0  0  1  0  0  0  0  0  0
  159.5460  210.4270  153.3070 C   0  0  1  0  0  3  0  0  0  0  0  0
  159.2230  211.1770  154.4570 O   0  0  0  0  0  0  0  0  0  0  0  0
  160.4340  211.6090  155.0360 C   0  0  1  0  0  0  0  0  0  0  0  0
  161.5510  208.8960  153.0530 C   0  0  2  0  0  3  0  0  0  0  0  0
  161.8480  209.6300  155.2890 O   0  0  0  0  0  0  0  0  0  0  0  0
  161.5740  210.7600  154.4760 C   0  0  1  0  0  3  0  0  0  0  0  0
  161.1370  208.2540  150.7760 C   0  0  0  0  0  2  0  0  0  0  0  0
  160.6250  205.6240  151.5070 C   0  0  0  0  0  2  0  0  0  0  0  0
  161.5950  205.8180  150.3240 C   0  0  2  0  0  3  0  0  0  0  0  0
  162.1520  207.2430  150.2350 C   0  0  0  0  0  2  0  0  0  0  0  0
  160.7450  208.0170  152.1850 N   0  0  1  0  0  0  0  0  0  0  0  0
  160.9560  206.6190  152.6130 C   0  0  0  0  0  2  0  0  0  0  0  0
  162.0910  204.1600  147.2340 C   0  0  0  0  0  2  0  0  0  0  0  0
  161.4820  203.1600  148.1750 C   0  0  0  0  0  2  0  0  0  0  0  0
  161.0530  205.3770  149.0280 N   0  0  1  0  0  0  0  0  0  0  0  0
  162.1070  205.4520  148.0160 C   0  0  2  0  0  3  0  0  0  0  0  0
  160.6000  203.9840  149.0860 C   0  0  0  0  0  2  0  0  0  0  0  0
  161.8560  206.6170  147.0720 C   0  0  0  0  0  2  0  0  0  0  0  0
  161.6800  206.1190  145.6500 C   0  0  0  0  0  1  0  0  0  0  0  0
  160.3440  211.5320  156.5350 C   0  0  0  0  0  0  0  0  0  0  0  0
  161.3730  211.7040  157.2390 O   0  0  0  0  0  1  0  0  0  0  0  0
  159.1320  211.2470  157.1540 O   0  0  0  0  0  0  0  0  0  0  0  0
  158.8550  210.9950  152.0660 C   0  0  0  0  0  2  0  0  0  0  0  0
  157.4450  212.8940  151.7400 O   0  0  0  0  0  1  0  0  0  0  0  0
  158.7420  212.5170  152.0850 C   0  0  2  0  0  3  0  0  0  0  0  0
  159.1510  213.4020  149.8880 O   0  0  0  0  0  1  0  0  0  0  0  0
  159.7410  213.1640  151.1320 C   0  0  0  0  0  2  0  0  0  0  0  0
  160.3480  207.7800  155.0070 C   0  0  0  0  0  2  0  0  0  0  0  0
  161.6090  207.6950  157.2310 C   0  0  0  0  0  2  0  0  0  0  0  0
  160.6420  206.5150  157.2610 C   0  0  0  0  0  2  0  0  0  0  0  0
  160.2820  207.7800  156.5230 C   0  0  0  0  0  0  0  0  0  0  0  0
  159.3540  208.6020  157.1630 O   0  0  0  0  0  1  0  0  0  0  0  0
  1 31  1  1  0  0  0
  1  8  1  0  0  0  0
  2  4  1  0  0  0  0
  2  9  1  0  0  0  0
  3  6  1  0  0  0  0
  4  5  1  0  0  0  0
  5  6  1  0  0  0  0
  6 23  1  0  0  0  0
  7  2  1  0  0  0  0
  7  1  1  0  0  0  0
  9  6  1  0  0  0  0
  9  8  1  0  0  0  0
 10 14  1  0  0  0  0
 11 15  1  0  0  0  0
 12 11  1  0  0  0  0
 13 12  1  0  0  0  0
 13 10  1  0  0  0  0
 14 15  1  0  0  0  0
 14  7  1  0  0  0  0
 16 19  1  0  0  0  0
 16 17  1  0  0  0  0
 17 20  1  0  0  0  0
 18 20  1  0  0  0  0
 18 12  1  0  0  0  0
 19 18  1  0  0  0  0
 21 19  1  0  0  0  0
 22 21  1  0  0  0  0
 23 25  2  0  0  0  0
 23 24  1  0  0  0  0
 26 28  1  0  0  0  0
 26  4  1  0  0  0  0
 27 28  1  0  0  0  0
 29 30  1  0  0  0  0
 30 28  1  0  0  0  0
 31 34  1  0  0  0  0
 32 33  1  0  0  0  0
 34 35  1  0  0  0  0
 34 32  1  0  0  0  0
 34 33  1  0  0  0  0
M  END
>  <MODEL>
8

>  <REMARK>
 VINA RESULT:      -3.8      1.483      2.142
  Name = 
  9 active torsions:
  status: ('A' for Active; 'I' for Inactive)
    1  A    between atoms: C_2  and  C_16
    2  A    between atoms: C_2  and  C_17
    3  A    between atoms: C_4  and  C_19
    4  A    between atoms: C_5  and  C_25
    5  A    between atoms: C_10  and  C_27
    6  A    between atoms: C_13  and  N_15
    7  A    between atoms: C_16  and  C_29
    8  A    between atoms: C_19  and  C_23
    9  A    between atoms: N_24  and  C_26
                            x       y       z     vdW  Elec       q    Type
                         _______ _______ _______ _____ _____    ______ ____

>  <TORSDO>
F 9

$$$$
=
 OpenBabel11072413103D

 35 39  0  0  1  0  0  0  0  0999 V2000
  159.2880  211.2880  152.3500 C   0  0  1  0  0  3  0  0  0  0  0  0
  159.8660  210.0650  154.2970 C   0  0  2  0  0  3  0  0  0  0  0  0
  159.2390  211.5120  156.9210 O   0  0  0  0  0  1  0  0  0  0  0  0
  161.1980  210.6790  154.7130 C   0  0  1  0  0  3  0  0  0  0  0  0
  160.9890  211.8340  155.4950 O   0  0  0  0  0  0  0  0  0  0  0  0
  159.5970  211.9900  155.6570 C   0  0  1  0  0  0  0  0  0  0  0  0
  159.7240  209.8970  152.8030 C   0  0  2  0  0  3  0  0  0  0  0  0
  158.6050  211.8950  153.4230 O   0  0  0  0  0  0  0  0  0  0  0  0
  158.8840  211.1510  154.5990 C   0  0  1  0  0  3  0  0  0  0  0  0
  160.8270  207.8860  152.0920 C   0  0  0  0  0  2  0  0  0  0  0  0
  161.8390  209.1250  149.8230 C   0  0  0  0  0  2  0  0  0  0  0  0
  161.1640  207.7580  149.5980 C   0  0  2  0  0  3  0  0  0  0  0  0
  160.2810  207.3270  150.7740 C   0  0  0  0  0  2  0  0  0  0  0  0
  160.9200  209.3640  152.1240 N   0  0  1  0  0  0  0  0  0  0  0  0
  160.9980  209.9650  150.7780 C   0  0  0  0  0  2  0  0  0  0  0  0
  161.7730  204.7600  147.8130 C   0  0  0  0  0  2  0  0  0  0  0  0
  162.2300  205.8920  146.9380 C   0  0  0  0  0  2  0  0  0  0  0  0
  162.0980  206.6860  149.2140 N   0  0  1  0  0  0  0  0  0  0  0  0
  161.3640  205.4250  149.1060 C   0  0  2  0  0  3  0  0  0  0  0  0
  162.7050  206.9530  147.9060 C   0  0  0  0  0  2  0  0  0  0  0  0
  161.7020  204.5110  150.2730 C   0  0  0  0  0  2  0  0  0  0  0  0
  160.8380  203.2650  150.2380 C   0  0  0  0  0  1  0  0  0  0  0  0
  159.2300  213.4470  155.5760 C   0  0  0  0  0  0  0  0  0  0  0  0
  160.0980  214.3300  155.8080 O   0  0  0  0  0  1  0  0  0  0  0  0
  157.9290  213.8300  155.2700 O   0  0  0  0  0  0  0  0  0  0  0  0
  162.1100  209.6840  155.4310 C   0  0  0  0  0  2  0  0  0  0  0  0
  162.2720  208.1430  157.2490 O   0  0  0  0  0  1  0  0  0  0  0  0
  161.3610  208.7750  156.4030 C   0  0  2  0  0  3  0  0  0  0  0  0
  159.6960  207.0480  156.5530 O   0  0  0  0  0  1  0  0  0  0  0  0
  160.5290  207.7330  155.6650 C   0  0  0  0  0  2  0  0  0  0  0  0
  160.4590  212.1800  151.9300 C   0  0  0  0  0  2  0  0  0  0  0  0
  159.5130  214.4530  151.2370 C   0  0  0  0  0  2  0  0  0  0  0  0
  158.5860  213.4130  150.6120 C   0  0  0  0  0  2  0  0  0  0  0  0
  160.0510  213.1140  150.8050 C   0  0  0  0  0  0  0  0  0  0  0  0
  160.8310  213.1660  149.6490 O   0  0  0  0  0  1  0  0  0  0  0  0
  1 31  1  1  0  0  0
  1  7  1  0  0  0  0
  1  8  1  0  0  0  0
  2  9  1  0  0  0  0
  2  4  1  0  0  0  0
  4 26  1  0  0  0  0
  4  5  1  0  0  0  0
  5  6  1  0  0  0  0
  6  3  1  0  0  0  0
  7  2  1  0  0  0  0
  8  9  1  0  0  0  0
  9  6  1  0  0  0  0
 10 14  1  0  0  0  0
 11 15  1  0  0  0  0
 12 11  1  0  0  0  0
 12 13  1  0  0  0  0
 13 10  1  0  0  0  0
 14  7  1  0  0  0  0
 15 14  1  0  0  0  0
 16 19  1  0  0  0  0
 17 16  1  0  0  0  0
 17 20  1  0  0  0  0
 18 12  1  0  0  0  0
 19 18  1  0  0  0  0
 19 21  1  0  0  0  0
 20 18  1  0  0  0  0
 22 21  1  0  0  0  0
 23  6  1  0  0  0  0
 23 24  1  0  0  0  0
 25 23  2  0  0  0  0
 26 28  1  0  0  0  0
 28 27  1  0  0  0  0
 30 28  1  0  0  0  0
 30 29  1  0  0  0  0
 33 34  1  0  0  0  0
 33 32  1  0  0  0  0
 34 32  1  0  0  0  0
 34 31  1  0  0  0  0
 35 34  1  0  0  0  0
M  END
>  <MODEL>
9

>  <REMARK>
 VINA RESULT:      -3.8      1.472      4.719
  Name = 
  9 active torsions:
  status: ('A' for Active; 'I' for Inactive)
    1  A    between atoms: C_2  and  C_16
    2  A    between atoms: C_2  and  C_17
    3  A    between atoms: C_4  and  C_19
    4  A    between atoms: C_5  and  C_25
    5  A    between atoms: C_10  and  C_27
    6  A    between atoms: C_13  and  N_15
    7  A    between atoms: C_16  and  C_29
    8  A    between atoms: C_19  and  C_23
    9  A    between atoms: N_24  and  C_26
                            x       y       z     vdW  Elec       q    Type
                         _______ _______ _______ _____ _____    ______ ____

>  <TORSDO>
F 9

$$$$
