=
 OpenBabel11072415053D

 64 71  0  0  1  0  0  0  0  0999 V2000
  161.0940  206.6560  154.3680 C   0  0  0  0  0  1  0  0  0  0  0  0
  160.0260  206.2900  149.7920 C   0  0  0  0  0  3  0  0  0  0  0  0
  161.5930  207.1500  153.0210 C   0  0  2  0  0  0  0  0  0  0  0  0
  160.9120  204.1980  150.6760 C   0  0  0  0  0  0  0  0  0  0  0  0
  160.5010  206.9370  150.9320 C   0  0  0  0  0  0  0  0  0  0  0  0
  160.4080  208.3830  151.2160 C   0  0  0  0  0  2  0  0  0  0  0  0
  160.9210  208.4990  152.6610 C   0  0  2  0  0  3  0  0  0  0  0  0
  161.1610  206.2510  151.9220 C   0  0  0  0  0  0  0  0  0  0  0  0
  161.3960  204.8780  151.8100 C   0  0  0  0  0  3  0  0  0  0  0  0
  160.2340  204.9080  149.6710 C   0  0  0  0  0  3  0  0  0  0  0  0
  162.9870  207.2450  153.0280 O   0  0  0  0  0  1  0  0  0  0  0  0
  161.6500  210.7250  151.8760 O   0  0  0  0  0  0  0  0  0  0  0  0
  159.1680  214.3140  151.2020 C   0  0  0  0  0  2  0  0  0  0  0  0
  161.8070  209.7420  152.8840 C   0  0  1  0  0  3  0  0  0  0  0  0
  160.5040  211.3110  154.4800 C   0  0  0  0  0  2  0  0  0  0  0  0
  160.3710  211.3160  151.9820 C   0  0  2  0  0  3  0  0  0  0  0  0
  158.9960  213.0080  153.4290 C   0  0  1  0  0  3  0  0  0  0  0  0
  162.3200  209.9760  155.1870 O   0  0  0  0  0  0  0  0  0  0  0  0
  160.0430  212.0070  150.6530 C   0  0  0  0  0  2  0  0  0  0  0  0
  158.2740  213.5610  152.1940 C   0  0  0  0  0  2  0  0  0  0  0  0
  160.3080  212.2050  153.2550 C   0  0  1  0  0  3  0  0  0  0  0  0
  160.3530  213.4980  150.6780 C   0  0  0  0  0  2  0  0  0  0  0  0
  161.6170  210.3340  154.2560 C   0  0  0  0  0  0  0  0  0  0  0  0
  158.8990  213.8640  154.5580 O   0  0  0  0  0  0  0  0  0  0  0  0
  157.3330  210.9020  155.8710 C   0  0  0  0  0  2  0  0  0  0  0  0
  155.6590  212.4890  155.2810 O   0  0  0  0  0  0  0  0  0  0  0  0
  156.9000  214.4210  156.0540 C   0  0  1  0  0  3  0  0  0  0  0  0
  159.1290  211.9710  156.9440 O   0  0  0  0  0  0  0  0  0  0  0  0
  157.9370  213.4370  155.5070 C   0  0  1  0  0  0  0  0  0  0  0  0
  155.1940  210.1890  154.8350 C   0  0  0  0  0  1  0  0  0  0  0  0
  156.5340  213.5180  154.8740 C   0  0  1  0  0  3  0  0  0  0  0  0
  156.2430  211.2790  154.8790 C   0  0  2  0  0  3  0  0  0  0  0  0
  158.2020  212.0940  156.1590 C   0  0  0  0  0  0  0  0  0  0  0  0
  156.3660  213.9560  157.2590 O   0  0  0  0  0  1  0  0  0  0  0  0
  161.1440  202.7310  150.4890 C   0  0  0  0  0  2  0  0  0  0  0  0
  161.3010  202.4060  149.1350 O   0  0  0  0  0  0  0  0  0  0  0  0
  160.3880  201.3790  148.8880 C   0  0  0  0  0  2  0  0  0  0  0  0
  161.2050  201.9620  146.6450 C   0  0  2  0  0  3  0  0  0  0  0  0
  161.1230  200.5630  146.7720 O   0  0  0  0  0  0  0  0  0  0  0  0
  160.1100  201.3120  147.4000 C   0  0  1  0  0  3  0  0  0  0  0  0
  160.7980  202.4070  145.2290 C   0  0  1  0  0  3  0  0  0  0  0  0
  159.6670  201.6110  144.5680 C   0  0  0  0  0  1  0  0  0  0  0  0
  160.5790  203.9210  145.1810 C   0  0  2  0  0  3  0  0  0  0  0  0
  159.4610  204.4620  143.8410 S   0  0  0  0  0  1  0  0  0  0  0  0
  162.1160  205.5150  144.2520 C   0  0  0  0  0  0  0  0  0  0  0  0
  161.8680  204.6890  145.2310 C   0  0  0  0  0  0  0  0  0  0  0  0
  162.3340  206.3540  143.2790 C   0  0  0  0  0  3  0  0  0  0  0  0
  163.0580  205.7180  147.2320 N   0  0  0  0  0  0  0  0  0  0  0  0
  163.3970  203.5130  146.6100 O   0  0  0  0  0  0  0  0  0  0  0  0
  162.8000  204.5990  146.3790 C   0  0  0  0  0  0  0  0  0  0  0  0
  163.2940  207.7110  149.2940 N   0  0  0  0  0  1  0  0  0  0  0  0
  161.6120  208.8700  148.1930 O   0  0  0  0  0  0  0  0  0  0  0  0
  162.2630  206.8720  147.2070 N   0  0  0  0  0  0  0  0  0  0  0  0
  162.3640  207.8640  148.2270 C   0  0  0  0  0  0  0  0  0  0  0  0
  161.6900  206.1380  141.9510 C   0  0  0  0  0  2  0  0  0  0  0  0
  162.9820  205.9730  139.8540 C   0  0  0  0  0  2  0  0  0  0  0  0
  161.3160  207.7590  140.0600 C   0  0  1  0  0  3  0  0  0  0  0  0
  161.2720  207.1770  138.6610 C   0  0  0  0  0  2  0  0  0  0  0  0
  162.5820  206.4480  138.4750 C   0  0  2  0  0  3  0  0  0  0  0  0
  162.3670  206.9430  140.8420 C   0  0  1  0  0  0  0  0  0  0  0  0
  163.3800  207.7480  141.3740 O   0  0  0  0  0  1  0  0  0  0  0  0
  162.4030  205.3550  137.6290 O   0  0  0  0  0  1  0  0  0  0  0  0
  160.4410  209.9820  139.3260 C   0  0  0  0  0  1  0  0  0  0  0  0
  161.6050  209.2560  139.9750 C   0  0  0  0  0  2  0  0  0  0  0  0
  2  5  1  0  0  0  0
  3 11  1  0  0  0  0
  3  1  1  1  0  0  0
  4  9  2  0  0  0  0
  5  6  1  0  0  0  0
  5  8  2  0  0  0  0
  7  6  1  6  0  0  0
  7 14  1  0  0  0  0
  7  3  1  0  0  0  0
  8  3  1  0  0  0  0
  9  8  1  0  0  0  0
 10  2  2  0  0  0  0
 10  4  1  0  0  0  0
 12 16  1  0  0  0  0
 13 20  1  0  0  0  0
 14 12  1  6  0  0  0
 14 23  1  0  0  0  0
 16 19  1  6  0  0  0
 16 21  1  0  0  0  0
 17 24  1  1  0  0  0
 19 22  1  0  0  0  0
 20 17  1  0  0  0  0
 21 17  1  0  0  0  0
 21 15  1  1  0  0  0
 22 13  1  0  0  0  0
 23 15  1  0  0  0  0
 23 18  2  0  0  0  0
 25 33  1  0  0  0  0
 27 34  1  1  0  0  0
 29 24  1  6  0  0  0
 29 27  1  0  0  0  0
 29 33  1  0  0  0  0
 31 26  1  1  0  0  0
 31 29  1  0  0  0  0
 31 27  1  0  0  0  0
 32 30  1  1  0  0  0
 32 26  1  0  0  0  0
 32 25  1  0  0  0  0
 33 28  2  0  0  0  0
 35  4  1  0  0  0  0
 36 35  1  0  0  0  0
 37 36  1  0  0  0  0
 38 41  1  6  0  0  0
 38 39  1  0  0  0  0
 38 40  1  0  0  0  0
 39 40  1  0  0  0  0
 40 37  1  1  0  0  0
 41 42  1  1  0  0  0
 43 44  1  6  0  0  0
 43 41  1  0  0  0  0
 43 46  1  0  0  0  0
 45 46  2  0  0  0  0
 46 50  1  0  0  0  0
 47 45  2  0  0  0  0
 50 49  2  0  0  0  0
 50 48  1  0  0  0  0
 52 54  2  0  0  0  0
 53 48  2  0  0  0  0
 53 54  1  0  0  0  0
 54 51  1  0  0  0  0
 55 47  1  0  0  0  0
 56 60  1  0  0  0  0
 57 64  1  6  0  0  0
 57 60  1  0  0  0  0
 58 57  1  0  0  0  0
 59 62  1  6  0  0  0
 59 58  1  0  0  0  0
 59 56  1  0  0  0  0
 60 61  1  1  0  0  0
 60 55  1  0  0  0  0
 63 64  1  0  0  0  0
M  END
>  <MODEL>
1

>  <REMARK>
 VINA RESULT:      -0.6      0.000      0.000
  Name = 
  15 active torsions:
  status: ('A' for Active; 'I' for Inactive)
    1  A    between atoms: N_1  and  N_48
    2  A    between atoms: C_4  and  O_33
    3  A    between atoms: C_4  and  C_44
    4  A    between atoms: O_7  and  C_30
    5  A    between atoms: O_7  and  C_43
    6  A    between atoms: C_11  and  C_20
    7  A    between atoms: C_11  and  C_35
    8  A    between atoms: C_14  and  C_37
    9  A    between atoms: C_16  and  C_18
   10  A    between atoms: C_16  and  O_33
   11  A    between atoms: C_20  and  C_21
   12  A    between atoms: C_25  and  C_56
   13  A    between atoms: C_35  and  C_36
   14  A    between atoms: C_38  and  C_50
   15  A    between atoms: C_40  and  C_50
                            x       y       z     vdW  Elec       q    Type
                         _______ _______ _______ _____ _____    ______ ____

>  <TORSDO>
F 15

$$$$
=
 OpenBabel11072415053D

 64 71  0  0  1  0  0  0  0  0999 V2000
  162.5530  204.5270  151.9610 C   0  0  0  0  0  1  0  0  0  0  0  0
  161.2130  208.9830  152.7110 C   0  0  0  0  0  3  0  0  0  0  0  0
  161.2950  205.3780  151.9250 C   0  0  2  0  0  0  0  0  0  0  0  0
  161.8160  207.8660  154.7920 C   0  0  0  0  0  0  0  0  0  0  0  0
  161.1650  207.7360  152.0900 C   0  0  0  0  0  0  0  0  0  0  0  0
  160.8010  207.4750  150.6830 C   0  0  0  0  0  2  0  0  0  0  0  0
  161.0890  205.9740  150.5100 C   0  0  2  0  0  3  0  0  0  0  0  0
  161.4320  206.5810  152.7840 C   0  0  0  0  0  0  0  0  0  0  0  0
  161.7440  206.6170  154.1460 C   0  0  0  0  0  3  0  0  0  0  0  0
  161.5450  209.0420  154.0720 C   0  0  0  0  0  3  0  0  0  0  0  0
  160.1930  204.6280  152.3420 O   0  0  0  0  0  1  0  0  0  0  0  0
  159.8260  205.8610  148.3890 O   0  0  0  0  0  0  0  0  0  0  0  0
  161.4260  205.4290  144.2960 C   0  0  0  0  0  2  0  0  0  0  0  0
  160.0260  205.2550  149.6540 C   0  0  1  0  0  3  0  0  0  0  0  0
  161.2370  203.3220  148.4280 C   0  0  0  0  0  2  0  0  0  0  0  0
  160.9670  205.6590  147.5790 C   0  0  2  0  0  3  0  0  0  0  0  0
  162.2000  203.8270  146.1760 C   0  0  1  0  0  3  0  0  0  0  0  0
  159.8510  202.9830  150.3100 O   0  0  0  0  0  0  0  0  0  0  0  0
  160.9390  206.6820  146.4370 C   0  0  0  0  0  2  0  0  0  0  0  0
  162.5960  204.8440  145.0960 C   0  0  0  0  0  2  0  0  0  0  0  0
  161.0580  204.1650  147.1650 C   0  0  1  0  0  3  0  0  0  0  0  0
  160.3540  206.1070  145.1540 C   0  0  0  0  0  2  0  0  0  0  0  0
  160.3130  203.7840  149.5140 C   0  0  0  0  0  0  0  0  0  0  0  0
  162.3080  202.4820  145.7370 O   0  0  0  0  0  0  0  0  0  0  0  0
  161.5180  199.1040  146.6930 C   0  0  0  0  0  2  0  0  0  0  0  0
  159.9700  199.8440  145.0430 O   0  0  0  0  0  0  0  0  0  0  0  0
  159.7850  202.1010  145.9060 C   0  0  1  0  0  3  0  0  0  0  0  0
  161.9160  200.8080  148.2610 O   0  0  0  0  0  0  0  0  0  0  0  0
  161.2290  201.6640  146.1560 C   0  0  1  0  0  0  0  0  0  0  0  0
  160.7080  197.5770  144.9140 C   0  0  0  0  0  1  0  0  0  0  0  0
  160.4700  201.1570  144.9140 C   0  0  1  0  0  3  0  0  0  0  0  0
  161.0770  199.0080  145.2400 C   0  0  2  0  0  3  0  0  0  0  0  0
  161.5830  200.5450  147.1170 C   0  0  0  0  0  0  0  0  0  0  0  0
  158.9090  201.4230  146.7600 O   0  0  0  0  0  1  0  0  0  0  0  0
  162.1300  207.9720  156.2510 C   0  0  0  0  0  2  0  0  0  0  0  0
  161.8490  209.2530  156.7440 O   0  0  0  0  0  0  0  0  0  0  0  0
  160.4580  209.3710  156.7070 C   0  0  0  0  0  2  0  0  0  0  0  0
  158.7660  210.9150  155.8180 C   0  0  2  0  0  3  0  0  0  0  0  0
  158.9250  211.1300  157.1990 O   0  0  0  0  0  0  0  0  0  0  0  0
  160.0910  210.8220  156.4710 C   0  0  1  0  0  3  0  0  0  0  0  0
  158.5350  212.2460  155.0810 C   0  0  1  0  0  3  0  0  0  0  0  0
  159.2900  213.4630  155.6270 C   0  0  0  0  0  1  0  0  0  0  0  0
  158.6980  212.0630  153.5700 C   0  0  2  0  0  3  0  0  0  0  0  0
  160.4380  211.9610  153.0240 S   0  0  0  0  0  1  0  0  0  0  0  0
  158.3750  213.4710  151.6510 C   0  0  0  0  0  0  0  0  0  0  0  0
  157.8800  213.0440  152.7820 C   0  0  0  0  0  0  0  0  0  0  0  0
  158.8720  213.8650  150.5130 C   0  0  0  0  0  3  0  0  0  0  0  0
  155.6790  214.2500  152.3550 N   0  0  0  0  0  2  0  0  0  0  0  0
  156.0940  213.1310  154.3390 O   0  0  0  0  0  0  0  0  0  0  0  0
  156.5230  213.4630  153.2010 C   0  0  0  0  0  0  0  0  0  0  0  0
  153.6930  213.7250  150.3420 N   0  0  0  0  0  1  0  0  0  0  0  0
  155.2930  214.3410  148.7790 O   0  0  0  0  0  0  0  0  0  0  0  0
  155.9650  214.4500  150.9970 N   0  0  0  0  0  2  0  0  0  0  0  0
  154.9930  214.1860  149.9890 C   0  0  0  0  0  0  0  0  0  0  0  0
  160.3480  213.8380  150.2970 C   0  0  0  0  0  2  0  0  0  0  0  0
  159.4730  212.9680  148.1590 C   0  0  0  0  0  2  0  0  0  0  0  0
  161.6760  214.0440  148.1670 C   0  0  1  0  0  3  0  0  0  0  0  0
  160.9120  214.4520  146.9240 C   0  0  0  0  0  2  0  0  0  0  0  0
  159.8110  213.4300  146.7590 C   0  0  2  0  0  3  0  0  0  0  0  0
  160.7280  213.1450  148.9890 C   0  0  1  0  0  0  0  0  0  0  0  0
  161.2770  211.8840  149.2480 O   0  0  0  0  0  1  0  0  0  0  0  0
  158.6960  214.0210  146.1700 O   0  0  0  0  0  1  0  0  0  0  0  0
  163.0840  211.9880  148.3530 C   0  0  0  0  0  1  0  0  0  0  0  0
  162.9880  213.3800  147.7570 C   0  0  0  0  0  2  0  0  0  0  0  0
  2 10  1  0  0  0  0
  3  1  1  1  0  0  0
  3 11  1  0  0  0  0
  3  8  1  0  0  0  0
  4 35  1  0  0  0  0
  5  2  2  0  0  0  0
  5  8  1  0  0  0  0
  6  5  1  0  0  0  0
  7  6  1  1  0  0  0
  7  3  1  0  0  0  0
  8  9  2  0  0  0  0
  9  4  1  0  0  0  0
 10  4  2  0  0  0  0
 13 20  1  0  0  0  0
 13 22  1  0  0  0  0
 14 12  1  6  0  0  0
 14  7  1  0  0  0  0
 15 23  1  0  0  0  0
 16 19  1  6  0  0  0
 16 12  1  0  0  0  0
 17 24  1  6  0  0  0
 17 21  1  0  0  0  0
 20 17  1  0  0  0  0
 21 16  1  0  0  0  0
 21 15  1  1  0  0  0
 22 19  1  0  0  0  0
 23 14  1  0  0  0  0
 23 18  2  0  0  0  0
 25 33  1  0  0  0  0
 26 32  1  0  0  0  0
 27 29  1  0  0  0  0
 27 34  1  1  0  0  0
 29 24  1  6  0  0  0
 29 33  1  0  0  0  0
 31 26  1  1  0  0  0
 31 27  1  0  0  0  0
 31 29  1  0  0  0  0
 32 30  1  1  0  0  0
 32 25  1  0  0  0  0
 33 28  2  0  0  0  0
 35 36  1  0  0  0  0
 37 36  1  0  0  0  0
 38 41  1  6  0  0  0
 38 40  1  0  0  0  0
 38 39  1  0  0  0  0
 40 37  1  1  0  0  0
 40 39  1  0  0  0  0
 41 42  1  1  0  0  0
 43 44  1  1  0  0  0
 43 41  1  0  0  0  0
 45 46  2  0  0  0  0
 46 50  1  0  0  0  0
 46 43  1  0  0  0  0
 47 45  2  0  0  0  0
 48 50  1  0  0  0  0
 50 49  2  0  0  0  0
 52 54  2  0  0  0  0
 53 48  1  0  0  0  0
 54 51  1  0  0  0  0
 54 53  1  0  0  0  0
 55 47  1  0  0  0  0
 56 60  1  0  0  0  0
 57 64  1  6  0  0  0
 57 60  1  0  0  0  0
 58 57  1  0  0  0  0
 59 62  1  1  0  0  0
 59 58  1  0  0  0  0
 59 56  1  0  0  0  0
 60 61  1  1  0  0  0
 60 55  1  0  0  0  0
 64 63  1  0  0  0  0
M  END
>  <MODEL>
2

>  <REMARK>
 VINA RESULT:      -0.6      3.942     11.191
  Name = 
  15 active torsions:
  status: ('A' for Active; 'I' for Inactive)
    1  A    between atoms: N_1  and  N_48
    2  A    between atoms: C_4  and  O_33
    3  A    between atoms: C_4  and  C_44
    4  A    between atoms: O_7  and  C_30
    5  A    between atoms: O_7  and  C_43
    6  A    between atoms: C_11  and  C_20
    7  A    between atoms: C_11  and  C_35
    8  A    between atoms: C_14  and  C_37
    9  A    between atoms: C_16  and  C_18
   10  A    between atoms: C_16  and  O_33
   11  A    between atoms: C_20  and  C_21
   12  A    between atoms: C_25  and  C_56
   13  A    between atoms: C_35  and  C_36
   14  A    between atoms: C_38  and  C_50
   15  A    between atoms: C_40  and  C_50
                            x       y       z     vdW  Elec       q    Type
                         _______ _______ _______ _____ _____    ______ ____

>  <TORSDO>
F 15

$$$$
=
 OpenBabel11072415053D

 64 71  0  0  1  0  0  0  0  0999 V2000
  160.8630  209.4290  148.6630 C   0  0  0  0  0  1  0  0  0  0  0  0
  160.0010  210.5500  153.1590 C   0  0  0  0  0  3  0  0  0  0  0  0
  161.5650  209.4290  150.0100 C   0  0  2  0  0  0  0  0  0  0  0  0
  160.1570  212.5360  151.7540 C   0  0  0  0  0  0  0  0  0  0  0  0
  160.5830  209.8130  152.1290 C   0  0  0  0  0  0  0  0  0  0  0  0
  160.9180  208.3750  152.1660 C   0  0  0  0  0  2  0  0  0  0  0  0
  161.3570  208.0700  150.7250 C   0  0  2  0  0  3  0  0  0  0  0  0
  160.9450  210.4030  150.9430 C   0  0  0  0  0  0  0  0  0  0  0  0
  160.7590  211.7730  150.7350 C   0  0  0  0  0  3  0  0  0  0  0  0
  159.7860  211.9220  152.9620 C   0  0  0  0  0  3  0  0  0  0  0  0
  162.9200  209.7330  149.8480 O   0  0  0  0  0  1  0  0  0  0  0  0
  162.3980  205.9500  151.4500 O   0  0  0  0  0  0  0  0  0  0  0  0
  160.8610  201.8470  150.9100 C   0  0  0  0  0  2  0  0  0  0  0  0
  162.5640  207.1130  150.6570 C   0  0  1  0  0  3  0  0  0  0  0  0
  162.2160  205.6190  148.5700 C   0  0  0  0  0  2  0  0  0  0  0  0
  161.4010  205.1250  150.8830 C   0  0  2  0  0  3  0  0  0  0  0  0
  160.9770  203.4710  148.8990 C   0  0  1  0  0  3  0  0  0  0  0  0
  163.7390  207.4240  148.6200 O   0  0  0  0  0  0  0  0  0  0  0  0
  160.9110  204.1470  151.9570 C   0  0  0  0  0  2  0  0  0  0  0  0
  160.1120  202.5560  149.7770 C   0  0  0  0  0  2  0  0  0  0  0  0
  161.9300  204.4940  149.5650 C   0  0  1  0  0  3  0  0  0  0  0  0
  161.5960  202.7900  151.8670 C   0  0  0  0  0  2  0  0  0  0  0  0
  162.9250  206.7570  149.2390 C   0  0  0  0  0  0  0  0  0  0  0  0
  161.4250  202.8380  147.7110 O   0  0  0  0  0  0  0  0  0  0  0  0
  161.1880  199.2730  147.2900 C   0  0  0  0  0  2  0  0  0  0  0  0
  160.5890  200.3530  145.2550 O   0  0  0  0  0  0  0  0  0  0  0  0
  159.3890  202.1730  146.3130 C   0  0  1  0  0  3  0  0  0  0  0  0
  160.2430  200.4010  149.1220 O   0  0  0  0  0  0  0  0  0  0  0  0
  160.5490  201.8250  147.2470 C   0  0  1  0  0  0  0  0  0  0  0  0
  161.8600  198.3380  145.0920 C   0  0  0  0  0  1  0  0  0  0  0  0
  160.7110  201.6790  145.7210 C   0  0  1  0  0  3  0  0  0  0  0  0
  161.6090  199.6130  145.8680 C   0  0  2  0  0  3  0  0  0  0  0  0
  160.6370  200.4940  147.9700 C   0  0  0  0  0  0  0  0  0  0  0  0
  158.4160  201.1700  146.3390 O   0  0  0  0  0  1  0  0  0  0  0  0
  159.9430  214.0100  151.6000 C   0  0  0  0  0  2  0  0  0  0  0  0
  160.3290  214.4530  150.3290 O   0  0  0  0  0  0  0  0  0  0  0  0
  159.2460  214.1770  149.4920 C   0  0  0  0  0  2  0  0  0  0  0  0
  159.3580  213.2450  147.2210 C   0  0  2  0  0  3  0  0  0  0  0  0
  158.5140  214.3700  147.2310 O   0  0  0  0  0  0  0  0  0  0  0  0
  159.6540  214.4320  148.0550 C   0  0  1  0  0  3  0  0  0  0  0  0
  160.1770  213.1880  145.9190 C   0  0  1  0  0  3  0  0  0  0  0  0
  160.3190  211.8080  145.2680 C   0  0  0  0  0  1  0  0  0  0  0  0
  159.7130  214.2720  144.9410 C   0  0  2  0  0  3  0  0  0  0  0  0
  157.8980  214.3890  144.7790 S   0  0  0  0  0  1  0  0  0  0  0  0
  159.7050  214.2690  142.5400 C   0  0  0  0  0  0  0  0  0  0  0  0
  160.4290  214.1990  143.6240 C   0  0  0  0  0  0  0  0  0  0  0  0
  158.9690  214.3680  141.4690 C   0  0  0  0  0  3  0  0  0  0  0  0
  162.5680  213.7330  142.3250 N   0  0  0  0  0  2  0  0  0  0  0  0
  162.6080  214.4450  144.5280 O   0  0  0  0  0  0  0  0  0  0  0  0
  161.9060  214.1400  143.5260 C   0  0  0  0  0  0  0  0  0  0  0  0
  161.8110  211.1560  141.2930 N   0  0  0  0  0  1  0  0  0  0  0  0
  160.9430  212.2830  139.4600 O   0  0  0  0  0  0  0  0  0  0  0  0
  161.8910  213.6210  141.1030 N   0  0  0  0  0  2  0  0  0  0  0  0
  161.5170  212.3500  140.5750 C   0  0  0  0  0  0  0  0  0  0  0  0
  157.5310  213.9740  141.5170 C   0  0  0  0  0  2  0  0  0  0  0  0
  157.8360  214.4510  139.1130 C   0  0  0  0  0  2  0  0  0  0  0  0
  156.9760  212.2490  139.7670 C   0  0  1  0  0  3  0  0  0  0  0  0
  157.9600  212.0960  138.6250 C   0  0  0  0  0  2  0  0  0  0  0  0
  158.0790  213.4640  137.9930 C   0  0  2  0  0  3  0  0  0  0  0  0
  156.9470  213.7510  140.1220 C   0  0  1  0  0  0  0  0  0  0  0  0
  155.6590  214.2940  140.0410 O   0  0  0  0  0  1  0  0  0  0  0  0
  159.3600  213.6400  137.4740 O   0  0  0  0  0  1  0  0  0  0  0  0
  155.8080  210.6730  138.2210 C   0  0  0  0  0  1  0  0  0  0  0  0
  155.6280  211.6650  139.3530 C   0  0  0  0  0  2  0  0  0  0  0  0
  3  1  1  6  0  0  0
  3  7  1  0  0  0  0
  3  8  1  0  0  0  0
  4 10  2  0  0  0  0
  5  6  1  0  0  0  0
  5  2  2  0  0  0  0
  7  6  1  1  0  0  0
  8  5  1  0  0  0  0
  9  8  2  0  0  0  0
  9  4  1  0  0  0  0
 10  2  1  0  0  0  0
 11  3  1  0  0  0  0
 13 22  1  0  0  0  0
 14 23  1  6  0  0  0
 14  7  1  0  0  0  0
 14 12  1  0  0  0  0
 15 23  1  0  0  0  0
 16 12  1  0  0  0  0
 16 19  1  1  0  0  0
 17 24  1  1  0  0  0
 17 21  1  0  0  0  0
 17 20  1  0  0  0  0
 18 23  2  0  0  0  0
 20 13  1  0  0  0  0
 21 15  1  6  0  0  0
 21 16  1  0  0  0  0
 22 19  1  0  0  0  0
 25 33  1  0  0  0  0
 26 32  1  0  0  0  0
 27 34  1  1  0  0  0
 27 29  1  0  0  0  0
 29 24  1  1  0  0  0
 29 33  1  0  0  0  0
 31 26  1  1  0  0  0
 31 27  1  0  0  0  0
 31 29  1  0  0  0  0
 32 30  1  6  0  0  0
 32 25  1  0  0  0  0
 33 28  2  0  0  0  0
 35  4  1  0  0  0  0
 36 35  1  0  0  0  0
 37 36  1  0  0  0  0
 38 41  1  6  0  0  0
 38 39  1  0  0  0  0
 38 40  1  0  0  0  0
 39 40  1  0  0  0  0
 40 37  1  1  0  0  0
 41 42  1  6  0  0  0
 43 44  1  6  0  0  0
 43 41  1  0  0  0  0
 45 46  2  0  0  0  0
 46 43  1  0  0  0  0
 47 55  1  0  0  0  0
 47 45  2  0  0  0  0
 48 50  1  0  0  0  0
 50 46  1  0  0  0  0
 50 49  2  0  0  0  0
 52 54  2  0  0  0  0
 53 48  1  0  0  0  0
 54 53  1  0  0  0  0
 54 51  1  0  0  0  0
 56 60  1  0  0  0  0
 57 64  1  6  0  0  0
 57 60  1  0  0  0  0
 58 57  1  0  0  0  0
 59 62  1  1  0  0  0
 59 58  1  0  0  0  0
 59 56  1  0  0  0  0
 60 61  1  6  0  0  0
 60 55  1  0  0  0  0
 63 64  1  0  0  0  0
M  END
>  <MODEL>
3

>  <REMARK>
 VINA RESULT:       2.0      4.241     10.252
  Name = 
  15 active torsions:
  status: ('A' for Active; 'I' for Inactive)
    1  A    between atoms: N_1  and  N_48
    2  A    between atoms: C_4  and  O_33
    3  A    between atoms: C_4  and  C_44
    4  A    between atoms: O_7  and  C_30
    5  A    between atoms: O_7  and  C_43
    6  A    between atoms: C_11  and  C_20
    7  A    between atoms: C_11  and  C_35
    8  A    between atoms: C_14  and  C_37
    9  A    between atoms: C_16  and  C_18
   10  A    between atoms: C_16  and  O_33
   11  A    between atoms: C_20  and  C_21
   12  A    between atoms: C_25  and  C_56
   13  A    between atoms: C_35  and  C_36
   14  A    between atoms: C_38  and  C_50
   15  A    between atoms: C_40  and  C_50
                            x       y       z     vdW  Elec       q    Type
                         _______ _______ _______ _____ _____    ______ ____

>  <TORSDO>
F 15

$$$$
=
 OpenBabel11072415053D

 64 71  0  0  1  0  0  0  0  0999 V2000
  160.8910  210.8650  146.5460 C   0  0  0  0  0  1  0  0  0  0  0  0
  157.5810  214.2140  146.7430 C   0  0  0  0  0  3  0  0  0  0  0  0
  160.6950  212.2650  147.1000 C   0  0  2  0  0  0  0  0  0  0  0  0
  158.4640  213.9570  144.4850 C   0  0  0  0  0  0  0  0  0  0  0  0
  158.6670  213.4790  147.2180 C   0  0  0  0  0  0  0  0  0  0  0  0
  158.9560  213.1650  148.6310 C   0  0  0  0  0  2  0  0  0  0  0  0
  160.1490  212.1990  148.5490 C   0  0  2  0  0  3  0  0  0  0  0  0
  159.6280  212.9920  146.3670 C   0  0  0  0  0  0  0  0  0  0  0  0
  159.5590  213.2330  144.9920 C   0  0  0  0  0  3  0  0  0  0  0  0
  157.4830  214.4480  145.3640 C   0  0  0  0  0  3  0  0  0  0  0  0
  161.8900  212.9860  147.0230 O   0  0  0  0  0  1  0  0  0  0  0  0
  160.6340  212.6050  150.9370 O   0  0  0  0  0  0  0  0  0  0  0  0
  159.6620  210.0210  154.3820 C   0  0  0  0  0  2  0  0  0  0  0  0
  161.2010  212.4520  149.6480 C   0  0  1  0  0  3  0  0  0  0  0  0
  162.0590  210.1290  150.4090 C   0  0  0  0  0  2  0  0  0  0  0  0
  160.1140  211.3680  151.3790 C   0  0  2  0  0  3  0  0  0  0  0  0
  160.8510  209.0350  152.3060 C   0  0  1  0  0  3  0  0  0  0  0  0
  163.2970  211.5570  148.9920 O   0  0  0  0  0  0  0  0  0  0  0  0
  159.1200  211.6360  152.5150 C   0  0  0  0  0  2  0  0  0  0  0  0
  159.6510  208.9750  153.2610 C   0  0  0  0  0  2  0  0  0  0  0  0
  161.2800  210.3920  151.6980 C   0  0  1  0  0  3  0  0  0  0  0  0
  159.7490  211.4690  153.8920 C   0  0  0  0  0  2  0  0  0  0  0  0
  162.2810  211.4020  149.6500 C   0  0  0  0  0  0  0  0  0  0  0  0
  161.8790  208.1190  152.6500 O   0  0  0  0  0  0  0  0  0  0  0  0
  160.2050  205.4180  150.9610 C   0  0  0  0  0  2  0  0  0  0  0  0
  162.2890  204.6480  151.8170 O   0  0  0  0  0  0  0  0  0  0  0  0
  163.5070  206.6780  151.3010 C   0  0  1  0  0  3  0  0  0  0  0  0
  160.4530  207.5520  150.0090 O   0  0  0  0  0  0  0  0  0  0  0  0
  162.0880  207.1130  151.6730 C   0  0  1  0  0  0  0  0  0  0  0  0
  160.4340  203.1490  151.9360 C   0  0  0  0  0  1  0  0  0  0  0  0
  162.7240  205.8810  152.3470 C   0  0  1  0  0  3  0  0  0  0  0  0
  160.9040  204.5850  152.0240 C   0  0  2  0  0  3  0  0  0  0  0  0
  160.8820  206.7540  150.8270 C   0  0  0  0  0  0  0  0  0  0  0  0
  163.5180  206.0450  150.0550 O   0  0  0  0  0  1  0  0  0  0  0  0
  158.3390  214.2620  143.0250 C   0  0  0  0  0  2  0  0  0  0  0  0
  158.6130  213.1340  142.2410 O   0  0  0  0  0  0  0  0  0  0  0  0
  160.0050  213.0190  142.2240 C   0  0  0  0  0  2  0  0  0  0  0  0
  160.2700  211.1080  140.7040 C   0  0  2  0  0  3  0  0  0  0  0  0
  159.3460  212.0200  140.1620 O   0  0  0  0  0  0  0  0  0  0  0  0
  160.4480  212.5700  140.8470 C   0  0  1  0  0  3  0  0  0  0  0  0
  161.1390  210.4880  139.5940 C   0  0  1  0  0  3  0  0  0  0  0  0
  161.9360  211.4700  138.7290 C   0  0  0  0  0  1  0  0  0  0  0  0
  161.9920  209.3450  140.1510 C   0  0  2  0  0  3  0  0  0  0  0  0
  163.7850  209.5670  139.8850 S   0  0  0  0  0  1  0  0  0  0  0  0
  161.4150  207.0670  140.6460 C   0  0  0  0  0  0  0  0  0  0  0  0
  161.4870  207.9950  139.7310 C   0  0  0  0  0  0  0  0  0  0  0  0
  161.3250  206.1610  141.5780 C   0  0  0  0  0  3  0  0  0  0  0  0
  159.6950  208.1230  137.9280 N   0  0  0  0  0  0  0  0  0  0  0  0
  161.7420  207.1100  137.5460 O   0  0  0  0  0  0  0  0  0  0  0  0
  160.9980  207.7230  138.3600 C   0  0  0  0  0  0  0  0  0  0  0  0
  157.0460  208.8230  137.0500 N   0  0  0  0  0  1  0  0  0  0  0  0
  156.9310  210.2090  138.9070 O   0  0  0  0  0  0  0  0  0  0  0  0
  158.9070  209.0160  138.6680 N   0  0  0  0  0  0  0  0  0  0  0  0
  157.5960  209.3780  138.2390 C   0  0  0  0  0  0  0  0  0  0  0  0
  162.1970  206.2470  142.7860 C   0  0  0  0  0  2  0  0  0  0  0  0
  160.4830  204.8530  143.8890 C   0  0  0  0  0  2  0  0  0  0  0  0
  162.3740  205.6550  145.2280 C   0  0  1  0  0  3  0  0  0  0  0  0
  162.0480  204.2250  145.6080 C   0  0  0  0  0  2  0  0  0  0  0  0
  160.6440  203.9730  145.1090 C   0  0  2  0  0  3  0  0  0  0  0  0
  161.4130  206.0350  144.0810 C   0  0  1  0  0  0  0  0  0  0  0  0
  160.6470  207.1670  144.3780 O   0  0  0  0  0  1  0  0  0  0  0  0
  160.4980  202.6350  144.7520 O   0  0  0  0  0  1  0  0  0  0  0  0
  160.9140  206.3780  147.1220 C   0  0  0  0  0  1  0  0  0  0  0  0
  162.2710  206.5420  146.4660 C   0  0  0  0  0  2  0  0  0  0  0  0
  2  5  1  0  0  0  0
  3  1  1  6  0  0  0
  3  7  1  0  0  0  0
  4  9  2  0  0  0  0
  4 10  1  0  0  0  0
  5  6  1  0  0  0  0
  7  6  1  6  0  0  0
  7 14  1  0  0  0  0
  8  3  1  0  0  0  0
  8  5  2  0  0  0  0
  9  8  1  0  0  0  0
 10  2  2  0  0  0  0
 11  3  1  0  0  0  0
 12 16  1  0  0  0  0
 14 23  1  1  0  0  0
 14 12  1  0  0  0  0
 16 21  1  0  0  0  0
 16 19  1  1  0  0  0
 17 24  1  1  0  0  0
 17 20  1  0  0  0  0
 18 23  2  0  0  0  0
 19 22  1  0  0  0  0
 20 13  1  0  0  0  0
 21 15  1  6  0  0  0
 21 17  1  0  0  0  0
 22 13  1  0  0  0  0
 23 15  1  0  0  0  0
 25 32  1  0  0  0  0
 26 32  1  0  0  0  0
 27 34  1  6  0  0  0
 27 29  1  0  0  0  0
 27 31  1  0  0  0  0
 28 33  2  0  0  0  0
 29 31  1  0  0  0  0
 29 24  1  1  0  0  0
 31 26  1  6  0  0  0
 32 30  1  6  0  0  0
 33 25  1  0  0  0  0
 33 29  1  0  0  0  0
 35  4  1  0  0  0  0
 36 35  1  0  0  0  0
 37 36  1  0  0  0  0
 38 41  1  6  0  0  0
 38 40  1  0  0  0  0
 39 38  1  0  0  0  0
 39 40  1  0  0  0  0
 40 37  1  1  0  0  0
 41 42  1  1  0  0  0
 41 43  1  0  0  0  0
 43 44  1  6  0  0  0
 45 47  2  0  0  0  0
 46 43  1  0  0  0  0
 46 45  2  0  0  0  0
 47 55  1  0  0  0  0
 48 50  1  0  0  0  0
 48 53  2  0  0  0  0
 49 50  2  0  0  0  0
 50 46  1  0  0  0  0
 51 54  1  0  0  0  0
 54 53  1  0  0  0  0
 54 52  2  0  0  0  0
 55 60  1  0  0  0  0
 56 60  1  0  0  0  0
 56 59  1  0  0  0  0
 57 58  1  0  0  0  0
 57 64  1  1  0  0  0
 59 62  1  6  0  0  0
 59 58  1  0  0  0  0
 60 61  1  1  0  0  0
 60 57  1  0  0  0  0
 64 63  1  0  0  0  0
M  END
>  <MODEL>
4

>  <REMARK>
 VINA RESULT:       2.3      3.867      8.536
  Name = 
  15 active torsions:
  status: ('A' for Active; 'I' for Inactive)
    1  A    between atoms: N_1  and  N_48
    2  A    between atoms: C_4  and  O_33
    3  A    between atoms: C_4  and  C_44
    4  A    between atoms: O_7  and  C_30
    5  A    between atoms: O_7  and  C_43
    6  A    between atoms: C_11  and  C_20
    7  A    between atoms: C_11  and  C_35
    8  A    between atoms: C_14  and  C_37
    9  A    between atoms: C_16  and  C_18
   10  A    between atoms: C_16  and  O_33
   11  A    between atoms: C_20  and  C_21
   12  A    between atoms: C_25  and  C_56
   13  A    between atoms: C_35  and  C_36
   14  A    between atoms: C_38  and  C_50
   15  A    between atoms: C_40  and  C_50
                            x       y       z     vdW  Elec       q    Type
                         _______ _______ _______ _____ _____    ______ ____

>  <TORSDO>
F 15

$$$$
