=
 OpenBabel11072415203D

 63 71  0  0  1  0  0  0  0  0999 V2000
  160.9750  209.8840  153.1460 C   0  0  1  0  0  0  0  0  0  0  0  0
  160.9500  210.7910  155.4790 C   0  0  0  0  0  2  0  0  0  0  0  0
  161.7120  210.5960  154.1970 C   0  0  2  0  0  3  0  0  0  0  0  0
  160.5280  213.1620  155.9470 C   0  0  0  0  0  1  0  0  0  0  0  0
  161.0550  211.3650  153.1090 N   0  0  2  0  0  0  0  0  0  0  0  0
  159.9620  211.9170  155.2570 C   0  0  1  0  0  0  0  0  0  0  0  0
  159.9170  212.0750  153.7150 C   0  0  1  0  0  3  0  0  0  0  0  0
  158.3710  210.2740  156.3830 O   0  0  0  0  0  1  0  0  0  0  0  0
  157.8140  212.5190  156.5010 C   0  0  0  0  0  0  0  0  0  0  0  0
  156.0570  213.9660  156.5420 C   0  0  0  0  0  3  0  0  0  0  0  0
  155.6290  213.5110  155.2160 C   0  0  0  0  0  0  0  0  0  0  0  0
  157.1920  213.4660  157.2540 C   0  0  0  0  0  3  0  0  0  0  0  0
  158.5570  211.5520  155.8550 C   0  0  1  0  0  0  0  0  0  0  0  0
  157.4250  212.0130  155.1670 C   0  0  0  0  0  0  0  0  0  0  0  0
  156.3080  212.4770  154.5030 C   0  0  0  0  0  3  0  0  0  0  0  0
  154.4510  214.1510  154.5900 C   0  0  0  0  0  0  0  0  0  0  0  0
  154.4600  214.4520  153.3690 O   0  0  0  0  0  0  0  0  0  0  0  0
  153.2890  214.4520  155.3680 N   0  0  0  0  0  1  0  0  0  0  0  0
  161.9300  209.5920  150.8690 C   0  0  0  0  0  0  0  0  0  0  0  0
  161.6440  208.7360  149.9850 O   0  0  0  0  0  0  0  0  0  0  0  0
  162.1780  210.9510  150.5090 N   0  0  0  0  0  2  0  0  0  0  0  0
  161.9020  209.2210  152.2430 N   0  0  0  0  0  2  0  0  0  0  0  0
  161.4400  211.5760  149.4180 C   0  0  0  0  0  2  0  0  0  0  0  0
  162.3770  212.4550  148.6120 C   0  0  0  0  0  2  0  0  0  0  0  0
  162.2820  212.1220  147.2570 O   0  0  0  0  0  0  0  0  0  0  0  0
  162.3090  213.3500  146.5900 C   0  0  2  0  0  3  0  0  0  0  0  0
  161.0870  214.0010  146.7630 O   0  0  0  0  0  1  0  0  0  0  0  0
  162.5650  213.1450  145.0990 C   0  0  0  0  0  2  0  0  0  0  0  0
  161.6170  212.5580  142.8550 C   0  0  0  0  0  1  0  0  0  0  0  0
  161.3020  213.0810  144.2460 C   0  0  1  0  0  3  0  0  0  0  0  0
  160.3370  212.2950  144.8610 O   0  0  0  0  0  1  0  0  0  0  0  0
  159.9690  213.4250  153.2940 O   0  0  0  0  0  0  0  0  0  0  0  0
  160.0960  214.1230  150.8300 C   0  0  0  0  0  2  0  0  0  0  0  0
  159.3130  213.5980  152.0570 C   0  0  1  0  0  0  0  0  0  0  0  0
  159.1840  214.4520  149.6430 C   0  0  0  0  0  2  0  0  0  0  0  0
  158.0260  212.8000  151.8550 C   0  0  1  0  0  3  0  0  0  0  0  0
  157.9710  214.2600  152.2810 C   0  0  0  0  0  2  0  0  0  0  0  0
  157.6680  212.6250  150.3930 C   0  0  0  0  0  3  0  0  0  0  0  0
  158.2040  213.3450  149.3910 C   0  0  0  0  0  3  0  0  0  0  0  0
  159.6090  209.1900  153.4180 C   0  0  0  0  0  2  0  0  0  0  0  0
  160.5410  207.2860  154.8110 C   0  0  0  0  0  0  0  0  0  0  0  0
  160.3160  206.9430  152.4760 C   0  0  0  0  0  2  0  0  0  0  0  0
  160.2830  207.5040  156.0200 O   0  0  0  0  0  0  0  0  0  0  0  0
  161.7260  206.6080  154.3490 C   0  0  0  0  0  0  0  0  0  0  0  0
  159.6780  207.6750  153.6610 C   0  0  2  0  0  3  0  0  0  0  0  0
  161.7660  206.6070  152.8690 C   0  0  1  0  0  3  0  0  0  0  0  0
  162.6640  206.2130  155.1000 O   0  0  0  0  0  0  0  0  0  0  0  0
  162.1760  205.3160  152.2480 C   0  0  0  0  0  3  0  0  0  0  0  0
  161.3810  204.8170  151.3010 C   0  0  0  0  0  3  0  0  0  0  0  0
  160.5920  201.9830  148.3590 C   0  0  0  0  0  0  0  0  0  0  0  0
  160.2230  202.7520  150.6280 C   0  0  0  0  0  2  0  0  0  0  0  0
  160.7090  203.5050  145.7020 C   0  0  0  0  0  3  0  0  0  0  0  0
  160.4600  202.2530  145.3180 C   0  0  0  0  0  3  0  0  0  0  0  0
  160.1310  201.7650  149.5540 N   0  0  0  0  0  0  0  0  0  0  0  0
  162.1800  203.7630  149.2510 C   0  0  0  0  0  2  0  0  0  0  0  0
  161.5800  203.4830  150.6490 C   0  0  1  0  0  0  0  0  0  0  0  0
  160.9300  201.0570  146.0830 C   0  0  1  0  0  3  0  0  0  0  0  0
  162.5000  202.7260  151.3700 O   0  0  0  0  0  1  0  0  0  0  0  0
  161.3670  203.2230  148.1140 C   0  0  0  0  0  0  0  0  0  0  0  0
  161.4010  203.8860  146.9500 C   0  0  0  0  0  3  0  0  0  0  0  0
  160.3390  201.0260  147.3710 O   0  0  0  0  0  0  0  0  0  0  0  0
  160.5870  199.7810  145.3190 C   0  0  0  0  0  2  0  0  0  0  0  0
  161.2100  198.6830  145.9020 F   0  0  0  0  0  0  0  0  0  0  0  0
  1 40  1  1  0  0  0
  1  3  1  0  0  0  0
  3  2  1  1  0  0  0
  5  1  1  0  0  0  0
  5  7  1  0  0  0  0
  5  3  1  0  0  0  0
  6  2  1  0  0  0  0
  6 13  1  0  0  0  0
  6  4  1  0  0  0  0
  7  6  1  0  0  0  0
  9 12  1  0  0  0  0
 10 12  2  0  0  0  0
 11 10  1  0  0  0  0
 13  8  1  0  0  0  0
 13  9  1  0  0  0  0
 14 13  1  0  0  0  0
 14  9  2  0  0  0  0
 15 14  1  0  0  0  0
 15 11  2  0  0  0  0
 16 11  1  0  0  0  0
 16 18  1  0  0  0  0
 17 16  2  0  0  0  0
 19 22  1  0  0  0  0
 20 19  2  0  0  0  0
 21 19  1  0  0  0  0
 22  1  1  0  0  0  0
 23 21  1  0  0  0  0
 24 23  1  0  0  0  0
 25 24  1  0  0  0  0
 26 27  1  0  0  0  0
 26 25  1  0  0  0  0
 28 26  1  0  0  0  0
 29 30  1  0  0  0  0
 30 31  1  0  0  0  0
 30 28  1  0  0  0  0
 32  7  1  0  0  0  0
 33 34  1  0  0  0  0
 34 37  1  0  0  0  0
 34 32  1  0  0  0  0
 35 33  1  0  0  0  0
 36 34  1  0  0  0  0
 36 37  1  0  0  0  0
 38 36  1  0  0  0  0
 39 35  1  0  0  0  0
 39 38  2  0  0  0  0
 40 45  1  0  0  0  0
 41 43  2  0  0  0  0
 42 46  1  0  0  0  0
 42 45  1  0  0  0  0
 44 41  1  0  0  0  0
 44 47  2  0  0  0  0
 45 41  1  0  0  0  0
 46 44  1  0  0  0  0
 48 46  1  0  0  0  0
 49 48  2  0  0  0  0
 50 54  2  0  0  0  0
 51 56  1  0  0  0  0
 52 60  1  0  0  0  0
 53 52  2  0  0  0  0
 53 57  1  0  0  0  0
 54 51  1  0  0  0  0
 55 56  1  0  0  0  0
 56 49  1  0  0  0  0
 56 58  1  0  0  0  0
 57 61  1  0  0  0  0
 59 50  1  0  0  0  0
 59 55  1  0  0  0  0
 60 59  2  0  0  0  0
 61 50  1  0  0  0  0
 62 63  1  0  0  0  0
 62 57  1  0  0  0  0
M  END
>  <MODEL>
1

>  <REMARK>
 VINA RESULT:      -1.3      0.000      0.000
  Name = 
  16 active torsions:
  status: ('A' for Active; 'I' for Inactive)
    1  A    between atoms: C_4  and  C_23
    2  A    between atoms: C_4  and  N_53
    3  A    between atoms: C_9  and  C_39
    4  A    between atoms: C_10  and  O_42
    5  A    between atoms: O_12  and  C_22
    6  A    between atoms: O_12  and  C_27
    7  A    between atoms: C_15  and  C_22
    8  A    between atoms: C_15  and  N_40
    9  A    between atoms: C_20  and  C_47
   10  A    between atoms: C_23  and  C_50
   11  A    between atoms: C_25  and  C_52
   12  A    between atoms: C_26  and  C_45
   13  A    between atoms: C_27  and  C_62
   14  A    between atoms: C_38  and  C_62
   15  A    between atoms: O_42  and  C_46
   16  A    between atoms: C_44  and  C_51
                            x       y       z     vdW  Elec       q    Type
                         _______ _______ _______ _____ _____    ______ ____

>  <TORSDO>
F 16

$$$$
=
 OpenBabel11072415203D

 63 71  0  0  1  0  0  0  0  0999 V2000
  161.5390  209.5270  152.7730 C   0  0  1  0  0  0  0  0  0  0  0  0
  162.1890  210.1310  155.1140 C   0  0  0  0  0  2  0  0  0  0  0  0
  162.5110  210.1960  153.6460 C   0  0  2  0  0  3  0  0  0  0  0  0
  161.7370  212.3500  156.0570 C   0  0  0  0  0  1  0  0  0  0  0  0
  161.4740  210.9990  152.9480 N   0  0  2  0  0  0  0  0  0  0  0  0
  161.0890  211.1350  155.3860 C   0  0  1  0  0  0  0  0  0  0  0  0
  160.5360  211.4730  153.9770 C   0  0  1  0  0  3  0  0  0  0  0  0
  160.3730  209.5550  157.2550 O   0  0  0  0  0  1  0  0  0  0  0  0
  158.9340  211.2990  156.7490 C   0  0  0  0  0  0  0  0  0  0  0  0
  156.7370  211.8830  156.6510 C   0  0  0  0  0  3  0  0  0  0  0  0
  156.4880  210.8470  155.6450 C   0  0  0  0  0  0  0  0  0  0  0  0
  158.0030  212.1470  157.2600 C   0  0  0  0  0  3  0  0  0  0  0  0
  159.9890  210.5170  156.3210 C   0  0  1  0  0  0  0  0  0  0  0  0
  158.7430  210.2290  155.7450 C   0  0  0  0  0  0  0  0  0  0  0  0
  157.5090  209.9590  155.1880 C   0  0  0  0  0  3  0  0  0  0  0  0
  155.1270  210.7170  155.0780 C   0  0  0  0  0  0  0  0  0  0  0  0
  154.7290  211.5050  154.1810 O   0  0  0  0  0  0  0  0  0  0  0  0
  154.2370  209.7030  155.5520 N   0  0  0  0  0  1  0  0  0  0  0  0
  161.9960  209.8790  150.3540 C   0  0  0  0  0  0  0  0  0  0  0  0
  161.4340  209.3570  149.3500 O   0  0  0  0  0  0  0  0  0  0  0  0
  162.3510  211.2610  150.3500 N   0  0  0  0  0  2  0  0  0  0  0  0
  162.1800  209.1070  151.5370 N   0  0  0  0  0  2  0  0  0  0  0  0
  161.5100  212.2420  149.6740 C   0  0  0  0  0  2  0  0  0  0  0  0
  161.8630  212.2780  148.2000 C   0  0  0  0  0  2  0  0  0  0  0  0
  160.7070  212.0830  147.4370 O   0  0  0  0  0  0  0  0  0  0  0  0
  160.5910  213.2440  146.6690 C   0  0  2  0  0  3  0  0  0  0  0  0
  161.7090  214.0540  146.8780 O   0  0  0  0  0  1  0  0  0  0  0  0
  159.3300  214.0160  147.0490 C   0  0  0  0  0  2  0  0  0  0  0  0
  156.8500  213.9090  147.3880 C   0  0  0  0  0  1  0  0  0  0  0  0
  158.0290  213.3540  146.6070 C   0  0  1  0  0  3  0  0  0  0  0  0
  157.8370  213.5180  145.2420 O   0  0  0  0  0  1  0  0  0  0  0  0
  160.3320  212.8590  153.7790 O   0  0  0  0  0  0  0  0  0  0  0  0
  157.9930  213.8810  154.0210 C   0  0  0  0  0  2  0  0  0  0  0  0
  159.0650  213.1120  153.2130 C   0  0  1  0  0  0  0  0  0  0  0  0
  156.6210  213.8740  153.3390 C   0  0  0  0  0  2  0  0  0  0  0  0
  158.9840  213.0690  151.6870 C   0  0  1  0  0  3  0  0  0  0  0  0
  158.5600  211.8660  152.5180 C   0  0  0  0  0  2  0  0  0  0  0  0
  157.7910  213.8270  151.1430 C   0  0  0  0  0  3  0  0  0  0  0  0
  156.7380  214.2160  151.8840 C   0  0  0  0  0  3  0  0  0  0  0  0
  160.3990  208.6300  153.3370 C   0  0  0  0  0  2  0  0  0  0  0  0
  161.9110  206.5950  153.2670 C   0  0  0  0  0  0  0  0  0  0  0  0
  160.2690  206.8140  151.5710 C   0  0  0  0  0  2  0  0  0  0  0  0
  162.4690  206.4660  154.3840 O   0  0  0  0  0  0  0  0  0  0  0  0
  162.5220  206.2300  152.0140 C   0  0  0  0  0  0  0  0  0  0  0  0
  160.5380  207.1290  153.0470 C   0  0  2  0  0  3  0  0  0  0  0  0
  161.6330  206.6030  150.8890 C   0  0  1  0  0  3  0  0  0  0  0  0
  163.7040  205.8000  151.8910 O   0  0  0  0  0  0  0  0  0  0  0  0
  161.5120  205.5800  149.8130 C   0  0  0  0  0  3  0  0  0  0  0  0
  161.1990  206.0150  148.5920 C   0  0  0  0  0  3  0  0  0  0  0  0
  161.6500  202.4670  146.4670 C   0  0  0  0  0  0  0  0  0  0  0  0
  162.2780  204.7910  146.7490 C   0  0  0  0  0  2  0  0  0  0  0  0
  161.2210  200.2250  148.5110 C   0  0  0  0  0  3  0  0  0  0  0  0
  161.4280  199.5580  147.3770 C   0  0  0  0  0  3  0  0  0  0  0  0
  162.2480  203.5290  146.0140 N   0  0  0  0  0  0  0  0  0  0  0  0
  160.1710  203.8910  147.9720 C   0  0  0  0  0  2  0  0  0  0  0  0
  160.9300  205.1210  147.4210 C   0  0  1  0  0  0  0  0  0  0  0  0
  161.0540  200.0990  146.0340 C   0  0  1  0  0  3  0  0  0  0  0  0
  160.1040  205.7630  146.5030 O   0  0  0  0  0  1  0  0  0  0  0  0
  160.8490  202.5800  147.7080 C   0  0  0  0  0  0  0  0  0  0  0  0
  160.6770  201.5960  148.6010 C   0  0  0  0  0  3  0  0  0  0  0  0
  161.7910  201.2750  145.7470 O   0  0  0  0  0  0  0  0  0  0  0  0
  161.3100  199.0470  144.9570 C   0  0  0  0  0  2  0  0  0  0  0  0
  160.6310  197.8700  145.2550 F   0  0  0  0  0  0  0  0  0  0  0  0
  1  5  1  0  0  0  0
  1 40  1  1  0  0  0
  1  3  1  0  0  0  0
  2  6  1  0  0  0  0
  3  2  1  1  0  0  0
  5  3  1  0  0  0  0
  5  7  1  0  0  0  0
  6  4  1  0  0  0  0
  6 13  1  0  0  0  0
  7  6  1  0  0  0  0
  9 12  1  0  0  0  0
 10 12  2  0  0  0  0
 11 10  1  0  0  0  0
 13  9  1  0  0  0  0
 13  8  1  0  0  0  0
 14 13  1  0  0  0  0
 14  9  2  0  0  0  0
 15 11  2  0  0  0  0
 15 14  1  0  0  0  0
 16 18  1  0  0  0  0
 16 11  1  0  0  0  0
 17 16  2  0  0  0  0
 19 22  1  0  0  0  0
 20 19  2  0  0  0  0
 21 19  1  0  0  0  0
 22  1  1  0  0  0  0
 23 21  1  0  0  0  0
 24 23  1  0  0  0  0
 25 24  1  0  0  0  0
 26 27  1  0  0  0  0
 26 28  1  0  0  0  0
 26 25  1  0  0  0  0
 30 28  1  0  0  0  0
 30 29  1  0  0  0  0
 31 30  1  0  0  0  0
 32  7  1  0  0  0  0
 34 32  1  0  0  0  0
 34 33  1  0  0  0  0
 35 33  1  0  0  0  0
 36 37  1  0  0  0  0
 36 34  1  0  0  0  0
 37 34  1  0  0  0  0
 38 36  1  0  0  0  0
 38 39  2  0  0  0  0
 39 35  1  0  0  0  0
 41 43  2  0  0  0  0
 42 45  1  0  0  0  0
 44 41  1  0  0  0  0
 45 41  1  0  0  0  0
 45 40  1  0  0  0  0
 46 42  1  0  0  0  0
 46 44  1  0  0  0  0
 47 44  2  0  0  0  0
 48 46  1  0  0  0  0
 49 48  2  0  0  0  0
 50 59  1  0  0  0  0
 51 56  1  0  0  0  0
 52 60  1  0  0  0  0
 53 52  2  0  0  0  0
 54 50  2  0  0  0  0
 54 51  1  0  0  0  0
 56 55  1  0  0  0  0
 56 49  1  0  0  0  0
 57 53  1  0  0  0  0
 58 56  1  0  0  0  0
 59 55  1  0  0  0  0
 59 60  2  0  0  0  0
 61 57  1  0  0  0  0
 61 50  1  0  0  0  0
 62 63  1  0  0  0  0
 62 57  1  0  0  0  0
M  END
>  <MODEL>
2

>  <REMARK>
 VINA RESULT:      -1.3      1.834      2.680
  Name = 
  16 active torsions:
  status: ('A' for Active; 'I' for Inactive)
    1  A    between atoms: C_4  and  C_23
    2  A    between atoms: C_4  and  N_53
    3  A    between atoms: C_9  and  C_39
    4  A    between atoms: C_10  and  O_42
    5  A    between atoms: O_12  and  C_22
    6  A    between atoms: O_12  and  C_27
    7  A    between atoms: C_15  and  C_22
    8  A    between atoms: C_15  and  N_40
    9  A    between atoms: C_20  and  C_47
   10  A    between atoms: C_23  and  C_50
   11  A    between atoms: C_25  and  C_52
   12  A    between atoms: C_26  and  C_45
   13  A    between atoms: C_27  and  C_62
   14  A    between atoms: C_38  and  C_62
   15  A    between atoms: O_42  and  C_46
   16  A    between atoms: C_44  and  C_51
                            x       y       z     vdW  Elec       q    Type
                         _______ _______ _______ _____ _____    ______ ____

>  <TORSDO>
F 16

$$$$
=
 OpenBabel11072415203D

 63 71  0  0  1  0  0  0  0  0999 V2000
  161.0900  210.9550  151.2820 C   0  0  1  0  0  0  0  0  0  0  0  0
  161.0130  213.1340  152.5120 C   0  0  0  0  0  2  0  0  0  0  0  0
  161.1090  212.4200  151.1920 C   0  0  2  0  0  3  0  0  0  0  0  0
  158.9500  214.4480  152.7010 C   0  0  0  0  0  1  0  0  0  0  0  0
  159.8450  211.6840  150.9350 N   0  0  2  0  0  0  0  0  0  0  0  0
  159.5680  213.0720  152.9620 C   0  0  1  0  0  0  0  0  0  0  0  0
  158.9450  211.9720  152.0630 C   0  0  1  0  0  3  0  0  0  0  0  0
  160.6090  212.2070  155.1230 O   0  0  0  0  0  1  0  0  0  0  0  0
  158.6740  213.4650  155.3230 C   0  0  0  0  0  0  0  0  0  0  0  0
  156.7750  213.7110  156.5520 C   0  0  0  0  0  3  0  0  0  0  0  0
  156.3430  212.3580  156.1890 C   0  0  0  0  0  0  0  0  0  0  0  0
  157.9930  214.3250  156.1250 C   0  0  0  0  0  3  0  0  0  0  0  0
  159.4740  212.7110  154.4870 C   0  0  1  0  0  0  0  0  0  0  0  0
  158.2980  212.0890  154.9300 C   0  0  0  0  0  0  0  0  0  0  0  0
  157.1360  211.4910  155.3750 C   0  0  0  0  0  3  0  0  0  0  0  0
  155.0350  211.8720  156.6790 C   0  0  0  0  0  0  0  0  0  0  0  0
  154.2330  212.6550  157.2500 O   0  0  0  0  0  0  0  0  0  0  0  0
  154.6670  210.4970  156.5260 N   0  0  0  0  0  1  0  0  0  0  0  0
  161.8600  211.1120  148.9230 C   0  0  0  0  0  0  0  0  0  0  0  0
  161.3230  210.6560  147.8740 O   0  0  0  0  0  0  0  0  0  0  0  0
  162.4620  212.4060  148.9260 N   0  0  0  0  0  2  0  0  0  0  0  0
  161.7710  210.3730  150.1370 N   0  0  0  0  0  2  0  0  0  0  0  0
  161.8930  213.4910  148.1350 C   0  0  0  0  0  2  0  0  0  0  0  0
  162.5000  213.4750  146.7460 C   0  0  0  0  0  2  0  0  0  0  0  0
  161.5840  212.9300  145.8410 O   0  0  0  0  0  0  0  0  0  0  0  0
  162.2020  213.0560  144.5940 C   0  0  2  0  0  3  0  0  0  0  0  0
  163.3780  213.7950  144.7300 O   0  0  0  0  0  1  0  0  0  0  0  0
  161.2760  213.7590  143.6040 C   0  0  0  0  0  2  0  0  0  0  0  0
  162.4100  212.6510  141.6640 C   0  0  0  0  0  1  0  0  0  0  0  0
  161.0730  213.0100  142.2910 C   0  0  1  0  0  3  0  0  0  0  0  0
  160.3010  211.8740  142.4910 O   0  0  0  0  0  1  0  0  0  0  0  0
  157.6840  212.3360  151.5350 O   0  0  0  0  0  0  0  0  0  0  0  0
  159.1340  213.6640  149.8900 C   0  0  0  0  0  2  0  0  0  0  0  0
  157.8170  212.9450  150.2700 C   0  0  1  0  0  0  0  0  0  0  0  0
  159.0230  214.4460  148.5760 C   0  0  0  0  0  2  0  0  0  0  0  0
  156.8800  212.4430  149.1730 C   0  0  1  0  0  3  0  0  0  0  0  0
  156.5590  213.7170  149.9410 C   0  0  0  0  0  2  0  0  0  0  0  0
  157.3960  212.7380  147.7800 C   0  0  0  0  0  3  0  0  0  0  0  0
  158.3770  213.6170  147.5060 C   0  0  0  0  0  3  0  0  0  0  0  0
  161.1940  210.2080  152.6430 C   0  0  0  0  0  2  0  0  0  0  0  0
  160.1690  208.4830  154.1950 C   0  0  0  0  0  0  0  0  0  0  0  0
  160.7850  207.7840  152.0150 C   0  0  0  0  0  2  0  0  0  0  0  0
  159.6100  209.0780  155.1480 O   0  0  0  0  0  0  0  0  0  0  0  0
  160.8020  207.1930  154.3080 C   0  0  0  0  0  0  0  0  0  0  0  0
  160.2670  208.9940  152.7990 C   0  0  2  0  0  3  0  0  0  0  0  0
  161.4460  206.8290  153.0250 C   0  0  1  0  0  3  0  0  0  0  0  0
  160.9190  206.5450  155.3880 O   0  0  0  0  0  0  0  0  0  0  0  0
  161.2470  205.4160  152.5960 C   0  0  0  0  0  3  0  0  0  0  0  0
  161.9090  205.0110  151.5120 C   0  0  0  0  0  3  0  0  0  0  0  0
  160.5920  202.4850  148.4780 C   0  0  0  0  0  0  0  0  0  0  0  0
  160.2360  203.3990  150.6960 C   0  0  0  0  0  2  0  0  0  0  0  0
  161.4810  203.8120  145.8630 C   0  0  0  0  0  3  0  0  0  0  0  0
  160.8920  202.6930  145.4450 C   0  0  0  0  0  3  0  0  0  0  0  0
  159.9560  202.4600  149.6120 N   0  0  0  0  0  0  0  0  0  0  0  0
  162.5540  203.6970  149.5610 C   0  0  0  0  0  2  0  0  0  0  0  0
  161.7440  203.6630  150.8780 C   0  0  1  0  0  0  0  0  0  0  0  0
  160.8690  201.4330  146.2500 C   0  0  1  0  0  3  0  0  0  0  0  0
  162.2890  202.6760  151.6940 O   0  0  0  0  0  1  0  0  0  0  0  0
  161.7430  203.4090  148.3330 C   0  0  0  0  0  0  0  0  0  0  0  0
  162.1150  203.9920  147.1850 C   0  0  0  0  0  3  0  0  0  0  0  0
  160.1590  201.6290  147.4610 O   0  0  0  0  0  0  0  0  0  0  0  0
  160.2260  200.3080  145.4430 C   0  0  0  0  0  2  0  0  0  0  0  0
  160.6090  199.0690  145.9440 F   0  0  0  0  0  0  0  0  0  0  0  0
  1 40  1  1  0  0  0
  2  6  1  0  0  0  0
  3  1  1  0  0  0  0
  3  2  1  1  0  0  0
  4  6  1  0  0  0  0
  5  3  1  0  0  0  0
  5  1  1  0  0  0  0
  5  7  1  0  0  0  0
  6 13  1  0  0  0  0
  7  6  1  0  0  0  0
  9 12  1  0  0  0  0
 11 10  1  0  0  0  0
 11 16  1  0  0  0  0
 12 10  2  0  0  0  0
 13 14  1  0  0  0  0
 13  8  1  0  0  0  0
 13  9  1  0  0  0  0
 14  9  2  0  0  0  0
 14 15  1  0  0  0  0
 15 11  2  0  0  0  0
 16 17  2  0  0  0  0
 18 16  1  0  0  0  0
 19 21  1  0  0  0  0
 19 22  1  0  0  0  0
 20 19  2  0  0  0  0
 22  1  1  0  0  0  0
 23 21  1  0  0  0  0
 24 23  1  0  0  0  0
 25 24  1  0  0  0  0
 26 27  1  0  0  0  0
 26 25  1  0  0  0  0
 28 26  1  0  0  0  0
 29 30  1  0  0  0  0
 30 31  1  0  0  0  0
 30 28  1  0  0  0  0
 32  7  1  0  0  0  0
 33 34  1  0  0  0  0
 34 32  1  0  0  0  0
 35 33  1  0  0  0  0
 36 37  1  0  0  0  0
 36 34  1  0  0  0  0
 37 34  1  0  0  0  0
 38 36  1  0  0  0  0
 39 38  2  0  0  0  0
 39 35  1  0  0  0  0
 40 45  1  0  0  0  0
 41 44  1  0  0  0  0
 41 43  2  0  0  0  0
 42 45  1  0  0  0  0
 42 46  1  0  0  0  0
 44 47  2  0  0  0  0
 45 41  1  0  0  0  0
 46 44  1  0  0  0  0
 48 46  1  0  0  0  0
 49 48  2  0  0  0  0
 50 54  2  0  0  0  0
 51 56  1  0  0  0  0
 52 60  1  0  0  0  0
 53 52  2  0  0  0  0
 53 57  1  0  0  0  0
 54 51  1  0  0  0  0
 55 56  1  0  0  0  0
 56 49  1  0  0  0  0
 56 58  1  0  0  0  0
 57 61  1  0  0  0  0
 59 50  1  0  0  0  0
 59 55  1  0  0  0  0
 60 59  2  0  0  0  0
 61 50  1  0  0  0  0
 62 63  1  0  0  0  0
 62 57  1  0  0  0  0
M  END
>  <MODEL>
3

>  <REMARK>
 VINA RESULT:      -0.2      1.547      2.089
  Name = 
  16 active torsions:
  status: ('A' for Active; 'I' for Inactive)
    1  A    between atoms: C_4  and  C_23
    2  A    between atoms: C_4  and  N_53
    3  A    between atoms: C_9  and  C_39
    4  A    between atoms: C_10  and  O_42
    5  A    between atoms: O_12  and  C_22
    6  A    between atoms: O_12  and  C_27
    7  A    between atoms: C_15  and  C_22
    8  A    between atoms: C_15  and  N_40
    9  A    between atoms: C_20  and  C_47
   10  A    between atoms: C_23  and  C_50
   11  A    between atoms: C_25  and  C_52
   12  A    between atoms: C_26  and  C_45
   13  A    between atoms: C_27  and  C_62
   14  A    between atoms: C_38  and  C_62
   15  A    between atoms: O_42  and  C_46
   16  A    between atoms: C_44  and  C_51
                            x       y       z     vdW  Elec       q    Type
                         _______ _______ _______ _____ _____    ______ ____

>  <TORSDO>
F 16

$$$$
