=
 OpenBabel11072412163D

 38 42  0  0  1  0  0  0  0  0999 V2000
  159.8610  210.8970  151.3060 C   0  0  0  0  0  2  0  0  0  0  0  0
  156.3990  213.4490  152.9980 C   0  0  0  0  0  2  0  0  0  0  0  0
  161.3730  207.7880  152.9590 C   0  0  2  0  0  3  0  0  0  0  0  0
  158.3530  213.0160  156.7550 C   0  0  2  0  0  3  0  0  0  0  0  0
  161.4820  207.7060  156.4080 O   0  0  0  0  0  1  0  0  0  0  0  0
  161.5210  209.7580  155.1820 C   0  0  0  0  0  2  0  0  0  0  0  0
  157.0580  213.8290  156.5430 C   0  0  0  0  0  2  0  0  0  0  0  0
  159.6120  210.4320  153.6240 C   0  0  1  0  0  3  0  0  0  0  0  0
  159.4460  213.8690  156.6000 O   0  0  0  0  0  1  0  0  0  0  0  0
  155.2640  214.3540  153.4380 C   0  0  1  0  0  3  0  0  0  0  0  0
  161.6900  208.2360  155.1360 C   0  0  2  0  0  3  0  0  0  0  0  0
  154.0470  213.7630  153.1020 O   0  0  0  0  0  1  0  0  0  0  0  0
  159.0280  212.0160  151.9370 C   0  0  1  0  0  3  0  0  0  0  0  0
  158.5030  211.7760  155.8310 C   0  0  2  0  0  3  0  0  0  0  0  0
  159.2250  211.8670  153.4340 C   0  0  1  0  0  3  0  0  0  0  0  0
  155.3890  214.4460  154.9520 C   0  0  0  0  0  2  0  0  0  0  0  0
  159.8510  211.3160  155.9090 O   0  0  0  0  0  0  0  0  0  0  0  0
  158.0260  212.0350  154.3560 C   0  0  2  0  0  3  0  0  0  0  0  0
  160.4950  210.0990  152.4390 C   0  0  1  0  0  3  0  0  0  0  0  0
  157.2560  213.3430  154.2370 C   0  0  2  0  0  3  0  0  0  0  0  0
  160.8030  207.6340  154.2310 O   0  0  0  0  0  0  0  0  0  0  0  0
  160.0590  210.1790  155.0870 C   0  0  2  0  0  3  0  0  0  0  0  0
  156.3290  213.4120  155.3500 N   0  0  1  0  0  0  0  0  0  0  0  0
  160.4310  208.6190  152.0870 C   0  0  0  0  0  2  0  0  0  0  0  0
  160.1280  214.4530  152.5660 O   0  0  0  0  0  1  0  0  0  0  0  0
  159.7040  213.6140  151.3820 P   0  0  1  0  0  0  0  0  0  0  0  0
  161.0520  213.3370  150.3980 O   0  0  0  0  0  0  0  0  0  0  0  0
  158.8030  214.1720  149.2300 O   0  0  0  0  0  1  0  0  0  0  0  0
  158.5330  214.4510  150.4880 O   0  0  0  0  0  0  0  0  0  0  0  0
  161.7060  206.4130  152.3460 C   0  0  2  0  0  0  0  0  0  0  0  0
  161.1830  205.2750  153.2170 C   0  0  0  0  0  1  0  0  0  0  0  0
  163.0920  206.2880  152.2580 O   0  0  0  0  0  1  0  0  0  0  0  0
  161.1440  206.2940  150.9290 C   0  0  0  0  0  2  0  0  0  0  0  0
  160.8710  204.9420  150.5800 O   0  0  0  0  0  0  0  0  0  0  0  0
  160.8790  204.4290  149.2740 C   0  0  0  0  0  0  0  0  0  0  0  0
  160.9120  205.2480  148.3180 O   0  0  0  0  0  0  0  0  0  0  0  0
  160.6270  202.0810  149.8160 C   0  0  0  0  0  2  0  0  0  0  0  0
  160.8550  203.0260  148.9650 N   0  0  0  0  0  0  0  0  0  0  0  0
  1 13  1  0  0  0  0
  1 19  1  0  0  0  0
  2 10  1  0  0  0  0
  2 20  1  0  0  0  0
  3 30  1  6  0  0  0
  3 21  1  0  0  0  0
  4  9  1  6  0  0  0
  7  4  1  0  0  0  0
  8 22  1  0  0  0  0
 10 16  1  0  0  0  0
 11  6  1  0  0  0  0
 11  5  1  0  0  0  0
 12 10  1  0  0  0  0
 13 15  1  0  0  0  0
 14 17  1  0  0  0  0
 14  4  1  0  0  0  0
 15  8  1  0  0  0  0
 15 18  1  0  0  0  0
 16 23  1  0  0  0  0
 18 14  1  0  0  0  0
 19  8  1  0  0  0  0
 20 18  1  0  0  0  0
 20 23  1  0  0  0  0
 21 11  1  0  0  0  0
 22  6  1  0  0  0  0
 22 17  1  0  0  0  0
 23  7  1  0  0  0  0
 24 19  1  0  0  0  0
 24  3  1  0  0  0  0
 26 13  1  0  0  0  0
 26 25  1  0  0  0  0
 27 26  2  0  0  0  0
 28 29  1  0  0  0  0
 29 26  1  0  0  0  0
 30 31  1  0  0  0  0
 32 30  1  0  0  0  0
 33 30  1  0  0  0  0
 34 33  1  0  0  0  0
 35 34  1  0  0  0  0
 36 35  2  0  0  0  0
 38 35  1  0  0  0  0
 38 37  2  0  0  0  0
M  END
>  <MODEL>
1

>  <REMARK>
 VINA RESULT:      -3.9      0.000      0.000
  Name = 
  7 active torsions:
  status: ('A' for Active; 'I' for Inactive)
    1  A    between atoms: C_3  and  O_34
    2  A    between atoms: C_3  and  N_38
    3  A    between atoms: C_5  and  C_15
    4  A    between atoms: C_15  and  C_22
    5  A    between atoms: C_17  and  P_20
    6  A    between atoms: P_20  and  O_30
    7  A    between atoms: C_22  and  O_34
                            x       y       z     vdW  Elec       q    Type
                         _______ _______ _______ _____ _____    ______ ____

>  <TORSDO>
F 7

$$$$
=
 OpenBabel11072412163D

 38 42  0  0  1  0  0  0  0  0999 V2000
  161.0930  208.4290  150.0600 C   0  0  0  0  0  2  0  0  0  0  0  0
  159.0390  210.6240  153.5710 C   0  0  0  0  0  2  0  0  0  0  0  0
  161.3810  204.6300  149.6500 C   0  0  2  0  0  3  0  0  0  0  0  0
  160.9330  207.7340  156.0560 C   0  0  2  0  0  3  0  0  0  0  0  0
  161.6990  202.7340  152.5170 O   0  0  0  0  0  1  0  0  0  0  0  0
  162.4500  205.0010  152.4000 C   0  0  0  0  0  2  0  0  0  0  0  0
  160.0480  208.8820  156.5860 C   0  0  0  0  0  2  0  0  0  0  0  0
  160.8500  206.9240  151.8840 C   0  0  1  0  0  3  0  0  0  0  0  0
  162.2590  208.1680  156.0270 O   0  0  0  0  0  1  0  0  0  0  0  0
  158.3840  211.4580  154.6550 C   0  0  1  0  0  3  0  0  0  0  0  0
  162.0060  203.7580  151.6230 C   0  0  2  0  0  3  0  0  0  0  0  0
  157.0120  211.5270  154.4180 O   0  0  0  0  0  1  0  0  0  0  0  0
  160.8120  209.2440  151.3260 C   0  0  1  0  0  3  0  0  0  0  0  0
  160.5190  207.1800  154.6650 C   0  0  2  0  0  3  0  0  0  0  0  0
  161.0430  208.2860  152.4790 C   0  0  1  0  0  3  0  0  0  0  0  0
  158.6440  210.7050  155.9520 C   0  0  0  0  0  2  0  0  0  0  0  0
  161.5800  206.3670  154.1680 O   0  0  0  0  0  0  0  0  0  0  0  0
  160.0750  208.2990  153.6540 C   0  0  2  0  0  3  0  0  0  0  0  0
  161.4440  207.0110  150.4930 C   0  0  1  0  0  3  0  0  0  0  0  0
  159.8730  209.6370  154.3510 C   0  0  2  0  0  3  0  0  0  0  0  0
  160.8910  204.0150  150.8110 O   0  0  0  0  0  0  0  0  0  0  0  0
  161.2670  205.8250  152.8950 C   0  0  2  0  0  3  0  0  0  0  0  0
  159.1300  209.3900  155.5720 N   0  0  1  0  0  0  0  0  0  0  0  0
  160.7800  206.0320  149.5350 C   0  0  0  0  0  2  0  0  0  0  0  0
  161.3290  211.9080  151.7530 O   0  0  0  0  0  0  0  0  0  0  0  0
  162.0180  210.6080  151.4060 P   0  0  1  0  0  0  0  0  0  0  0  0
  163.1690  210.2640  152.5970 O   0  0  0  0  0  1  0  0  0  0  0  0
  162.0650  211.6190  149.2310 O   0  0  0  0  0  1  0  0  0  0  0  0
  162.8020  210.7660  149.9120 O   0  0  0  0  0  0  0  0  0  0  0  0
  161.1040  203.7510  148.4150 C   0  0  2  0  0  0  0  0  0  0  0  0
  160.2220  202.5590  148.7670 C   0  0  0  0  0  1  0  0  0  0  0  0
  162.3190  203.2630  147.9330 O   0  0  0  0  0  1  0  0  0  0  0  0
  160.4630  204.5700  147.2930 C   0  0  0  0  0  2  0  0  0  0  0  0
  161.2770  204.5970  146.1260 O   0  0  0  0  0  0  0  0  0  0  0  0
  160.8530  204.2350  144.8390 C   0  0  0  0  0  0  0  0  0  0  0  0
  161.2340  204.9430  143.8700 O   0  0  0  0  0  0  0  0  0  0  0  0
  160.1880  201.9120  145.0310 C   0  0  0  0  0  2  0  0  0  0  0  0
  160.0120  203.1030  144.5620 N   0  0  0  0  0  0  0  0  0  0  0  0
  1 19  1  0  0  0  0
  1 13  1  0  0  0  0
  2 20  1  0  0  0  0
  2 10  1  0  0  0  0
  3 30  1  6  0  0  0
  3 21  1  0  0  0  0
  4  9  1  6  0  0  0
  4  7  1  0  0  0  0
  6 22  1  0  0  0  0
  8 15  1  0  0  0  0
  8 22  1  0  0  0  0
 10 16  1  0  0  0  0
 11  6  1  0  0  0  0
 11  5  1  0  0  0  0
 12 10  1  0  0  0  0
 13 26  1  0  0  0  0
 13 15  1  0  0  0  0
 14  4  1  0  0  0  0
 15 18  1  0  0  0  0
 17 14  1  0  0  0  0
 18 20  1  0  0  0  0
 18 14  1  0  0  0  0
 19  8  1  0  0  0  0
 20 23  1  0  0  0  0
 21 11  1  0  0  0  0
 22 17  1  0  0  0  0
 23 16  1  0  0  0  0
 23  7  1  0  0  0  0
 24  3  1  0  0  0  0
 24 19  1  0  0  0  0
 26 25  2  0  0  0  0
 26 27  1  0  0  0  0
 28 29  1  0  0  0  0
 29 26  1  0  0  0  0
 30 31  1  0  0  0  0
 32 30  1  0  0  0  0
 33 30  1  0  0  0  0
 34 33  1  0  0  0  0
 35 34  1  0  0  0  0
 36 35  2  0  0  0  0
 38 35  1  0  0  0  0
 38 37  2  0  0  0  0
M  END
>  <MODEL>
2

>  <REMARK>
 VINA RESULT:      -3.7      2.600      4.736
  Name = 
  7 active torsions:
  status: ('A' for Active; 'I' for Inactive)
    1  A    between atoms: C_3  and  O_34
    2  A    between atoms: C_3  and  N_38
    3  A    between atoms: C_5  and  C_15
    4  A    between atoms: C_15  and  C_22
    5  A    between atoms: C_17  and  P_20
    6  A    between atoms: P_20  and  O_30
    7  A    between atoms: C_22  and  O_34
                            x       y       z     vdW  Elec       q    Type
                         _______ _______ _______ _____ _____    ______ ____

>  <TORSDO>
F 7

$$$$
=
 OpenBabel11072412163D

 38 42  0  0  1  0  0  0  0  0999 V2000
  161.0500  208.0390  149.6970 C   0  0  0  0  0  2  0  0  0  0  0  0
  159.1630  210.6380  153.0210 C   0  0  0  0  0  2  0  0  0  0  0  0
  161.2500  204.2130  149.6830 C   0  0  2  0  0  3  0  0  0  0  0  0
  161.0860  207.9830  155.7350 C   0  0  2  0  0  3  0  0  0  0  0  0
  161.6310  202.6230  152.7230 O   0  0  0  0  0  1  0  0  0  0  0  0
  162.4210  204.8460  152.3420 C   0  0  0  0  0  2  0  0  0  0  0  0
  160.2420  209.2000  156.1690 C   0  0  0  0  0  2  0  0  0  0  0  0
  160.8410  206.7410  151.6780 C   0  0  1  0  0  3  0  0  0  0  0  0
  162.4180  208.3810  155.6180 O   0  0  0  0  0  1  0  0  0  0  0  0
  158.5620  211.5970  154.0310 C   0  0  1  0  0  3  0  0  0  0  0  0
  161.9260  203.5390  151.7160 C   0  0  2  0  0  3  0  0  0  0  0  0
  157.1840  211.6710  153.8340 O   0  0  0  0  0  1  0  0  0  0  0  0
  160.8300  208.9900  150.8780 C   0  0  1  0  0  3  0  0  0  0  0  0
  160.6120  207.2950  154.4250 C   0  0  2  0  0  3  0  0  0  0  0  0
  161.0820  208.1520  152.1180 C   0  0  1  0  0  3  0  0  0  0  0  0
  158.8530  210.9780  155.3910 C   0  0  0  0  0  2  0  0  0  0  0  0
  161.6400  206.4110  153.9830 O   0  0  0  0  0  0  0  0  0  0  0  0
  160.1560  208.3120  153.3160 C   0  0  2  0  0  3  0  0  0  0  0  0
  161.3880  206.6670  150.2670 C   0  0  1  0  0  3  0  0  0  0  0  0
  160.0050  209.7200  153.8740 C   0  0  2  0  0  3  0  0  0  0  0  0
  160.7890  203.7350  150.9180 O   0  0  0  0  0  0  0  0  0  0  0  0
  161.2720  205.7450  152.7860 C   0  0  2  0  0  3  0  0  0  0  0  0
  159.2990  209.6200  155.1380 N   0  0  1  0  0  0  0  0  0  0  0  0
  160.6730  205.6080  149.4390 C   0  0  0  0  0  2  0  0  0  0  0  0
  161.4070  211.6730  150.9700 O   0  0  0  0  0  0  0  0  0  0  0  0
  162.0640  210.3260  150.7740 P   0  0  1  0  0  0  0  0  0  0  0  0
  163.2280  210.1050  151.9810 O   0  0  0  0  0  1  0  0  0  0  0  0
  162.2210  211.2140  148.5510 O   0  0  0  0  0  1  0  0  0  0  0  0
  162.8250  210.2840  149.2610 O   0  0  0  0  0  0  0  0  0  0  0  0
  160.9130  203.2160  148.5570 C   0  0  2  0  0  0  0  0  0  0  0  0
  159.7430  202.3170  148.9420 C   0  0  0  0  0  1  0  0  0  0  0  0
  162.0250  202.4040  148.3320 O   0  0  0  0  0  1  0  0  0  0  0  0
  160.6080  203.9480  147.2500 C   0  0  0  0  0  2  0  0  0  0  0  0
  161.6210  203.7310  146.2740 O   0  0  0  0  0  0  0  0  0  0  0  0
  162.4890  204.7160  145.7790 C   0  0  0  0  0  0  0  0  0  0  0  0
  163.6860  204.6970  146.1670 O   0  0  0  0  0  0  0  0  0  0  0  0
  161.2590  205.5850  143.8800 C   0  0  0  0  0  2  0  0  0  0  0  0
  162.0910  205.7430  144.8560 N   0  0  0  0  0  0  0  0  0  0  0  0
  1 19  1  0  0  0  0
  1 13  1  0  0  0  0
  2 20  1  0  0  0  0
  2 10  1  0  0  0  0
  3 30  1  6  0  0  0
  3 21  1  0  0  0  0
  4  9  1  6  0  0  0
  4  7  1  0  0  0  0
  6 22  1  0  0  0  0
  8 15  1  0  0  0  0
  8 22  1  0  0  0  0
 10 16  1  0  0  0  0
 11  6  1  0  0  0  0
 11  5  1  0  0  0  0
 12 10  1  0  0  0  0
 13 15  1  0  0  0  0
 14  4  1  0  0  0  0
 15 18  1  0  0  0  0
 17 14  1  0  0  0  0
 18 20  1  0  0  0  0
 18 14  1  0  0  0  0
 19  8  1  0  0  0  0
 20 23  1  0  0  0  0
 21 11  1  0  0  0  0
 22 17  1  0  0  0  0
 23 16  1  0  0  0  0
 23  7  1  0  0  0  0
 24  3  1  0  0  0  0
 24 19  1  0  0  0  0
 26 13  1  0  0  0  0
 26 25  2  0  0  0  0
 26 27  1  0  0  0  0
 28 29  1  0  0  0  0
 29 26  1  0  0  0  0
 30 31  1  0  0  0  0
 32 30  1  0  0  0  0
 33 30  1  0  0  0  0
 34 33  1  0  0  0  0
 35 36  2  0  0  0  0
 35 34  1  0  0  0  0
 37 38  2  0  0  0  0
 38 35  1  0  0  0  0
M  END
>  <MODEL>
3

>  <REMARK>
 VINA RESULT:      -3.6      2.658      4.896
  Name = 
  7 active torsions:
  status: ('A' for Active; 'I' for Inactive)
    1  A    between atoms: C_3  and  O_34
    2  A    between atoms: C_3  and  N_38
    3  A    between atoms: C_5  and  C_15
    4  A    between atoms: C_15  and  C_22
    5  A    between atoms: C_17  and  P_20
    6  A    between atoms: P_20  and  O_30
    7  A    between atoms: C_22  and  O_34
                            x       y       z     vdW  Elec       q    Type
                         _______ _______ _______ _____ _____    ______ ____

>  <TORSDO>
F 7

$$$$
=
 OpenBabel11072412163D

 38 42  0  0  1  0  0  0  0  0999 V2000
  161.0740  208.5630  150.0300 C   0  0  0  0  0  2  0  0  0  0  0  0
  159.0360  210.6840  153.5940 C   0  0  0  0  0  2  0  0  0  0  0  0
  161.3510  204.7730  149.5350 C   0  0  2  0  0  3  0  0  0  0  0  0
  160.9260  207.7340  156.0090 C   0  0  2  0  0  3  0  0  0  0  0  0
  161.6690  202.8130  152.3580 O   0  0  0  0  0  1  0  0  0  0  0  0
  162.4270  205.0790  152.2900 C   0  0  0  0  0  2  0  0  0  0  0  0
  160.0460  208.8720  156.5670 C   0  0  0  0  0  2  0  0  0  0  0  0
  160.8310  207.0180  151.8210 C   0  0  1  0  0  3  0  0  0  0  0  0
  162.2540  208.1650  155.9870 O   0  0  0  0  0  1  0  0  0  0  0  0
  158.3860  211.4960  154.6980 C   0  0  1  0  0  3  0  0  0  0  0  0
  161.9770  203.8550  151.4860 C   0  0  2  0  0  3  0  0  0  0  0  0
  157.0130  211.5740  154.4670 O   0  0  0  0  0  1  0  0  0  0  0  0
  160.7990  209.3500  151.3150 C   0  0  1  0  0  3  0  0  0  0  0  0
  160.5070  207.2120  154.6070 C   0  0  2  0  0  3  0  0  0  0  0  0
  161.0300  208.3650  152.4460 C   0  0  1  0  0  3  0  0  0  0  0  0
  158.6460  210.7130  155.9770 C   0  0  0  0  0  2  0  0  0  0  0  0
  161.5650  206.4080  154.0900 O   0  0  0  0  0  0  0  0  0  0  0  0
  160.0650  208.3550  153.6230 C   0  0  2  0  0  3  0  0  0  0  0  0
  161.4220  207.1340  150.4310 C   0  0  1  0  0  3  0  0  0  0  0  0
  159.8690  209.6780  154.3510 C   0  0  2  0  0  3  0  0  0  0  0  0
  160.8610  204.1330  150.6830 O   0  0  0  0  0  0  0  0  0  0  0  0
  161.2480  205.8950  152.8060 C   0  0  2  0  0  3  0  0  0  0  0  0
  159.1270  209.4060  155.5670 N   0  0  1  0  0  0  0  0  0  0  0  0
  160.7540  206.1780  149.4520 C   0  0  0  0  0  2  0  0  0  0  0  0
  161.3270  211.9990  151.8120 O   0  0  0  0  0  0  0  0  0  0  0  0
  162.0100  210.7080  151.4220 P   0  0  1  0  0  0  0  0  0  0  0  0
  163.1700  210.3280  152.5930 O   0  0  0  0  0  1  0  0  0  0  0  0
  162.0000  211.7220  149.2490 O   0  0  0  0  0  1  0  0  0  0  0  0
  162.7800  210.9070  149.9270 O   0  0  0  0  0  0  0  0  0  0  0  0
  161.0680  203.9230  148.2810 C   0  0  2  0  0  0  0  0  0  0  0  0
  162.3310  203.7180  147.4510 C   0  0  0  0  0  1  0  0  0  0  0  0
  160.1350  204.5930  147.4890 O   0  0  0  0  0  1  0  0  0  0  0  0
  160.4610  202.5720  148.6600 C   0  0  0  0  0  2  0  0  0  0  0  0
  161.2360  201.4860  148.1650 O   0  0  0  0  0  0  0  0  0  0  0  0
  161.0770  200.8910  146.9040 C   0  0  0  0  0  0  0  0  0  0  0  0
  161.5020  199.7160  146.7480 O   0  0  0  0  0  0  0  0  0  0  0  0
  159.7370  200.9550  144.8860 C   0  0  0  0  0  2  0  0  0  0  0  0
  160.4560  201.5430  145.7840 N   0  0  0  0  0  0  0  0  0  0  0  0
  1 19  1  0  0  0  0
  1 13  1  0  0  0  0
  2 20  1  0  0  0  0
  2 10  1  0  0  0  0
  3 30  1  6  0  0  0
  3 21  1  0  0  0  0
  4  9  1  6  0  0  0
  4  7  1  0  0  0  0
  6 22  1  0  0  0  0
  8 15  1  0  0  0  0
  8 22  1  0  0  0  0
 10 16  1  0  0  0  0
 11  6  1  0  0  0  0
 11  5  1  0  0  0  0
 12 10  1  0  0  0  0
 13 26  1  0  0  0  0
 13 15  1  0  0  0  0
 14  4  1  0  0  0  0
 15 18  1  0  0  0  0
 17 14  1  0  0  0  0
 18 20  1  0  0  0  0
 18 14  1  0  0  0  0
 19  8  1  0  0  0  0
 20 23  1  0  0  0  0
 21 11  1  0  0  0  0
 22 17  1  0  0  0  0
 23 16  1  0  0  0  0
 23  7  1  0  0  0  0
 24  3  1  0  0  0  0
 24 19  1  0  0  0  0
 26 25  2  0  0  0  0
 26 27  1  0  0  0  0
 28 29  1  0  0  0  0
 29 26  1  0  0  0  0
 30 33  1  0  0  0  0
 31 30  1  0  0  0  0
 32 30  1  0  0  0  0
 34 33  1  0  0  0  0
 35 34  1  0  0  0  0
 36 35  2  0  0  0  0
 37 38  2  0  0  0  0
 38 35  1  0  0  0  0
M  END
>  <MODEL>
4

>  <REMARK>
 VINA RESULT:      -3.2      2.516      4.777
  Name = 
  7 active torsions:
  status: ('A' for Active; 'I' for Inactive)
    1  A    between atoms: C_3  and  O_34
    2  A    between atoms: C_3  and  N_38
    3  A    between atoms: C_5  and  C_15
    4  A    between atoms: C_15  and  C_22
    5  A    between atoms: C_17  and  P_20
    6  A    between atoms: P_20  and  O_30
    7  A    between atoms: C_22  and  O_34
                            x       y       z     vdW  Elec       q    Type
                         _______ _______ _______ _____ _____    ______ ____

>  <TORSDO>
F 7

$$$$
=
 OpenBabel11072412163D

 38 42  0  0  1  0  0  0  0  0999 V2000
  162.2110  209.7660  150.6610 C   0  0  0  0  0  2  0  0  0  0  0  0
  162.2040  210.0330  155.2750 C   0  0  0  0  0  2  0  0  0  0  0  0
  160.9830  212.4840  148.2550 C   0  0  2  0  0  3  0  0  0  0  0  0
  158.3440  211.7720  154.8420 C   0  0  2  0  0  3  0  0  0  0  0  0
  158.3290  214.4410  149.2760 O   0  0  0  0  0  1  0  0  0  0  0  0
  158.6370  212.2050  150.0610 C   0  0  0  0  0  2  0  0  0  0  0  0
  159.0220  211.5040  156.2020 C   0  0  0  0  0  2  0  0  0  0  0  0
  160.7350  211.5030  151.3390 C   0  0  1  0  0  3  0  0  0  0  0  0
  157.5730  210.6590  154.5000 O   0  0  0  0  0  1  0  0  0  0  0  0
  162.2690  210.0050  156.7900 C   0  0  1  0  0  3  0  0  0  0  0  0
  159.0170  213.2570  149.0150 C   0  0  2  0  0  3  0  0  0  0  0  0
  163.4070  210.6900  157.2150 O   0  0  0  0  0  1  0  0  0  0  0  0
  161.8920  209.5780  152.1470 C   0  0  1  0  0  3  0  0  0  0  0  0
  159.3180  212.1280  153.6850 C   0  0  2  0  0  3  0  0  0  0  0  0
  160.6860  210.4600  152.4130 C   0  0  1  0  0  3  0  0  0  0  0  0
  161.0220  210.7410  157.2580 C   0  0  0  0  0  2  0  0  0  0  0  0
  158.6060  212.0390  152.4520 O   0  0  0  0  0  0  0  0  0  0  0  0
  160.6380  211.2760  153.6970 C   0  0  2  0  0  3  0  0  0  0  0  0
  161.2150  210.7750  150.1000 C   0  0  1  0  0  3  0  0  0  0  0  0
  160.7960  210.5030  154.9990 C   0  0  2  0  0  3  0  0  0  0  0  0
  160.3960  213.5150  149.0030 O   0  0  0  0  0  0  0  0  0  0  0  0
  159.4390  212.3540  151.3480 C   0  0  2  0  0  3  0  0  0  0  0  0
  160.4740  211.4050  156.0880 N   0  0  1  0  0  0  0  0  0  0  0  0
  161.9510  211.7060  149.1470 C   0  0  0  0  0  2  0  0  0  0  0  0
  162.6950  206.9730  152.4820 O   0  0  0  0  0  0  0  0  0  0  0  0
  161.4520  207.8310  152.4200 P   0  0  1  0  0  0  0  0  0  0  0  0
  160.6170  207.6890  153.8840 O   0  0  0  0  0  1  0  0  0  0  0  0
  160.8950  206.0830  150.8750 O   0  0  0  0  0  1  0  0  0  0  0  0
  160.4550  207.2900  151.1630 O   0  0  0  0  0  0  0  0  0  0  0  0
  161.6540  213.0510  146.9880 C   0  0  2  0  0  0  0  0  0  0  0  0
  163.1360  212.7000  146.9390 C   0  0  0  0  0  1  0  0  0  0  0  0
  161.5390  214.4410  147.0070 O   0  0  0  0  0  1  0  0  0  0  0  0
  160.9510  212.5510  145.7250 C   0  0  0  0  0  2  0  0  0  0  0  0
  161.2730  213.3470  144.5900 O   0  0  0  0  0  0  0  0  0  0  0  0
  161.6070  212.8460  143.3230 C   0  0  0  0  0  0  0  0  0  0  0  0
  162.8280  212.7410  143.0330 O   0  0  0  0  0  0  0  0  0  0  0  0
  160.8830  211.6940  141.3180 C   0  0  0  0  0  2  0  0  0  0  0  0
  160.6390  212.4450  142.3400 N   0  0  0  0  0  0  0  0  0  0  0  0
  1 13  1  0  0  0  0
  2 10  1  0  0  0  0
  3 30  1  6  0  0  0
  3 21  1  0  0  0  0
  3 24  1  0  0  0  0
  4  9  1  6  0  0  0
  4  7  1  0  0  0  0
  6 22  1  0  0  0  0
  8 22  1  0  0  0  0
  8 15  1  0  0  0  0
 10 12  1  0  0  0  0
 10 16  1  0  0  0  0
 11  5  1  0  0  0  0
 11  6  1  0  0  0  0
 13 15  1  0  0  0  0
 13 26  1  0  0  0  0
 14 18  1  0  0  0  0
 14  4  1  0  0  0  0
 15 18  1  0  0  0  0
 17 14  1  0  0  0  0
 18 20  1  0  0  0  0
 19  1  1  0  0  0  0
 19  8  1  0  0  0  0
 20  2  1  0  0  0  0
 20 23  1  0  0  0  0
 21 11  1  0  0  0  0
 22 17  1  0  0  0  0
 23  7  1  0  0  0  0
 23 16  1  0  0  0  0
 24 19  1  0  0  0  0
 26 25  2  0  0  0  0
 26 27  1  0  0  0  0
 28 29  1  0  0  0  0
 29 26  1  0  0  0  0
 30 32  1  0  0  0  0
 31 30  1  0  0  0  0
 33 30  1  0  0  0  0
 34 33  1  0  0  0  0
 35 34  1  0  0  0  0
 36 35  2  0  0  0  0
 37 38  2  0  0  0  0
 38 35  1  0  0  0  0
M  END
>  <MODEL>
5

>  <REMARK>
 VINA RESULT:      -2.8      4.165      7.264
  Name = 
  7 active torsions:
  status: ('A' for Active; 'I' for Inactive)
    1  A    between atoms: C_3  and  O_34
    2  A    between atoms: C_3  and  N_38
    3  A    between atoms: C_5  and  C_15
    4  A    between atoms: C_15  and  C_22
    5  A    between atoms: C_17  and  P_20
    6  A    between atoms: P_20  and  O_30
    7  A    between atoms: C_22  and  O_34
                            x       y       z     vdW  Elec       q    Type
                         _______ _______ _______ _____ _____    ______ ____

>  <TORSDO>
F 7

$$$$
=
 OpenBabel11072412163D

 38 42  0  0  1  0  0  0  0  0999 V2000
  161.3450  208.6320  149.1270 C   0  0  0  0  0  2  0  0  0  0  0  0
  159.4230  212.1590  151.4150 C   0  0  0  0  0  2  0  0  0  0  0  0
  161.2150  204.9470  150.1670 C   0  0  2  0  0  3  0  0  0  0  0  0
  160.8800  210.2470  154.9270 C   0  0  2  0  0  3  0  0  0  0  0  0
  161.2060  204.2390  153.5450 O   0  0  0  0  0  1  0  0  0  0  0  0
  162.2140  206.2190  152.6620 C   0  0  0  0  0  2  0  0  0  0  0  0
  160.1130  211.5860  154.9280 C   0  0  0  0  0  2  0  0  0  0  0  0
  160.8640  207.9480  151.3530 C   0  0  1  0  0  3  0  0  0  0  0  0
  162.2480  210.5160  154.8440 O   0  0  0  0  0  1  0  0  0  0  0  0
  158.8270  213.3940  152.0620 C   0  0  1  0  0  3  0  0  0  0  0  0
  161.6610  204.8220  152.3640 C   0  0  2  0  0  3  0  0  0  0  0  0
  157.4810  213.4940  151.7120 O   0  0  0  0  0  1  0  0  0  0  0  0
  161.1120  209.8840  149.9790 C   0  0  1  0  0  3  0  0  0  0  0  0
  160.4590  209.2540  153.8100 C   0  0  2  0  0  3  0  0  0  0  0  0
  161.1880  209.4090  151.4180 C   0  0  1  0  0  3  0  0  0  0  0  0
  158.9500  213.1590  153.5610 C   0  0  0  0  0  2  0  0  0  0  0  0
  161.4390  208.2210  153.7300 O   0  0  0  0  0  0  0  0  0  0  0  0
  160.1840  209.9490  152.4270 C   0  0  2  0  0  3  0  0  0  0  0  0
  161.5160  207.4530  150.0780 C   0  0  1  0  0  3  0  0  0  0  0  0
  160.1100  211.4630  152.5660 C   0  0  2  0  0  3  0  0  0  0  0  0
  160.6140  204.8570  151.4300 O   0  0  0  0  0  0  0  0  0  0  0  0
  161.1150  207.2730  152.7260 C   0  0  2  0  0  3  0  0  0  0  0  0
  159.2970  211.7590  153.7300 N   0  0  1  0  0  0  0  0  0  0  0  0
  160.7820  206.2520  149.4980 C   0  0  0  0  0  2  0  0  0  0  0  0
  163.4480  211.0780  150.7900 O   0  0  0  0  0  1  0  0  0  0  0  0
  162.4610  211.0620  149.6450 P   0  0  1  0  0  0  0  0  0  0  0  0
  163.2690  210.5980  148.2330 O   0  0  0  0  0  0  0  0  0  0  0  0
  161.1560  212.5550  148.2960 O   0  0  0  0  0  1  0  0  0  0  0  0
  161.8230  212.6160  149.4290 O   0  0  0  0  0  0  0  0  0  0  0  0
  160.8870  203.6990  149.3230 C   0  0  2  0  0  0  0  0  0  0  0  0
  159.7020  202.9330  149.9010 C   0  0  0  0  0  1  0  0  0  0  0  0
  161.9950  202.8510  149.3310 O   0  0  0  0  0  1  0  0  0  0  0  0
  160.6110  204.0790  147.8680 C   0  0  0  0  0  2  0  0  0  0  0  0
  161.4650  203.3830  146.9680 O   0  0  0  0  0  0  0  0  0  0  0  0
  161.3180  203.3570  145.5730 C   0  0  0  0  0  0  0  0  0  0  0  0
  162.0900  204.0750  144.8850 O   0  0  0  0  0  0  0  0  0  0  0  0
  160.0810  201.3190  145.1390 C   0  0  0  0  0  2  0  0  0  0  0  0
  160.3410  202.5590  144.8860 N   0  0  0  0  0  0  0  0  0  0  0  0
  1 13  1  0  0  0  0
  1 19  1  0  0  0  0
  2 10  1  0  0  0  0
  2 20  1  0  0  0  0
  3 30  1  6  0  0  0
  3 21  1  0  0  0  0
  4  9  1  6  0  0  0
  4  7  1  0  0  0  0
  6 22  1  0  0  0  0
  8 15  1  0  0  0  0
  8 22  1  0  0  0  0
 10 16  1  0  0  0  0
 11  6  1  0  0  0  0
 11  5  1  0  0  0  0
 12 10  1  0  0  0  0
 13 15  1  0  0  0  0
 14  4  1  0  0  0  0
 15 18  1  0  0  0  0
 16 23  1  0  0  0  0
 17 14  1  0  0  0  0
 18 20  1  0  0  0  0
 18 14  1  0  0  0  0
 19  8  1  0  0  0  0
 20 23  1  0  0  0  0
 21 11  1  0  0  0  0
 22 17  1  0  0  0  0
 23  7  1  0  0  0  0
 24 19  1  0  0  0  0
 24  3  1  0  0  0  0
 26 13  1  0  0  0  0
 26 25  1  0  0  0  0
 27 26  2  0  0  0  0
 28 29  1  0  0  0  0
 29 26  1  0  0  0  0
 30 32  1  0  0  0  0
 30 31  1  0  0  0  0
 33 30  1  0  0  0  0
 34 33  1  0  0  0  0
 35 34  1  0  0  0  0
 36 35  2  0  0  0  0
 38 37  2  0  0  0  0
 38 35  1  0  0  0  0
M  END
>  <MODEL>
6

>  <REMARK>
 VINA RESULT:      -2.5      2.440      4.015
  Name = 
  7 active torsions:
  status: ('A' for Active; 'I' for Inactive)
    1  A    between atoms: C_3  and  O_34
    2  A    between atoms: C_3  and  N_38
    3  A    between atoms: C_5  and  C_15
    4  A    between atoms: C_15  and  C_22
    5  A    between atoms: C_17  and  P_20
    6  A    between atoms: P_20  and  O_30
    7  A    between atoms: C_22  and  O_34
                            x       y       z     vdW  Elec       q    Type
                         _______ _______ _______ _____ _____    ______ ____

>  <TORSDO>
F 7

$$$$
=
 OpenBabel11072412163D

 38 42  0  0  1  0  0  0  0  0999 V2000
  161.6000  209.7030  148.1050 C   0  0  0  0  0  2  0  0  0  0  0  0
  159.5700  212.6760  151.0040 C   0  0  0  0  0  2  0  0  0  0  0  0
  161.7470  205.8980  148.5340 C   0  0  2  0  0  3  0  0  0  0  0  0
  161.3040  210.3310  154.1030 C   0  0  2  0  0  3  0  0  0  0  0  0
  161.9390  204.6600  151.7500 O   0  0  0  0  0  1  0  0  0  0  0  0
  162.7790  206.8190  151.1660 C   0  0  0  0  0  2  0  0  0  0  0  0
  160.4550  211.5960  154.3500 C   0  0  0  0  0  2  0  0  0  0  0  0
  161.2650  208.6390  150.2050 C   0  0  1  0  0  3  0  0  0  0  0  0
  162.6470  210.7030  154.0170 O   0  0  0  0  0  1  0  0  0  0  0  0
  158.9290  213.7480  151.8650 C   0  0  1  0  0  3  0  0  0  0  0  0
  162.3010  205.4540  150.6640 C   0  0  2  0  0  3  0  0  0  0  0  0
  157.5650  213.8100  151.5830 O   0  0  0  0  0  1  0  0  0  0  0  0
  161.3280  210.7830  149.1580 C   0  0  1  0  0  3  0  0  0  0  0  0
  160.8940  209.5030  152.8550 C   0  0  2  0  0  3  0  0  0  0  0  0
  161.5000  210.0890  150.4960 C   0  0  1  0  0  3  0  0  0  0  0  0
  159.1350  213.2850  153.3000 C   0  0  0  0  0  2  0  0  0  0  0  0
  161.9320  208.5660  152.5730 O   0  0  0  0  0  0  0  0  0  0  0  0
  160.5130  210.3900  151.6150 C   0  0  2  0  0  3  0  0  0  0  0  0
  161.8870  208.4010  148.8440 C   0  0  1  0  0  3  0  0  0  0  0  0
  160.3510  211.8540  152.0010 C   0  0  2  0  0  3  0  0  0  0  0  0
  161.2120  205.5660  149.7870 O   0  0  0  0  0  0  0  0  0  0  0  0
  161.6210  207.7720  151.4400 C   0  0  2  0  0  3  0  0  0  0  0  0
  159.5760  211.9030  153.2260 N   0  0  1  0  0  0  0  0  0  0  0  0
  161.2040  207.2610  148.1030 C   0  0  0  0  0  2  0  0  0  0  0  0
  163.6160  211.9950  150.0740 O   0  0  0  0  0  1  0  0  0  0  0  0
  162.5850  212.0890  148.9730 P   0  0  1  0  0  0  0  0  0  0  0  0
  163.3610  211.9080  147.4810 O   0  0  0  0  0  0  0  0  0  0  0  0
  162.5870  214.3800  148.2610 O   0  0  0  0  0  1  0  0  0  0  0  0
  161.8410  213.6100  149.0250 O   0  0  0  0  0  0  0  0  0  0  0  0
  161.4580  204.7820  147.5110 C   0  0  2  0  0  0  0  0  0  0  0  0
  162.7290  204.3470  146.7890 C   0  0  0  0  0  1  0  0  0  0  0  0
  160.5660  205.2720  146.5570 O   0  0  0  0  0  1  0  0  0  0  0  0
  160.7950  203.5800  148.1840 C   0  0  0  0  0  2  0  0  0  0  0  0
  161.2500  202.3490  147.6340 O   0  0  0  0  0  0  0  0  0  0  0  0
  161.1760  201.1030  148.2760 C   0  0  0  0  0  0  0  0  0  0  0  0
  161.5810  200.0900  147.6480 O   0  0  0  0  0  0  0  0  0  0  0  0
  161.2050  201.3930  150.6820 C   0  0  0  0  0  2  0  0  0  0  0  0
  160.6670  200.9180  149.6070 N   0  0  0  0  0  0  0  0  0  0  0  0
  1 19  1  0  0  0  0
  1 13  1  0  0  0  0
  2 10  1  0  0  0  0
  2 20  1  0  0  0  0
  3 30  1  6  0  0  0
  3 21  1  0  0  0  0
  4  9  1  6  0  0  0
  4  7  1  0  0  0  0
  6 22  1  0  0  0  0
  8 15  1  0  0  0  0
  8 22  1  0  0  0  0
 10 16  1  0  0  0  0
 11  6  1  0  0  0  0
 11  5  1  0  0  0  0
 12 10  1  0  0  0  0
 13 15  1  0  0  0  0
 14  4  1  0  0  0  0
 15 18  1  0  0  0  0
 17 14  1  0  0  0  0
 18 20  1  0  0  0  0
 18 14  1  0  0  0  0
 19  8  1  0  0  0  0
 20 23  1  0  0  0  0
 21 11  1  0  0  0  0
 22 17  1  0  0  0  0
 23 16  1  0  0  0  0
 23  7  1  0  0  0  0
 24  3  1  0  0  0  0
 24 19  1  0  0  0  0
 26 29  1  0  0  0  0
 26 13  1  0  0  0  0
 26 25  1  0  0  0  0
 27 26  2  0  0  0  0
 28 29  1  0  0  0  0
 30 33  1  0  0  0  0
 31 30  1  0  0  0  0
 32 30  1  0  0  0  0
 34 33  1  0  0  0  0
 34 35  1  0  0  0  0
 35 38  1  0  0  0  0
 36 35  2  0  0  0  0
 38 37  2  0  0  0  0
M  END
>  <MODEL>
7

>  <REMARK>
 VINA RESULT:      -2.1      2.624      4.460
  Name = 
  7 active torsions:
  status: ('A' for Active; 'I' for Inactive)
    1  A    between atoms: C_3  and  O_34
    2  A    between atoms: C_3  and  N_38
    3  A    between atoms: C_5  and  C_15
    4  A    between atoms: C_15  and  C_22
    5  A    between atoms: C_17  and  P_20
    6  A    between atoms: P_20  and  O_30
    7  A    between atoms: C_22  and  O_34
                            x       y       z     vdW  Elec       q    Type
                         _______ _______ _______ _____ _____    ______ ____

>  <TORSDO>
F 7

$$$$
=
 OpenBabel11072412163D

 38 42  0  0  1  0  0  0  0  0999 V2000
  157.5700  209.4680  139.5260 C   0  0  0  0  0  2  0  0  0  0  0  0
  153.7240  211.4680  141.1310 C   0  0  0  0  0  2  0  0  0  0  0  0
  160.8110  211.2770  138.5770 C   0  0  2  0  0  3  0  0  0  0  0  0
  154.4370  214.4520  138.1820 C   0  0  2  0  0  3  0  0  0  0  0  0
  160.5380  214.4490  137.2430 O   0  0  0  0  0  1  0  0  0  0  0  0
  158.8070  212.8180  137.0110 C   0  0  0  0  0  2  0  0  0  0  0  0
  153.2240  214.4530  139.1370 C   0  0  0  0  0  2  0  0  0  0  0  0
  157.6400  211.7940  139.0410 C   0  0  1  0  0  3  0  0  0  0  0  0
  154.0840  213.7770  137.0120 O   0  0  0  0  0  1  0  0  0  0  0  0
  152.4140  212.0000  141.6790 C   0  0  1  0  0  3  0  0  0  0  0  0
  160.2740  213.0860  137.3600 C   0  0  2  0  0  3  0  0  0  0  0  0
  152.5350  212.1970  143.0540 O   0  0  0  0  0  1  0  0  0  0  0  0
  156.1550  210.0360  139.6710 C   0  0  1  0  0  3  0  0  0  0  0  0
  155.7370  213.8470  138.7790 C   0  0  2  0  0  3  0  0  0  0  0  0
  156.1970  211.3950  138.9970 C   0  0  1  0  0  3  0  0  0  0  0  0
  152.2060  213.3390  140.9860 C   0  0  0  0  0  2  0  0  0  0  0  0
  156.6610  213.6230  137.7160 O   0  0  0  0  0  0  0  0  0  0  0  0
  155.4850  212.5670  139.6560 C   0  0  2  0  0  3  0  0  0  0  0  0
  158.4150  210.5130  138.8070 C   0  0  1  0  0  3  0  0  0  0  0  0
  154.0060  212.3790  139.9610 C   0  0  2  0  0  3  0  0  0  0  0  0
  160.5940  212.6600  138.6580 O   0  0  0  0  0  0  0  0  0  0  0  0
  157.8770  213.0710  138.1930 C   0  0  2  0  0  3  0  0  0  0  0  0
  153.4660  213.6690  140.3430 N   0  0  1  0  0  0  0  0  0  0  0  0
  159.7900  210.5580  139.4590 C   0  0  0  0  0  2  0  0  0  0  0  0
  154.0410  208.2830  139.7410 O   0  0  0  0  0  1  0  0  0  0  0  0
  155.0050  208.9400  138.7790 P   0  0  1  0  0  0  0  0  0  0  0  0
  154.1230  209.8510  137.6590 O   0  0  0  0  0  0  0  0  0  0  0  0
  154.9700  207.0570  137.2930 O   0  0  0  0  0  1  0  0  0  0  0  0
  155.8780  207.7460  137.9530 O   0  0  0  0  0  0  0  0  0  0  0  0
  162.2690  210.9380  138.9430 C   0  0  2  0  0  0  0  0  0  0  0  0
  163.0100  212.1620  139.4710 C   0  0  0  0  0  1  0  0  0  0  0  0
  162.9270  210.4970  137.7950 O   0  0  0  0  0  1  0  0  0  0  0  0
  162.3270  209.8040  139.9680 C   0  0  0  0  0  2  0  0  0  0  0  0
  161.6520  208.6400  139.5070 O   0  0  0  0  0  0  0  0  0  0  0  0
  162.0080  207.3210  139.8270 C   0  0  0  0  0  0  0  0  0  0  0  0
  161.7840  206.9150  140.9970 O   0  0  0  0  0  0  0  0  0  0  0  0
  162.3740  206.3730  137.6260 C   0  0  0  0  0  2  0  0  0  0  0  0
  162.6120  206.4070  138.8960 N   0  0  0  0  0  0  0  0  0  0  0  0
  1 13  1  0  0  0  0
  2 10  1  0  0  0  0
  3 21  1  0  0  0  0
  3 30  1  1  0  0  0
  3 24  1  0  0  0  0
  4  9  1  6  0  0  0
  4 14  1  0  0  0  0
  4  7  1  0  0  0  0
  5 11  1  0  0  0  0
  6 11  1  0  0  0  0
  6 22  1  0  0  0  0
  7 23  1  0  0  0  0
 10 12  1  0  0  0  0
 11 21  1  0  0  0  0
 14 18  1  0  0  0  0
 15  8  1  0  0  0  0
 15 18  1  0  0  0  0
 15 13  1  0  0  0  0
 16 10  1  0  0  0  0
 17 22  1  0  0  0  0
 17 14  1  0  0  0  0
 18 20  1  0  0  0  0
 19  8  1  0  0  0  0
 19 24  1  0  0  0  0
 19  1  1  0  0  0  0
 20 23  1  0  0  0  0
 20  2  1  0  0  0  0
 22  8  1  0  0  0  0
 23 16  1  0  0  0  0
 26 13  1  0  0  0  0
 26 25  1  0  0  0  0
 27 26  2  0  0  0  0
 28 29  1  0  0  0  0
 29 26  1  0  0  0  0
 30 31  1  0  0  0  0
 30 33  1  0  0  0  0
 32 30  1  0  0  0  0
 34 35  1  0  0  0  0
 34 33  1  0  0  0  0
 35 36  2  0  0  0  0
 37 38  2  0  0  0  0
 38 35  1  0  0  0  0
M  END
>  <MODEL>
8

>  <REMARK>
 VINA RESULT:      -1.6     12.989     14.936
  Name = 
  7 active torsions:
  status: ('A' for Active; 'I' for Inactive)
    1  A    between atoms: C_3  and  O_34
    2  A    between atoms: C_3  and  N_38
    3  A    between atoms: C_5  and  C_15
    4  A    between atoms: C_15  and  C_22
    5  A    between atoms: C_17  and  P_20
    6  A    between atoms: P_20  and  O_30
    7  A    between atoms: C_22  and  O_34
                            x       y       z     vdW  Elec       q    Type
                         _______ _______ _______ _____ _____    ______ ____

>  <TORSDO>
F 7

$$$$
=
 OpenBabel11072412163D

 38 42  0  0  1  0  0  0  0  0999 V2000
  157.5720  209.4800  139.5780 C   0  0  0  0  0  2  0  0  0  0  0  0
  153.7280  211.4970  141.1660 C   0  0  0  0  0  2  0  0  0  0  0  0
  160.8070  211.2810  138.5930 C   0  0  2  0  0  3  0  0  0  0  0  0
  154.4270  214.4390  138.1700 C   0  0  2  0  0  3  0  0  0  0  0  0
  160.5250  214.4330  137.2140 O   0  0  0  0  0  1  0  0  0  0  0  0
  158.7960  212.7950  137.0110 C   0  0  0  0  0  2  0  0  0  0  0  0
  153.2170  214.4530  139.1280 C   0  0  0  0  0  2  0  0  0  0  0  0
  157.6370  211.8000  139.0590 C   0  0  1  0  0  3  0  0  0  0  0  0
  154.0710  213.7460  137.0110 O   0  0  0  0  0  1  0  0  0  0  0  0
  152.4190  212.0360  141.7090 C   0  0  1  0  0  3  0  0  0  0  0  0
  160.2630  213.0710  137.3510 C   0  0  2  0  0  3  0  0  0  0  0  0
  152.5430  212.2530  143.0810 O   0  0  0  0  0  1  0  0  0  0  0  0
  156.1560  210.0480  139.7190 C   0  0  1  0  0  3  0  0  0  0  0  0
  155.7300  213.8460  138.7730 C   0  0  2  0  0  3  0  0  0  0  0  0
  156.1950  211.3970  139.0250 C   0  0  1  0  0  3  0  0  0  0  0  0
  152.2060  213.3640  140.9970 C   0  0  0  0  0  2  0  0  0  0  0  0
  156.6510  213.6070  137.7100 O   0  0  0  0  0  0  0  0  0  0  0  0
  155.4820  212.5780  139.6690 C   0  0  2  0  0  3  0  0  0  0  0  0
  158.4130  210.5170  138.8420 C   0  0  1  0  0  3  0  0  0  0  0  0
  154.0040  212.3920  139.9810 C   0  0  2  0  0  3  0  0  0  0  0  0
  160.5880  212.6650  138.6540 O   0  0  0  0  0  0  0  0  0  0  0  0
  157.8690  213.0640  138.1920 C   0  0  2  0  0  3  0  0  0  0  0  0
  153.4640  213.6870  140.3460 N   0  0  1  0  0  0  0  0  0  0  0  0
  159.7900  210.5730  139.4880 C   0  0  0  0  0  2  0  0  0  0  0  0
  155.7000  207.6540  138.4540 O   0  0  0  0  0  0  0  0  0  0  0  0
  155.0060  208.9370  138.8470 P   0  0  1  0  0  0  0  0  0  0  0  0
  153.7080  208.5670  139.8670 O   0  0  0  0  0  1  0  0  0  0  0  0
  153.1610  210.0000  137.7410 O   0  0  0  0  0  1  0  0  0  0  0  0
  154.4120  209.7050  137.4580 O   0  0  0  0  0  0  0  0  0  0  0  0
  162.2670  210.9490  138.9600 C   0  0  2  0  0  0  0  0  0  0  0  0
  163.1260  210.7660  137.7140 C   0  0  0  0  0  1  0  0  0  0  0  0
  162.2860  209.7530  139.6780 O   0  0  0  0  0  1  0  0  0  0  0  0
  162.8660  212.0320  139.8590 C   0  0  0  0  0  2  0  0  0  0  0  0
  162.3610  211.9560  141.1870 O   0  0  0  0  0  0  0  0  0  0  0  0
  161.9610  213.0550  141.9620 C   0  0  0  0  0  0  0  0  0  0  0  0
  162.3890  214.1930  141.6380 O   0  0  0  0  0  0  0  0  0  0  0  0
  161.3120  213.4950  144.2560 C   0  0  0  0  0  2  0  0  0  0  0  0
  161.0910  212.9560  143.1020 N   0  0  0  0  0  0  0  0  0  0  0  0
  1 13  1  0  0  0  0
  2 10  1  0  0  0  0
  3 21  1  0  0  0  0
  3 30  1  1  0  0  0
  3 24  1  0  0  0  0
  4  9  1  6  0  0  0
  4 14  1  0  0  0  0
  4  7  1  0  0  0  0
  5 11  1  0  0  0  0
  6 11  1  0  0  0  0
  6 22  1  0  0  0  0
  7 23  1  0  0  0  0
 10 12  1  0  0  0  0
 11 21  1  0  0  0  0
 14 18  1  0  0  0  0
 15  8  1  0  0  0  0
 15 18  1  0  0  0  0
 15 13  1  0  0  0  0
 16 10  1  0  0  0  0
 17 22  1  0  0  0  0
 17 14  1  0  0  0  0
 18 20  1  0  0  0  0
 19  8  1  0  0  0  0
 19 24  1  0  0  0  0
 19  1  1  0  0  0  0
 20 23  1  0  0  0  0
 20  2  1  0  0  0  0
 22  8  1  0  0  0  0
 23 16  1  0  0  0  0
 25 26  2  0  0  0  0
 26 13  1  0  0  0  0
 26 27  1  0  0  0  0
 29 28  1  0  0  0  0
 29 26  1  0  0  0  0
 30 32  1  0  0  0  0
 30 33  1  0  0  0  0
 31 30  1  0  0  0  0
 33 34  1  0  0  0  0
 34 35  1  0  0  0  0
 35 38  1  0  0  0  0
 36 35  2  0  0  0  0
 38 37  2  0  0  0  0
M  END
>  <MODEL>
9

>  <REMARK>
 VINA RESULT:      -1.6     12.274     14.997
  Name = 
  7 active torsions:
  status: ('A' for Active; 'I' for Inactive)
    1  A    between atoms: C_3  and  O_34
    2  A    between atoms: C_3  and  N_38
    3  A    between atoms: C_5  and  C_15
    4  A    between atoms: C_15  and  C_22
    5  A    between atoms: C_17  and  P_20
    6  A    between atoms: P_20  and  O_30
    7  A    between atoms: C_22  and  O_34
                            x       y       z     vdW  Elec       q    Type
                         _______ _______ _______ _____ _____    ______ ____

>  <TORSDO>
F 7

$$$$
