=
 OpenBabel11072414463D

 45 49  0  0  1  0  0  0  0  0999 V2000
  162.5510  208.5110  148.7000 O   0  0  0  0  0  1  0  0  0  0  0  0
  161.7630  208.4830  149.8500 C   0  0  0  0  0  0  0  0  0  0  0  0
  161.5690  209.6100  150.5780 C   0  0  0  0  0  0  0  0  0  0  0  0
  161.4190  208.6890  152.8920 C   0  0  0  0  0  2  0  0  0  0  0  0
  161.7390  206.7090  151.6180 C   0  0  0  0  0  2  0  0  0  0  0  0
  160.7610  209.5790  151.8430 C   0  0  0  0  0  2  0  0  0  0  0  0
  161.1580  207.1650  150.2830 C   0  0  2  0  0  3  0  0  0  0  0  0
  160.9920  207.3050  152.7190 N   0  0  0  0  0  2  0  0  0  0  0  0
  161.4420  205.1290  144.5560 C   0  0  0  0  0  0  0  0  0  0  0  0
  161.2070  204.8500  149.5950 N   0  0  0  0  0  0  0  0  0  0  0  0
  161.3100  206.0970  149.2440 C   0  0  0  0  0  0  0  0  0  0  0  0
  161.4830  206.4460  147.8620 N   0  0  0  0  0  0  0  0  0  0  0  0
  161.6760  205.6230  143.1720 C   0  0  0  0  0  1  0  0  0  0  0  0
  161.3760  203.7580  148.6310 C   0  0  2  0  0  3  0  0  0  0  0  0
  161.0450  203.6880  144.7640 C   0  0  1  0  0  3  0  0  0  0  0  0
  160.8830  204.1670  147.2380 C   0  0  2  0  0  3  0  0  0  0  0  0
  161.4060  203.2050  146.1710 C   0  0  0  0  0  2  0  0  0  0  0  0
  161.5480  205.9590  145.5510 N   0  0  0  0  0  0  0  0  0  0  0  0
  161.3400  205.5700  146.9150 C   0  0  0  0  0  0  0  0  0  0  0  0
  161.2750  201.2650  148.4180 C   0  0  0  0  0  1  0  0  0  0  0  0
  160.6970  202.4770  149.1210 C   0  0  0  0  0  3  0  0  0  0  0  0
  160.8130  202.3060  150.6270 C   0  0  0  0  0  1  0  0  0  0  0  0
  159.6100  203.5080  144.5080 C   0  0  0  0  0  0  0  0  0  0  0  0
  158.4790  203.3660  144.3070 N   0  0  0  0  0  0  0  0  0  0  0  0
  162.1410  210.8790  150.2230 N   0  0  0  0  0  2  0  0  0  0  0  0
  161.5190  211.8380  148.1280 C   0  0  0  0  0  3  0  0  0  0  0  0
  161.5080  211.8990  149.4520 C   0  0  0  0  0  3  0  0  0  0  0  0
  160.8670  212.9090  147.3190 C   0  0  2  0  0  3  0  0  0  0  0  0
  159.4920  212.6830  147.2590 O   0  0  0  0  0  1  0  0  0  0  0  0
  160.5190  212.4670  142.2540 C   0  0  0  0  0  0  0  0  0  0  0  0
  159.2780  212.6910  142.2620 O   0  0  0  0  0  0  0  0  0  0  0  0
  163.3650  213.3200  144.4730 C   0  0  0  0  0  3  0  0  0  0  0  0
  162.7300  213.2690  145.7940 C   0  0  0  0  0  3  0  0  0  0  0  0
  160.5660  212.6410  144.7480 C   0  0  0  0  0  2  0  0  0  0  0  0
  161.4420  212.9620  145.9380 C   0  0  0  0  0  0  0  0  0  0  0  0
  161.2770  212.6750  143.4610 N   0  0  0  0  0  0  0  0  0  0  0  0
  162.6650  213.0390  143.3800 C   0  0  0  0  0  3  0  0  0  0  0  0
  161.4650  214.2340  140.1600 O   0  0  0  0  0  1  0  0  0  0  0  0
  162.2970  210.9710  138.6430 C   0  0  0  0  0  3  0  0  0  0  0  0
  161.5860  212.8570  139.9960 C   0  0  0  0  0  0  0  0  0  0  0  0
  162.1580  212.3490  138.8170 C   0  0  0  0  0  0  0  0  0  0  0  0
  161.1560  211.9720  141.0090 C   0  0  0  0  0  0  0  0  0  0  0  0
  162.7160  213.4310  137.5510 Cl  0  0  0  0  0  0  0  0  0  0  0  0
  161.8700  210.0920  139.6380 C   0  0  0  0  0  3  0  0  0  0  0  0
  161.3010  210.5910  140.8120 C   0  0  0  0  0  3  0  0  0  0  0  0
  1  2  1  0  0  0  0
  2  7  1  0  0  0  0
  2  3  2  0  0  0  0
  3  6  1  0  0  0  0
  5  8  1  0  0  0  0
  6  4  1  0  0  0  0
  7 11  1  6  0  0  0
  7  5  1  0  0  0  0
  8  4  1  0  0  0  0
  9 15  1  0  0  0  0
  9 18  2  0  0  0  0
 11 10  2  0  0  0  0
 12 11  1  0  0  0  0
 13  9  1  0  0  0  0
 14 21  1  1  0  0  0
 14 10  1  0  0  0  0
 15 23  1  1  0  0  0
 15 17  1  0  0  0  0
 16 17  1  6  0  0  0
 16 14  1  0  0  0  0
 18 19  1  0  0  0  0
 19 16  1  0  0  0  0
 19 12  2  0  0  0  0
 20 21  1  0  0  0  0
 21 22  1  0  0  0  0
 24 23  3  0  0  0  0
 25  3  1  0  0  0  0
 26 27  2  0  0  0  0
 27 25  1  0  0  0  0
 28 29  1  6  0  0  0
 28 26  1  0  0  0  0
 30 31  2  0  0  0  0
 30 36  1  0  0  0  0
 32 33  1  0  0  0  0
 33 35  2  0  0  0  0
 34 35  1  0  0  0  0
 35 28  1  0  0  0  0
 36 34  1  0  0  0  0
 37 36  1  0  0  0  0
 37 32  2  0  0  0  0
 39 41  2  0  0  0  0
 39 44  1  0  0  0  0
 40 38  1  0  0  0  0
 40 42  2  0  0  0  0
 41 40  1  0  0  0  0
 42 30  1  0  0  0  0
 43 41  1  0  0  0  0
 44 45  2  0  0  0  0
 45 42  1  0  0  0  0
M  END
>  <MODEL>
1

>  <REMARK>
 VINA RESULT:      -8.9      0.000      0.000
  Name = 
  8 active torsions:
  status: ('A' for Active; 'I' for Inactive)
    1  A    between atoms: C_2  and  C_22
    2  A    between atoms: C_3  and  C_4
    3  A    between atoms: C_4  and  C_38
    4  A    between atoms: C_10  and  C_44
    5  A    between atoms: C_15  and  C_23
    6  A    between atoms: C_21  and  C_29
    7  A    between atoms: C_27  and  N_34
    8  A    between atoms: N_34  and  C_36
                            x       y       z     vdW  Elec       q    Type
                         _______ _______ _______ _____ _____    ______ ____

>  <TORSDO>
F 8

$$$$
=
 OpenBabel11072414463D

 45 49  0  0  1  0  0  0  0  0999 V2000
  162.6730  208.1740  149.0160 O   0  0  0  0  0  1  0  0  0  0  0  0
  161.8230  208.1110  150.1190 C   0  0  0  0  0  0  0  0  0  0  0  0
  161.6360  209.1990  150.9060 C   0  0  0  0  0  0  0  0  0  0  0  0
  161.3200  208.1460  153.1460 C   0  0  0  0  0  2  0  0  0  0  0  0
  161.6280  206.2350  151.7670 C   0  0  0  0  0  2  0  0  0  0  0  0
  160.7590  209.1270  152.1220 C   0  0  0  0  0  2  0  0  0  0  0  0
  161.1400  206.7980  150.4340 C   0  0  2  0  0  3  0  0  0  0  0  0
  160.8460  206.7960  152.8630 N   0  0  0  0  0  2  0  0  0  0  0  0
  161.4700  205.0820  144.6060 C   0  0  0  0  0  0  0  0  0  0  0  0
  161.2090  204.5250  149.6210 N   0  0  0  0  0  0  0  0  0  0  0  0
  161.3060  205.7890  149.3400 C   0  0  0  0  0  0  0  0  0  0  0  0
  161.4840  206.2160  147.9800 N   0  0  0  0  0  0  0  0  0  0  0  0
  161.7080  205.6520  143.2530 C   0  0  0  0  0  1  0  0  0  0  0  0
  161.3910  203.4890  148.5990 C   0  0  2  0  0  3  0  0  0  0  0  0
  161.0810  203.6290  144.7320 C   0  0  1  0  0  3  0  0  0  0  0  0
  160.9030  203.9710  147.2280 C   0  0  2  0  0  3  0  0  0  0  0  0
  161.4380  203.0720  146.1130 C   0  0  0  0  0  2  0  0  0  0  0  0
  161.5650  205.8570  145.6460 N   0  0  0  0  0  0  0  0  0  0  0  0
  161.3520  205.3910  146.9850 C   0  0  0  0  0  0  0  0  0  0  0  0
  161.4190  200.9940  148.3790 C   0  0  0  0  0  1  0  0  0  0  0  0
  160.7170  202.1780  149.0140 C   0  0  0  0  0  3  0  0  0  0  0  0
  160.6760  202.0070  150.5230 C   0  0  0  0  0  1  0  0  0  0  0  0
  159.6490  203.4540  144.4580 C   0  0  0  0  0  0  0  0  0  0  0  0
  158.5210  203.3170  144.2420 N   0  0  0  0  0  0  0  0  0  0  0  0
  162.2790  210.4610  150.6630 N   0  0  0  0  0  2  0  0  0  0  0  0
  162.1610  212.0940  148.9270 C   0  0  0  0  0  3  0  0  0  0  0  0
  161.6780  211.6060  150.0610 C   0  0  0  0  0  3  0  0  0  0  0  0
  161.5420  213.2990  148.3010 C   0  0  2  0  0  3  0  0  0  0  0  0
  160.6100  213.8580  149.1760 O   0  0  0  0  0  1  0  0  0  0  0  0
  161.5410  212.7510  143.2340 C   0  0  0  0  0  0  0  0  0  0  0  0
  162.7910  212.5890  143.1940 O   0  0  0  0  0  0  0  0  0  0  0  0
  158.8970  212.2250  145.7800 C   0  0  0  0  0  3  0  0  0  0  0  0
  159.6100  212.5630  147.0160 C   0  0  0  0  0  3  0  0  0  0  0  0
  161.6630  213.0690  145.7110 C   0  0  0  0  0  2  0  0  0  0  0  0
  160.8850  212.9500  147.0020 C   0  0  0  0  0  0  0  0  0  0  0  0
  160.8750  212.7520  144.5110 N   0  0  0  0  0  0  0  0  0  0  0  0
  159.5080  212.3160  144.6040 C   0  0  0  0  0  3  0  0  0  0  0  0
  161.2780  210.7010  141.2030 O   0  0  0  0  0  1  0  0  0  0  0  0
  159.4330  213.4440  139.5580 C   0  0  0  0  0  3  0  0  0  0  0  0
  160.7080  211.9510  140.9860 C   0  0  0  0  0  0  0  0  0  0  0  0
  160.0210  212.1990  139.7850 C   0  0  0  0  0  0  0  0  0  0  0  0
  160.7990  212.9620  141.9670 C   0  0  0  0  0  0  0  0  0  0  0  0
  159.8790  210.9510  138.5580 Cl  0  0  0  0  0  0  0  0  0  0  0  0
  159.5240  214.4490  140.5220 C   0  0  0  0  0  3  0  0  0  0  0  0
  160.2040  214.2080  141.7170 C   0  0  0  0  0  3  0  0  0  0  0  0
  1  2  1  0  0  0  0
  2  7  1  0  0  0  0
  2  3  2  0  0  0  0
  3  6  1  0  0  0  0
  5  8  1  0  0  0  0
  6  4  1  0  0  0  0
  7 11  1  6  0  0  0
  7  5  1  0  0  0  0
  8  4  1  0  0  0  0
  9 15  1  0  0  0  0
  9 18  2  0  0  0  0
 11 10  2  0  0  0  0
 12 11  1  0  0  0  0
 13  9  1  0  0  0  0
 14 21  1  1  0  0  0
 14 10  1  0  0  0  0
 15 23  1  1  0  0  0
 15 17  1  0  0  0  0
 16 17  1  6  0  0  0
 16 14  1  0  0  0  0
 18 19  1  0  0  0  0
 19 16  1  0  0  0  0
 19 12  2  0  0  0  0
 20 21  1  0  0  0  0
 21 22  1  0  0  0  0
 24 23  3  0  0  0  0
 25  3  1  0  0  0  0
 26 27  2  0  0  0  0
 27 25  1  0  0  0  0
 28 26  1  0  0  0  0
 28 29  1  1  0  0  0
 30 36  1  0  0  0  0
 31 30  2  0  0  0  0
 32 33  1  0  0  0  0
 34 35  1  0  0  0  0
 35 33  2  0  0  0  0
 35 28  1  0  0  0  0
 36 37  1  0  0  0  0
 36 34  1  0  0  0  0
 37 32  2  0  0  0  0
 39 41  2  0  0  0  0
 39 44  1  0  0  0  0
 40 38  1  0  0  0  0
 40 42  2  0  0  0  0
 41 40  1  0  0  0  0
 42 30  1  0  0  0  0
 43 41  1  0  0  0  0
 44 45  2  0  0  0  0
 45 42  1  0  0  0  0
M  END
>  <MODEL>
2

>  <REMARK>
 VINA RESULT:      -8.6      1.370      1.967
  Name = 
  8 active torsions:
  status: ('A' for Active; 'I' for Inactive)
    1  A    between atoms: C_2  and  C_22
    2  A    between atoms: C_3  and  C_4
    3  A    between atoms: C_4  and  C_38
    4  A    between atoms: C_10  and  C_44
    5  A    between atoms: C_15  and  C_23
    6  A    between atoms: C_21  and  C_29
    7  A    between atoms: C_27  and  N_34
    8  A    between atoms: N_34  and  C_36
                            x       y       z     vdW  Elec       q    Type
                         _______ _______ _______ _____ _____    ______ ____

>  <TORSDO>
F 8

$$$$
=
 OpenBabel11072414463D

 45 49  0  0  1  0  0  0  0  0999 V2000
  161.0020  212.8470  147.6690 O   0  0  0  0  0  1  0  0  0  0  0  0
  159.8220  213.4100  148.1530 C   0  0  0  0  0  0  0  0  0  0  0  0
  159.5600  213.4170  149.4830 C   0  0  0  0  0  0  0  0  0  0  0  0
  157.0760  213.1770  149.5030 C   0  0  0  0  0  2  0  0  0  0  0  0
  157.5300  213.1830  147.1700 C   0  0  0  0  0  2  0  0  0  0  0  0
  158.2710  213.9790  150.0090 C   0  0  0  0  0  2  0  0  0  0  0  0
  158.8310  213.9810  147.1620 C   0  0  2  0  0  3  0  0  0  0  0  0
  156.6390  213.6880  148.2080 N   0  0  0  0  0  2  0  0  0  0  0  0
  158.6430  213.1340  141.1400 C   0  0  0  0  0  0  0  0  0  0  0  0
  160.6560  214.3250  145.6180 N   0  0  0  0  0  0  0  0  0  0  0  0
  159.3920  214.0680  145.7770 C   0  0  0  0  0  0  0  0  0  0  0  0
  158.5640  213.7860  144.6380 N   0  0  0  0  0  0  0  0  0  0  0  0
  157.6680  212.8790  140.0460 C   0  0  0  0  0  1  0  0  0  0  0  0
  161.2590  214.4530  144.2870 C   0  0  2  0  0  3  0  0  0  0  0  0
  160.1190  213.1170  140.8260 C   0  0  1  0  0  3  0  0  0  0  0  0
  160.5700  213.5300  143.2760 C   0  0  2  0  0  3  0  0  0  0  0  0
  160.9180  213.9360  141.8440 C   0  0  0  0  0  2  0  0  0  0  0  0
  158.2040  213.3280  142.3480 N   0  0  0  0  0  0  0  0  0  0  0  0
  159.0720  213.5800  143.4610 C   0  0  0  0  0  0  0  0  0  0  0  0
  163.2500  214.1460  145.7760 C   0  0  0  0  0  1  0  0  0  0  0  0
  162.7700  214.2130  144.3390 C   0  0  0  0  0  3  0  0  0  0  0  0
  163.1770  212.9510  143.5980 C   0  0  0  0  0  1  0  0  0  0  0  0
  160.6170  211.7370  140.7680 C   0  0  0  0  0  0  0  0  0  0  0  0
  161.0090  210.6490  140.7210 N   0  0  0  0  0  0  0  0  0  0  0  0
  160.4570  212.8660  150.4610 N   0  0  0  0  0  2  0  0  0  0  0  0
  160.8130  210.9400  151.8230 C   0  0  0  0  0  3  0  0  0  0  0  0
  160.0930  212.0180  151.5490 C   0  0  0  0  0  3  0  0  0  0  0  0
  160.4280  210.0450  152.9540 C   0  0  2  0  0  3  0  0  0  0  0  0
  161.0350  210.4860  154.1310 O   0  0  0  0  0  1  0  0  0  0  0  0
  161.2730  206.1240  149.8100 C   0  0  0  0  0  0  0  0  0  0  0  0
  161.5000  206.8840  148.8300 O   0  0  0  0  0  0  0  0  0  0  0  0
  161.5130  206.4350  153.4970 C   0  0  0  0  0  3  0  0  0  0  0  0
  161.1400  207.8380  153.6970 C   0  0  0  0  0  3  0  0  0  0  0  0
  160.8160  208.1170  151.2490 C   0  0  0  0  0  2  0  0  0  0  0  0
  160.8190  208.6270  152.6720 C   0  0  0  0  0  0  0  0  0  0  0  0
  161.1640  206.6930  151.1280 N   0  0  0  0  0  0  0  0  0  0  0  0
  161.5230  205.9080  152.2780 C   0  0  0  0  0  3  0  0  0  0  0  0
  161.5250  204.9170  147.1870 O   0  0  0  0  0  1  0  0  0  0  0  0
  160.6970  201.9160  149.1730 C   0  0  0  0  0  3  0  0  0  0  0  0
  161.2060  204.1150  148.2770 C   0  0  0  0  0  0  0  0  0  0  0  0
  161.0060  202.7370  148.0870 C   0  0  0  0  0  0  0  0  0  0  0  0
  161.1000  204.6700  149.5710 C   0  0  0  0  0  0  0  0  0  0  0  0
  161.1500  202.0210  146.4900 Cl  0  0  0  0  0  0  0  0  0  0  0  0
  160.5860  202.4600  150.4530 C   0  0  0  0  0  3  0  0  0  0  0  0
  160.7840  203.8280  150.6490 C   0  0  0  0  0  3  0  0  0  0  0  0
  1  2  1  0  0  0  0
  2  3  2  0  0  0  0
  3  6  1  0  0  0  0
  3 25  1  0  0  0  0
  4  6  1  0  0  0  0
  5  8  1  0  0  0  0
  7 11  1  6  0  0  0
  7  5  1  0  0  0  0
  7  2  1  0  0  0  0
  8  4  1  0  0  0  0
  9 18  2  0  0  0  0
 10 11  2  0  0  0  0
 12 11  1  0  0  0  0
 13  9  1  0  0  0  0
 14 21  1  1  0  0  0
 14 10  1  0  0  0  0
 15 23  1  1  0  0  0
 15  9  1  0  0  0  0
 15 17  1  0  0  0  0
 16 17  1  6  0  0  0
 16 19  1  0  0  0  0
 16 14  1  0  0  0  0
 18 19  1  0  0  0  0
 19 12  2  0  0  0  0
 21 20  1  0  0  0  0
 22 21  1  0  0  0  0
 24 23  3  0  0  0  0
 25 27  1  0  0  0  0
 26 28  1  0  0  0  0
 27 26  2  0  0  0  0
 28 29  1  1  0  0  0
 30 36  1  0  0  0  0
 31 30  2  0  0  0  0
 32 33  1  0  0  0  0
 34 35  1  0  0  0  0
 35 28  1  0  0  0  0
 35 33  2  0  0  0  0
 36 34  1  0  0  0  0
 36 37  1  0  0  0  0
 37 32  2  0  0  0  0
 38 40  1  0  0  0  0
 39 44  1  0  0  0  0
 40 42  2  0  0  0  0
 41 40  1  0  0  0  0
 41 39  2  0  0  0  0
 42 30  1  0  0  0  0
 42 45  1  0  0  0  0
 43 41  1  0  0  0  0
 44 45  2  0  0  0  0
M  END
>  <MODEL>
3

>  <REMARK>
 VINA RESULT:      -7.4      3.602      9.763
  Name = 
  8 active torsions:
  status: ('A' for Active; 'I' for Inactive)
    1  A    between atoms: C_2  and  C_22
    2  A    between atoms: C_3  and  C_4
    3  A    between atoms: C_4  and  C_38
    4  A    between atoms: C_10  and  C_44
    5  A    between atoms: C_15  and  C_23
    6  A    between atoms: C_21  and  C_29
    7  A    between atoms: C_27  and  N_34
    8  A    between atoms: N_34  and  C_36
                            x       y       z     vdW  Elec       q    Type
                         _______ _______ _______ _____ _____    ______ ____

>  <TORSDO>
F 8

$$$$
=
 OpenBabel11072414463D

 45 49  0  0  1  0  0  0  0  0999 V2000
  162.3830  207.6660  149.7970 O   0  0  0  0  0  1  0  0  0  0  0  0
  161.5890  207.3460  150.8970 C   0  0  0  0  0  0  0  0  0  0  0  0
  161.3590  208.2620  151.8690 C   0  0  0  0  0  0  0  0  0  0  0  0
  161.2220  206.8150  153.8970 C   0  0  0  0  0  2  0  0  0  0  0  0
  161.6050  205.2030  152.1940 C   0  0  0  0  0  2  0  0  0  0  0  0
  160.5460  207.9120  153.0800 C   0  0  0  0  0  2  0  0  0  0  0  0
  161.0190  205.9470  150.9980 C   0  0  2  0  0  3  0  0  0  0  0  0
  160.8350  205.5010  153.3960 N   0  0  0  0  0  2  0  0  0  0  0  0
  161.3710  205.3320  144.9550 C   0  0  0  0  0  0  0  0  0  0  0  0
  161.1470  203.8630  149.7840 N   0  0  0  0  0  0  0  0  0  0  0  0
  161.2080  205.1600  149.7380 C   0  0  0  0  0  0  0  0  0  0  0  0
  161.3680  205.8320  148.4780 N   0  0  0  0  0  0  0  0  0  0  0  0
  161.5880  206.1460  143.7280 C   0  0  0  0  0  1  0  0  0  0  0  0
  161.3530  203.0360  148.5900 C   0  0  2  0  0  3  0  0  0  0  0  0
  161.0230  203.8700  144.8130 C   0  0  1  0  0  3  0  0  0  0  0  0
  160.8460  203.7460  147.3300 C   0  0  2  0  0  3  0  0  0  0  0  0
  161.4010  203.0810  146.0700 C   0  0  0  0  0  2  0  0  0  0  0  0
  161.4490  205.9070  146.1190 N   0  0  0  0  0  0  0  0  0  0  0  0
  161.2550  205.1990  147.3500 C   0  0  0  0  0  0  0  0  0  0  0  0
  161.5900  200.5860  148.1290 C   0  0  0  0  0  1  0  0  0  0  0  0
  160.7180  201.6540  148.7590 C   0  0  0  0  0  3  0  0  0  0  0  0
  160.4580  201.3160  150.2180 C   0  0  0  0  0  1  0  0  0  0  0  0
  159.5950  203.7080  144.5110 C   0  0  0  0  0  0  0  0  0  0  0  0
  158.4710  203.5800  144.2720 N   0  0  0  0  0  0  0  0  0  0  0  0
  161.8980  209.5940  151.8320 N   0  0  0  0  0  2  0  0  0  0  0  0
  160.6220  211.4660  152.5810 C   0  0  0  0  0  3  0  0  0  0  0  0
  161.1620  210.7900  151.5780 C   0  0  0  0  0  3  0  0  0  0  0  0
  159.8420  212.7100  152.3170 C   0  0  2  0  0  3  0  0  0  0  0  0
  158.6050  212.6360  152.9580 O   0  0  0  0  0  1  0  0  0  0  0  0
  161.3190  212.3050  147.4560 C   0  0  0  0  0  0  0  0  0  0  0  0
  162.0540  211.3110  147.7030 O   0  0  0  0  0  0  0  0  0  0  0  0
  158.3010  213.7980  149.0090 C   0  0  0  0  0  3  0  0  0  0  0  0
  158.5460  213.5410  150.4310 C   0  0  0  0  0  3  0  0  0  0  0  0
  160.7100  212.4530  149.8770 C   0  0  0  0  0  2  0  0  0  0  0  0
  159.6490  212.9200  150.8470 C   0  0  0  0  0  0  0  0  0  0  0  0
  160.4150  212.7780  148.4730 N   0  0  0  0  0  0  0  0  0  0  0  0
  159.1910  213.4290  148.0950 C   0  0  0  0  0  3  0  0  0  0  0  0
  159.3980  211.8950  145.3250 O   0  0  0  0  0  1  0  0  0  0  0  0
  161.7160  214.2180  143.6320 C   0  0  0  0  0  3  0  0  0  0  0  0
  160.4860  212.7350  145.1090 C   0  0  0  0  0  0  0  0  0  0  0  0
  160.6360  213.3630  143.8610 C   0  0  0  0  0  0  0  0  0  0  0  0
  161.4250  212.9730  146.1360 C   0  0  0  0  0  0  0  0  0  0  0  0
  159.4710  213.0970  142.5740 Cl  0  0  0  0  0  0  0  0  0  0  0  0
  162.6500  214.4530  144.6410 C   0  0  0  0  0  3  0  0  0  0  0  0
  162.5050  213.8320  145.8830 C   0  0  0  0  0  3  0  0  0  0  0  0
  1  2  1  0  0  0  0
  2  7  1  0  0  0  0
  2  3  2  0  0  0  0
  3  6  1  0  0  0  0
  5  8  1  0  0  0  0
  6  4  1  0  0  0  0
  7 11  1  6  0  0  0
  7  5  1  0  0  0  0
  8  4  1  0  0  0  0
  9 18  2  0  0  0  0
 11 10  2  0  0  0  0
 12 11  1  0  0  0  0
 13  9  1  0  0  0  0
 14 21  1  1  0  0  0
 14 10  1  0  0  0  0
 15 23  1  1  0  0  0
 15  9  1  0  0  0  0
 15 17  1  0  0  0  0
 16 17  1  6  0  0  0
 16 19  1  0  0  0  0
 16 14  1  0  0  0  0
 18 19  1  0  0  0  0
 19 12  2  0  0  0  0
 20 21  1  0  0  0  0
 21 22  1  0  0  0  0
 24 23  3  0  0  0  0
 25  3  1  0  0  0  0
 27 25  1  0  0  0  0
 27 26  2  0  0  0  0
 28 26  1  0  0  0  0
 28 29  1  1  0  0  0
 30 31  2  0  0  0  0
 30 36  1  0  0  0  0
 32 33  1  0  0  0  0
 33 35  2  0  0  0  0
 34 35  1  0  0  0  0
 35 28  1  0  0  0  0
 36 34  1  0  0  0  0
 37 36  1  0  0  0  0
 37 32  2  0  0  0  0
 39 41  2  0  0  0  0
 39 44  1  0  0  0  0
 40 38  1  0  0  0  0
 40 42  2  0  0  0  0
 41 40  1  0  0  0  0
 42 30  1  0  0  0  0
 43 41  1  0  0  0  0
 44 45  2  0  0  0  0
 45 42  1  0  0  0  0
M  END
>  <MODEL>
4

>  <REMARK>
 VINA RESULT:      -7.1      2.521      3.841
  Name = 
  8 active torsions:
  status: ('A' for Active; 'I' for Inactive)
    1  A    between atoms: C_2  and  C_22
    2  A    between atoms: C_3  and  C_4
    3  A    between atoms: C_4  and  C_38
    4  A    between atoms: C_10  and  C_44
    5  A    between atoms: C_15  and  C_23
    6  A    between atoms: C_21  and  C_29
    7  A    between atoms: C_27  and  N_34
    8  A    between atoms: N_34  and  C_36
                            x       y       z     vdW  Elec       q    Type
                         _______ _______ _______ _____ _____    ______ ____

>  <TORSDO>
F 8

$$$$
=
 OpenBabel11072414463D

 45 49  0  0  1  0  0  0  0  0999 V2000
  161.0680  211.0610  151.3610 O   0  0  0  0  0  1  0  0  0  0  0  0
  161.5730  209.7710  151.1990 C   0  0  0  0  0  0  0  0  0  0  0  0
  162.3440  209.4640  150.1270 C   0  0  0  0  0  0  0  0  0  0  0  0
  161.7000  207.0900  149.7130 C   0  0  0  0  0  2  0  0  0  0  0  0
  160.3600  207.6180  151.6040 C   0  0  0  0  0  2  0  0  0  0  0  0
  162.8520  208.0680  149.9200 C   0  0  0  0  0  2  0  0  0  0  0  0
  161.2150  208.7190  152.2260 C   0  0  2  0  0  3  0  0  0  0  0  0
  161.2150  206.6020  150.9990 N   0  0  0  0  0  2  0  0  0  0  0  0
  158.0140  212.9850  155.1540 C   0  0  0  0  0  0  0  0  0  0  0  0
  160.7930  208.8020  154.6020 N   0  0  0  0  0  0  0  0  0  0  0  0
  160.5390  209.2990  153.4290 C   0  0  0  0  0  0  0  0  0  0  0  0
  159.6870  210.4490  153.3010 N   0  0  0  0  0  0  0  0  0  0  0  0
  157.1100  214.1340  154.8770 C   0  0  0  0  0  1  0  0  0  0  0  0
  160.1410  209.3080  155.8150 C   0  0  2  0  0  3  0  0  0  0  0  0
  158.4440  212.7150  156.5740 C   0  0  1  0  0  3  0  0  0  0  0  0
  159.8560  210.8100  155.7060 C   0  0  2  0  0  3  0  0  0  0  0  0
  158.8490  211.2510  156.7690 C   0  0  0  0  0  2  0  0  0  0  0  0
  158.4420  212.2630  154.1600 N   0  0  0  0  0  0  0  0  0  0  0  0
  159.3140  211.1390  154.3350 C   0  0  0  0  0  0  0  0  0  0  0  0
  161.0450  207.4720  157.2590 C   0  0  0  0  0  1  0  0  0  0  0  0
  160.9600  208.9730  157.0640 C   0  0  0  0  0  3  0  0  0  0  0  0
  162.3580  209.5670  157.0100 C   0  0  0  0  0  1  0  0  0  0  0  0
  159.5430  213.6100  156.9580 C   0  0  0  0  0  0  0  0  0  0  0  0
  160.4100  214.3150  157.2610 N   0  0  0  0  0  0  0  0  0  0  0  0
  162.6910  210.4210  149.1130 N   0  0  0  0  0  2  0  0  0  0  0  0
  161.9810  212.3140  147.8460 C   0  0  0  0  0  3  0  0  0  0  0  0
  161.7850  211.0560  148.2130 C   0  0  0  0  0  3  0  0  0  0  0  0
  161.0270  212.9850  146.9140 C   0  0  2  0  0  3  0  0  0  0  0  0
  159.7940  212.3320  146.9520 O   0  0  0  0  0  1  0  0  0  0  0  0
  160.5610  212.3010  141.8850 C   0  0  0  0  0  0  0  0  0  0  0  0
  159.3130  212.4820  141.9180 O   0  0  0  0  0  0  0  0  0  0  0  0
  163.4320  213.3500  143.9840 C   0  0  0  0  0  3  0  0  0  0  0  0
  162.8350  213.3380  145.3230 C   0  0  0  0  0  3  0  0  0  0  0  0
  160.6680  212.5890  144.3660 C   0  0  0  0  0  2  0  0  0  0  0  0
  161.5630  212.9940  145.5160 C   0  0  0  0  0  0  0  0  0  0  0  0
  161.3430  212.5890  143.0600 N   0  0  0  0  0  0  0  0  0  0  0  0
  162.7140  212.9960  142.9240 C   0  0  0  0  0  3  0  0  0  0  0  0
  161.3430  213.9960  139.6690 O   0  0  0  0  0  1  0  0  0  0  0  0
  162.2950  210.7020  138.2970 C   0  0  0  0  0  3  0  0  0  0  0  0
  161.5310  212.6210  139.5730 C   0  0  0  0  0  0  0  0  0  0  0  0
  162.0900  212.0790  138.4030 C   0  0  0  0  0  0  0  0  0  0  0  0
  161.1820  211.7720  140.6460 C   0  0  0  0  0  0  0  0  0  0  0  0
  162.5480  213.1170  137.0630 Cl  0  0  0  0  0  0  0  0  0  0  0  0
  161.9480  209.8580  139.3510 C   0  0  0  0  0  3  0  0  0  0  0  0
  161.3930  210.3910  140.5170 C   0  0  0  0  0  3  0  0  0  0  0  0
  2  1  1  0  0  0  0
  2  7  1  0  0  0  0
  3  2  2  0  0  0  0
  4  6  1  0  0  0  0
  4  8  1  0  0  0  0
  5  7  1  0  0  0  0
  6  3  1  0  0  0  0
  7 11  1  1  0  0  0
  8  5  1  0  0  0  0
  9 15  1  0  0  0  0
 10 14  1  0  0  0  0
 11 10  2  0  0  0  0
 12 11  1  0  0  0  0
 12 19  2  0  0  0  0
 13  9  1  0  0  0  0
 14 21  1  1  0  0  0
 15 17  1  0  0  0  0
 15 23  1  6  0  0  0
 16 14  1  0  0  0  0
 16 17  1  1  0  0  0
 18 19  1  0  0  0  0
 18  9  2  0  0  0  0
 19 16  1  0  0  0  0
 21 20  1  0  0  0  0
 22 21  1  0  0  0  0
 23 24  3  0  0  0  0
 25  3  1  0  0  0  0
 26 27  2  0  0  0  0
 27 25  1  0  0  0  0
 28 29  1  6  0  0  0
 28 26  1  0  0  0  0
 30 31  2  0  0  0  0
 30 36  1  0  0  0  0
 32 33  1  0  0  0  0
 33 35  2  0  0  0  0
 34 35  1  0  0  0  0
 35 28  1  0  0  0  0
 36 34  1  0  0  0  0
 37 36  1  0  0  0  0
 37 32  2  0  0  0  0
 39 41  2  0  0  0  0
 39 44  1  0  0  0  0
 40 38  1  0  0  0  0
 40 42  2  0  0  0  0
 41 40  1  0  0  0  0
 42 30  1  0  0  0  0
 43 41  1  0  0  0  0
 44 45  2  0  0  0  0
 45 42  1  0  0  0  0
M  END
>  <MODEL>
5

>  <REMARK>
 VINA RESULT:      -6.3      3.104      7.134
  Name = 
  8 active torsions:
  status: ('A' for Active; 'I' for Inactive)
    1  A    between atoms: C_2  and  C_22
    2  A    between atoms: C_3  and  C_4
    3  A    between atoms: C_4  and  C_38
    4  A    between atoms: C_10  and  C_44
    5  A    between atoms: C_15  and  C_23
    6  A    between atoms: C_21  and  C_29
    7  A    between atoms: C_27  and  N_34
    8  A    between atoms: N_34  and  C_36
                            x       y       z     vdW  Elec       q    Type
                         _______ _______ _______ _____ _____    ______ ____

>  <TORSDO>
F 8

$$$$
