=
 OpenBabel11072410043D

 55 60  0  0  1  0  0  0  0  0999 V2000
  161.9970  209.8200  152.5050 C   0  0  0  0  0  3  0  0  0  0  0  0
  161.1810  207.6410  150.9300 C   0  0  0  0  0  3  0  0  0  0  0  0
  162.1880  209.8380  151.1190 C   0  0  0  0  0  3  0  0  0  0  0  0
  161.3750  208.5000  154.6020 C   0  0  0  0  0  0  0  0  0  0  0  0
  160.3810  206.4000  152.9430 C   0  0  0  0  0  2  0  0  0  0  0  0
  161.3970  208.6940  153.1200 C   0  0  0  0  0  0  0  0  0  0  0  0
  161.5870  207.2750  156.4820 N   0  0  0  0  0  0  0  0  0  0  0  0
  161.0270  206.0450  154.2850 C   0  0  0  0  0  2  0  0  0  0  0  0
  161.6730  209.4450  155.6440 N   0  0  0  0  0  0  0  0  0  0  0  0
  161.7670  208.7540  150.3210 C   0  0  0  0  0  0  0  0  0  0  0  0
  161.0320  207.6020  152.3160 C   0  0  0  0  0  0  0  0  0  0  0  0
  161.8710  208.6520  156.8600 C   0  0  0  0  0  3  0  0  0  0  0  0
  161.2720  207.2860  155.1020 C   0  0  0  0  0  0  0  0  0  0  0  0
  162.3970  210.7290  155.4610 C   0  0  1  0  0  3  0  0  0  0  0  0
  161.4950  211.9040  155.7080 C   0  0  0  0  0  3  0  0  0  0  0  0
  160.2640  211.8870  155.3400 N   0  0  0  0  0  0  0  0  0  0  0  0
  159.3740  213.0050  155.6020 C   0  0  2  0  0  3  0  0  0  0  0  0
  158.9420  213.0700  157.0870 C   0  0  0  0  0  2  0  0  0  0  0  0
  157.7960  213.8500  157.2600 O   0  0  0  0  0  1  0  0  0  0  0  0
  158.1070  212.7830  154.7520 C   0  0  2  0  0  3  0  0  0  0  0  0
  156.2750  211.0480  155.1180 C   0  0  0  0  0  1  0  0  0  0  0  0
  157.6470  211.3240  154.5190 C   0  0  0  0  0  2  0  0  0  0  0  0
  157.8940  213.7550  153.7320 O   0  0  0  0  0  0  0  0  0  0  0  0
  159.9340  212.8850  151.8880 N   0  0  0  0  0  2  0  0  0  0  0  0
  157.6720  213.1490  152.5410 N   0  0  0  0  0  2  0  0  0  0  0  0
  158.6980  212.9790  151.5350 C   0  0  0  0  0  0  0  0  0  0  0  0
  158.4260  213.5230  150.1720 C   0  0  0  0  0  1  0  0  0  0  0  0
  163.5270  210.7960  156.3770 N   0  0  0  0  0  2  0  0  0  0  0  0
  166.4890  212.1910  154.5190 C   0  0  0  0  0  3  0  0  0  0  0  0
  166.5200  213.0970  156.7740 C   0  0  0  0  0  3  0  0  0  0  0  0
  165.3310  211.4620  154.8280 C   0  0  0  0  0  3  0  0  0  0  0  0
  165.3490  212.3680  157.0780 C   0  0  0  0  0  3  0  0  0  0  0  0
  164.7480  211.5300  156.1110 C   0  0  0  0  0  0  0  0  0  0  0  0
  167.0740  213.0160  155.4880 C   0  0  0  0  0  3  0  0  0  0  0  0
  162.0290  208.7240  148.8400 C   0  0  0  0  0  2  0  0  0  0  0  0
  162.9960  207.5820  148.4850 C   0  0  0  0  0  2  0  0  0  0  0  0
  162.4140  205.1530  148.2750 C   0  0  0  0  0  2  0  0  0  0  0  0
  162.3820  206.5210  147.5340 C   0  0  1  0  0  0  0  0  0  0  0  0
  160.9300  207.0010  147.1840 C   0  0  2  0  0  3  0  0  0  0  0  0
  163.1620  206.4260  146.3770 O   0  0  0  0  0  1  0  0  0  0  0  0
  160.2440  205.6210  149.1970 C   0  0  0  0  0  2  0  0  0  0  0  0
  161.0660  204.6170  148.5270 N   0  0  2  0  0  0  0  0  0  0  0  0
  159.8150  206.6760  148.1900 C   0  0  0  0  0  2  0  0  0  0  0  0
  160.8390  200.5400  150.5250 C   0  0  0  0  0  2  0  0  0  0  0  0
  161.1320  202.8060  151.7770 C   0  0  0  0  0  2  0  0  0  0  0  0
  160.5390  202.1170  148.5020 C   0  0  2  0  0  3  0  0  0  0  0  0
  161.7230  201.4190  151.4400 C   0  0  0  0  0  2  0  0  0  0  0  0
  161.1320  200.8030  149.0370 C   0  0  0  0  0  2  0  0  0  0  0  0
  160.8180  202.2140  147.1570 F   0  0  0  0  0  0  0  0  0  0  0  0
  161.0980  203.3550  149.2760 C   0  0  2  0  0  3  0  0  0  0  0  0
  160.4040  203.5340  150.6290 C   0  0  0  0  0  2  0  0  0  0  0  0
  160.5150  206.7840  145.8330 O   0  0  0  0  0  0  0  0  0  0  0  0
  160.7570  205.6030  145.1000 C   0  0  0  0  0  0  0  0  0  0  0  0
  161.4550  205.7020  143.7810 C   0  0  0  0  0  1  0  0  0  0  0  0
  160.2950  204.4950  145.4940 O   0  0  0  0  0  0  0  0  0  0  0  0
  1  6  1  0  0  0  0
  2 11  1  0  0  0  0
  3  1  2  0  0  0  0
  4 13  2  0  0  0  0
  4  9  1  0  0  0  0
  5  8  1  0  0  0  0
  6  4  1  0  0  0  0
  7 12  2  0  0  0  0
  8 13  1  0  0  0  0
  9 12  1  0  0  0  0
 10  2  2  0  0  0  0
 10  3  1  0  0  0  0
 11  5  1  0  0  0  0
 11  6  2  0  0  0  0
 13  7  1  0  0  0  0
 14  9  1  0  0  0  0
 14 15  1  1  0  0  0
 14 28  1  0  0  0  0
 16 17  1  0  0  0  0
 16 15  2  0  0  0  0
 17 18  1  1  0  0  0
 18 19  1  0  0  0  0
 20 22  1  6  0  0  0
 20 17  1  0  0  0  0
 22 21  1  0  0  0  0
 23 20  1  0  0  0  0
 25 23  1  0  0  0  0
 26 24  2  0  0  0  0
 26 25  1  0  0  0  0
 27 26  1  0  0  0  0
 29 31  2  0  0  0  0
 29 34  1  0  0  0  0
 30 32  1  0  0  0  0
 31 33  1  0  0  0  0
 33 28  1  0  0  0  0
 33 32  2  0  0  0  0
 34 30  2  0  0  0  0
 35 10  1  0  0  0  0
 36 35  1  0  0  0  0
 38 40  1  6  0  0  0
 38 37  1  0  0  0  0
 38 36  1  0  0  0  0
 39 52  1  6  0  0  0
 39 38  1  0  0  0  0
 39 43  1  0  0  0  0
 42 37  1  1  0  0  0
 42 41  1  0  0  0  0
 42 50  1  0  0  0  0
 43 41  1  0  0  0  0
 44 47  1  0  0  0  0
 46 49  1  6  0  0  0
 46 48  1  0  0  0  0
 46 50  1  0  0  0  0
 47 45  1  0  0  0  0
 48 44  1  0  0  0  0
 50 51  1  1  0  0  0
 51 45  1  0  0  0  0
 53 55  2  0  0  0  0
 53 52  1  0  0  0  0
 54 53  1  0  0  0  0
M  END
>  <MODEL>
1

>  <REMARK>
 VINA RESULT:      -4.6      0.000      0.000
  Name = 
  16 active torsions:
  status: ('A' for Active; 'I' for Inactive)
    1  A    between atoms: C_4  and  O_27
    2  A    between atoms: C_5  and  C_18
    3  A    between atoms: C_8  and  O_27
    4  A    between atoms: N_10  and  O_55
    5  A    between atoms: C_11  and  CA_20
    6  A    between atoms: N_14  and  C_39
    7  A    between atoms: N_14  and  C_43
    8  A    between atoms: C_18  and  C_37
    9  A    between atoms: CA_20  and  C_45
   10  A    between atoms: CA_20  and  N_51
   11  A    between atoms: C_26  and  C_43
   12  A    between atoms: N_35  and  C_52
   13  A    between atoms: C_37  and  C_44
   14  A    between atoms: N_41  and  C_43
   15  A    between atoms: C_45  and  C_48
   16  A    between atoms: C_45  and  O_55
                            x       y       z     vdW  Elec       q    Type
                         _______ _______ _______ _____ _____    ______ ____

>  <TORSDO>
F 16

$$$$
=
 OpenBabel11072410043D

 55 60  0  0  1  0  0  0  0  0999 V2000
  161.4440  209.6820  151.8330 C   0  0  0  0  0  3  0  0  0  0  0  0
  162.0010  206.9370  151.6150 C   0  0  0  0  0  3  0  0  0  0  0  0
  162.1790  209.1930  150.7470 C   0  0  0  0  0  3  0  0  0  0  0  0
  160.4080  209.2590  154.1300 C   0  0  0  0  0  0  0  0  0  0  0  0
  160.8220  206.4590  153.7630 C   0  0  0  0  0  2  0  0  0  0  0  0
  160.9860  208.7900  152.8340 C   0  0  0  0  0  0  0  0  0  0  0  0
  160.1560  209.1990  156.3690 N   0  0  0  0  0  0  0  0  0  0  0  0
  160.9260  207.0480  155.1730 C   0  0  0  0  0  2  0  0  0  0  0  0
  159.9690  210.5770  154.5020 N   0  0  0  0  0  0  0  0  0  0  0  0
  162.4480  207.8140  150.6240 C   0  0  0  0  0  0  0  0  0  0  0  0
  161.3090  207.4280  152.7210 C   0  0  0  0  0  0  0  0  0  0  0  0
  159.8590  210.5660  155.9630 C   0  0  0  0  0  3  0  0  0  0  0  0
  160.4520  208.4760  155.1880 C   0  0  0  0  0  0  0  0  0  0  0  0
  160.3120  211.8330  153.7860 C   0  0  1  0  0  3  0  0  0  0  0  0
  159.8340  211.7990  152.3640 C   0  0  0  0  0  3  0  0  0  0  0  0
  160.0740  212.7690  151.5570 N   0  0  0  0  0  0  0  0  0  0  0  0
  159.6450  212.7310  150.1690 C   0  0  2  0  0  3  0  0  0  0  0  0
  160.8390  212.6130  149.1920 C   0  0  0  0  0  2  0  0  0  0  0  0
  161.5630  213.8040  149.1100 O   0  0  0  0  0  1  0  0  0  0  0  0
  158.9300  214.0670  149.8810 C   0  0  2  0  0  3  0  0  0  0  0  0
  156.4650  213.7040  150.4230 C   0  0  0  0  0  1  0  0  0  0  0  0
  157.7400  214.4530  150.7900 C   0  0  0  0  0  2  0  0  0  0  0  0
  158.9170  214.4530  148.5090 O   0  0  0  0  0  0  0  0  0  0  0  0
  158.7810  212.6460  146.2640 N   0  0  0  0  0  2  0  0  0  0  0  0
  157.7790  214.0270  147.9090 N   0  0  0  0  0  2  0  0  0  0  0  0
  157.7640  213.3490  146.6320 C   0  0  0  0  0  0  0  0  0  0  0  0
  156.9250  213.9370  145.5460 C   0  0  0  0  0  1  0  0  0  0  0  0
  159.7060  212.9710  154.4650 N   0  0  0  0  0  2  0  0  0  0  0  0
  155.9450  212.8540  154.3640 C   0  0  0  0  0  3  0  0  0  0  0  0
  156.6260  213.1420  156.6780 C   0  0  0  0  0  3  0  0  0  0  0  0
  157.2900  212.8610  153.9670 C   0  0  0  0  0  3  0  0  0  0  0  0
  157.9800  213.1410  156.2750 C   0  0  0  0  0  3  0  0  0  0  0  0
  158.3280  213.0130  154.9110 C   0  0  0  0  0  0  0  0  0  0  0  0
  155.6160  212.9820  155.7190 C   0  0  0  0  0  3  0  0  0  0  0  0
  163.2960  207.2800  149.5020 C   0  0  0  0  0  2  0  0  0  0  0  0
  162.7290  207.7160  148.1400 C   0  0  0  0  0  2  0  0  0  0  0  0
  162.3120  205.2450  148.1360 C   0  0  0  0  0  2  0  0  0  0  0  0
  162.2370  206.5330  147.2650 C   0  0  1  0  0  0  0  0  0  0  0  0
  160.7810  206.8800  146.7960 C   0  0  2  0  0  3  0  0  0  0  0  0
  163.0870  206.3840  146.1650 O   0  0  0  0  0  1  0  0  0  0  0  0
  160.0670  205.6490  148.8950 C   0  0  0  0  0  2  0  0  0  0  0  0
  160.9880  204.6450  148.3680 N   0  0  2  0  0  0  0  0  0  0  0  0
  159.6330  206.5740  147.7710 C   0  0  0  0  0  2  0  0  0  0  0  0
  160.8720  200.7780  150.7560 C   0  0  0  0  0  2  0  0  0  0  0  0
  161.1250  203.1610  151.7780 C   0  0  0  0  0  2  0  0  0  0  0  0
  160.5170  202.1430  148.5920 C   0  0  2  0  0  3  0  0  0  0  0  0
  161.7440  201.7610  151.5700 C   0  0  0  0  0  2  0  0  0  0  0  0
  161.1450  200.9010  149.2460 C   0  0  0  0  0  2  0  0  0  0  0  0
  160.7810  202.1140  147.2410 F   0  0  0  0  0  0  0  0  0  0  0  0
  161.0550  203.4630  149.2360 C   0  0  2  0  0  3  0  0  0  0  0  0
  160.3700  203.7580  150.5730 C   0  0  0  0  0  2  0  0  0  0  0  0
  160.4590  206.5100  145.4530 O   0  0  0  0  0  0  0  0  0  0  0  0
  160.0940  205.2100  145.0450 C   0  0  0  0  0  0  0  0  0  0  0  0
  161.1700  204.2470  144.6550 C   0  0  0  0  0  1  0  0  0  0  0  0
  158.8790  204.8990  144.9010 O   0  0  0  0  0  0  0  0  0  0  0  0
  1  6  1  0  0  0  0
  2 11  1  0  0  0  0
  3  1  2  0  0  0  0
  4  9  1  0  0  0  0
  4 13  2  0  0  0  0
  5  8  1  0  0  0  0
  6  4  1  0  0  0  0
  8 13  1  0  0  0  0
  9 12  1  0  0  0  0
 10  3  1  0  0  0  0
 10  2  2  0  0  0  0
 11  6  2  0  0  0  0
 11  5  1  0  0  0  0
 12  7  2  0  0  0  0
 13  7  1  0  0  0  0
 14 15  1  6  0  0  0
 14 28  1  0  0  0  0
 14  9  1  0  0  0  0
 16 15  2  0  0  0  0
 17 18  1  6  0  0  0
 17 16  1  0  0  0  0
 19 18  1  0  0  0  0
 20 17  1  0  0  0  0
 20 22  1  6  0  0  0
 21 22  1  0  0  0  0
 23 20  1  0  0  0  0
 24 26  2  0  0  0  0
 25 23  1  0  0  0  0
 26 25  1  0  0  0  0
 27 26  1  0  0  0  0
 28 33  1  0  0  0  0
 29 34  1  0  0  0  0
 31 29  2  0  0  0  0
 31 33  1  0  0  0  0
 32 30  1  0  0  0  0
 33 32  2  0  0  0  0
 34 30  2  0  0  0  0
 35 10  1  0  0  0  0
 36 35  1  0  0  0  0
 38 40  1  6  0  0  0
 38 37  1  0  0  0  0
 38 36  1  0  0  0  0
 39 52  1  6  0  0  0
 39 38  1  0  0  0  0
 39 43  1  0  0  0  0
 42 37  1  1  0  0  0
 42 41  1  0  0  0  0
 42 50  1  0  0  0  0
 43 41  1  0  0  0  0
 44 47  1  0  0  0  0
 46 49  1  6  0  0  0
 46 50  1  0  0  0  0
 46 48  1  0  0  0  0
 47 45  1  0  0  0  0
 48 44  1  0  0  0  0
 50 51  1  1  0  0  0
 51 45  1  0  0  0  0
 53 52  1  0  0  0  0
 54 53  1  0  0  0  0
 55 53  2  0  0  0  0
M  END
>  <MODEL>
2

>  <REMARK>
 VINA RESULT:      -4.6      2.726      4.265
  Name = 
  16 active torsions:
  status: ('A' for Active; 'I' for Inactive)
    1  A    between atoms: C_4  and  O_27
    2  A    between atoms: C_5  and  C_18
    3  A    between atoms: C_8  and  O_27
    4  A    between atoms: N_10  and  O_55
    5  A    between atoms: C_11  and  CA_20
    6  A    between atoms: N_14  and  C_39
    7  A    between atoms: N_14  and  C_43
    8  A    between atoms: C_18  and  C_37
    9  A    between atoms: CA_20  and  C_45
   10  A    between atoms: CA_20  and  N_51
   11  A    between atoms: C_26  and  C_43
   12  A    between atoms: N_35  and  C_52
   13  A    between atoms: C_37  and  C_44
   14  A    between atoms: N_41  and  C_43
   15  A    between atoms: C_45  and  C_48
   16  A    between atoms: C_45  and  O_55
                            x       y       z     vdW  Elec       q    Type
                         _______ _______ _______ _____ _____    ______ ____

>  <TORSDO>
F 16

$$$$
=
 OpenBabel11072410043D

 55 60  0  0  1  0  0  0  0  0999 V2000
  161.0630  210.2910  151.0740 C   0  0  0  0  0  3  0  0  0  0  0  0
  162.3180  209.7790  148.6140 C   0  0  0  0  0  3  0  0  0  0  0  0
  161.5230  209.0050  150.7680 C   0  0  0  0  0  3  0  0  0  0  0  0
  160.5540  212.6670  150.2870 C   0  0  0  0  0  0  0  0  0  0  0  0
  162.0120  212.1480  147.8890 C   0  0  0  0  0  2  0  0  0  0  0  0
  161.2220  211.3390  150.1350 C   0  0  0  0  0  0  0  0  0  0  0  0
  159.4110  214.4530  149.5220 N   0  0  0  0  0  0  0  0  0  0  0  0
  160.8000  213.0840  147.8350 C   0  0  0  0  0  2  0  0  0  0  0  0
  159.8970  213.2240  151.4380 N   0  0  0  0  0  0  0  0  0  0  0  0
  162.1680  208.7450  149.5410 C   0  0  0  0  0  0  0  0  0  0  0  0
  161.8190  211.0500  148.8970 C   0  0  0  0  0  0  0  0  0  0  0  0
  159.1040  214.3520  150.9410 C   0  0  0  0  0  3  0  0  0  0  0  0
  160.3170  213.4070  149.2230 C   0  0  0  0  0  0  0  0  0  0  0  0
  159.4440  212.4570  152.6280 C   0  0  1  0  0  3  0  0  0  0  0  0
  160.5900  211.7400  153.2820 C   0  0  0  0  0  3  0  0  0  0  0  0
  160.7340  211.7430  154.5580 N   0  0  0  0  0  0  0  0  0  0  0  0
  161.8200  211.0250  155.2040 C   0  0  2  0  0  3  0  0  0  0  0  0
  162.7280  210.2980  154.1830 C   0  0  0  0  0  2  0  0  0  0  0  0
  164.0240  210.8170  154.1780 O   0  0  0  0  0  1  0  0  0  0  0  0
  161.1800  209.9560  156.1110 C   0  0  2  0  0  3  0  0  0  0  0  0
  160.0720  211.9450  157.2600 C   0  0  0  0  0  1  0  0  0  0  0  0
  160.1220  210.4280  157.1370 C   0  0  0  0  0  2  0  0  0  0  0  0
  162.0310  208.8610  156.4380 O   0  0  0  0  0  0  0  0  0  0  0  0
  160.9480  207.1380  154.3930 N   0  0  0  0  0  2  0  0  0  0  0  0
  161.2990  207.7420  156.6570 N   0  0  0  0  0  2  0  0  0  0  0  0
  160.5520  207.0680  155.6180 C   0  0  0  0  0  0  0  0  0  0  0  0
  159.0920  206.8560  155.8430 C   0  0  0  0  0  1  0  0  0  0  0  0
  158.8310  213.3580  153.5940 N   0  0  0  0  0  2  0  0  0  0  0  0
  155.8510  211.5850  155.0610 C   0  0  0  0  0  3  0  0  0  0  0  0
  155.4420  213.9770  155.1900 C   0  0  0  0  0  3  0  0  0  0  0  0
  157.0890  211.8300  154.4480 C   0  0  0  0  0  3  0  0  0  0  0  0
  156.6930  214.2190  154.5800 C   0  0  0  0  0  3  0  0  0  0  0  0
  157.5270  213.1460  154.1890 C   0  0  0  0  0  0  0  0  0  0  0  0
  155.0370  212.6590  155.4420 C   0  0  0  0  0  3  0  0  0  0  0  0
  162.6030  207.3560  149.1660 C   0  0  0  0  0  2  0  0  0  0  0  0
  162.9670  207.2880  147.6720 C   0  0  0  0  0  2  0  0  0  0  0  0
  162.3020  204.8750  147.7980 C   0  0  0  0  0  2  0  0  0  0  0  0
  162.2410  206.1490  146.9070 C   0  0  1  0  0  0  0  0  0  0  0  0
  160.7780  206.6420  146.6280 C   0  0  2  0  0  3  0  0  0  0  0  0
  162.9130  205.8940  145.7070 O   0  0  0  0  0  1  0  0  0  0  0  0
  160.2360  205.5270  148.8400 C   0  0  0  0  0  2  0  0  0  0  0  0
  160.9670  204.4230  148.2250 N   0  0  2  0  0  0  0  0  0  0  0  0
  159.7490  206.4750  147.7570 C   0  0  0  0  0  2  0  0  0  0  0  0
  160.8280  200.6000  150.6810 C   0  0  0  0  0  2  0  0  0  0  0  0
  161.1570  202.9940  151.6550 C   0  0  0  0  0  2  0  0  0  0  0  0
  160.4500  201.9360  148.5030 C   0  0  2  0  0  3  0  0  0  0  0  0
  161.7400  201.5770  151.4570 C   0  0  0  0  0  2  0  0  0  0  0  0
  161.0660  200.6910  149.1620 C   0  0  0  0  0  2  0  0  0  0  0  0
  160.6800  201.8790  147.1470 F   0  0  0  0  0  0  0  0  0  0  0  0
  161.0310  203.2540  149.1110 C   0  0  2  0  0  3  0  0  0  0  0  0
  160.3850  203.5860  150.4580 C   0  0  0  0  0  2  0  0  0  0  0  0
  160.2390  206.2870  145.3530 O   0  0  0  0  0  0  0  0  0  0  0  0
  160.7540  205.2730  144.5180 C   0  0  0  0  0  0  0  0  0  0  0  0
  160.5070  203.8430  144.8830 C   0  0  0  0  0  1  0  0  0  0  0  0
  161.5050  205.5600  143.5440 O   0  0  0  0  0  0  0  0  0  0  0  0
  2 11  2  0  0  0  0
  2 10  1  0  0  0  0
  3  1  1  0  0  0  0
  4  9  1  0  0  0  0
  5 11  1  0  0  0  0
  6  4  1  0  0  0  0
  6  1  2  0  0  0  0
  7 12  2  0  0  0  0
  8  5  1  0  0  0  0
  8 13  1  0  0  0  0
  9 14  1  0  0  0  0
 10  3  2  0  0  0  0
 11  6  1  0  0  0  0
 12  9  1  0  0  0  0
 13  7  1  0  0  0  0
 13  4  2  0  0  0  0
 14 15  1  1  0  0  0
 14 28  1  0  0  0  0
 15 16  2  0  0  0  0
 16 17  1  0  0  0  0
 17 18  1  6  0  0  0
 17 20  1  0  0  0  0
 19 18  1  0  0  0  0
 20 23  1  0  0  0  0
 20 22  1  1  0  0  0
 22 21  1  0  0  0  0
 23 25  1  0  0  0  0
 24 26  2  0  0  0  0
 26 27  1  0  0  0  0
 26 25  1  0  0  0  0
 28 33  1  0  0  0  0
 29 34  1  0  0  0  0
 30 34  2  0  0  0  0
 31 29  2  0  0  0  0
 32 30  1  0  0  0  0
 33 31  1  0  0  0  0
 33 32  2  0  0  0  0
 35 10  1  0  0  0  0
 36 35  1  0  0  0  0
 38 40  1  6  0  0  0
 38 36  1  0  0  0  0
 38 37  1  0  0  0  0
 39 52  1  6  0  0  0
 39 38  1  0  0  0  0
 39 43  1  0  0  0  0
 42 37  1  1  0  0  0
 42 41  1  0  0  0  0
 42 50  1  0  0  0  0
 43 41  1  0  0  0  0
 44 47  1  0  0  0  0
 46 49  1  6  0  0  0
 46 50  1  0  0  0  0
 46 48  1  0  0  0  0
 47 45  1  0  0  0  0
 48 44  1  0  0  0  0
 50 51  1  1  0  0  0
 51 45  1  0  0  0  0
 53 54  1  0  0  0  0
 53 52  1  0  0  0  0
 55 53  2  0  0  0  0
M  END
>  <MODEL>
3

>  <REMARK>
 VINA RESULT:      -3.5      2.252      5.466
  Name = 
  16 active torsions:
  status: ('A' for Active; 'I' for Inactive)
    1  A    between atoms: C_4  and  O_27
    2  A    between atoms: C_5  and  C_18
    3  A    between atoms: C_8  and  O_27
    4  A    between atoms: N_10  and  O_55
    5  A    between atoms: C_11  and  CA_20
    6  A    between atoms: N_14  and  C_39
    7  A    between atoms: N_14  and  C_43
    8  A    between atoms: C_18  and  C_37
    9  A    between atoms: CA_20  and  C_45
   10  A    between atoms: CA_20  and  N_51
   11  A    between atoms: C_26  and  C_43
   12  A    between atoms: N_35  and  C_52
   13  A    between atoms: C_37  and  C_44
   14  A    between atoms: N_41  and  C_43
   15  A    between atoms: C_45  and  C_48
   16  A    between atoms: C_45  and  O_55
                            x       y       z     vdW  Elec       q    Type
                         _______ _______ _______ _____ _____    ______ ____

>  <TORSDO>
F 16

$$$$
=
 OpenBabel11072410043D

 55 60  0  0  1  0  0  0  0  0999 V2000
  161.0090  210.1910  151.5340 C   0  0  0  0  0  3  0  0  0  0  0  0
  162.2130  209.9570  149.0060 C   0  0  0  0  0  3  0  0  0  0  0  0
  161.4860  208.9530  151.0880 C   0  0  0  0  0  3  0  0  0  0  0  0
  160.4360  212.6230  151.0040 C   0  0  0  0  0  0  0  0  0  0  0  0
  161.8440  212.3810  148.5320 C   0  0  0  0  0  2  0  0  0  0  0  0
  161.1250  211.3320  150.7030 C   0  0  0  0  0  0  0  0  0  0  0  0
  159.2410  214.4520  150.4490 N   0  0  0  0  0  0  0  0  0  0  0  0
  160.6140  213.2900  148.6010 C   0  0  0  0  0  2  0  0  0  0  0  0
  159.7970  213.0470  152.2200 N   0  0  0  0  0  0  0  0  0  0  0  0
  162.1050  208.8320  149.8270 C   0  0  0  0  0  0  0  0  0  0  0  0
  161.6970  211.1820  149.4280 C   0  0  0  0  0  0  0  0  0  0  0  0
  158.9700  214.2020  151.8580 C   0  0  0  0  0  3  0  0  0  0  0  0
  160.1590  213.4610  150.0260 C   0  0  0  0  0  0  0  0  0  0  0  0
  159.3890  212.1540  153.3350 C   0  0  1  0  0  3  0  0  0  0  0  0
  160.5800  211.6650  154.1060 C   0  0  0  0  0  3  0  0  0  0  0  0
  160.5240  210.5900  154.8070 N   0  0  0  0  0  0  0  0  0  0  0  0
  161.6800  210.0900  155.5320 C   0  0  2  0  0  3  0  0  0  0  0  0
  161.5360  208.5930  155.8980 C   0  0  0  0  0  2  0  0  0  0  0  0
  161.6770  207.7690  154.7790 O   0  0  0  0  0  1  0  0  0  0  0  0
  161.7710  210.8900  156.8460 C   0  0  2  0  0  3  0  0  0  0  0  0
  160.8270  213.2260  157.2410 C   0  0  0  0  0  1  0  0  0  0  0  0
  160.5400  211.7300  157.2600 C   0  0  0  0  0  2  0  0  0  0  0  0
  163.0780  211.3570  157.1730 O   0  0  0  0  0  0  0  0  0  0  0  0
  165.9410  211.7050  157.2610 N   0  0  0  0  0  2  0  0  0  0  0  0
  163.9300  211.1360  156.1420 N   0  0  0  0  0  2  0  0  0  0  0  0
  165.3070  211.5790  156.1440 C   0  0  0  0  0  0  0  0  0  0  0  0
  165.7560  212.4450  155.0140 C   0  0  0  0  0  1  0  0  0  0  0  0
  158.4960  212.8660  154.2390 N   0  0  0  0  0  2  0  0  0  0  0  0
  155.6180  210.5820  155.0590 C   0  0  0  0  0  3  0  0  0  0  0  0
  156.1260  211.8920  157.0410 C   0  0  0  0  0  3  0  0  0  0  0  0
  156.6400  211.2410  154.3610 C   0  0  0  0  0  3  0  0  0  0  0  0
  157.1600  212.5490  156.3360 C   0  0  0  0  0  3  0  0  0  0  0  0
  157.4210  212.2390  154.9820 C   0  0  0  0  0  0  0  0  0  0  0  0
  155.3720  210.9000  156.4010 C   0  0  0  0  0  3  0  0  0  0  0  0
  162.5580  207.4970  149.3020 C   0  0  0  0  0  2  0  0  0  0  0  0
  162.7920  207.5640  147.7830 C   0  0  0  0  0  2  0  0  0  0  0  0
  162.4020  205.1070  148.0860 C   0  0  0  0  0  2  0  0  0  0  0  0
  162.4110  206.2570  147.0380 C   0  0  1  0  0  0  0  0  0  0  0  0
  161.0120  206.4980  146.3700 C   0  0  2  0  0  3  0  0  0  0  0  0
  163.3780  205.9760  146.0680 O   0  0  0  0  0  1  0  0  0  0  0  0
  160.0830  205.5580  148.5340 C   0  0  0  0  0  2  0  0  0  0  0  0
  161.0660  204.5130  148.2580 N   0  0  2  0  0  0  0  0  0  0  0  0
  159.7660  206.3040  147.2500 C   0  0  0  0  0  2  0  0  0  0  0  0
  160.6390  201.0760  151.2030 C   0  0  0  0  0  2  0  0  0  0  0  0
  161.2910  203.5170  151.8360 C   0  0  0  0  0  2  0  0  0  0  0  0
  160.2880  202.1610  148.8860 C   0  0  2  0  0  3  0  0  0  0  0  0
  161.6990  202.0270  151.8030 C   0  0  0  0  0  2  0  0  0  0  0  0
  160.7980  200.9450  149.6770 C   0  0  0  0  0  2  0  0  0  0  0  0
  160.4320  201.9050  147.5400 F   0  0  0  0  0  0  0  0  0  0  0  0
  161.0490  203.4670  149.2880 C   0  0  2  0  0  3  0  0  0  0  0  0
  160.5230  204.0410  150.6060 C   0  0  0  0  0  2  0  0  0  0  0  0
  160.8430  205.9360  145.0680 O   0  0  0  0  0  0  0  0  0  0  0  0
  160.7510  204.5540  144.7960 C   0  0  0  0  0  0  0  0  0  0  0  0
  162.0030  203.7360  144.7860 C   0  0  0  0  0  1  0  0  0  0  0  0
  159.6500  204.0370  144.4570 O   0  0  0  0  0  0  0  0  0  0  0  0
  2 11  2  0  0  0  0
  2 10  1  0  0  0  0
  3  1  1  0  0  0  0
  4  9  1  0  0  0  0
  5  8  1  0  0  0  0
  5 11  1  0  0  0  0
  6  4  1  0  0  0  0
  6  1  2  0  0  0  0
  7 12  2  0  0  0  0
  8 13  1  0  0  0  0
  9 14  1  0  0  0  0
 10  3  2  0  0  0  0
 11  6  1  0  0  0  0
 12  9  1  0  0  0  0
 13  7  1  0  0  0  0
 13  4  2  0  0  0  0
 14 15  1  1  0  0  0
 14 28  1  0  0  0  0
 15 16  2  0  0  0  0
 16 17  1  0  0  0  0
 17 18  1  1  0  0  0
 17 20  1  0  0  0  0
 19 18  1  0  0  0  0
 20 23  1  0  0  0  0
 20 22  1  6  0  0  0
 21 22  1  0  0  0  0
 25 26  1  0  0  0  0
 25 23  1  0  0  0  0
 26 24  2  0  0  0  0
 27 26  1  0  0  0  0
 28 33  1  0  0  0  0
 29 34  1  0  0  0  0
 31 33  1  0  0  0  0
 31 29  2  0  0  0  0
 32 30  1  0  0  0  0
 33 32  2  0  0  0  0
 34 30  2  0  0  0  0
 35 10  1  0  0  0  0
 36 35  1  0  0  0  0
 38 40  1  6  0  0  0
 38 36  1  0  0  0  0
 38 37  1  0  0  0  0
 39 52  1  6  0  0  0
 39 38  1  0  0  0  0
 39 43  1  0  0  0  0
 42 37  1  1  0  0  0
 42 41  1  0  0  0  0
 42 50  1  0  0  0  0
 43 41  1  0  0  0  0
 44 47  1  0  0  0  0
 46 49  1  6  0  0  0
 46 50  1  0  0  0  0
 46 48  1  0  0  0  0
 47 45  1  0  0  0  0
 48 44  1  0  0  0  0
 50 51  1  1  0  0  0
 51 45  1  0  0  0  0
 53 52  1  0  0  0  0
 54 53  1  0  0  0  0
 55 53  2  0  0  0  0
M  END
>  <MODEL>
4

>  <REMARK>
 VINA RESULT:      -3.2      1.884      5.390
  Name = 
  16 active torsions:
  status: ('A' for Active; 'I' for Inactive)
    1  A    between atoms: C_4  and  O_27
    2  A    between atoms: C_5  and  C_18
    3  A    between atoms: C_8  and  O_27
    4  A    between atoms: N_10  and  O_55
    5  A    between atoms: C_11  and  CA_20
    6  A    between atoms: N_14  and  C_39
    7  A    between atoms: N_14  and  C_43
    8  A    between atoms: C_18  and  C_37
    9  A    between atoms: CA_20  and  C_45
   10  A    between atoms: CA_20  and  N_51
   11  A    between atoms: C_26  and  C_43
   12  A    between atoms: N_35  and  C_52
   13  A    between atoms: C_37  and  C_44
   14  A    between atoms: N_41  and  C_43
   15  A    between atoms: C_45  and  C_48
   16  A    between atoms: C_45  and  O_55
                            x       y       z     vdW  Elec       q    Type
                         _______ _______ _______ _____ _____    ______ ____

>  <TORSDO>
F 16

$$$$
=
 OpenBabel11072410043D

 55 60  0  0  1  0  0  0  0  0999 V2000
  160.7170  209.5890  152.3210 C   0  0  0  0  0  3  0  0  0  0  0  0
  162.2950  208.8010  150.1350 C   0  0  0  0  0  3  0  0  0  0  0  0
  161.1030  208.2520  152.1730 C   0  0  0  0  0  3  0  0  0  0  0  0
  160.5520  211.9330  151.3200 C   0  0  0  0  0  0  0  0  0  0  0  0
  162.3200  211.1270  149.2290 C   0  0  0  0  0  2  0  0  0  0  0  0
  161.1150  210.5500  151.3600 C   0  0  0  0  0  0  0  0  0  0  0  0
  159.7090  213.7420  150.2720 N   0  0  0  0  0  0  0  0  0  0  0  0
  161.2200  212.1470  148.9210 C   0  0  0  0  0  2  0  0  0  0  0  0
  159.7740  212.6230  152.3120 N   0  0  0  0  0  0  0  0  0  0  0  0
  161.9080  207.8530  151.0850 C   0  0  0  0  0  0  0  0  0  0  0  0
  161.8730  210.1240  150.2560 C   0  0  0  0  0  0  0  0  0  0  0  0
  159.1720  213.7700  151.6250 C   0  0  0  0  0  3  0  0  0  0  0  0
  160.5540  212.6090  150.1890 C   0  0  0  0  0  0  0  0  0  0  0  0
  159.0720  211.9840  153.4550 C   0  0  1  0  0  3  0  0  0  0  0  0
  159.8730  212.0990  154.7200 C   0  0  0  0  0  3  0  0  0  0  0  0
  159.5910  211.3900  155.7530 N   0  0  0  0  0  0  0  0  0  0  0  0
  160.3790  211.4700  156.9710 C   0  0  2  0  0  3  0  0  0  0  0  0
  160.8630  212.9110  157.2600 C   0  0  0  0  0  2  0  0  0  0  0  0
  159.9030  213.8610  156.9060 O   0  0  0  0  0  1  0  0  0  0  0  0
  161.6260  210.5870  156.7620 C   0  0  2  0  0  3  0  0  0  0  0  0
  163.8340  210.9680  155.5450 C   0  0  0  0  0  1  0  0  0  0  0  0
  163.0080  211.2830  156.7860 C   0  0  0  0  0  2  0  0  0  0  0  0
  161.4250  209.4590  155.9150 O   0  0  0  0  0  0  0  0  0  0  0  0
  161.0090  206.7700  154.9550 N   0  0  0  0  0  2  0  0  0  0  0  0
  160.7690  208.4780  156.5810 N   0  0  0  0  0  2  0  0  0  0  0  0
  160.3490  207.2420  155.9580 C   0  0  0  0  0  0  0  0  0  0  0  0
  158.9030  206.8830  156.0410 C   0  0  0  0  0  1  0  0  0  0  0  0
  157.7740  212.6120  153.6550 N   0  0  0  0  0  2  0  0  0  0  0  0
  155.4120  210.5310  155.7200 C   0  0  0  0  0  3  0  0  0  0  0  0
  155.6250  212.7050  156.7840 C   0  0  0  0  0  3  0  0  0  0  0  0
  156.2850  210.9430  154.7020 C   0  0  0  0  0  3  0  0  0  0  0  0
  156.5110  213.1140  155.7610 C   0  0  0  0  0  3  0  0  0  0  0  0
  156.8420  212.2400  154.7000 C   0  0  0  0  0  0  0  0  0  0  0  0
  155.0940  211.4080  156.7640 C   0  0  0  0  0  3  0  0  0  0  0  0
  162.2720  206.4100  150.8710 C   0  0  0  0  0  2  0  0  0  0  0  0
  161.4140  205.4970  151.7640 C   0  0  0  0  0  2  0  0  0  0  0  0
  160.4360  205.0290  149.5040 C   0  0  0  0  0  2  0  0  0  0  0  0
  160.5270  204.5040  150.9670 C   0  0  1  0  0  0  0  0  0  0  0  0
  161.2010  203.0920  151.0780 C   0  0  2  0  0  3  0  0  0  0  0  0
  159.2430  204.4820  151.5190 O   0  0  0  0  0  1  0  0  0  0  0  0
  162.4010  203.7600  148.9470 C   0  0  0  0  0  2  0  0  0  0  0  0
  161.0420  204.1010  148.5350 N   0  0  2  0  0  0  0  0  0  0  0  0
  162.3470  202.7770  150.1030 C   0  0  0  0  0  2  0  0  0  0  0  0
  161.2310  205.3560  144.1700 C   0  0  0  0  0  2  0  0  0  0  0  0
  161.0810  206.9910  146.1930 C   0  0  0  0  0  2  0  0  0  0  0  0
  161.4800  203.6180  146.0640 C   0  0  2  0  0  3  0  0  0  0  0  0
  160.4270  206.4560  144.9000 C   0  0  0  0  0  2  0  0  0  0  0  0
  160.8710  203.9540  144.6930 C   0  0  0  0  0  2  0  0  0  0  0  0
  161.1360  202.3280  146.3990 F   0  0  0  0  0  0  0  0  0  0  0  0
  161.0050  204.6240  147.1640 C   0  0  2  0  0  3  0  0  0  0  0  0
  161.7740  205.9450  147.0890 C   0  0  0  0  0  2  0  0  0  0  0  0
  160.3050  201.9890  151.2280 O   0  0  0  0  0  0  0  0  0  0  0  0
  160.0100  201.0510  150.2160 C   0  0  0  0  0  0  0  0  0  0  0  0
  158.6260  201.0110  149.6500 C   0  0  0  0  0  1  0  0  0  0  0  0
  160.8630  200.1860  149.8730 O   0  0  0  0  0  0  0  0  0  0  0  0
  2 11  2  0  0  0  0
  2 10  1  0  0  0  0
  3  1  1  0  0  0  0
  4  6  1  0  0  0  0
  4  9  1  0  0  0  0
  5 11  1  0  0  0  0
  6  1  2  0  0  0  0
  7 12  2  0  0  0  0
  8  5  1  0  0  0  0
  8 13  1  0  0  0  0
  9 14  1  0  0  0  0
 10  3  2  0  0  0  0
 11  6  1  0  0  0  0
 12  9  1  0  0  0  0
 13  7  1  0  0  0  0
 13  4  2  0  0  0  0
 14 28  1  0  0  0  0
 14 15  1  1  0  0  0
 15 16  2  0  0  0  0
 16 17  1  0  0  0  0
 17 18  1  6  0  0  0
 19 18  1  0  0  0  0
 20 22  1  6  0  0  0
 20 17  1  0  0  0  0
 21 22  1  0  0  0  0
 23 25  1  0  0  0  0
 23 20  1  0  0  0  0
 24 26  2  0  0  0  0
 26 27  1  0  0  0  0
 26 25  1  0  0  0  0
 28 33  1  0  0  0  0
 29 34  1  0  0  0  0
 31 29  2  0  0  0  0
 32 30  1  0  0  0  0
 33 31  1  0  0  0  0
 33 32  2  0  0  0  0
 34 30  2  0  0  0  0
 35 10  1  0  0  0  0
 35 36  1  0  0  0  0
 37 38  1  0  0  0  0
 38 39  1  0  0  0  0
 38 40  1  1  0  0  0
 38 36  1  0  0  0  0
 39 52  1  6  0  0  0
 41 43  1  0  0  0  0
 42 41  1  1  0  0  0
 42 37  1  0  0  0  0
 43 39  1  0  0  0  0
 44 48  1  0  0  0  0
 44 47  1  0  0  0  0
 45 51  1  0  0  0  0
 46 49  1  1  0  0  0
 46 50  1  0  0  0  0
 47 45  1  0  0  0  0
 48 46  1  0  0  0  0
 50 51  1  1  0  0  0
 50 42  1  0  0  0  0
 53 52  1  0  0  0  0
 54 53  1  0  0  0  0
 55 53  2  0  0  0  0
M  END
>  <MODEL>
5

>  <REMARK>
 VINA RESULT:      -2.0      2.272      6.134
  Name = 
  16 active torsions:
  status: ('A' for Active; 'I' for Inactive)
    1  A    between atoms: C_4  and  O_27
    2  A    between atoms: C_5  and  C_18
    3  A    between atoms: C_8  and  O_27
    4  A    between atoms: N_10  and  O_55
    5  A    between atoms: C_11  and  CA_20
    6  A    between atoms: N_14  and  C_39
    7  A    between atoms: N_14  and  C_43
    8  A    between atoms: C_18  and  C_37
    9  A    between atoms: CA_20  and  C_45
   10  A    between atoms: CA_20  and  N_51
   11  A    between atoms: C_26  and  C_43
   12  A    between atoms: N_35  and  C_52
   13  A    between atoms: C_37  and  C_44
   14  A    between atoms: N_41  and  C_43
   15  A    between atoms: C_45  and  C_48
   16  A    between atoms: C_45  and  O_55
                            x       y       z     vdW  Elec       q    Type
                         _______ _______ _______ _____ _____    ______ ____

>  <TORSDO>
F 16

$$$$
