=
 OpenBabel11072413123D

 34 35  0  0  1  0  0  0  0  0999 V2000
  161.9590  206.0880  153.4960 C   0  0  0  0  0  1  0  0  0  0  0  0
  161.5050  207.0300  152.3600 C   0  0  1  0  0  3  0  0  0  0  0  0
  161.6650  205.2310  150.7190 C   0  0  1  0  0  3  0  0  0  0  0  0
  159.9330  206.2700  149.3140 O   0  0  0  0  0  1  0  0  0  0  0  0
  161.0860  206.3930  150.1250 C   0  0  1  0  0  3  0  0  0  0  0  0
  160.7110  206.1610  151.4490 N   0  0  0  0  0  0  0  0  0  0  0  0
  161.1120  202.9470  151.3530 O   0  0  0  0  0  0  0  0  0  0  0  0
  161.0560  203.8230  150.4430 C   0  0  0  0  0  0  0  0  0  0  0  0
  160.7390  203.3340  149.0580 C   0  0  2  0  0  3  0  0  0  0  0  0
  160.4360  201.8280  149.0830 C   0  0  0  0  0  0  0  0  0  0  0  0
  161.4220  200.8870  148.9220 O   0  0  0  0  0  0  0  0  0  0  0  0
  159.2360  201.4330  149.2100 O   0  0  0  0  0  1  0  0  0  0  0  0
  161.7510  203.6730  148.0690 C   0  0  0  0  0  2  0  0  0  0  0  0
  161.5640  203.3370  146.6570 N   0  0  0  0  0  2  0  0  0  0  0  0
  162.0900  204.4340  145.8050 C   0  0  0  0  0  2  0  0  0  0  0  0
  160.2110  204.0350  144.2810 O   0  0  0  0  0  1  0  0  0  0  0  0
  161.1030  204.9870  144.7400 C   0  0  1  0  0  3  0  0  0  0  0  0
  160.3330  206.1210  145.3390 C   0  0  0  0  0  2  0  0  0  0  0  0
  161.0490  206.6750  146.4440 O   0  0  0  0  0  1  0  0  0  0  0  0
  160.6060  208.1700  152.8830 C   0  0  1  0  0  3  0  0  0  0  0  0
  161.0490  208.4590  154.2730 C   0  0  0  0  0  1  0  0  0  0  0  0
  160.8550  209.4540  151.9970 C   0  0  0  0  0  2  0  0  0  0  0  0
  159.6990  212.7340  151.7570 C   0  0  0  0  0  0  0  0  0  0  0  0
  160.6550  211.9430  151.8240 N   0  0  0  0  0  0  0  0  0  0  0  0
  160.4210  210.8070  152.7470 C   0  0  1  0  0  3  0  0  0  0  0  0
  158.8690  210.9720  152.9560 C   0  0  0  0  0  2  0  0  0  0  0  0
  158.5810  212.3840  152.4910 N   0  0  0  0  0  2  0  0  0  0  0  0
  159.8450  213.9920  150.9000 C   0  0  0  0  0  2  0  0  0  0  0  0
  158.8980  213.5430  148.7460 O   0  0  0  0  0  0  0  0  0  0  0  0
  163.1010  212.3720  147.8920 C   0  0  0  0  0  1  0  0  0  0  0  0
  159.9550  213.7310  149.4280 C   0  0  0  0  0  0  0  0  0  0  0  0
  161.2810  213.6970  148.8510 N   0  0  0  0  0  2  0  0  0  0  0  0
  160.9480  212.2040  147.0440 O   0  0  0  0  0  0  0  0  0  0  0  0
  161.7170  212.7760  147.8380 C   0  0  0  0  0  0  0  0  0  0  0  0
  2 20  1  0  0  0  0
  2  1  1  1  0  0  0
  3  8  1  6  0  0  0
  3  6  1  0  0  0  0
  5  4  1  6  0  0  0
  5  3  1  0  0  0  0
  5  6  1  0  0  0  0
  6  2  1  0  0  0  0
  8  7  2  0  0  0  0
  9 13  1  6  0  0  0
  9 10  1  0  0  0  0
  9  8  1  0  0  0  0
 10 12  1  0  0  0  0
 11 10  2  0  0  0  0
 14 13  1  0  0  0  0
 15 14  1  0  0  0  0
 17 16  1  1  0  0  0
 17 18  1  0  0  0  0
 17 15  1  0  0  0  0
 18 19  1  0  0  0  0
 20 21  1  1  0  0  0
 22 20  1  0  0  0  0
 23 24  2  0  0  0  0
 23 27  1  0  0  0  0
 24 25  1  0  0  0  0
 25 22  1  6  0  0  0
 25 26  1  0  0  0  0
 27 26  1  0  0  0  0
 28 23  1  0  0  0  0
 29 31  2  0  0  0  0
 31 28  1  0  0  0  0
 32 31  1  0  0  0  0
 33 34  2  0  0  0  0
 34 30  1  0  0  0  0
 34 32  1  0  0  0  0
M  END
>  <MODEL>
1

>  <REMARK>
 VINA RESULT:      -7.0      0.000      0.000
  Name = 
  14 active torsions:
  status: ('A' for Active; 'I' for Inactive)
    1  A    between atoms: C_2  and  C_30
    2  A    between atoms: C_3  and  C_9
    3  A    between atoms: C_3  and  N_20
    4  A    between atoms: C_4  and  C_9
    5  A    between atoms: C_8  and  C_12
    6  A    between atoms: C_8  and  C_16
    7  A    between atoms: C_9  and  C_30
    8  A    between atoms: C_10  and  C_18
    9  A    between atoms: C_10  and  C_24
   10  A    between atoms: C_14  and  C_23
   11  A    between atoms: C_18  and  N_31
   12  A    between atoms: N_20  and  C_27
   13  A    between atoms: C_23  and  C_27
   14  A    between atoms: C_24  and  C_25
                            x       y       z     vdW  Elec       q    Type
                         _______ _______ _______ _____ _____    ______ ____

>  <TORSDO>
F 14

$$$$
=
 OpenBabel11072413123D

 34 35  0  0  1  0  0  0  0  0999 V2000
  161.6810  207.8730  148.9160 C   0  0  0  0  0  1  0  0  0  0  0  0
  161.2230  207.1040  150.1750 C   0  0  1  0  0  3  0  0  0  0  0  0
  160.7850  204.9420  149.1330 C   0  0  1  0  0  3  0  0  0  0  0  0
  161.6580  203.7450  151.0970 O   0  0  0  0  0  1  0  0  0  0  0  0
  160.8870  204.7970  150.5490 C   0  0  1  0  0  3  0  0  0  0  0  0
  161.7620  205.7290  149.9890 N   0  0  0  0  0  0  0  0  0  0  0  0
  162.6360  204.1950  147.7390 O   0  0  0  0  0  0  0  0  0  0  0  0
  161.4870  203.9190  148.1880 C   0  0  0  0  0  0  0  0  0  0  0  0
  160.7420  202.8120  147.4960 C   0  0  2  0  0  3  0  0  0  0  0  0
  160.6480  201.5820  148.4120 C   0  0  0  0  0  0  0  0  0  0  0  0
  159.8090  201.5490  149.4970 O   0  0  0  0  0  1  0  0  0  0  0  0
  161.3970  200.5800  148.1930 O   0  0  0  0  0  0  0  0  0  0  0  0
  161.2730  202.4780  146.1840 C   0  0  0  0  0  2  0  0  0  0  0  0
  160.4500  202.6220  144.9810 N   0  0  0  0  0  2  0  0  0  0  0  0
  160.1790  204.0600  144.7270 C   0  0  0  0  0  2  0  0  0  0  0  0
  161.4380  205.4680  143.1630 O   0  0  0  0  0  1  0  0  0  0  0  0
  161.4300  204.9360  144.4390 C   0  0  1  0  0  3  0  0  0  0  0  0
  161.4730  206.0560  145.4300 C   0  0  0  0  0  2  0  0  0  0  0  0
  160.1610  206.3320  145.9210 O   0  0  0  0  0  1  0  0  0  0  0  0
  161.8150  207.7100  151.4650 C   0  0  1  0  0  3  0  0  0  0  0  0
  162.2660  209.0850  151.1220 C   0  0  0  0  0  1  0  0  0  0  0  0
  160.6660  207.8110  152.5460 C   0  0  0  0  0  2  0  0  0  0  0  0
  160.5460  209.4590  155.6150 C   0  0  0  0  0  0  0  0  0  0  0  0
  161.0310  209.3630  154.4760 N   0  0  0  0  0  0  0  0  0  0  0  0
  161.2440  207.9630  154.0370 C   0  0  1  0  0  3  0  0  0  0  0  0
  160.4020  207.2250  155.1450 C   0  0  0  0  0  2  0  0  0  0  0  0
  160.2330  208.2630  156.2350 N   0  0  0  0  0  2  0  0  0  0  0  0
  160.3510  210.8510  156.2160 C   0  0  0  0  0  2  0  0  0  0  0  0
  159.5550  212.9370  155.3480 O   0  0  0  0  0  0  0  0  0  0  0  0
  155.7220  210.6870  155.3100 C   0  0  0  0  0  1  0  0  0  0  0  0
  159.3340  211.6960  155.5090 C   0  0  0  0  0  0  0  0  0  0  0  0
  158.1280  211.0440  155.0460 N   0  0  0  0  0  2  0  0  0  0  0  0
  156.5830  212.8350  155.1460 O   0  0  0  0  0  0  0  0  0  0  0  0
  156.8100  211.6120  155.1030 C   0  0  0  0  0  0  0  0  0  0  0  0
  2  1  1  6  0  0  0
  2 20  1  0  0  0  0
  3  8  1  6  0  0  0
  3  6  1  0  0  0  0
  3  5  1  0  0  0  0
  5  4  1  6  0  0  0
  6  2  1  0  0  0  0
  6  5  1  0  0  0  0
  7  8  2  0  0  0  0
  9 13  1  6  0  0  0
  9  8  1  0  0  0  0
  9 10  1  0  0  0  0
 10 11  1  0  0  0  0
 12 10  2  0  0  0  0
 14 13  1  0  0  0  0
 15 14  1  0  0  0  0
 17 16  1  6  0  0  0
 17 15  1  0  0  0  0
 17 18  1  0  0  0  0
 18 19  1  0  0  0  0
 20 21  1  6  0  0  0
 20 22  1  0  0  0  0
 23 28  1  0  0  0  0
 23 27  1  0  0  0  0
 24 23  2  0  0  0  0
 25 22  1  6  0  0  0
 25 24  1  0  0  0  0
 25 26  1  0  0  0  0
 26 27  1  0  0  0  0
 29 31  2  0  0  0  0
 31 28  1  0  0  0  0
 32 34  1  0  0  0  0
 32 31  1  0  0  0  0
 34 33  2  0  0  0  0
 34 30  1  0  0  0  0
M  END
>  <MODEL>
2

>  <REMARK>
 VINA RESULT:      -6.8      3.134      4.498
  Name = 
  14 active torsions:
  status: ('A' for Active; 'I' for Inactive)
    1  A    between atoms: C_2  and  C_30
    2  A    between atoms: C_3  and  C_9
    3  A    between atoms: C_3  and  N_20
    4  A    between atoms: C_4  and  C_9
    5  A    between atoms: C_8  and  C_12
    6  A    between atoms: C_8  and  C_16
    7  A    between atoms: C_9  and  C_30
    8  A    between atoms: C_10  and  C_18
    9  A    between atoms: C_10  and  C_24
   10  A    between atoms: C_14  and  C_23
   11  A    between atoms: C_18  and  N_31
   12  A    between atoms: N_20  and  C_27
   13  A    between atoms: C_23  and  C_27
   14  A    between atoms: C_24  and  C_25
                            x       y       z     vdW  Elec       q    Type
                         _______ _______ _______ _____ _____    ______ ____

>  <TORSDO>
F 14

$$$$
=
 OpenBabel11072413123D

 34 35  0  0  1  0  0  0  0  0999 V2000
  160.6550  207.4610  153.8620 C   0  0  0  0  0  1  0  0  0  0  0  0
  161.1850  208.8600  153.4780 C   0  0  1  0  0  3  0  0  0  0  0  0
  162.3100  208.0790  151.4590 C   0  0  1  0  0  3  0  0  0  0  0  0
  161.9110  210.2270  150.3270 O   0  0  0  0  0  1  0  0  0  0  0  0
  162.2780  209.5060  151.4870 C   0  0  1  0  0  3  0  0  0  0  0  0
  161.1350  208.8830  151.9910 N   0  0  0  0  0  0  0  0  0  0  0  0
  162.4580  207.7450  149.0520 O   0  0  0  0  0  0  0  0  0  0  0  0
  161.9800  207.3140  150.1410 C   0  0  0  0  0  0  0  0  0  0  0  0
  160.8520  206.3260  150.0360 C   0  0  2  0  0  3  0  0  0  0  0  0
  161.1060  205.1290  150.9650 C   0  0  0  0  0  0  0  0  0  0  0  0
  162.3100  204.9450  151.5970 O   0  0  0  0  0  1  0  0  0  0  0  0
  160.1980  204.2560  151.1220 O   0  0  0  0  0  0  0  0  0  0  0  0
  160.5600  205.9110  148.6730 C   0  0  0  0  0  2  0  0  0  0  0  0
  161.3010  204.8150  148.0460 N   0  0  0  0  0  2  0  0  0  0  0  0
  161.8320  205.2550  146.7310 C   0  0  0  0  0  2  0  0  0  0  0  0
  161.2910  202.9700  146.0230 O   0  0  0  0  0  1  0  0  0  0  0  0
  161.7810  204.1910  145.5990 C   0  0  1  0  0  3  0  0  0  0  0  0
  160.9120  204.7040  144.4950 C   0  0  0  0  0  2  0  0  0  0  0  0
  160.4810  206.0340  144.7820 O   0  0  0  0  0  1  0  0  0  0  0  0
  160.2860  209.9860  154.0310 C   0  0  1  0  0  3  0  0  0  0  0  0
  161.1930  210.9960  154.6380 C   0  0  0  0  0  1  0  0  0  0  0  0
  159.5200  210.6560  152.8230 C   0  0  0  0  0  2  0  0  0  0  0  0
  159.4530  213.6870  151.1000 C   0  0  0  0  0  0  0  0  0  0  0  0
  160.1110  212.7530  151.5880 N   0  0  0  0  0  0  0  0  0  0  0  0
  159.5750  212.2610  152.8800 C   0  0  1  0  0  3  0  0  0  0  0  0
  158.1680  212.9670  152.8500 C   0  0  0  0  0  2  0  0  0  0  0  0
  158.3190  214.0500  151.8030 N   0  0  0  0  0  2  0  0  0  0  0  0
  159.9470  214.3360  149.8070 C   0  0  0  0  0  2  0  0  0  0  0  0
  161.4560  213.0080  148.5050 O   0  0  0  0  0  0  0  0  0  0  0  0
  157.9570  212.9310  145.7650 C   0  0  0  0  0  1  0  0  0  0  0  0
  160.2540  213.3680  148.7040 C   0  0  0  0  0  0  0  0  0  0  0  0
  159.1460  212.8930  147.9030 N   0  0  0  0  0  2  0  0  0  0  0  0
  160.2310  212.4750  145.8400 O   0  0  0  0  0  0  0  0  0  0  0  0
  159.1850  212.6870  146.4820 C   0  0  0  0  0  0  0  0  0  0  0  0
  2  1  1  1  0  0  0
  2 20  1  0  0  0  0
  3  8  1  6  0  0  0
  3  5  1  0  0  0  0
  3  6  1  0  0  0  0
  5  4  1  6  0  0  0
  5  6  1  0  0  0  0
  6  2  1  0  0  0  0
  7  8  2  0  0  0  0
  9 13  1  6  0  0  0
  9  8  1  0  0  0  0
  9 10  1  0  0  0  0
 10 12  2  0  0  0  0
 10 11  1  0  0  0  0
 14 13  1  0  0  0  0
 15 14  1  0  0  0  0
 17 16  1  1  0  0  0
 17 15  1  0  0  0  0
 18 19  1  0  0  0  0
 18 17  1  0  0  0  0
 20 21  1  6  0  0  0
 22 20  1  0  0  0  0
 23 24  2  0  0  0  0
 23 27  1  0  0  0  0
 24 25  1  0  0  0  0
 25 22  1  6  0  0  0
 26 25  1  0  0  0  0
 27 26  1  0  0  0  0
 28 23  1  0  0  0  0
 29 31  2  0  0  0  0
 30 34  1  0  0  0  0
 31 28  1  0  0  0  0
 32 31  1  0  0  0  0
 33 34  2  0  0  0  0
 34 32  1  0  0  0  0
M  END
>  <MODEL>
3

>  <REMARK>
 VINA RESULT:      -6.7      1.982      2.845
  Name = 
  14 active torsions:
  status: ('A' for Active; 'I' for Inactive)
    1  A    between atoms: C_2  and  C_30
    2  A    between atoms: C_3  and  C_9
    3  A    between atoms: C_3  and  N_20
    4  A    between atoms: C_4  and  C_9
    5  A    between atoms: C_8  and  C_12
    6  A    between atoms: C_8  and  C_16
    7  A    between atoms: C_9  and  C_30
    8  A    between atoms: C_10  and  C_18
    9  A    between atoms: C_10  and  C_24
   10  A    between atoms: C_14  and  C_23
   11  A    between atoms: C_18  and  N_31
   12  A    between atoms: N_20  and  C_27
   13  A    between atoms: C_23  and  C_27
   14  A    between atoms: C_24  and  C_25
                            x       y       z     vdW  Elec       q    Type
                         _______ _______ _______ _____ _____    ______ ____

>  <TORSDO>
F 14

$$$$
=
 OpenBabel11072413123D

 34 35  0  0  1  0  0  0  0  0999 V2000
  160.7850  206.1260  154.2470 C   0  0  0  0  0  1  0  0  0  0  0  0
  161.3190  207.5490  153.9760 C   0  0  1  0  0  3  0  0  0  0  0  0
  162.2210  207.4660  151.7100 C   0  0  1  0  0  3  0  0  0  0  0  0
  161.0890  209.5670  151.1120 O   0  0  0  0  0  1  0  0  0  0  0  0
  161.8320  208.8000  152.0390 C   0  0  1  0  0  3  0  0  0  0  0  0
  160.9970  207.8020  152.5450 N   0  0  0  0  0  0  0  0  0  0  0  0
  162.1800  207.5170  149.2760 O   0  0  0  0  0  0  0  0  0  0  0  0
  161.8650  206.8680  150.3150 C   0  0  0  0  0  0  0  0  0  0  0  0
  160.8620  205.7630  150.1390 C   0  0  2  0  0  3  0  0  0  0  0  0
  161.1570  204.6170  151.1180 C   0  0  0  0  0  0  0  0  0  0  0  0
  162.4100  204.4100  151.6360 O   0  0  0  0  0  1  0  0  0  0  0  0
  160.2310  203.8040  151.4280 O   0  0  0  0  0  0  0  0  0  0  0  0
  160.7390  205.2940  148.7670 C   0  0  0  0  0  2  0  0  0  0  0  0
  161.4820  204.1200  148.3050 N   0  0  0  0  0  2  0  0  0  0  0  0
  161.4060  204.0290  146.8240 C   0  0  0  0  0  2  0  0  0  0  0  0
  163.4750  204.7520  145.7240 O   0  0  0  0  0  1  0  0  0  0  0  0
  162.1830  205.1260  146.0450 C   0  0  1  0  0  3  0  0  0  0  0  0
  161.4430  205.4380  144.7830 C   0  0  0  0  0  2  0  0  0  0  0  0
  160.2830  206.2200  145.0710 O   0  0  0  0  0  1  0  0  0  0  0  0
  160.6080  208.6050  154.8490 C   0  0  1  0  0  3  0  0  0  0  0  0
  159.7300  207.8600  155.7890 C   0  0  0  0  0  1  0  0  0  0  0  0
  161.7000  209.3820  155.6870 C   0  0  0  0  0  2  0  0  0  0  0  0
  159.9740  212.1270  154.4080 C   0  0  0  0  0  0  0  0  0  0  0  0
  160.8020  211.2160  154.2400 N   0  0  0  0  0  0  0  0  0  0  0  0
  161.6580  210.9660  155.4240 C   0  0  1  0  0  3  0  0  0  0  0  0
  160.8460  211.7870  156.4950 C   0  0  0  0  0  2  0  0  0  0  0  0
  159.9530  212.6900  155.6710 N   0  0  0  0  0  2  0  0  0  0  0  0
  159.0840  212.5370  153.2350 C   0  0  0  0  0  2  0  0  0  0  0  0
  157.4300  214.2620  153.3990 O   0  0  0  0  0  0  0  0  0  0  0  0
  155.7010  211.3900  156.3200 C   0  0  0  0  0  1  0  0  0  0  0  0
  157.7310  213.0480  153.6300 C   0  0  0  0  0  0  0  0  0  0  0  0
  156.8260  212.1200  154.2730 N   0  0  0  0  0  2  0  0  0  0  0  0
  155.5480  213.5950  155.6140 O   0  0  0  0  0  0  0  0  0  0  0  0
  155.9530  212.4440  155.3670 C   0  0  0  0  0  0  0  0  0  0  0  0
  2  1  1  1  0  0  0
  2 20  1  0  0  0  0
  3  8  1  6  0  0  0
  3  5  1  0  0  0  0
  3  6  1  0  0  0  0
  5  4  1  6  0  0  0
  5  6  1  0  0  0  0
  6  2  1  0  0  0  0
  7  8  2  0  0  0  0
  9 13  1  6  0  0  0
  9  8  1  0  0  0  0
  9 10  1  0  0  0  0
 10 12  2  0  0  0  0
 10 11  1  0  0  0  0
 14 13  1  0  0  0  0
 15 14  1  0  0  0  0
 17 16  1  6  0  0  0
 17 15  1  0  0  0  0
 18 19  1  0  0  0  0
 18 17  1  0  0  0  0
 20 22  1  0  0  0  0
 20 21  1  1  0  0  0
 23 27  1  0  0  0  0
 24 23  2  0  0  0  0
 24 25  1  0  0  0  0
 25 22  1  1  0  0  0
 25 26  1  0  0  0  0
 27 26  1  0  0  0  0
 28 31  1  0  0  0  0
 28 23  1  0  0  0  0
 29 31  2  0  0  0  0
 31 32  1  0  0  0  0
 32 34  1  0  0  0  0
 34 33  2  0  0  0  0
 34 30  1  0  0  0  0
M  END
>  <MODEL>
4

>  <REMARK>
 VINA RESULT:      -6.6      2.849      4.412
  Name = 
  14 active torsions:
  status: ('A' for Active; 'I' for Inactive)
    1  A    between atoms: C_2  and  C_30
    2  A    between atoms: C_3  and  C_9
    3  A    between atoms: C_3  and  N_20
    4  A    between atoms: C_4  and  C_9
    5  A    between atoms: C_8  and  C_12
    6  A    between atoms: C_8  and  C_16
    7  A    between atoms: C_9  and  C_30
    8  A    between atoms: C_10  and  C_18
    9  A    between atoms: C_10  and  C_24
   10  A    between atoms: C_14  and  C_23
   11  A    between atoms: C_18  and  N_31
   12  A    between atoms: N_20  and  C_27
   13  A    between atoms: C_23  and  C_27
   14  A    between atoms: C_24  and  C_25
                            x       y       z     vdW  Elec       q    Type
                         _______ _______ _______ _____ _____    ______ ____

>  <TORSDO>
F 14

$$$$
=
 OpenBabel11072413123D

 34 35  0  0  1  0  0  0  0  0999 V2000
  161.0110  206.5420  153.7530 C   0  0  0  0  0  1  0  0  0  0  0  0
  160.9490  207.1200  152.3220 C   0  0  1  0  0  3  0  0  0  0  0  0
  160.6100  209.5290  152.5130 C   0  0  1  0  0  3  0  0  0  0  0  0
  162.4720  209.9800  150.9700 O   0  0  0  0  0  1  0  0  0  0  0  0
  161.3280  209.2240  151.3180 C   0  0  1  0  0  3  0  0  0  0  0  0
  161.6530  208.4290  152.4180 N   0  0  0  0  0  0  0  0  0  0  0  0
  162.0330  210.5540  154.2020 O   0  0  0  0  0  0  0  0  0  0  0  0
  161.0570  210.7200  153.4140 C   0  0  0  0  0  0  0  0  0  0  0  0
  160.1860  211.9180  153.6670 C   0  0  2  0  0  3  0  0  0  0  0  0
  159.7380  211.9490  155.1370 C   0  0  0  0  0  0  0  0  0  0  0  0
  160.0290  213.0060  155.9610 O   0  0  0  0  0  1  0  0  0  0  0  0
  159.1200  210.9520  155.6230 O   0  0  0  0  0  0  0  0  0  0  0  0
  159.0630  212.0320  152.7490 C   0  0  0  0  0  2  0  0  0  0  0  0
  158.8150  213.2740  152.0160 N   0  0  0  0  0  2  0  0  0  0  0  0
  159.7120  213.3500  150.8360 C   0  0  0  0  0  2  0  0  0  0  0  0
  159.3780  213.2200  148.4100 O   0  0  0  0  0  1  0  0  0  0  0  0
  159.0760  213.9440  149.5490 C   0  0  1  0  0  3  0  0  0  0  0  0
  157.5900  213.9820  149.7170 C   0  0  0  0  0  2  0  0  0  0  0  0
  156.9890  212.8730  149.0480 O   0  0  0  0  0  1  0  0  0  0  0  0
  161.6880  206.2220  151.3080 C   0  0  1  0  0  3  0  0  0  0  0  0
  161.8170  204.8820  151.9390 C   0  0  0  0  0  1  0  0  0  0  0  0
  160.7920  206.0860  150.0120 C   0  0  0  0  0  2  0  0  0  0  0  0
  161.5230  204.8540  146.8340 C   0  0  0  0  0  0  0  0  0  0  0  0
  161.7680  204.8730  148.0520 N   0  0  0  0  0  0  0  0  0  0  0  0
  161.6500  206.2190  148.6610 C   0  0  1  0  0  3  0  0  0  0  0  0
  160.9100  206.9600  147.4850 C   0  0  0  0  0  2  0  0  0  0  0  0
  161.1260  206.0600  146.2860 N   0  0  0  0  0  2  0  0  0  0  0  0
  161.6860  203.5400  146.0720 C   0  0  0  0  0  2  0  0  0  0  0  0
  160.0430  201.7960  146.0270 O   0  0  0  0  0  0  0  0  0  0  0  0
  160.8380  201.8600  150.4000 C   0  0  0  0  0  1  0  0  0  0  0  0
  160.9660  202.3740  146.6820 C   0  0  0  0  0  0  0  0  0  0  0  0
  161.3630  201.9660  148.0120 N   0  0  0  0  0  2  0  0  0  0  0  0
  159.3330  201.0590  148.8270 O   0  0  0  0  0  0  0  0  0  0  0  0
  160.4620  201.5360  149.0450 C   0  0  0  0  0  0  0  0  0  0  0  0
  2  6  1  0  0  0  0
  2  1  1  1  0  0  0
  3  8  1  1  0  0  0
  5  4  1  1  0  0  0
  5  6  1  0  0  0  0
  5  3  1  0  0  0  0
  6  3  1  0  0  0  0
  8  9  1  0  0  0  0
  8  7  2  0  0  0  0
  9 13  1  6  0  0  0
  9 10  1  0  0  0  0
 10 12  2  0  0  0  0
 10 11  1  0  0  0  0
 14 13  1  0  0  0  0
 15 14  1  0  0  0  0
 17 16  1  6  0  0  0
 17 18  1  0  0  0  0
 17 15  1  0  0  0  0
 19 18  1  0  0  0  0
 20 21  1  1  0  0  0
 20  2  1  0  0  0  0
 22 20  1  0  0  0  0
 23 24  2  0  0  0  0
 24 25  1  0  0  0  0
 25 22  1  1  0  0  0
 26 25  1  0  0  0  0
 27 23  1  0  0  0  0
 27 26  1  0  0  0  0
 28 31  1  0  0  0  0
 28 23  1  0  0  0  0
 29 31  2  0  0  0  0
 31 32  1  0  0  0  0
 32 34  1  0  0  0  0
 33 34  2  0  0  0  0
 34 30  1  0  0  0  0
M  END
>  <MODEL>
5

>  <REMARK>
 VINA RESULT:      -6.6      2.735      9.021
  Name = 
  14 active torsions:
  status: ('A' for Active; 'I' for Inactive)
    1  A    between atoms: C_2  and  C_30
    2  A    between atoms: C_3  and  C_9
    3  A    between atoms: C_3  and  N_20
    4  A    between atoms: C_4  and  C_9
    5  A    between atoms: C_8  and  C_12
    6  A    between atoms: C_8  and  C_16
    7  A    between atoms: C_9  and  C_30
    8  A    between atoms: C_10  and  C_18
    9  A    between atoms: C_10  and  C_24
   10  A    between atoms: C_14  and  C_23
   11  A    between atoms: C_18  and  N_31
   12  A    between atoms: N_20  and  C_27
   13  A    between atoms: C_23  and  C_27
   14  A    between atoms: C_24  and  C_25
                            x       y       z     vdW  Elec       q    Type
                         _______ _______ _______ _____ _____    ______ ____

>  <TORSDO>
F 14

$$$$
=
 OpenBabel11072413123D

 34 35  0  0  1  0  0  0  0  0999 V2000
  161.1990  205.9960  153.5870 C   0  0  0  0  0  1  0  0  0  0  0  0
  161.0200  206.8000  152.2810 C   0  0  1  0  0  3  0  0  0  0  0  0
  160.5460  209.1600  152.6810 C   0  0  1  0  0  3  0  0  0  0  0  0
  162.5010  209.8450  151.3550 O   0  0  0  0  0  1  0  0  0  0  0  0
  161.3730  209.0100  151.5270 C   0  0  1  0  0  3  0  0  0  0  0  0
  161.6470  208.1190  152.5660 N   0  0  0  0  0  0  0  0  0  0  0  0
  160.7900  211.4800  153.3750 O   0  0  0  0  0  0  0  0  0  0  0  0
  160.8590  210.2690  153.7310 C   0  0  0  0  0  0  0  0  0  0  0  0
  161.5820  209.9860  155.0180 C   0  0  2  0  0  3  0  0  0  0  0  0
  160.9410  208.7880  155.7350 C   0  0  0  0  0  0  0  0  0  0  0  0
  159.5810  208.6090  155.7740 O   0  0  0  0  0  0  0  0  0  0  0  0
  161.6800  207.9590  156.3520 O   0  0  0  0  0  1  0  0  0  0  0  0
  161.7060  211.1450  155.8890 C   0  0  0  0  0  2  0  0  0  0  0  0
  160.6260  211.5140  156.8060 N   0  0  0  0  0  2  0  0  0  0  0  0
  160.1820  212.9030  156.5260 C   0  0  0  0  0  2  0  0  0  0  0  0
  158.6400  213.5930  154.7490 O   0  0  0  0  0  1  0  0  0  0  0  0
  158.7210  213.0490  156.0180 C   0  0  1  0  0  3  0  0  0  0  0  0
  158.0770  211.6990  156.0070 C   0  0  0  0  0  2  0  0  0  0  0  0
  157.5780  211.4000  154.7030 O   0  0  0  0  0  1  0  0  0  0  0  0
  161.7520  206.1380  151.0940 C   0  0  1  0  0  3  0  0  0  0  0  0
  162.0040  204.7250  151.4820 C   0  0  0  0  0  1  0  0  0  0  0  0
  160.7910  206.1530  149.8390 C   0  0  0  0  0  2  0  0  0  0  0  0
  161.4910  204.7060  146.7460 C   0  0  0  0  0  0  0  0  0  0  0  0
  161.7710  204.8360  147.9490 N   0  0  0  0  0  0  0  0  0  0  0  0
  161.6000  206.2200  148.4530 C   0  0  1  0  0  3  0  0  0  0  0  0
  160.7860  206.8240  147.2470 C   0  0  0  0  0  2  0  0  0  0  0  0
  161.0140  205.8420  146.1170 N   0  0  0  0  0  2  0  0  0  0  0  0
  161.7010  203.3440  146.0860 C   0  0  0  0  0  2  0  0  0  0  0  0
  159.9710  201.6860  146.0800 O   0  0  0  0  0  0  0  0  0  0  0  0
  160.8290  201.7500  150.4420 C   0  0  0  0  0  1  0  0  0  0  0  0
  160.9320  202.2220  146.7170 C   0  0  0  0  0  0  0  0  0  0  0  0
  161.3250  201.8060  148.0460 N   0  0  0  0  0  2  0  0  0  0  0  0
  159.2630  201.0110  148.8960 O   0  0  0  0  0  0  0  0  0  0  0  0
  160.4180  201.4320  149.0950 C   0  0  0  0  0  0  0  0  0  0  0  0
  2  6  1  0  0  0  0
  2  1  1  1  0  0  0
  3  8  1  1  0  0  0
  5  4  1  1  0  0  0
  5  6  1  0  0  0  0
  5  3  1  0  0  0  0
  6  3  1  0  0  0  0
  7  8  2  0  0  0  0
  8  9  1  0  0  0  0
  9 10  1  0  0  0  0
  9 13  1  1  0  0  0
 10 11  2  0  0  0  0
 10 12  1  0  0  0  0
 13 14  1  0  0  0  0
 15 14  1  0  0  0  0
 17 16  1  6  0  0  0
 17 15  1  0  0  0  0
 18 17  1  0  0  0  0
 19 18  1  0  0  0  0
 20 21  1  1  0  0  0
 20  2  1  0  0  0  0
 22 20  1  0  0  0  0
 23 24  2  0  0  0  0
 24 25  1  0  0  0  0
 25 22  1  1  0  0  0
 26 25  1  0  0  0  0
 27 23  1  0  0  0  0
 27 26  1  0  0  0  0
 28 31  1  0  0  0  0
 28 23  1  0  0  0  0
 29 31  2  0  0  0  0
 31 32  1  0  0  0  0
 32 34  1  0  0  0  0
 33 34  2  0  0  0  0
 34 30  1  0  0  0  0
M  END
>  <MODEL>
6

>  <REMARK>
 VINA RESULT:      -6.6      3.332      9.477
  Name = 
  14 active torsions:
  status: ('A' for Active; 'I' for Inactive)
    1  A    between atoms: C_2  and  C_30
    2  A    between atoms: C_3  and  C_9
    3  A    between atoms: C_3  and  N_20
    4  A    between atoms: C_4  and  C_9
    5  A    between atoms: C_8  and  C_12
    6  A    between atoms: C_8  and  C_16
    7  A    between atoms: C_9  and  C_30
    8  A    between atoms: C_10  and  C_18
    9  A    between atoms: C_10  and  C_24
   10  A    between atoms: C_14  and  C_23
   11  A    between atoms: C_18  and  N_31
   12  A    between atoms: N_20  and  C_27
   13  A    between atoms: C_23  and  C_27
   14  A    between atoms: C_24  and  C_25
                            x       y       z     vdW  Elec       q    Type
                         _______ _______ _______ _____ _____    ______ ____

>  <TORSDO>
F 14

$$$$
=
 OpenBabel11072413123D

 34 35  0  0  1  0  0  0  0  0999 V2000
  161.7060  205.4290  151.5710 C   0  0  0  0  0  1  0  0  0  0  0  0
  162.1390  206.8940  151.3470 C   0  0  1  0  0  3  0  0  0  0  0  0
  162.2340  206.6800  148.9190 C   0  0  1  0  0  3  0  0  0  0  0  0
  161.5790  209.0330  148.6200 O   0  0  0  0  0  1  0  0  0  0  0  0
  162.3400  208.0520  149.2980 C   0  0  1  0  0  3  0  0  0  0  0  0
  161.4680  207.2910  150.0790 N   0  0  0  0  0  0  0  0  0  0  0  0
  160.0670  206.2040  147.9180 O   0  0  0  0  0  0  0  0  0  0  0  0
  161.3160  206.2650  147.7290 C   0  0  0  0  0  0  0  0  0  0  0  0
  161.8430  205.5900  146.4940 C   0  0  2  0  0  3  0  0  0  0  0  0
  160.7630  205.5610  145.4030 C   0  0  0  0  0  0  0  0  0  0  0  0
  160.4710  204.4190  144.7010 O   0  0  0  0  0  0  0  0  0  0  0  0
  160.1470  206.6310  145.1030 O   0  0  0  0  0  1  0  0  0  0  0  0
  162.4090  204.2730  146.7410 C   0  0  0  0  0  2  0  0  0  0  0  0
  161.9650  203.4650  147.8780 N   0  0  0  0  0  2  0  0  0  0  0  0
  161.2060  202.2850  147.3920 C   0  0  0  0  0  2  0  0  0  0  0  0
  161.4970  200.3580  148.8800 O   0  0  0  0  0  1  0  0  0  0  0  0
  160.6250  201.3600  148.4970 C   0  0  1  0  0  3  0  0  0  0  0  0
  160.2900  202.1920  149.6950 C   0  0  0  0  0  2  0  0  0  0  0  0
  161.1680  201.8770  150.7760 O   0  0  0  0  0  1  0  0  0  0  0  0
  161.6540  207.8170  152.4860 C   0  0  1  0  0  3  0  0  0  0  0  0
  160.7200  208.7980  151.8710 C   0  0  0  0  0  1  0  0  0  0  0  0
  160.8530  206.9450  153.5320 C   0  0  0  0  0  2  0  0  0  0  0  0
  161.0090  209.4240  155.9790 C   0  0  0  0  0  0  0  0  0  0  0  0
  161.5710  208.7800  155.0770 N   0  0  0  0  0  0  0  0  0  0  0  0
  161.1960  207.3460  155.0500 C   0  0  1  0  0  3  0  0  0  0  0  0
  159.9500  207.3970  156.0120 C   0  0  0  0  0  2  0  0  0  0  0  0
  160.0990  208.7150  156.7410 N   0  0  0  0  0  2  0  0  0  0  0  0
  161.3710  210.8970  156.1630 C   0  0  0  0  0  2  0  0  0  0  0  0
  159.5340  212.3190  156.7510 O   0  0  0  0  0  0  0  0  0  0  0  0
  158.7600  211.9880  152.3860 C   0  0  0  0  0  1  0  0  0  0  0  0
  160.2680  211.8550  155.8220 C   0  0  0  0  0  0  0  0  0  0  0  0
  160.0900  212.2010  154.4290 N   0  0  0  0  0  2  0  0  0  0  0  0
  157.7660  212.6540  154.3740 O   0  0  0  0  0  0  0  0  0  0  0  0
  158.8200  212.3660  153.7770 C   0  0  0  0  0  0  0  0  0  0  0  0
  2  1  1  1  0  0  0
  2 20  1  0  0  0  0
  3  8  1  6  0  0  0
  3  5  1  0  0  0  0
  3  6  1  0  0  0  0
  5  4  1  6  0  0  0
  5  6  1  0  0  0  0
  6  2  1  0  0  0  0
  8  7  2  0  0  0  0
  9 13  1  1  0  0  0
  9  8  1  0  0  0  0
 10  9  1  0  0  0  0
 11 10  2  0  0  0  0
 12 10  1  0  0  0  0
 13 14  1  0  0  0  0
 15 14  1  0  0  0  0
 15 17  1  0  0  0  0
 17 16  1  1  0  0  0
 17 18  1  0  0  0  0
 18 19  1  0  0  0  0
 20 21  1  6  0  0  0
 20 22  1  0  0  0  0
 23 28  1  0  0  0  0
 23 27  1  0  0  0  0
 24 23  2  0  0  0  0
 25 22  1  6  0  0  0
 25 24  1  0  0  0  0
 25 26  1  0  0  0  0
 26 27  1  0  0  0  0
 30 34  1  0  0  0  0
 31 28  1  0  0  0  0
 31 29  2  0  0  0  0
 32 31  1  0  0  0  0
 34 33  2  0  0  0  0
 34 32  1  0  0  0  0
M  END
>  <MODEL>
7

>  <REMARK>
 VINA RESULT:      -6.5      2.681      4.885
  Name = 
  14 active torsions:
  status: ('A' for Active; 'I' for Inactive)
    1  A    between atoms: C_2  and  C_30
    2  A    between atoms: C_3  and  C_9
    3  A    between atoms: C_3  and  N_20
    4  A    between atoms: C_4  and  C_9
    5  A    between atoms: C_8  and  C_12
    6  A    between atoms: C_8  and  C_16
    7  A    between atoms: C_9  and  C_30
    8  A    between atoms: C_10  and  C_18
    9  A    between atoms: C_10  and  C_24
   10  A    between atoms: C_14  and  C_23
   11  A    between atoms: C_18  and  N_31
   12  A    between atoms: N_20  and  C_27
   13  A    between atoms: C_23  and  C_27
   14  A    between atoms: C_24  and  C_25
                            x       y       z     vdW  Elec       q    Type
                         _______ _______ _______ _____ _____    ______ ____

>  <TORSDO>
F 14

$$$$
=
 OpenBabel11072413123D

 34 35  0  0  1  0  0  0  0  0999 V2000
  162.5100  209.9800  151.8540 C   0  0  0  0  0  1  0  0  0  0  0  0
  161.2880  209.1800  152.3560 C   0  0  1  0  0  3  0  0  0  0  0  0
  160.8130  206.8800  151.6960 C   0  0  1  0  0  3  0  0  0  0  0  0
  161.5250  206.0320  153.8930 O   0  0  0  0  0  1  0  0  0  0  0  0
  160.8320  206.9920  153.1190 C   0  0  1  0  0  3  0  0  0  0  0  0
  161.7760  207.7770  152.4550 N   0  0  0  0  0  0  0  0  0  0  0  0
  162.7770  205.7020  150.8710 O   0  0  0  0  0  0  0  0  0  0  0  0
  161.5190  205.6790  150.9950 C   0  0  0  0  0  0  0  0  0  0  0  0
  160.7770  204.6860  150.1450 C   0  0  2  0  0  3  0  0  0  0  0  0
  160.8290  203.2930  150.7900 C   0  0  0  0  0  0  0  0  0  0  0  0
  161.1520  203.1170  152.1120 O   0  0  0  0  0  1  0  0  0  0  0  0
  160.6110  202.2640  150.0770 O   0  0  0  0  0  0  0  0  0  0  0  0
  161.2080  204.6630  148.7560 C   0  0  0  0  0  2  0  0  0  0  0  0
  160.8360  205.7400  147.8360 N   0  0  0  0  0  2  0  0  0  0  0  0
  162.0530  206.2910  147.1880 C   0  0  0  0  0  2  0  0  0  0  0  0
  163.0790  204.6890  145.6420 O   0  0  0  0  0  1  0  0  0  0  0  0
  162.3010  205.8280  145.7260 C   0  0  1  0  0  3  0  0  0  0  0  0
  160.9810  205.5600  145.0750 C   0  0  0  0  0  2  0  0  0  0  0  0
  160.8550  204.1720  144.7670 O   0  0  0  0  0  1  0  0  0  0  0  0
  160.8250  209.6530  153.7510 C   0  0  1  0  0  3  0  0  0  0  0  0
  161.8810  210.5670  154.2630 C   0  0  0  0  0  1  0  0  0  0  0  0
  159.4860  210.4750  153.5830 C   0  0  0  0  0  2  0  0  0  0  0  0
  158.2260  213.4090  152.1830 C   0  0  0  0  0  0  0  0  0  0  0  0
  158.7940  212.3140  152.0320 N   0  0  0  0  0  0  0  0  0  0  0  0
  159.7530  211.9880  153.1140 C   0  0  1  0  0  3  0  0  0  0  0  0
  159.3260  213.0840  154.1620 C   0  0  0  0  0  2  0  0  0  0  0  0
  158.5340  214.0860  153.3480 N   0  0  0  0  0  2  0  0  0  0  0  0
  157.2710  213.8980  151.0940 C   0  0  0  0  0  2  0  0  0  0  0  0
  157.0830  212.9610  148.8970 O   0  0  0  0  0  0  0  0  0  0  0  0
  161.3870  214.0730  148.7910 C   0  0  0  0  0  1  0  0  0  0  0  0
  157.7620  213.6830  149.6940 C   0  0  0  0  0  0  0  0  0  0  0  0
  159.0090  214.3130  149.3190 N   0  0  0  0  0  2  0  0  0  0  0  0
  159.7980  212.8040  147.6740 O   0  0  0  0  0  0  0  0  0  0  0  0
  160.0210  213.7130  148.4950 C   0  0  0  0  0  0  0  0  0  0  0  0
  2  1  1  1  0  0  0
  2  6  1  0  0  0  0
  2 20  1  0  0  0  0
  3  8  1  1  0  0  0
  3  6  1  0  0  0  0
  3  5  1  0  0  0  0
  5  4  1  1  0  0  0
  6  5  1  0  0  0  0
  7  8  2  0  0  0  0
  9 13  1  6  0  0  0
  9 10  1  0  0  0  0
  9  8  1  0  0  0  0
 10 11  1  0  0  0  0
 12 10  2  0  0  0  0
 14 13  1  0  0  0  0
 15 14  1  0  0  0  0
 17 16  1  1  0  0  0
 17 15  1  0  0  0  0
 18 17  1  0  0  0  0
 19 18  1  0  0  0  0
 20 21  1  6  0  0  0
 22 20  1  0  0  0  0
 23 27  1  0  0  0  0
 24 23  2  0  0  0  0
 24 25  1  0  0  0  0
 25 22  1  1  0  0  0
 25 26  1  0  0  0  0
 27 26  1  0  0  0  0
 28 23  1  0  0  0  0
 29 31  2  0  0  0  0
 31 28  1  0  0  0  0
 32 31  1  0  0  0  0
 33 34  2  0  0  0  0
 34 30  1  0  0  0  0
 34 32  1  0  0  0  0
M  END
>  <MODEL>
8

>  <REMARK>
 VINA RESULT:      -6.5      1.851      2.487
  Name = 
  14 active torsions:
  status: ('A' for Active; 'I' for Inactive)
    1  A    between atoms: C_2  and  C_30
    2  A    between atoms: C_3  and  C_9
    3  A    between atoms: C_3  and  N_20
    4  A    between atoms: C_4  and  C_9
    5  A    between atoms: C_8  and  C_12
    6  A    between atoms: C_8  and  C_16
    7  A    between atoms: C_9  and  C_30
    8  A    between atoms: C_10  and  C_18
    9  A    between atoms: C_10  and  C_24
   10  A    between atoms: C_14  and  C_23
   11  A    between atoms: C_18  and  N_31
   12  A    between atoms: N_20  and  C_27
   13  A    between atoms: C_23  and  C_27
   14  A    between atoms: C_24  and  C_25
                            x       y       z     vdW  Elec       q    Type
                         _______ _______ _______ _____ _____    ______ ____

>  <TORSDO>
F 14

$$$$
=
 OpenBabel11072413123D

 34 35  0  0  1  0  0  0  0  0999 V2000
  161.1760  206.3720  152.6170 C   0  0  0  0  0  1  0  0  0  0  0  0
  161.5200  207.8760  152.6810 C   0  0  1  0  0  3  0  0  0  0  0  0
  162.4200  207.8840  150.4140 C   0  0  1  0  0  3  0  0  0  0  0  0
  161.7830  210.2400  150.0990 O   0  0  0  0  0  1  0  0  0  0  0  0
  162.3250  209.2180  150.9130 C   0  0  1  0  0  3  0  0  0  0  0  0
  161.2840  208.3720  151.2980 N   0  0  0  0  0  0  0  0  0  0  0  0
  161.4880  208.4900  148.2470 O   0  0  0  0  0  0  0  0  0  0  0  0
  161.9650  207.5590  148.9580 C   0  0  0  0  0  0  0  0  0  0  0  0
  161.7230  206.1550  148.4790 C   0  0  2  0  0  3  0  0  0  0  0  0
  161.5370  206.1390  146.9540 C   0  0  0  0  0  0  0  0  0  0  0  0
  160.2950  206.1940  146.3740 O   0  0  0  0  0  1  0  0  0  0  0  0
  162.5540  206.0270  146.2010 O   0  0  0  0  0  0  0  0  0  0  0  0
  160.6380  205.4770  149.1710 C   0  0  0  0  0  2  0  0  0  0  0  0
  160.8350  204.1530  149.7620 N   0  0  0  0  0  2  0  0  0  0  0  0
  160.8850  203.1260  148.6910 C   0  0  0  0  0  2  0  0  0  0  0  0
  159.3460  201.3460  149.3830 O   0  0  0  0  0  1  0  0  0  0  0  0
  160.6740  201.6590  149.1600 C   0  0  1  0  0  3  0  0  0  0  0  0
  161.2200  200.7360  148.1160 C   0  0  0  0  0  2  0  0  0  0  0  0
  160.9720  201.2630  146.8120 O   0  0  0  0  0  1  0  0  0  0  0  0
  160.5940  208.6360  153.6550 C   0  0  1  0  0  3  0  0  0  0  0  0
  160.6530  207.9130  154.9530 C   0  0  0  0  0  1  0  0  0  0  0  0
  161.1700  210.0930  153.8620 C   0  0  0  0  0  2  0  0  0  0  0  0
  159.5780  212.6930  152.1730 C   0  0  0  0  0  0  0  0  0  0  0  0
  160.4530  212.3200  152.9710 N   0  0  0  0  0  0  0  0  0  0  0  0
  160.0170  211.2120  153.8540 C   0  0  1  0  0  3  0  0  0  0  0  0
  158.7020  210.7930  153.0960 C   0  0  0  0  0  2  0  0  0  0  0  0
  158.3950  211.9770  152.2040 N   0  0  0  0  0  2  0  0  0  0  0  0
  159.8750  213.8820  151.2590 C   0  0  0  0  0  2  0  0  0  0  0  0
  158.7390  213.1740  149.2730 O   0  0  0  0  0  0  0  0  0  0  0  0
  162.9270  212.6660  147.8710 C   0  0  0  0  0  1  0  0  0  0  0  0
  159.8300  213.5670  149.7940 C   0  0  0  0  0  0  0  0  0  0  0  0
  161.0540  213.7220  149.0380 N   0  0  0  0  0  2  0  0  0  0  0  0
  160.7390  212.1040  147.3390 O   0  0  0  0  0  0  0  0  0  0  0  0
  161.5000  212.8350  148.0010 C   0  0  0  0  0  0  0  0  0  0  0  0
  2  1  1  6  0  0  0
  2 20  1  0  0  0  0
  3  8  1  6  0  0  0
  3  5  1  0  0  0  0
  3  6  1  0  0  0  0
  5  4  1  6  0  0  0
  5  6  1  0  0  0  0
  6  2  1  0  0  0  0
  7  8  2  0  0  0  0
  9  8  1  0  0  0  0
  9 13  1  1  0  0  0
 10  9  1  0  0  0  0
 11 10  1  0  0  0  0
 12 10  2  0  0  0  0
 13 14  1  0  0  0  0
 15 17  1  0  0  0  0
 15 14  1  0  0  0  0
 17 16  1  6  0  0  0
 18 17  1  0  0  0  0
 19 18  1  0  0  0  0
 20 22  1  0  0  0  0
 20 21  1  1  0  0  0
 23 27  1  0  0  0  0
 23 24  2  0  0  0  0
 24 25  1  0  0  0  0
 25 22  1  6  0  0  0
 26 25  1  0  0  0  0
 27 26  1  0  0  0  0
 28 23  1  0  0  0  0
 29 31  2  0  0  0  0
 30 34  1  0  0  0  0
 31 28  1  0  0  0  0
 32 31  1  0  0  0  0
 33 34  2  0  0  0  0
 34 32  1  0  0  0  0
M  END
>  <MODEL>
9

>  <REMARK>
 VINA RESULT:      -6.5      1.593      3.359
  Name = 
  14 active torsions:
  status: ('A' for Active; 'I' for Inactive)
    1  A    between atoms: C_2  and  C_30
    2  A    between atoms: C_3  and  C_9
    3  A    between atoms: C_3  and  N_20
    4  A    between atoms: C_4  and  C_9
    5  A    between atoms: C_8  and  C_12
    6  A    between atoms: C_8  and  C_16
    7  A    between atoms: C_9  and  C_30
    8  A    between atoms: C_10  and  C_18
    9  A    between atoms: C_10  and  C_24
   10  A    between atoms: C_14  and  C_23
   11  A    between atoms: C_18  and  N_31
   12  A    between atoms: N_20  and  C_27
   13  A    between atoms: C_23  and  C_27
   14  A    between atoms: C_24  and  C_25
                            x       y       z     vdW  Elec       q    Type
                         _______ _______ _______ _____ _____    ______ ____

>  <TORSDO>
F 14

$$$$
