=
 OpenBabel11072412463D

 55 58  0  0  1  0  0  0  0  0999 V2000
  160.6420  210.4110  153.6550 C   0  0  2  0  0  3  0  0  0  0  0  0
  160.3370  210.4800  152.1670 C   0  0  0  0  0  2  0  0  0  0  0  0
  160.9910  211.7030  151.5340 C   0  0  0  0  0  2  0  0  0  0  0  0
  161.6800  211.3700  150.2070 C   0  0  2  0  0  3  0  0  0  0  0  0
  160.9970  211.9890  149.0770 N   0  0  0  0  0  2  0  0  0  0  0  0
  161.6060  212.9690  148.2310 C   0  0  0  0  0  0  0  0  0  0  0  0
  162.8360  213.2210  148.3290 O   0  0  0  0  0  0  0  0  0  0  0  0
  158.8380  212.6900  146.2410 O   0  0  0  0  0  0  0  0  0  0  0  0
  161.1590  211.9720  143.3690 C   0  0  2  0  0  3  0  0  0  0  0  0
  162.0810  213.1820  143.6420 C   0  0  0  0  0  2  0  0  0  0  0  0
  162.1170  213.5600  145.1050 C   0  0  0  0  0  3  0  0  0  0  0  0
  160.8700  211.8590  141.8870 C   0  0  0  0  0  1  0  0  0  0  0  0
  158.6160  213.5470  148.3930 O   0  0  0  0  0  0  0  0  0  0  0  0
  159.3270  213.3340  147.3760 C   0  0  0  0  0  0  0  0  0  0  0  0
  160.7720  213.7480  147.2610 C   0  0  2  0  0  3  0  0  0  0  0  0
  159.8750  212.6410  145.3330 C   0  0  0  0  0  0  0  0  0  0  0  0
  159.8640  212.0380  144.1480 C   0  0  0  0  0  3  0  0  0  0  0  0
  161.0410  213.3210  145.8530 C   0  0  0  0  0  0  0  0  0  0  0  0
  161.8650  209.8650  149.9930 C   0  0  0  0  0  2  0  0  0  0  0  0
  162.9650  207.9490  148.5430 C   0  0  0  0  0  1  0  0  0  0  0  0
  161.8780  209.3720  148.2360 S   0  0  0  0  0  0  0  0  0  0  0  0
  161.0930  209.0040  154.0830 C   0  0  1  0  0  3  0  0  0  0  0  0
  161.9080  207.9320  156.1880 C   0  0  0  0  0  1  0  0  0  0  0  0
  160.7400  208.6400  155.5330 C   0  0  0  0  0  3  0  0  0  0  0  0
  159.5000  207.7710  155.6360 C   0  0  0  0  0  1  0  0  0  0  0  0
  160.6570  208.0260  153.1780 O   0  0  0  0  0  0  0  0  0  0  0  0
  161.8020  207.6340  152.4750 C   0  0  0  0  0  2  0  0  0  0  0  0
  160.8450  204.0100  152.4600 O   0  0  0  0  0  1  0  0  0  0  0  0
  162.6810  205.3810  152.4820 O   0  0  0  0  0  0  0  0  0  0  0  0
  161.3880  205.1730  153.0090 C   0  0  1  0  0  3  0  0  0  0  0  0
  161.6590  206.2070  151.9750 C   0  0  1  0  0  0  0  0  0  0  0  0
  160.2240  206.7270  150.1100 O   0  0  0  0  0  1  0  0  0  0  0  0
  161.3400  205.9760  150.4850 C   0  0  2  0  0  3  0  0  0  0  0  0
  161.4380  204.9340  147.6450 C   0  0  1  0  0  3  0  0  0  0  0  0
  161.1540  204.0920  148.8460 C   0  0  0  0  0  0  0  0  0  0  0  0
  161.1480  204.5330  150.1100 C   0  0  0  0  0  3  0  0  0  0  0  0
  161.6020  202.5240  147.1100 C   0  0  0  0  0  2  0  0  0  0  0  0
  161.5870  203.9250  146.5010 C   0  0  2  0  0  3  0  0  0  0  0  0
  161.0840  202.6410  148.5360 C   0  0  2  0  0  3  0  0  0  0  0  0
  162.7650  204.1560  145.6530 N   0  0  0  0  0  0  0  0  0  0  0  0
  163.7760  204.9380  146.3550 C   0  0  0  0  0  1  0  0  0  0  0  0
  162.3660  204.8870  144.5840 O   0  0  0  0  0  1  0  0  0  0  0  0
  160.3280  205.9480  147.3460 C   0  0  0  0  0  2  0  0  0  0  0  0
  159.9180  205.9690  145.8800 C   0  0  0  0  0  1  0  0  0  0  0  0
  159.7020  202.1940  148.5990 N   0  0  0  0  0  2  0  0  0  0  0  0
  159.6370  201.1910  149.5780 N   0  0  0  0  0  2  0  0  0  0  0  0
  160.9840  201.0280  150.0990 C   0  0  0  0  0  1  0  0  0  0  0  0
  159.4390  210.8860  154.4770 C   0  0  0  0  0  2  0  0  0  0  0  0
  159.2540  213.3920  154.6090 C   0  0  0  0  0  1  0  0  0  0  0  0
  158.7740  212.1380  153.8990 C   0  0  2  0  0  3  0  0  0  0  0  0
  157.3800  212.0440  153.9730 O   0  0  0  0  0  0  0  0  0  0  0  0
  156.9800  213.1160  154.7730 C   0  0  1  0  0  3  0  0  0  0  0  0
  156.1930  214.1110  153.9360 C   0  0  0  0  0  1  0  0  0  0  0  0
  155.2240  213.5970  156.3140 O   0  0  0  0  0  1  0  0  0  0  0  0
  156.1160  212.6040  155.9070 C   0  0  0  0  0  2  0  0  0  0  0  0
  1  2  1  6  0  0  0
  1 22  1  0  0  0  0
  1 48  1  0  0  0  0
  3  2  1  0  0  0  0
  4 19  1  6  0  0  0
  4  3  1  0  0  0  0
  5  4  1  0  0  0  0
  6  7  2  0  0  0  0
  6  5  1  0  0  0  0
  8 14  1  0  0  0  0
  9 12  1  6  0  0  0
  9 10  1  0  0  0  0
  9 17  1  0  0  0  0
 10 11  1  0  0  0  0
 11 18  2  0  0  0  0
 14 13  2  0  0  0  0
 15 14  1  0  0  0  0
 15  6  1  1  0  0  0
 16 18  1  0  0  0  0
 16  8  1  0  0  0  0
 17 16  2  0  0  0  0
 18 15  1  0  0  0  0
 21 20  1  0  0  0  0
 21 19  1  0  0  0  0
 22 26  1  6  0  0  0
 22 24  1  0  0  0  0
 24 25  1  0  0  0  0
 24 23  1  0  0  0  0
 27 26  1  0  0  0  0
 29 30  1  0  0  0  0
 30 28  1  6  0  0  0
 31 27  1  1  0  0  0
 31 29  1  0  0  0  0
 31 30  1  0  0  0  0
 33 32  1  1  0  0  0
 33 31  1  0  0  0  0
 34 43  1  6  0  0  0
 34 35  1  0  0  0  0
 35 36  2  0  0  0  0
 36 33  1  0  0  0  0
 37 39  1  0  0  0  0
 38 40  1  1  0  0  0
 38 37  1  0  0  0  0
 38 34  1  0  0  0  0
 39 45  1  6  0  0  0
 39 35  1  0  0  0  0
 40 41  1  0  0  0  0
 42 40  1  0  0  0  0
 44 43  1  0  0  0  0
 45 46  1  0  0  0  0
 46 47  1  0  0  0  0
 50 51  1  0  0  0  0
 50 48  1  0  0  0  0
 50 49  1  1  0  0  0
 51 52  1  0  0  0  0
 52 53  1  6  0  0  0
 52 55  1  0  0  0  0
 55 54  1  0  0  0  0
M  END
>  <MODEL>
1

>  <REMARK>
 VINA RESULT:      -5.1      0.000      0.000
  Name = 
  23 active torsions:
  status: ('A' for Active; 'I' for Inactive)
    1  A    between atoms: N_2  and  N_39
    2  A    between atoms: N_2  and  C_51
    3  A    between atoms: N_3  and  C_42
    4  A    between atoms: C_4  and  C_11
    5  A    between atoms: C_6  and  O_30
    6  A    between atoms: C_6  and  C_49
    7  A    between atoms: C_8  and  C_41
    8  A    between atoms: C_8  and  S_50
    9  A    between atoms: C_9  and  C_25
   10  A    between atoms: N_12  and  C_41
   11  A    between atoms: C_13  and  C_28
   12  A    between atoms: C_13  and  C_53
   13  A    between atoms: C_15  and  C_16
   14  A    between atoms: C_15  and  C_41
   15  A    between atoms: C_16  and  C_35
   16  A    between atoms: O_17  and  C_25
   17  A    between atoms: O_17  and  C_29
   18  A    between atoms: C_23  and  C_32
   19  A    between atoms: C_23  and  C_35
   20  A    between atoms: C_25  and  C_35
   21  A    between atoms: C_27  and  C_44
   22  A    between atoms: C_29  and  C_53
   23  A    between atoms: O_30  and  C_32
                            x       y       z     vdW  Elec       q    Type
                         _______ _______ _______ _____ _____    ______ ____

>  <TORSDO>
F 23

$$$$
=
 OpenBabel11072412463D

 55 58  0  0  1  0  0  0  0  0999 V2000
  161.2900  208.1390  149.9330 C   0  0  2  0  0  3  0  0  0  0  0  0
  162.0050  209.4790  149.8570 C   0  0  0  0  0  2  0  0  0  0  0  0
  161.8160  210.1200  148.4870 C   0  0  0  0  0  2  0  0  0  0  0  0
  161.3730  211.5820  148.5870 C   0  0  2  0  0  3  0  0  0  0  0  0
  160.8450  212.0730  147.3190 N   0  0  0  0  0  2  0  0  0  0  0  0
  160.1390  213.3100  147.1860 C   0  0  0  0  0  0  0  0  0  0  0  0
  160.0880  214.1210  148.1480 O   0  0  0  0  0  0  0  0  0  0  0  0
  158.7160  211.8060  144.4640 O   0  0  0  0  0  0  0  0  0  0  0  0
  161.8820  212.5620  142.5780 C   0  0  2  0  0  3  0  0  0  0  0  0
  161.9290  214.0500  142.9940 C   0  0  0  0  0  2  0  0  0  0  0  0
  161.2860  214.2920  144.3400 C   0  0  0  0  0  3  0  0  0  0  0  0
  162.1960  212.4210  141.1040 C   0  0  0  0  0  1  0  0  0  0  0  0
  157.4010  212.2820  146.3230 O   0  0  0  0  0  0  0  0  0  0  0  0
  158.4130  212.5290  145.6150 C   0  0  0  0  0  0  0  0  0  0  0  0
  159.4020  213.6250  145.9210 C   0  0  2  0  0  3  0  0  0  0  0  0
  159.8720  212.3520  143.9440 C   0  0  0  0  0  0  0  0  0  0  0  0
  160.5540  211.9100  142.8930 C   0  0  0  0  0  3  0  0  0  0  0  0
  160.2950  213.4900  144.7280 C   0  0  0  0  0  0  0  0  0  0  0  0
  162.4720  212.5010  149.1270 C   0  0  0  0  0  2  0  0  0  0  0  0
  163.3160  214.4490  147.5520 C   0  0  0  0  0  1  0  0  0  0  0  0
  163.8500  212.7600  147.9580 S   0  0  0  0  0  0  0  0  0  0  0  0
  160.9390  207.7590  151.3820 C   0  0  1  0  0  3  0  0  0  0  0  0
  163.1270  206.5800  151.1240 C   0  0  0  0  0  1  0  0  0  0  0  0
  161.9710  206.8480  152.0640 C   0  0  0  0  0  3  0  0  0  0  0  0
  161.3770  205.5300  152.5260 C   0  0  0  0  0  1  0  0  0  0  0  0
  160.6480  208.8910  152.1560 O   0  0  0  0  0  0  0  0  0  0  0  0
  161.7080  209.0030  153.0630 C   0  0  0  0  0  2  0  0  0  0  0  0
  161.2710  208.4330  156.7420 O   0  0  0  0  0  1  0  0  0  0  0  0
  160.1320  208.3030  154.7580 O   0  0  0  0  0  0  0  0  0  0  0  0
  161.3610  208.0470  155.4030 C   0  0  1  0  0  3  0  0  0  0  0  0
  161.1840  209.1950  154.4750 C   0  0  1  0  0  0  0  0  0  0  0  0
  160.0620  210.6190  156.0640 O   0  0  0  0  0  1  0  0  0  0  0  0
  160.9500  210.6300  154.9860 C   0  0  2  0  0  3  0  0  0  0  0  0
  158.4790  212.3580  155.2520 C   0  0  1  0  0  3  0  0  0  0  0  0
  159.3600  212.3210  154.0460 C   0  0  0  0  0  0  0  0  0  0  0  0
  160.4770  211.5920  153.9320 C   0  0  0  0  0  3  0  0  0  0  0  0
  158.0050  214.2550  153.7350 C   0  0  0  0  0  2  0  0  0  0  0  0
  157.5160  213.5200  154.9830 C   0  0  2  0  0  3  0  0  0  0  0  0
  159.0030  213.3470  153.0320 C   0  0  2  0  0  3  0  0  0  0  0  0
  157.3550  214.4370  156.1200 N   0  0  0  0  0  0  0  0  0  0  0  0
  158.4400  214.2790  157.0820 C   0  0  0  0  0  1  0  0  0  0  0  0
  156.2060  214.1060  156.7560 O   0  0  0  0  0  1  0  0  0  0  0  0
  157.7150  211.0490  155.4780 C   0  0  0  0  0  2  0  0  0  0  0  0
  156.4090  210.9780  154.7000 C   0  0  0  0  0  1  0  0  0  0  0  0
  158.3700  212.7070  151.8900 N   0  0  0  0  0  2  0  0  0  0  0  0
  157.7970  213.7250  151.1140 N   0  0  0  0  0  2  0  0  0  0  0  0
  157.3740  213.1120  149.8660 C   0  0  0  0  0  1  0  0  0  0  0  0
  162.1170  207.0440  149.2520 C   0  0  0  0  0  2  0  0  0  0  0  0
  160.0700  206.3030  147.9920 C   0  0  0  0  0  1  0  0  0  0  0  0
  161.5520  206.6220  147.8940 C   0  0  2  0  0  3  0  0  0  0  0  0
  162.2490  205.5240  147.3800 O   0  0  0  0  0  0  0  0  0  0  0  0
  161.3590  204.8970  146.5060 C   0  0  1  0  0  3  0  0  0  0  0  0
  161.5220  205.4740  145.1100 C   0  0  0  0  0  1  0  0  0  0  0  0
  160.9300  202.8050  145.4430 O   0  0  0  0  0  1  0  0  0  0  0  0
  161.6410  203.4080  146.4810 C   0  0  0  0  0  2  0  0  0  0  0  0
  1 48  1  1  0  0  0
  1 22  1  0  0  0  0
  2  1  1  0  0  0  0
  3  2  1  0  0  0  0
  4  3  1  6  0  0  0
  4 19  1  0  0  0  0
  5  4  1  0  0  0  0
  6  5  1  0  0  0  0
  6  7  2  0  0  0  0
  8 14  1  0  0  0  0
  9 12  1  6  0  0  0
  9 17  1  0  0  0  0
  9 10  1  0  0  0  0
 10 11  1  0  0  0  0
 11 18  2  0  0  0  0
 14 15  1  0  0  0  0
 14 13  2  0  0  0  0
 15  6  1  1  0  0  0
 16  8  1  0  0  0  0
 16 18  1  0  0  0  0
 17 16  2  0  0  0  0
 18 15  1  0  0  0  0
 20 21  1  0  0  0  0
 21 19  1  0  0  0  0
 22 24  1  1  0  0  0
 22 26  1  0  0  0  0
 23 24  1  0  0  0  0
 24 25  1  0  0  0  0
 26 27  1  0  0  0  0
 29 30  1  0  0  0  0
 30 28  1  1  0  0  0
 31 27  1  6  0  0  0
 31 29  1  0  0  0  0
 31 33  1  0  0  0  0
 31 30  1  0  0  0  0
 33 32  1  1  0  0  0
 34 43  1  6  0  0  0
 35 34  1  0  0  0  0
 36 35  2  0  0  0  0
 36 33  1  0  0  0  0
 37 38  1  0  0  0  0
 38 34  1  0  0  0  0
 38 40  1  1  0  0  0
 39 45  1  6  0  0  0
 39 37  1  0  0  0  0
 39 35  1  0  0  0  0
 40 42  1  0  0  0  0
 40 41  1  0  0  0  0
 44 43  1  0  0  0  0
 46 45  1  0  0  0  0
 47 46  1  0  0  0  0
 50 49  1  1  0  0  0
 50 48  1  0  0  0  0
 51 50  1  0  0  0  0
 52 53  1  6  0  0  0
 52 51  1  0  0  0  0
 54 55  1  0  0  0  0
 55 52  1  0  0  0  0
M  END
>  <MODEL>
2

>  <REMARK>
 VINA RESULT:      -4.5      3.013      8.263
  Name = 
  23 active torsions:
  status: ('A' for Active; 'I' for Inactive)
    1  A    between atoms: N_2  and  N_39
    2  A    between atoms: N_2  and  C_51
    3  A    between atoms: N_3  and  C_42
    4  A    between atoms: C_4  and  C_11
    5  A    between atoms: C_6  and  O_30
    6  A    between atoms: C_6  and  C_49
    7  A    between atoms: C_8  and  C_41
    8  A    between atoms: C_8  and  S_50
    9  A    between atoms: C_9  and  C_25
   10  A    between atoms: N_12  and  C_41
   11  A    between atoms: C_13  and  C_28
   12  A    between atoms: C_13  and  C_53
   13  A    between atoms: C_15  and  C_16
   14  A    between atoms: C_15  and  C_41
   15  A    between atoms: C_16  and  C_35
   16  A    between atoms: O_17  and  C_25
   17  A    between atoms: O_17  and  C_29
   18  A    between atoms: C_23  and  C_32
   19  A    between atoms: C_23  and  C_35
   20  A    between atoms: C_25  and  C_35
   21  A    between atoms: C_27  and  C_44
   22  A    between atoms: C_29  and  C_53
   23  A    between atoms: O_30  and  C_32
                            x       y       z     vdW  Elec       q    Type
                         _______ _______ _______ _____ _____    ______ ____

>  <TORSDO>
F 23

$$$$
=
 OpenBabel11072412463D

 55 58  0  0  1  0  0  0  0  0999 V2000
  161.4080  205.0960  148.3920 C   0  0  2  0  0  3  0  0  0  0  0  0
  160.7140  205.5390  149.6710 C   0  0  0  0  0  2  0  0  0  0  0  0
  161.7170  206.1240  150.6590 C   0  0  0  0  0  2  0  0  0  0  0  0
  161.1730  206.1490  152.0910 C   0  0  2  0  0  3  0  0  0  0  0  0
  161.5600  207.3680  152.7920 N   0  0  0  0  0  2  0  0  0  0  0  0
  160.9320  207.8150  153.9980 C   0  0  0  0  0  0  0  0  0  0  0  0
  160.1150  207.0720  154.6040 O   0  0  0  0  0  0  0  0  0  0  0  0
  160.1400  209.9060  156.5850 O   0  0  0  0  0  0  0  0  0  0  0  0
  157.5490  211.4580  154.3420 C   0  0  2  0  0  3  0  0  0  0  0  0
  158.5120  211.6550  153.1490 C   0  0  0  0  0  2  0  0  0  0  0  0
  159.6120  210.6200  153.1190 C   0  0  0  0  0  3  0  0  0  0  0  0
  156.7030  212.6970  154.5410 C   0  0  0  0  0  1  0  0  0  0  0  0
  162.0560  208.5930  156.7230 O   0  0  0  0  0  0  0  0  0  0  0  0
  161.1920  209.1870  156.0240 C   0  0  0  0  0  0  0  0  0  0  0  0
  161.1960  209.1950  154.5160 C   0  0  2  0  0  3  0  0  0  0  0  0
  159.4090  210.4260  155.5360 C   0  0  0  0  0  0  0  0  0  0  0  0
  158.2730  211.1090  155.6230 C   0  0  0  0  0  3  0  0  0  0  0  0
  160.0280  210.0970  154.2710 C   0  0  0  0  0  0  0  0  0  0  0  0
  161.5490  204.9000  152.8920 C   0  0  0  0  0  2  0  0  0  0  0  0
  160.1790  202.7870  152.0880 C   0  0  0  0  0  1  0  0  0  0  0  0
  161.8620  203.4310  151.8550 S   0  0  0  0  0  0  0  0  0  0  0  0
  162.0990  206.2710  147.6800 C   0  0  1  0  0  3  0  0  0  0  0  0
  160.8920  205.9160  145.5210 C   0  0  0  0  0  1  0  0  0  0  0  0
  162.2530  206.0890  146.1620 C   0  0  0  0  0  3  0  0  0  0  0  0
  163.1370  204.9110  145.7980 C   0  0  0  0  0  1  0  0  0  0  0  0
  161.4960  207.4960  148.0000 O   0  0  0  0  0  0  0  0  0  0  0  0
  162.5340  208.4330  148.0000 C   0  0  0  0  0  2  0  0  0  0  0  0
  162.3880  210.6660  151.0070 O   0  0  0  0  0  1  0  0  0  0  0  0
  161.0570  209.3590  149.6770 O   0  0  0  0  0  0  0  0  0  0  0  0
  162.3050  209.4480  150.3300 C   0  0  1  0  0  3  0  0  0  0  0  0
  162.1720  209.6310  148.8610 C   0  0  1  0  0  0  0  0  0  0  0  0
  163.2620  211.7680  148.6240 O   0  0  0  0  0  1  0  0  0  0  0  0
  162.1520  211.0280  148.2100 C   0  0  2  0  0  3  0  0  0  0  0  0
  160.8860  212.8800  146.1780 C   0  0  1  0  0  3  0  0  0  0  0  0
  160.3600  212.6510  147.5580 C   0  0  0  0  0  0  0  0  0  0  0  0
  160.8880  211.8040  148.4510 C   0  0  0  0  0  3  0  0  0  0  0  0
  158.5820  213.7520  146.4180 C   0  0  0  0  0  2  0  0  0  0  0  0
  159.7970  213.7100  145.4910 C   0  0  2  0  0  3  0  0  0  0  0  0
  159.0440  213.2990  147.7950 C   0  0  2  0  0  3  0  0  0  0  0  0
  159.4340  213.2260  144.1510 N   0  0  0  0  0  0  0  0  0  0  0  0
  160.0970  214.0050  143.1110 C   0  0  0  0  0  1  0  0  0  0  0  0
  158.1010  213.4050  143.9950 O   0  0  0  0  0  1  0  0  0  0  0  0
  162.2310  213.6120  146.1620 C   0  0  0  0  0  2  0  0  0  0  0  0
  163.0860  213.2640  144.9500 C   0  0  0  0  0  1  0  0  0  0  0  0
  159.2170  214.4520  148.6630 N   0  0  0  0  0  2  0  0  0  0  0  0
  160.1900  214.1100  149.6140 N   0  0  0  0  0  2  0  0  0  0  0  0
  159.6010  214.3490  150.9210 C   0  0  0  0  0  1  0  0  0  0  0  0
  160.4240  204.3790  147.4620 C   0  0  0  0  0  2  0  0  0  0  0  0
  161.1620  202.3360  148.7310 C   0  0  0  0  0  1  0  0  0  0  0  0
  160.6480  202.8660  147.4040 C   0  0  2  0  0  3  0  0  0  0  0  0
  161.5330  202.5300  146.3740 O   0  0  0  0  0  0  0  0  0  0  0  0
  160.9540  201.4330  145.7330 C   0  0  1  0  0  3  0  0  0  0  0  0
  161.0180  200.2180  146.6430 C   0  0  0  0  0  1  0  0  0  0  0  0
  159.4450  202.5200  144.2390 O   0  0  0  0  0  1  0  0  0  0  0  0
  159.5090  201.7480  145.4000 C   0  0  0  0  0  2  0  0  0  0  0  0
  1 48  1  6  0  0  0
  1  2  1  0  0  0  0
  2  3  1  0  0  0  0
  4  3  1  6  0  0  0
  4  5  1  0  0  0  0
  4 19  1  0  0  0  0
  5  6  1  0  0  0  0
  6  7  2  0  0  0  0
  9 12  1  1  0  0  0
  9 17  1  0  0  0  0
 10  9  1  0  0  0  0
 11 10  1  0  0  0  0
 11 18  2  0  0  0  0
 14  8  1  0  0  0  0
 14 13  2  0  0  0  0
 15  6  1  6  0  0  0
 15 14  1  0  0  0  0
 16 17  2  0  0  0  0
 16  8  1  0  0  0  0
 18 15  1  0  0  0  0
 18 16  1  0  0  0  0
 21 20  1  0  0  0  0
 21 19  1  0  0  0  0
 22 24  1  6  0  0  0
 22 26  1  0  0  0  0
 22  1  1  0  0  0  0
 23 24  1  0  0  0  0
 25 24  1  0  0  0  0
 27 26  1  0  0  0  0
 29 30  1  0  0  0  0
 30 28  1  1  0  0  0
 31 27  1  6  0  0  0
 31 29  1  0  0  0  0
 31 30  1  0  0  0  0
 33 36  1  0  0  0  0
 33 32  1  1  0  0  0
 33 31  1  0  0  0  0
 34 43  1  1  0  0  0
 34 35  1  0  0  0  0
 35 39  1  0  0  0  0
 35 36  2  0  0  0  0
 37 39  1  0  0  0  0
 38 40  1  6  0  0  0
 38 34  1  0  0  0  0
 38 37  1  0  0  0  0
 39 45  1  1  0  0  0
 41 40  1  0  0  0  0
 42 40  1  0  0  0  0
 44 43  1  0  0  0  0
 45 46  1  0  0  0  0
 46 47  1  0  0  0  0
 50 48  1  0  0  0  0
 50 49  1  1  0  0  0
 51 50  1  0  0  0  0
 52 51  1  0  0  0  0
 52 53  1  1  0  0  0
 54 55  1  0  0  0  0
 55 52  1  0  0  0  0
M  END
>  <MODEL>
3

>  <REMARK>
 VINA RESULT:      -4.5      2.785      9.859
  Name = 
  23 active torsions:
  status: ('A' for Active; 'I' for Inactive)
    1  A    between atoms: N_2  and  N_39
    2  A    between atoms: N_2  and  C_51
    3  A    between atoms: N_3  and  C_42
    4  A    between atoms: C_4  and  C_11
    5  A    between atoms: C_6  and  O_30
    6  A    between atoms: C_6  and  C_49
    7  A    between atoms: C_8  and  C_41
    8  A    between atoms: C_8  and  S_50
    9  A    between atoms: C_9  and  C_25
   10  A    between atoms: N_12  and  C_41
   11  A    between atoms: C_13  and  C_28
   12  A    between atoms: C_13  and  C_53
   13  A    between atoms: C_15  and  C_16
   14  A    between atoms: C_15  and  C_41
   15  A    between atoms: C_16  and  C_35
   16  A    between atoms: O_17  and  C_25
   17  A    between atoms: O_17  and  C_29
   18  A    between atoms: C_23  and  C_32
   19  A    between atoms: C_23  and  C_35
   20  A    between atoms: C_25  and  C_35
   21  A    between atoms: C_27  and  C_44
   22  A    between atoms: C_29  and  C_53
   23  A    between atoms: O_30  and  C_32
                            x       y       z     vdW  Elec       q    Type
                         _______ _______ _______ _____ _____    ______ ____

>  <TORSDO>
F 23

$$$$
=
 OpenBabel11072412463D

 55 58  0  0  1  0  0  0  0  0999 V2000
  160.9590  210.3720  153.5780 C   0  0  2  0  0  3  0  0  0  0  0  0
  160.8310  211.0580  152.2280 C   0  0  0  0  0  2  0  0  0  0  0  0
  160.1370  212.4090  152.3660 C   0  0  0  0  0  2  0  0  0  0  0  0
  159.5730  212.9110  151.0340 C   0  0  2  0  0  3  0  0  0  0  0  0
  160.5420  212.7720  149.9530 N   0  0  0  0  0  2  0  0  0  0  0  0
  160.2050  212.9230  148.5700 C   0  0  0  0  0  0  0  0  0  0  0  0
  159.0710  213.3540  148.2340 O   0  0  0  0  0  0  0  0  0  0  0  0
  162.4060  214.2240  146.2990 O   0  0  0  0  0  0  0  0  0  0  0  0
  159.7150  213.8460  143.6980 C   0  0  2  0  0  3  0  0  0  0  0  0
  159.3930  212.3780  144.0570 C   0  0  0  0  0  2  0  0  0  0  0  0
  159.6610  212.0690  145.5120 C   0  0  0  0  0  3  0  0  0  0  0  0
  159.7810  214.0150  142.1950 C   0  0  0  0  0  1  0  0  0  0  0  0
  163.1730  213.6040  148.4060 O   0  0  0  0  0  0  0  0  0  0  0  0
  162.3370  213.4780  147.4730 C   0  0  0  0  0  0  0  0  0  0  0  0
  161.1790  212.5130  147.5100 C   0  0  2  0  0  3  0  0  0  0  0  0
  161.3510  213.8200  145.5070 C   0  0  0  0  0  0  0  0  0  0  0  0
  160.9970  214.3340  144.3340 C   0  0  0  0  0  3  0  0  0  0  0  0
  160.6200  212.7460  146.1420 C   0  0  0  0  0  0  0  0  0  0  0  0
  159.0310  214.3400  151.1180 C   0  0  0  0  0  2  0  0  0  0  0  0
  156.5230  213.9790  150.3670 C   0  0  0  0  0  1  0  0  0  0  0  0
  157.3830  214.4530  151.8950 S   0  0  0  0  0  0  0  0  0  0  0  0
  161.3300  208.8870  153.4330 C   0  0  1  0  0  3  0  0  0  0  0  0
  161.8030  207.9860  155.7160 C   0  0  0  0  0  1  0  0  0  0  0  0
  160.8130  207.9910  154.5690 C   0  0  0  0  0  3  0  0  0  0  0  0
  160.5510  206.5650  154.1210 C   0  0  0  0  0  1  0  0  0  0  0  0
  160.9750  208.3870  152.1720 O   0  0  0  0  0  0  0  0  0  0  0  0
  162.1500  207.8420  151.6440 C   0  0  0  0  0  2  0  0  0  0  0  0
  162.4580  209.3980  148.2470 O   0  0  0  0  0  1  0  0  0  0  0  0
  160.9220  208.4290  149.6440 O   0  0  0  0  0  0  0  0  0  0  0  0
  162.0130  209.3210  149.5680 C   0  0  1  0  0  3  0  0  0  0  0  0
  162.1550  207.9510  150.1290 C   0  0  1  0  0  0  0  0  0  0  0  0
  162.5030  206.9860  147.9480 O   0  0  0  0  0  1  0  0  0  0  0  0
  162.7500  206.7900  149.3080 C   0  0  2  0  0  3  0  0  0  0  0  0
  161.3020  204.8530  147.4870 C   0  0  1  0  0  3  0  0  0  0  0  0
  161.6020  204.5970  148.9280 C   0  0  0  0  0  0  0  0  0  0  0  0
  162.2770  205.4280  149.7330 C   0  0  0  0  0  3  0  0  0  0  0  0
  160.9730  202.4690  148.0620 C   0  0  0  0  0  2  0  0  0  0  0  0
  160.7650  203.5150  146.9680 C   0  0  2  0  0  3  0  0  0  0  0  0
  161.2660  203.2140  149.3560 C   0  0  2  0  0  3  0  0  0  0  0  0
  161.3610  203.0880  145.6940 N   0  0  0  0  0  0  0  0  0  0  0  0
  161.2600  204.1380  144.6860 C   0  0  0  0  0  1  0  0  0  0  0  0
  160.6480  202.0300  145.2400 O   0  0  0  0  0  1  0  0  0  0  0  0
  160.2810  205.9770  147.2770 C   0  0  0  0  0  2  0  0  0  0  0  0
  160.4930  206.7400  145.9770 C   0  0  0  0  0  1  0  0  0  0  0  0
  160.0770  203.2370  150.1930 N   0  0  0  0  0  2  0  0  0  0  0  0
  160.1850  202.1630  151.0890 N   0  0  0  0  0  2  0  0  0  0  0  0
  161.6030  201.9750  151.3490 C   0  0  0  0  0  1  0  0  0  0  0  0
  159.6770  210.5500  154.4000 C   0  0  0  0  0  2  0  0  0  0  0  0
  161.2170  211.4320  156.1840 C   0  0  0  0  0  1  0  0  0  0  0  0
  159.8390  211.5420  155.5550 C   0  0  2  0  0  3  0  0  0  0  0  0
  158.8490  211.3460  156.5240 O   0  0  0  0  0  0  0  0  0  0  0  0
  157.6530  211.7280  155.9130 C   0  0  1  0  0  3  0  0  0  0  0  0
  156.5360  210.7940  156.3490 C   0  0  0  0  0  1  0  0  0  0  0  0
  158.0220  214.0510  155.5120 O   0  0  0  0  0  1  0  0  0  0  0  0
  157.3160  213.1510  156.3110 C   0  0  0  0  0  2  0  0  0  0  0  0
  1  2  1  6  0  0  0
  1 48  1  0  0  0  0
  2  3  1  0  0  0  0
  4 19  1  1  0  0  0
  4  3  1  0  0  0  0
  5  4  1  0  0  0  0
  6  5  1  0  0  0  0
  7  6  2  0  0  0  0
  8 14  1  0  0  0  0
  9 12  1  6  0  0  0
  9 10  1  0  0  0  0
  9 17  1  0  0  0  0
 10 11  1  0  0  0  0
 11 18  2  0  0  0  0
 14 15  1  0  0  0  0
 14 13  2  0  0  0  0
 15  6  1  1  0  0  0
 16 18  1  0  0  0  0
 16  8  1  0  0  0  0
 17 16  2  0  0  0  0
 18 15  1  0  0  0  0
 19 21  1  0  0  0  0
 20 21  1  0  0  0  0
 22 26  1  6  0  0  0
 22  1  1  0  0  0  0
 22 24  1  0  0  0  0
 24 23  1  0  0  0  0
 25 24  1  0  0  0  0
 27 26  1  0  0  0  0
 29 31  1  0  0  0  0
 30 28  1  6  0  0  0
 30 29  1  0  0  0  0
 30 31  1  0  0  0  0
 31 27  1  1  0  0  0
 33 32  1  6  0  0  0
 33 36  1  0  0  0  0
 33 31  1  0  0  0  0
 34 43  1  1  0  0  0
 34 35  1  0  0  0  0
 35 39  1  0  0  0  0
 35 36  2  0  0  0  0
 37 39  1  0  0  0  0
 38 40  1  6  0  0  0
 38 34  1  0  0  0  0
 38 37  1  0  0  0  0
 39 45  1  1  0  0  0
 41 40  1  0  0  0  0
 42 40  1  0  0  0  0
 44 43  1  0  0  0  0
 45 46  1  0  0  0  0
 46 47  1  0  0  0  0
 48 50  1  0  0  0  0
 50 49  1  1  0  0  0
 50 51  1  0  0  0  0
 52 55  1  0  0  0  0
 52 53  1  1  0  0  0
 52 51  1  0  0  0  0
 54 55  1  0  0  0  0
M  END
>  <MODEL>
4

>  <REMARK>
 VINA RESULT:      -4.0      2.017      3.042
  Name = 
  23 active torsions:
  status: ('A' for Active; 'I' for Inactive)
    1  A    between atoms: N_2  and  N_39
    2  A    between atoms: N_2  and  C_51
    3  A    between atoms: N_3  and  C_42
    4  A    between atoms: C_4  and  C_11
    5  A    between atoms: C_6  and  O_30
    6  A    between atoms: C_6  and  C_49
    7  A    between atoms: C_8  and  C_41
    8  A    between atoms: C_8  and  S_50
    9  A    between atoms: C_9  and  C_25
   10  A    between atoms: N_12  and  C_41
   11  A    between atoms: C_13  and  C_28
   12  A    between atoms: C_13  and  C_53
   13  A    between atoms: C_15  and  C_16
   14  A    between atoms: C_15  and  C_41
   15  A    between atoms: C_16  and  C_35
   16  A    between atoms: O_17  and  C_25
   17  A    between atoms: O_17  and  C_29
   18  A    between atoms: C_23  and  C_32
   19  A    between atoms: C_23  and  C_35
   20  A    between atoms: C_25  and  C_35
   21  A    between atoms: C_27  and  C_44
   22  A    between atoms: C_29  and  C_53
   23  A    between atoms: O_30  and  C_32
                            x       y       z     vdW  Elec       q    Type
                         _______ _______ _______ _____ _____    ______ ____

>  <TORSDO>
F 23

$$$$
=
 OpenBabel11072412463D

 55 58  0  0  1  0  0  0  0  0999 V2000
  162.0950  206.7460  149.7710 C   0  0  2  0  0  3  0  0  0  0  0  0
  160.9110  207.1210  150.6500 C   0  0  0  0  0  2  0  0  0  0  0  0
  161.2890  208.2270  151.6280 C   0  0  0  0  0  2  0  0  0  0  0  0
  160.5390  208.1060  152.9580 C   0  0  2  0  0  3  0  0  0  0  0  0
  160.2710  209.4130  153.5460 N   0  0  0  0  0  2  0  0  0  0  0  0
  161.2590  210.4430  153.6580 C   0  0  0  0  0  0  0  0  0  0  0  0
  162.3770  210.3180  153.0920 O   0  0  0  0  0  0  0  0  0  0  0  0
  160.1740  211.3620  156.7690 O   0  0  0  0  0  0  0  0  0  0  0  0
  156.7720  211.9070  155.2590 C   0  0  2  0  0  3  0  0  0  0  0  0
  157.2890  212.7640  154.0810 C   0  0  0  0  0  2  0  0  0  0  0  0
  158.6990  212.4000  153.6790 C   0  0  0  0  0  3  0  0  0  0  0  0
  155.5290  212.5330  155.8560 C   0  0  0  0  0  1  0  0  0  0  0  0
  162.4550  211.1120  156.3820 O   0  0  0  0  0  0  0  0  0  0  0  0
  161.2980  211.3500  155.9460 C   0  0  0  0  0  0  0  0  0  0  0  0
  160.9920  211.6520  154.5000 C   0  0  2  0  0  3  0  0  0  0  0  0
  159.0950  211.6660  155.9650 C   0  0  0  0  0  0  0  0  0  0  0  0
  157.8180  211.6990  156.3320 C   0  0  0  0  0  3  0  0  0  0  0  0
  159.5250  211.9230  154.6090 C   0  0  0  0  0  0  0  0  0  0  0  0
  161.2420  207.1790  153.9540 C   0  0  0  0  0  2  0  0  0  0  0  0
  159.5390  207.0700  155.9730 C   0  0  0  0  0  1  0  0  0  0  0  0
  161.1860  207.7790  155.6770 S   0  0  0  0  0  0  0  0  0  0  0  0
  161.9190  207.2490  148.3280 C   0  0  1  0  0  3  0  0  0  0  0  0
  162.2730  205.4460  146.6360 C   0  0  0  0  0  1  0  0  0  0  0  0
  161.2320  206.2480  147.3880 C   0  0  0  0  0  3  0  0  0  0  0  0
  160.2960  206.9180  146.3980 C   0  0  0  0  0  1  0  0  0  0  0  0
  161.3010  208.5080  148.2930 O   0  0  0  0  0  0  0  0  0  0  0  0
  162.3490  209.4350  148.2690 C   0  0  0  0  0  2  0  0  0  0  0  0
  161.6480  212.7280  149.9170 O   0  0  0  0  0  1  0  0  0  0  0  0
  160.5910  210.8480  149.1430 O   0  0  0  0  0  0  0  0  0  0  0  0
  161.7120  211.3350  149.8490 C   0  0  1  0  0  3  0  0  0  0  0  0
  161.8160  210.8460  148.4490 C   0  0  1  0  0  0  0  0  0  0  0  0
  162.6720  212.9100  147.5440 O   0  0  0  0  0  1  0  0  0  0  0  0
  161.8630  211.8110  147.2480 C   0  0  2  0  0  3  0  0  0  0  0  0
  161.3400  212.9710  144.5020 C   0  0  1  0  0  3  0  0  0  0  0  0
  160.3040  212.8190  145.5670 C   0  0  0  0  0  0  0  0  0  0  0  0
  160.5140  212.2700  146.7710 C   0  0  0  0  0  3  0  0  0  0  0  0
  159.0590  213.2600  143.5850 C   0  0  0  0  0  2  0  0  0  0  0  0
  160.5460  213.3920  143.2600 C   0  0  2  0  0  3  0  0  0  0  0  0
  158.9320  213.1410  145.0970 C   0  0  2  0  0  3  0  0  0  0  0  0
  160.9000  212.6440  142.0450 N   0  0  0  0  0  0  0  0  0  0  0  0
  159.7560  211.8950  141.5340 C   0  0  0  0  0  1  0  0  0  0  0  0
  161.8510  211.7400  142.3800 O   0  0  0  0  0  1  0  0  0  0  0  0
  162.4120  214.0080  144.8500 C   0  0  0  0  0  2  0  0  0  0  0  0
  163.7190  213.7910  144.1000 C   0  0  0  0  0  1  0  0  0  0  0  0
  158.5090  214.4140  145.6590 N   0  0  0  0  0  2  0  0  0  0  0  0
  157.3180  214.1770  146.3620 N   0  0  0  0  0  2  0  0  0  0  0  0
  157.5960  214.4530  147.7610 C   0  0  0  0  0  1  0  0  0  0  0  0
  162.3410  205.2340  149.8100 C   0  0  0  0  0  2  0  0  0  0  0  0
  160.5600  204.6880  151.5010 C   0  0  0  0  0  1  0  0  0  0  0  0
  161.0720  204.4270  150.0950 C   0  0  2  0  0  3  0  0  0  0  0  0
  161.2970  203.0590  149.9090 O   0  0  0  0  0  0  0  0  0  0  0  0
  160.4830  202.6940  148.8340 C   0  0  1  0  0  3  0  0  0  0  0  0
  161.3470  202.1990  147.6860 C   0  0  0  0  0  1  0  0  0  0  0  0
  160.2430  200.5780  149.9100 O   0  0  0  0  0  1  0  0  0  0  0  0
  159.5340  201.5960  149.2710 C   0  0  0  0  0  2  0  0  0  0  0  0
  1 48  1  6  0  0  0
  1  2  1  0  0  0  0
  2  3  1  0  0  0  0
  4  3  1  6  0  0  0
  4  5  1  0  0  0  0
  4 19  1  0  0  0  0
  5  6  1  0  0  0  0
  7  6  2  0  0  0  0
  9 12  1  1  0  0  0
  9 17  1  0  0  0  0
 10  9  1  0  0  0  0
 11 10  1  0  0  0  0
 11 18  2  0  0  0  0
 14 13  2  0  0  0  0
 14  8  1  0  0  0  0
 15  6  1  6  0  0  0
 15 18  1  0  0  0  0
 15 14  1  0  0  0  0
 16 17  2  0  0  0  0
 16  8  1  0  0  0  0
 18 16  1  0  0  0  0
 19 21  1  0  0  0  0
 21 20  1  0  0  0  0
 22 24  1  6  0  0  0
 22  1  1  0  0  0  0
 23 24  1  0  0  0  0
 25 24  1  0  0  0  0
 26 22  1  0  0  0  0
 27 26  1  0  0  0  0
 29 30  1  0  0  0  0
 30 28  1  6  0  0  0
 31 27  1  6  0  0  0
 31 29  1  0  0  0  0
 31 30  1  0  0  0  0
 33 32  1  1  0  0  0
 33 31  1  0  0  0  0
 34 43  1  1  0  0  0
 34 35  1  0  0  0  0
 35 36  2  0  0  0  0
 36 33  1  0  0  0  0
 37 39  1  0  0  0  0
 38 40  1  6  0  0  0
 38 37  1  0  0  0  0
 38 34  1  0  0  0  0
 39 35  1  0  0  0  0
 39 45  1  1  0  0  0
 40 42  1  0  0  0  0
 41 40  1  0  0  0  0
 44 43  1  0  0  0  0
 45 46  1  0  0  0  0
 46 47  1  0  0  0  0
 48 50  1  0  0  0  0
 50 49  1  1  0  0  0
 51 50  1  0  0  0  0
 52 53  1  6  0  0  0
 52 55  1  0  0  0  0
 52 51  1  0  0  0  0
 55 54  1  0  0  0  0
M  END
>  <MODEL>
5

>  <REMARK>
 VINA RESULT:      -4.0      3.140      9.430
  Name = 
  23 active torsions:
  status: ('A' for Active; 'I' for Inactive)
    1  A    between atoms: N_2  and  N_39
    2  A    between atoms: N_2  and  C_51
    3  A    between atoms: N_3  and  C_42
    4  A    between atoms: C_4  and  C_11
    5  A    between atoms: C_6  and  O_30
    6  A    between atoms: C_6  and  C_49
    7  A    between atoms: C_8  and  C_41
    8  A    between atoms: C_8  and  S_50
    9  A    between atoms: C_9  and  C_25
   10  A    between atoms: N_12  and  C_41
   11  A    between atoms: C_13  and  C_28
   12  A    between atoms: C_13  and  C_53
   13  A    between atoms: C_15  and  C_16
   14  A    between atoms: C_15  and  C_41
   15  A    between atoms: C_16  and  C_35
   16  A    between atoms: O_17  and  C_25
   17  A    between atoms: O_17  and  C_29
   18  A    between atoms: C_23  and  C_32
   19  A    between atoms: C_23  and  C_35
   20  A    between atoms: C_25  and  C_35
   21  A    between atoms: C_27  and  C_44
   22  A    between atoms: C_29  and  C_53
   23  A    between atoms: O_30  and  C_32
                            x       y       z     vdW  Elec       q    Type
                         _______ _______ _______ _____ _____    ______ ____

>  <TORSDO>
F 23

$$$$
=
 OpenBabel11072412463D

 55 58  0  0  1  0  0  0  0  0999 V2000
  162.4650  205.7440  145.4990 C   0  0  2  0  0  3  0  0  0  0  0  0
  161.5930  206.6310  146.3730 C   0  0  0  0  0  2  0  0  0  0  0  0
  161.9160  206.4270  147.8490 C   0  0  0  0  0  2  0  0  0  0  0  0
  162.5070  207.6850  148.4920 C   0  0  2  0  0  3  0  0  0  0  0  0
  162.8220  207.4720  149.9000 N   0  0  0  0  0  2  0  0  0  0  0  0
  161.8300  207.1980  150.8950 C   0  0  0  0  0  0  0  0  0  0  0  0
  160.6400  206.9590  150.5600 O   0  0  0  0  0  0  0  0  0  0  0  0
  160.4880  206.7420  154.0070 O   0  0  0  0  0  0  0  0  0  0  0  0
  160.0220  210.4700  154.1900 C   0  0  2  0  0  3  0  0  0  0  0  0
  161.4680  210.8020  153.7580 C   0  0  0  0  0  2  0  0  0  0  0  0
  162.0590  209.7430  152.8570 C   0  0  0  0  0  3  0  0  0  0  0  0
  159.6090  211.3450  155.3540 C   0  0  0  0  0  1  0  0  0  0  0  0
  161.5650  204.9670  152.9570 O   0  0  0  0  0  0  0  0  0  0  0  0
  161.4080  206.2070  153.1080 C   0  0  0  0  0  0  0  0  0  0  0  0
  162.1880  207.2500  152.3480 C   0  0  2  0  0  3  0  0  0  0  0  0
  160.5940  208.1140  153.9170 C   0  0  0  0  0  0  0  0  0  0  0  0
  159.8400  209.0110  154.5440 C   0  0  0  0  0  3  0  0  0  0  0  0
  161.6440  208.4850  152.9950 C   0  0  0  0  0  0  0  0  0  0  0  0
  161.6270  208.9230  148.2980 C   0  0  0  0  0  2  0  0  0  0  0  0
  161.6610  211.5390  147.9230 C   0  0  0  0  0  1  0  0  0  0  0  0
  162.2120  210.3880  149.2160 S   0  0  0  0  0  0  0  0  0  0  0  0
  161.7910  205.4260  144.1530 C   0  0  1  0  0  3  0  0  0  0  0  0
  159.7930  206.2410  145.4130 C   0  0  0  0  0  1  0  0  0  0  0  0
  160.2570  205.4870  144.1840 C   0  0  0  0  0  3  0  0  0  0  0  0
  159.6130  204.1120  144.1610 C   0  0  0  0  0  1  0  0  0  0  0  0
  162.3240  206.2010  143.1140 O   0  0  0  0  0  0  0  0  0  0  0  0
  161.3690  206.1590  142.0920 C   0  0  0  0  0  2  0  0  0  0  0  0
  162.7560  206.4250  138.6200 O   0  0  0  0  0  1  0  0  0  0  0  0
  163.3210  206.7910  140.8110 O   0  0  0  0  0  0  0  0  0  0  0  0
  162.6770  205.9100  139.9150 C   0  0  1  0  0  3  0  0  0  0  0  0
  161.9120  206.8010  140.8270 C   0  0  1  0  0  0  0  0  0  0  0  0
  160.6980  207.9440  139.0880 O   0  0  0  0  0  1  0  0  0  0  0  0
  161.2840  208.1220  140.3420 C   0  0  2  0  0  3  0  0  0  0  0  0
  160.4800  210.9860  140.8990 C   0  0  1  0  0  3  0  0  0  0  0  0
  161.8590  210.5530  140.5220 C   0  0  0  0  0  0  0  0  0  0  0  0
  162.2360  209.2850  140.3130 C   0  0  0  0  0  3  0  0  0  0  0  0
  162.1310  212.7820  141.3160 C   0  0  0  0  0  2  0  0  0  0  0  0
  160.6370  212.4630  141.2760 C   0  0  2  0  0  3  0  0  0  0  0  0
  162.8580  211.6490  140.6050 C   0  0  2  0  0  3  0  0  0  0  0  0
  159.9740  212.8300  142.5360 N   0  0  0  0  0  0  0  0  0  0  0  0
  159.0360  213.9290  142.3390 C   0  0  0  0  0  1  0  0  0  0  0  0
  160.9290  213.2690  143.3910 O   0  0  0  0  0  1  0  0  0  0  0  0
  159.4640  210.8110  139.7650 C   0  0  0  0  0  2  0  0  0  0  0  0
  158.7680  212.1100  139.3810 C   0  0  0  0  0  1  0  0  0  0  0  0
  163.2350  212.0690  139.2650 N   0  0  0  0  0  2  0  0  0  0  0  0
  163.9260  213.2830  139.3940 N   0  0  0  0  0  2  0  0  0  0  0  0
  164.2110  213.7480  138.0470 C   0  0  0  0  0  1  0  0  0  0  0  0
  162.8560  204.4640  146.2450 C   0  0  0  0  0  2  0  0  0  0  0  0
  161.4080  203.3830  147.9960 C   0  0  0  0  0  1  0  0  0  0  0  0
  161.6670  203.5360  146.5070 C   0  0  2  0  0  3  0  0  0  0  0  0
  161.8730  202.2820  145.9220 O   0  0  0  0  0  0  0  0  0  0  0  0
  160.7830  201.5050  146.3200 C   0  0  1  0  0  3  0  0  0  0  0  0
  159.9540  201.1280  145.1030 C   0  0  0  0  0  1  0  0  0  0  0  0
  161.5630  199.2660  146.0610 O   0  0  0  0  0  1  0  0  0  0  0  0
  161.2810  200.2510  147.0080 C   0  0  0  0  0  2  0  0  0  0  0  0
  1 48  1  1  0  0  0
  1  2  1  0  0  0  0
  2  3  1  0  0  0  0
  4  3  1  1  0  0  0
  4  5  1  0  0  0  0
  5  6  1  0  0  0  0
  7  6  2  0  0  0  0
  9 17  1  0  0  0  0
  9 12  1  1  0  0  0
 10  9  1  0  0  0  0
 11 18  2  0  0  0  0
 11 10  1  0  0  0  0
 13 14  2  0  0  0  0
 14  8  1  0  0  0  0
 15  6  1  6  0  0  0
 15 18  1  0  0  0  0
 15 14  1  0  0  0  0
 16  8  1  0  0  0  0
 16 17  2  0  0  0  0
 18 16  1  0  0  0  0
 19  4  1  0  0  0  0
 19 21  1  0  0  0  0
 20 21  1  0  0  0  0
 22 26  1  6  0  0  0
 22 24  1  0  0  0  0
 22  1  1  0  0  0  0
 24 23  1  0  0  0  0
 25 24  1  0  0  0  0
 27 26  1  0  0  0  0
 29 31  1  0  0  0  0
 30 28  1  6  0  0  0
 30 29  1  0  0  0  0
 30 31  1  0  0  0  0
 31 27  1  1  0  0  0
 33 32  1  6  0  0  0
 33 31  1  0  0  0  0
 34 43  1  6  0  0  0
 34 38  1  0  0  0  0
 35 39  1  0  0  0  0
 35 34  1  0  0  0  0
 36 33  1  0  0  0  0
 36 35  2  0  0  0  0
 38 37  1  0  0  0  0
 38 40  1  1  0  0  0
 39 45  1  6  0  0  0
 39 37  1  0  0  0  0
 40 42  1  0  0  0  0
 41 40  1  0  0  0  0
 44 43  1  0  0  0  0
 45 46  1  0  0  0  0
 47 46  1  0  0  0  0
 48 50  1  0  0  0  0
 50 49  1  1  0  0  0
 51 52  1  0  0  0  0
 51 50  1  0  0  0  0
 52 53  1  6  0  0  0
 52 55  1  0  0  0  0
 54 55  1  0  0  0  0
M  END
>  <MODEL>
6

>  <REMARK>
 VINA RESULT:      -3.3      3.534     11.025
  Name = 
  23 active torsions:
  status: ('A' for Active; 'I' for Inactive)
    1  A    between atoms: N_2  and  N_39
    2  A    between atoms: N_2  and  C_51
    3  A    between atoms: N_3  and  C_42
    4  A    between atoms: C_4  and  C_11
    5  A    between atoms: C_6  and  O_30
    6  A    between atoms: C_6  and  C_49
    7  A    between atoms: C_8  and  C_41
    8  A    between atoms: C_8  and  S_50
    9  A    between atoms: C_9  and  C_25
   10  A    between atoms: N_12  and  C_41
   11  A    between atoms: C_13  and  C_28
   12  A    between atoms: C_13  and  C_53
   13  A    between atoms: C_15  and  C_16
   14  A    between atoms: C_15  and  C_41
   15  A    between atoms: C_16  and  C_35
   16  A    between atoms: O_17  and  C_25
   17  A    between atoms: O_17  and  C_29
   18  A    between atoms: C_23  and  C_32
   19  A    between atoms: C_23  and  C_35
   20  A    between atoms: C_25  and  C_35
   21  A    between atoms: C_27  and  C_44
   22  A    between atoms: C_29  and  C_53
   23  A    between atoms: O_30  and  C_32
                            x       y       z     vdW  Elec       q    Type
                         _______ _______ _______ _____ _____    ______ ____

>  <TORSDO>
F 23

$$$$
=
 OpenBabel11072412463D

 55 58  0  0  1  0  0  0  0  0999 V2000
  160.8550  208.7860  151.5060 C   0  0  2  0  0  3  0  0  0  0  0  0
  160.1810  209.8330  152.3790 C   0  0  0  0  0  2  0  0  0  0  0  0
  160.9800  211.1310  152.3870 C   0  0  0  0  0  2  0  0  0  0  0  0
  160.0940  212.3560  152.6330 C   0  0  2  0  0  3  0  0  0  0  0  0
  159.3310  212.2290  153.8700 N   0  0  0  0  0  2  0  0  0  0  0  0
  159.9190  211.8610  155.1220 C   0  0  0  0  0  0  0  0  0  0  0  0
  161.1710  211.7920  155.2430 O   0  0  0  0  0  0  0  0  0  0  0  0
  156.8860  210.4690  155.8680 O   0  0  0  0  0  0  0  0  0  0  0  0
  155.5320  213.9630  156.2040 C   0  0  2  0  0  3  0  0  0  0  0  0
  156.6680  214.4530  157.1300 C   0  0  0  0  0  2  0  0  0  0  0  0
  157.9690  213.7250  156.8830 C   0  0  0  0  0  3  0  0  0  0  0  0
  154.1930  214.4440  156.7180 C   0  0  0  0  0  1  0  0  0  0  0  0
  158.7770  209.1160  155.8000 O   0  0  0  0  0  0  0  0  0  0  0  0
  158.2580  210.2510  155.9640 C   0  0  0  0  0  0  0  0  0  0  0  0
  159.0480  211.4960  156.2830 C   0  0  2  0  0  3  0  0  0  0  0  0
  156.6770  211.8100  156.1150 C   0  0  0  0  0  0  0  0  0  0  0  0
  155.5190  212.4590  156.0430 C   0  0  0  0  0  3  0  0  0  0  0  0
  157.9220  212.4680  156.4420 C   0  0  0  0  0  0  0  0  0  0  0  0
  159.1820  212.6790  151.4460 C   0  0  0  0  0  2  0  0  0  0  0  0
  157.1200  214.0660  150.5470 C   0  0  0  0  0  1  0  0  0  0  0  0
  158.7100  214.4390  151.3430 S   0  0  0  0  0  0  0  0  0  0  0  0
  161.1630  207.4990  152.2910 C   0  0  1  0  0  3  0  0  0  0  0  0
  162.0590  208.7830  154.2380 C   0  0  0  0  0  1  0  0  0  0  0  0
  161.1290  207.6650  153.8170 C   0  0  0  0  0  3  0  0  0  0  0  0
  161.5020  206.3920  154.5550 C   0  0  0  0  0  1  0  0  0  0  0  0
  160.3610  206.4310  151.8630 O   0  0  0  0  0  0  0  0  0  0  0  0
  161.1030  205.7850  150.8670 C   0  0  0  0  0  2  0  0  0  0  0  0
  160.1760  202.4730  152.3570 O   0  0  0  0  0  1  0  0  0  0  0  0
  161.9660  203.8750  152.0740 O   0  0  0  0  0  0  0  0  0  0  0  0
  160.5930  203.8050  152.3940 C   0  0  1  0  0  3  0  0  0  0  0  0
  161.0680  204.2800  151.0680 C   0  0  1  0  0  0  0  0  0  0  0  0
  161.9880  202.3380  149.9770 O   0  0  0  0  0  1  0  0  0  0  0  0
  161.0620  203.3710  149.8230 C   0  0  2  0  0  3  0  0  0  0  0  0
  160.8140  202.0890  147.0930 C   0  0  1  0  0  3  0  0  0  0  0  0
  161.2250  203.5050  147.3280 C   0  0  0  0  0  0  0  0  0  0  0  0
  161.2990  204.0950  148.5270 C   0  0  0  0  0  3  0  0  0  0  0  0
  160.7340  203.4060  144.9990 C   0  0  0  0  0  2  0  0  0  0  0  0
  160.6340  201.9930  145.5740 C   0  0  2  0  0  3  0  0  0  0  0  0
  161.3460  204.2930  146.0740 C   0  0  2  0  0  3  0  0  0  0  0  0
  159.3880  201.3320  145.1610 N   0  0  0  0  0  0  0  0  0  0  0  0
  159.6140  200.4390  144.0290 C   0  0  0  0  0  1  0  0  0  0  0  0
  158.5290  202.2930  144.7460 O   0  0  0  0  0  1  0  0  0  0  0  0
  161.8470  201.0730  147.5910 C   0  0  0  0  0  2  0  0  0  0  0  0
  161.6180  199.6710  147.0430 C   0  0  0  0  0  1  0  0  0  0  0  0
  162.7500  204.5300  145.7780 N   0  0  0  0  0  2  0  0  0  0  0  0
  162.9030  205.9120  145.5910 N   0  0  0  0  0  2  0  0  0  0  0  0
  162.5930  206.5430  146.8630 C   0  0  0  0  0  1  0  0  0  0  0  0
  162.1180  209.3580  150.8530 C   0  0  0  0  0  2  0  0  0  0  0  0
  162.5760  209.1750  148.3850 C   0  0  0  0  0  1  0  0  0  0  0  0
  161.8580  209.9600  149.4690 C   0  0  2  0  0  3  0  0  0  0  0  0
  162.2420  211.3040  149.4280 O   0  0  0  0  0  0  0  0  0  0  0  0
  161.9140  211.7430  148.1440 C   0  0  1  0  0  3  0  0  0  0  0  0
  160.8660  212.8400  148.2320 C   0  0  0  0  0  1  0  0  0  0  0  0
  162.9170  213.5580  146.9650 O   0  0  0  0  0  1  0  0  0  0  0  0
  163.1570  212.2750  147.4600 C   0  0  0  0  0  2  0  0  0  0  0  0
  1 48  1  1  0  0  0
  1 22  1  0  0  0  0
  1  2  1  0  0  0  0
  2  3  1  0  0  0  0
  3  4  1  0  0  0  0
  4 19  1  6  0  0  0
  4  5  1  0  0  0  0
  5  6  1  0  0  0  0
  6  7  2  0  0  0  0
  8 14  1  0  0  0  0
  8 16  1  0  0  0  0
  9 12  1  1  0  0  0
  9 10  1  0  0  0  0
 11 10  1  0  0  0  0
 13 14  2  0  0  0  0
 14 15  1  0  0  0  0
 15  6  1  6  0  0  0
 15 18  1  0  0  0  0
 16 18  1  0  0  0  0
 17 16  2  0  0  0  0
 17  9  1  0  0  0  0
 18 11  2  0  0  0  0
 20 21  1  0  0  0  0
 21 19  1  0  0  0  0
 22 26  1  1  0  0  0
 22 24  1  0  0  0  0
 24 23  1  0  0  0  0
 24 25  1  0  0  0  0
 27 26  1  0  0  0  0
 29 30  1  0  0  0  0
 30 28  1  6  0  0  0
 31 27  1  6  0  0  0
 31 29  1  0  0  0  0
 31 30  1  0  0  0  0
 33 32  1  1  0  0  0
 33 31  1  0  0  0  0
 34 35  1  0  0  0  0
 34 43  1  6  0  0  0
 35 36  2  0  0  0  0
 36 33  1  0  0  0  0
 37 38  1  0  0  0  0
 37 39  1  0  0  0  0
 38 40  1  1  0  0  0
 38 34  1  0  0  0  0
 39 45  1  6  0  0  0
 39 35  1  0  0  0  0
 41 40  1  0  0  0  0
 42 40  1  0  0  0  0
 44 43  1  0  0  0  0
 46 45  1  0  0  0  0
 46 47  1  0  0  0  0
 50 49  1  6  0  0  0
 50 48  1  0  0  0  0
 51 50  1  0  0  0  0
 52 53  1  1  0  0  0
 52 51  1  0  0  0  0
 54 55  1  0  0  0  0
 55 52  1  0  0  0  0
M  END
>  <MODEL>
7

>  <REMARK>
 VINA RESULT:      -3.0      2.657      7.171
  Name = 
  23 active torsions:
  status: ('A' for Active; 'I' for Inactive)
    1  A    between atoms: N_2  and  N_39
    2  A    between atoms: N_2  and  C_51
    3  A    between atoms: N_3  and  C_42
    4  A    between atoms: C_4  and  C_11
    5  A    between atoms: C_6  and  O_30
    6  A    between atoms: C_6  and  C_49
    7  A    between atoms: C_8  and  C_41
    8  A    between atoms: C_8  and  S_50
    9  A    between atoms: C_9  and  C_25
   10  A    between atoms: N_12  and  C_41
   11  A    between atoms: C_13  and  C_28
   12  A    between atoms: C_13  and  C_53
   13  A    between atoms: C_15  and  C_16
   14  A    between atoms: C_15  and  C_41
   15  A    between atoms: C_16  and  C_35
   16  A    between atoms: O_17  and  C_25
   17  A    between atoms: O_17  and  C_29
   18  A    between atoms: C_23  and  C_32
   19  A    between atoms: C_23  and  C_35
   20  A    between atoms: C_25  and  C_35
   21  A    between atoms: C_27  and  C_44
   22  A    between atoms: C_29  and  C_53
   23  A    between atoms: O_30  and  C_32
                            x       y       z     vdW  Elec       q    Type
                         _______ _______ _______ _____ _____    ______ ____

>  <TORSDO>
F 23

$$$$
=
 OpenBabel11072412463D

 55 58  0  0  1  0  0  0  0  0999 V2000
  162.3160  209.3250  149.2350 C   0  0  2  0  0  3  0  0  0  0  0  0
  161.8870  208.5540  150.4730 C   0  0  0  0  0  2  0  0  0  0  0  0
  162.5450  207.1790  150.5140 C   0  0  0  0  0  2  0  0  0  0  0  0
  162.3620  206.4890  151.8690 C   0  0  2  0  0  3  0  0  0  0  0  0
  161.8740  205.1230  151.7140 N   0  0  0  0  0  2  0  0  0  0  0  0
  160.8130  204.7620  150.8250 C   0  0  0  0  0  0  0  0  0  0  0  0
  160.3590  205.6000  150.0000 O   0  0  0  0  0  0  0  0  0  0  0  0
  161.6110  201.4700  151.2930 O   0  0  0  0  0  0  0  0  0  0  0  0
  161.5170  201.0690  147.5540 C   0  0  2  0  0  3  0  0  0  0  0  0
  160.1430  201.7560  147.3850 C   0  0  0  0  0  2  0  0  0  0  0  0
  159.8790  202.7900  148.4540 C   0  0  0  0  0  3  0  0  0  0  0  0
  161.5850  199.8170  146.7060 C   0  0  0  0  0  1  0  0  0  0  0  0
  161.0000  202.7680  153.1250 O   0  0  0  0  0  0  0  0  0  0  0  0
  160.9550  202.5460  151.8860 C   0  0  0  0  0  0  0  0  0  0  0  0
  160.1910  203.4030  150.9080 C   0  0  2  0  0  3  0  0  0  0  0  0
  161.3350  201.5290  149.9430 C   0  0  0  0  0  0  0  0  0  0  0  0
  161.8300  200.7390  148.9960 C   0  0  0  0  0  3  0  0  0  0  0  0
  160.4310  202.6210  149.6550 C   0  0  0  0  0  0  0  0  0  0  0  0
  161.4820  207.2910  152.8310 C   0  0  0  0  0  2  0  0  0  0  0  0
  161.1160  207.6440  155.4250 C   0  0  0  0  0  1  0  0  0  0  0  0
  160.8380  206.3060  154.2270 S   0  0  0  0  0  0  0  0  0  0  0  0
  162.0010  210.8250  149.3560 C   0  0  1  0  0  3  0  0  0  0  0  0
  162.8630  212.9330  148.3280 C   0  0  0  0  0  1  0  0  0  0  0  0
  162.1700  211.6150  148.0500 C   0  0  0  0  0  3  0  0  0  0  0  0
  160.8510  211.8760  147.3450 C   0  0  0  0  0  1  0  0  0  0  0  0
  160.7450  211.0420  149.9390 O   0  0  0  0  0  0  0  0  0  0  0  0
  160.9510  212.0260  150.9130 C   0  0  0  0  0  2  0  0  0  0  0  0
  157.7550  213.7240  149.9390 O   0  0  0  0  0  1  0  0  0  0  0  0
  159.9640  214.1630  150.3600 O   0  0  0  0  0  0  0  0  0  0  0  0
  159.0610  213.2740  149.7380 C   0  0  1  0  0  3  0  0  0  0  0  0
  159.7410  212.9370  151.0170 C   0  0  1  0  0  0  0  0  0  0  0  0
  158.9150  214.4150  152.7310 O   0  0  0  0  0  1  0  0  0  0  0  0
  159.0320  213.0700  152.3790 C   0  0  2  0  0  3  0  0  0  0  0  0
  157.6030  212.2090  154.9040 C   0  0  1  0  0  3  0  0  0  0  0  0
  159.0470  211.9540  154.6210 C   0  0  0  0  0  0  0  0  0  0  0  0
  159.6800  212.2940  153.4910 C   0  0  0  0  0  3  0  0  0  0  0  0
  158.5440  210.5410  156.4710 C   0  0  0  0  0  2  0  0  0  0  0  0
  157.3190  211.4060  156.1780 C   0  0  2  0  0  3  0  0  0  0  0  0
  159.6950  211.0810  155.6340 C   0  0  2  0  0  3  0  0  0  0  0  0
  156.0930  210.5990  156.1140 N   0  0  0  0  0  0  0  0  0  0  0  0
  155.4420  210.7310  154.8150 C   0  0  0  0  0  1  0  0  0  0  0  0
  155.2330  211.0810  157.0420 O   0  0  0  0  0  1  0  0  0  0  0  0
  157.2830  213.6940  155.1050 C   0  0  0  0  0  2  0  0  0  0  0  0
  156.2850  213.9440  156.2270 C   0  0  0  0  0  1  0  0  0  0  0  0
  160.5830  211.8750  156.4670 N   0  0  0  0  0  2  0  0  0  0  0  0
  161.8880  211.4220  156.2250 N   0  0  0  0  0  2  0  0  0  0  0  0
  161.7870  210.3640  155.2340 C   0  0  0  0  0  1  0  0  0  0  0  0
  161.6860  208.7220  147.9750 C   0  0  0  0  0  2  0  0  0  0  0  0
  163.1860  206.7670  147.4640 C   0  0  0  0  0  1  0  0  0  0  0  0
  161.8010  207.1960  147.9180 C   0  0  2  0  0  3  0  0  0  0  0  0
  160.8260  206.6520  147.0750 O   0  0  0  0  0  0  0  0  0  0  0  0
  161.5350  205.9940  146.0670 C   0  0  1  0  0  3  0  0  0  0  0  0
  161.7360  204.5380  146.4520 C   0  0  0  0  0  1  0  0  0  0  0  0
  161.2600  205.1530  143.8520 O   0  0  0  0  0  1  0  0  0  0  0  0
  160.7590  206.0790  144.7690 C   0  0  0  0  0  2  0  0  0  0  0  0
  1 48  1  6  0  0  0
  1 22  1  0  0  0  0
  1  2  1  0  0  0  0
  2  3  1  0  0  0  0
  4  3  1  6  0  0  0
  4 19  1  0  0  0  0
  5  4  1  0  0  0  0
  6  5  1  0  0  0  0
  7  6  2  0  0  0  0
  8 14  1  0  0  0  0
  9 12  1  6  0  0  0
  9 17  1  0  0  0  0
 10  9  1  0  0  0  0
 10 11  1  0  0  0  0
 11 18  2  0  0  0  0
 14 13  2  0  0  0  0
 15  6  1  6  0  0  0
 15 14  1  0  0  0  0
 16  8  1  0  0  0  0
 17 16  2  0  0  0  0
 18 16  1  0  0  0  0
 18 15  1  0  0  0  0
 19 21  1  0  0  0  0
 21 20  1  0  0  0  0
 22 24  1  6  0  0  0
 22 26  1  0  0  0  0
 24 23  1  0  0  0  0
 25 24  1  0  0  0  0
 26 27  1  0  0  0  0
 29 31  1  0  0  0  0
 30 28  1  1  0  0  0
 30 29  1  0  0  0  0
 30 31  1  0  0  0  0
 31 27  1  6  0  0  0
 31 33  1  0  0  0  0
 33 32  1  1  0  0  0
 33 36  1  0  0  0  0
 34 43  1  1  0  0  0
 34 38  1  0  0  0  0
 35 34  1  0  0  0  0
 35 39  1  0  0  0  0
 36 35  2  0  0  0  0
 38 40  1  6  0  0  0
 38 37  1  0  0  0  0
 39 45  1  1  0  0  0
 39 37  1  0  0  0  0
 40 42  1  0  0  0  0
 41 40  1  0  0  0  0
 43 44  1  0  0  0  0
 46 45  1  0  0  0  0
 47 46  1  0  0  0  0
 50 49  1  6  0  0  0
 50 48  1  0  0  0  0
 51 50  1  0  0  0  0
 52 53  1  1  0  0  0
 52 51  1  0  0  0  0
 54 55  1  0  0  0  0
 55 52  1  0  0  0  0
M  END
>  <MODEL>
8

>  <REMARK>
 VINA RESULT:      -2.7      2.776     10.390
  Name = 
  23 active torsions:
  status: ('A' for Active; 'I' for Inactive)
    1  A    between atoms: N_2  and  N_39
    2  A    between atoms: N_2  and  C_51
    3  A    between atoms: N_3  and  C_42
    4  A    between atoms: C_4  and  C_11
    5  A    between atoms: C_6  and  O_30
    6  A    between atoms: C_6  and  C_49
    7  A    between atoms: C_8  and  C_41
    8  A    between atoms: C_8  and  S_50
    9  A    between atoms: C_9  and  C_25
   10  A    between atoms: N_12  and  C_41
   11  A    between atoms: C_13  and  C_28
   12  A    between atoms: C_13  and  C_53
   13  A    between atoms: C_15  and  C_16
   14  A    between atoms: C_15  and  C_41
   15  A    between atoms: C_16  and  C_35
   16  A    between atoms: O_17  and  C_25
   17  A    between atoms: O_17  and  C_29
   18  A    between atoms: C_23  and  C_32
   19  A    between atoms: C_23  and  C_35
   20  A    between atoms: C_25  and  C_35
   21  A    between atoms: C_27  and  C_44
   22  A    between atoms: C_29  and  C_53
   23  A    between atoms: O_30  and  C_32
                            x       y       z     vdW  Elec       q    Type
                         _______ _______ _______ _____ _____    ______ ____

>  <TORSDO>
F 23

$$$$
=
 OpenBabel11072412463D

 55 58  0  0  1  0  0  0  0  0999 V2000
  162.5750  205.7070  145.4830 C   0  0  2  0  0  3  0  0  0  0  0  0
  161.7360  206.5600  146.4220 C   0  0  0  0  0  2  0  0  0  0  0  0
  162.5860  207.1130  147.5600 C   0  0  0  0  0  2  0  0  0  0  0  0
  161.8710  208.2290  148.3280 C   0  0  2  0  0  3  0  0  0  0  0  0
  161.9660  209.5070  147.6320 N   0  0  0  0  0  2  0  0  0  0  0  0
  161.8860  210.7720  148.2960 C   0  0  0  0  0  0  0  0  0  0  0  0
  161.8980  210.8340  149.5540 O   0  0  0  0  0  0  0  0  0  0  0  0
  161.3550  214.1300  148.6640 O   0  0  0  0  0  0  0  0  0  0  0  0
  157.7130  213.4780  147.9860 C   0  0  2  0  0  3  0  0  0  0  0  0
  157.9670  212.6340  146.7160 C   0  0  0  0  0  2  0  0  0  0  0  0
  159.2930  211.9110  146.7600 C   0  0  0  0  0  3  0  0  0  0  0  0
  156.5760  214.4490  147.7500 C   0  0  0  0  0  1  0  0  0  0  0  0
  163.5340  213.3290  148.5140 O   0  0  0  0  0  0  0  0  0  0  0  0
  162.3070  213.1970  148.2620 C   0  0  0  0  0  0  0  0  0  0  0  0
  161.7280  212.0310  147.5010 C   0  0  2  0  0  3  0  0  0  0  0  0
  160.1340  213.6750  148.2110 C   0  0  0  0  0  0  0  0  0  0  0  0
  158.9460  214.2210  148.4480 C   0  0  0  0  0  3  0  0  0  0  0  0
  160.2960  212.4590  147.4450 C   0  0  0  0  0  0  0  0  0  0  0  0
  162.3400  208.3470  149.7800 C   0  0  0  0  0  2  0  0  0  0  0  0
  162.5950  206.2670  151.3900 C   0  0  0  0  0  1  0  0  0  0  0  0
  161.2820  207.4500  150.9670 S   0  0  0  0  0  0  0  0  0  0  0  0
  161.8730  205.4790  144.1340 C   0  0  1  0  0  3  0  0  0  0  0  0
  159.8900  206.2910  145.4200 C   0  0  0  0  0  1  0  0  0  0  0  0
  160.3390  205.5020  144.2080 C   0  0  0  0  0  3  0  0  0  0  0  0
  159.7310  204.1110  144.2550 C   0  0  0  0  0  1  0  0  0  0  0  0
  162.3610  206.3450  143.1460 O   0  0  0  0  0  0  0  0  0  0  0  0
  161.4250  206.2900  142.1070 C   0  0  0  0  0  2  0  0  0  0  0  0
  162.9550  206.4710  138.6900 O   0  0  0  0  0  1  0  0  0  0  0  0
  163.4030  206.9540  140.8850 O   0  0  0  0  0  0  0  0  0  0  0  0
  162.8400  206.0070  140.0030 C   0  0  1  0  0  3  0  0  0  0  0  0
  161.9970  206.9010  140.8400 C   0  0  1  0  0  0  0  0  0  0  0  0
  160.6570  207.8710  139.0870 O   0  0  0  0  0  1  0  0  0  0  0  0
  161.3350  208.1710  140.2700 C   0  0  2  0  0  3  0  0  0  0  0  0
  160.6940  211.0520  140.9390 C   0  0  1  0  0  3  0  0  0  0  0  0
  161.9700  210.5930  140.3150 C   0  0  0  0  0  0  0  0  0  0  0  0
  162.2820  209.3170  140.0510 C   0  0  0  0  0  3  0  0  0  0  0  0
  162.4220  212.8220  141.0230 C   0  0  0  0  0  2  0  0  0  0  0  0
  160.9420  212.5280  141.2660 C   0  0  2  0  0  3  0  0  0  0  0  0
  162.9840  211.6720  140.1990 C   0  0  2  0  0  3  0  0  0  0  0  0
  160.5330  212.9150  142.6240 N   0  0  0  0  0  0  0  0  0  0  0  0
  161.5400  213.7580  143.2590 C   0  0  0  0  0  1  0  0  0  0  0  0
  160.4360  211.7840  143.3630 O   0  0  0  0  0  1  0  0  0  0  0  0
  159.4810  210.8870  140.0170 C   0  0  0  0  0  2  0  0  0  0  0  0
  159.1320  212.1590  139.2560 C   0  0  0  0  0  1  0  0  0  0  0  0
  163.1100  212.0770  138.8080 N   0  0  0  0  0  2  0  0  0  0  0  0
  162.8410  213.4530  138.7540 N   0  0  0  0  0  2  0  0  0  0  0  0
  163.7970  214.0300  137.8240 C   0  0  0  0  0  1  0  0  0  0  0  0
  162.9520  204.3790  146.1490 C   0  0  0  0  0  2  0  0  0  0  0  0
  161.6660  203.5600  148.1500 C   0  0  0  0  0  1  0  0  0  0  0  0
  161.7360  203.5850  146.6330 C   0  0  2  0  0  3  0  0  0  0  0  0
  161.7580  202.2800  146.1290 O   0  0  0  0  0  0  0  0  0  0  0  0
  160.5380  201.7170  146.5090 C   0  0  1  0  0  3  0  0  0  0  0  0
  159.9270  200.9790  145.3290 C   0  0  0  0  0  1  0  0  0  0  0  0
  161.5430  199.6770  147.2280 O   0  0  0  0  0  1  0  0  0  0  0  0
  160.7630  200.7520  147.6550 C   0  0  0  0  0  2  0  0  0  0  0  0
  1 48  1  1  0  0  0
  1  2  1  0  0  0  0
  2  3  1  0  0  0  0
  4  3  1  6  0  0  0
  4 19  1  0  0  0  0
  5  6  1  0  0  0  0
  5  4  1  0  0  0  0
  6  7  2  0  0  0  0
  9 12  1  6  0  0  0
  9 17  1  0  0  0  0
 10 11  1  0  0  0  0
 10  9  1  0  0  0  0
 11 18  2  0  0  0  0
 14 13  2  0  0  0  0
 14  8  1  0  0  0  0
 15 14  1  0  0  0  0
 15  6  1  1  0  0  0
 16 17  2  0  0  0  0
 16  8  1  0  0  0  0
 18 15  1  0  0  0  0
 18 16  1  0  0  0  0
 19 21  1  0  0  0  0
 21 20  1  0  0  0  0
 22 26  1  6  0  0  0
 22 24  1  0  0  0  0
 22  1  1  0  0  0  0
 24 25  1  0  0  0  0
 24 23  1  0  0  0  0
 27 26  1  0  0  0  0
 30 28  1  6  0  0  0
 30 31  1  0  0  0  0
 30 29  1  0  0  0  0
 31 29  1  0  0  0  0
 31 27  1  1  0  0  0
 33 32  1  6  0  0  0
 33 31  1  0  0  0  0
 34 43  1  6  0  0  0
 34 38  1  0  0  0  0
 35 34  1  0  0  0  0
 36 33  1  0  0  0  0
 36 35  2  0  0  0  0
 37 38  1  0  0  0  0
 38 40  1  1  0  0  0
 39 45  1  6  0  0  0
 39 35  1  0  0  0  0
 39 37  1  0  0  0  0
 40 41  1  0  0  0  0
 40 42  1  0  0  0  0
 44 43  1  0  0  0  0
 46 45  1  0  0  0  0
 47 46  1  0  0  0  0
 48 50  1  0  0  0  0
 50 49  1  1  0  0  0
 51 52  1  0  0  0  0
 51 50  1  0  0  0  0
 52 53  1  6  0  0  0
 52 55  1  0  0  0  0
 54 55  1  0  0  0  0
M  END
>  <MODEL>
9

>  <REMARK>
 VINA RESULT:      -2.5      4.164     10.086
  Name = 
  23 active torsions:
  status: ('A' for Active; 'I' for Inactive)
    1  A    between atoms: N_2  and  N_39
    2  A    between atoms: N_2  and  C_51
    3  A    between atoms: N_3  and  C_42
    4  A    between atoms: C_4  and  C_11
    5  A    between atoms: C_6  and  O_30
    6  A    between atoms: C_6  and  C_49
    7  A    between atoms: C_8  and  C_41
    8  A    between atoms: C_8  and  S_50
    9  A    between atoms: C_9  and  C_25
   10  A    between atoms: N_12  and  C_41
   11  A    between atoms: C_13  and  C_28
   12  A    between atoms: C_13  and  C_53
   13  A    between atoms: C_15  and  C_16
   14  A    between atoms: C_15  and  C_41
   15  A    between atoms: C_16  and  C_35
   16  A    between atoms: O_17  and  C_25
   17  A    between atoms: O_17  and  C_29
   18  A    between atoms: C_23  and  C_32
   19  A    between atoms: C_23  and  C_35
   20  A    between atoms: C_25  and  C_35
   21  A    between atoms: C_27  and  C_44
   22  A    between atoms: C_29  and  C_53
   23  A    between atoms: O_30  and  C_32
                            x       y       z     vdW  Elec       q    Type
                         _______ _______ _______ _____ _____    ______ ____

>  <TORSDO>
F 23

$$$$
