=
 OpenBabel11072411513D

 32 36  0  0  1  0  0  0  0  0999 V2000
  160.8260  208.8300  153.6460 N   0  0  0  0  0  2  0  0  0  0  0  0
  161.4260  207.8380  152.8090 C   0  0  0  0  0  0  0  0  0  0  0  0
  161.8390  206.7560  153.3100 O   0  0  0  0  0  0  0  0  0  0  0  0
  160.4430  206.0370  150.5850 N   0  0  0  0  0  2  0  0  0  0  0  0
  161.2820  203.3200  148.1360 C   0  0  0  0  0  2  0  0  0  0  0  0
  161.2750  205.4950  146.9740 C   0  0  0  0  0  2  0  0  0  0  0  0
  161.2680  207.0090  150.3760 C   0  0  1  0  0  3  0  0  0  0  0  0
  161.8670  209.2800  150.8910 C   0  0  0  0  0  3  0  0  0  0  0  0
  161.9750  209.5420  149.4800 N   0  0  0  0  0  0  0  0  0  0  0  0
  161.5850  207.1410  148.9490 C   0  0  2  0  0  0  0  0  0  0  0  0
  162.1290  204.2860  147.3310 C   0  0  2  0  0  3  0  0  0  0  0  0
  161.7630  208.5520  148.4150 C   0  0  2  0  0  3  0  0  0  0  0  0
  160.6770  206.1890  148.2090 C   0  0  2  0  0  3  0  0  0  0  0  0
  162.9370  207.5620  148.4300 C   0  0  0  0  0  2  0  0  0  0  0  0
  161.5350  208.0730  151.3550 C   0  0  1  0  0  3  0  0  0  0  0  0
  160.1930  205.2660  149.3640 C   0  0  1  0  0  3  0  0  0  0  0  0
  160.9790  203.9510  149.4840 C   0  0  0  0  0  2  0  0  0  0  0  0
  162.5610  203.6620  146.1590 O   0  0  0  0  0  0  0  0  0  0  0  0
  161.4210  203.5790  145.3560 C   0  0  0  0  0  1  0  0  0  0  0  0
  159.5340  207.5130  155.7610 O   0  0  0  0  0  0  0  0  0  0  0  0
  162.0500  208.2160  155.9390 O   0  0  0  0  0  1  0  0  0  0  0  0
  160.7150  208.6650  155.3880 P   0  0  1  0  0  0  0  0  0  0  0  0
  159.3360  212.4770  155.2810 C   0  0  0  0  0  0  0  0  0  0  0  0
  158.5230  211.3280  157.2340 C   0  0  0  0  0  2  0  0  0  0  0  0
  160.3140  211.3630  155.0480 C   0  0  0  0  0  2  0  0  0  0  0  0
  158.9170  210.1290  156.6040 O   0  0  0  0  0  0  0  0  0  0  0  0
  160.2520  210.2680  156.1480 C   0  0  1  0  0  0  0  0  0  0  0  0
  158.4930  212.4230  156.2710 N   0  0  0  0  0  0  0  0  0  0  0  0
  161.0980  210.5530  157.2610 O   0  0  0  0  0  0  0  0  0  0  0  0
  162.2140  211.3110  156.8620 C   0  0  0  0  0  1  0  0  0  0  0  0
  159.3110  213.5460  154.3830 O   0  0  0  0  0  0  0  0  0  0  0  0
  158.8100  213.4170  153.0610 C   0  0  0  0  0  1  0  0  0  0  0  0
  1 22  1  0  0  0  0
  2  3  2  0  0  0  0
  2  1  1  0  0  0  0
  5 17  1  0  0  0  0
  6 11  1  0  0  0  0
  7  4  1  6  0  0  0
  7 15  1  0  0  0  0
  8 15  1  0  0  0  0
  9  8  2  0  0  0  0
 10 14  1  6  0  0  0
 10  7  1  0  0  0  0
 11 18  1  6  0  0  0
 11  5  1  0  0  0  0
 12 14  1  6  0  0  0
 12 10  1  0  0  0  0
 12  9  1  0  0  0  0
 13  6  1  6  0  0  0
 13 10  1  0  0  0  0
 13 16  1  0  0  0  0
 15  2  1  6  0  0  0
 16 17  1  1  0  0  0
 16  4  1  0  0  0  0
 19 18  1  0  0  0  0
 22 20  2  1  0  0  0
 22 21  1  0  0  0  0
 22 27  1  0  0  0  0
 23 28  2  0  0  0  0
 25 23  1  0  0  0  0
 25 27  1  0  0  0  0
 26 24  1  0  0  0  0
 27 26  1  0  0  0  0
 27 29  1  1  0  0  0
 28 24  1  0  0  0  0
 30 29  1  0  0  0  0
 31 23  1  0  0  0  0
 32 31  1  0  0  0  0
M  END
>  <MODEL>
1

>  <REMARK>
 VINA RESULT:      -7.2      0.000      0.000
  Name = 
  6 active torsions:
  status: ('A' for Active; 'I' for Inactive)
    1  A    between atoms: N_2  and  P_31
    2  A    between atoms: O_3  and  C_14
    3  A    between atoms: C_7  and  C_22
    4  A    between atoms: C_8  and  O_16
    5  A    between atoms: O_13  and  C_28
    6  A    between atoms: C_28  and  P_31
                            x       y       z     vdW  Elec       q    Type
                         _______ _______ _______ _____ _____    ______ ____

>  <TORSDO>
F 6

$$$$
=
 OpenBabel11072411513D

 32 36  0  0  1  0  0  0  0  0999 V2000
  160.7580  209.7470  153.2230 N   0  0  0  0  0  2  0  0  0  0  0  0
  161.4720  208.6950  152.5670 C   0  0  0  0  0  0  0  0  0  0  0  0
  162.0040  207.7730  153.2460 O   0  0  0  0  0  0  0  0  0  0  0  0
  160.3940  206.5750  150.6960 N   0  0  0  0  0  2  0  0  0  0  0  0
  161.1070  203.4580  148.7320 C   0  0  0  0  0  2  0  0  0  0  0  0
  161.1410  205.4040  147.2170 C   0  0  0  0  0  2  0  0  0  0  0  0
  161.2430  207.4710  150.3130 C   0  0  1  0  0  3  0  0  0  0  0  0
  161.9170  209.7760  150.4260 C   0  0  0  0  0  3  0  0  0  0  0  0
  162.0050  209.7920  148.9900 N   0  0  0  0  0  0  0  0  0  0  0  0
  161.5360  207.3490  148.8800 C   0  0  2  0  0  0  0  0  0  0  0  0
  161.9660  204.2460  147.7630 C   0  0  2  0  0  3  0  0  0  0  0  0
  161.7450  208.6440  148.1110 C   0  0  2  0  0  3  0  0  0  0  0  0
  160.5870  206.3150  148.3250 C   0  0  2  0  0  3  0  0  0  0  0  0
  162.8890  207.6340  148.2780 C   0  0  0  0  0  2  0  0  0  0  0  0
  161.5590  208.6760  151.0930 C   0  0  1  0  0  3  0  0  0  0  0  0
  160.0980  205.6170  149.6270 C   0  0  1  0  0  3  0  0  0  0  0  0
  160.8490  204.3170  149.9570 C   0  0  0  0  0  2  0  0  0  0  0  0
  162.3570  203.4190  146.7080 O   0  0  0  0  0  0  0  0  0  0  0  0
  161.7380  203.9600  145.5790 C   0  0  0  0  0  1  0  0  0  0  0  0
  160.0370  208.4450  155.6040 O   0  0  0  0  0  1  0  0  0  0  0  0
  162.0400  210.1310  155.5350 O   0  0  0  0  0  0  0  0  0  0  0  0
  160.6590  209.8840  154.9690 P   0  0  1  0  0  0  0  0  0  0  0  0
  157.0470  211.5520  155.7530 C   0  0  0  0  0  0  0  0  0  0  0  0
  158.7240  212.3970  157.2600 C   0  0  0  0  0  2  0  0  0  0  0  0
  158.1300  210.9580  154.9010 C   0  0  0  0  0  2  0  0  0  0  0  0
  159.5340  211.3160  156.8490 O   0  0  0  0  0  0  0  0  0  0  0  0
  159.5550  211.2720  155.4330 C   0  0  1  0  0  0  0  0  0  0  0  0
  157.3400  212.1770  156.8570 N   0  0  0  0  0  0  0  0  0  0  0  0
  160.0720  212.5050  154.9350 O   0  0  0  0  0  0  0  0  0  0  0  0
  159.4730  212.8420  153.7070 C   0  0  0  0  0  1  0  0  0  0  0  0
  155.7170  211.3740  155.3680 O   0  0  0  0  0  0  0  0  0  0  0  0
  155.1520  210.0880  155.1590 C   0  0  0  0  0  1  0  0  0  0  0  0
  1 22  1  0  0  0  0
  2  1  1  0  0  0  0
  2  3  2  0  0  0  0
  5 17  1  0  0  0  0
  6 11  1  0  0  0  0
  7  4  1  6  0  0  0
  7 15  1  0  0  0  0
  8 15  1  0  0  0  0
  9  8  2  0  0  0  0
 10 14  1  6  0  0  0
 10  7  1  0  0  0  0
 11 18  1  6  0  0  0
 11  5  1  0  0  0  0
 12 14  1  6  0  0  0
 12 10  1  0  0  0  0
 12  9  1  0  0  0  0
 13  6  1  6  0  0  0
 13 10  1  0  0  0  0
 13 16  1  0  0  0  0
 15  2  1  6  0  0  0
 16 17  1  1  0  0  0
 16  4  1  0  0  0  0
 19 18  1  0  0  0  0
 22 27  1  0  0  0  0
 22 21  2  1  0  0  0
 22 20  1  0  0  0  0
 23 28  2  0  0  0  0
 25 27  1  0  0  0  0
 25 23  1  0  0  0  0
 26 24  1  0  0  0  0
 27 29  1  6  0  0  0
 27 26  1  0  0  0  0
 28 24  1  0  0  0  0
 30 29  1  0  0  0  0
 31 23  1  0  0  0  0
 32 31  1  0  0  0  0
M  END
>  <MODEL>
2

>  <REMARK>
 VINA RESULT:      -6.8      1.380      1.846
  Name = 
  6 active torsions:
  status: ('A' for Active; 'I' for Inactive)
    1  A    between atoms: N_2  and  P_31
    2  A    between atoms: O_3  and  C_14
    3  A    between atoms: C_7  and  C_22
    4  A    between atoms: C_8  and  O_16
    5  A    between atoms: O_13  and  C_28
    6  A    between atoms: C_28  and  P_31
                            x       y       z     vdW  Elec       q    Type
                         _______ _______ _______ _____ _____    ______ ____

>  <TORSDO>
F 6

$$$$
=
 OpenBabel11072411513D

 32 36  0  0  1  0  0  0  0  0999 V2000
  161.1880  208.1870  152.1110 N   0  0  0  0  0  2  0  0  0  0  0  0
  161.3620  207.7050  150.7770 C   0  0  0  0  0  0  0  0  0  0  0  0
  161.5310  208.5190  149.8270 O   0  0  0  0  0  0  0  0  0  0  0  0
  162.2210  206.3020  148.2360 N   0  0  0  0  0  2  0  0  0  0  0  0
  161.1670  204.8050  144.9610 C   0  0  0  0  0  2  0  0  0  0  0  0
  161.5350  203.0020  146.6030 C   0  0  0  0  0  2  0  0  0  0  0  0
  161.5480  205.7050  149.1640 C   0  0  1  0  0  3  0  0  0  0  0  0
  161.2320  205.3860  151.5260 C   0  0  0  0  0  3  0  0  0  0  0  0
  161.2440  203.9640  151.3080 N   0  0  0  0  0  2  0  0  0  0  0  0
  161.3360  204.2890  148.8410 C   0  0  2  0  0  0  0  0  0  0  0  0
  160.5060  203.6480  145.6850 C   0  0  2  0  0  3  0  0  0  0  0  0
  161.3810  203.3080  150.0010 C   0  0  2  0  0  3  0  0  0  0  0  0
  162.1480  203.9960  147.6030 C   0  0  2  0  0  3  0  0  0  0  0  0
  160.0860  203.5280  149.2060 C   0  0  0  0  0  2  0  0  0  0  0  0
  161.3710  206.2510  150.5180 C   0  0  0  0  0  0  0  0  0  0  0  0
  162.4360  205.4320  147.0770 C   0  0  1  0  0  3  0  0  0  0  0  0
  161.4730  205.8950  145.9720 C   0  0  0  0  0  2  0  0  0  0  0  0
  160.0640  202.7070  144.7520 O   0  0  0  0  0  0  0  0  0  0  0  0
  160.1230  201.4830  145.4210 C   0  0  0  0  0  1  0  0  0  0  0  0
  162.3690  210.7060  151.7330 O   0  0  0  0  0  0  0  0  0  0  0  0
  159.7780  210.4540  152.0200 O   0  0  0  0  0  1  0  0  0  0  0  0
  161.0990  209.8950  152.5020 P   0  0  1  0  0  0  0  0  0  0  0  0
  161.6200  208.6150  156.3140 C   0  0  0  0  0  0  0  0  0  0  0  0
  162.7440  210.7130  155.9550 C   0  0  0  0  0  2  0  0  0  0  0  0
  160.8950  208.7950  155.0120 C   0  0  0  0  0  2  0  0  0  0  0  0
  162.5900  210.4770  154.5730 O   0  0  0  0  0  0  0  0  0  0  0  0
  161.2380  210.1390  154.3130 C   0  0  1  0  0  0  0  0  0  0  0  0
  162.4970  209.4900  156.7110 N   0  0  0  0  0  0  0  0  0  0  0  0
  160.3990  211.2120  154.7360 O   0  0  0  0  0  0  0  0  0  0  0  0
  159.1900  210.7260  155.2660 C   0  0  0  0  0  1  0  0  0  0  0  0
  161.3760  207.4620  157.0630 O   0  0  0  0  0  0  0  0  0  0  0  0
  160.0730  206.9210  157.2230 C   0  0  0  0  0  1  0  0  0  0  0  0
  1 22  1  0  0  0  0
  2  1  1  0  0  0  0
  3  2  2  0  0  0  0
  5 11  1  0  0  0  0
  5 17  1  0  0  0  0
  7  4  1  1  0  0  0
  7 15  1  0  0  0  0
  9  8  1  0  0  0  0
 10  7  1  0  0  0  0
 10 14  1  6  0  0  0
 10 12  1  0  0  0  0
 11 18  1  6  0  0  0
 11  6  1  0  0  0  0
 12 14  1  6  0  0  0
 12  9  1  0  0  0  0
 13  6  1  6  0  0  0
 13 10  1  0  0  0  0
 15  2  1  0  0  0  0
 15  8  2  0  0  0  0
 16 17  1  6  0  0  0
 16 13  1  0  0  0  0
 16  4  1  0  0  0  0
 18 19  1  0  0  0  0
 21 22  1  0  0  0  0
 22 20  2  6  0  0  0
 22 27  1  0  0  0  0
 23 28  2  0  0  0  0
 23 31  1  0  0  0  0
 24 28  1  0  0  0  0
 25 23  1  0  0  0  0
 26 24  1  0  0  0  0
 27 26  1  0  0  0  0
 27 29  1  1  0  0  0
 27 25  1  0  0  0  0
 29 30  1  0  0  0  0
 31 32  1  0  0  0  0
M  END
>  <MODEL>
3

>  <REMARK>
 VINA RESULT:      -6.7      2.264      4.032
  Name = 
  6 active torsions:
  status: ('A' for Active; 'I' for Inactive)
    1  A    between atoms: N_2  and  P_31
    2  A    between atoms: O_3  and  C_14
    3  A    between atoms: C_7  and  C_22
    4  A    between atoms: C_8  and  O_16
    5  A    between atoms: O_13  and  C_28
    6  A    between atoms: C_28  and  P_31
                            x       y       z     vdW  Elec       q    Type
                         _______ _______ _______ _____ _____    ______ ____

>  <TORSDO>
F 6

$$$$
=
 OpenBabel11072411513D

 32 36  0  0  1  0  0  0  0  0999 V2000
  159.2730  211.0760  152.4230 N   0  0  0  0  0  2  0  0  0  0  0  0
  160.3200  210.8130  153.3610 C   0  0  0  0  0  0  0  0  0  0  0  0
  160.8370  211.7620  154.0140 O   0  0  0  0  0  0  0  0  0  0  0  0
  161.6670  208.9860  151.3600 N   0  0  0  0  0  2  0  0  0  0  0  0
  161.2500  206.2680  148.8060 C   0  0  0  0  0  2  0  0  0  0  0  0
  162.0710  205.2890  150.9160 C   0  0  0  0  0  2  0  0  0  0  0  0
  161.1650  208.5500  152.4680 C   0  0  1  0  0  3  0  0  0  0  0  0
  160.8590  208.9340  154.8220 C   0  0  0  0  0  3  0  0  0  0  0  0
  161.3040  207.5900  155.0710 N   0  0  0  0  0  2  0  0  0  0  0  0
  161.4000  207.1100  152.6290 C   0  0  2  0  0  0  0  0  0  0  0  0
  160.9360  205.2670  149.9010 C   0  0  2  0  0  3  0  0  0  0  0  0
  161.6880  206.6180  154.0380 C   0  0  2  0  0  3  0  0  0  0  0  0
  162.3150  206.6870  151.5060 C   0  0  2  0  0  3  0  0  0  0  0  0
  160.4210  206.1740  153.2920 C   0  0  0  0  0  2  0  0  0  0  0  0
  160.7750  209.4260  153.5830 C   0  0  0  0  0  0  0  0  0  0  0  0
  162.1820  207.8920  150.5310 C   0  0  1  0  0  3  0  0  0  0  0  0
  161.1720  207.6660  149.3940 C   0  0  0  0  0  2  0  0  0  0  0  0
  160.8350  203.9890  149.3470 O   0  0  0  0  0  0  0  0  0  0  0  0
  161.4250  204.0960  148.0860 C   0  0  0  0  0  1  0  0  0  0  0  0
  160.0550  213.7010  151.8050 O   0  0  0  0  0  1  0  0  0  0  0  0
  157.8750  212.6630  150.7920 O   0  0  0  0  0  0  0  0  0  0  0  0
  158.7160  212.6960  152.0490 P   0  0  1  0  0  0  0  0  0  0  0  0
  156.5900  212.3560  155.4850 C   0  0  0  0  0  0  0  0  0  0  0  0
  157.9050  214.3730  155.4890 C   0  0  0  0  0  2  0  0  0  0  0  0
  156.8670  212.1940  154.0190 C   0  0  0  0  0  2  0  0  0  0  0  0
  158.6290  213.8170  154.4130 O   0  0  0  0  0  0  0  0  0  0  0  0
  157.7130  213.3570  153.4340 C   0  0  1  0  0  0  0  0  0  0  0  0
  157.1100  213.3450  156.1520 N   0  0  0  0  0  0  0  0  0  0  0  0
  156.9150  214.4530  152.9900 O   0  0  0  0  0  0  0  0  0  0  0  0
  155.6100  214.0300  152.6760 C   0  0  0  0  0  1  0  0  0  0  0  0
  155.8080  211.3960  156.1300 O   0  0  0  0  0  0  0  0  0  0  0  0
  155.2380  210.2920  155.4420 C   0  0  0  0  0  1  0  0  0  0  0  0
  1  2  1  0  0  0  0
  2 15  1  0  0  0  0
  2  3  2  0  0  0  0
  5 17  1  0  0  0  0
  5 11  1  0  0  0  0
  7  4  1  1  0  0  0
  7 10  1  0  0  0  0
  7 15  1  0  0  0  0
  8  9  1  0  0  0  0
 10 14  1  6  0  0  0
 10 12  1  0  0  0  0
 11 18  1  6  0  0  0
 11  6  1  0  0  0  0
 12 14  1  1  0  0  0
 12  9  1  0  0  0  0
 13  6  1  6  0  0  0
 13 10  1  0  0  0  0
 15  8  2  0  0  0  0
 16 17  1  6  0  0  0
 16  4  1  0  0  0  0
 16 13  1  0  0  0  0
 19 18  1  0  0  0  0
 20 22  1  0  0  0  0
 22 21  2  6  0  0  0
 22  1  1  0  0  0  0
 22 27  1  0  0  0  0
 23 31  1  0  0  0  0
 23 28  2  0  0  0  0
 24 28  1  0  0  0  0
 25 23  1  0  0  0  0
 26 24  1  0  0  0  0
 27 29  1  6  0  0  0
 27 25  1  0  0  0  0
 27 26  1  0  0  0  0
 30 29  1  0  0  0  0
 32 31  1  0  0  0  0
M  END
>  <MODEL>
4

>  <REMARK>
 VINA RESULT:      -6.6      2.602      4.658
  Name = 
  6 active torsions:
  status: ('A' for Active; 'I' for Inactive)
    1  A    between atoms: N_2  and  P_31
    2  A    between atoms: O_3  and  C_14
    3  A    between atoms: C_7  and  C_22
    4  A    between atoms: C_8  and  O_16
    5  A    between atoms: O_13  and  C_28
    6  A    between atoms: C_28  and  P_31
                            x       y       z     vdW  Elec       q    Type
                         _______ _______ _______ _____ _____    ______ ____

>  <TORSDO>
F 6

$$$$
=
 OpenBabel11072411513D

 32 36  0  0  1  0  0  0  0  0999 V2000
  161.3610  207.4700  152.1580 N   0  0  0  0  0  2  0  0  0  0  0  0
  161.2280  207.0730  150.7900 C   0  0  0  0  0  0  0  0  0  0  0  0
  161.1030  207.9470  149.8880 O   0  0  0  0  0  0  0  0  0  0  0  0
  162.0030  205.8670  148.1250 N   0  0  0  0  0  2  0  0  0  0  0  0
  160.8350  204.5530  144.8100 C   0  0  0  0  0  2  0  0  0  0  0  0
  161.3350  202.6600  146.3100 C   0  0  0  0  0  2  0  0  0  0  0  0
  161.3940  205.1900  149.0420 C   0  0  1  0  0  3  0  0  0  0  0  0
  161.2020  204.7080  151.3900 C   0  0  0  0  0  3  0  0  0  0  0  0
  161.2440  203.3040  151.0770 N   0  0  0  0  0  2  0  0  0  0  0  0
  161.2070  203.7920  148.6350 C   0  0  2  0  0  0  0  0  0  0  0  0
  160.2440  203.3310  145.4860 C   0  0  2  0  0  3  0  0  0  0  0  0
  161.3370  202.7390  149.7240 C   0  0  2  0  0  3  0  0  0  0  0  0
  161.9670  203.6060  147.3440 C   0  0  2  0  0  3  0  0  0  0  0  0
  159.9990  202.9690  149.0070 C   0  0  0  0  0  2  0  0  0  0  0  0
  161.2670  205.6400  150.4360 C   0  0  0  0  0  0  0  0  0  0  0  0
  162.1860  205.0810  146.9020 C   0  0  1  0  0  3  0  0  0  0  0  0
  161.1580  205.5840  145.8760 C   0  0  0  0  0  2  0  0  0  0  0  0
  159.7840  202.4390  144.5140 O   0  0  0  0  0  0  0  0  0  0  0  0
  160.0720  201.1710  145.0250 C   0  0  0  0  0  1  0  0  0  0  0  0
  162.6840  209.9450  152.2390 O   0  0  0  0  0  1  0  0  0  0  0  0
  160.0790  209.8090  152.0080 O   0  0  0  0  0  0  0  0  0  0  0  0
  161.2610  209.1420  152.6770 P   0  0  1  0  0  0  0  0  0  0  0  0
  159.2900  210.1550  156.0730 C   0  0  0  0  0  0  0  0  0  0  0  0
  160.3350  207.9990  156.3020 C   0  0  0  0  0  2  0  0  0  0  0  0
  160.0850  210.3940  154.8220 C   0  0  0  0  0  2  0  0  0  0  0  0
  160.4780  207.9990  154.8980 O   0  0  0  0  0  0  0  0  0  0  0  0
  161.0580  209.2290  154.4970 C   0  0  1  0  0  0  0  0  0  0  0  0
  159.3900  209.0300  156.7170 N   0  0  0  0  0  0  0  0  0  0  0  0
  162.3280  209.3740  155.1310 O   0  0  0  0  0  0  0  0  0  0  0  0
  162.5390  210.7060  155.5330 C   0  0  0  0  0  1  0  0  0  0  0  0
  158.3990  211.1430  156.4990 O   0  0  0  0  0  0  0  0  0  0  0  0
  157.2100  211.4530  155.7880 C   0  0  0  0  0  1  0  0  0  0  0  0
  1 22  1  0  0  0  0
  2  1  1  0  0  0  0
  3  2  2  0  0  0  0
  5 11  1  0  0  0  0
  5 17  1  0  0  0  0
  7  4  1  1  0  0  0
  7 15  1  0  0  0  0
  9  8  1  0  0  0  0
 10 14  1  6  0  0  0
 10  7  1  0  0  0  0
 10 12  1  0  0  0  0
 11 18  1  6  0  0  0
 11  6  1  0  0  0  0
 12 14  1  6  0  0  0
 12  9  1  0  0  0  0
 13  6  1  6  0  0  0
 13 10  1  0  0  0  0
 15  2  1  0  0  0  0
 15  8  2  0  0  0  0
 16 17  1  6  0  0  0
 16 13  1  0  0  0  0
 16  4  1  0  0  0  0
 18 19  1  0  0  0  0
 20 22  1  0  0  0  0
 22 21  2  6  0  0  0
 22 27  1  0  0  0  0
 23 31  1  0  0  0  0
 23 28  2  0  0  0  0
 24 28  1  0  0  0  0
 25 23  1  0  0  0  0
 26 24  1  0  0  0  0
 27 25  1  0  0  0  0
 27 26  1  0  0  0  0
 27 29  1  1  0  0  0
 29 30  1  0  0  0  0
 32 31  1  0  0  0  0
M  END
>  <MODEL>
5

>  <REMARK>
 VINA RESULT:      -6.6      2.163      3.577
  Name = 
  6 active torsions:
  status: ('A' for Active; 'I' for Inactive)
    1  A    between atoms: N_2  and  P_31
    2  A    between atoms: O_3  and  C_14
    3  A    between atoms: C_7  and  C_22
    4  A    between atoms: C_8  and  O_16
    5  A    between atoms: O_13  and  C_28
    6  A    between atoms: C_28  and  P_31
                            x       y       z     vdW  Elec       q    Type
                         _______ _______ _______ _____ _____    ______ ____

>  <TORSDO>
F 6

$$$$
=
 OpenBabel11072411513D

 32 36  0  0  1  0  0  0  0  0999 V2000
  161.6240  206.8130  146.8780 N   0  0  0  0  0  2  0  0  0  0  0  0
  160.9310  206.9430  148.1220 C   0  0  0  0  0  0  0  0  0  0  0  0
  159.9450  206.1970  148.3760 O   0  0  0  0  0  0  0  0  0  0  0  0
  161.6420  206.4310  151.0180 N   0  0  0  0  0  2  0  0  0  0  0  0
  160.4830  206.4230  154.5870 C   0  0  0  0  0  2  0  0  0  0  0  0
  161.8100  208.4590  154.1630 C   0  0  0  0  0  2  0  0  0  0  0  0
  161.4430  207.6200  150.5530 C   0  0  1  0  0  3  0  0  0  0  0  0
  161.7870  209.1460  148.7270 C   0  0  0  0  0  3  0  0  0  0  0  0
  162.2460  210.1290  149.6720 N   0  0  0  0  0  2  0  0  0  0  0  0
  161.6720  208.6400  151.5830 C   0  0  2  0  0  0  0  0  0  0  0  0
  160.4440  207.9400  154.5930 C   0  0  2  0  0  3  0  0  0  0  0  0
  162.3120  209.9410  151.1280 C   0  0  2  0  0  3  0  0  0  0  0  0
  162.2420  207.9280  152.7860 C   0  0  2  0  0  3  0  0  0  0  0  0
  160.8800  209.9200  151.6810 C   0  0  0  0  0  2  0  0  0  0  0  0
  161.3890  207.9320  149.1170 C   0  0  0  0  0  0  0  0  0  0  0  0
  161.8860  206.4480  152.4630 C   0  0  1  0  0  3  0  0  0  0  0  0
  160.6040  205.9510  153.1490 C   0  0  0  0  0  2  0  0  0  0  0  0
  160.1640  208.3930  155.8840 O   0  0  0  0  0  0  0  0  0  0  0  0
  160.0620  207.2340  156.6570 C   0  0  0  0  0  1  0  0  0  0  0  0
  159.4320  205.8210  145.4310 O   0  0  0  0  0  1  0  0  0  0  0  0
  161.7850  206.0890  144.3120 O   0  0  0  0  0  0  0  0  0  0  0  0
  161.1110  205.7130  145.6130 P   0  0  1  0  0  0  0  0  0  0  0  0
  161.1280  202.4680  148.0450 C   0  0  0  0  0  0  0  0  0  0  0  0
  160.8950  201.8090  145.7410 C   0  0  0  0  0  2  0  0  0  0  0  0
  161.4990  203.8530  147.5980 C   0  0  0  0  0  2  0  0  0  0  0  0
  160.5740  203.1550  145.4640 O   0  0  0  0  0  0  0  0  0  0  0  0
  161.5570  203.9900  146.0520 C   0  0  1  0  0  0  0  0  0  0  0  0
  160.8150  201.5520  147.1750 N   0  0  0  0  0  0  0  0  0  0  0  0
  162.8360  203.6560  145.5150 O   0  0  0  0  0  0  0  0  0  0  0  0
  163.8610  204.3380  146.1960 C   0  0  0  0  0  1  0  0  0  0  0  0
  161.0730  202.1980  149.4130 O   0  0  0  0  0  0  0  0  0  0  0  0
  160.6270  203.1580  150.3610 C   0  0  0  0  0  1  0  0  0  0  0  0
  1  2  1  0  0  0  0
  2  3  2  0  0  0  0
  2 15  1  0  0  0  0
  4 16  1  0  0  0  0
  5 11  1  0  0  0  0
  6 11  1  0  0  0  0
  7 15  1  6  0  0  0
  7  4  1  0  0  0  0
  7 10  1  0  0  0  0
  8 15  2  0  0  0  0
  8  9  1  0  0  0  0
  9 12  1  0  0  0  0
 10 14  1  1  0  0  0
 10 13  1  0  0  0  0
 11 18  1  1  0  0  0
 12 10  1  0  0  0  0
 12 14  1  1  0  0  0
 13  6  1  1  0  0  0
 16 13  1  0  0  0  0
 16 17  1  1  0  0  0
 17  5  1  0  0  0  0
 18 19  1  0  0  0  0
 20 22  1  0  0  0  0
 22 21  2  6  0  0  0
 22 27  1  0  0  0  0
 22  1  1  0  0  0  0
 23 31  1  0  0  0  0
 24 28  1  0  0  0  0
 25 23  1  0  0  0  0
 26 24  1  0  0  0  0
 26 27  1  0  0  0  0
 27 29  1  6  0  0  0
 27 25  1  0  0  0  0
 28 23  2  0  0  0  0
 29 30  1  0  0  0  0
 31 32  1  0  0  0  0
M  END
>  <MODEL>
6

>  <REMARK>
 VINA RESULT:      -6.5      3.333      9.118
  Name = 
  6 active torsions:
  status: ('A' for Active; 'I' for Inactive)
    1  A    between atoms: N_2  and  P_31
    2  A    between atoms: O_3  and  C_14
    3  A    between atoms: C_7  and  C_22
    4  A    between atoms: C_8  and  O_16
    5  A    between atoms: O_13  and  C_28
    6  A    between atoms: C_28  and  P_31
                            x       y       z     vdW  Elec       q    Type
                         _______ _______ _______ _____ _____    ______ ____

>  <TORSDO>
F 6

$$$$
=
 OpenBabel11072411513D

 32 36  0  0  1  0  0  0  0  0999 V2000
  161.0110  206.0140  149.4250 N   0  0  0  0  0  2  0  0  0  0  0  0
  161.7040  206.8290  150.3740 C   0  0  0  0  0  0  0  0  0  0  0  0
  162.5950  207.6330  149.9840 O   0  0  0  0  0  0  0  0  0  0  0  0
  160.3750  208.9630  152.0580 N   0  0  0  0  0  2  0  0  0  0  0  0
  160.8310  211.8280  154.4380 C   0  0  0  0  0  2  0  0  0  0  0  0
  160.1900  209.8090  155.7020 C   0  0  0  0  0  2  0  0  0  0  0  0
  160.9620  207.9360  152.5780 C   0  0  1  0  0  3  0  0  0  0  0  0
  161.3680  205.5700  152.4370 C   0  0  0  0  0  3  0  0  0  0  0  0
  161.0260  205.4570  153.8300 N   0  0  0  0  0  2  0  0  0  0  0  0
  160.8310  207.9300  154.0400 C   0  0  2  0  0  0  0  0  0  0  0  0
  161.2680  210.8710  155.5300 C   0  0  2  0  0  3  0  0  0  0  0  0
  160.6520  206.5760  154.7050 C   0  0  2  0  0  3  0  0  0  0  0  0
  159.8870  209.0520  154.3990 C   0  0  2  0  0  3  0  0  0  0  0  0
  161.9030  207.4250  154.9720 C   0  0  0  0  0  2  0  0  0  0  0  0
  161.3530  206.7470  151.8060 C   0  0  0  0  0  0  0  0  0  0  0  0
  159.8890  209.8870  153.0870 C   0  0  1  0  0  3  0  0  0  0  0  0
  160.8480  211.0880  153.1130 C   0  0  0  0  0  2  0  0  0  0  0  0
  161.4220  211.5710  156.7290 O   0  0  0  0  0  0  0  0  0  0  0  0
  160.3910  212.5130  156.7290 C   0  0  0  0  0  1  0  0  0  0  0  0
  160.0920  206.6040  146.8390 O   0  0  0  0  0  0  0  0  0  0  0  0
  162.6210  206.8640  147.4710 O   0  0  0  0  0  1  0  0  0  0  0  0
  161.4050  205.9970  147.7170 P   0  0  1  0  0  0  0  0  0  0  0  0
  161.0520  201.9640  147.9260 C   0  0  0  0  0  0  0  0  0  0  0  0
  161.0950  202.7000  145.6350 C   0  0  0  0  0  2  0  0  0  0  0  0
  161.5030  203.3280  148.3600 C   0  0  0  0  0  2  0  0  0  0  0  0
  160.8390  203.9990  146.1230 O   0  0  0  0  0  0  0  0  0  0  0  0
  161.7580  204.2850  147.1640 C   0  0  1  0  0  0  0  0  0  0  0  0
  160.8310  201.7070  146.6700 N   0  0  0  0  0  0  0  0  0  0  0  0
  163.0860  204.1920  146.6540 O   0  0  0  0  0  0  0  0  0  0  0  0
  163.1620  204.7200  145.3520 C   0  0  0  0  0  1  0  0  0  0  0  0
  160.8200  200.9920  148.9020 O   0  0  0  0  0  0  0  0  0  0  0  0
  160.8310  201.2910  150.2900 C   0  0  0  0  0  1  0  0  0  0  0  0
  1  2  1  0  0  0  0
  2 15  1  0  0  0  0
  3  2  2  0  0  0  0
  4  7  1  0  0  0  0
  4 16  1  0  0  0  0
  5 11  1  0  0  0  0
  7 15  1  6  0  0  0
  7 10  1  0  0  0  0
  8  9  1  0  0  0  0
  9 12  1  0  0  0  0
 10 13  1  0  0  0  0
 10 12  1  0  0  0  0
 10 14  1  1  0  0  0
 11  6  1  0  0  0  0
 11 18  1  1  0  0  0
 12 14  1  1  0  0  0
 13  6  1  1  0  0  0
 15  8  2  0  0  0  0
 16 17  1  1  0  0  0
 16 13  1  0  0  0  0
 17  5  1  0  0  0  0
 18 19  1  0  0  0  0
 21 22  1  0  0  0  0
 22 20  2  6  0  0  0
 22  1  1  0  0  0  0
 23 25  1  0  0  0  0
 23 31  1  0  0  0  0
 24 26  1  0  0  0  0
 24 28  1  0  0  0  0
 26 27  1  0  0  0  0
 27 29  1  6  0  0  0
 27 22  1  0  0  0  0
 27 25  1  0  0  0  0
 28 23  2  0  0  0  0
 30 29  1  0  0  0  0
 31 32  1  0  0  0  0
M  END
>  <MODEL>
7

>  <REMARK>
 VINA RESULT:      -6.3      2.761      9.624
  Name = 
  6 active torsions:
  status: ('A' for Active; 'I' for Inactive)
    1  A    between atoms: N_2  and  P_31
    2  A    between atoms: O_3  and  C_14
    3  A    between atoms: C_7  and  C_22
    4  A    between atoms: C_8  and  O_16
    5  A    between atoms: O_13  and  C_28
    6  A    between atoms: C_28  and  P_31
                            x       y       z     vdW  Elec       q    Type
                         _______ _______ _______ _____ _____    ______ ____

>  <TORSDO>
F 6

$$$$
=
 OpenBabel11072411513D

 32 36  0  0  1  0  0  0  0  0999 V2000
  161.0830  207.9060  152.4010 N   0  0  0  0  0  2  0  0  0  0  0  0
  161.2460  207.5500  151.0260 C   0  0  0  0  0  0  0  0  0  0  0  0
  161.3270  208.4510  150.1450 O   0  0  0  0  0  0  0  0  0  0  0  0
  162.1070  206.4320  148.3490 N   0  0  0  0  0  2  0  0  0  0  0  0
  161.0410  205.1400  144.9910 C   0  0  0  0  0  2  0  0  0  0  0  0
  161.5970  203.2380  146.4600 C   0  0  0  0  0  2  0  0  0  0  0  0
  161.5140  205.7120  149.2420 C   0  0  1  0  0  3  0  0  0  0  0  0
  161.3090  205.1740  151.5770 C   0  0  0  0  0  3  0  0  0  0  0  0
  161.4130  203.7800  151.2370 N   0  0  0  0  0  2  0  0  0  0  0  0
  161.3900  204.3160  148.8050 C   0  0  2  0  0  0  0  0  0  0  0  0
  160.4910  203.8810  145.6330 C   0  0  2  0  0  3  0  0  0  0  0  0
  161.5480  203.2470  149.8740 C   0  0  2  0  0  3  0  0  0  0  0  0
  162.1750  204.1870  147.5230 C   0  0  2  0  0  3  0  0  0  0  0  0
  160.2110  203.4370  149.1430 C   0  0  0  0  0  2  0  0  0  0  0  0
  161.3480  206.1280  150.6430 C   0  0  0  0  0  0  0  0  0  0  0  0
  162.3400  205.6790  147.1130 C   0  0  1  0  0  3  0  0  0  0  0  0
  161.3060  206.1610  146.0820 C   0  0  0  0  0  2  0  0  0  0  0  0
  160.0820  202.9910  144.6370 O   0  0  0  0  0  0  0  0  0  0  0  0
  160.0530  201.7420  145.2610 C   0  0  0  0  0  1  0  0  0  0  0  0
  162.2190  210.4740  152.4260 O   0  0  0  0  0  1  0  0  0  0  0  0
  159.6220  210.1410  152.3440 O   0  0  0  0  0  0  0  0  0  0  0  0
  160.8880  209.5640  152.9380 P   0  0  1  0  0  0  0  0  0  0  0  0
  162.2610  210.5400  156.6270 C   0  0  0  0  0  0  0  0  0  0  0  0
  159.8780  210.8540  156.4910 C   0  0  0  0  0  2  0  0  0  0  0  0
  162.2230  209.7850  155.3300 C   0  0  0  0  0  2  0  0  0  0  0  0
  160.0210  210.7790  155.0890 O   0  0  0  0  0  0  0  0  0  0  0  0
  160.7840  209.6280  154.7680 C   0  0  1  0  0  0  0  0  0  0  0  0
  161.1770  211.0590  157.1240 N   0  0  0  0  0  0  0  0  0  0  0  0
  160.1160  208.4710  155.2680 O   0  0  0  0  0  0  0  0  0  0  0  0
  161.0350  207.5670  155.8330 C   0  0  0  0  0  1  0  0  0  0  0  0
  163.4920  210.7220  157.2600 O   0  0  0  0  0  0  0  0  0  0  0  0
  164.3930  211.7550  156.8870 C   0  0  0  0  0  1  0  0  0  0  0  0
  1 22  1  0  0  0  0
  2  1  1  0  0  0  0
  3  2  2  0  0  0  0
  5 11  1  0  0  0  0
  5 17  1  0  0  0  0
  7  4  1  1  0  0  0
  7 15  1  0  0  0  0
  9  8  1  0  0  0  0
 10 14  1  6  0  0  0
 10  7  1  0  0  0  0
 10 12  1  0  0  0  0
 11 18  1  6  0  0  0
 11  6  1  0  0  0  0
 12 14  1  6  0  0  0
 12  9  1  0  0  0  0
 13  6  1  6  0  0  0
 13 10  1  0  0  0  0
 15  2  1  0  0  0  0
 15  8  2  0  0  0  0
 16 17  1  6  0  0  0
 16 13  1  0  0  0  0
 16  4  1  0  0  0  0
 18 19  1  0  0  0  0
 20 22  1  0  0  0  0
 22 21  2  6  0  0  0
 22 27  1  0  0  0  0
 23 28  2  0  0  0  0
 23 31  1  0  0  0  0
 24 28  1  0  0  0  0
 25 23  1  0  0  0  0
 26 24  1  0  0  0  0
 27 26  1  0  0  0  0
 27 29  1  1  0  0  0
 27 25  1  0  0  0  0
 29 30  1  0  0  0  0
 32 31  1  0  0  0  0
M  END
>  <MODEL>
8

>  <REMARK>
 VINA RESULT:      -6.2      2.110      3.654
  Name = 
  6 active torsions:
  status: ('A' for Active; 'I' for Inactive)
    1  A    between atoms: N_2  and  P_31
    2  A    between atoms: O_3  and  C_14
    3  A    between atoms: C_7  and  C_22
    4  A    between atoms: C_8  and  O_16
    5  A    between atoms: O_13  and  C_28
    6  A    between atoms: C_28  and  P_31
                            x       y       z     vdW  Elec       q    Type
                         _______ _______ _______ _____ _____    ______ ____

>  <TORSDO>
F 6

$$$$
=
 OpenBabel11072411513D

 32 36  0  0  1  0  0  0  0  0999 V2000
  160.4210  208.9320  153.7170 N   0  0  0  0  0  2  0  0  0  0  0  0
  161.1010  207.7460  154.1360 C   0  0  0  0  0  0  0  0  0  0  0  0
  161.5780  207.6710  155.3020 O   0  0  0  0  0  0  0  0  0  0  0  0
  162.2130  207.7740  151.3220 N   0  0  0  0  0  2  0  0  0  0  0  0
  161.4770  208.0330  147.6520 C   0  0  0  0  0  2  0  0  0  0  0  0
  161.8460  205.6680  148.2470 C   0  0  0  0  0  2  0  0  0  0  0  0
  161.5190  206.7860  151.7830 C   0  0  1  0  0  3  0  0  0  0  0  0
  161.0660  205.3530  153.6600 C   0  0  0  0  0  3  0  0  0  0  0  0
  161.1810  204.2170  152.7850 N   0  0  0  0  0  0  0  0  0  0  0  0
  161.4180  205.7010  150.8000 C   0  0  2  0  0  0  0  0  0  0  0  0
  160.8430  206.6550  147.6660 C   0  0  2  0  0  3  0  0  0  0  0  0
  161.4470  204.2810  151.3420 C   0  0  2  0  0  3  0  0  0  0  0  0
  162.3280  206.0640  149.6520 C   0  0  2  0  0  3  0  0  0  0  0  0
  160.1960  204.8310  150.6410 C   0  0  0  0  0  2  0  0  0  0  0  0
  161.2180  206.6020  153.2110 C   0  0  1  0  0  3  0  0  0  0  0  0
  162.5590  207.5800  149.9110 C   0  0  1  0  0  3  0  0  0  0  0  0
  161.6460  208.5010  149.0860 C   0  0  0  0  0  2  0  0  0  0  0  0
  160.5230  206.2760  146.3610 O   0  0  0  0  0  0  0  0  0  0  0  0
  161.7250  205.8220  145.8140 C   0  0  0  0  0  1  0  0  0  0  0  0
  159.7770  209.9060  156.2700 O   0  0  0  0  0  1  0  0  0  0  0  0
  161.6420  211.0360  154.8200 O   0  0  0  0  0  0  0  0  0  0  0  0
  160.2910  210.3620  154.7240 P   0  0  1  0  0  0  0  0  0  0  0  0
  156.8990  212.5810  154.8000 C   0  0  0  0  0  0  0  0  0  0  0  0
  158.6800  213.7800  153.7120 C   0  0  0  0  0  2  0  0  0  0  0  0
  157.7180  211.3250  154.7300 C   0  0  0  0  0  2  0  0  0  0  0  0
  159.5630  212.8370  154.2790 O   0  0  0  0  0  0  0  0  0  0  0  0
  159.0770  211.5330  154.0080 C   0  0  1  0  0  0  0  0  0  0  0  0
  157.3760  213.7090  154.3620 N   0  0  0  0  0  0  0  0  0  0  0  0
  158.9860  211.3530  152.5960 O   0  0  0  0  0  0  0  0  0  0  0  0
  160.1530  211.8110  151.9560 C   0  0  0  0  0  1  0  0  0  0  0  0
  155.6370  212.5260  155.3950 O   0  0  0  0  0  0  0  0  0  0  0  0
  155.4070  212.9450  156.7320 C   0  0  0  0  0  1  0  0  0  0  0  0
  1  2  1  0  0  0  0
  1 22  1  0  0  0  0
  2  3  2  0  0  0  0
  5 11  1  0  0  0  0
  5 17  1  0  0  0  0
  7  4  1  1  0  0  0
  7 15  1  0  0  0  0
  9  8  2  0  0  0  0
 10 14  1  6  0  0  0
 10 12  1  0  0  0  0
 10  7  1  0  0  0  0
 11 18  1  6  0  0  0
 11  6  1  0  0  0  0
 12 14  1  6  0  0  0
 12  9  1  0  0  0  0
 13  6  1  6  0  0  0
 13 16  1  0  0  0  0
 13 10  1  0  0  0  0
 15  8  1  0  0  0  0
 15  2  1  1  0  0  0
 16 17  1  6  0  0  0
 16  4  1  0  0  0  0
 19 18  1  0  0  0  0
 22 21  2  1  0  0  0
 22 20  1  0  0  0  0
 23 31  1  0  0  0  0
 24 26  1  0  0  0  0
 24 28  1  0  0  0  0
 25 23  1  0  0  0  0
 27 29  1  6  0  0  0
 27 26  1  0  0  0  0
 27 22  1  0  0  0  0
 27 25  1  0  0  0  0
 28 23  2  0  0  0  0
 30 29  1  0  0  0  0
 31 32  1  0  0  0  0
M  END
>  <MODEL>
9

>  <REMARK>
 VINA RESULT:      -6.2      2.018      3.522
  Name = 
  6 active torsions:
  status: ('A' for Active; 'I' for Inactive)
    1  A    between atoms: N_2  and  P_31
    2  A    between atoms: O_3  and  C_14
    3  A    between atoms: C_7  and  C_22
    4  A    between atoms: C_8  and  O_16
    5  A    between atoms: O_13  and  C_28
    6  A    between atoms: C_28  and  P_31
                            x       y       z     vdW  Elec       q    Type
                         _______ _______ _______ _____ _____    ______ ____

>  <TORSDO>
F 6

$$$$
