=
 OpenBabel11072412143D

 31 33  0  0  1  0  0  0  0  0999 V2000
  161.3990  205.7630  152.7770 C   0  0  0  0  0  3  0  0  0  0  0  0
  160.7510  205.6110  149.9710 C   0  0  0  0  0  2  0  0  0  0  0  0
  160.9180  206.9780  150.6690 C   0  0  0  0  0  2  0  0  0  0  0  0
  161.2040  204.5720  152.2020 C   0  0  0  0  0  3  0  0  0  0  0  0
  161.8090  206.9330  151.9230 C   0  0  1  0  0  3  0  0  0  0  0  0
  161.4040  204.4370  150.7210 C   0  0  1  0  0  3  0  0  0  0  0  0
  161.3050  209.4360  151.8120 C   0  0  1  0  0  3  0  0  0  0  0  0
  160.9240  210.5940  152.6250 N   0  0  0  0  0  0  0  0  0  0  0  0
  162.3690  209.8290  150.9030 N   0  0  0  0  0  1  0  0  0  0  0  0
  159.1630  210.6710  156.4690 O   0  0  0  0  0  0  0  0  0  0  0  0
  159.9800  211.6590  154.5010 N   0  0  0  0  0  2  0  0  0  0  0  0
  160.2450  209.1340  154.3920 C   0  0  0  0  0  3  0  0  0  0  0  0
  161.7530  208.2570  152.7030 C   0  0  1  0  0  3  0  0  0  0  0  0
  160.3910  210.4770  153.8030 C   0  0  0  0  0  0  0  0  0  0  0  0
  159.3810  211.7170  155.8020 C   0  0  0  0  0  0  0  0  0  0  0  0
  160.8450  208.1190  153.8500 N   0  0  0  0  0  0  0  0  0  0  0  0
  159.0380  213.0430  156.3880 C   0  0  0  0  0  2  0  0  0  0  0  0
  157.5400  213.1530  156.6340 C   0  0  1  0  0  3  0  0  0  0  0  0
  157.2240  214.4270  157.2610 N   0  0  0  0  0  1  0  0  0  0  0  0
  156.0440  211.8460  155.3020 F   0  0  0  0  0  0  0  0  0  0  0  0
  156.7800  213.0180  155.3250 C   0  0  0  0  0  2  0  0  0  0  0  0
  160.8320  203.1090  150.2390 C   0  0  0  0  0  2  0  0  0  0  0  0
  160.2760  201.0090  144.8720 O   0  0  0  0  0  0  0  0  0  0  0  0
  161.4200  203.8590  148.0160 C   0  0  0  0  0  3  0  0  0  0  0  0
  162.5730  205.2640  145.9550 Cl  0  0  0  0  0  0  0  0  0  0  0  0
  159.9190  201.3690  147.1780 C   0  0  0  0  0  2  0  0  0  0  0  0
  160.5030  201.7500  145.8620 C   0  0  0  0  0  0  0  0  0  0  0  0
  161.0820  202.8210  148.7860 C   0  0  0  0  0  0  0  0  0  0  0  0
  161.6970  203.8750  146.5620 C   0  0  0  0  0  0  0  0  0  0  0  0
  161.3050  202.9690  145.6570 C   0  0  0  0  0  3  0  0  0  0  0  0
  160.9850  201.4280  148.2470 C   0  0  0  0  0  2  0  0  0  0  0  0
  2  3  1  0  0  0  0
  2  6  1  0  0  0  0
  4  1  2  0  0  0  0
  5  3  1  6  0  0  0
  5 13  1  0  0  0  0
  5  1  1  0  0  0  0
  6 22  1  6  0  0  0
  6  4  1  0  0  0  0
  7  9  1  6  0  0  0
  7  8  1  0  0  0  0
  7 13  1  0  0  0  0
  8 14  2  0  0  0  0
 11 15  1  0  0  0  0
 13 16  1  1  0  0  0
 14 12  1  0  0  0  0
 14 11  1  0  0  0  0
 15 17  1  0  0  0  0
 15 10  2  0  0  0  0
 16 12  2  0  0  0  0
 17 18  1  0  0  0  0
 18 19  1  6  0  0  0
 20 21  1  0  0  0  0
 21 18  1  0  0  0  0
 23 27  2  0  0  0  0
 24 28  2  0  0  0  0
 25 29  1  0  0  0  0
 26 31  1  0  0  0  0
 27 26  1  0  0  0  0
 28 22  1  0  0  0  0
 29 24  1  0  0  0  0
 30 27  1  0  0  0  0
 30 29  2  0  0  0  0
 31 28  1  0  0  0  0
M  END
>  <MODEL>
1

>  <REMARK>
 VINA RESULT:      -9.0      0.000      0.000
  Name = 
  6 active torsions:
  status: ('A' for Active; 'I' for Inactive)
    1  A    between atoms: C_14  and  C_27
    2  A    between atoms: C_18  and  C_20
    3  A    between atoms: C_18  and  C_28
    4  A    between atoms: C_20  and  C_31
    5  A    between atoms: C_23  and  C_24
    6  A    between atoms: C_27  and  C_30
                            x       y       z     vdW  Elec       q    Type
                         _______ _______ _______ _____ _____    ______ ____

>  <TORSDO>
F 6

$$$$
=
 OpenBabel11072412143D

 31 33  0  0  1  0  0  0  0  0999 V2000
  160.5670  206.5090  150.5120 C   0  0  0  0  0  3  0  0  0  0  0  0
  162.2240  208.0160  148.6940 C   0  0  0  0  0  2  0  0  0  0  0  0
  161.7170  208.6480  150.0070 C   0  0  0  0  0  2  0  0  0  0  0  0
  160.9520  205.9640  149.3530 C   0  0  0  0  0  3  0  0  0  0  0  0
  161.3860  207.6230  151.1070 C   0  0  1  0  0  3  0  0  0  0  0  0
  162.1930  206.4770  148.6830 C   0  0  1  0  0  3  0  0  0  0  0  0
  161.3360  207.9190  153.6450 C   0  0  1  0  0  3  0  0  0  0  0  0
  160.8780  208.8110  154.7130 N   0  0  0  0  0  0  0  0  0  0  0  0
  161.0350  206.5470  154.0150 N   0  0  0  0  0  1  0  0  0  0  0  0
  159.7530  212.8810  154.4740 O   0  0  0  0  0  0  0  0  0  0  0  0
  160.1880  210.8750  155.6150 N   0  0  0  0  0  2  0  0  0  0  0  0
  160.5610  210.5640  153.1200 C   0  0  0  0  0  3  0  0  0  0  0  0
  160.6730  208.2830  152.2980 C   0  0  1  0  0  3  0  0  0  0  0  0
  160.5560  210.0510  154.5010 C   0  0  0  0  0  0  0  0  0  0  0  0
  159.8030  212.2540  155.5650 C   0  0  0  0  0  0  0  0  0  0  0  0
  160.6560  209.7410  152.1210 N   0  0  0  0  0  0  0  0  0  0  0  0
  159.4250  212.9520  156.8260 C   0  0  0  0  0  2  0  0  0  0  0  0
  157.9130  213.0800  156.9410 C   0  0  1  0  0  3  0  0  0  0  0  0
  157.4460  214.2360  156.1930 N   0  0  0  0  0  1  0  0  0  0  0  0
  156.4780  212.0980  155.2960 F   0  0  0  0  0  0  0  0  0  0  0  0
  157.2370  211.8210  156.4210 C   0  0  0  0  0  2  0  0  0  0  0  0
  162.2660  205.9510  147.2540 C   0  0  0  0  0  2  0  0  0  0  0  0
  160.0450  201.2480  144.7090 O   0  0  0  0  0  0  0  0  0  0  0  0
  161.6780  203.7130  147.9610 C   0  0  0  0  0  3  0  0  0  0  0  0
  161.0890  201.5460  149.5440 Cl  0  0  0  0  0  0  0  0  0  0  0  0
  161.1340  203.3210  145.0100 C   0  0  0  0  0  2  0  0  0  0  0  0
  160.5680  202.0450  145.5290 C   0  0  0  0  0  0  0  0  0  0  0  0
  161.5240  204.6630  147.0340 C   0  0  0  0  0  0  0  0  0  0  0  0
  161.0950  202.3530  147.9900 C   0  0  0  0  0  0  0  0  0  0  0  0
  160.6230  201.6550  146.9490 C   0  0  0  0  0  3  0  0  0  0  0  0
  160.6340  204.4770  145.8450 C   0  0  0  0  0  2  0  0  0  0  0  0
  1  5  1  0  0  0  0
  2  3  1  0  0  0  0
  4  1  2  0  0  0  0
  5  3  1  6  0  0  0
  5 13  1  0  0  0  0
  6 22  1  6  0  0  0
  6  2  1  0  0  0  0
  6  4  1  0  0  0  0
  7  9  1  1  0  0  0
  7  8  1  0  0  0  0
 10 15  2  0  0  0  0
 12 14  1  0  0  0  0
 13 16  1  6  0  0  0
 13  7  1  0  0  0  0
 14  8  2  0  0  0  0
 14 11  1  0  0  0  0
 15 11  1  0  0  0  0
 15 17  1  0  0  0  0
 16 12  2  0  0  0  0
 17 18  1  0  0  0  0
 18 19  1  6  0  0  0
 20 21  1  0  0  0  0
 21 18  1  0  0  0  0
 23 27  2  0  0  0  0
 24 29  1  0  0  0  0
 26 27  1  0  0  0  0
 26 31  1  0  0  0  0
 27 30  1  0  0  0  0
 28 22  1  0  0  0  0
 28 24  2  0  0  0  0
 29 25  1  0  0  0  0
 30 29  2  0  0  0  0
 31 28  1  0  0  0  0
M  END
>  <MODEL>
2

>  <REMARK>
 VINA RESULT:      -8.2      1.664      2.491
  Name = 
  6 active torsions:
  status: ('A' for Active; 'I' for Inactive)
    1  A    between atoms: C_14  and  C_27
    2  A    between atoms: C_18  and  C_20
    3  A    between atoms: C_18  and  C_28
    4  A    between atoms: C_20  and  C_31
    5  A    between atoms: C_23  and  C_24
    6  A    between atoms: C_27  and  C_30
                            x       y       z     vdW  Elec       q    Type
                         _______ _______ _______ _____ _____    ______ ____

>  <TORSDO>
F 6

$$$$
=
 OpenBabel11072412143D

 31 33  0  0  1  0  0  0  0  0999 V2000
  160.7190  209.6820  152.0240 C   0  0  0  0  0  3  0  0  0  0  0  0
  160.8280  208.2600  154.5320 C   0  0  0  0  0  2  0  0  0  0  0  0
  160.8150  207.4950  153.1910 C   0  0  0  0  0  2  0  0  0  0  0  0
  160.6730  210.3580  153.1760 C   0  0  0  0  0  3  0  0  0  0  0  0
  161.3460  208.3130  152.0000 C   0  0  1  0  0  3  0  0  0  0  0  0
  161.2540  209.7340  154.4110 C   0  0  1  0  0  3  0  0  0  0  0  0
  162.1620  207.9530  149.6050 C   0  0  1  0  0  3  0  0  0  0  0  0
  162.1190  207.0150  148.4790 N   0  0  0  0  0  0  0  0  0  0  0  0
  161.9590  209.3010  149.1040 N   0  0  0  0  0  1  0  0  0  0  0  0
  161.1110  202.9090  148.4820 O   0  0  0  0  0  0  0  0  0  0  0  0
  161.8390  204.9030  147.4780 N   0  0  0  0  0  2  0  0  0  0  0  0
  161.3410  205.2900  149.9390 C   0  0  0  0  0  3  0  0  0  0  0  0
  161.0960  207.5940  150.6650 C   0  0  1  0  0  3  0  0  0  0  0  0
  161.7850  205.7690  148.6180 C   0  0  0  0  0  0  0  0  0  0  0  0
  161.5050  203.5100  147.4480 C   0  0  0  0  0  0  0  0  0  0  0  0
  161.0680  206.1420  150.8800 N   0  0  0  0  0  0  0  0  0  0  0  0
  161.5960  202.7650  146.1600 C   0  0  0  0  0  2  0  0  0  0  0  0
  160.5820  201.6320  146.1180 C   0  0  1  0  0  3  0  0  0  0  0  0
  159.7530  201.7390  144.9290 N   0  0  0  0  0  1  0  0  0  0  0  0
  161.3950  199.7990  147.4250 F   0  0  0  0  0  0  0  0  0  0  0  0
  161.2930  200.2880  146.1330 C   0  0  0  0  0  2  0  0  0  0  0  0
  160.8190  210.5190  155.6430 C   0  0  0  0  0  2  0  0  0  0  0  0
  157.1260  214.4530  153.5430 O   0  0  0  0  0  0  0  0  0  0  0  0
  158.4150  210.7110  155.4550 C   0  0  0  0  0  3  0  0  0  0  0  0
  155.7260  210.2780  155.8150 Cl  0  0  0  0  0  0  0  0  0  0  0  0
  159.1050  213.2210  153.9120 C   0  0  0  0  0  2  0  0  0  0  0  0
  157.6330  213.4100  154.0280 C   0  0  0  0  0  0  0  0  0  0  0  0
  159.5860  211.3530  155.4380 C   0  0  0  0  0  0  0  0  0  0  0  0
  157.0580  211.2680  155.2580 C   0  0  0  0  0  0  0  0  0  0  0  0
  156.7380  212.4200  154.6520 C   0  0  0  0  0  3  0  0  0  0  0  0
  159.6790  212.8360  155.2560 C   0  0  0  0  0  2  0  0  0  0  0  0
  1  4  2  0  0  0  0
  3  2  1  0  0  0  0
  4  6  1  0  0  0  0
  5  1  1  6  0  0  0
  5  3  1  0  0  0  0
  6  2  1  0  0  0  0
  6 22  1  1  0  0  0
  7  9  1  6  0  0  0
  7 13  1  0  0  0  0
  8 14  2  0  0  0  0
  8  7  1  0  0  0  0
 11 14  1  0  0  0  0
 12 16  2  0  0  0  0
 13 16  1  1  0  0  0
 13  5  1  0  0  0  0
 14 12  1  0  0  0  0
 15 11  1  0  0  0  0
 15 10  2  0  0  0  0
 17 15  1  0  0  0  0
 18 19  1  6  0  0  0
 18 21  1  0  0  0  0
 18 17  1  0  0  0  0
 21 20  1  0  0  0  0
 23 27  2  0  0  0  0
 26 27  1  0  0  0  0
 26 31  1  0  0  0  0
 27 30  1  0  0  0  0
 28 24  2  0  0  0  0
 28 22  1  0  0  0  0
 29 24  1  0  0  0  0
 29 25  1  0  0  0  0
 30 29  2  0  0  0  0
 31 28  1  0  0  0  0
M  END
>  <MODEL>
3

>  <REMARK>
 VINA RESULT:      -8.0      4.666     10.787
  Name = 
  6 active torsions:
  status: ('A' for Active; 'I' for Inactive)
    1  A    between atoms: C_14  and  C_27
    2  A    between atoms: C_18  and  C_20
    3  A    between atoms: C_18  and  C_28
    4  A    between atoms: C_20  and  C_31
    5  A    between atoms: C_23  and  C_24
    6  A    between atoms: C_27  and  C_30
                            x       y       z     vdW  Elec       q    Type
                         _______ _______ _______ _____ _____    ______ ____

>  <TORSDO>
F 6

$$$$
=
 OpenBabel11072412143D

 31 33  0  0  1  0  0  0  0  0999 V2000
  160.7900  207.9860  152.1120 C   0  0  0  0  0  3  0  0  0  0  0  0
  160.6180  207.3010  154.9080 C   0  0  0  0  0  2  0  0  0  0  0  0
  161.0940  206.2630  153.8700 C   0  0  0  0  0  2  0  0  0  0  0  0
  160.3230  208.8800  152.9890 C   0  0  0  0  0  3  0  0  0  0  0  0
  161.6950  206.8840  152.5950 C   0  0  1  0  0  3  0  0  0  0  0  0
  160.7200  208.7610  154.4320 C   0  0  1  0  0  3  0  0  0  0  0  0
  160.8740  204.7020  151.5500 C   0  0  1  0  0  3  0  0  0  0  0  0
  160.9040  203.9060  150.3200 N   0  0  0  0  0  0  0  0  0  0  0  0
  161.0960  203.8240  152.6850 N   0  0  0  0  0  1  0  0  0  0  0  0
  161.8540  205.1340  146.3870 O   0  0  0  0  0  0  0  0  0  0  0  0
  161.1540  203.5790  148.0010 N   0  0  0  0  0  2  0  0  0  0  0  0
  161.6570  205.8160  149.0970 C   0  0  0  0  0  3  0  0  0  0  0  0
  161.9350  205.8240  151.5090 C   0  0  1  0  0  3  0  0  0  0  0  0
  161.2200  204.4110  149.1670 C   0  0  0  0  0  0  0  0  0  0  0  0
  161.4680  203.9670  146.6580 C   0  0  0  0  0  0  0  0  0  0  0  0
  161.9420  206.4620  150.1860 N   0  0  0  0  0  0  0  0  0  0  0  0
  161.3660  202.9580  145.5660 C   0  0  0  0  0  2  0  0  0  0  0  0
  160.4600  201.8070  145.9770 C   0  0  1  0  0  3  0  0  0  0  0  0
  159.5820  201.4380  144.8780 N   0  0  0  0  0  1  0  0  0  0  0  0
  161.2650  200.4490  147.7760 F   0  0  0  0  0  0  0  0  0  0  0  0
  161.2910  200.6060  146.4000 C   0  0  0  0  0  2  0  0  0  0  0  0
  159.8420  209.6660  155.2880 C   0  0  0  0  0  2  0  0  0  0  0  0
  159.5050  214.0080  151.4730 O   0  0  0  0  0  0  0  0  0  0  0  0
  158.1280  211.2180  154.5770 C   0  0  0  0  0  3  0  0  0  0  0  0
  155.8090  212.6900  154.5000 Cl  0  0  0  0  0  0  0  0  0  0  0  0
  160.2290  212.0420  152.5620 C   0  0  0  0  0  2  0  0  0  0  0  0
  159.2320  213.1230  152.3230 C   0  0  0  0  0  0  0  0  0  0  0  0
  159.4360  210.9460  154.6140 C   0  0  0  0  0  0  0  0  0  0  0  0
  157.4470  212.3800  153.9650 C   0  0  0  0  0  0  0  0  0  0  0  0
  157.9300  213.1860  153.0090 C   0  0  0  0  0  3  0  0  0  0  0  0
  160.4590  211.8780  154.0460 C   0  0  0  0  0  2  0  0  0  0  0  0
  1  4  2  0  0  0  0
  3  2  1  0  0  0  0
  4  6  1  0  0  0  0
  5  1  1  6  0  0  0
  5  3  1  0  0  0  0
  6  2  1  0  0  0  0
  6 22  1  1  0  0  0
  7  9  1  1  0  0  0
  8  7  1  0  0  0  0
 10 15  2  0  0  0  0
 11 14  1  0  0  0  0
 12 14  1  0  0  0  0
 12 16  2  0  0  0  0
 13 16  1  6  0  0  0
 13  7  1  0  0  0  0
 13  5  1  0  0  0  0
 14  8  2  0  0  0  0
 15 11  1  0  0  0  0
 17 18  1  0  0  0  0
 17 15  1  0  0  0  0
 18 19  1  6  0  0  0
 18 21  1  0  0  0  0
 21 20  1  0  0  0  0
 23 27  2  0  0  0  0
 24 28  2  0  0  0  0
 26 31  1  0  0  0  0
 27 26  1  0  0  0  0
 27 30  1  0  0  0  0
 28 22  1  0  0  0  0
 29 25  1  0  0  0  0
 29 24  1  0  0  0  0
 30 29  2  0  0  0  0
 31 28  1  0  0  0  0
M  END
>  <MODEL>
4

>  <REMARK>
 VINA RESULT:      -8.0      4.859     10.540
  Name = 
  6 active torsions:
  status: ('A' for Active; 'I' for Inactive)
    1  A    between atoms: C_14  and  C_27
    2  A    between atoms: C_18  and  C_20
    3  A    between atoms: C_18  and  C_28
    4  A    between atoms: C_20  and  C_31
    5  A    between atoms: C_23  and  C_24
    6  A    between atoms: C_27  and  C_30
                            x       y       z     vdW  Elec       q    Type
                         _______ _______ _______ _____ _____    ______ ____

>  <TORSDO>
F 6

$$$$
=
 OpenBabel11072412143D

 31 33  0  0  1  0  0  0  0  0999 V2000
  160.8400  208.5190  151.8690 C   0  0  0  0  0  3  0  0  0  0  0  0
  160.7630  208.0060  154.7070 C   0  0  0  0  0  2  0  0  0  0  0  0
  161.2340  206.9150  153.7210 C   0  0  0  0  0  2  0  0  0  0  0  0
  160.3770  209.4550  152.7040 C   0  0  0  0  0  3  0  0  0  0  0  0
  161.7840  207.4690  152.3930 C   0  0  1  0  0  3  0  0  0  0  0  0
  160.8180  209.4340  154.1380 C   0  0  1  0  0  3  0  0  0  0  0  0
  160.9630  205.2250  151.4860 C   0  0  1  0  0  3  0  0  0  0  0  0
  160.9840  204.3590  150.3040 N   0  0  0  0  0  0  0  0  0  0  0  0
  161.2010  204.4160  152.6680 N   0  0  0  0  0  1  0  0  0  0  0  0
  161.8860  205.3600  146.2960 O   0  0  0  0  0  0  0  0  0  0  0  0
  161.2110  203.8990  148.0060 N   0  0  0  0  0  2  0  0  0  0  0  0
  161.7140  206.1980  148.9640 C   0  0  0  0  0  3  0  0  0  0  0  0
  162.0170  206.3480  151.3680 C   0  0  1  0  0  3  0  0  0  0  0  0
  161.2860  204.7970  149.1200 C   0  0  0  0  0  0  0  0  0  0  0  0
  161.5090  204.2090  146.6390 C   0  0  0  0  0  0  0  0  0  0  0  0
  162.0080  206.9080  150.0100 N   0  0  0  0  0  0  0  0  0  0  0  0
  161.4010  203.1380  145.6080 C   0  0  0  0  0  2  0  0  0  0  0  0
  160.4640  202.0330  146.0750 C   0  0  1  0  0  3  0  0  0  0  0  0
  159.7070  201.5040  144.9510 N   0  0  0  0  0  1  0  0  0  0  0  0
  160.8470  200.7310  148.0460 F   0  0  0  0  0  0  0  0  0  0  0  0
  161.2560  200.9150  146.7360 C   0  0  0  0  0  2  0  0  0  0  0  0
  159.9430  210.3720  154.9620 C   0  0  0  0  0  2  0  0  0  0  0  0
  155.6830  213.9760  153.4160 O   0  0  0  0  0  0  0  0  0  0  0  0
  159.6690  212.1260  153.3200 C   0  0  0  0  0  3  0  0  0  0  0  0
  160.0780  213.7470  151.1390 Cl  0  0  0  0  0  0  0  0  0  0  0  0
  157.0010  212.4950  154.6980 C   0  0  0  0  0  2  0  0  0  0  0  0
  156.7920  213.3940  153.5300 C   0  0  0  0  0  0  0  0  0  0  0  0
  159.0590  211.2690  154.1430 C   0  0  0  0  0  0  0  0  0  0  0  0
  159.0590  213.1330  152.4230 C   0  0  0  0  0  0  0  0  0  0  0  0
  157.8310  213.6620  152.5210 C   0  0  0  0  0  3  0  0  0  0  0  0
  157.5680  211.1750  154.2310 C   0  0  0  0  0  2  0  0  0  0  0  0
  1  4  2  0  0  0  0
  3  2  1  0  0  0  0
  4  6  1  0  0  0  0
  5  1  1  6  0  0  0
  5  3  1  0  0  0  0
  6  2  1  0  0  0  0
  6 22  1  1  0  0  0
  7  9  1  1  0  0  0
  8  7  1  0  0  0  0
 10 15  2  0  0  0  0
 11 14  1  0  0  0  0
 12 14  1  0  0  0  0
 12 16  2  0  0  0  0
 13 16  1  6  0  0  0
 13  7  1  0  0  0  0
 13  5  1  0  0  0  0
 14  8  2  0  0  0  0
 15 11  1  0  0  0  0
 17 18  1  0  0  0  0
 17 15  1  0  0  0  0
 18 19  1  6  0  0  0
 18 21  1  0  0  0  0
 21 20  1  0  0  0  0
 23 27  2  0  0  0  0
 24 28  2  0  0  0  0
 25 29  1  0  0  0  0
 27 26  1  0  0  0  0
 28 31  1  0  0  0  0
 28 22  1  0  0  0  0
 29 30  2  0  0  0  0
 29 24  1  0  0  0  0
 30 27  1  0  0  0  0
 31 26  1  0  0  0  0
M  END
>  <MODEL>
5

>  <REMARK>
 VINA RESULT:      -7.8      4.502     10.512
  Name = 
  6 active torsions:
  status: ('A' for Active; 'I' for Inactive)
    1  A    between atoms: C_14  and  C_27
    2  A    between atoms: C_18  and  C_20
    3  A    between atoms: C_18  and  C_28
    4  A    between atoms: C_20  and  C_31
    5  A    between atoms: C_23  and  C_24
    6  A    between atoms: C_27  and  C_30
                            x       y       z     vdW  Elec       q    Type
                         _______ _______ _______ _____ _____    ______ ____

>  <TORSDO>
F 6

$$$$
=
 OpenBabel11072412143D

 31 33  0  0  1  0  0  0  0  0999 V2000
  162.7350  207.4680  148.4160 C   0  0  0  0  0  3  0  0  0  0  0  0
  160.2740  205.9960  148.0990 C   0  0  0  0  0  2  0  0  0  0  0  0
  160.5660  206.7740  149.4000 C   0  0  0  0  0  2  0  0  0  0  0  0
  162.5230  206.7560  147.3050 C   0  0  0  0  0  3  0  0  0  0  0  0
  161.5540  207.9410  149.2220 C   0  0  1  0  0  3  0  0  0  0  0  0
  161.1120  206.4530  146.8920 C   0  0  1  0  0  3  0  0  0  0  0  0
  161.5110  209.9880  150.7520 C   0  0  1  0  0  3  0  0  0  0  0  0
  161.6180  210.4090  152.1510 N   0  0  0  0  0  0  0  0  0  0  0  0
  162.2960  210.8890  149.9260 N   0  0  0  0  0  1  0  0  0  0  0  0
  161.1710  208.0940  155.6610 O   0  0  0  0  0  0  0  0  0  0  0  0
  161.5110  210.0970  154.4830 N   0  0  0  0  0  2  0  0  0  0  0  0
  161.2590  208.1560  152.8620 C   0  0  0  0  0  3  0  0  0  0  0  0
  161.9850  208.5280  150.5750 C   0  0  1  0  0  3  0  0  0  0  0  0
  161.4620  209.5880  153.1440 C   0  0  0  0  0  0  0  0  0  0  0  0
  161.3630  209.3380  155.6890 C   0  0  0  0  0  0  0  0  0  0  0  0
  161.4650  207.6940  151.6660 N   0  0  0  0  0  0  0  0  0  0  0  0
  161.4670  210.0330  157.0040 C   0  0  0  0  0  2  0  0  0  0  0  0
  160.3030  210.9930  157.2020 C   0  0  1  0  0  3  0  0  0  0  0  0
  160.6780  212.3340  156.7820 N   0  0  0  0  0  1  0  0  0  0  0  0
  158.6120  211.5350  155.5980 F   0  0  0  0  0  0  0  0  0  0  0  0
  159.0920  210.5230  156.4110 C   0  0  0  0  0  2  0  0  0  0  0  0
  161.1090  205.3850  145.8040 C   0  0  0  0  0  2  0  0  0  0  0  0
  161.3110  200.8310  149.3740 O   0  0  0  0  0  0  0  0  0  0  0  0
  160.6170  203.0230  145.6280 C   0  0  0  0  0  3  0  0  0  0  0  0
  160.0810  200.5390  144.5830 Cl  0  0  0  0  0  0  0  0  0  0  0  0
  161.1950  203.0580  148.5980 C   0  0  0  0  0  2  0  0  0  0  0  0
  161.1110  201.5860  148.3890 C   0  0  0  0  0  0  0  0  0  0  0  0
  161.2430  203.9800  146.3190 C   0  0  0  0  0  0  0  0  0  0  0  0
  160.5560  201.5720  145.9140 C   0  0  0  0  0  0  0  0  0  0  0  0
  160.7720  200.9730  147.0930 C   0  0  0  0  0  3  0  0  0  0  0  0
  162.0670  203.6770  147.5310 C   0  0  0  0  0  2  0  0  0  0  0  0
  2  3  1  0  0  0  0
  4  1  2  0  0  0  0
  5  1  1  1  0  0  0
  5  3  1  0  0  0  0
  5 13  1  0  0  0  0
  6 22  1  6  0  0  0
  6  4  1  0  0  0  0
  6  2  1  0  0  0  0
  7  9  1  6  0  0  0
  7  8  1  0  0  0  0
  8 14  2  0  0  0  0
 10 15  2  0  0  0  0
 11 15  1  0  0  0  0
 12 14  1  0  0  0  0
 13  7  1  0  0  0  0
 13 16  1  1  0  0  0
 14 11  1  0  0  0  0
 15 17  1  0  0  0  0
 16 12  2  0  0  0  0
 17 18  1  0  0  0  0
 18 19  1  6  0  0  0
 20 21  1  0  0  0  0
 21 18  1  0  0  0  0
 22 28  1  0  0  0  0
 24 29  1  0  0  0  0
 24 28  2  0  0  0  0
 25 29  1  0  0  0  0
 27 26  1  0  0  0  0
 27 23  2  0  0  0  0
 28 31  1  0  0  0  0
 29 30  2  0  0  0  0
 30 27  1  0  0  0  0
 31 26  1  0  0  0  0
M  END
>  <MODEL>
6

>  <REMARK>
 VINA RESULT:      -7.8      2.363      3.225
  Name = 
  6 active torsions:
  status: ('A' for Active; 'I' for Inactive)
    1  A    between atoms: C_14  and  C_27
    2  A    between atoms: C_18  and  C_20
    3  A    between atoms: C_18  and  C_28
    4  A    between atoms: C_20  and  C_31
    5  A    between atoms: C_23  and  C_24
    6  A    between atoms: C_27  and  C_30
                            x       y       z     vdW  Elec       q    Type
                         _______ _______ _______ _____ _____    ______ ____

>  <TORSDO>
F 6

$$$$
=
 OpenBabel11072412143D

 31 33  0  0  1  0  0  0  0  0999 V2000
  161.1680  209.1420  153.3760 C   0  0  0  0  0  3  0  0  0  0  0  0
  160.1960  207.8600  155.7700 C   0  0  0  0  0  2  0  0  0  0  0  0
  160.6040  207.0240  154.5380 C   0  0  0  0  0  2  0  0  0  0  0  0
  160.7670  209.8830  154.4130 C   0  0  0  0  0  3  0  0  0  0  0  0
  161.6190  207.7250  153.6160 C   0  0  1  0  0  3  0  0  0  0  0  0
  160.7820  209.2820  155.7880 C   0  0  1  0  0  3  0  0  0  0  0  0
  160.8300  205.7700  152.1720 C   0  0  1  0  0  3  0  0  0  0  0  0
  160.7830  205.2720  150.7950 N   0  0  0  0  0  0  0  0  0  0  0  0
  161.2200  204.6820  153.0530 N   0  0  0  0  0  1  0  0  0  0  0  0
  161.2510  207.4170  147.1810 O   0  0  0  0  0  0  0  0  0  0  0  0
  160.8150  205.4900  148.4500 N   0  0  0  0  0  2  0  0  0  0  0  0
  161.2900  207.4610  149.9820 C   0  0  0  0  0  3  0  0  0  0  0  0
  161.8110  206.9560  152.2990 C   0  0  1  0  0  3  0  0  0  0  0  0
  160.9490  206.0440  149.7650 C   0  0  0  0  0  0  0  0  0  0  0  0
  160.9670  206.1910  147.2100 C   0  0  0  0  0  0  0  0  0  0  0  0
  161.6450  207.8710  151.1620 N   0  0  0  0  0  0  0  0  0  0  0  0
  160.8160  205.4450  145.9280 C   0  0  0  0  0  2  0  0  0  0  0  0
  161.5820  204.1310  145.9750 C   0  0  1  0  0  3  0  0  0  0  0  0
  160.8690  203.1040  145.2310 N   0  0  0  0  0  1  0  0  0  0  0  0
  163.8690  204.7040  146.3820 F   0  0  0  0  0  0  0  0  0  0  0  0
  162.9770  204.3130  145.3980 C   0  0  0  0  0  2  0  0  0  0  0  0
  160.0030  210.1700  156.7510 C   0  0  0  0  0  2  0  0  0  0  0  0
  157.7170  214.2530  153.3410 O   0  0  0  0  0  0  0  0  0  0  0  0
  157.8660  210.5330  155.6770 C   0  0  0  0  0  3  0  0  0  0  0  0
  155.2060  210.3250  155.0200 Cl  0  0  0  0  0  0  0  0  0  0  0  0
  159.3010  212.8960  154.4470 C   0  0  0  0  0  2  0  0  0  0  0  0
  157.9130  213.2020  154.0030 C   0  0  0  0  0  0  0  0  0  0  0  0
  159.0140  211.0830  156.0830 C   0  0  0  0  0  0  0  0  0  0  0  0
  156.7330  211.1800  154.9770 C   0  0  0  0  0  0  0  0  0  0  0  0
  156.7660  212.3180  154.2710 C   0  0  0  0  0  3  0  0  0  0  0  0
  159.3000  212.5420  155.9160 C   0  0  0  0  0  2  0  0  0  0  0  0
  1  4  2  0  0  0  0
  2  6  1  0  0  0  0
  3  2  1  0  0  0  0
  4  6  1  0  0  0  0
  5  1  1  6  0  0  0
  5  3  1  0  0  0  0
  6 22  1  1  0  0  0
  7 13  1  0  0  0  0
  7  9  1  1  0  0  0
  8  7  1  0  0  0  0
 10 15  2  0  0  0  0
 11 14  1  0  0  0  0
 12 16  2  0  0  0  0
 13 16  1  6  0  0  0
 13  5  1  0  0  0  0
 14 12  1  0  0  0  0
 14  8  2  0  0  0  0
 15 11  1  0  0  0  0
 17 18  1  0  0  0  0
 17 15  1  0  0  0  0
 18 19  1  6  0  0  0
 21 18  1  0  0  0  0
 21 20  1  0  0  0  0
 23 27  2  0  0  0  0
 24 28  2  0  0  0  0
 26 31  1  0  0  0  0
 27 30  1  0  0  0  0
 27 26  1  0  0  0  0
 28 22  1  0  0  0  0
 29 25  1  0  0  0  0
 29 24  1  0  0  0  0
 30 29  2  0  0  0  0
 31 28  1  0  0  0  0
M  END
>  <MODEL>
7

>  <REMARK>
 VINA RESULT:      -7.7      4.587     10.337
  Name = 
  6 active torsions:
  status: ('A' for Active; 'I' for Inactive)
    1  A    between atoms: C_14  and  C_27
    2  A    between atoms: C_18  and  C_20
    3  A    between atoms: C_18  and  C_28
    4  A    between atoms: C_20  and  C_31
    5  A    between atoms: C_23  and  C_24
    6  A    between atoms: C_27  and  C_30
                            x       y       z     vdW  Elec       q    Type
                         _______ _______ _______ _____ _____    ______ ____

>  <TORSDO>
F 6

$$$$
=
 OpenBabel11072412143D

 31 33  0  0  1  0  0  0  0  0999 V2000
  161.6120  206.1590  150.8670 C   0  0  0  0  0  3  0  0  0  0  0  0
  160.9690  203.6860  152.2040 C   0  0  0  0  0  2  0  0  0  0  0  0
  161.1690  204.9880  153.0080 C   0  0  0  0  0  2  0  0  0  0  0  0
  161.4970  205.0300  150.1610 C   0  0  0  0  0  3  0  0  0  0  0  0
  160.9120  206.2700  152.1950 C   0  0  1  0  0  3  0  0  0  0  0  0
  160.6670  203.9070  150.7120 C   0  0  1  0  0  3  0  0  0  0  0  0
  160.9920  208.8240  152.2090 C   0  0  1  0  0  3  0  0  0  0  0  0
  161.0890  209.9900  153.0900 N   0  0  0  0  0  0  0  0  0  0  0  0
  161.8760  209.0170  151.0720 N   0  0  0  0  0  1  0  0  0  0  0  0
  160.3370  210.2480  157.2430 O   0  0  0  0  0  0  0  0  0  0  0  0
  160.8810  211.1340  155.1380 N   0  0  0  0  0  2  0  0  0  0  0  0
  160.5190  208.6250  154.9670 C   0  0  0  0  0  3  0  0  0  0  0  0
  161.3470  207.5260  152.9670 C   0  0  1  0  0  3  0  0  0  0  0  0
  160.8320  209.9310  154.3610 C   0  0  0  0  0  0  0  0  0  0  0  0
  160.6310  211.2520  156.5440 C   0  0  0  0  0  0  0  0  0  0  0  0
  160.7240  207.5320  154.2970 N   0  0  0  0  0  0  0  0  0  0  0  0
  160.7520  212.5870  157.1960 C   0  0  0  0  0  2  0  0  0  0  0  0
  159.4970  213.4160  156.9640 C   0  0  1  0  0  3  0  0  0  0  0  0
  159.5600  214.0760  155.6700 N   0  0  0  0  0  1  0  0  0  0  0  0
  157.4930  212.6680  155.8900 F   0  0  0  0  0  0  0  0  0  0  0  0
  158.2610  212.5330  157.0350 C   0  0  0  0  0  2  0  0  0  0  0  0
  160.9280  202.6320  149.9180 C   0  0  0  0  0  2  0  0  0  0  0  0
  161.4960  204.6900  144.5360 O   0  0  0  0  0  0  0  0  0  0  0  0
  160.9090  201.6870  147.6910 C   0  0  0  0  0  3  0  0  0  0  0  0
  160.5460  199.9440  145.5990 Cl  0  0  0  0  0  0  0  0  0  0  0  0
  161.6390  204.5110  146.8860 C   0  0  0  0  0  2  0  0  0  0  0  0
  161.3860  203.9360  145.5360 C   0  0  0  0  0  0  0  0  0  0  0  0
  160.7940  202.7940  148.4300 C   0  0  0  0  0  0  0  0  0  0  0  0
  160.8470  201.5540  146.2190 C   0  0  0  0  0  0  0  0  0  0  0  0
  161.0480  202.5190  145.3120 C   0  0  0  0  0  3  0  0  0  0  0  0
  160.5150  204.1330  147.8210 C   0  0  0  0  0  2  0  0  0  0  0  0
  2  3  1  0  0  0  0
  4  6  1  0  0  0  0
  4  1  2  0  0  0  0
  5  1  1  6  0  0  0
  5 13  1  0  0  0  0
  5  3  1  0  0  0  0
  6 22  1  6  0  0  0
  6  2  1  0  0  0  0
  7  9  1  6  0  0  0
  7 13  1  0  0  0  0
  7  8  1  0  0  0  0
  8 14  2  0  0  0  0
 11 15  1  0  0  0  0
 13 16  1  1  0  0  0
 14 12  1  0  0  0  0
 14 11  1  0  0  0  0
 15 17  1  0  0  0  0
 15 10  2  0  0  0  0
 16 12  2  0  0  0  0
 18 19  1  6  0  0  0
 18 21  1  0  0  0  0
 18 17  1  0  0  0  0
 20 21  1  0  0  0  0
 23 27  2  0  0  0  0
 24 28  2  0  0  0  0
 25 29  1  0  0  0  0
 26 31  1  0  0  0  0
 27 26  1  0  0  0  0
 28 22  1  0  0  0  0
 29 24  1  0  0  0  0
 30 27  1  0  0  0  0
 30 29  2  0  0  0  0
 31 28  1  0  0  0  0
M  END
>  <MODEL>
8

>  <REMARK>
 VINA RESULT:      -7.6      1.675      2.202
  Name = 
  6 active torsions:
  status: ('A' for Active; 'I' for Inactive)
    1  A    between atoms: C_14  and  C_27
    2  A    between atoms: C_18  and  C_20
    3  A    between atoms: C_18  and  C_28
    4  A    between atoms: C_20  and  C_31
    5  A    between atoms: C_23  and  C_24
    6  A    between atoms: C_27  and  C_30
                            x       y       z     vdW  Elec       q    Type
                         _______ _______ _______ _____ _____    ______ ____

>  <TORSDO>
F 6

$$$$
=
 OpenBabel11072412143D

 31 33  0  0  1  0  0  0  0  0999 V2000
  161.6500  205.6060  150.7330 C   0  0  0  0  0  3  0  0  0  0  0  0
  160.9970  203.1530  152.1020 C   0  0  0  0  0  2  0  0  0  0  0  0
  161.1380  204.4780  152.8820 C   0  0  0  0  0  2  0  0  0  0  0  0
  161.5860  204.4580  150.0510 C   0  0  0  0  0  3  0  0  0  0  0  0
  160.8910  205.7350  152.0270 C   0  0  1  0  0  3  0  0  0  0  0  0
  160.7550  203.3330  150.5930 C   0  0  1  0  0  3  0  0  0  0  0  0
  160.6670  208.2780  152.1280 C   0  0  1  0  0  3  0  0  0  0  0  0
  160.7370  209.4270  153.0340 N   0  0  0  0  0  0  0  0  0  0  0  0
  161.3670  208.6040  150.8980 N   0  0  0  0  0  1  0  0  0  0  0  0
  160.5010  209.4960  157.2560 O   0  0  0  0  0  0  0  0  0  0  0  0
  160.6590  210.4900  155.1340 N   0  0  0  0  0  2  0  0  0  0  0  0
  160.5800  207.9600  154.9140 C   0  0  0  0  0  3  0  0  0  0  0  0
  161.2690  207.0170  152.7850 C   0  0  1  0  0  3  0  0  0  0  0  0
  160.6550  209.3080  154.3240 C   0  0  0  0  0  0  0  0  0  0  0  0
  160.5800  210.5450  156.5640 C   0  0  0  0  0  0  0  0  0  0  0  0
  160.8260  206.9160  154.1820 N   0  0  0  0  0  0  0  0  0  0  0  0
  160.6230  211.8690  157.2460 C   0  0  0  0  0  2  0  0  0  0  0  0
  159.3420  212.6500  156.9910 C   0  0  1  0  0  3  0  0  0  0  0  0
  159.4700  213.4520  155.7860 N   0  0  0  0  0  1  0  0  0  0  0  0
  157.3960  212.0200  155.7490 F   0  0  0  0  0  0  0  0  0  0  0  0
  158.1640  211.6980  156.8550 C   0  0  0  0  0  2  0  0  0  0  0  0
  161.0730  202.0450  149.8430 C   0  0  0  0  0  2  0  0  0  0  0  0
  159.8040  201.7410  144.2020 O   0  0  0  0  0  0  0  0  0  0  0  0
  161.5140  203.4060  147.8930 C   0  0  0  0  0  3  0  0  0  0  0  0
  162.5930  205.3040  146.2240 Cl  0  0  0  0  0  0  0  0  0  0  0  0
  159.7080  201.3940  146.5350 C   0  0  0  0  0  2  0  0  0  0  0  0
  160.1960  202.1250  145.3340 C   0  0  0  0  0  0  0  0  0  0  0  0
  161.1540  202.2040  148.3520 C   0  0  0  0  0  0  0  0  0  0  0  0
  161.6510  203.8520  146.4890 C   0  0  0  0  0  0  0  0  0  0  0  0
  161.0880  203.2960  145.4080 C   0  0  0  0  0  3  0  0  0  0  0  0
  160.8720  201.0550  147.4350 C   0  0  0  0  0  2  0  0  0  0  0  0
  2  3  1  0  0  0  0
  4  6  1  0  0  0  0
  4  1  2  0  0  0  0
  5  1  1  6  0  0  0
  5 13  1  0  0  0  0
  5  3  1  0  0  0  0
  6 22  1  6  0  0  0
  6  2  1  0  0  0  0
  7  9  1  6  0  0  0
  7 13  1  0  0  0  0
  7  8  1  0  0  0  0
  8 14  2  0  0  0  0
 11 15  1  0  0  0  0
 13 16  1  1  0  0  0
 14 12  1  0  0  0  0
 14 11  1  0  0  0  0
 15 17  1  0  0  0  0
 15 10  2  0  0  0  0
 16 12  2  0  0  0  0
 18 19  1  6  0  0  0
 18 17  1  0  0  0  0
 20 21  1  0  0  0  0
 21 18  1  0  0  0  0
 23 27  2  0  0  0  0
 24 28  2  0  0  0  0
 25 29  1  0  0  0  0
 26 31  1  0  0  0  0
 27 30  1  0  0  0  0
 27 26  1  0  0  0  0
 28 22  1  0  0  0  0
 29 24  1  0  0  0  0
 30 29  2  0  0  0  0
 31 28  1  0  0  0  0
M  END
>  <MODEL>
9

>  <REMARK>
 VINA RESULT:      -7.3      1.261      1.674
  Name = 
  6 active torsions:
  status: ('A' for Active; 'I' for Inactive)
    1  A    between atoms: C_14  and  C_27
    2  A    between atoms: C_18  and  C_20
    3  A    between atoms: C_18  and  C_28
    4  A    between atoms: C_20  and  C_31
    5  A    between atoms: C_23  and  C_24
    6  A    between atoms: C_27  and  C_30
                            x       y       z     vdW  Elec       q    Type
                         _______ _______ _______ _____ _____    ______ ____

>  <TORSDO>
F 6

$$$$
