=
 OpenBabel11072411363D

 25 28  0  0  1  0  0  0  0  0999 V2000
  161.2920  205.3120  147.6260 C   0  0  0  0  0  0  0  0  0  0  0  0
  161.0140  206.2290  148.6250 C   0  0  0  0  0  0  0  0  0  0  0  0
  160.6670  205.5830  149.7640 N   0  0  0  0  0  0  0  0  0  0  0  0
  160.5260  201.8000  149.7790 C   0  0  0  0  0  0  0  0  0  0  0  0
  161.1170  204.0640  148.1870 C   0  0  0  0  0  0  0  0  0  0  0  0
  160.8520  201.6240  148.4810 C   0  0  0  0  0  3  0  0  0  0  0  0
  159.9560  200.6490  150.5370 C   0  0  0  0  0  1  0  0  0  0  0  0
  160.7060  203.1300  150.4890 C   0  0  2  0  0  3  0  0  0  0  0  0
  160.7530  204.2590  149.5000 C   0  0  0  0  0  0  0  0  0  0  0  0
  161.9860  203.1080  151.3080 C   0  0  0  0  0  1  0  0  0  0  0  0
  161.4500  202.7190  147.6230 C   0  0  0  0  0  2  0  0  0  0  0  0
  161.7470  205.6070  146.2680 C   0  0  0  0  0  0  0  0  0  0  0  0
  162.7630  205.8520  145.4000 O   0  0  0  0  0  0  0  0  0  0  0  0
  161.4720  205.8310  144.9860 N   0  0  0  0  0  0  0  0  0  0  0  0
  161.5080  206.7290  151.8250 C   0  0  0  0  0  0  0  0  0  0  0  0
  160.4580  206.1820  151.0190 N   0  0  0  0  0  2  0  0  0  0  0  0
  162.7120  206.4500  151.5700 O   0  0  0  0  0  0  0  0  0  0  0  0
  161.1740  208.9720  152.8750 C   0  0  0  0  0  3  0  0  0  0  0  0
  160.5610  207.8150  155.2760 N   0  0  0  0  0  0  0  0  0  0  0  0
  160.5610  209.1680  155.1480 C   0  0  0  0  0  3  0  0  0  0  0  0
  161.1810  207.5790  152.9810 C   0  0  0  0  0  0  0  0  0  0  0  0
  160.8630  207.0160  154.2210 C   0  0  0  0  0  3  0  0  0  0  0  0
  160.8660  209.7380  153.9530 N   0  0  0  0  0  0  0  0  0  0  0  0
  162.3090  208.3460  148.6250 C   0  0  0  0  0  1  0  0  0  0  0  0
  161.1040  207.6160  148.4600 O   0  0  0  0  0  0  0  0  0  0  0  0
  1  5  1  0  0  0  0
  1  2  2  0  0  0  0
  2  3  1  0  0  0  0
  3 16  1  0  0  0  0
  4  8  1  0  0  0  0
  4  7  1  0  0  0  0
  5  9  2  0  0  0  0
  6  4  2  0  0  0  0
  8 10  1  6  0  0  0
  9  3  1  0  0  0  0
  9  8  1  0  0  0  0
 11  5  1  0  0  0  0
 11  6  1  0  0  0  0
 12  1  1  0  0  0  0
 13 12  1  0  0  0  0
 14 13  1  0  0  0  0
 14 12  2  0  0  0  0
 15 21  1  0  0  0  0
 16 15  1  0  0  0  0
 17 15  2  0  0  0  0
 18 21  2  0  0  0  0
 18 23  1  0  0  0  0
 20 19  1  0  0  0  0
 21 22  1  0  0  0  0
 22 19  2  0  0  0  0
 23 20  2  0  0  0  0
 25  2  1  0  0  0  0
 25 24  1  0  0  0  0
M  END
>  <MODEL>
1

>  <REMARK>
 VINA RESULT:      -8.2      0.000      0.000
  Name = 
  4 active torsions:
  status: ('A' for Active; 'I' for Inactive)
    1  A    between atoms: C_2  and  C_3
    2  A    between atoms: C_4  and  O_25
    3  A    between atoms: N_6  and  N_15
    4  A    between atoms: C_9  and  C_12
                            x       y       z     vdW  Elec       q    Type
                         _______ _______ _______ _____ _____    ______ ____

>  <TORSDO>
F 4

$$$$
=
 OpenBabel11072411363D

 25 28  0  0  1  0  0  0  0  0999 V2000
  160.8910  203.3530  149.2480 C   0  0  0  0  0  0  0  0  0  0  0  0
  160.7710  204.5350  149.9580 C   0  0  0  0  0  0  0  0  0  0  0  0
  161.0700  205.5880  149.1580 N   0  0  0  0  0  0  0  0  0  0  0  0
  162.1120  204.9550  145.5740 C   0  0  0  0  0  0  0  0  0  0  0  0
  161.2650  203.7060  147.9680 C   0  0  0  0  0  0  0  0  0  0  0  0
  162.0560  203.6080  145.6290 C   0  0  0  0  0  3  0  0  0  0  0  0
  162.8080  205.5980  144.4230 C   0  0  0  0  0  1  0  0  0  0  0  0
  161.5030  205.8380  146.6500 C   0  0  2  0  0  3  0  0  0  0  0  0
  161.3490  205.0790  147.9360 C   0  0  0  0  0  0  0  0  0  0  0  0
  160.1490  206.3500  146.1890 C   0  0  0  0  0  1  0  0  0  0  0  0
  161.3640  202.8520  146.7430 C   0  0  0  0  0  2  0  0  0  0  0  0
  160.6080  202.0050  149.7400 C   0  0  0  0  0  0  0  0  0  0  0  0
  159.7820  200.9280  149.8000 O   0  0  0  0  0  0  0  0  0  0  0  0
  160.9700  200.9400  150.4510 N   0  0  0  0  0  0  0  0  0  0  0  0
  161.9460  207.7330  150.1080 C   0  0  0  0  0  0  0  0  0  0  0  0
  160.9190  206.9450  149.4930 N   0  0  0  0  0  2  0  0  0  0  0  0
  162.9450  207.1700  150.6340 O   0  0  0  0  0  0  0  0  0  0  0  0
  162.0540  209.9920  149.0460 C   0  0  0  0  0  3  0  0  0  0  0  0
  161.3120  211.1880  151.3910 N   0  0  0  0  0  0  0  0  0  0  0  0
  161.5540  211.9400  150.2850 C   0  0  0  0  0  3  0  0  0  0  0  0
  161.8120  209.1970  150.1690 C   0  0  0  0  0  0  0  0  0  0  0  0
  161.4330  209.8370  151.3540 C   0  0  0  0  0  3  0  0  0  0  0  0
  161.9220  211.3420  149.1230 N   0  0  0  0  0  0  0  0  0  0  0  0
  161.2950  204.6260  152.3820 C   0  0  0  0  0  1  0  0  0  0  0  0
  160.3790  204.6060  151.2990 O   0  0  0  0  0  0  0  0  0  0  0  0
  1 12  1  0  0  0  0
  1  2  2  0  0  0  0
  2 25  1  0  0  0  0
  3 16  1  0  0  0  0
  3  2  1  0  0  0  0
  4  6  2  0  0  0  0
  4  8  1  0  0  0  0
  5  1  1  0  0  0  0
  6 11  1  0  0  0  0
  7  4  1  0  0  0  0
  8 10  1  6  0  0  0
  8  9  1  0  0  0  0
  9  5  2  0  0  0  0
  9  3  1  0  0  0  0
 11  5  1  0  0  0  0
 12 13  1  0  0  0  0
 12 14  2  0  0  0  0
 13 14  1  0  0  0  0
 15 21  1  0  0  0  0
 15 17  2  0  0  0  0
 16 15  1  0  0  0  0
 18 23  2  0  0  0  0
 18 21  1  0  0  0  0
 20 19  2  0  0  0  0
 21 22  2  0  0  0  0
 22 19  1  0  0  0  0
 23 20  1  0  0  0  0
 25 24  1  0  0  0  0
M  END
>  <MODEL>
2

>  <REMARK>
 VINA RESULT:      -6.4      2.535      4.522
  Name = 
  4 active torsions:
  status: ('A' for Active; 'I' for Inactive)
    1  A    between atoms: C_2  and  C_3
    2  A    between atoms: C_4  and  O_25
    3  A    between atoms: N_6  and  N_15
    4  A    between atoms: C_9  and  C_12
                            x       y       z     vdW  Elec       q    Type
                         _______ _______ _______ _____ _____    ______ ____

>  <TORSDO>
F 4

$$$$
=
 OpenBabel11072411363D

 25 28  0  0  1  0  0  0  0  0999 V2000
  161.1800  204.9800  150.4280 C   0  0  0  0  0  0  0  0  0  0  0  0
  161.0700  206.3440  150.6360 C   0  0  0  0  0  0  0  0  0  0  0  0
  161.3060  207.0100  149.4790 N   0  0  0  0  0  0  0  0  0  0  0  0
  162.1810  205.0520  146.3600 C   0  0  0  0  0  0  0  0  0  0  0  0
  161.4830  204.8160  149.0910 C   0  0  0  0  0  0  0  0  0  0  0  0
  162.1580  203.8280  146.9290 C   0  0  0  0  0  3  0  0  0  0  0  0
  162.8050  205.2050  145.0140 C   0  0  0  0  0  1  0  0  0  0  0  0
  161.6070  206.2790  147.0460 C   0  0  2  0  0  3  0  0  0  0  0  0
  161.5350  206.0710  148.5320 C   0  0  0  0  0  0  0  0  0  0  0  0
  160.2210  206.5740  146.4990 C   0  0  0  0  0  1  0  0  0  0  0  0
  161.5380  203.5570  148.2830 C   0  0  0  0  0  2  0  0  0  0  0  0
  160.9520  203.9230  151.4120 C   0  0  0  0  0  0  0  0  0  0  0  0
  160.4630  203.5290  152.6170 O   0  0  0  0  0  0  0  0  0  0  0  0
  161.0700  202.6510  151.7830 N   0  0  0  0  0  0  0  0  0  0  0  0
  161.9710  209.3890  149.8850 C   0  0  0  0  0  0  0  0  0  0  0  0
  161.1420  208.3920  149.2770 N   0  0  0  0  0  2  0  0  0  0  0  0
  162.7160  209.0860  150.8570 O   0  0  0  0  0  0  0  0  0  0  0  0
  161.0700  211.7170  150.0110 C   0  0  0  0  0  3  0  0  0  0  0  0
  162.6480  212.4960  147.9160 N   0  0  0  0  0  0  0  0  0  0  0  0
  161.8180  213.3890  148.5170 C   0  0  0  0  0  3  0  0  0  0  0  0
  161.9150  210.7810  149.4090 C   0  0  0  0  0  0  0  0  0  0  0  0
  162.7100  211.2080  148.3410 C   0  0  0  0  0  3  0  0  0  0  0  0
  161.0360  212.9970  149.5580 N   0  0  0  0  0  0  0  0  0  0  0  0
  161.5570  206.8130  153.0240 C   0  0  0  0  0  1  0  0  0  0  0  0
  160.7430  206.9240  151.8670 O   0  0  0  0  0  0  0  0  0  0  0  0
  1  2  2  0  0  0  0
  1 12  1  0  0  0  0
  2 25  1  0  0  0  0
  3  2  1  0  0  0  0
  4  6  2  0  0  0  0
  4  8  1  0  0  0  0
  5  1  1  0  0  0  0
  6 11  1  0  0  0  0
  7  4  1  0  0  0  0
  8 10  1  6  0  0  0
  8  9  1  0  0  0  0
  9  5  2  0  0  0  0
  9  3  1  0  0  0  0
 11  5  1  0  0  0  0
 12 14  2  0  0  0  0
 12 13  1  0  0  0  0
 14 13  1  0  0  0  0
 15 17  2  0  0  0  0
 16  3  1  0  0  0  0
 16 15  1  0  0  0  0
 19 22  2  0  0  0  0
 19 20  1  0  0  0  0
 20 23  2  0  0  0  0
 21 15  1  0  0  0  0
 21 18  2  0  0  0  0
 22 21  1  0  0  0  0
 23 18  1  0  0  0  0
 25 24  1  0  0  0  0
M  END
>  <MODEL>
3

>  <REMARK>
 VINA RESULT:      -6.2      2.849      5.120
  Name = 
  4 active torsions:
  status: ('A' for Active; 'I' for Inactive)
    1  A    between atoms: C_2  and  C_3
    2  A    between atoms: C_4  and  O_25
    3  A    between atoms: N_6  and  N_15
    4  A    between atoms: C_9  and  C_12
                            x       y       z     vdW  Elec       q    Type
                         _______ _______ _______ _____ _____    ______ ____

>  <TORSDO>
F 4

$$$$
=
 OpenBabel11072411363D

 25 28  0  0  1  0  0  0  0  0999 V2000
  161.1830  205.5450  150.2740 C   0  0  0  0  0  0  0  0  0  0  0  0
  161.0900  206.9250  150.2290 C   0  0  0  0  0  0  0  0  0  0  0  0
  161.3490  207.3670  148.9750 N   0  0  0  0  0  0  0  0  0  0  0  0
  162.2340  204.8660  146.2750 C   0  0  0  0  0  0  0  0  0  0  0  0
  161.4990  205.1370  148.9940 C   0  0  0  0  0  0  0  0  0  0  0  0
  162.1860  203.7660  147.0570 C   0  0  0  0  0  3  0  0  0  0  0  0
  162.8760  204.7650  144.9330 C   0  0  0  0  0  1  0  0  0  0  0  0
  161.6690  206.2040  146.7200 C   0  0  2  0  0  3  0  0  0  0  0  0
  161.5760  206.2700  148.2170 C   0  0  0  0  0  0  0  0  0  0  0  0
  160.2940  206.4110  146.1080 C   0  0  0  0  0  1  0  0  0  0  0  0
  161.5470  203.7530  148.4280 C   0  0  0  0  0  2  0  0  0  0  0  0
  160.9280  204.6880  151.4310 C   0  0  0  0  0  0  0  0  0  0  0  0
  160.8590  204.5260  152.7770 O   0  0  0  0  0  0  0  0  0  0  0  0
  160.5950  203.5010  151.9310 N   0  0  0  0  0  0  0  0  0  0  0  0
  162.0120  209.7820  148.9870 C   0  0  0  0  0  0  0  0  0  0  0  0
  161.2070  208.6910  148.5230 N   0  0  0  0  0  2  0  0  0  0  0  0
  162.7060  209.6560  150.0330 O   0  0  0  0  0  0  0  0  0  0  0  0
  163.0890  211.9320  148.3070 C   0  0  0  0  0  3  0  0  0  0  0  0
  160.8750  212.6470  146.8680 N   0  0  0  0  0  0  0  0  0  0  0  0
  161.9550  213.4720  146.9210 C   0  0  0  0  0  3  0  0  0  0  0  0
  161.9930  211.0670  148.2700 C   0  0  0  0  0  0  0  0  0  0  0  0
  160.8750  211.4590  147.5260 C   0  0  0  0  0  3  0  0  0  0  0  0
  163.0520  213.1120  147.6360 N   0  0  0  0  0  0  0  0  0  0  0  0
  161.6090  207.9060  152.4500 C   0  0  0  0  0  1  0  0  0  0  0  0
  160.7570  207.7230  151.3310 O   0  0  0  0  0  0  0  0  0  0  0  0
  1 12  1  0  0  0  0
  2  1  2  0  0  0  0
  2 25  1  0  0  0  0
  3  2  1  0  0  0  0
  4  8  1  0  0  0  0
  4  6  2  0  0  0  0
  5  1  1  0  0  0  0
  6 11  1  0  0  0  0
  7  4  1  0  0  0  0
  8 10  1  6  0  0  0
  8  9  1  0  0  0  0
  9  3  1  0  0  0  0
  9  5  2  0  0  0  0
 11  5  1  0  0  0  0
 12 14  2  0  0  0  0
 12 13  1  0  0  0  0
 14 13  1  0  0  0  0
 15 17  2  0  0  0  0
 16  3  1  0  0  0  0
 16 15  1  0  0  0  0
 19 20  2  0  0  0  0
 19 22  1  0  0  0  0
 20 23  1  0  0  0  0
 21 18  1  0  0  0  0
 21 15  1  0  0  0  0
 22 21  2  0  0  0  0
 23 18  2  0  0  0  0
 25 24  1  0  0  0  0
M  END
>  <MODEL>
4

>  <REMARK>
 VINA RESULT:      -6.1      3.102      5.515
  Name = 
  4 active torsions:
  status: ('A' for Active; 'I' for Inactive)
    1  A    between atoms: C_2  and  C_3
    2  A    between atoms: C_4  and  O_25
    3  A    between atoms: N_6  and  N_15
    4  A    between atoms: C_9  and  C_12
                            x       y       z     vdW  Elec       q    Type
                         _______ _______ _______ _____ _____    ______ ____

>  <TORSDO>
F 4

$$$$
=
 OpenBabel11072411363D

 25 28  0  0  1  0  0  0  0  0999 V2000
  161.0510  204.3500  147.6110 C   0  0  0  0  0  0  0  0  0  0  0  0
  160.9670  205.7280  147.5240 C   0  0  0  0  0  0  0  0  0  0  0  0
  160.8790  206.2660  148.7650 N   0  0  0  0  0  0  0  0  0  0  0  0
  160.8300  203.9760  151.7780 C   0  0  0  0  0  0  0  0  0  0  0  0
  161.0250  204.0440  148.9570 C   0  0  0  0  0  0  0  0  0  0  0  0
  160.8820  202.8140  151.0950 C   0  0  0  0  0  3  0  0  0  0  0  0
  160.4570  203.9430  153.2220 C   0  0  0  0  0  1  0  0  0  0  0  0
  161.1240  205.3160  151.1270 C   0  0  2  0  0  3  0  0  0  0  0  0
  160.9390  205.2360  149.6390 C   0  0  0  0  0  0  0  0  0  0  0  0
  162.5470  205.7430  151.4470 C   0  0  0  0  0  1  0  0  0  0  0  0
  161.2630  202.7310  149.6320 C   0  0  0  0  0  2  0  0  0  0  0  0
  161.2060  203.4110  146.5010 C   0  0  0  0  0  0  0  0  0  0  0  0
  161.6840  203.1310  145.2610 O   0  0  0  0  0  0  0  0  0  0  0  0
  160.9850  202.2110  145.9690 N   0  0  0  0  0  0  0  0  0  0  0  0
  161.9920  208.5080  148.6810 C   0  0  0  0  0  0  0  0  0  0  0  0
  160.9230  207.6380  149.0720 N   0  0  0  0  0  2  0  0  0  0  0  0
  163.0860  208.0250  148.2780 O   0  0  0  0  0  0  0  0  0  0  0  0
  161.5810  210.7560  147.6690 C   0  0  0  0  0  3  0  0  0  0  0  0
  161.7700  211.9520  150.1220 N   0  0  0  0  0  0  0  0  0  0  0  0
  161.5270  212.6990  149.0120 C   0  0  0  0  0  3  0  0  0  0  0  0
  161.8320  209.9660  148.7950 C   0  0  0  0  0  0  0  0  0  0  0  0
  161.9230  210.6060  150.0350 C   0  0  0  0  0  3  0  0  0  0  0  0
  161.4340  212.1000  147.7960 N   0  0  0  0  0  0  0  0  0  0  0  0
  160.0810  206.2030  145.2540 C   0  0  0  0  0  1  0  0  0  0  0  0
  160.9890  206.4390  146.3190 O   0  0  0  0  0  0  0  0  0  0  0  0
  1  5  1  0  0  0  0
  2  1  2  0  0  0  0
  2  3  1  0  0  0  0
  3 16  1  0  0  0  0
  3  9  1  0  0  0  0
  4  7  1  0  0  0  0
  5 11  1  0  0  0  0
  5  9  2  0  0  0  0
  6  4  2  0  0  0  0
  8 10  1  6  0  0  0
  8  4  1  0  0  0  0
  9  8  1  0  0  0  0
 11  6  1  0  0  0  0
 12  1  1  0  0  0  0
 13 14  1  0  0  0  0
 13 12  1  0  0  0  0
 14 12  2  0  0  0  0
 15 21  1  0  0  0  0
 15 16  1  0  0  0  0
 17 15  2  0  0  0  0
 18 23  2  0  0  0  0
 18 21  1  0  0  0  0
 20 19  2  0  0  0  0
 21 22  2  0  0  0  0
 22 19  1  0  0  0  0
 23 20  1  0  0  0  0
 24 25  1  0  0  0  0
 25  2  1  0  0  0  0
M  END
>  <MODEL>
5

>  <REMARK>
 VINA RESULT:      -5.9      2.696      3.853
  Name = 
  4 active torsions:
  status: ('A' for Active; 'I' for Inactive)
    1  A    between atoms: C_2  and  C_3
    2  A    between atoms: C_4  and  O_25
    3  A    between atoms: N_6  and  N_15
    4  A    between atoms: C_9  and  C_12
                            x       y       z     vdW  Elec       q    Type
                         _______ _______ _______ _____ _____    ______ ____

>  <TORSDO>
F 4

$$$$
=
 OpenBabel11072411363D

 25 28  0  0  1  0  0  0  0  0999 V2000
  160.8560  208.3300  154.4920 C   0  0  0  0  0  0  0  0  0  0  0  0
  160.8180  207.4540  153.4210 C   0  0  0  0  0  0  0  0  0  0  0  0
  160.5870  208.1350  152.2730 N   0  0  0  0  0  0  0  0  0  0  0  0
  160.1000  211.8870  152.4100 C   0  0  0  0  0  0  0  0  0  0  0  0
  160.6520  209.5900  153.9680 C   0  0  0  0  0  0  0  0  0  0  0  0
  160.2090  212.0110  153.7500 C   0  0  0  0  0  3  0  0  0  0  0  0
  159.5460  213.0280  151.6270 C   0  0  0  0  0  1  0  0  0  0  0  0
  160.5070  210.6210  151.6760 C   0  0  2  0  0  3  0  0  0  0  0  0
  160.5100  209.4440  152.6080 C   0  0  0  0  0  0  0  0  0  0  0  0
  161.8880  210.8010  151.0680 C   0  0  0  0  0  1  0  0  0  0  0  0
  160.7700  210.9220  154.6390 C   0  0  0  0  0  2  0  0  0  0  0  0
  161.1270  207.9930  155.8890 C   0  0  0  0  0  0  0  0  0  0  0  0
  161.9170  208.1020  156.9890 O   0  0  0  0  0  0  0  0  0  0  0  0
  160.7830  207.3600  157.0080 N   0  0  0  0  0  0  0  0  0  0  0  0
  161.8380  207.2660  150.2850 C   0  0  0  0  0  0  0  0  0  0  0  0
  160.6260  207.5970  150.9740 N   0  0  0  0  0  2  0  0  0  0  0  0
  162.9450  207.7020  150.7060 O   0  0  0  0  0  0  0  0  0  0  0  0
  161.2260  205.1770  149.0580 C   0  0  0  0  0  3  0  0  0  0  0  0
  162.2430  206.1850  146.7280 N   0  0  0  0  0  0  0  0  0  0  0  0
  161.6910  204.9430  146.7540 C   0  0  0  0  0  3  0  0  0  0  0  0
  161.7880  206.4560  149.0580 C   0  0  0  0  0  0  0  0  0  0  0  0
  162.2990  206.9450  147.8510 C   0  0  0  0  0  3  0  0  0  0  0  0
  161.1870  204.4470  147.9140 N   0  0  0  0  0  0  0  0  0  0  0  0
  162.2010  205.4130  153.1310 C   0  0  0  0  0  1  0  0  0  0  0  0
  161.0110  206.0720  153.5340 O   0  0  0  0  0  0  0  0  0  0  0  0
  1 12  1  0  0  0  0
  2 25  1  0  0  0  0
  2  1  2  0  0  0  0
  3  9  1  0  0  0  0
  3  2  1  0  0  0  0
  4  6  2  0  0  0  0
  5  1  1  0  0  0  0
  5 11  1  0  0  0  0
  6 11  1  0  0  0  0
  7  4  1  0  0  0  0
  8 10  1  1  0  0  0
  8  4  1  0  0  0  0
  8  9  1  0  0  0  0
  9  5  2  0  0  0  0
 12 13  1  0  0  0  0
 12 14  2  0  0  0  0
 13 14  1  0  0  0  0
 15 17  2  0  0  0  0
 15 16  1  0  0  0  0
 16  3  1  0  0  0  0
 18 21  1  0  0  0  0
 19 20  2  0  0  0  0
 19 22  1  0  0  0  0
 20 23  1  0  0  0  0
 21 15  1  0  0  0  0
 22 21  2  0  0  0  0
 23 18  2  0  0  0  0
 24 25  1  0  0  0  0
M  END
>  <MODEL>
6

>  <REMARK>
 VINA RESULT:      -5.8      2.425      7.999
  Name = 
  4 active torsions:
  status: ('A' for Active; 'I' for Inactive)
    1  A    between atoms: C_2  and  C_3
    2  A    between atoms: C_4  and  O_25
    3  A    between atoms: N_6  and  N_15
    4  A    between atoms: C_9  and  C_12
                            x       y       z     vdW  Elec       q    Type
                         _______ _______ _______ _____ _____    ______ ____

>  <TORSDO>
F 4

$$$$
=
 OpenBabel11072411363D

 25 28  0  0  1  0  0  0  0  0999 V2000
  161.1640  209.1590  154.8560 C   0  0  0  0  0  0  0  0  0  0  0  0
  161.1800  208.2220  153.8370 C   0  0  0  0  0  0  0  0  0  0  0  0
  160.5710  208.7230  152.7360 N   0  0  0  0  0  0  0  0  0  0  0  0
  159.0980  212.2080  152.8580 C   0  0  0  0  0  0  0  0  0  0  0  0
  160.5300  210.2730  154.3450 C   0  0  0  0  0  0  0  0  0  0  0  0
  159.4040  212.4640  154.1470 C   0  0  0  0  0  3  0  0  0  0  0  0
  158.1210  213.0940  152.1630 C   0  0  0  0  0  1  0  0  0  0  0  0
  159.7030  211.0420  152.0950 C   0  0  2  0  0  3  0  0  0  0  0  0
  160.1960  209.9860  153.0420 C   0  0  0  0  0  0  0  0  0  0  0  0
  160.8500  211.5340  151.2290 C   0  0  0  0  0  1  0  0  0  0  0  0
  160.3910  211.6380  154.9430 C   0  0  0  0  0  2  0  0  0  0  0  0
  161.7600  209.0190  156.1830 C   0  0  0  0  0  0  0  0  0  0  0  0
  162.0550  208.2470  157.2610 O   0  0  0  0  0  0  0  0  0  0  0  0
  162.4090  209.5540  157.2150 N   0  0  0  0  0  0  0  0  0  0  0  0
  161.6650  207.9820  150.6090 C   0  0  0  0  0  0  0  0  0  0  0  0
  160.5270  208.1120  151.4700 N   0  0  0  0  0  2  0  0  0  0  0  0
  162.7070  208.6590  150.8290 O   0  0  0  0  0  0  0  0  0  0  0  0
  162.2650  207.4140  148.2500 C   0  0  0  0  0  3  0  0  0  0  0  0
  160.8310  205.0890  148.3890 N   0  0  0  0  0  0  0  0  0  0  0  0
  161.4850  205.4230  147.2460 C   0  0  0  0  0  3  0  0  0  0  0  0
  161.6020  207.0930  149.4370 C   0  0  0  0  0  0  0  0  0  0  0  0
  160.8770  205.8980  149.4790 C   0  0  0  0  0  3  0  0  0  0  0  0
  162.1960  206.5790  147.1820 N   0  0  0  0  0  0  0  0  0  0  0  0
  161.1390  205.7620  153.5040 C   0  0  0  0  0  1  0  0  0  0  0  0
  161.7650  206.9550  153.9500 O   0  0  0  0  0  0  0  0  0  0  0  0
  1 12  1  0  0  0  0
  2 25  1  0  0  0  0
  2  1  2  0  0  0  0
  3  9  1  0  0  0  0
  3  2  1  0  0  0  0
  4  6  2  0  0  0  0
  5  1  1  0  0  0  0
  5 11  1  0  0  0  0
  6 11  1  0  0  0  0
  7  4  1  0  0  0  0
  8 10  1  1  0  0  0
  8  4  1  0  0  0  0
  8  9  1  0  0  0  0
  9  5  2  0  0  0  0
 12 14  2  0  0  0  0
 12 13  1  0  0  0  0
 14 13  1  0  0  0  0
 15 17  2  0  0  0  0
 15 16  1  0  0  0  0
 16  3  1  0  0  0  0
 18 21  1  0  0  0  0
 19 22  1  0  0  0  0
 20 19  2  0  0  0  0
 21 22  2  0  0  0  0
 21 15  1  0  0  0  0
 23 20  1  0  0  0  0
 23 18  2  0  0  0  0
 24 25  1  0  0  0  0
M  END
>  <MODEL>
7

>  <REMARK>
 VINA RESULT:      -5.7      2.697      8.228
  Name = 
  4 active torsions:
  status: ('A' for Active; 'I' for Inactive)
    1  A    between atoms: C_2  and  C_3
    2  A    between atoms: C_4  and  O_25
    3  A    between atoms: N_6  and  N_15
    4  A    between atoms: C_9  and  C_12
                            x       y       z     vdW  Elec       q    Type
                         _______ _______ _______ _____ _____    ______ ____

>  <TORSDO>
F 4

$$$$
=
 OpenBabel11072411363D

 25 28  0  0  1  0  0  0  0  0999 V2000
  161.1210  206.8840  152.0270 C   0  0  0  0  0  0  0  0  0  0  0  0
  160.7070  205.8910  151.1570 C   0  0  0  0  0  0  0  0  0  0  0  0
  160.7500  206.3440  149.8810 N   0  0  0  0  0  0  0  0  0  0  0  0
  161.8360  209.9090  149.2160 C   0  0  0  0  0  0  0  0  0  0  0  0
  161.4380  207.9760  151.2440 C   0  0  0  0  0  0  0  0  0  0  0  0
  162.0150  210.2630  150.5070 C   0  0  0  0  0  3  0  0  0  0  0  0
  161.7790  210.9800  148.1810 C   0  0  0  0  0  1  0  0  0  0  0  0
  161.6770  208.4620  148.7850 C   0  0  2  0  0  3  0  0  0  0  0  0
  161.2200  207.6120  149.9350 C   0  0  0  0  0  0  0  0  0  0  0  0
  162.9980  207.9360  148.2490 C   0  0  0  0  0  1  0  0  0  0  0  0
  162.1020  209.2580  151.6360 C   0  0  0  0  0  2  0  0  0  0  0  0
  161.2620  206.7750  153.4780 C   0  0  0  0  0  0  0  0  0  0  0  0
  161.4880  206.0130  154.5790 O   0  0  0  0  0  0  0  0  0  0  0  0
  161.2620  207.3450  154.6800 N   0  0  0  0  0  0  0  0  0  0  0  0
  161.5420  204.7400  148.1280 C   0  0  0  0  0  0  0  0  0  0  0  0
  160.5390  205.5710  148.7250 N   0  0  0  0  0  2  0  0  0  0  0  0
  162.7540  204.8770  148.4540 O   0  0  0  0  0  0  0  0  0  0  0  0
  160.9710  202.4130  147.4200 C   0  0  0  0  0  3  0  0  0  0  0  0
  160.6410  203.2260  144.8290 N   0  0  0  0  0  0  0  0  0  0  0  0
  160.4560  201.9220  145.1670 C   0  0  0  0  0  3  0  0  0  0  0  0
  161.1660  203.7580  147.0980 C   0  0  0  0  0  0  0  0  0  0  0  0
  160.9900  204.1440  145.7660 C   0  0  0  0  0  3  0  0  0  0  0  0
  160.6210  201.5230  146.4550 N   0  0  0  0  0  0  0  0  0  0  0  0
  161.2220  203.5120  151.6480 C   0  0  0  0  0  1  0  0  0  0  0  0
  160.3230  204.6070  151.5610 O   0  0  0  0  0  0  0  0  0  0  0  0
  1 12  1  0  0  0  0
  2 25  1  0  0  0  0
  2  1  2  0  0  0  0
  3  9  1  0  0  0  0
  3  2  1  0  0  0  0
  4  6  2  0  0  0  0
  5 11  1  0  0  0  0
  5  1  1  0  0  0  0
  6 11  1  0  0  0  0
  7  4  1  0  0  0  0
  8 10  1  1  0  0  0
  8  4  1  0  0  0  0
  8  9  1  0  0  0  0
  9  5  2  0  0  0  0
 12 13  1  0  0  0  0
 12 14  2  0  0  0  0
 13 14  1  0  0  0  0
 15 17  2  0  0  0  0
 15 16  1  0  0  0  0
 16  3  1  0  0  0  0
 19 20  2  0  0  0  0
 19 22  1  0  0  0  0
 20 23  1  0  0  0  0
 21 18  1  0  0  0  0
 21 15  1  0  0  0  0
 22 21  2  0  0  0  0
 23 18  2  0  0  0  0
 25 24  1  0  0  0  0
M  END
>  <MODEL>
8

>  <REMARK>
 VINA RESULT:      -5.5      2.050      7.447
  Name = 
  4 active torsions:
  status: ('A' for Active; 'I' for Inactive)
    1  A    between atoms: C_2  and  C_3
    2  A    between atoms: C_4  and  O_25
    3  A    between atoms: N_6  and  N_15
    4  A    between atoms: C_9  and  C_12
                            x       y       z     vdW  Elec       q    Type
                         _______ _______ _______ _____ _____    ______ ____

>  <TORSDO>
F 4

$$$$
=
 OpenBabel11072411363D

 25 28  0  0  1  0  0  0  0  0999 V2000
  160.9870  206.7270  152.4440 C   0  0  0  0  0  0  0  0  0  0  0  0
  160.8860  207.6780  151.4440 C   0  0  0  0  0  0  0  0  0  0  0  0
  160.6640  208.9000  151.9850 N   0  0  0  0  0  0  0  0  0  0  0  0
  160.3550  209.2320  155.7440 C   0  0  0  0  0  0  0  0  0  0  0  0
  160.8320  207.4040  153.6370 C   0  0  0  0  0  0  0  0  0  0  0  0
  160.4980  207.9210  156.0300 C   0  0  0  0  0  3  0  0  0  0  0  0
  159.8390  210.1460  156.8030 C   0  0  0  0  0  1  0  0  0  0  0  0
  160.6880  209.8060  154.3780 C   0  0  2  0  0  3  0  0  0  0  0  0
  160.6550  208.7320  153.3280 C   0  0  0  0  0  0  0  0  0  0  0  0
  162.0630  210.4510  154.4120 C   0  0  0  0  0  1  0  0  0  0  0  0
  161.0250  206.9090  155.0360 C   0  0  0  0  0  2  0  0  0  0  0  0
  161.2710  205.3030  152.2740 C   0  0  0  0  0  0  0  0  0  0  0  0
  161.0390  204.0110  152.6240 O   0  0  0  0  0  0  0  0  0  0  0  0
  161.9420  204.3290  151.6640 N   0  0  0  0  0  0  0  0  0  0  0  0
  161.8130  210.7060  150.6860 C   0  0  0  0  0  0  0  0  0  0  0  0
  160.6510  210.1200  151.2870 N   0  0  0  0  0  2  0  0  0  0  0  0
  162.9630  210.2900  150.9950 O   0  0  0  0  0  0  0  0  0  0  0  0
  162.4190  211.8860  148.5680 C   0  0  0  0  0  3  0  0  0  0  0  0
  160.6430  213.8930  149.1160 N   0  0  0  0  0  0  0  0  0  0  0  0
  161.3860  213.9280  147.9790 C   0  0  0  0  0  3  0  0  0  0  0  0
  161.6660  211.8280  149.7440 C   0  0  0  0  0  0  0  0  0  0  0  0
  160.7660  212.8680  149.9970 C   0  0  0  0  0  3  0  0  0  0  0  0
  162.2670  212.9280  147.7110 N   0  0  0  0  0  0  0  0  0  0  0  0
  162.2630  207.3700  149.4010 C   0  0  0  0  0  1  0  0  0  0  0  0
  161.0170  207.3940  150.0790 O   0  0  0  0  0  0  0  0  0  0  0  0
  1  5  1  0  0  0  0
  2  3  1  0  0  0  0
  2  1  2  0  0  0  0
  3  9  1  0  0  0  0
  4  6  2  0  0  0  0
  4  7  1  0  0  0  0
  5 11  1  0  0  0  0
  8 10  1  1  0  0  0
  8  4  1  0  0  0  0
  9  5  2  0  0  0  0
  9  8  1  0  0  0  0
 11  6  1  0  0  0  0
 12  1  1  0  0  0  0
 12 13  1  0  0  0  0
 14 12  2  0  0  0  0
 14 13  1  0  0  0  0
 15 17  2  0  0  0  0
 15 16  1  0  0  0  0
 16  3  1  0  0  0  0
 18 21  1  0  0  0  0
 19 22  1  0  0  0  0
 20 19  2  0  0  0  0
 21 22  2  0  0  0  0
 21 15  1  0  0  0  0
 23 20  1  0  0  0  0
 23 18  2  0  0  0  0
 24 25  1  0  0  0  0
 25  2  1  0  0  0  0
M  END
>  <MODEL>
9

>  <REMARK>
 VINA RESULT:      -5.4      3.335      6.766
  Name = 
  4 active torsions:
  status: ('A' for Active; 'I' for Inactive)
    1  A    between atoms: C_2  and  C_3
    2  A    between atoms: C_4  and  O_25
    3  A    between atoms: N_6  and  N_15
    4  A    between atoms: C_9  and  C_12
                            x       y       z     vdW  Elec       q    Type
                         _______ _______ _______ _____ _____    ______ ____

>  <TORSDO>
F 4

$$$$
