=
 OpenBabel11072413103D

 34 37  0  0  1  0  0  0  0  0999 V2000
  161.9730  210.4110  149.7020 N   0  0  0  0  0  0  0  0  0  0  0  0
  162.1680  211.5660  149.0240 O   0  0  0  0  0  1  0  0  0  0  0  0
  162.2820  207.9610  150.9840 C   0  0  0  0  0  0  0  0  0  0  0  0
  162.3770  209.0790  151.7120 C   0  0  0  0  0  3  0  0  0  0  0  0
  161.9290  210.4230  151.1740 C   0  0  2  0  0  3  0  0  0  0  0  0
  161.7430  209.2030  148.9660 C   0  0  0  0  0  3  0  0  0  0  0  0
  161.8730  208.0230  149.5710 C   0  0  0  0  0  3  0  0  0  0  0  0
  160.4030  212.2080  151.7120 C   0  0  0  0  0  2  0  0  0  0  0  0
  160.5700  210.7410  151.6530 N   0  0  2  0  0  0  0  0  0  0  0  0
  159.3340  212.6320  152.7170 C   0  0  0  0  0  2  0  0  0  0  0  0
  160.3450  210.0820  152.9620 C   0  0  0  0  0  2  0  0  0  0  0  0
  160.6460  210.9910  154.1570 C   0  0  0  0  0  2  0  0  0  0  0  0
  159.7590  212.2400  154.1340 C   0  0  2  0  0  3  0  0  0  0  0  0
  158.2990  210.4170  155.7880 O   0  0  0  0  0  0  0  0  0  0  0  0
  158.3000  212.9720  156.3240 O   0  0  0  0  0  1  0  0  0  0  0  0
  158.2830  211.9920  155.1710 P   0  0  1  0  0  0  0  0  0  0  0  0
  156.8730  212.2040  154.2500 O   0  0  0  0  0  0  0  0  0  0  0  0
  156.0350  213.0130  155.0220 C   0  0  0  0  0  2  0  0  0  0  0  0
  155.8670  214.3660  154.3580 C   0  0  0  0  0  2  0  0  0  0  0  0
  154.8880  214.2010  152.8370 S   0  0  0  0  0  1  0  0  0  0  0  0
  162.6780  206.6560  151.5840 C   0  0  0  0  0  2  0  0  0  0  0  0
  161.4540  205.8750  152.0400 C   0  0  2  0  0  3  0  0  0  0  0  0
  161.2500  206.0710  153.5290 C   0  0  0  0  0  1  0  0  0  0  0  0
  161.6410  204.3940  151.7530 C   0  0  0  0  0  2  0  0  0  0  0  0
  161.3180  203.2590  147.0130 C   0  0  0  0  0  2  0  0  0  0  0  0
  160.8510  200.6900  148.7550 C   0  0  0  0  0  2  0  0  0  0  0  0
  160.8270  201.7130  146.1730 S   0  0  0  0  0  0  0  0  0  0  0  0
  161.5380  201.7210  151.1980 O   0  0  0  0  0  1  0  0  0  0  0  0
  160.9620  203.2260  148.4680 C   0  0  2  0  0  3  0  0  0  0  0  0
  160.3010  202.0740  149.1510 C   0  0  2  0  0  3  0  0  0  0  0  0
  161.6270  200.6680  147.4340 C   0  0  0  0  0  2  0  0  0  0  0  0
  160.4460  202.4030  150.6430 C   0  0  2  0  0  3  0  0  0  0  0  0
  161.1890  204.2400  149.2880 C   0  0  0  0  0  2  0  0  0  0  0  0
  160.6850  203.9220  150.6570 C   0  0  2  0  0  3  0  0  0  0  0  0
  1  5  1  0  0  0  0
  2  1  1  0  0  0  0
  3 21  1  0  0  0  0
  3  4  2  0  0  0  0
  5  9  1  0  0  0  0
  5  4  1  1  0  0  0
  6  7  2  0  0  0  0
  6  1  1  0  0  0  0
  7  3  1  0  0  0  0
  8 10  1  0  0  0  0
  9  8  1  1  0  0  0
  9 11  1  0  0  0  0
 10 13  1  0  0  0  0
 11 12  1  0  0  0  0
 13 12  1  0  0  0  0
 13 16  1  1  0  0  0
 16 14  2  1  0  0  0
 16 15  1  0  0  0  0
 17 18  1  0  0  0  0
 17 16  1  0  0  0  0
 19 18  1  0  0  0  0
 20 19  1  0  0  0  0
 21 22  1  0  0  0  0
 22 23  1  1  0  0  0
 24 22  1  0  0  0  0
 27 25  1  0  0  0  0
 27 31  1  0  0  0  0
 29 25  1  6  0  0  0
 29 30  1  0  0  0  0
 29 33  1  0  0  0  0
 30 26  1  1  0  0  0
 30 32  1  0  0  0  0
 31 26  1  0  0  0  0
 32 34  1  0  0  0  0
 32 28  1  6  0  0  0
 33 34  1  0  0  0  0
 34 24  1  1  0  0  0
M  END
>  <MODEL>
1

>  <REMARK>
 VINA RESULT:      -7.9      0.000      0.000
  Name = 
  9 active torsions:
  status: ('A' for Active; 'I' for Inactive)
    1  A    between atoms: N_3  and  C_26
    2  A    between atoms: C_4  and  C_15
    3  A    between atoms: C_4  and  C_21
    4  A    between atoms: C_11  and  C_15
    5  A    between atoms: C_14  and  C_25
    6  A    between atoms: P_18  and  O_27
    7  A    between atoms: P_18  and  C_30
    8  A    between atoms: C_21  and  C_34
    9  A    between atoms: C_25  and  O_27
                            x       y       z     vdW  Elec       q    Type
                         _______ _______ _______ _____ _____    ______ ____

>  <TORSDO>
F 9

$$$$
=
 OpenBabel11072413103D

 34 37  0  0  1  0  0  0  0  0999 V2000
  161.8880  209.7990  150.8900 N   0  0  0  0  0  0  0  0  0  0  0  0
  161.9520  210.7560  149.9350 O   0  0  0  0  0  1  0  0  0  0  0  0
  161.2390  208.2590  153.1140 C   0  0  0  0  0  0  0  0  0  0  0  0
  160.6230  207.9980  151.9560 C   0  0  0  0  0  3  0  0  0  0  0  0
  161.1210  208.5660  150.6420 C   0  0  2  0  0  3  0  0  0  0  0  0
  162.6310  209.9750  152.1030 C   0  0  0  0  0  3  0  0  0  0  0  0
  162.3410  209.2340  153.1710 C   0  0  0  0  0  3  0  0  0  0  0  0
  162.2870  208.0860  148.5890 C   0  0  0  0  0  2  0  0  0  0  0  0
  161.9460  207.5700  149.9310 N   0  0  2  0  0  0  0  0  0  0  0  0
  162.5870  206.9660  147.5950 C   0  0  0  0  0  2  0  0  0  0  0  0
  161.2220  206.2780  149.8860 C   0  0  0  0  0  2  0  0  0  0  0  0
  160.4200  206.0780  148.5960 C   0  0  0  0  0  2  0  0  0  0  0  0
  161.3360  206.1150  147.3690 C   0  0  2  0  0  3  0  0  0  0  0  0
  160.9450  203.9710  145.5130 O   0  0  0  0  0  0  0  0  0  0  0  0
  163.2990  204.3960  146.5590 O   0  0  0  0  0  1  0  0  0  0  0  0
  161.8220  204.4270  146.8860 P   0  0  1  0  0  0  0  0  0  0  0  0
  161.4820  203.3340  148.1390 O   0  0  0  0  0  0  0  0  0  0  0  0
  161.1380  202.1330  147.5120 C   0  0  0  0  0  2  0  0  0  0  0  0
  161.0970  201.0100  148.5290 C   0  0  0  0  0  2  0  0  0  0  0  0
  160.7750  201.6780  150.1870 S   0  0  0  0  0  1  0  0  0  0  0  0
  160.7460  207.6240  154.3690 C   0  0  0  0  0  2  0  0  0  0  0  0
  160.7120  208.6330  155.5090 C   0  0  2  0  0  3  0  0  0  0  0  0
  160.8550  207.9090  156.8330 C   0  0  0  0  0  1  0  0  0  0  0  0
  159.3960  209.3940  155.4960 C   0  0  0  0  0  2  0  0  0  0  0  0
  158.2890  212.8380  152.2140 C   0  0  0  0  0  2  0  0  0  0  0  0
  157.0130  213.5640  154.9880 C   0  0  0  0  0  2  0  0  0  0  0  0
  157.4560  214.4530  152.3950 S   0  0  0  0  0  0  0  0  0  0  0  0
  157.5300  211.2180  156.3040 O   0  0  0  0  0  1  0  0  0  0  0  0
  158.6830  212.2750  153.5460 C   0  0  2  0  0  3  0  0  0  0  0  0
  158.4160  212.9400  154.8570 C   0  0  2  0  0  3  0  0  0  0  0  0
  156.3020  213.8180  153.6550 C   0  0  0  0  0  2  0  0  0  0  0  0
  158.7140  211.8450  155.8880 C   0  0  2  0  0  3  0  0  0  0  0  0
  159.3270  211.1280  153.6810 C   0  0  0  0  0  2  0  0  0  0  0  0
  159.6130  210.8600  155.1220 C   0  0  2  0  0  3  0  0  0  0  0  0
  1  6  1  0  0  0  0
  2  1  1  0  0  0  0
  3  7  1  0  0  0  0
  3 21  1  0  0  0  0
  4  3  2  0  0  0  0
  5  1  1  0  0  0  0
  5  4  1  1  0  0  0
  6  7  2  0  0  0  0
  9  8  1  6  0  0  0
  9  5  1  0  0  0  0
 10  8  1  0  0  0  0
 11  9  1  0  0  0  0
 12 11  1  0  0  0  0
 13 16  1  1  0  0  0
 13 10  1  0  0  0  0
 13 12  1  0  0  0  0
 15 16  1  0  0  0  0
 16 14  2  6  0  0  0
 16 17  1  0  0  0  0
 18 17  1  0  0  0  0
 18 19  1  0  0  0  0
 19 20  1  0  0  0  0
 21 22  1  0  0  0  0
 22 23  1  1  0  0  0
 24 22  1  0  0  0  0
 25 27  1  0  0  0  0
 27 31  1  0  0  0  0
 29 25  1  6  0  0  0
 29 33  1  0  0  0  0
 29 30  1  0  0  0  0
 30 26  1  6  0  0  0
 30 32  1  0  0  0  0
 31 26  1  0  0  0  0
 32 28  1  6  0  0  0
 33 34  1  0  0  0  0
 34 24  1  1  0  0  0
 34 32  1  0  0  0  0
M  END
>  <MODEL>
2

>  <REMARK>
 VINA RESULT:      -6.8      3.157      9.603
  Name = 
  9 active torsions:
  status: ('A' for Active; 'I' for Inactive)
    1  A    between atoms: N_3  and  C_26
    2  A    between atoms: C_4  and  C_15
    3  A    between atoms: C_4  and  C_21
    4  A    between atoms: C_11  and  C_15
    5  A    between atoms: C_14  and  C_25
    6  A    between atoms: P_18  and  O_27
    7  A    between atoms: P_18  and  C_30
    8  A    between atoms: C_21  and  C_34
    9  A    between atoms: C_25  and  O_27
                            x       y       z     vdW  Elec       q    Type
                         _______ _______ _______ _____ _____    ______ ____

>  <TORSDO>
F 9

$$$$
=
 OpenBabel11072413103D

 34 37  0  0  1  0  0  0  0  0999 V2000
  162.3310  206.8220  151.8650 N   0  0  0  0  0  0  0  0  0  0  0  0
  163.4390  206.0850  151.6180 O   0  0  0  0  0  1  0  0  0  0  0  0
  160.5060  208.7000  152.8040 C   0  0  0  0  0  0  0  0  0  0  0  0
  161.1660  208.9630  151.6710 C   0  0  0  0  0  3  0  0  0  0  0  0
  161.9380  207.8900  150.9300 C   0  0  2  0  0  3  0  0  0  0  0  0
  161.5200  206.5000  153.0010 C   0  0  0  0  0  3  0  0  0  0  0  0
  160.6310  207.3840  153.4530 C   0  0  0  0  0  3  0  0  0  0  0  0
  161.0950  205.8710  149.9220 C   0  0  0  0  0  2  0  0  0  0  0  0
  161.1280  207.3450  149.8240 N   0  0  2  0  0  0  0  0  0  0  0  0
  160.8310  205.2050  148.5740 C   0  0  0  0  0  2  0  0  0  0  0  0
  161.6750  207.8250  148.5330 C   0  0  0  0  0  2  0  0  0  0  0  0
  162.6570  206.8420  147.8880 C   0  0  0  0  0  2  0  0  0  0  0  0
  161.9810  205.4970  147.6080 C   0  0  2  0  0  3  0  0  0  0  0  0
  160.0910  206.5240  145.7200 O   0  0  0  0  0  1  0  0  0  0  0  0
  162.4830  205.8280  144.9430 O   0  0  0  0  0  0  0  0  0  0  0  0
  161.3730  205.4340  145.8930 P   0  0  1  0  0  0  0  0  0  0  0  0
  160.8170  203.8740  145.5200 O   0  0  0  0  0  0  0  0  0  0  0  0
  161.5920  203.0020  146.2910 C   0  0  0  0  0  2  0  0  0  0  0  0
  160.8290  201.7160  146.5410 C   0  0  0  0  0  2  0  0  0  0  0  0
  160.8370  201.3170  148.3130 S   0  0  0  0  0  1  0  0  0  0  0  0
  159.7100  209.7760  153.4590 C   0  0  0  0  0  2  0  0  0  0  0  0
  160.3010  211.1460  153.1590 C   0  0  2  0  0  3  0  0  0  0  0  0
  160.6980  211.8240  154.4560 C   0  0  0  0  0  1  0  0  0  0  0  0
  159.2810  212.0100  152.4370 C   0  0  0  0  0  2  0  0  0  0  0  0
  161.6980  212.2840  148.2010 C   0  0  0  0  0  2  0  0  0  0  0  0
  158.9260  213.7310  147.9380 C   0  0  0  0  0  2  0  0  0  0  0  0
  161.3310  213.1900  146.6590 S   0  0  0  0  0  0  0  0  0  0  0  0
  157.8280  212.9530  150.3240 O   0  0  0  0  0  1  0  0  0  0  0  0
  160.8330  212.7550  149.3300 C   0  0  2  0  0  3  0  0  0  0  0  0
  159.7920  213.8190  149.2100 C   0  0  2  0  0  3  0  0  0  0  0  0
  159.5380  212.8970  146.8080 C   0  0  0  0  0  2  0  0  0  0  0  0
  158.9980  213.7020  150.5170 C   0  0  2  0  0  3  0  0  0  0  0  0
  160.9270  212.2740  150.5590 C   0  0  0  0  0  2  0  0  0  0  0  0
  159.9650  212.9710  151.4640 C   0  0  2  0  0  3  0  0  0  0  0  0
  1  6  1  0  0  0  0
  2  1  1  0  0  0  0
  3  7  1  0  0  0  0
  3 21  1  0  0  0  0
  4  3  2  0  0  0  0
  5  4  1  1  0  0  0
  5  1  1  0  0  0  0
  6  7  2  0  0  0  0
  9 11  1  6  0  0  0
  9  8  1  0  0  0  0
  9  5  1  0  0  0  0
 10  8  1  0  0  0  0
 12 11  1  0  0  0  0
 13 16  1  6  0  0  0
 13 12  1  0  0  0  0
 13 10  1  0  0  0  0
 14 16  1  0  0  0  0
 16 15  2  6  0  0  0
 17 16  1  0  0  0  0
 17 18  1  0  0  0  0
 18 19  1  0  0  0  0
 19 20  1  0  0  0  0
 22 21  1  0  0  0  0
 22 23  1  1  0  0  0
 24 22  1  0  0  0  0
 27 31  1  0  0  0  0
 27 25  1  0  0  0  0
 29 25  1  1  0  0  0
 29 33  1  0  0  0  0
 30 26  1  6  0  0  0
 30 29  1  0  0  0  0
 30 32  1  0  0  0  0
 31 26  1  0  0  0  0
 32 28  1  6  0  0  0
 32 34  1  0  0  0  0
 33 34  1  0  0  0  0
 34 24  1  6  0  0  0
M  END
>  <MODEL>
3

>  <REMARK>
 VINA RESULT:      -6.4      3.922      9.490
  Name = 
  9 active torsions:
  status: ('A' for Active; 'I' for Inactive)
    1  A    between atoms: N_3  and  C_26
    2  A    between atoms: C_4  and  C_15
    3  A    between atoms: C_4  and  C_21
    4  A    between atoms: C_11  and  C_15
    5  A    between atoms: C_14  and  C_25
    6  A    between atoms: P_18  and  O_27
    7  A    between atoms: P_18  and  C_30
    8  A    between atoms: C_21  and  C_34
    9  A    between atoms: C_25  and  O_27
                            x       y       z     vdW  Elec       q    Type
                         _______ _______ _______ _____ _____    ______ ____

>  <TORSDO>
F 9

$$$$
=
 OpenBabel11072413103D

 34 37  0  0  1  0  0  0  0  0999 V2000
  161.9020  209.9280  150.7370 N   0  0  0  0  0  0  0  0  0  0  0  0
  161.9430  210.8260  149.7250 O   0  0  0  0  0  1  0  0  0  0  0  0
  161.2990  208.5190  153.0590 C   0  0  0  0  0  0  0  0  0  0  0  0
  160.6710  208.1830  151.9270 C   0  0  0  0  0  3  0  0  0  0  0  0
  161.1460  208.6750  150.5750 C   0  0  2  0  0  3  0  0  0  0  0  0
  162.6590  210.1850  151.9270 C   0  0  0  0  0  3  0  0  0  0  0  0
  162.3910  209.5080  153.0420 C   0  0  0  0  0  3  0  0  0  0  0  0
  162.3580  208.1200  148.5680 C   0  0  0  0  0  2  0  0  0  0  0  0
  161.9720  207.6470  149.9140 N   0  0  2  0  0  0  0  0  0  0  0  0
  162.6660  206.9680  147.6130 C   0  0  0  0  0  2  0  0  0  0  0  0
  161.2290  206.3660  149.8840 C   0  0  0  0  0  2  0  0  0  0  0  0
  160.4580  206.1430  148.5780 C   0  0  0  0  0  2  0  0  0  0  0  0
  161.4070  206.1310  147.3770 C   0  0  2  0  0  3  0  0  0  0  0  0
  161.1070  203.9780  145.5150 O   0  0  0  0  0  0  0  0  0  0  0  0
  163.3750  204.3410  146.7540 O   0  0  0  0  0  1  0  0  0  0  0  0
  161.8770  204.4230  146.9530 P   0  0  1  0  0  0  0  0  0  0  0  0
  161.3970  203.3570  148.1830 O   0  0  0  0  0  0  0  0  0  0  0  0
  160.9580  202.2000  147.5320 C   0  0  0  0  0  2  0  0  0  0  0  0
  161.2020  200.9880  148.4090 C   0  0  0  0  0  2  0  0  0  0  0  0
  160.8310  201.3840  150.1420 S   0  0  0  0  0  1  0  0  0  0  0  0
  160.8300  207.9570  154.3560 C   0  0  0  0  0  2  0  0  0  0  0  0
  161.4620  208.6960  155.5270 C   0  0  2  0  0  3  0  0  0  0  0  0
  161.1050  207.9950  156.8240 C   0  0  0  0  0  1  0  0  0  0  0  0
  160.9540  210.1280  155.5780 C   0  0  0  0  0  2  0  0  0  0  0  0
  156.8020  212.2970  156.9620 C   0  0  0  0  0  2  0  0  0  0  0  0
  157.4860  213.1000  154.0060 C   0  0  0  0  0  2  0  0  0  0  0  0
  155.5880  213.2890  156.0240 S   0  0  0  0  0  0  0  0  0  0  0  0
  160.0040  212.0300  153.8620 O   0  0  0  0  0  1  0  0  0  0  0  0
  157.7480  211.5830  156.0450 C   0  0  2  0  0  3  0  0  0  0  0  0
  157.7140  211.6780  154.5550 C   0  0  2  0  0  3  0  0  0  0  0  0
  156.8820  214.0820  155.0140 C   0  0  0  0  0  2  0  0  0  0  0  0
  159.0410  211.0430  154.1190 C   0  0  2  0  0  3  0  0  0  0  0  0
  158.7020  210.7770  156.4800 C   0  0  0  0  0  2  0  0  0  0  0  0
  159.4460  210.1850  155.3290 C   0  0  2  0  0  3  0  0  0  0  0  0
  1  6  1  0  0  0  0
  2  1  1  0  0  0  0
  3 21  1  0  0  0  0
  4  3  2  0  0  0  0
  5  1  1  0  0  0  0
  5  4  1  1  0  0  0
  6  7  2  0  0  0  0
  7  3  1  0  0  0  0
  9  8  1  6  0  0  0
  9  5  1  0  0  0  0
 10  8  1  0  0  0  0
 11  9  1  0  0  0  0
 12 11  1  0  0  0  0
 13 16  1  1  0  0  0
 13 10  1  0  0  0  0
 13 12  1  0  0  0  0
 15 16  1  0  0  0  0
 16 14  2  6  0  0  0
 16 17  1  0  0  0  0
 18 17  1  0  0  0  0
 18 19  1  0  0  0  0
 19 20  1  0  0  0  0
 21 22  1  0  0  0  0
 22 24  1  0  0  0  0
 22 23  1  1  0  0  0
 26 31  1  0  0  0  0
 27 25  1  0  0  0  0
 29 33  1  6  0  0  0
 29 25  1  0  0  0  0
 30 26  1  1  0  0  0
 30 29  1  0  0  0  0
 31 27  1  0  0  0  0
 32 28  1  1  0  0  0
 32 30  1  0  0  0  0
 32 34  1  0  0  0  0
 34 24  1  1  0  0  0
 34 33  1  0  0  0  0
M  END
>  <MODEL>
4

>  <REMARK>
 VINA RESULT:      -6.3      3.270      9.743
  Name = 
  9 active torsions:
  status: ('A' for Active; 'I' for Inactive)
    1  A    between atoms: N_3  and  C_26
    2  A    between atoms: C_4  and  C_15
    3  A    between atoms: C_4  and  C_21
    4  A    between atoms: C_11  and  C_15
    5  A    between atoms: C_14  and  C_25
    6  A    between atoms: P_18  and  O_27
    7  A    between atoms: P_18  and  C_30
    8  A    between atoms: C_21  and  C_34
    9  A    between atoms: C_25  and  O_27
                            x       y       z     vdW  Elec       q    Type
                         _______ _______ _______ _____ _____    ______ ____

>  <TORSDO>
F 9

$$$$
=
 OpenBabel11072413103D

 34 37  0  0  1  0  0  0  0  0999 V2000
  159.1600  213.8350  147.6520 N   0  0  0  0  0  0  0  0  0  0  0  0
  157.9530  214.4440  147.7120 O   0  0  0  0  0  1  0  0  0  0  0  0
  161.3340  212.1350  148.0030 C   0  0  0  0  0  0  0  0  0  0  0  0
  160.4800  211.8800  147.0070 C   0  0  0  0  0  3  0  0  0  0  0  0
  159.4560  212.9020  146.5520 C   0  0  2  0  0  3  0  0  0  0  0  0
  160.1560  214.1660  148.6280 C   0  0  0  0  0  3  0  0  0  0  0  0
  161.2100  213.3700  148.7960 C   0  0  0  0  0  3  0  0  0  0  0  0
  158.7970  214.0990  144.5680 C   0  0  0  0  0  2  0  0  0  0  0  0
  159.9490  213.6300  145.3670 N   0  0  2  0  0  0  0  0  0  0  0  0
  159.1550  214.3060  143.0980 C   0  0  0  0  0  2  0  0  0  0  0  0
  160.8640  212.7530  144.5980 C   0  0  0  0  0  2  0  0  0  0  0  0
  160.1670  211.9980  143.4620 C   0  0  0  0  0  2  0  0  0  0  0  0
  159.5430  212.9720  142.4590 C   0  0  2  0  0  3  0  0  0  0  0  0
  159.9640  214.3620  139.9930 O   0  0  0  0  0  0  0  0  0  0  0  0
  161.9740  213.8540  141.5790 O   0  0  0  0  0  1  0  0  0  0  0  0
  160.6770  213.2660  141.0650 P   0  0  1  0  0  0  0  0  0  0  0  0
  160.9860  211.8160  140.2390 O   0  0  0  0  0  0  0  0  0  0  0  0
  162.3580  211.5870  140.3750 C   0  0  0  0  0  2  0  0  0  0  0  0
  163.0030  211.4840  139.0070 C   0  0  0  0  0  2  0  0  0  0  0  0
  161.9890  210.4510  137.9110 S   0  0  0  0  0  1  0  0  0  0  0  0
  162.3620  211.1200  148.3690 C   0  0  0  0  0  2  0  0  0  0  0  0
  161.7540  210.0170  149.2220 C   0  0  2  0  0  3  0  0  0  0  0  0
  162.0280  210.2960  150.6870 C   0  0  0  0  0  1  0  0  0  0  0  0
  162.3580  208.6720  148.8500 C   0  0  0  0  0  2  0  0  0  0  0  0
  161.5510  204.0090  147.6430 C   0  0  0  0  0  2  0  0  0  0  0  0
  160.8800  204.4530  150.6760 C   0  0  0  0  0  2  0  0  0  0  0  0
  160.8030  202.6320  148.5810 S   0  0  0  0  0  0  0  0  0  0  0  0
  161.8680  206.9930  150.9480 O   0  0  0  0  0  1  0  0  0  0  0  0
  161.2990  205.3260  148.3120 C   0  0  2  0  0  3  0  0  0  0  0  0
  160.5450  205.4940  149.5900 C   0  0  2  0  0  3  0  0  0  0  0  0
  161.5490  203.1790  150.1530 C   0  0  0  0  0  2  0  0  0  0  0  0
  160.8370  206.9430  149.9990 C   0  0  2  0  0  3  0  0  0  0  0  0
  161.7140  206.4780  147.8130 C   0  0  0  0  0  2  0  0  0  0  0  0
  161.2720  207.6090  148.6830 C   0  0  2  0  0  3  0  0  0  0  0  0
  1  2  1  0  0  0  0
  1  6  1  0  0  0  0
  3 21  1  0  0  0  0
  3  7  1  0  0  0  0
  4  3  2  0  0  0  0
  5  4  1  1  0  0  0
  5  1  1  0  0  0  0
  6  7  2  0  0  0  0
  9  8  1  6  0  0  0
  9  5  1  0  0  0  0
 10  8  1  0  0  0  0
 11  9  1  0  0  0  0
 12 11  1  0  0  0  0
 13 16  1  6  0  0  0
 13 10  1  0  0  0  0
 13 12  1  0  0  0  0
 16 14  2  6  0  0  0
 16 15  1  0  0  0  0
 17 18  1  0  0  0  0
 17 16  1  0  0  0  0
 19 18  1  0  0  0  0
 20 19  1  0  0  0  0
 21 22  1  0  0  0  0
 22 23  1  1  0  0  0
 24 22  1  0  0  0  0
 25 27  1  0  0  0  0
 27 31  1  0  0  0  0
 29 25  1  6  0  0  0
 29 30  1  0  0  0  0
 30 32  1  0  0  0  0
 30 26  1  1  0  0  0
 31 26  1  0  0  0  0
 32 28  1  1  0  0  0
 33 29  1  0  0  0  0
 33 34  1  0  0  0  0
 34 24  1  1  0  0  0
 34 32  1  0  0  0  0
M  END
>  <MODEL>
5

>  <REMARK>
 VINA RESULT:      -6.3      6.027      8.962
  Name = 
  9 active torsions:
  status: ('A' for Active; 'I' for Inactive)
    1  A    between atoms: N_3  and  C_26
    2  A    between atoms: C_4  and  C_15
    3  A    between atoms: C_4  and  C_21
    4  A    between atoms: C_11  and  C_15
    5  A    between atoms: C_14  and  C_25
    6  A    between atoms: P_18  and  O_27
    7  A    between atoms: P_18  and  C_30
    8  A    between atoms: C_21  and  C_34
    9  A    between atoms: C_25  and  O_27
                            x       y       z     vdW  Elec       q    Type
                         _______ _______ _______ _____ _____    ______ ____

>  <TORSDO>
F 9

$$$$
=
 OpenBabel11072413103D

 34 37  0  0  1  0  0  0  0  0999 V2000
  160.9320  208.8180  155.4650 N   0  0  0  0  0  0  0  0  0  0  0  0
  161.9580  208.1200  156.0040 O   0  0  0  0  0  1  0  0  0  0  0  0
  159.1450  210.8050  154.6910 C   0  0  0  0  0  0  0  0  0  0  0  0
  160.1720  210.5210  153.8830 C   0  0  0  0  0  3  0  0  0  0  0  0
  161.0080  209.2700  154.0650 C   0  0  2  0  0  3  0  0  0  0  0  0
  159.7550  209.0440  156.2500 C   0  0  0  0  0  3  0  0  0  0  0  0
  158.8830  209.9820  155.8840 C   0  0  0  0  0  3  0  0  0  0  0  0
  161.3460  206.9840  153.3830 C   0  0  0  0  0  2  0  0  0  0  0  0
  160.5530  208.2090  153.1470 N   0  0  2  0  0  0  0  0  0  0  0  0
  161.3920  206.0770  152.1550 C   0  0  0  0  0  2  0  0  0  0  0  0
  160.6460  208.6960  151.7500 C   0  0  0  0  0  2  0  0  0  0  0  0
  161.9550  208.3050  151.0580 C   0  0  0  0  0  2  0  0  0  0  0  0
  162.1140  206.7830  151.0060 C   0  0  2  0  0  3  0  0  0  0  0  0
  161.5750  204.4440  149.4470 O   0  0  0  0  0  1  0  0  0  0  0  0
  160.0820  206.5700  149.1930 O   0  0  0  0  0  0  0  0  0  0  0  0
  161.5140  206.1340  149.4140 P   0  0  1  0  0  0  0  0  0  0  0  0
  162.4930  206.6910  148.1440 O   0  0  0  0  0  0  0  0  0  0  0  0
  161.7160  206.5730  146.9870 C   0  0  0  0  0  2  0  0  0  0  0  0
  162.2700  205.4740  146.1010 C   0  0  0  0  0  2  0  0  0  0  0  0
  161.2180  205.2610  144.6360 S   0  0  0  0  0  1  0  0  0  0  0  0
  158.3160  212.0160  154.4290 C   0  0  0  0  0  2  0  0  0  0  0  0
  159.0050  212.9390  153.4340 C   0  0  2  0  0  3  0  0  0  0  0  0
  158.9630  214.3640  153.9490 C   0  0  0  0  0  1  0  0  0  0  0  0
  158.3020  212.8750  152.0880 C   0  0  0  0  0  2  0  0  0  0  0  0
  161.6280  212.8340  148.5110 C   0  0  0  0  0  2  0  0  0  0  0  0
  158.7920  213.4550  147.3180 C   0  0  0  0  0  2  0  0  0  0  0  0
  161.5030  213.2700  146.7420 S   0  0  0  0  0  0  0  0  0  0  0  0
  157.2880  212.9550  149.5520 O   0  0  0  0  0  1  0  0  0  0  0  0
  160.4270  213.3040  149.2750 C   0  0  2  0  0  3  0  0  0  0  0  0
  159.2680  214.0240  148.6690 C   0  0  2  0  0  3  0  0  0  0  0  0
  159.8220  212.5790  146.5980 C   0  0  0  0  0  2  0  0  0  0  0  0
  158.2030  213.9940  149.7720 C   0  0  2  0  0  3  0  0  0  0  0  0
  160.2930  213.1340  150.5800 C   0  0  0  0  0  2  0  0  0  0  0  0
  159.0160  213.7460  151.0540 C   0  0  2  0  0  3  0  0  0  0  0  0
  1  2  1  0  0  0  0
  1  6  1  0  0  0  0
  3  7  1  0  0  0  0
  4  3  2  0  0  0  0
  5  4  1  1  0  0  0
  5  1  1  0  0  0  0
  7  6  2  0  0  0  0
  9 11  1  6  0  0  0
  9  8  1  0  0  0  0
  9  5  1  0  0  0  0
 10  8  1  0  0  0  0
 12 11  1  0  0  0  0
 13 16  1  6  0  0  0
 13 12  1  0  0  0  0
 13 10  1  0  0  0  0
 16 15  2  6  0  0  0
 16 14  1  0  0  0  0
 17 16  1  0  0  0  0
 18 17  1  0  0  0  0
 19 18  1  0  0  0  0
 20 19  1  0  0  0  0
 21  3  1  0  0  0  0
 22 23  1  1  0  0  0
 22 21  1  0  0  0  0
 24 22  1  0  0  0  0
 27 25  1  0  0  0  0
 29 25  1  1  0  0  0
 29 33  1  0  0  0  0
 30 26  1  6  0  0  0
 30 29  1  0  0  0  0
 30 32  1  0  0  0  0
 31 27  1  0  0  0  0
 31 26  1  0  0  0  0
 32 28  1  6  0  0  0
 32 34  1  0  0  0  0
 33 34  1  0  0  0  0
 34 24  1  1  0  0  0
M  END
>  <MODEL>
6

>  <REMARK>
 VINA RESULT:      -6.2      3.802      9.103
  Name = 
  9 active torsions:
  status: ('A' for Active; 'I' for Inactive)
    1  A    between atoms: N_3  and  C_26
    2  A    between atoms: C_4  and  C_15
    3  A    between atoms: C_4  and  C_21
    4  A    between atoms: C_11  and  C_15
    5  A    between atoms: C_14  and  C_25
    6  A    between atoms: P_18  and  O_27
    7  A    between atoms: P_18  and  C_30
    8  A    between atoms: C_21  and  C_34
    9  A    between atoms: C_25  and  O_27
                            x       y       z     vdW  Elec       q    Type
                         _______ _______ _______ _____ _____    ______ ____

>  <TORSDO>
F 9

$$$$
=
 OpenBabel11072413103D

 34 37  0  0  1  0  0  0  0  0999 V2000
  161.9650  210.3430  149.9810 N   0  0  0  0  0  0  0  0  0  0  0  0
  162.1830  211.5660  149.4430 O   0  0  0  0  0  1  0  0  0  0  0  0
  162.2160  207.7420  150.9350 C   0  0  0  0  0  0  0  0  0  0  0  0
  162.3960  208.7540  151.7890 C   0  0  0  0  0  3  0  0  0  0  0  0
  161.9860  210.1720  151.4440 C   0  0  2  0  0  3  0  0  0  0  0  0
  161.6460  209.2480  149.1140 C   0  0  0  0  0  3  0  0  0  0  0  0
  161.7480  207.9970  149.5610 C   0  0  0  0  0  3  0  0  0  0  0  0
  160.4350  211.9410  151.9620 C   0  0  0  0  0  2  0  0  0  0  0  0
  160.6670  210.4830  152.0260 N   0  0  2  0  0  0  0  0  0  0  0  0
  159.4480  212.4200  153.0250 C   0  0  0  0  0  2  0  0  0  0  0  0
  160.6020  209.9490  153.4070 C   0  0  0  0  0  2  0  0  0  0  0  0
  160.9720  210.9830  154.4740 C   0  0  0  0  0  2  0  0  0  0  0  0
  160.0270  212.1870  154.4220 C   0  0  2  0  0  3  0  0  0  0  0  0
  158.7270  210.4200  156.2610 O   0  0  0  0  0  0  0  0  0  0  0  0
  158.8370  212.9820  156.7490 O   0  0  0  0  0  1  0  0  0  0  0  0
  158.6720  211.9850  155.6220 P   0  0  1  0  0  0  0  0  0  0  0  0
  157.1720  212.2130  154.8610 O   0  0  0  0  0  0  0  0  0  0  0  0
  156.3380  212.7790  155.8300 C   0  0  0  0  0  2  0  0  0  0  0  0
  155.5240  211.6960  156.5100 C   0  0  0  0  0  2  0  0  0  0  0  0
  155.2090  210.3300  155.3540 S   0  0  0  0  0  1  0  0  0  0  0  0
  162.5780  206.3570  151.3480 C   0  0  0  0  0  2  0  0  0  0  0  0
  161.3290  205.5320  151.6270 C   0  0  2  0  0  3  0  0  0  0  0  0
  161.2060  205.2820  153.1170 C   0  0  0  0  0  1  0  0  0  0  0  0
  161.4120  204.1970  150.9030 C   0  0  0  0  0  2  0  0  0  0  0  0
  161.0940  206.0580  146.3980 C   0  0  0  0  0  2  0  0  0  0  0  0
  161.5820  202.9620  146.2370 C   0  0  0  0  0  2  0  0  0  0  0  0
  161.0430  205.2510  144.7600 S   0  0  0  0  0  0  0  0  0  0  0  0
  162.1000  202.4890  148.8850 O   0  0  0  0  0  1  0  0  0  0  0  0
  160.8780  205.0670  147.5010 C   0  0  2  0  0  3  0  0  0  0  0  0
  160.6620  203.6040  147.2930 C   0  0  2  0  0  3  0  0  0  0  0  0
  162.2220  203.9550  145.2620 C   0  0  0  0  0  2  0  0  0  0  0  0
  160.8120  203.0100  148.6990 C   0  0  2  0  0  3  0  0  0  0  0  0
  160.8410  205.4080  148.7790 C   0  0  0  0  0  2  0  0  0  0  0  0
  160.5680  204.2110  149.6280 C   0  0  2  0  0  3  0  0  0  0  0  0
  1  5  1  0  0  0  0
  2  1  1  0  0  0  0
  3 21  1  0  0  0  0
  3  4  2  0  0  0  0
  5  4  1  6  0  0  0
  5  9  1  0  0  0  0
  6  7  2  0  0  0  0
  6  1  1  0  0  0  0
  7  3  1  0  0  0  0
  8 10  1  0  0  0  0
  9  8  1  1  0  0  0
  9 11  1  0  0  0  0
 10 13  1  0  0  0  0
 11 12  1  0  0  0  0
 13 12  1  0  0  0  0
 13 16  1  1  0  0  0
 16 14  2  1  0  0  0
 16 15  1  0  0  0  0
 17 16  1  0  0  0  0
 17 18  1  0  0  0  0
 18 19  1  0  0  0  0
 20 19  1  0  0  0  0
 21 22  1  0  0  0  0
 22 23  1  1  0  0  0
 24 22  1  0  0  0  0
 27 31  1  0  0  0  0
 27 25  1  0  0  0  0
 29 25  1  6  0  0  0
 29 33  1  0  0  0  0
 30 26  1  6  0  0  0
 30 29  1  0  0  0  0
 30 32  1  0  0  0  0
 31 26  1  0  0  0  0
 32 28  1  6  0  0  0
 32 34  1  0  0  0  0
 33 34  1  0  0  0  0
 34 24  1  1  0  0  0
M  END
>  <MODEL>
7

>  <REMARK>
 VINA RESULT:      -6.1      1.466      1.832
  Name = 
  9 active torsions:
  status: ('A' for Active; 'I' for Inactive)
    1  A    between atoms: N_3  and  C_26
    2  A    between atoms: C_4  and  C_15
    3  A    between atoms: C_4  and  C_21
    4  A    between atoms: C_11  and  C_15
    5  A    between atoms: C_14  and  C_25
    6  A    between atoms: P_18  and  O_27
    7  A    between atoms: P_18  and  C_30
    8  A    between atoms: C_21  and  C_34
    9  A    between atoms: C_25  and  O_27
                            x       y       z     vdW  Elec       q    Type
                         _______ _______ _______ _____ _____    ______ ____

>  <TORSDO>
F 9

$$$$
=
 OpenBabel11072413103D

 34 37  0  0  1  0  0  0  0  0999 V2000
  162.5020  206.5780  151.8700 N   0  0  0  0  0  0  0  0  0  0  0  0
  163.5810  205.7920  151.6450 O   0  0  0  0  0  1  0  0  0  0  0  0
  160.7520  208.5560  152.7440 C   0  0  0  0  0  0  0  0  0  0  0  0
  161.4080  208.7470  151.5940 C   0  0  0  0  0  3  0  0  0  0  0  0
  162.1350  207.6170  150.8930 C   0  0  2  0  0  3  0  0  0  0  0  0
  161.6930  206.3340  153.0280 C   0  0  0  0  0  3  0  0  0  0  0  0
  160.8400  207.2660  153.4490 C   0  0  0  0  0  3  0  0  0  0  0  0
  161.3900  205.5770  149.8490 C   0  0  0  0  0  2  0  0  0  0  0  0
  161.2940  207.0520  149.8200 N   0  0  2  0  0  0  0  0  0  0  0  0
  161.0840  204.9490  148.4910 C   0  0  0  0  0  2  0  0  0  0  0  0
  161.7060  207.6310  148.5190 C   0  0  0  0  0  2  0  0  0  0  0  0
  162.7150  206.7620  147.7620 C   0  0  0  0  0  2  0  0  0  0  0  0
  162.1330  205.3780  147.4640 C   0  0  2  0  0  3  0  0  0  0  0  0
  160.0480  206.3400  145.7550 O   0  0  0  0  0  1  0  0  0  0  0  0
  162.4210  205.8420  144.7880 O   0  0  0  0  0  0  0  0  0  0  0  0
  161.4100  205.3370  145.7940 P   0  0  1  0  0  0  0  0  0  0  0  0
  160.9360  203.7560  145.3950 O   0  0  0  0  0  0  0  0  0  0  0  0
  161.5360  202.9290  146.3490 C   0  0  0  0  0  2  0  0  0  0  0  0
  160.6510  201.7290  146.6240 C   0  0  0  0  0  2  0  0  0  0  0  0
  161.2010  200.8770  148.1300 S   0  0  0  0  0  1  0  0  0  0  0  0
  160.0000  209.6860  153.3580 C   0  0  0  0  0  2  0  0  0  0  0  0
  160.9000  210.9000  153.5380 C   0  0  2  0  0  3  0  0  0  0  0  0
  161.7940  210.6980  154.7460 C   0  0  0  0  0  1  0  0  0  0  0  0
  160.0590  212.1500  153.7450 C   0  0  0  0  0  2  0  0  0  0  0  0
  156.6060  212.1720  157.1990 C   0  0  0  0  0  2  0  0  0  0  0  0
  155.8200  214.1570  154.8990 C   0  0  0  0  0  2  0  0  0  0  0  0
  154.9640  212.9700  157.2590 S   0  0  0  0  0  0  0  0  0  0  0  0
  158.1710  214.1080  153.4940 O   0  0  0  0  0  1  0  0  0  0  0  0
  157.1710  212.1900  155.8110 C   0  0  2  0  0  3  0  0  0  0  0  0
  156.4890  212.7950  154.6290 C   0  0  2  0  0  3  0  0  0  0  0  0
  155.5540  214.4530  156.3770 C   0  0  0  0  0  2  0  0  0  0  0  0
  157.5850  212.8360  153.5570 C   0  0  2  0  0  3  0  0  0  0  0  0
  158.3370  211.6470  155.5020 C   0  0  0  0  0  2  0  0  0  0  0  0
  158.6020  211.7890  154.0390 C   0  0  2  0  0  3  0  0  0  0  0  0
  1  6  1  0  0  0  0
  2  1  1  0  0  0  0
  3 21  1  0  0  0  0
  3  7  1  0  0  0  0
  4  3  2  0  0  0  0
  5  4  1  1  0  0  0
  5  1  1  0  0  0  0
  6  7  2  0  0  0  0
  9 11  1  6  0  0  0
  9  8  1  0  0  0  0
  9  5  1  0  0  0  0
 10  8  1  0  0  0  0
 12 11  1  0  0  0  0
 13 16  1  6  0  0  0
 13 12  1  0  0  0  0
 13 10  1  0  0  0  0
 14 16  1  0  0  0  0
 16 15  2  6  0  0  0
 17 16  1  0  0  0  0
 17 18  1  0  0  0  0
 18 19  1  0  0  0  0
 19 20  1  0  0  0  0
 21 22  1  0  0  0  0
 22 24  1  0  0  0  0
 22 23  1  1  0  0  0
 25 27  1  0  0  0  0
 26 31  1  0  0  0  0
 29 33  1  6  0  0  0
 29 25  1  0  0  0  0
 30 26  1  1  0  0  0
 30 29  1  0  0  0  0
 31 27  1  0  0  0  0
 32 28  1  1  0  0  0
 32 34  1  0  0  0  0
 32 30  1  0  0  0  0
 34 24  1  1  0  0  0
 34 33  1  0  0  0  0
M  END
>  <MODEL>
8

>  <REMARK>
 VINA RESULT:      -6.0      3.464     10.476
  Name = 
  9 active torsions:
  status: ('A' for Active; 'I' for Inactive)
    1  A    between atoms: N_3  and  C_26
    2  A    between atoms: C_4  and  C_15
    3  A    between atoms: C_4  and  C_21
    4  A    between atoms: C_11  and  C_15
    5  A    between atoms: C_14  and  C_25
    6  A    between atoms: P_18  and  O_27
    7  A    between atoms: P_18  and  C_30
    8  A    between atoms: C_21  and  C_34
    9  A    between atoms: C_25  and  O_27
                            x       y       z     vdW  Elec       q    Type
                         _______ _______ _______ _____ _____    ______ ____

>  <TORSDO>
F 9

$$$$
=
 OpenBabel11072413103D

 34 37  0  0  1  0  0  0  0  0999 V2000
  161.1110  210.7210  154.1120 N   0  0  0  0  0  0  0  0  0  0  0  0
  161.7630  210.4570  155.2680 O   0  0  0  0  0  1  0  0  0  0  0  0
  160.2310  211.8210  151.7120 C   0  0  0  0  0  0  0  0  0  0  0  0
  161.1690  210.8690  151.6720 C   0  0  0  0  0  3  0  0  0  0  0  0
  161.4870  210.0090  152.8790 C   0  0  2  0  0  3  0  0  0  0  0  0
  160.0150  211.6440  154.1270 C   0  0  0  0  0  3  0  0  0  0  0  0
  159.5730  212.1670  152.9840 C   0  0  0  0  0  3  0  0  0  0  0  0
  161.2210  207.8410  153.8970 C   0  0  0  0  0  2  0  0  0  0  0  0
  160.7840  208.7150  152.7870 N   0  0  2  0  0  0  0  0  0  0  0  0
  161.0480  206.3600  153.5720 C   0  0  0  0  0  2  0  0  0  0  0  0
  161.0280  208.1180  151.4530 C   0  0  0  0  0  2  0  0  0  0  0  0
  162.2000  207.1310  151.4360 C   0  0  0  0  0  2  0  0  0  0  0  0
  161.9520  205.9690  152.4010 C   0  0  2  0  0  3  0  0  0  0  0  0
  162.4200  203.3630  151.3130 O   0  0  0  0  0  0  0  0  0  0  0  0
  160.0920  203.9700  152.3260 O   0  0  0  0  0  1  0  0  0  0  0  0
  161.2310  204.5500  151.5160 P   0  0  1  0  0  0  0  0  0  0  0  0
  160.6710  205.0300  149.9880 O   0  0  0  0  0  0  0  0  0  0  0  0
  161.2510  204.1430  149.0760 C   0  0  0  0  0  2  0  0  0  0  0  0
  161.2730  204.7620  147.6930 C   0  0  0  0  0  2  0  0  0  0  0  0
  161.8240  206.4900  147.7890 S   0  0  0  0  0  1  0  0  0  0  0  0
  159.9140  212.5950  150.4800 C   0  0  0  0  0  2  0  0  0  0  0  0
  161.1850  212.9520  149.7230 C   0  0  2  0  0  3  0  0  0  0  0  0
  161.2440  214.4520  149.5060 C   0  0  0  0  0  1  0  0  0  0  0  0
  161.2050  212.2520  148.3740 C   0  0  0  0  0  2  0  0  0  0  0  0
  163.3410  213.3290  144.1150 C   0  0  0  0  0  2  0  0  0  0  0  0
  160.3120  212.6550  143.6440 C   0  0  0  0  0  2  0  0  0  0  0  0
  162.6470  213.5540  142.4400 S   0  0  0  0  0  0  0  0  0  0  0  0
  159.7010  211.7370  146.1520 O   0  0  0  0  0  1  0  0  0  0  0  0
  162.2620  213.3190  145.1550 C   0  0  2  0  0  3  0  0  0  0  0  0
  160.8040  213.4590  144.8630 C   0  0  2  0  0  3  0  0  0  0  0  0
  161.4180  212.2280  142.6740 C   0  0  0  0  0  2  0  0  0  0  0  0
  160.1280  213.0720  146.1840 C   0  0  2  0  0  3  0  0  0  0  0  0
  162.5110  213.1990  146.4490 C   0  0  0  0  0  2  0  0  0  0  0  0
  161.2400  213.2660  147.2290 C   0  0  2  0  0  3  0  0  0  0  0  0
  1  6  1  0  0  0  0
  1  2  1  0  0  0  0
  3  7  1  0  0  0  0
  4  3  2  0  0  0  0
  5  4  1  6  0  0  0
  5  1  1  0  0  0  0
  7  6  2  0  0  0  0
  9 11  1  6  0  0  0
  9  5  1  0  0  0  0
  9  8  1  0  0  0  0
 10  8  1  0  0  0  0
 12 11  1  0  0  0  0
 12 13  1  0  0  0  0
 13 16  1  6  0  0  0
 13 10  1  0  0  0  0
 16 14  2  6  0  0  0
 16 15  1  0  0  0  0
 17 16  1  0  0  0  0
 18 17  1  0  0  0  0
 19 20  1  0  0  0  0
 19 18  1  0  0  0  0
 21  3  1  0  0  0  0
 22 23  1  6  0  0  0
 22 21  1  0  0  0  0
 24 22  1  0  0  0  0
 27 31  1  0  0  0  0
 27 25  1  0  0  0  0
 29 25  1  1  0  0  0
 29 33  1  0  0  0  0
 30 26  1  6  0  0  0
 30 29  1  0  0  0  0
 30 32  1  0  0  0  0
 31 26  1  0  0  0  0
 32 28  1  6  0  0  0
 32 34  1  0  0  0  0
 33 34  1  0  0  0  0
 34 24  1  1  0  0  0
M  END
>  <MODEL>
9

>  <REMARK>
 VINA RESULT:      -5.8      4.319      8.862
  Name = 
  9 active torsions:
  status: ('A' for Active; 'I' for Inactive)
    1  A    between atoms: N_3  and  C_26
    2  A    between atoms: C_4  and  C_15
    3  A    between atoms: C_4  and  C_21
    4  A    between atoms: C_11  and  C_15
    5  A    between atoms: C_14  and  C_25
    6  A    between atoms: P_18  and  O_27
    7  A    between atoms: P_18  and  C_30
    8  A    between atoms: C_21  and  C_34
    9  A    between atoms: C_25  and  O_27
                            x       y       z     vdW  Elec       q    Type
                         _______ _______ _______ _____ _____    ______ ____

>  <TORSDO>
F 9

$$$$
