=
 OpenBabel11072412313D

 56 60  0  0  1  0  0  0  0  0999 V2000
  162.3410  210.0440  150.1900 N   0  0  0  0  0  0  0  0  0  0  0  0
  162.1320  210.2450  151.6210 C   0  0  0  0  0  2  0  0  0  0  0  0
  160.6520  210.1600  151.9370 C   0  0  0  0  0  2  0  0  0  0  0  0
  160.2990  211.2160  152.9680 C   0  0  0  0  0  2  0  0  0  0  0  0
  160.8870  210.8530  154.3250 C   0  0  1  0  0  3  0  0  0  0  0  0
  160.6310  211.9260  155.2720 N   0  0  0  0  0  1  0  0  0  0  0  0
  159.5670  209.6850  156.1480 C   0  0  0  0  0  1  0  0  0  0  0  0
  160.3380  209.5220  154.8480 C   0  0  2  0  0  3  0  0  0  0  0  0
  161.3790  208.6120  155.0290 O   0  0  0  0  0  1  0  0  0  0  0  0
  161.2590  209.2230  149.6570 C   0  0  0  0  0  2  0  0  0  0  0  0
  162.9910  207.7310  149.0970 O   0  0  0  0  0  0  0  0  0  0  0  0
  161.7850  207.9130  149.1600 C   0  0  0  0  0  0  0  0  0  0  0  0
  160.8480  206.8420  148.6990 C   0  0  0  0  0  2  0  0  0  0  0  0
  162.3700  205.7460  145.4900 C   0  0  0  0  0  2  0  0  0  0  0  0
  160.9460  206.6440  147.1930 C   0  0  1  0  0  3  0  0  0  0  0  0
  162.3870  206.6040  146.7340 C   0  0  0  0  0  2  0  0  0  0  0  0
  161.2140  204.7720  145.6610 C   0  0  1  0  0  0  0  0  0  0  0  0
  160.3600  205.3050  146.8010 C   0  0  0  0  0  2  0  0  0  0  0  0
  160.4520  204.7300  144.4910 O   0  0  0  0  0  1  0  0  0  0  0  0
  161.7110  203.3740  146.0300 C   0  0  0  0  0  2  0  0  0  0  0  0
  160.8490  202.6780  147.0860 C   0  0  1  0  0  3  0  0  0  0  0  0
  160.2700  200.1240  144.5060 C   0  0  0  0  0  2  0  0  0  0  0  0
  161.2610  200.2110  146.6940 C   0  0  0  0  0  2  0  0  0  0  0  0
  160.8460  199.2540  145.6010 C   0  0  0  0  0  2  0  0  0  0  0  0
  160.2570  201.3420  146.6150 C   0  0  0  0  0  3  0  0  0  0  0  0
  159.7290  201.3670  145.1890 C   0  0  0  0  0  2  0  0  0  0  0  0
  159.5160  201.6120  149.6370 C   0  0  0  0  0  1  0  0  0  0  0  0
  162.7370  202.8950  148.5070 O   0  0  0  0  0  0  0  0  0  0  0  0
  161.5060  202.6260  148.4420 C   0  0  0  0  0  0  0  0  0  0  0  0
  160.7790  202.3310  149.6520 N   0  0  0  0  0  0  0  0  0  0  0  0
  161.3660  202.6280  150.9510 C   0  0  0  0  0  2  0  0  0  0  0  0
  160.5880  204.1930  152.7520 C   0  0  0  0  0  2  0  0  0  0  0  0
  160.4120  205.6590  153.1820 C   0  0  0  0  0  2  0  0  0  0  0  0
  161.0650  206.6070  152.2720 N   0  0  0  0  0  2  0  0  0  0  0  0
  162.4310  206.1570  152.0130 C   0  0  0  0  0  2  0  0  0  0  0  0
  161.1280  204.0830  151.3240 C   0  0  0  0  0  3  0  0  0  0  0  0
  162.4290  204.8760  151.1700 C   0  0  0  0  0  2  0  0  0  0  0  0
  162.3850  211.3270  149.4730 C   0  0  0  0  0  2  0  0  0  0  0  0
  161.2730  211.5180  148.4310 C   0  0  0  0  0  2  0  0  0  0  0  0
  161.8640  213.9570  148.5380 C   0  0  0  0  0  2  0  0  0  0  0  0
  161.6930  214.4460  146.1210 N   0  0  0  0  0  2  0  0  0  0  0  0
  158.7540  213.8620  147.4060 C   0  0  0  0  0  2  0  0  0  0  0  0
  162.6130  214.0770  147.2010 C   0  0  0  0  0  2  0  0  0  0  0  0
  159.9000  213.2030  147.2300 C   0  0  0  0  0  0  0  0  0  0  0  0
  160.7230  213.3640  145.9640 C   0  0  1  0  0  3  0  0  0  0  0  0
  160.7180  212.9370  148.4570 C   0  0  1  0  0  3  0  0  0  0  0  0
  160.9670  212.7580  143.4790 C   0  0  2  0  0  3  0  0  0  0  0  0
  159.8150  211.9510  144.0550 C   0  0  0  0  0  2  0  0  0  0  0  0
  160.0830  213.3550  144.5590 C   0  0  1  0  0  3  0  0  0  0  0  0
  160.5810  213.3450  142.1260 C   0  0  1  0  0  3  0  0  0  0  0  0
  161.6320  211.3710  140.9680 C   0  0  0  0  0  1  0  0  0  0  0  0
  161.5450  212.8850  141.0260 C   0  0  2  0  0  3  0  0  0  0  0  0
  162.8180  213.4310  141.2000 O   0  0  0  0  0  1  0  0  0  0  0  0
  159.0950  213.1340  141.7830 C   0  0  0  0  0  2  0  0  0  0  0  0
  158.6670  213.7880  140.4750 C   0  0  0  0  0  2  0  0  0  0  0  0
  157.2870  213.6680  140.3140 O   0  0  0  0  0  1  0  0  0  0  0  0
  1  2  1  0  0  0  0
  2  3  1  0  0  0  0
  3  4  1  0  0  0  0
  4  5  1  0  0  0  0
  5  8  1  0  0  0  0
  5  6  1  1  0  0  0
  8  9  1  0  0  0  0
  8  7  1  1  0  0  0
 10  1  1  0  0  0  0
 11 12  2  0  0  0  0
 12 10  1  0  0  0  0
 13 12  1  0  0  0  0
 14 17  1  0  0  0  0
 14 16  1  0  0  0  0
 15 13  1  1  0  0  0
 16 15  1  0  0  0  0
 17 19  1  6  0  0  0
 17 20  1  0  0  0  0
 17 18  1  0  0  0  0
 18 15  1  0  0  0  0
 21 20  1  6  0  0  0
 21 29  1  0  0  0  0
 22 26  1  0  0  0  0
 22 24  1  0  0  0  0
 24 23  1  0  0  0  0
 25 23  1  0  0  0  0
 25 21  1  0  0  0  0
 26 25  1  0  0  0  0
 27 30  1  0  0  0  0
 29 28  2  0  0  0  0
 29 30  1  0  0  0  0
 30 31  1  0  0  0  0
 31 36  1  0  0  0  0
 32 33  1  0  0  0  0
 34 33  1  0  0  0  0
 35 34  1  0  0  0  0
 36 32  1  0  0  0  0
 37 36  1  0  0  0  0
 37 35  1  0  0  0  0
 38  1  1  0  0  0  0
 39 38  1  0  0  0  0
 41 43  1  0  0  0  0
 43 40  1  0  0  0  0
 44 42  2  0  0  0  0
 44 46  1  0  0  0  0
 45 41  1  1  0  0  0
 45 44  1  0  0  0  0
 46 39  1  6  0  0  0
 46 40  1  0  0  0  0
 47 50  1  6  0  0  0
 47 48  1  0  0  0  0
 47 49  1  0  0  0  0
 49 48  1  1  0  0  0
 49 45  1  0  0  0  0
 50 54  1  6  0  0  0
 52 51  1  1  0  0  0
 52 53  1  0  0  0  0
 52 50  1  0  0  0  0
 55 54  1  0  0  0  0
 56 55  1  0  0  0  0
M  END
>  <MODEL>
1

>  <REMARK>
 VINA RESULT:      -4.0      0.000      0.000
  Name = 
  23 active torsions:
  status: ('A' for Active; 'I' for Inactive)
    1  A    between atoms: C_2  and  N_3
    2  A    between atoms: C_2  and  C_24
    3  A    between atoms: N_3  and  C_16
    4  A    between atoms: N_3  and  C_53
    5  A    between atoms: C_10  and  C_32
    6  A    between atoms: C_11  and  C_16
    7  A    between atoms: C_11  and  C_32
    8  A    between atoms: C_13  and  C_28
    9  A    between atoms: C_13  and  C_50
   10  A    between atoms: C_15  and  C_27
   11  A    between atoms: C_22  and  C_31
   12  A    between atoms: C_23  and  C_29
   13  A    between atoms: C_23  and  C_46
   14  A    between atoms: C_24  and  C_52
   15  A    between atoms: C_26  and  C_37
   16  A    between atoms: C_27  and  C_31
   17  A    between atoms: C_27  and  C_40
   18  A    between atoms: C_28  and  C_38
   19  A    between atoms: C_28  and  C_47
   20  A    between atoms: C_29  and  C_39
   21  A    between atoms: C_37  and  N_51
   22  A    between atoms: C_43  and  C_54
   23  A    between atoms: C_46  and  C_53
                            x       y       z     vdW  Elec       q    Type
                         _______ _______ _______ _____ _____    ______ ____

>  <TORSDO>
F 23

$$$$
=
 OpenBabel11072412313D

 56 60  0  0  1  0  0  0  0  0999 V2000
  162.1210  212.4920  148.2570 N   0  0  0  0  0  0  0  0  0  0  0  0
  161.3060  213.4180  149.0370 C   0  0  0  0  0  2  0  0  0  0  0  0
  159.9950  213.6720  148.3180 C   0  0  0  0  0  2  0  0  0  0  0  0
  159.0640  214.4450  149.2340 C   0  0  0  0  0  2  0  0  0  0  0  0
  158.4050  213.5060  150.2370 C   0  0  1  0  0  3  0  0  0  0  0  0
  158.8370  213.8470  151.5820 N   0  0  0  0  0  1  0  0  0  0  0  0
  156.4010  213.9420  148.7460 C   0  0  0  0  0  1  0  0  0  0  0  0
  156.8770  213.5370  150.1310 C   0  0  2  0  0  3  0  0  0  0  0  0
  156.3490  214.4070  151.0840 O   0  0  0  0  0  1  0  0  0  0  0  0
  161.4200  211.2190  148.1350 C   0  0  0  0  0  2  0  0  0  0  0  0
  161.8940  209.9590  150.0650 O   0  0  0  0  0  0  0  0  0  0  0  0
  162.1430  210.1440  148.8850 C   0  0  0  0  0  0  0  0  0  0  0  0
  163.2000  209.3260  148.2130 C   0  0  0  0  0  2  0  0  0  0  0  0
  162.2300  205.7890  148.8170 C   0  0  0  0  0  2  0  0  0  0  0  0
  162.6750  207.9400  147.8640 C   0  0  1  0  0  3  0  0  0  0  0  0
  163.2730  206.8820  148.7630 C   0  0  0  0  0  2  0  0  0  0  0  0
  160.8860  206.4750  148.6230 C   0  0  1  0  0  0  0  0  0  0  0  0
  161.1820  207.8700  148.0970 C   0  0  0  0  0  2  0  0  0  0  0  0
  160.1290  205.7740  147.6810 O   0  0  0  0  0  1  0  0  0  0  0  0
  160.1250  206.5970  149.9430 C   0  0  0  0  0  2  0  0  0  0  0  0
  160.7450  205.7870  151.0830 C   0  0  1  0  0  3  0  0  0  0  0  0
  161.6520  202.2580  151.5720 C   0  0  0  0  0  2  0  0  0  0  0  0
  160.4450  203.5470  149.9410 C   0  0  0  0  0  2  0  0  0  0  0  0
  160.9950  202.1670  150.2130 C   0  0  0  0  0  2  0  0  0  0  0  0
  161.4200  204.4880  150.6200 C   0  0  0  0  0  3  0  0  0  0  0  0
  162.0860  203.7030  151.7390 C   0  0  0  0  0  2  0  0  0  0  0  0
  160.4010  205.8920  154.1330 C   0  0  0  0  0  1  0  0  0  0  0  0
  162.5910  207.2100  151.5320 O   0  0  0  0  0  0  0  0  0  0  0  0
  161.5820  206.6270  152.0150 C   0  0  0  0  0  0  0  0  0  0  0  0
  161.2490  206.8220  153.4040 N   0  0  0  0  0  0  0  0  0  0  0  0
  161.8720  207.8960  154.1650 C   0  0  0  0  0  2  0  0  0  0  0  0
  161.3610  209.8470  155.6580 C   0  0  0  0  0  2  0  0  0  0  0  0
  160.3760  210.9830  155.9850 C   0  0  0  0  0  2  0  0  0  0  0  0
  159.3350  211.1510  154.9650 N   0  0  0  0  0  2  0  0  0  0  0  0
  159.9600  211.1810  153.6440 C   0  0  0  0  0  2  0  0  0  0  0  0
  160.8470  208.9630  154.5190 C   0  0  0  0  0  3  0  0  0  0  0  0
  160.5250  209.8020  153.2800 C   0  0  0  0  0  2  0  0  0  0  0  0
  162.4030  213.0300  146.9180 C   0  0  0  0  0  2  0  0  0  0  0  0
  161.5100  212.4700  145.8010 C   0  0  0  0  0  2  0  0  0  0  0  0
  162.2980  214.4110  144.4150 C   0  0  0  0  0  2  0  0  0  0  0  0
  162.4990  213.2190  142.2590 N   0  0  0  0  0  2  0  0  0  0  0  0
  159.3740  213.5490  143.1240 C   0  0  0  0  0  2  0  0  0  0  0  0
  163.2280  213.6520  143.4540 C   0  0  0  0  0  2  0  0  0  0  0  0
  160.4690  212.9540  143.5990 C   0  0  0  0  0  0  0  0  0  0  0  0
  161.4660  212.2740  142.6770 C   0  0  1  0  0  3  0  0  0  0  0  0
  161.0870  213.5590  144.8220 C   0  0  1  0  0  3  0  0  0  0  0  0
  161.2110  211.9440  140.1420 C   0  0  2  0  0  3  0  0  0  0  0  0
  162.1860  210.9010  140.6620 C   0  0  0  0  0  2  0  0  0  0  0  0
  161.0230  211.3470  141.5250 C   0  0  1  0  0  3  0  0  0  0  0  0
  160.2180  211.3070  139.1760 C   0  0  1  0  0  3  0  0  0  0  0  0
  157.7690  211.6230  139.6720 C   0  0  0  0  0  1  0  0  0  0  0  0
  158.9880  212.2000  138.9750 C   0  0  2  0  0  3  0  0  0  0  0  0
  158.7140  212.3990  137.6210 O   0  0  0  0  0  1  0  0  0  0  0  0
  160.8730  210.8410  137.8630 C   0  0  0  0  0  2  0  0  0  0  0  0
  159.9870  209.9280  137.0230 C   0  0  0  0  0  2  0  0  0  0  0  0
  160.1770  208.6010  137.4040 O   0  0  0  0  0  1  0  0  0  0  0  0
  1  2  1  0  0  0  0
  3  2  1  0  0  0  0
  3  4  1  0  0  0  0
  4  5  1  0  0  0  0
  5  6  1  1  0  0  0
  8  7  1  6  0  0  0
  8  5  1  0  0  0  0
  8  9  1  0  0  0  0
 10  1  1  0  0  0  0
 10 12  1  0  0  0  0
 12 11  2  0  0  0  0
 13 12  1  0  0  0  0
 15 18  1  0  0  0  0
 15 13  1  1  0  0  0
 15 16  1  0  0  0  0
 16 14  1  0  0  0  0
 17 19  1  6  0  0  0
 17 14  1  0  0  0  0
 17 20  1  0  0  0  0
 18 17  1  0  0  0  0
 21 20  1  6  0  0  0
 21 29  1  0  0  0  0
 22 26  1  0  0  0  0
 23 24  1  0  0  0  0
 23 25  1  0  0  0  0
 24 22  1  0  0  0  0
 25 21  1  0  0  0  0
 25 26  1  0  0  0  0
 28 29  2  0  0  0  0
 29 30  1  0  0  0  0
 30 27  1  0  0  0  0
 30 31  1  0  0  0  0
 31 36  1  0  0  0  0
 32 33  1  0  0  0  0
 34 33  1  0  0  0  0
 35 34  1  0  0  0  0
 36 32  1  0  0  0  0
 37 35  1  0  0  0  0
 37 36  1  0  0  0  0
 38  1  1  0  0  0  0
 39 38  1  0  0  0  0
 40 46  1  0  0  0  0
 41 43  1  0  0  0  0
 42 44  2  0  0  0  0
 43 40  1  0  0  0  0
 44 46  1  0  0  0  0
 45 41  1  6  0  0  0
 45 44  1  0  0  0  0
 46 39  1  1  0  0  0
 47 50  1  6  0  0  0
 47 48  1  0  0  0  0
 47 49  1  0  0  0  0
 49 48  1  6  0  0  0
 49 45  1  0  0  0  0
 50 54  1  6  0  0  0
 52 50  1  0  0  0  0
 52 51  1  6  0  0  0
 53 52  1  0  0  0  0
 55 56  1  0  0  0  0
 55 54  1  0  0  0  0
M  END
>  <MODEL>
2

>  <REMARK>
 VINA RESULT:      -2.5      2.618      4.959
  Name = 
  23 active torsions:
  status: ('A' for Active; 'I' for Inactive)
    1  A    between atoms: C_2  and  N_3
    2  A    between atoms: C_2  and  C_24
    3  A    between atoms: N_3  and  C_16
    4  A    between atoms: N_3  and  C_53
    5  A    between atoms: C_10  and  C_32
    6  A    between atoms: C_11  and  C_16
    7  A    between atoms: C_11  and  C_32
    8  A    between atoms: C_13  and  C_28
    9  A    between atoms: C_13  and  C_50
   10  A    between atoms: C_15  and  C_27
   11  A    between atoms: C_22  and  C_31
   12  A    between atoms: C_23  and  C_29
   13  A    between atoms: C_23  and  C_46
   14  A    between atoms: C_24  and  C_52
   15  A    between atoms: C_26  and  C_37
   16  A    between atoms: C_27  and  C_31
   17  A    between atoms: C_27  and  C_40
   18  A    between atoms: C_28  and  C_38
   19  A    between atoms: C_28  and  C_47
   20  A    between atoms: C_29  and  C_39
   21  A    between atoms: C_37  and  N_51
   22  A    between atoms: C_43  and  C_54
   23  A    between atoms: C_46  and  C_53
                            x       y       z     vdW  Elec       q    Type
                         _______ _______ _______ _____ _____    ______ ____

>  <TORSDO>
F 23

$$$$
=
 OpenBabel11072412313D

 56 60  0  0  1  0  0  0  0  0999 V2000
  161.3620  208.0710  151.4910 N   0  0  0  0  0  0  0  0  0  0  0  0
  162.3860  209.0740  151.2110 C   0  0  0  0  0  2  0  0  0  0  0  0
  161.7280  210.3550  150.7350 C   0  0  0  0  0  2  0  0  0  0  0  0
  162.0420  210.5610  149.2650 C   0  0  0  0  0  2  0  0  0  0  0  0
  161.9500  212.0380  148.9040 C   0  0  1  0  0  3  0  0  0  0  0  0
  163.1570  212.4460  148.2040 N   0  0  0  0  0  1  0  0  0  0  0  0
  161.0490  212.7580  146.6460 C   0  0  0  0  0  1  0  0  0  0  0  0
  160.7040  212.3460  148.0680 C   0  0  2  0  0  3  0  0  0  0  0  0
  159.9520  213.3480  148.6790 O   0  0  0  0  0  1  0  0  0  0  0  0
  161.9760  206.7480  151.5040 C   0  0  0  0  0  2  0  0  0  0  0  0
  160.3530  205.7920  150.0930 O   0  0  0  0  0  0  0  0  0  0  0  0
  160.9730  205.6980  151.1400 C   0  0  0  0  0  0  0  0  0  0  0  0
  160.6940  204.5580  152.0680 C   0  0  0  0  0  2  0  0  0  0  0  0
  160.7460  201.1880  150.5010 C   0  0  0  0  0  2  0  0  0  0  0  0
  161.3090  203.2680  151.5470 C   0  0  1  0  0  3  0  0  0  0  0  0
  160.3260  202.1210  151.6140 C   0  0  0  0  0  2  0  0  0  0  0  0
  161.3860  202.0630  149.4330 C   0  0  1  0  0  0  0  0  0  0  0  0
  161.6640  203.4090  150.0830 C   0  0  0  0  0  2  0  0  0  0  0  0
  162.5910  201.4920  149.0140 O   0  0  0  0  0  1  0  0  0  0  0  0
  160.4470  202.2730  148.2450 C   0  0  0  0  0  2  0  0  0  0  0  0
  161.0460  201.8320  146.9080 C   0  0  1  0  0  3  0  0  0  0  0  0
  160.7090  199.2250  144.3380 C   0  0  0  0  0  2  0  0  0  0  0  0
  161.5890  199.3820  146.5700 C   0  0  0  0  0  2  0  0  0  0  0  0
  161.2700  198.3950  145.4710 C   0  0  0  0  0  2  0  0  0  0  0  0
  160.5390  200.4640  146.4270 C   0  0  0  0  0  3  0  0  0  0  0  0
  160.0810  200.4490  144.9780 C   0  0  0  0  0  2  0  0  0  0  0  0
  163.4600  203.5280  146.0580 C   0  0  0  0  0  1  0  0  0  0  0  0
  159.9560  203.0320  145.1750 O   0  0  0  0  0  0  0  0  0  0  0  0
  161.0100  202.9150  145.8600 C   0  0  0  0  0  0  0  0  0  0  0  0
  162.0990  203.8350  145.6490 N   0  0  0  0  0  0  0  0  0  0  0  0
  161.8900  205.0570  144.8840 C   0  0  0  0  0  2  0  0  0  0  0  0
  160.4600  206.2430  146.5710 C   0  0  0  0  0  2  0  0  0  0  0  0
  160.3650  207.4050  147.5750 C   0  0  0  0  0  2  0  0  0  0  0  0
  161.6510  208.0750  147.8010 N   0  0  0  0  0  2  0  0  0  0  0  0
  162.6770  207.0670  148.0560 C   0  0  0  0  0  2  0  0  0  0  0  0
  161.7890  206.2580  145.8140 C   0  0  0  0  0  3  0  0  0  0  0  0
  162.9720  206.2590  146.7850 C   0  0  0  0  0  2  0  0  0  0  0  0
  160.7090  208.3240  152.7840 C   0  0  0  0  0  2  0  0  0  0  0  0
  161.6660  208.3950  153.9830 C   0  0  0  0  0  2  0  0  0  0  0  0
  161.8920  208.6190  156.4740 C   0  0  0  0  0  2  0  0  0  0  0  0
  161.6330  211.0740  156.6120 N   0  0  0  0  0  2  0  0  0  0  0  0
  158.8210  209.6460  155.7820 C   0  0  0  0  0  2  0  0  0  0  0  0
  162.6050  209.9810  156.5250 C   0  0  0  0  0  2  0  0  0  0  0  0
  160.0510  209.7660  155.2790 C   0  0  0  0  0  0  0  0  0  0  0  0
  160.8310  211.0640  155.3890 C   0  0  1  0  0  3  0  0  0  0  0  0
  160.9080  208.5380  155.2970 C   0  0  1  0  0  3  0  0  0  0  0  0
  158.7710  212.5820  155.6250 C   0  0  2  0  0  3  0  0  0  0  0  0
  159.9270  213.2300  156.3690 C   0  0  0  0  0  2  0  0  0  0  0  0
  160.1890  212.4390  155.1030 C   0  0  1  0  0  3  0  0  0  0  0  0
  158.0260  213.6200  154.7920 C   0  0  1  0  0  3  0  0  0  0  0  0
  157.2190  214.2180  152.4830 C   0  0  0  0  0  1  0  0  0  0  0  0
  158.1010  213.2890  153.2980 C   0  0  2  0  0  3  0  0  0  0  0  0
  157.7530  211.9600  153.0490 O   0  0  0  0  0  1  0  0  0  0  0  0
  156.6000  213.8870  155.3030 C   0  0  0  0  0  2  0  0  0  0  0  0
  156.2960  213.2380  156.6480 C   0  0  0  0  0  2  0  0  0  0  0  0
  155.4810  212.1210  156.4630 O   0  0  0  0  0  1  0  0  0  0  0  0
  1 10  1  0  0  0  0
  1 38  1  0  0  0  0
  2  1  1  0  0  0  0
  3  2  1  0  0  0  0
  4  3  1  0  0  0  0
  5  6  1  6  0  0  0
  5  4  1  0  0  0  0
  8  7  1  6  0  0  0
  8  9  1  0  0  0  0
  8  5  1  0  0  0  0
 11 12  2  0  0  0  0
 12 10  1  0  0  0  0
 12 13  1  0  0  0  0
 14 16  1  0  0  0  0
 15 16  1  0  0  0  0
 15 13  1  6  0  0  0
 17 19  1  6  0  0  0
 17 18  1  0  0  0  0
 17 14  1  0  0  0  0
 18 15  1  0  0  0  0
 20 17  1  0  0  0  0
 21 20  1  1  0  0  0
 22 26  1  0  0  0  0
 22 24  1  0  0  0  0
 24 23  1  0  0  0  0
 25 23  1  0  0  0  0
 25 21  1  0  0  0  0
 26 25  1  0  0  0  0
 28 29  2  0  0  0  0
 29 21  1  0  0  0  0
 30 29  1  0  0  0  0
 30 27  1  0  0  0  0
 31 30  1  0  0  0  0
 31 36  1  0  0  0  0
 32 33  1  0  0  0  0
 33 34  1  0  0  0  0
 34 35  1  0  0  0  0
 36 32  1  0  0  0  0
 36 37  1  0  0  0  0
 37 35  1  0  0  0  0
 38 39  1  0  0  0  0
 40 43  1  0  0  0  0
 43 41  1  0  0  0  0
 44 46  1  0  0  0  0
 44 42  2  0  0  0  0
 45 44  1  1  0  0  0
 45 41  1  0  0  0  0
 46 39  1  6  0  0  0
 46 40  1  0  0  0  0
 47 50  1  6  0  0  0
 47 48  1  0  0  0  0
 49 45  1  0  0  0  0
 49 47  1  0  0  0  0
 49 48  1  1  0  0  0
 50 54  1  1  0  0  0
 52 51  1  6  0  0  0
 52 50  1  0  0  0  0
 53 52  1  0  0  0  0
 54 55  1  0  0  0  0
 56 55  1  0  0  0  0
M  END
>  <MODEL>
3

>  <REMARK>
 VINA RESULT:      -2.2      2.913      7.788
  Name = 
  23 active torsions:
  status: ('A' for Active; 'I' for Inactive)
    1  A    between atoms: C_2  and  N_3
    2  A    between atoms: C_2  and  C_24
    3  A    between atoms: N_3  and  C_16
    4  A    between atoms: N_3  and  C_53
    5  A    between atoms: C_10  and  C_32
    6  A    between atoms: C_11  and  C_16
    7  A    between atoms: C_11  and  C_32
    8  A    between atoms: C_13  and  C_28
    9  A    between atoms: C_13  and  C_50
   10  A    between atoms: C_15  and  C_27
   11  A    between atoms: C_22  and  C_31
   12  A    between atoms: C_23  and  C_29
   13  A    between atoms: C_23  and  C_46
   14  A    between atoms: C_24  and  C_52
   15  A    between atoms: C_26  and  C_37
   16  A    between atoms: C_27  and  C_31
   17  A    between atoms: C_27  and  C_40
   18  A    between atoms: C_28  and  C_38
   19  A    between atoms: C_28  and  C_47
   20  A    between atoms: C_29  and  C_39
   21  A    between atoms: C_37  and  N_51
   22  A    between atoms: C_43  and  C_54
   23  A    between atoms: C_46  and  C_53
                            x       y       z     vdW  Elec       q    Type
                         _______ _______ _______ _____ _____    ______ ____

>  <TORSDO>
F 23

$$$$
=
 OpenBabel11072412313D

 56 60  0  0  1  0  0  0  0  0999 V2000
  161.3700  205.8530  144.2570 N   0  0  0  0  0  0  0  0  0  0  0  0
  161.0930  204.5330  143.6960 C   0  0  0  0  0  2  0  0  0  0  0  0
  160.2820  203.7190  144.6850 C   0  0  0  0  0  2  0  0  0  0  0  0
  161.2010  202.7550  145.4130 C   0  0  0  0  0  2  0  0  0  0  0  0
  160.4490  201.4870  145.7930 C   0  0  1  0  0  3  0  0  0  0  0  0
  159.7540  200.9630  144.6280 N   0  0  0  0  0  1  0  0  0  0  0  0
  161.2010  199.0650  145.7450 C   0  0  0  0  0  1  0  0  0  0  0  0
  161.3790  200.4280  146.3940 C   0  0  2  0  0  3  0  0  0  0  0  0
  161.1650  200.3280  147.7680 O   0  0  0  0  0  1  0  0  0  0  0  0
  162.5870  205.7900  145.0580 C   0  0  0  0  0  2  0  0  0  0  0  0
  162.1820  204.7200  147.1150 O   0  0  0  0  0  0  0  0  0  0  0  0
  162.2580  205.7820  146.5180 C   0  0  0  0  0  0  0  0  0  0  0  0
  161.9800  207.0610  147.2420 C   0  0  0  0  0  2  0  0  0  0  0  0
  162.5470  206.9570  150.9140 C   0  0  0  0  0  2  0  0  0  0  0  0
  161.6420  206.7980  148.7020 C   0  0  1  0  0  3  0  0  0  0  0  0
  162.8850  206.5050  149.5120 C   0  0  0  0  0  2  0  0  0  0  0  0
  161.5420  208.0900  150.7630 C   0  0  1  0  0  0  0  0  0  0  0  0
  161.0340  208.0330  149.3310 C   0  0  0  0  0  2  0  0  0  0  0  0
  160.4740  207.8940  151.6430 O   0  0  0  0  0  1  0  0  0  0  0  0
  162.1930  209.4520  151.0020 C   0  0  0  0  0  2  0  0  0  0  0  0
  161.1840  210.5860  151.1920 C   0  0  1  0  0  3  0  0  0  0  0  0
  159.8550  210.0430  154.5760 C   0  0  0  0  0  2  0  0  0  0  0  0
  162.0170  210.3560  153.5720 C   0  0  0  0  0  2  0  0  0  0  0  0
  161.3160  210.2530  154.9070 C   0  0  0  0  0  2  0  0  0  0  0  0
  161.0010  211.0090  152.6570 C   0  0  0  0  0  3  0  0  0  0  0  0
  159.6270  210.6950  153.2250 C   0  0  0  0  0  2  0  0  0  0  0  0
  159.6470  213.2430  151.2700 C   0  0  0  0  0  1  0  0  0  0  0  0
  162.3760  211.6580  149.4410 O   0  0  0  0  0  0  0  0  0  0  0  0
  161.3970  211.7310  150.2340 C   0  0  0  0  0  0  0  0  0  0  0  0
  160.5090  212.8640  150.1610 N   0  0  0  0  0  0  0  0  0  0  0  0
  160.5510  213.7570  149.0110 C   0  0  0  0  0  2  0  0  0  0  0  0
  158.5950  213.3200  147.5000 C   0  0  0  0  0  2  0  0  0  0  0  0
  158.1090  212.6640  146.1960 C   0  0  0  0  0  2  0  0  0  0  0  0
  159.2080  212.1800  145.3530 N   0  0  0  0  0  2  0  0  0  0  0  0
  160.2130  213.2340  145.2250 C   0  0  0  0  0  2  0  0  0  0  0  0
  160.0770  213.0360  147.7580 C   0  0  0  0  0  3  0  0  0  0  0  0
  160.9310  213.4630  146.5620 C   0  0  0  0  0  2  0  0  0  0  0  0
  161.5300  206.8590  143.1960 C   0  0  0  0  0  2  0  0  0  0  0  0
  161.7310  206.2800  141.7880 C   0  0  0  0  0  2  0  0  0  0  0  0
  163.3280  206.2750  139.8490 C   0  0  0  0  0  2  0  0  0  0  0  0
  161.8080  207.2570  138.1650 N   0  0  0  0  0  2  0  0  0  0  0  0
  162.6470  209.4660  140.4110 C   0  0  0  0  0  2  0  0  0  0  0  0
  162.3240  206.0020  138.7170 C   0  0  0  0  0  2  0  0  0  0  0  0
  162.0010  208.3000  140.3700 C   0  0  0  0  0  0  0  0  0  0  0  0
  161.0710  207.9480  139.2220 C   0  0  1  0  0  3  0  0  0  0  0  0
  162.7030  207.1200  140.9690 C   0  0  1  0  0  3  0  0  0  0  0  0
  160.6500  210.2490  138.1600 C   0  0  2  0  0  3  0  0  0  0  0  0
  160.2170  209.1800  137.1690 C   0  0  0  0  0  2  0  0  0  0  0  0
  160.0420  208.9500  138.6570 C   0  0  1  0  0  3  0  0  0  0  0  0
  159.6070  211.3580  138.2350 C   0  0  1  0  0  3  0  0  0  0  0  0
  158.0240  212.6090  139.7420 C   0  0  0  0  0  1  0  0  0  0  0  0
  158.9690  211.4270  139.6270 C   0  0  2  0  0  3  0  0  0  0  0  0
  159.9370  211.4900  140.6310 O   0  0  0  0  0  1  0  0  0  0  0  0
  160.1310  212.7100  137.7190 C   0  0  0  0  0  2  0  0  0  0  0  0
  161.6090  212.9460  138.0050 C   0  0  0  0  0  2  0  0  0  0  0  0
  161.7530  213.7190  139.1560 O   0  0  0  0  0  1  0  0  0  0  0  0
  1 10  1  0  0  0  0
  2  1  1  0  0  0  0
  2  3  1  0  0  0  0
  3  4  1  0  0  0  0
  4  5  1  0  0  0  0
  5  6  1  6  0  0  0
  5  8  1  0  0  0  0
  8  7  1  6  0  0  0
  8  9  1  0  0  0  0
 10 12  1  0  0  0  0
 12 11  2  0  0  0  0
 12 13  1  0  0  0  0
 15 13  1  6  0  0  0
 15 18  1  0  0  0  0
 15 16  1  0  0  0  0
 16 14  1  0  0  0  0
 17 14  1  0  0  0  0
 17 20  1  0  0  0  0
 17 19  1  1  0  0  0
 18 17  1  0  0  0  0
 21 20  1  1  0  0  0
 21 25  1  0  0  0  0
 22 24  1  0  0  0  0
 23 24  1  0  0  0  0
 25 26  1  0  0  0  0
 25 23  1  0  0  0  0
 26 22  1  0  0  0  0
 28 29  2  0  0  0  0
 29 21  1  0  0  0  0
 30 29  1  0  0  0  0
 30 27  1  0  0  0  0
 31 30  1  0  0  0  0
 32 36  1  0  0  0  0
 33 32  1  0  0  0  0
 34 33  1  0  0  0  0
 35 34  1  0  0  0  0
 35 37  1  0  0  0  0
 36 31  1  0  0  0  0
 37 36  1  0  0  0  0
 38  1  1  0  0  0  0
 39 38  1  0  0  0  0
 40 46  1  0  0  0  0
 41 43  1  0  0  0  0
 43 40  1  0  0  0  0
 44 42  2  0  0  0  0
 44 46  1  0  0  0  0
 45 41  1  6  0  0  0
 45 44  1  0  0  0  0
 46 39  1  6  0  0  0
 47 50  1  6  0  0  0
 47 49  1  0  0  0  0
 48 47  1  0  0  0  0
 49 48  1  6  0  0  0
 49 45  1  0  0  0  0
 50 54  1  1  0  0  0
 50 52  1  0  0  0  0
 52 51  1  6  0  0  0
 52 53  1  0  0  0  0
 54 55  1  0  0  0  0
 55 56  1  0  0  0  0
M  END
>  <MODEL>
4

>  <REMARK>
 VINA RESULT:      -2.1      3.081      9.171
  Name = 
  23 active torsions:
  status: ('A' for Active; 'I' for Inactive)
    1  A    between atoms: C_2  and  N_3
    2  A    between atoms: C_2  and  C_24
    3  A    between atoms: N_3  and  C_16
    4  A    between atoms: N_3  and  C_53
    5  A    between atoms: C_10  and  C_32
    6  A    between atoms: C_11  and  C_16
    7  A    between atoms: C_11  and  C_32
    8  A    between atoms: C_13  and  C_28
    9  A    between atoms: C_13  and  C_50
   10  A    between atoms: C_15  and  C_27
   11  A    between atoms: C_22  and  C_31
   12  A    between atoms: C_23  and  C_29
   13  A    between atoms: C_23  and  C_46
   14  A    between atoms: C_24  and  C_52
   15  A    between atoms: C_26  and  C_37
   16  A    between atoms: C_27  and  C_31
   17  A    between atoms: C_27  and  C_40
   18  A    between atoms: C_28  and  C_38
   19  A    between atoms: C_28  and  C_47
   20  A    between atoms: C_29  and  C_39
   21  A    between atoms: C_37  and  N_51
   22  A    between atoms: C_43  and  C_54
   23  A    between atoms: C_46  and  C_53
                            x       y       z     vdW  Elec       q    Type
                         _______ _______ _______ _____ _____    ______ ____

>  <TORSDO>
F 23

$$$$
=
 OpenBabel11072412313D

 56 60  0  0  1  0  0  0  0  0999 V2000
  161.1990  208.9330  151.5620 N   0  0  0  0  0  0  0  0  0  0  0  0
  161.5540  209.1890  152.9540 C   0  0  0  0  0  2  0  0  0  0  0  0
  161.3570  210.6600  153.2680 C   0  0  0  0  0  2  0  0  0  0  0  0
  159.8770  210.9350  153.4610 C   0  0  0  0  0  2  0  0  0  0  0  0
  159.6140  212.4350  153.4880 C   0  0  1  0  0  3  0  0  0  0  0  0
  158.8620  212.8210  152.3050 N   0  0  0  0  0  1  0  0  0  0  0  0
  159.5580  212.3440  156.0210 C   0  0  0  0  0  1  0  0  0  0  0  0
  158.8820  212.8650  154.7630 C   0  0  2  0  0  3  0  0  0  0  0  0
  157.5580  212.4300  154.7250 O   0  0  0  0  0  1  0  0  0  0  0  0
  162.1310  209.6380  150.6890 C   0  0  0  0  0  2  0  0  0  0  0  0
  161.4580  208.1140  149.0270 O   0  0  0  0  0  0  0  0  0  0  0  0
  161.9550  209.2030  149.2680 C   0  0  0  0  0  0  0  0  0  0  0  0
  162.4230  210.0700  148.1430 C   0  0  0  0  0  2  0  0  0  0  0  0
  162.9110  213.7430  147.8510 C   0  0  0  0  0  2  0  0  0  0  0  0
  162.1920  211.5410  148.4570 C   0  0  1  0  0  3  0  0  0  0  0  0
  163.4310  212.3650  148.1890 C   0  0  0  0  0  2  0  0  0  0  0  0
  161.5380  213.5380  147.2290 C   0  0  1  0  0  0  0  0  0  0  0  0
  161.1240  212.1100  147.5480 C   0  0  0  0  0  2  0  0  0  0  0  0
  160.6220  214.4250  147.8010 O   0  0  0  0  0  1  0  0  0  0  0  0
  161.5790  213.7130  145.7110 C   0  0  0  0  0  2  0  0  0  0  0  0
  160.3480  213.1490  144.9980 C   0  0  1  0  0  3  0  0  0  0  0  0
  157.3240  214.3500  143.2860 C   0  0  0  0  0  2  0  0  0  0  0  0
  157.9620  213.8040  145.5380 C   0  0  0  0  0  2  0  0  0  0  0  0
  156.8460  214.4080  144.7200 C   0  0  0  0  0  2  0  0  0  0  0  0
  159.2280  214.1800  144.7960 C   0  0  0  0  0  3  0  0  0  0  0  0
  158.8400  214.3960  143.3420 C   0  0  0  0  0  2  0  0  0  0  0  0
  162.6110  213.8460  143.0430 C   0  0  0  0  0  1  0  0  0  0  0  0
  160.1190  211.2430  143.6030 O   0  0  0  0  0  0  0  0  0  0  0  0
  160.6950  212.3540  143.7640 C   0  0  0  0  0  0  0  0  0  0  0  0
  161.6090  212.8320  142.7580 N   0  0  0  0  0  0  0  0  0  0  0  0
  161.6480  212.2050  141.4440 C   0  0  0  0  0  2  0  0  0  0  0  0
  159.9580  213.2910  139.9400 C   0  0  0  0  0  2  0  0  0  0  0  0
  158.5750  213.1730  139.2760 C   0  0  0  0  0  2  0  0  0  0  0  0
  157.9790  211.8400  139.4250 N   0  0  0  0  0  2  0  0  0  0  0  0
  158.9710  210.8290  139.0640 C   0  0  0  0  0  2  0  0  0  0  0  0
  160.2470  212.1030  140.8600 C   0  0  0  0  0  3  0  0  0  0  0  0
  160.0960  210.7790  140.1060 C   0  0  0  0  0  2  0  0  0  0  0  0
  161.2350  207.4940  151.2600 C   0  0  0  0  0  2  0  0  0  0  0  0
  160.5700  206.5990  152.3180 C   0  0  0  0  0  2  0  0  0  0  0  0
  160.5280  204.2550  153.2170 C   0  0  0  0  0  2  0  0  0  0  0  0
  160.3940  203.0710  151.0520 N   0  0  0  0  0  2  0  0  0  0  0  0
  163.3180  204.4590  151.4460 C   0  0  0  0  0  2  0  0  0  0  0  0
  159.6100  203.6140  152.1640 C   0  0  0  0  0  2  0  0  0  0  0  0
  162.0460  204.8510  151.3540 C   0  0  0  0  0  0  0  0  0  0  0  0
  161.0770  204.1830  150.3940 C   0  0  1  0  0  3  0  0  0  0  0  0
  161.4060  205.3590  152.6080 C   0  0  1  0  0  3  0  0  0  0  0  0
  160.8560  204.7920  147.9070 C   0  0  2  0  0  3  0  0  0  0  0  0
  162.3180  204.9280  148.3030 C   0  0  0  0  0  2  0  0  0  0  0  0
  161.4590  203.8510  148.9350 C   0  0  1  0  0  3  0  0  0  0  0  0
  160.7330  204.0700  146.5700 C   0  0  1  0  0  3  0  0  0  0  0  0
  162.3510  205.6380  145.4440 C   0  0  0  0  0  1  0  0  0  0  0  0
  160.9600  205.0310  145.3980 C   0  0  2  0  0  3  0  0  0  0  0  0
  159.9980  206.0430  145.3720 O   0  0  0  0  0  1  0  0  0  0  0  0
  161.5820  202.7880  146.5000 C   0  0  0  0  0  2  0  0  0  0  0  0
  160.7610  201.5150  146.3290 C   0  0  0  0  0  2  0  0  0  0  0  0
  161.1680  200.5590  147.2590 O   0  0  0  0  0  1  0  0  0  0  0  0
  1  2  1  0  0  0  0
  2  3  1  0  0  0  0
  3  4  1  0  0  0  0
  4  5  1  0  0  0  0
  5  6  1  6  0  0  0
  5  8  1  0  0  0  0
  8  7  1  1  0  0  0
  9  8  1  0  0  0  0
 10  1  1  0  0  0  0
 11 12  2  0  0  0  0
 12 10  1  0  0  0  0
 13 12  1  0  0  0  0
 14 16  1  0  0  0  0
 15 13  1  6  0  0  0
 16 15  1  0  0  0  0
 17 18  1  0  0  0  0
 17 19  1  1  0  0  0
 17 14  1  0  0  0  0
 18 15  1  0  0  0  0
 20 17  1  0  0  0  0
 21 20  1  6  0  0  0
 22 26  1  0  0  0  0
 22 24  1  0  0  0  0
 24 23  1  0  0  0  0
 25 21  1  0  0  0  0
 25 23  1  0  0  0  0
 26 25  1  0  0  0  0
 28 29  2  0  0  0  0
 29 21  1  0  0  0  0
 30 27  1  0  0  0  0
 30 29  1  0  0  0  0
 31 30  1  0  0  0  0
 32 36  1  0  0  0  0
 33 34  1  0  0  0  0
 33 32  1  0  0  0  0
 35 34  1  0  0  0  0
 35 37  1  0  0  0  0
 36 31  1  0  0  0  0
 37 36  1  0  0  0  0
 38  1  1  0  0  0  0
 38 39  1  0  0  0  0
 41 43  1  0  0  0  0
 43 40  1  0  0  0  0
 44 42  2  0  0  0  0
 44 46  1  0  0  0  0
 45 41  1  1  0  0  0
 45 44  1  0  0  0  0
 46 39  1  6  0  0  0
 46 40  1  0  0  0  0
 47 50  1  6  0  0  0
 47 48  1  0  0  0  0
 47 49  1  0  0  0  0
 49 48  1  1  0  0  0
 49 45  1  0  0  0  0
 50 54  1  1  0  0  0
 52 51  1  1  0  0  0
 52 50  1  0  0  0  0
 53 52  1  0  0  0  0
 55 54  1  0  0  0  0
 55 56  1  0  0  0  0
M  END
>  <MODEL>
5

>  <REMARK>
 VINA RESULT:      -2.1      2.398     10.093
  Name = 
  23 active torsions:
  status: ('A' for Active; 'I' for Inactive)
    1  A    between atoms: C_2  and  N_3
    2  A    between atoms: C_2  and  C_24
    3  A    between atoms: N_3  and  C_16
    4  A    between atoms: N_3  and  C_53
    5  A    between atoms: C_10  and  C_32
    6  A    between atoms: C_11  and  C_16
    7  A    between atoms: C_11  and  C_32
    8  A    between atoms: C_13  and  C_28
    9  A    between atoms: C_13  and  C_50
   10  A    between atoms: C_15  and  C_27
   11  A    between atoms: C_22  and  C_31
   12  A    between atoms: C_23  and  C_29
   13  A    between atoms: C_23  and  C_46
   14  A    between atoms: C_24  and  C_52
   15  A    between atoms: C_26  and  C_37
   16  A    between atoms: C_27  and  C_31
   17  A    between atoms: C_27  and  C_40
   18  A    between atoms: C_28  and  C_38
   19  A    between atoms: C_28  and  C_47
   20  A    between atoms: C_29  and  C_39
   21  A    between atoms: C_37  and  N_51
   22  A    between atoms: C_43  and  C_54
   23  A    between atoms: C_46  and  C_53
                            x       y       z     vdW  Elec       q    Type
                         _______ _______ _______ _____ _____    ______ ____

>  <TORSDO>
F 23

$$$$
=
 OpenBabel11072412313D

 56 60  0  0  1  0  0  0  0  0999 V2000
  161.2690  205.3220  144.1880 N   0  0  0  0  0  0  0  0  0  0  0  0
  161.9730  204.4910  145.1600 C   0  0  0  0  0  2  0  0  0  0  0  0
  161.2160  203.1930  145.3640 C   0  0  0  0  0  2  0  0  0  0  0  0
  161.8650  202.4070  146.4880 C   0  0  0  0  0  2  0  0  0  0  0  0
  160.8330  201.5370  147.1940 C   0  0  1  0  0  3  0  0  0  0  0  0
  161.4500  200.2890  147.6120 N   0  0  0  0  0  1  0  0  0  0  0  0
  161.2100  203.0710  149.1780 C   0  0  0  0  0  1  0  0  0  0  0  0
  160.1980  202.2580  148.3870 C   0  0  2  0  0  3  0  0  0  0  0  0
  159.5750  201.3350  149.2270 O   0  0  0  0  0  1  0  0  0  0  0  0
  160.8050  206.5400  144.8420 C   0  0  0  0  0  2  0  0  0  0  0  0
  160.0600  205.2280  146.6480 O   0  0  0  0  0  0  0  0  0  0  0  0
  160.5430  206.2920  146.2950 C   0  0  0  0  0  0  0  0  0  0  0  0
  160.8260  207.3520  147.3110 C   0  0  0  0  0  2  0  0  0  0  0  0
  162.9140  207.4830  150.3830 C   0  0  0  0  0  2  0  0  0  0  0  0
  161.6840  206.8060  148.4430 C   0  0  1  0  0  3  0  0  0  0  0  0
  162.6720  207.8400  148.9340 C   0  0  0  0  0  2  0  0  0  0  0  0
  161.6350  206.8220  150.8770 C   0  0  1  0  0  0  0  0  0  0  0  0
  160.8220  206.4710  149.6410 C   0  0  0  0  0  2  0  0  0  0  0  0
  161.9460  205.6530  151.5760 O   0  0  0  0  0  1  0  0  0  0  0  0
  160.8170  207.7710  151.7520 C   0  0  0  0  0  2  0  0  0  0  0  0
  161.4420  209.1600  151.8980 C   0  0  1  0  0  3  0  0  0  0  0  0
  160.0580  212.5650  151.9310 C   0  0  0  0  0  2  0  0  0  0  0  0
  161.4420  211.2510  150.4700 C   0  0  0  0  0  2  0  0  0  0  0  0
  160.7060  212.5670  150.5650 C   0  0  0  0  0  2  0  0  0  0  0  0
  160.6000  210.2830  151.2760 C   0  0  0  0  0  3  0  0  0  0  0  0
  159.8250  211.1090  152.2900 C   0  0  0  0  0  2  0  0  0  0  0  0
  160.7060  207.5020  154.3750 C   0  0  0  0  0  1  0  0  0  0  0  0
  162.8140  210.3280  153.4430 O   0  0  0  0  0  0  0  0  0  0  0  0
  161.9260  209.4440  153.2980 C   0  0  0  0  0  0  0  0  0  0  0  0
  161.3850  208.7850  154.4600 N   0  0  0  0  0  0  0  0  0  0  0  0
  161.6270  209.3270  155.7900 C   0  0  0  0  0  2  0  0  0  0  0  0
  160.8100  211.6980  155.7190 C   0  0  0  0  0  2  0  0  0  0  0  0
  159.6570  212.6630  156.0460 C   0  0  0  0  0  2  0  0  0  0  0  0
  158.4290  211.9730  156.4530 N   0  0  0  0  0  2  0  0  0  0  0  0
  158.1420  210.9040  155.4980 C   0  0  0  0  0  2  0  0  0  0  0  0
  160.5070  210.2750  156.1920 C   0  0  0  0  0  3  0  0  0  0  0  0
  159.1780  209.7790  155.6160 C   0  0  0  0  0  2  0  0  0  0  0  0
  162.1420  205.6730  143.0570 C   0  0  0  0  0  2  0  0  0  0  0  0
  161.4780  206.5460  141.9810 C   0  0  0  0  0  2  0  0  0  0  0  0
  163.2860  206.3860  140.2450 C   0  0  0  0  0  2  0  0  0  0  0  0
  161.9390  207.0930  138.2970 N   0  0  0  0  0  2  0  0  0  0  0  0
  162.4450  209.5870  140.3350 C   0  0  0  0  0  2  0  0  0  0  0  0
  162.4280  205.9360  139.0510 C   0  0  0  0  0  2  0  0  0  0  0  0
  161.8450  208.3960  140.3670 C   0  0  0  0  0  0  0  0  0  0  0  0
  161.0650  207.8690  139.1750 C   0  0  1  0  0  3  0  0  0  0  0  0
  162.5100  207.3280  141.1780 C   0  0  1  0  0  3  0  0  0  0  0  0
  159.9430  210.1660  138.9130 C   0  0  2  0  0  3  0  0  0  0  0  0
  160.7670  209.8930  137.6650 C   0  0  0  0  0  2  0  0  0  0  0  0
  160.0760  208.7510  138.3820 C   0  0  1  0  0  3  0  0  0  0  0  0
  158.5750  210.7240  138.5360 C   0  0  1  0  0  3  0  0  0  0  0  0
  156.8370  209.4920  137.1930 C   0  0  0  0  0  1  0  0  0  0  0  0
  157.5060  209.6250  138.5490 C   0  0  2  0  0  3  0  0  0  0  0  0
  156.5460  209.8570  139.5350 O   0  0  0  0  0  1  0  0  0  0  0  0
  158.1950  211.9770  139.3440 C   0  0  0  0  0  2  0  0  0  0  0  0
  159.1730  212.3080  140.4640 C   0  0  0  0  0  2  0  0  0  0  0  0
  158.5460  213.1030  141.4230 O   0  0  0  0  0  1  0  0  0  0  0  0
  1 10  1  0  0  0  0
  1  2  1  0  0  0  0
  2  3  1  0  0  0  0
  3  4  1  0  0  0  0
  4  5  1  0  0  0  0
  5  6  1  1  0  0  0
  5  8  1  0  0  0  0
  8  7  1  1  0  0  0
  8  9  1  0  0  0  0
 10 12  1  0  0  0  0
 12 11  2  0  0  0  0
 12 13  1  0  0  0  0
 14 17  1  0  0  0  0
 15 13  1  6  0  0  0
 15 16  1  0  0  0  0
 15 18  1  0  0  0  0
 16 14  1  0  0  0  0
 17 19  1  1  0  0  0
 17 20  1  0  0  0  0
 18 17  1  0  0  0  0
 21 20  1  1  0  0  0
 21 29  1  0  0  0  0
 22 26  1  0  0  0  0
 23 24  1  0  0  0  0
 23 25  1  0  0  0  0
 24 22  1  0  0  0  0
 25 21  1  0  0  0  0
 25 26  1  0  0  0  0
 27 30  1  0  0  0  0
 29 28  2  0  0  0  0
 29 30  1  0  0  0  0
 30 31  1  0  0  0  0
 31 36  1  0  0  0  0
 32 33  1  0  0  0  0
 32 36  1  0  0  0  0
 33 34  1  0  0  0  0
 35 37  1  0  0  0  0
 35 34  1  0  0  0  0
 37 36  1  0  0  0  0
 38  1  1  0  0  0  0
 39 38  1  0  0  0  0
 40 46  1  0  0  0  0
 41 43  1  0  0  0  0
 42 44  2  0  0  0  0
 43 40  1  0  0  0  0
 44 46  1  0  0  0  0
 45 41  1  6  0  0  0
 45 44  1  0  0  0  0
 46 39  1  6  0  0  0
 47 50  1  6  0  0  0
 48 47  1  0  0  0  0
 49 48  1  6  0  0  0
 49 47  1  0  0  0  0
 49 45  1  0  0  0  0
 50 52  1  0  0  0  0
 50 54  1  1  0  0  0
 52 51  1  6  0  0  0
 52 53  1  0  0  0  0
 54 55  1  0  0  0  0
 55 56  1  0  0  0  0
M  END
>  <MODEL>
6

>  <REMARK>
 VINA RESULT:      -1.8      3.105      8.339
  Name = 
  23 active torsions:
  status: ('A' for Active; 'I' for Inactive)
    1  A    between atoms: C_2  and  N_3
    2  A    between atoms: C_2  and  C_24
    3  A    between atoms: N_3  and  C_16
    4  A    between atoms: N_3  and  C_53
    5  A    between atoms: C_10  and  C_32
    6  A    between atoms: C_11  and  C_16
    7  A    between atoms: C_11  and  C_32
    8  A    between atoms: C_13  and  C_28
    9  A    between atoms: C_13  and  C_50
   10  A    between atoms: C_15  and  C_27
   11  A    between atoms: C_22  and  C_31
   12  A    between atoms: C_23  and  C_29
   13  A    between atoms: C_23  and  C_46
   14  A    between atoms: C_24  and  C_52
   15  A    between atoms: C_26  and  C_37
   16  A    between atoms: C_27  and  C_31
   17  A    between atoms: C_27  and  C_40
   18  A    between atoms: C_28  and  C_38
   19  A    between atoms: C_28  and  C_47
   20  A    between atoms: C_29  and  C_39
   21  A    between atoms: C_37  and  N_51
   22  A    between atoms: C_43  and  C_54
   23  A    between atoms: C_46  and  C_53
                            x       y       z     vdW  Elec       q    Type
                         _______ _______ _______ _____ _____    ______ ____

>  <TORSDO>
F 23

$$$$
=
 OpenBabel11072412313D

 56 60  0  0  1  0  0  0  0  0999 V2000
  159.7120  210.7800  152.5090 N   0  0  0  0  0  0  0  0  0  0  0  0
  160.1900  211.4480  153.7150 C   0  0  0  0  0  2  0  0  0  0  0  0
  159.2460  212.5760  154.0820 C   0  0  0  0  0  2  0  0  0  0  0  0
  157.8750  212.2900  153.4980 C   0  0  0  0  0  2  0  0  0  0  0  0
  156.9070  213.4170  153.8370 C   0  0  1  0  0  3  0  0  0  0  0  0
  156.2500  213.8770  152.6240 N   0  0  0  0  0  1  0  0  0  0  0  0
  156.2380  213.4710  156.2820 C   0  0  0  0  0  1  0  0  0  0  0  0
  155.8760  212.9900  154.8860 C   0  0  2  0  0  3  0  0  0  0  0  0
  155.7410  211.6020  154.8870 O   0  0  0  0  0  1  0  0  0  0  0  0
  159.9880  211.6220  151.3500 C   0  0  0  0  0  2  0  0  0  0  0  0
  162.1910  210.7940  151.3840 O   0  0  0  0  0  0  0  0  0  0  0  0
  161.2730  211.2180  150.6990 C   0  0  0  0  0  0  0  0  0  0  0  0
  161.4590  211.3700  149.2220 C   0  0  0  0  0  2  0  0  0  0  0  0
  159.7690  213.8960  147.0840 C   0  0  0  0  0  2  0  0  0  0  0  0
  160.2880  212.1180  148.6000 C   0  0  1  0  0  3  0  0  0  0  0  0
  160.6670  213.5380  148.2450 C   0  0  0  0  0  2  0  0  0  0  0  0
  159.4740  212.5930  146.3560 C   0  0  1  0  0  0  0  0  0  0  0  0
  159.8850  211.4680  147.2940 C   0  0  0  0  0  2  0  0  0  0  0  0
  158.1060  212.4980  146.0900 O   0  0  0  0  0  1  0  0  0  0  0  0
  160.2830  212.4770  145.0640 C   0  0  0  0  0  2  0  0  0  0  0  0
  160.2670  213.7510  144.2180 C   0  0  1  0  0  3  0  0  0  0  0  0
  163.9270  213.7130  144.5620 C   0  0  0  0  0  2  0  0  0  0  0  0
  162.3380  214.0130  142.7840 C   0  0  0  0  0  2  0  0  0  0  0  0
  163.8130  214.0930  143.1020 C   0  0  0  0  0  2  0  0  0  0  0  0
  161.6470  214.4110  144.0710 C   0  0  0  0  0  3  0  0  0  0  0  0
  162.6070  214.0950  145.2060 C   0  0  0  0  0  2  0  0  0  0  0  0
  160.6490  211.4270  142.2490 C   0  0  0  0  0  1  0  0  0  0  0  0
  158.5510  214.3750  142.7020 O   0  0  0  0  0  0  0  0  0  0  0  0
  159.5130  213.5890  142.9220 C   0  0  0  0  0  0  0  0  0  0  0  0
  159.8750  212.6140  141.9240 N   0  0  0  0  0  0  0  0  0  0  0  0
  159.3510  212.7210  140.5690 C   0  0  0  0  0  2  0  0  0  0  0  0
  159.1760  211.1410  138.6270 C   0  0  0  0  0  2  0  0  0  0  0  0
  159.9400  210.2750  137.6120 C   0  0  0  0  0  2  0  0  0  0  0  0
  161.3870  210.5140  137.6280 N   0  0  0  0  0  2  0  0  0  0  0  0
  161.6360  211.9540  137.5850 C   0  0  0  0  0  2  0  0  0  0  0  0
  160.1220  211.8120  139.6250 C   0  0  0  0  0  3  0  0  0  0  0  0
  161.2010  212.6180  138.8970 C   0  0  0  0  0  2  0  0  0  0  0  0
  160.3600  209.4720  152.3320 C   0  0  0  0  0  2  0  0  0  0  0  0
  160.4970  208.6450  153.6190 C   0  0  0  0  0  2  0  0  0  0  0  0
  161.4210  206.4880  154.5160 C   0  0  0  0  0  2  0  0  0  0  0  0
  160.5890  205.0010  152.7260 N   0  0  0  0  0  2  0  0  0  0  0  0
  162.9520  206.9540  151.6180 C   0  0  0  0  0  2  0  0  0  0  0  0
  160.3000  205.5410  154.0570 C   0  0  0  0  0  2  0  0  0  0  0  0
  161.7280  207.0830  152.1320 C   0  0  0  0  0  0  0  0  0  0  0  0
  160.6130  206.1140  151.7800 C   0  0  1  0  0  3  0  0  0  0  0  0
  161.6360  207.6380  153.5200 C   0  0  1  0  0  3  0  0  0  0  0  0
  161.6040  205.3180  149.5470 C   0  0  2  0  0  3  0  0  0  0  0  0
  160.7320  204.2050  150.1050 C   0  0  0  0  0  2  0  0  0  0  0  0
  160.3480  205.6540  150.3310 C   0  0  1  0  0  3  0  0  0  0  0  0
  161.3380  205.5050  148.0580 C   0  0  1  0  0  3  0  0  0  0  0  0
  162.1600  207.7960  148.7050 C   0  0  0  0  0  1  0  0  0  0  0  0
  161.9070  206.8370  147.5560 C   0  0  2  0  0  3  0  0  0  0  0  0
  161.0640  207.4310  146.6150 O   0  0  0  0  0  1  0  0  0  0  0  0
  161.7600  204.2880  147.2160 C   0  0  0  0  0  2  0  0  0  0  0  0
  162.4220  204.6540  145.8930 C   0  0  0  0  0  2  0  0  0  0  0  0
  161.5790  204.3220  144.8320 O   0  0  0  0  0  1  0  0  0  0  0  0
  1  2  1  0  0  0  0
  2  3  1  0  0  0  0
  4  5  1  0  0  0  0
  4  3  1  0  0  0  0
  5  6  1  6  0  0  0
  5  8  1  0  0  0  0
  8  9  1  0  0  0  0
  8  7  1  1  0  0  0
 10  1  1  0  0  0  0
 12 10  1  0  0  0  0
 12 11  2  0  0  0  0
 13 12  1  0  0  0  0
 14 16  1  0  0  0  0
 15 13  1  6  0  0  0
 16 15  1  0  0  0  0
 17 19  1  6  0  0  0
 17 14  1  0  0  0  0
 17 18  1  0  0  0  0
 18 15  1  0  0  0  0
 20 17  1  0  0  0  0
 21 20  1  6  0  0  0
 22 26  1  0  0  0  0
 23 24  1  0  0  0  0
 23 25  1  0  0  0  0
 24 22  1  0  0  0  0
 25 21  1  0  0  0  0
 25 26  1  0  0  0  0
 28 29  2  0  0  0  0
 29 21  1  0  0  0  0
 30 27  1  0  0  0  0
 30 29  1  0  0  0  0
 31 30  1  0  0  0  0
 32 36  1  0  0  0  0
 33 34  1  0  0  0  0
 33 32  1  0  0  0  0
 35 34  1  0  0  0  0
 35 37  1  0  0  0  0
 36 31  1  0  0  0  0
 37 36  1  0  0  0  0
 38  1  1  0  0  0  0
 38 39  1  0  0  0  0
 41 43  1  0  0  0  0
 42 44  2  0  0  0  0
 43 40  1  0  0  0  0
 44 46  1  0  0  0  0
 45 44  1  6  0  0  0
 45 41  1  0  0  0  0
 46 39  1  6  0  0  0
 46 40  1  0  0  0  0
 47 50  1  6  0  0  0
 47 48  1  0  0  0  0
 47 49  1  0  0  0  0
 49 48  1  1  0  0  0
 49 45  1  0  0  0  0
 50 54  1  6  0  0  0
 52 50  1  0  0  0  0
 52 51  1  1  0  0  0
 53 52  1  0  0  0  0
 55 54  1  0  0  0  0
 56 55  1  0  0  0  0
M  END
>  <MODEL>
7

>  <REMARK>
 VINA RESULT:      -1.8      2.916     10.105
  Name = 
  23 active torsions:
  status: ('A' for Active; 'I' for Inactive)
    1  A    between atoms: C_2  and  N_3
    2  A    between atoms: C_2  and  C_24
    3  A    between atoms: N_3  and  C_16
    4  A    between atoms: N_3  and  C_53
    5  A    between atoms: C_10  and  C_32
    6  A    between atoms: C_11  and  C_16
    7  A    between atoms: C_11  and  C_32
    8  A    between atoms: C_13  and  C_28
    9  A    between atoms: C_13  and  C_50
   10  A    between atoms: C_15  and  C_27
   11  A    between atoms: C_22  and  C_31
   12  A    between atoms: C_23  and  C_29
   13  A    between atoms: C_23  and  C_46
   14  A    between atoms: C_24  and  C_52
   15  A    between atoms: C_26  and  C_37
   16  A    between atoms: C_27  and  C_31
   17  A    between atoms: C_27  and  C_40
   18  A    between atoms: C_28  and  C_38
   19  A    between atoms: C_28  and  C_47
   20  A    between atoms: C_29  and  C_39
   21  A    between atoms: C_37  and  N_51
   22  A    between atoms: C_43  and  C_54
   23  A    between atoms: C_46  and  C_53
                            x       y       z     vdW  Elec       q    Type
                         _______ _______ _______ _____ _____    ______ ____

>  <TORSDO>
F 23

$$$$
=
 OpenBabel11072412313D

 56 60  0  0  1  0  0  0  0  0999 V2000
  161.4220  205.6920  146.7300 N   0  0  0  0  0  0  0  0  0  0  0  0
  162.3500  204.6370  147.1240 C   0  0  0  0  0  2  0  0  0  0  0  0
  161.5790  203.3680  147.4290 C   0  0  0  0  0  2  0  0  0  0  0  0
  160.8980  203.5080  148.7780 C   0  0  0  0  0  2  0  0  0  0  0  0
  160.6010  202.1360  149.3690 C   0  0  1  0  0  3  0  0  0  0  0  0
  161.4460  201.1370  148.7350 N   0  0  0  0  0  1  0  0  0  0  0  0
  160.9950  203.5080  151.4650 C   0  0  0  0  0  1  0  0  0  0  0  0
  160.7820  202.1170  150.8900 C   0  0  2  0  0  3  0  0  0  0  0  0
  161.8560  201.2960  151.2340 O   0  0  0  0  0  1  0  0  0  0  0  0
  160.7730  205.3200  145.4770 C   0  0  0  0  0  2  0  0  0  0  0  0
  162.8310  205.9010  144.4940 O   0  0  0  0  0  0  0  0  0  0  0  0
  161.6500  205.6510  144.3100 C   0  0  0  0  0  0  0  0  0  0  0  0
  161.0830  205.7220  142.9280 C   0  0  0  0  0  2  0  0  0  0  0  0
  162.5150  206.6250  139.6200 C   0  0  0  0  0  2  0  0  0  0  0  0
  162.0890  206.3200  141.9560 C   0  0  1  0  0  3  0  0  0  0  0  0
  162.0790  205.5910  140.6320 C   0  0  0  0  0  2  0  0  0  0  0  0
  162.0670  207.9710  140.1680 C   0  0  1  0  0  0  0  0  0  0  0  0
  161.7180  207.7510  141.6320 C   0  0  0  0  0  2  0  0  0  0  0  0
  163.1130  208.8930  140.0740 O   0  0  0  0  0  1  0  0  0  0  0  0
  160.8270  208.4880  139.4380 C   0  0  0  0  0  2  0  0  0  0  0  0
  160.7760  210.0130  139.3250 C   0  0  1  0  0  3  0  0  0  0  0  0
  162.2090  212.7400  137.3200 C   0  0  0  0  0  2  0  0  0  0  0  0
  162.8660  211.4390  139.2310 C   0  0  0  0  0  2  0  0  0  0  0  0
  163.3730  212.4660  138.2460 C   0  0  0  0  0  2  0  0  0  0  0  0
  161.8830  210.6020  138.4390 C   0  0  0  0  0  3  0  0  0  0  0  0
  161.3690  211.4760  137.3060 C   0  0  0  0  0  2  0  0  0  0  0  0
  158.8740  208.8350  137.2220 C   0  0  0  0  0  1  0  0  0  0  0  0
  158.9220  211.4190  139.7960 O   0  0  0  0  0  0  0  0  0  0  0  0
  159.3930  210.5360  139.0270 C   0  0  0  0  0  0  0  0  0  0  0  0
  158.6220  210.1030  137.8880 N   0  0  0  0  0  0  0  0  0  0  0  0
  157.4640  210.8700  137.4510 C   0  0  0  0  0  2  0  0  0  0  0  0
  156.2680  209.5230  139.1980 C   0  0  0  0  0  2  0  0  0  0  0  0
  154.9510  208.8420  139.6070 C   0  0  0  0  0  2  0  0  0  0  0  0
  153.8300  209.1830  138.7240 N   0  0  0  0  0  2  0  0  0  0  0  0
  153.7920  210.6320  138.5370 C   0  0  0  0  0  2  0  0  0  0  0  0
  156.1770  210.1380  137.8000 C   0  0  0  0  0  3  0  0  0  0  0  0
  154.9920  211.1030  137.7050 C   0  0  0  0  0  2  0  0  0  0  0  0
  160.4010  205.9170  147.7640 C   0  0  0  0  0  2  0  0  0  0  0  0
  160.5910  207.2010  148.5860 C   0  0  0  0  0  2  0  0  0  0  0  0
  162.7510  208.4790  148.4950 C   0  0  0  0  0  2  0  0  0  0  0  0
  162.3760  209.9060  150.4780 N   0  0  0  0  0  2  0  0  0  0  0  0
  162.8520  206.7990  151.3460 C   0  0  0  0  0  2  0  0  0  0  0  0
  162.2470  209.8330  149.0210 C   0  0  0  0  0  2  0  0  0  0  0  0
  161.9690  207.4970  150.6300 C   0  0  0  0  0  0  0  0  0  0  0  0
  161.5130  208.8800  151.0610 C   0  0  1  0  0  3  0  0  0  0  0  0
  162.0040  207.3050  149.1450 C   0  0  1  0  0  3  0  0  0  0  0  0
  160.7570  210.6560  152.7570 C   0  0  2  0  0  3  0  0  0  0  0  0
  159.6710  209.5970  152.6610 C   0  0  0  0  0  2  0  0  0  0  0  0
  161.1280  209.2030  152.5210 C   0  0  1  0  0  3  0  0  0  0  0  0
  161.0200  211.0160  154.2150 C   0  0  1  0  0  3  0  0  0  0  0  0
  158.9750  211.5870  155.5690 C   0  0  0  0  0  1  0  0  0  0  0  0
  160.0850  212.1340  154.6890 C   0  0  2  0  0  3  0  0  0  0  0  0
  159.5380  212.8350  153.6120 O   0  0  0  0  0  1  0  0  0  0  0  0
  161.0450  209.7870  155.1410 C   0  0  0  0  0  2  0  0  0  0  0  0
  162.0740  209.8800  156.2610 C   0  0  0  0  0  2  0  0  0  0  0  0
  163.1440  210.6790  155.8580 O   0  0  0  0  0  1  0  0  0  0  0  0
  1  2  1  0  0  0  0
  1 38  1  0  0  0  0
  2  3  1  0  0  0  0
  3  4  1  0  0  0  0
  4  5  1  0  0  0  0
  5  6  1  6  0  0  0
  5  8  1  0  0  0  0
  8  9  1  0  0  0  0
  8  7  1  6  0  0  0
 10  1  1  0  0  0  0
 12 11  2  0  0  0  0
 12 10  1  0  0  0  0
 13 12  1  0  0  0  0
 14 17  1  0  0  0  0
 14 16  1  0  0  0  0
 15 13  1  1  0  0  0
 16 15  1  0  0  0  0
 17 19  1  6  0  0  0
 17 18  1  0  0  0  0
 18 15  1  0  0  0  0
 20 17  1  0  0  0  0
 21 20  1  6  0  0  0
 22 24  1  0  0  0  0
 24 23  1  0  0  0  0
 25 23  1  0  0  0  0
 25 21  1  0  0  0  0
 26 22  1  0  0  0  0
 26 25  1  0  0  0  0
 27 30  1  0  0  0  0
 29 21  1  0  0  0  0
 29 28  2  0  0  0  0
 30 29  1  0  0  0  0
 31 36  1  0  0  0  0
 31 30  1  0  0  0  0
 32 33  1  0  0  0  0
 34 33  1  0  0  0  0
 35 34  1  0  0  0  0
 36 32  1  0  0  0  0
 37 36  1  0  0  0  0
 37 35  1  0  0  0  0
 38 39  1  0  0  0  0
 40 43  1  0  0  0  0
 40 46  1  0  0  0  0
 43 41  1  0  0  0  0
 44 45  1  0  0  0  0
 44 42  2  0  0  0  0
 45 41  1  1  0  0  0
 45 49  1  0  0  0  0
 46 39  1  6  0  0  0
 46 44  1  0  0  0  0
 47 50  1  1  0  0  0
 48 47  1  0  0  0  0
 49 48  1  6  0  0  0
 49 47  1  0  0  0  0
 50 52  1  0  0  0  0
 50 54  1  1  0  0  0
 52 51  1  6  0  0  0
 53 52  1  0  0  0  0
 54 55  1  0  0  0  0
 56 55  1  0  0  0  0
M  END
>  <MODEL>
8

>  <REMARK>
 VINA RESULT:      -1.7      3.677     10.981
  Name = 
  23 active torsions:
  status: ('A' for Active; 'I' for Inactive)
    1  A    between atoms: C_2  and  N_3
    2  A    between atoms: C_2  and  C_24
    3  A    between atoms: N_3  and  C_16
    4  A    between atoms: N_3  and  C_53
    5  A    between atoms: C_10  and  C_32
    6  A    between atoms: C_11  and  C_16
    7  A    between atoms: C_11  and  C_32
    8  A    between atoms: C_13  and  C_28
    9  A    between atoms: C_13  and  C_50
   10  A    between atoms: C_15  and  C_27
   11  A    between atoms: C_22  and  C_31
   12  A    between atoms: C_23  and  C_29
   13  A    between atoms: C_23  and  C_46
   14  A    between atoms: C_24  and  C_52
   15  A    between atoms: C_26  and  C_37
   16  A    between atoms: C_27  and  C_31
   17  A    between atoms: C_27  and  C_40
   18  A    between atoms: C_28  and  C_38
   19  A    between atoms: C_28  and  C_47
   20  A    between atoms: C_29  and  C_39
   21  A    between atoms: C_37  and  N_51
   22  A    between atoms: C_43  and  C_54
   23  A    between atoms: C_46  and  C_53
                            x       y       z     vdW  Elec       q    Type
                         _______ _______ _______ _____ _____    ______ ____

>  <TORSDO>
F 23

$$$$
=
 OpenBabel11072412313D

 56 60  0  0  1  0  0  0  0  0999 V2000
  161.3550  207.8150  151.5190 N   0  0  0  0  0  0  0  0  0  0  0  0
  161.8490  208.0780  152.8670 C   0  0  0  0  0  2  0  0  0  0  0  0
  161.5830  209.5250  153.2350 C   0  0  0  0  0  2  0  0  0  0  0  0
  162.2770  209.8430  154.5460 C   0  0  0  0  0  2  0  0  0  0  0  0
  161.2670  209.8850  155.6860 C   0  0  1  0  0  3  0  0  0  0  0  0
  161.4290  211.1190  156.4370 N   0  0  0  0  0  1  0  0  0  0  0  0
  159.2360  211.0640  154.7330 C   0  0  0  0  0  1  0  0  0  0  0  0
  159.8290  209.7390  155.1810 C   0  0  2  0  0  3  0  0  0  0  0  0
  159.0270  209.1760  156.1740 O   0  0  0  0  0  1  0  0  0  0  0  0
  162.1840  208.5290  150.5540 C   0  0  0  0  0  2  0  0  0  0  0  0
  160.7380  207.6170  148.9370 O   0  0  0  0  0  0  0  0  0  0  0  0
  161.5760  208.4690  149.1880 C   0  0  0  0  0  0  0  0  0  0  0  0
  162.0180  209.4130  148.1160 C   0  0  0  0  0  2  0  0  0  0  0  0
  163.3560  212.8790  148.1930 C   0  0  0  0  0  2  0  0  0  0  0  0
  162.2720  210.8020  148.6840 C   0  0  1  0  0  3  0  0  0  0  0  0
  163.5670  211.3830  148.1620 C   0  0  0  0  0  2  0  0  0  0  0  0
  161.8640  213.1020  148.0010 C   0  0  1  0  0  0  0  0  0  0  0  0
  161.1900  211.7590  148.2330 C   0  0  0  0  0  2  0  0  0  0  0  0
  161.3980  214.0240  148.9430 O   0  0  0  0  0  1  0  0  0  0  0  0
  161.5450  213.5750  146.5830 C   0  0  0  0  0  2  0  0  0  0  0  0
  160.1560  213.1570  146.0970 C   0  0  1  0  0  3  0  0  0  0  0  0
  156.6390  214.2260  146.1420 C   0  0  0  0  0  2  0  0  0  0  0  0
  158.3970  213.9200  147.7520 C   0  0  0  0  0  2  0  0  0  0  0  0
  156.9920  214.4530  147.5950 C   0  0  0  0  0  2  0  0  0  0  0  0
  159.0580  214.1830  146.4150 C   0  0  0  0  0  3  0  0  0  0  0  0
  157.9490  214.2440  145.3770 C   0  0  0  0  0  2  0  0  0  0  0  0
  161.7170  214.4510  143.7910 C   0  0  0  0  0  1  0  0  0  0  0  0
  159.5990  211.5530  144.4390 O   0  0  0  0  0  0  0  0  0  0  0  0
  160.1540  212.6620  144.6730 C   0  0  0  0  0  0  0  0  0  0  0  0
  160.7140  213.4190  143.5810 N   0  0  0  0  0  0  0  0  0  0  0  0
  160.3880  213.0730  142.2050 C   0  0  0  0  0  2  0  0  0  0  0  0
  161.0220  211.0930  140.7990 C   0  0  0  0  0  2  0  0  0  0  0  0
  162.1580  210.3530  140.0720 C   0  0  0  0  0  2  0  0  0  0  0  0
  163.4020  211.1290  140.0120 N   0  0  0  0  0  2  0  0  0  0  0  0
  163.1000  212.4840  139.5560 C   0  0  0  0  0  2  0  0  0  0  0  0
  161.5390  212.3170  141.5580 C   0  0  0  0  0  3  0  0  0  0  0  0
  162.3110  213.2520  140.6240 C   0  0  0  0  0  2  0  0  0  0  0  0
  161.3750  206.3760  151.2150 C   0  0  0  0  0  2  0  0  0  0  0  0
  160.5300  205.5090  152.1610 C   0  0  0  0  0  2  0  0  0  0  0  0
  160.1210  203.1080  152.7720 C   0  0  0  0  0  2  0  0  0  0  0  0
  160.1850  202.1680  150.4870 N   0  0  0  0  0  2  0  0  0  0  0  0
  163.1450  203.1610  151.4250 C   0  0  0  0  0  2  0  0  0  0  0  0
  159.3060  202.6850  151.5390 C   0  0  0  0  0  2  0  0  0  0  0  0
  161.9470  203.7050  151.2090 C   0  0  0  0  0  0  0  0  0  0  0  0
  161.0660  203.2530  150.0580 C   0  0  1  0  0  3  0  0  0  0  0  0
  161.1850  204.1570  152.4170 C   0  0  1  0  0  3  0  0  0  0  0  0
  160.8710  203.7780  147.5500 C   0  0  2  0  0  3  0  0  0  0  0  0
  162.2180  204.2840  148.0400 C   0  0  0  0  0  2  0  0  0  0  0  0
  161.6200  203.0260  148.6350 C   0  0  1  0  0  3  0  0  0  0  0  0
  161.0300  203.0450  146.2230 C   0  0  1  0  0  3  0  0  0  0  0  0
  161.1120  200.7060  147.1530 C   0  0  0  0  0  1  0  0  0  0  0  0
  160.3500  201.6710  146.2630 C   0  0  2  0  0  3  0  0  0  0  0  0
  160.2100  201.1320  144.9830 O   0  0  0  0  0  1  0  0  0  0  0  0
  160.6310  203.9050  145.0110 C   0  0  0  0  0  2  0  0  0  0  0  0
  161.7660  204.7630  144.4650 C   0  0  0  0  0  2  0  0  0  0  0  0
  161.2470  205.9080  143.8600 O   0  0  0  0  0  1  0  0  0  0  0  0
  1  2  1  0  0  0  0
  2  3  1  0  0  0  0
  3  4  1  0  0  0  0
  4  5  1  0  0  0  0
  5  6  1  6  0  0  0
  8  7  1  1  0  0  0
  8  5  1  0  0  0  0
  8  9  1  0  0  0  0
 10  1  1  0  0  0  0
 11 12  2  0  0  0  0
 12 10  1  0  0  0  0
 13 12  1  0  0  0  0
 15 13  1  6  0  0  0
 16 14  1  0  0  0  0
 16 15  1  0  0  0  0
 17 14  1  0  0  0  0
 17 18  1  0  0  0  0
 17 19  1  1  0  0  0
 18 15  1  0  0  0  0
 20 17  1  0  0  0  0
 21 25  1  0  0  0  0
 21 20  1  6  0  0  0
 22 24  1  0  0  0  0
 24 23  1  0  0  0  0
 25 23  1  0  0  0  0
 26 22  1  0  0  0  0
 26 25  1  0  0  0  0
 28 29  2  0  0  0  0
 29 21  1  0  0  0  0
 30 27  1  0  0  0  0
 30 29  1  0  0  0  0
 31 30  1  0  0  0  0
 32 36  1  0  0  0  0
 33 32  1  0  0  0  0
 34 33  1  0  0  0  0
 35 34  1  0  0  0  0
 35 37  1  0  0  0  0
 36 31  1  0  0  0  0
 37 36  1  0  0  0  0
 38  1  1  0  0  0  0
 38 39  1  0  0  0  0
 41 43  1  0  0  0  0
 43 40  1  0  0  0  0
 44 42  2  0  0  0  0
 44 46  1  0  0  0  0
 45 41  1  1  0  0  0
 45 44  1  0  0  0  0
 46 39  1  6  0  0  0
 46 40  1  0  0  0  0
 47 50  1  6  0  0  0
 47 48  1  0  0  0  0
 47 49  1  0  0  0  0
 49 48  1  1  0  0  0
 49 45  1  0  0  0  0
 50 54  1  6  0  0  0
 50 52  1  0  0  0  0
 52 51  1  1  0  0  0
 53 52  1  0  0  0  0
 55 54  1  0  0  0  0
 56 55  1  0  0  0  0
M  END
>  <MODEL>
9

>  <REMARK>
 VINA RESULT:      -1.4      2.089     10.087
  Name = 
  23 active torsions:
  status: ('A' for Active; 'I' for Inactive)
    1  A    between atoms: C_2  and  N_3
    2  A    between atoms: C_2  and  C_24
    3  A    between atoms: N_3  and  C_16
    4  A    between atoms: N_3  and  C_53
    5  A    between atoms: C_10  and  C_32
    6  A    between atoms: C_11  and  C_16
    7  A    between atoms: C_11  and  C_32
    8  A    between atoms: C_13  and  C_28
    9  A    between atoms: C_13  and  C_50
   10  A    between atoms: C_15  and  C_27
   11  A    between atoms: C_22  and  C_31
   12  A    between atoms: C_23  and  C_29
   13  A    between atoms: C_23  and  C_46
   14  A    between atoms: C_24  and  C_52
   15  A    between atoms: C_26  and  C_37
   16  A    between atoms: C_27  and  C_31
   17  A    between atoms: C_27  and  C_40
   18  A    between atoms: C_28  and  C_38
   19  A    between atoms: C_28  and  C_47
   20  A    between atoms: C_29  and  C_39
   21  A    between atoms: C_37  and  N_51
   22  A    between atoms: C_43  and  C_54
   23  A    between atoms: C_46  and  C_53
                            x       y       z     vdW  Elec       q    Type
                         _______ _______ _______ _____ _____    ______ ____

>  <TORSDO>
F 23

$$$$
