=
 OpenBabel11072413483D

 29 31  0  0  1  0  0  0  0  0999 V2000
  162.3700  210.7730  155.6150 C   0  0  0  0  0  0  0  0  0  0  0  0
  160.1740  209.5830  155.9070 C   0  0  0  0  0  0  0  0  0  0  0  0
  161.0260  208.7720  153.6600 C   0  0  0  0  0  0  0  0  0  0  0  0
  159.7110  206.8120  156.5650 N   0  0  0  0  0  1  0  0  0  0  0  0
  160.4800  208.4950  154.9340 C   0  0  0  0  0  0  0  0  0  0  0  0
  160.2510  207.1510  155.2900 C   0  0  0  0  0  0  0  0  0  0  0  0
  158.9570  209.5570  156.5760 O   0  0  0  0  0  1  0  0  0  0  0  0
  160.5830  206.1520  154.4320 N   0  0  0  0  0  0  0  0  0  0  0  0
  161.3750  207.7090  152.8030 C   0  0  0  0  0  0  0  0  0  0  0  0
  162.5790  210.7160  154.2990 C   0  0  0  0  0  3  0  0  0  0  0  0
  161.1350  206.3990  153.2180 C   0  0  0  0  0  3  0  0  0  0  0  0
  161.0420  210.5570  156.2260 C   0  0  0  0  0  3  0  0  0  0  0  0
  161.2360  210.4800  153.1400 S   0  0  0  0  0  0  0  0  0  0  0  0
  162.0900  207.9770  151.2150 S   0  0  0  0  0  0  0  0  0  0  0  0
  163.1400  206.9340  150.9470 O   0  0  0  0  0  0  0  0  0  0  0  0
  162.7310  209.3370  151.1840 O   0  0  0  0  0  0  0  0  0  0  0  0
  160.8510  207.8580  150.0080 N   0  0  0  0  0  2  0  0  0  0  0  0
  161.4500  207.3390  148.7880 C   0  0  0  0  0  2  0  0  0  0  0  0
  160.6590  206.1430  148.2800 C   0  0  1  0  0  3  0  0  0  0  0  0
  161.9420  203.1670  147.5840 C   0  0  0  0  0  2  0  0  0  0  0  0
  160.7070  203.5970  148.3770 C   0  0  1  0  0  3  0  0  0  0  0  0
  160.3690  202.5930  149.2830 O   0  0  0  0  0  1  0  0  0  0  0  0
  161.7890  205.1630  146.1960 O   0  0  0  0  0  0  0  0  0  0  0  0
  160.8320  206.0000  146.7860 C   0  0  0  0  0  0  0  0  0  0  0  0
  160.0910  206.6870  146.0350 O   0  0  0  0  0  0  0  0  0  0  0  0
  162.6810  204.3390  146.9370 C   0  0  0  0  0  2  0  0  0  0  0  0
  160.9620  204.8970  149.1270 C   0  0  0  0  0  2  0  0  0  0  0  0
  163.4710  211.1060  156.4720 C   0  0  0  0  0  0  0  0  0  0  0  0
  164.3590  211.3750  157.1650 N   0  0  0  0  0  0  0  0  0  0  0  0
  1 12  1  0  0  0  0
  1 28  1  0  0  0  0
  2 12  2  0  0  0  0
  2  7  1  0  0  0  0
  3  5  1  0  0  0  0
  5  6  2  0  0  0  0
  5  2  1  0  0  0  0
  6  4  1  0  0  0  0
  8  6  1  0  0  0  0
  9 11  1  0  0  0  0
  9  3  2  0  0  0  0
 10  1  2  0  0  0  0
 11  8  2  0  0  0  0
 13  3  1  0  0  0  0
 13 10  1  0  0  0  0
 14  9  1  0  0  0  0
 15 14  2  0  0  0  0
 16 14  2  0  0  0  0
 17 14  1  0  0  0  0
 18 17  1  0  0  0  0
 19 18  1  1  0  0  0
 19 27  1  0  0  0  0
 20 21  1  0  0  0  0
 21 27  1  0  0  0  0
 21 22  1  1  0  0  0
 23 24  1  0  0  0  0
 23 26  1  0  0  0  0
 24 19  1  0  0  0  0
 25 24  2  0  0  0  0
 26 20  1  0  0  0  0
 28 29  3  0  0  0  0
M  END
>  <MODEL>
1

>  <REMARK>
 VINA RESULT:      -6.3      0.000      0.000
  Name = 
  5 active torsions:
  status: ('A' for Active; 'I' for Inactive)
    1  A    between atoms: C_1  and  C_4
    2  A    between atoms: S_3  and  C_18
    3  A    between atoms: S_3  and  N_26
    4  A    between atoms: C_5  and  C_8
    5  A    between atoms: C_8  and  N_26
                            x       y       z     vdW  Elec       q    Type
                         _______ _______ _______ _____ _____    ______ ____

>  <TORSDO>
F 5

$$$$
=
 OpenBabel11072413483D

 29 31  0  0  1  0  0  0  0  0999 V2000
  160.6450  203.5020  145.5070 C   0  0  0  0  0  0  0  0  0  0  0  0
  161.3150  201.9390  147.3600 C   0  0  0  0  0  0  0  0  0  0  0  0
  161.6460  204.2520  148.3480 C   0  0  0  0  0  0  0  0  0  0  0  0
  159.8610  201.2820  149.7650 N   0  0  0  0  0  1  0  0  0  0  0  0
  161.1330  202.9380  148.4520 C   0  0  0  0  0  0  0  0  0  0  0  0
  160.4100  202.5890  149.6090 C   0  0  0  0  0  0  0  0  0  0  0  0
  161.7110  200.6500  147.6950 O   0  0  0  0  0  1  0  0  0  0  0  0
  160.1880  203.5120  150.5810 N   0  0  0  0  0  0  0  0  0  0  0  0
  161.3810  205.1880  149.3670 C   0  0  0  0  0  0  0  0  0  0  0  0
  161.2350  204.6500  145.8430 C   0  0  0  0  0  3  0  0  0  0  0  0
  160.6470  204.7840  150.4830 C   0  0  0  0  0  3  0  0  0  0  0  0
  161.0520  202.1960  146.0690 C   0  0  0  0  0  3  0  0  0  0  0  0
  162.6570  204.6960  146.9290 S   0  0  0  0  0  0  0  0  0  0  0  0
  161.9590  206.8510  149.2910 S   0  0  0  0  0  0  0  0  0  0  0  0
  160.8590  207.7500  148.7990 O   0  0  0  0  0  0  0  0  0  0  0  0
  163.1180  206.9280  148.3350 O   0  0  0  0  0  0  0  0  0  0  0  0
  162.4410  207.3570  150.8770 N   0  0  0  0  0  2  0  0  0  0  0  0
  162.1390  208.7740  151.0160 C   0  0  0  0  0  2  0  0  0  0  0  0
  160.8950  208.9650  151.8690 C   0  0  1  0  0  3  0  0  0  0  0  0
  160.5700  211.2080  154.2880 C   0  0  0  0  0  2  0  0  0  0  0  0
  159.6630  210.8100  153.1230 C   0  0  1  0  0  3  0  0  0  0  0  0
  158.8100  211.8700  152.8210 O   0  0  0  0  0  1  0  0  0  0  0  0
  161.5250  208.9680  154.3560 O   0  0  0  0  0  0  0  0  0  0  0  0
  161.0740  208.2960  153.2110 C   0  0  0  0  0  0  0  0  0  0  0  0
  160.8250  207.0640  153.2970 O   0  0  0  0  0  0  0  0  0  0  0  0
  161.8370  210.3550  154.3840 C   0  0  0  0  0  2  0  0  0  0  0  0
  160.4800  210.4450  151.8920 C   0  0  0  0  0  2  0  0  0  0  0  0
  159.6020  203.5270  144.5220 C   0  0  0  0  0  0  0  0  0  0  0  0
  158.7600  203.5470  143.7280 N   0  0  0  0  0  0  0  0  0  0  0  0
  1 10  2  0  0  0  0
  1 12  1  0  0  0  0
  2  7  1  0  0  0  0
  2  5  1  0  0  0  0
  3  5  2  0  0  0  0
  3  9  1  0  0  0  0
  5  6  1  0  0  0  0
  6  4  1  0  0  0  0
  6  8  2  0  0  0  0
  9 11  2  0  0  0  0
 10 13  1  0  0  0  0
 11  8  1  0  0  0  0
 12  2  2  0  0  0  0
 13  3  1  0  0  0  0
 14  9  1  0  0  0  0
 14 17  1  0  0  0  0
 15 14  2  0  0  0  0
 16 14  2  0  0  0  0
 17 18  1  0  0  0  0
 19 18  1  1  0  0  0
 19 27  1  0  0  0  0
 19 24  1  0  0  0  0
 20 26  1  0  0  0  0
 21 22  1  6  0  0  0
 21 20  1  0  0  0  0
 23 26  1  0  0  0  0
 24 25  2  0  0  0  0
 24 23  1  0  0  0  0
 27 21  1  0  0  0  0
 28  1  1  0  0  0  0
 29 28  3  0  0  0  0
M  END
>  <MODEL>
2

>  <REMARK>
 VINA RESULT:      -6.1      3.166      8.841
  Name = 
  5 active torsions:
  status: ('A' for Active; 'I' for Inactive)
    1  A    between atoms: C_1  and  C_4
    2  A    between atoms: S_3  and  C_18
    3  A    between atoms: S_3  and  N_26
    4  A    between atoms: C_5  and  C_8
    5  A    between atoms: C_8  and  N_26
                            x       y       z     vdW  Elec       q    Type
                         _______ _______ _______ _____ _____    ______ ____

>  <TORSDO>
F 5

$$$$
=
 OpenBabel11072413483D

 29 31  0  0  1  0  0  0  0  0999 V2000
  159.1410  213.0650  152.3730 C   0  0  0  0  0  0  0  0  0  0  0  0
  158.3620  213.5870  154.7060 C   0  0  0  0  0  0  0  0  0  0  0  0
  159.5240  211.3430  154.9260 C   0  0  0  0  0  0  0  0  0  0  0  0
  159.9300  214.4530  156.9680 N   0  0  0  0  0  1  0  0  0  0  0  0
  159.3240  212.6670  155.3780 C   0  0  0  0  0  0  0  0  0  0  0  0
  160.0820  213.1240  156.4750 C   0  0  0  0  0  0  0  0  0  0  0  0
  157.4980  214.3390  155.4920 O   0  0  0  0  0  1  0  0  0  0  0  0
  161.0040  212.3120  157.0540 N   0  0  0  0  0  0  0  0  0  0  0  0
  160.5020  210.5350  155.5400 C   0  0  0  0  0  0  0  0  0  0  0  0
  159.3240  211.7440  152.3960 C   0  0  0  0  0  3  0  0  0  0  0  0
  161.2280  211.0500  156.6130 C   0  0  0  0  0  3  0  0  0  0  0  0
  158.3270  213.7800  153.3780 C   0  0  0  0  0  3  0  0  0  0  0  0
  158.5010  210.7000  153.5940 S   0  0  0  0  0  0  0  0  0  0  0  0
  160.8280  208.8860  155.0090 S   0  0  0  0  0  0  0  0  0  0  0  0
  159.6050  208.0350  155.2130 O   0  0  0  0  0  0  0  0  0  0  0  0
  161.9600  208.3200  155.8220 O   0  0  0  0  0  0  0  0  0  0  0  0
  161.2340  208.9030  153.3240 N   0  0  0  0  0  2  0  0  0  0  0  0
  160.8320  207.6310  152.7440 C   0  0  0  0  0  2  0  0  0  0  0  0
  161.8050  207.2200  151.6500 C   0  0  1  0  0  3  0  0  0  0  0  0
  161.0320  206.8740  148.4450 C   0  0  0  0  0  2  0  0  0  0  0  0
  162.1900  207.5760  149.1560 C   0  0  1  0  0  3  0  0  0  0  0  0
  162.7070  208.5670  148.3240 O   0  0  0  0  0  1  0  0  0  0  0  0
  160.8220  205.2860  150.2800 O   0  0  0  0  0  0  0  0  0  0  0  0
  161.6330  205.7550  151.3220 C   0  0  0  0  0  0  0  0  0  0  0  0
  162.2350  204.9130  152.0390 O   0  0  0  0  0  0  0  0  0  0  0  0
  160.0950  206.1370  149.4030 C   0  0  0  0  0  2  0  0  0  0  0  0
  161.7310  208.1990  150.4670 C   0  0  0  0  0  2  0  0  0  0  0  0
  159.7190  213.8210  151.2980 C   0  0  0  0  0  0  0  0  0  0  0  0
  160.1840  214.4300  150.4310 N   0  0  0  0  0  0  0  0  0  0  0  0
  1 10  2  0  0  0  0
  1 12  1  0  0  0  0
  2  5  1  0  0  0  0
  2  7  1  0  0  0  0
  3  5  2  0  0  0  0
  3  9  1  0  0  0  0
  5  6  1  0  0  0  0
  6  4  1  0  0  0  0
  6  8  2  0  0  0  0
  9 11  2  0  0  0  0
 10 13  1  0  0  0  0
 11  8  1  0  0  0  0
 12  2  2  0  0  0  0
 13  3  1  0  0  0  0
 14 15  2  0  0  0  0
 14  9  1  0  0  0  0
 14 16  2  0  0  0  0
 17 14  1  0  0  0  0
 18 17  1  0  0  0  0
 19 18  1  1  0  0  0
 20 21  1  0  0  0  0
 20 26  1  0  0  0  0
 21 22  1  6  0  0  0
 21 27  1  0  0  0  0
 23 24  1  0  0  0  0
 24 19  1  0  0  0  0
 24 25  2  0  0  0  0
 26 23  1  0  0  0  0
 27 19  1  0  0  0  0
 28  1  1  0  0  0  0
 29 28  3  0  0  0  0
M  END
>  <MODEL>
3

>  <REMARK>
 VINA RESULT:      -5.7      3.287      5.132
  Name = 
  5 active torsions:
  status: ('A' for Active; 'I' for Inactive)
    1  A    between atoms: C_1  and  C_4
    2  A    between atoms: S_3  and  C_18
    3  A    between atoms: S_3  and  N_26
    4  A    between atoms: C_5  and  C_8
    5  A    between atoms: C_8  and  N_26
                            x       y       z     vdW  Elec       q    Type
                         _______ _______ _______ _____ _____    ______ ____

>  <TORSDO>
F 5

$$$$
=
 OpenBabel11072413483D

 29 31  0  0  1  0  0  0  0  0999 V2000
  162.4020  210.7420  155.4310 C   0  0  0  0  0  0  0  0  0  0  0  0
  160.1900  209.6210  155.8540 C   0  0  0  0  0  0  0  0  0  0  0  0
  160.9870  208.6160  153.6660 C   0  0  0  0  0  0  0  0  0  0  0  0
  159.6890  206.9210  156.7410 N   0  0  0  0  0  1  0  0  0  0  0  0
  160.4590  208.4530  154.9670 C   0  0  0  0  0  0  0  0  0  0  0  0
  160.2120  207.1470  155.4340 C   0  0  0  0  0  0  0  0  0  0  0  0
  158.9850  209.6730  156.5420 O   0  0  0  0  0  1  0  0  0  0  0  0
  160.5110  206.0750  154.6540 N   0  0  0  0  0  0  0  0  0  0  0  0
  161.3020  207.4810  152.8930 C   0  0  0  0  0  0  0  0  0  0  0  0
  162.5860  210.5750  154.1200 C   0  0  0  0  0  3  0  0  0  0  0  0
  161.0470  206.2140  153.4160 C   0  0  0  0  0  3  0  0  0  0  0  0
  161.0810  210.6010  156.0790 C   0  0  0  0  0  3  0  0  0  0  0  0
  161.2180  210.2730  153.0070 S   0  0  0  0  0  0  0  0  0  0  0  0
  161.9930  207.6070  151.2760 S   0  0  0  0  0  0  0  0  0  0  0  0
  163.2140  206.7350  151.1760 O   0  0  0  0  0  0  0  0  0  0  0  0
  162.3890  209.0340  151.0170 O   0  0  0  0  0  0  0  0  0  0  0  0
  160.8210  207.0770  150.1150 N   0  0  0  0  0  2  0  0  0  0  0  0
  160.4230  205.7190  150.4540 C   0  0  0  0  0  2  0  0  0  0  0  0
  161.3880  204.7180  149.8360 C   0  0  1  0  0  3  0  0  0  0  0  0
  160.5000  202.0520  148.0780 C   0  0  0  0  0  2  0  0  0  0  0  0
  161.5420  203.1460  147.8370 C   0  0  1  0  0  3  0  0  0  0  0  0
  161.8070  203.2370  146.4720 O   0  0  0  0  0  1  0  0  0  0  0  0
  160.7140  202.3300  150.4880 O   0  0  0  0  0  0  0  0  0  0  0  0
  161.4820  203.4830  150.7010 C   0  0  0  0  0  0  0  0  0  0  0  0
  162.2780  203.5020  151.6770 O   0  0  0  0  0  0  0  0  0  0  0  0
  159.7830  202.1880  149.4220 C   0  0  0  0  0  2  0  0  0  0  0  0
  161.0540  204.4920  148.3530 C   0  0  0  0  0  2  0  0  0  0  0  0
  163.5240  211.1220  156.2410 C   0  0  0  0  0  0  0  0  0  0  0  0
  164.4280  211.4280  156.8950 N   0  0  0  0  0  0  0  0  0  0  0  0
  1 12  1  0  0  0  0
  1 28  1  0  0  0  0
  2 12  2  0  0  0  0
  2  7  1  0  0  0  0
  3  5  1  0  0  0  0
  5  6  2  0  0  0  0
  5  2  1  0  0  0  0
  6  4  1  0  0  0  0
  8  6  1  0  0  0  0
  9 11  1  0  0  0  0
  9  3  2  0  0  0  0
 10  1  2  0  0  0  0
 11  8  2  0  0  0  0
 13  3  1  0  0  0  0
 13 10  1  0  0  0  0
 14  9  1  0  0  0  0
 15 14  2  0  0  0  0
 16 14  2  0  0  0  0
 17 18  1  0  0  0  0
 17 14  1  0  0  0  0
 19 18  1  1  0  0  0
 19 24  1  0  0  0  0
 20 26  1  0  0  0  0
 21 22  1  6  0  0  0
 21 20  1  0  0  0  0
 21 27  1  0  0  0  0
 23 24  1  0  0  0  0
 24 25  2  0  0  0  0
 26 23  1  0  0  0  0
 27 19  1  0  0  0  0
 28 29  3  0  0  0  0
M  END
>  <MODEL>
4

>  <REMARK>
 VINA RESULT:      -5.6      1.199      2.234
  Name = 
  5 active torsions:
  status: ('A' for Active; 'I' for Inactive)
    1  A    between atoms: C_1  and  C_4
    2  A    between atoms: S_3  and  C_18
    3  A    between atoms: S_3  and  N_26
    4  A    between atoms: C_5  and  C_8
    5  A    between atoms: C_8  and  N_26
                            x       y       z     vdW  Elec       q    Type
                         _______ _______ _______ _____ _____    ______ ____

>  <TORSDO>
F 5

$$$$
=
 OpenBabel11072413483D

 29 31  0  0  1  0  0  0  0  0999 V2000
  156.8350  210.7610  155.5370 C   0  0  0  0  0  0  0  0  0  0  0  0
  157.6020  213.1020  155.0280 C   0  0  0  0  0  0  0  0  0  0  0  0
  159.4900  211.6320  154.1830 C   0  0  0  0  0  0  0  0  0  0  0  0
  157.7000  214.4410  152.4740 N   0  0  0  0  0  1  0  0  0  0  0  0
  158.5830  212.6980  153.9800 C   0  0  0  0  0  0  0  0  0  0  0  0
  158.5980  213.3660  152.7390 C   0  0  0  0  0  0  0  0  0  0  0  0
  157.4460  214.4530  155.3090 O   0  0  0  0  0  1  0  0  0  0  0  0
  159.4470  212.9640  151.7580 N   0  0  0  0  0  0  0  0  0  0  0  0
  160.3430  211.2310  153.1360 C   0  0  0  0  0  0  0  0  0  0  0  0
  157.9670  210.0560  155.5260 C   0  0  0  0  0  3  0  0  0  0  0  0
  160.3020  211.9240  151.9270 C   0  0  0  0  0  3  0  0  0  0  0  0
  156.8080  212.2330  155.6740 C   0  0  0  0  0  3  0  0  0  0  0  0
  159.5610  210.8280  155.7900 S   0  0  0  0  0  0  0  0  0  0  0  0
  161.4760  209.8910  153.3070 S   0  0  0  0  0  0  0  0  0  0  0  0
  160.7440  208.6630  153.7700 O   0  0  0  0  0  0  0  0  0  0  0  0
  162.5190  210.2540  154.3270 O   0  0  0  0  0  0  0  0  0  0  0  0
  162.2090  209.5700  151.7700 N   0  0  0  0  0  2  0  0  0  0  0  0
  161.3460  208.6590  151.0330 C   0  0  0  0  0  2  0  0  0  0  0  0
  162.1830  207.6450  150.2680 C   0  0  1  0  0  3  0  0  0  0  0  0
  160.9650  205.2430  148.3350 C   0  0  0  0  0  2  0  0  0  0  0  0
  162.0860  206.2630  148.1290 C   0  0  1  0  0  3  0  0  0  0  0  0
  162.2820  206.4620  146.7630 O   0  0  0  0  0  1  0  0  0  0  0  0
  161.3360  205.2700  150.7420 O   0  0  0  0  0  0  0  0  0  0  0  0
  162.2140  206.3290  151.0100 C   0  0  0  0  0  0  0  0  0  0  0  0
  163.0610  206.1880  151.9310 O   0  0  0  0  0  0  0  0  0  0  0  0
  160.3390  205.3090  149.7290 C   0  0  0  0  0  2  0  0  0  0  0  0
  161.7480  207.5900  148.7950 C   0  0  0  0  0  2  0  0  0  0  0  0
  155.5860  210.0590  155.4610 C   0  0  0  0  0  0  0  0  0  0  0  0
  154.5790  209.4930  155.3990 N   0  0  0  0  0  0  0  0  0  0  0  0
  1 12  1  0  0  0  0
  2  7  1  0  0  0  0
  2 12  2  0  0  0  0
  3 13  1  0  0  0  0
  4  6  1  0  0  0  0
  5  3  1  0  0  0  0
  5  2  1  0  0  0  0
  6  5  2  0  0  0  0
  8 11  2  0  0  0  0
  8  6  1  0  0  0  0
  9 14  1  0  0  0  0
  9  3  2  0  0  0  0
 10  1  2  0  0  0  0
 10 13  1  0  0  0  0
 11  9  1  0  0  0  0
 14 15  2  0  0  0  0
 14 16  2  0  0  0  0
 17 14  1  0  0  0  0
 18 17  1  0  0  0  0
 19 24  1  0  0  0  0
 19 18  1  1  0  0  0
 20 26  1  0  0  0  0
 21 22  1  6  0  0  0
 21 20  1  0  0  0  0
 21 27  1  0  0  0  0
 23 24  1  0  0  0  0
 24 25  2  0  0  0  0
 26 23  1  0  0  0  0
 27 19  1  0  0  0  0
 28  1  1  0  0  0  0
 29 28  3  0  0  0  0
M  END
>  <MODEL>
5

>  <REMARK>
 VINA RESULT:      -5.6      3.546      5.139
  Name = 
  5 active torsions:
  status: ('A' for Active; 'I' for Inactive)
    1  A    between atoms: C_1  and  C_4
    2  A    between atoms: S_3  and  C_18
    3  A    between atoms: S_3  and  N_26
    4  A    between atoms: C_5  and  C_8
    5  A    between atoms: C_8  and  N_26
                            x       y       z     vdW  Elec       q    Type
                         _______ _______ _______ _____ _____    ______ ____

>  <TORSDO>
F 5

$$$$
=
 OpenBabel11072413483D

 29 31  0  0  1  0  0  0  0  0999 V2000
  160.8230  208.8150  153.9730 C   0  0  0  0  0  0  0  0  0  0  0  0
  162.4410  209.4830  152.1670 C   0  0  0  0  0  0  0  0  0  0  0  0
  161.7640  207.1170  151.5500 C   0  0  0  0  0  0  0  0  0  0  0  0
  161.8770  210.1990  149.4290 N   0  0  0  0  0  1  0  0  0  0  0  0
  161.9710  208.4660  151.1820 C   0  0  0  0  0  0  0  0  0  0  0  0
  161.6960  208.8510  149.8550 C   0  0  0  0  0  0  0  0  0  0  0  0
  163.4560  210.3540  151.7930 O   0  0  0  0  0  1  0  0  0  0  0  0
  161.2100  207.9430  148.9680 N   0  0  0  0  0  0  0  0  0  0  0  0
  161.2420  206.2080  150.6090 C   0  0  0  0  0  0  0  0  0  0  0  0
  160.8300  207.4830  153.9160 C   0  0  0  0  0  3  0  0  0  0  0  0
  160.9770  206.6530  149.3140 C   0  0  0  0  0  3  0  0  0  0  0  0
  161.8900  209.6490  153.3800 C   0  0  0  0  0  3  0  0  0  0  0  0
  162.2010  206.5770  153.2090 S   0  0  0  0  0  0  0  0  0  0  0  0
  160.9270  204.5200  151.0060 S   0  0  0  0  0  0  0  0  0  0  0  0
  160.0780  204.4390  152.2440 O   0  0  0  0  0  0  0  0  0  0  0  0
  162.2330  203.8200  151.2610 O   0  0  0  0  0  0  0  0  0  0  0  0
  160.0810  203.7760  149.6880 N   0  0  0  0  0  2  0  0  0  0  0  0
  160.5890  202.4230  149.5250 C   0  0  0  0  0  2  0  0  0  0  0  0
  161.5580  202.3610  148.3540 C   0  0  1  0  0  3  0  0  0  0  0  0
  160.8410  203.2460  145.2410 C   0  0  0  0  0  2  0  0  0  0  0  0
  162.0270  203.5590  146.1540 C   0  0  1  0  0  3  0  0  0  0  0  0
  162.6330  204.7410  145.7330 O   0  0  0  0  0  1  0  0  0  0  0  0
  160.4760  201.1250  146.3830 O   0  0  0  0  0  0  0  0  0  0  0  0
  161.2930  201.1280  147.5220 C   0  0  0  0  0  0  0  0  0  0  0  0
  161.8170  200.0430  147.8880 O   0  0  0  0  0  0  0  0  0  0  0  0
  159.8320  202.2850  145.8720 C   0  0  0  0  0  2  0  0  0  0  0  0
  161.5810  203.7020  147.6030 C   0  0  0  0  0  2  0  0  0  0  0  0
  159.7580  209.4680  154.6800 C   0  0  0  0  0  0  0  0  0  0  0  0
  158.9000  209.9940  155.2510 N   0  0  0  0  0  0  0  0  0  0  0  0
  1 28  1  0  0  0  0
  2 12  2  0  0  0  0
  3 13  1  0  0  0  0
  4  6  1  0  0  0  0
  5  3  1  0  0  0  0
  5  2  1  0  0  0  0
  6  5  2  0  0  0  0
  7  2  1  0  0  0  0
  8 11  2  0  0  0  0
  8  6  1  0  0  0  0
  9 14  1  0  0  0  0
  9  3  2  0  0  0  0
 10  1  2  0  0  0  0
 11  9  1  0  0  0  0
 12  1  1  0  0  0  0
 13 10  1  0  0  0  0
 14 16  2  0  0  0  0
 14 15  2  0  0  0  0
 17 14  1  0  0  0  0
 18 17  1  0  0  0  0
 19 18  1  1  0  0  0
 20 26  1  0  0  0  0
 20 21  1  0  0  0  0
 21 22  1  6  0  0  0
 21 27  1  0  0  0  0
 23 24  1  0  0  0  0
 24 25  2  0  0  0  0
 24 19  1  0  0  0  0
 26 23  1  0  0  0  0
 27 19  1  0  0  0  0
 28 29  3  0  0  0  0
M  END
>  <MODEL>
6

>  <REMARK>
 VINA RESULT:      -5.3      2.746      4.600
  Name = 
  5 active torsions:
  status: ('A' for Active; 'I' for Inactive)
    1  A    between atoms: C_1  and  C_4
    2  A    between atoms: S_3  and  C_18
    3  A    between atoms: S_3  and  N_26
    4  A    between atoms: C_5  and  C_8
    5  A    between atoms: C_8  and  N_26
                            x       y       z     vdW  Elec       q    Type
                         _______ _______ _______ _____ _____    ______ ____

>  <TORSDO>
F 5

$$$$
=
 OpenBabel11072413483D

 29 31  0  0  1  0  0  0  0  0999 V2000
  160.6800  208.9100  156.2620 C   0  0  0  0  0  0  0  0  0  0  0  0
  159.9400  211.3140  156.2910 C   0  0  0  0  0  0  0  0  0  0  0  0
  160.7480  210.9410  153.9150 C   0  0  0  0  0  0  0  0  0  0  0  0
  157.5600  212.4710  155.1410 N   0  0  0  0  0  1  0  0  0  0  0  0
  159.7670  211.4190  154.8140 C   0  0  0  0  0  0  0  0  0  0  0  0
  158.5880  211.9810  154.2840 C   0  0  0  0  0  0  0  0  0  0  0  0
  159.6470  212.4200  157.0780 O   0  0  0  0  0  1  0  0  0  0  0  0
  158.3970  212.0260  152.9400 N   0  0  0  0  0  0  0  0  0  0  0  0
  160.5080  210.9880  152.5280 C   0  0  0  0  0  0  0  0  0  0  0  0
  161.4970  208.8510  155.2090 C   0  0  0  0  0  3  0  0  0  0  0  0
  159.3160  211.5440  152.0660 C   0  0  0  0  0  3  0  0  0  0  0  0
  160.3030  210.1810  156.9150 C   0  0  0  0  0  3  0  0  0  0  0  0
  162.3040  210.3110  154.5600 S   0  0  0  0  0  0  0  0  0  0  0  0
  161.6710  210.3810  151.3510 S   0  0  0  0  0  0  0  0  0  0  0  0
  163.0410  210.3290  151.9690 O   0  0  0  0  0  0  0  0  0  0  0  0
  161.7040  211.3060  150.1650 O   0  0  0  0  0  0  0  0  0  0  0  0
  161.2060  208.7830  150.8660 N   0  0  0  0  0  2  0  0  0  0  0  0
  161.5810  208.6010  149.4720 C   0  0  0  0  0  2  0  0  0  0  0  0
  162.3330  207.2910  149.2960 C   0  0  1  0  0  3  0  0  0  0  0  0
  160.9290  204.3650  148.6180 C   0  0  0  0  0  2  0  0  0  0  0  0
  162.1360  205.0920  148.0220 C   0  0  1  0  0  3  0  0  0  0  0  0
  162.3610  204.6260  146.7280 O   0  0  0  0  0  1  0  0  0  0  0  0
  161.2780  205.4680  150.7610 O   0  0  0  0  0  0  0  0  0  0  0  0
  162.2430  206.4640  150.5580 C   0  0  0  0  0  0  0  0  0  0  0  0
  163.0660  206.7000  151.4810 O   0  0  0  0  0  0  0  0  0  0  0  0
  160.2980  205.1100  149.7950 C   0  0  0  0  0  2  0  0  0  0  0  0
  161.9090  206.5970  147.9910 C   0  0  0  0  0  2  0  0  0  0  0  0
  160.1810  207.6830  156.8150 C   0  0  0  0  0  0  0  0  0  0  0  0
  159.7790  206.6940  157.2600 N   0  0  0  0  0  0  0  0  0  0  0  0
  1 28  1  0  0  0  0
  1 12  1  0  0  0  0
  2 12  2  0  0  0  0
  2  7  1  0  0  0  0
  3 13  1  0  0  0  0
  3  5  1  0  0  0  0
  5  2  1  0  0  0  0
  6  5  2  0  0  0  0
  6  4  1  0  0  0  0
  8  6  1  0  0  0  0
  9  3  2  0  0  0  0
 10  1  2  0  0  0  0
 11  9  1  0  0  0  0
 11  8  2  0  0  0  0
 13 10  1  0  0  0  0
 14 15  2  0  0  0  0
 14  9  1  0  0  0  0
 16 14  2  0  0  0  0
 17 14  1  0  0  0  0
 18 17  1  0  0  0  0
 19 18  1  1  0  0  0
 19 24  1  0  0  0  0
 20 26  1  0  0  0  0
 21 22  1  6  0  0  0
 21 20  1  0  0  0  0
 24 23  1  0  0  0  0
 24 25  2  0  0  0  0
 26 23  1  0  0  0  0
 27 21  1  0  0  0  0
 27 19  1  0  0  0  0
 28 29  3  0  0  0  0
M  END
>  <MODEL>
7

>  <REMARK>
 VINA RESULT:      -4.8      2.361      3.759
  Name = 
  5 active torsions:
  status: ('A' for Active; 'I' for Inactive)
    1  A    between atoms: C_1  and  C_4
    2  A    between atoms: S_3  and  C_18
    3  A    between atoms: S_3  and  N_26
    4  A    between atoms: C_5  and  C_8
    5  A    between atoms: C_8  and  N_26
                            x       y       z     vdW  Elec       q    Type
                         _______ _______ _______ _____ _____    ______ ____

>  <TORSDO>
F 5

$$$$
=
 OpenBabel11072413483D

 29 31  0  0  1  0  0  0  0  0999 V2000
  161.5760  202.5900  151.0690 C   0  0  0  0  0  0  0  0  0  0  0  0
  160.2420  202.3300  148.9530 C   0  0  0  0  0  0  0  0  0  0  0  0
  161.0650  204.7290  148.8780 C   0  0  0  0  0  0  0  0  0  0  0  0
  161.2060  202.0710  146.2460 N   0  0  0  0  0  1  0  0  0  0  0  0
  160.8840  203.4760  148.2470 C   0  0  0  0  0  0  0  0  0  0  0  0
  161.3530  203.3140  146.9280 C   0  0  0  0  0  0  0  0  0  0  0  0
  159.2750  201.5910  148.2830 O   0  0  0  0  0  1  0  0  0  0  0  0
  161.9930  204.3340  146.3000 N   0  0  0  0  0  0  0  0  0  0  0  0
  161.7500  205.7580  148.2020 C   0  0  0  0  0  0  0  0  0  0  0  0
  161.6110  203.9110  151.2520 C   0  0  0  0  0  3  0  0  0  0  0  0
  162.2010  205.5310  146.9030 C   0  0  0  0  0  3  0  0  0  0  0  0
  160.5930  201.9280  150.1850 C   0  0  0  0  0  3  0  0  0  0  0  0
  160.3890  204.9960  150.5220 S   0  0  0  0  0  0  0  0  0  0  0  0
  162.0410  207.3340  148.9370 S   0  0  0  0  0  0  0  0  0  0  0  0
  160.8310  208.2080  148.7630 O   0  0  0  0  0  0  0  0  0  0  0  0
  163.2170  207.9850  148.2610 O   0  0  0  0  0  0  0  0  0  0  0  0
  162.3500  207.1210  150.6290 N   0  0  0  0  0  2  0  0  0  0  0  0
  162.3300  208.4300  151.2650 C   0  0  0  0  0  2  0  0  0  0  0  0
  161.0460  208.6080  152.0610 C   0  0  1  0  0  3  0  0  0  0  0  0
  160.5210  210.9720  154.3250 C   0  0  0  0  0  2  0  0  0  0  0  0
  159.6780  210.4590  153.1560 C   0  0  1  0  0  3  0  0  0  0  0  0
  158.7870  211.4540  152.7590 O   0  0  0  0  0  1  0  0  0  0  0  0
  161.5810  208.7920  154.5630 O   0  0  0  0  0  0  0  0  0  0  0  0
  161.2080  208.0300  153.4480 C   0  0  0  0  0  0  0  0  0  0  0  0
  161.0160  206.7950  153.6010 O   0  0  0  0  0  0  0  0  0  0  0  0
  161.8230  210.1930  154.5170 C   0  0  0  0  0  2  0  0  0  0  0  0
  160.5580  210.0630  151.9780 C   0  0  0  0  0  2  0  0  0  0  0  0
  162.5010  201.7700  151.7980 C   0  0  0  0  0  0  0  0  0  0  0  0
  163.2470  201.1090  152.3870 N   0  0  0  0  0  0  0  0  0  0  0  0
  1 10  2  0  0  0  0
  1 28  1  0  0  0  0
  2 12  2  0  0  0  0
  3 13  1  0  0  0  0
  4  6  1  0  0  0  0
  5  3  1  0  0  0  0
  5  2  1  0  0  0  0
  6  5  2  0  0  0  0
  7  2  1  0  0  0  0
  8 11  2  0  0  0  0
  8  6  1  0  0  0  0
  9  3  2  0  0  0  0
  9 14  1  0  0  0  0
 11  9  1  0  0  0  0
 12  1  1  0  0  0  0
 13 10  1  0  0  0  0
 14 17  1  0  0  0  0
 15 14  2  0  0  0  0
 16 14  2  0  0  0  0
 17 18  1  0  0  0  0
 19 18  1  1  0  0  0
 19 24  1  0  0  0  0
 20 26  1  0  0  0  0
 21 22  1  6  0  0  0
 21 20  1  0  0  0  0
 24 25  2  0  0  0  0
 24 23  1  0  0  0  0
 26 23  1  0  0  0  0
 27 19  1  0  0  0  0
 27 21  1  0  0  0  0
 28 29  3  0  0  0  0
M  END
>  <MODEL>
8

>  <REMARK>
 VINA RESULT:      -4.7      3.005      8.053
  Name = 
  5 active torsions:
  status: ('A' for Active; 'I' for Inactive)
    1  A    between atoms: C_1  and  C_4
    2  A    between atoms: S_3  and  C_18
    3  A    between atoms: S_3  and  N_26
    4  A    between atoms: C_5  and  C_8
    5  A    between atoms: C_8  and  N_26
                            x       y       z     vdW  Elec       q    Type
                         _______ _______ _______ _____ _____    ______ ____

>  <TORSDO>
F 5

$$$$
=
 OpenBabel11072413483D

 29 31  0  0  1  0  0  0  0  0999 V2000
  161.7690  210.1820  155.2380 C   0  0  0  0  0  0  0  0  0  0  0  0
  160.2380  208.1890  155.1470 C   0  0  0  0  0  0  0  0  0  0  0  0
  161.0880  208.4290  152.7690 C   0  0  0  0  0  0  0  0  0  0  0  0
  160.9400  205.3960  154.9580 N   0  0  0  0  0  1  0  0  0  0  0  0
  160.8290  207.6220  153.9000 C   0  0  0  0  0  0  0  0  0  0  0  0
  161.1700  206.2560  153.8440 C   0  0  0  0  0  0  0  0  0  0  0  0
  159.2010  207.5010  155.7660 O   0  0  0  0  0  1  0  0  0  0  0  0
  161.7640  205.7450  152.7340 N   0  0  0  0  0  0  0  0  0  0  0  0
  161.7230  207.8690  151.6420 C   0  0  0  0  0  0  0  0  0  0  0  0
  161.8420  210.5740  153.9650 C   0  0  0  0  0  3  0  0  0  0  0  0
  162.0470  206.5130  151.6530 C   0  0  0  0  0  3  0  0  0  0  0  0
  160.6970  209.2990  155.7460 C   0  0  0  0  0  3  0  0  0  0  0  0
  160.5740  210.1510  152.7750 S   0  0  0  0  0  0  0  0  0  0  0  0
  162.1070  208.8200  150.2090 S   0  0  0  0  0  0  0  0  0  0  0  0
  162.8320  210.0750  150.6110 O   0  0  0  0  0  0  0  0  0  0  0  0
  160.8300  209.1960  149.5080 O   0  0  0  0  0  0  0  0  0  0  0  0
  163.1260  207.8860  149.1640 N   0  0  0  0  0  2  0  0  0  0  0  0
  162.4420  207.7170  147.8910 C   0  0  0  0  0  2  0  0  0  0  0  0
  162.0090  206.2700  147.7130 C   0  0  1  0  0  3  0  0  0  0  0  0
  160.9250  204.9400  144.8760 C   0  0  0  0  0  2  0  0  0  0  0  0
  161.9450  204.4660  145.9140 C   0  0  1  0  0  3  0  0  0  0  0  0
  162.8350  203.5780  145.3120 O   0  0  0  0  0  1  0  0  0  0  0  0
  159.7060  206.1730  146.5870 O   0  0  0  0  0  0  0  0  0  0  0  0
  160.5020  206.1700  147.7410 C   0  0  0  0  0  0  0  0  0  0  0  0
  159.9330  206.1010  148.8620 O   0  0  0  0  0  0  0  0  0  0  0  0
  160.2310  206.2460  145.2670 C   0  0  0  0  0  2  0  0  0  0  0  0
  162.7150  205.6410  146.5010 C   0  0  0  0  0  2  0  0  0  0  0  0
  162.7450  210.6760  156.1670 C   0  0  0  0  0  0  0  0  0  0  0  0
  163.5310  211.0750  156.9170 N   0  0  0  0  0  0  0  0  0  0  0  0
  1 12  1  0  0  0  0
  1 28  1  0  0  0  0
  2 12  2  0  0  0  0
  2  7  1  0  0  0  0
  3 13  1  0  0  0  0
  3  5  1  0  0  0  0
  5  2  1  0  0  0  0
  6  5  2  0  0  0  0
  6  4  1  0  0  0  0
  8  6  1  0  0  0  0
  9 11  1  0  0  0  0
  9  3  2  0  0  0  0
 10  1  2  0  0  0  0
 11  8  2  0  0  0  0
 13 10  1  0  0  0  0
 14 15  2  0  0  0  0
 14  9  1  0  0  0  0
 16 14  2  0  0  0  0
 17 14  1  0  0  0  0
 18 17  1  0  0  0  0
 19 24  1  0  0  0  0
 19 18  1  6  0  0  0
 20 26  1  0  0  0  0
 20 21  1  0  0  0  0
 21 22  1  6  0  0  0
 21 27  1  0  0  0  0
 23 24  1  0  0  0  0
 24 25  2  0  0  0  0
 26 23  1  0  0  0  0
 27 19  1  0  0  0  0
 28 29  3  0  0  0  0
M  END
>  <MODEL>
9

>  <REMARK>
 VINA RESULT:      -4.6      1.632      2.228
  Name = 
  5 active torsions:
  status: ('A' for Active; 'I' for Inactive)
    1  A    between atoms: C_1  and  C_4
    2  A    between atoms: S_3  and  C_18
    3  A    between atoms: S_3  and  N_26
    4  A    between atoms: C_5  and  C_8
    5  A    between atoms: C_8  and  N_26
                            x       y       z     vdW  Elec       q    Type
                         _______ _______ _______ _____ _____    ______ ____

>  <TORSDO>
F 5

$$$$
