=
 OpenBabel11072411133D

 30 31  0  0  1  0  0  0  0  0999 V2000
  160.9610  208.4190  153.5740 C   0  0  1  0  0  3  0  0  0  0  0  0
  160.9860  206.1090  154.2470 O   0  0  0  0  0  1  0  0  0  0  0  0
  160.7410  207.4080  154.6970 C   0  0  0  0  0  2  0  0  0  0  0  0
  161.7480  209.5110  154.0360 O   0  0  0  0  0  0  0  0  0  0  0  0
  161.5310  210.2540  156.2120 O   0  0  0  0  0  0  0  0  0  0  0  0
  160.5180  211.5510  154.5790 N   0  0  0  0  0  2  0  0  0  0  0  0
  161.2830  210.4210  154.9890 C   0  0  0  0  0  0  0  0  0  0  0  0
  160.2550  211.7830  153.2230 N   0  0  0  0  0  2  0  0  0  0  0  0
  158.8760  212.6580  151.5750 O   0  0  0  0  0  0  0  0  0  0  0  0
  159.0590  212.4350  152.8020 C   0  0  0  0  0  0  0  0  0  0  0  0
  155.9970  212.2920  154.9840 C   0  0  0  0  0  2  0  0  0  0  0  0
  157.1020  213.9010  153.2270 C   0  0  0  0  0  2  0  0  0  0  0  0
  157.1770  211.6980  154.2470 C   0  0  0  0  0  2  0  0  0  0  0  0
  158.0330  212.8610  153.8060 C   0  0  1  0  0  3  0  0  0  0  0  0
  155.5700  213.8840  154.2080 S   0  0  0  0  0  0  0  0  0  0  0  0
  161.6430  207.7710  152.3760 C   0  0  0  0  0  2  0  0  0  0  0  0
  162.4110  209.5040  150.9260 O   0  0  0  0  0  1  0  0  0  0  0  0
  161.3940  208.5660  151.1030 C   0  0  1  0  0  3  0  0  0  0  0  0
  161.3560  207.4470  149.6730 S   0  0  0  0  0  0  0  0  0  0  0  0
  160.8820  206.0170  150.6890 C   0  0  0  0  0  2  0  0  0  0  0  0
  161.3230  204.7280  150.0160 C   0  0  1  0  0  3  0  0  0  0  0  0
  160.5030  203.5310  150.5280 C   0  0  2  0  0  3  0  0  0  0  0  0
  161.1270  204.8930  148.5100 C   0  0  0  0  0  2  0  0  0  0  0  0
  160.7790  203.2430  152.2660 Cl  0  0  0  0  0  0  0  0  0  0  0  0
  161.5220  203.6210  147.7710 C   0  0  0  0  0  2  0  0  0  0  0  0
  160.8810  202.2600  149.7700 C   0  0  0  0  0  2  0  0  0  0  0  0
  160.6810  202.4490  148.2690 C   0  0  2  0  0  3  0  0  0  0  0  0
  160.8680  201.1030  146.1690 O   0  0  0  0  0  0  0  0  0  0  0  0
  161.5480  200.2340  148.1770 O   0  0  0  0  0  1  0  0  0  0  0  0
  161.0510  201.2000  147.5430 C   0  0  0  0  0  0  0  0  0  0  0  0
  1 16  1  6  0  0  0
  1  4  1  0  0  0  0
  1  3  1  0  0  0  0
  2  3  1  0  0  0  0
  4  7  1  0  0  0  0
  6  7  1  0  0  0  0
  7  5  2  0  0  0  0
  8  6  1  0  0  0  0
  9 10  2  0  0  0  0
 10  8  1  0  0  0  0
 12 14  1  0  0  0  0
 12 15  1  0  0  0  0
 13 11  1  0  0  0  0
 14 10  1  6  0  0  0
 14 13  1  0  0  0  0
 15 11  1  0  0  0  0
 18 17  1  6  0  0  0
 18 16  1  0  0  0  0
 19 20  1  0  0  0  0
 19 18  1  0  0  0  0
 21 22  1  0  0  0  0
 21 20  1  1  0  0  0
 22 24  1  1  0  0  0
 23 21  1  0  0  0  0
 25 27  1  0  0  0  0
 25 23  1  0  0  0  0
 26 22  1  0  0  0  0
 27 30  1  6  0  0  0
 27 26  1  0  0  0  0
 28 30  2  0  0  0  0
 30 29  1  0  0  0  0
M  END
>  <MODEL>
1

>  <REMARK>
 VINA RESULT:      -7.2      0.000      0.000
  Name = 
  11 active torsions:
  status: ('A' for Active; 'I' for Inactive)
    1  A    between atoms: C_1  and  C_25
    2  A    between atoms: C_2  and  O_6
    3  A    between atoms: C_2  and  C_13
    4  A    between atoms: C_2  and  C_19
    5  A    between atoms: S_3  and  C_25
    6  A    between atoms: S_3  and  C_30
    7  A    between atoms: O_6  and  C_10
    8  A    between atoms: N_8  and  N_9
    9  A    between atoms: C_13  and  C_30
   10  A    between atoms: C_16  and  C_27
   11  A    between atoms: C_23  and  C_29
                            x       y       z     vdW  Elec       q    Type
                         _______ _______ _______ _____ _____    ______ ____

>  <TORSDO>
F 11

$$$$
=
 OpenBabel11072411133D

 30 31  0  0  1  0  0  0  0  0999 V2000
  160.6720  208.4590  154.9410 C   0  0  1  0  0  3  0  0  0  0  0  0
  160.2180  206.7890  156.6120 O   0  0  0  0  0  1  0  0  0  0  0  0
  160.1070  208.1510  156.3260 C   0  0  0  0  0  2  0  0  0  0  0  0
  161.7330  209.4030  155.0370 O   0  0  0  0  0  0  0  0  0  0  0  0
  162.0500  210.7850  156.8600 O   0  0  0  0  0  0  0  0  0  0  0  0
  160.9230  211.7080  155.0560 N   0  0  0  0  0  2  0  0  0  0  0  0
  161.5920  210.6260  155.6980 C   0  0  0  0  0  0  0  0  0  0  0  0
  160.4330  211.5740  153.7510 N   0  0  0  0  0  2  0  0  0  0  0  0
  158.6770  211.7560  152.2450 O   0  0  0  0  0  0  0  0  0  0  0  0
  159.0700  211.8550  153.4390 C   0  0  0  0  0  0  0  0  0  0  0  0
  156.1550  211.7010  155.8120 C   0  0  0  0  0  2  0  0  0  0  0  0
  157.1600  213.3310  154.0140 C   0  0  0  0  0  2  0  0  0  0  0  0
  157.2790  211.1100  154.9910 C   0  0  0  0  0  2  0  0  0  0  0  0
  158.1160  212.2720  154.5140 C   0  0  1  0  0  3  0  0  0  0  0  0
  155.6950  213.3110  155.0910 S   0  0  0  0  0  0  0  0  0  0  0  0
  161.1750  207.1940  154.2580 C   0  0  0  0  0  2  0  0  0  0  0  0
  160.5430  208.4870  152.3530 O   0  0  0  0  0  1  0  0  0  0  0  0
  160.8180  207.1880  152.7780 C   0  0  1  0  0  3  0  0  0  0  0  0
  162.2040  206.5220  151.8120 S   0  0  0  0  0  0  0  0  0  0  0  0
  161.4200  206.9410  150.2270 C   0  0  0  0  0  2  0  0  0  0  0  0
  160.9260  205.6800  149.5380 C   0  0  1  0  0  3  0  0  0  0  0  0
  161.6230  205.4850  148.1810 C   0  0  2  0  0  3  0  0  0  0  0  0
  161.2220  204.4950  150.4560 C   0  0  0  0  0  2  0  0  0  0  0  0
  161.2250  206.7990  147.0440 Cl  0  0  0  0  0  0  0  0  0  0  0  0
  160.7790  203.1880  149.8110 C   0  0  0  0  0  2  0  0  0  0  0  0
  161.1970  204.1630  147.5460 C   0  0  0  0  0  2  0  0  0  0  0  0
  161.5000  202.9950  148.4800 C   0  0  2  0  0  3  0  0  0  0  0  0
  161.1230  200.5230  148.5660 O   0  0  0  0  0  1  0  0  0  0  0  0
  160.6730  201.7080  146.6570 O   0  0  0  0  0  0  0  0  0  0  0  0
  161.0820  201.7120  147.8470 C   0  0  0  0  0  0  0  0  0  0  0  0
  1 16  1  1  0  0  0
  1  4  1  0  0  0  0
  1  3  1  0  0  0  0
  3  2  1  0  0  0  0
  4  7  1  0  0  0  0
  6  7  1  0  0  0  0
  7  5  2  0  0  0  0
  8  6  1  0  0  0  0
  9 10  2  0  0  0  0
 10  8  1  0  0  0  0
 12 14  1  0  0  0  0
 12 15  1  0  0  0  0
 13 11  1  0  0  0  0
 14 10  1  6  0  0  0
 14 13  1  0  0  0  0
 15 11  1  0  0  0  0
 18 17  1  6  0  0  0
 18 16  1  0  0  0  0
 19 18  1  0  0  0  0
 20 19  1  0  0  0  0
 21 20  1  1  0  0  0
 21 23  1  0  0  0  0
 22 24  1  6  0  0  0
 22 21  1  0  0  0  0
 25 23  1  0  0  0  0
 26 22  1  0  0  0  0
 26 27  1  0  0  0  0
 27 30  1  6  0  0  0
 27 25  1  0  0  0  0
 29 30  2  0  0  0  0
 30 28  1  0  0  0  0
M  END
>  <MODEL>
2

>  <REMARK>
 VINA RESULT:      -7.0      1.668      2.066
  Name = 
  11 active torsions:
  status: ('A' for Active; 'I' for Inactive)
    1  A    between atoms: C_1  and  C_25
    2  A    between atoms: C_2  and  O_6
    3  A    between atoms: C_2  and  C_13
    4  A    between atoms: C_2  and  C_19
    5  A    between atoms: S_3  and  C_25
    6  A    between atoms: S_3  and  C_30
    7  A    between atoms: O_6  and  C_10
    8  A    between atoms: N_8  and  N_9
    9  A    between atoms: C_13  and  C_30
   10  A    between atoms: C_16  and  C_27
   11  A    between atoms: C_23  and  C_29
                            x       y       z     vdW  Elec       q    Type
                         _______ _______ _______ _____ _____    ______ ____

>  <TORSDO>
F 11

$$$$
=
 OpenBabel11072411133D

 30 31  0  0  1  0  0  0  0  0999 V2000
  161.3260  209.1550  153.0060 C   0  0  1  0  0  3  0  0  0  0  0  0
  160.4220  211.1570  152.0230 O   0  0  0  0  0  1  0  0  0  0  0  0
  161.4210  210.1900  151.8870 C   0  0  0  0  0  2  0  0  0  0  0  0
  160.4020  209.5830  154.0000 O   0  0  0  0  0  0  0  0  0  0  0  0
  161.1170  208.7830  156.0460 O   0  0  0  0  0  0  0  0  0  0  0  0
  160.7490  211.0680  155.9080 N   0  0  0  0  0  2  0  0  0  0  0  0
  160.7690  209.7640  155.3370 C   0  0  0  0  0  0  0  0  0  0  0  0
  160.4000  212.1830  155.1370 N   0  0  0  0  0  2  0  0  0  0  0  0
  158.7730  213.6300  154.3330 O   0  0  0  0  0  0  0  0  0  0  0  0
  159.0420  212.6000  155.0080 C   0  0  0  0  0  0  0  0  0  0  0  0
  155.7220  210.8930  155.4810 C   0  0  0  0  0  2  0  0  0  0  0  0
  157.2180  212.6830  156.6890 C   0  0  0  0  0  2  0  0  0  0  0  0
  156.9170  211.3550  154.6770 C   0  0  0  0  0  2  0  0  0  0  0  0
  157.9460  211.8290  155.6760 C   0  0  1  0  0  3  0  0  0  0  0  0
  155.5780  211.9460  156.9620 S   0  0  0  0  0  0  0  0  0  0  0  0
  160.8980  207.7970  152.4640 C   0  0  0  0  0  2  0  0  0  0  0  0
  160.7330  206.1800  154.2120 O   0  0  0  0  0  1  0  0  0  0  0  0
  161.5810  206.6640  153.2160 C   0  0  1  0  0  3  0  0  0  0  0  0
  161.9850  205.3170  152.0670 S   0  0  0  0  0  0  0  0  0  0  0  0
  161.0620  206.0810  150.7010 C   0  0  0  0  0  2  0  0  0  0  0  0
  160.6610  205.0250  149.6840 C   0  0  1  0  0  3  0  0  0  0  0  0
  161.5250  205.1270  148.4150 C   0  0  2  0  0  3  0  0  0  0  0  0
  160.8420  203.6540  150.3340 C   0  0  0  0  0  2  0  0  0  0  0  0
  161.2700  206.6770  147.5710 Cl  0  0  0  0  0  0  0  0  0  0  0  0
  160.4860  202.5420  149.3570 C   0  0  0  0  0  2  0  0  0  0  0  0
  161.1860  203.9970  147.4460 C   0  0  0  0  0  2  0  0  0  0  0  0
  161.3700  202.6390  148.1160 C   0  0  2  0  0  3  0  0  0  0  0  0
  160.4830  201.8390  145.9180 O   0  0  0  0  0  0  0  0  0  0  0  0
  161.2780  200.3510  147.4680 O   0  0  0  0  0  1  0  0  0  0  0  0
  161.0380  201.5460  147.1580 C   0  0  0  0  0  0  0  0  0  0  0  0
  1  3  1  6  0  0  0
  1  4  1  0  0  0  0
  3  2  1  0  0  0  0
  4  7  1  0  0  0  0
  7  6  1  0  0  0  0
  7  5  2  0  0  0  0
  8  6  1  0  0  0  0
  9 10  2  0  0  0  0
 10  8  1  0  0  0  0
 11 15  1  0  0  0  0
 12 15  1  0  0  0  0
 13 11  1  0  0  0  0
 13 14  1  0  0  0  0
 14 10  1  6  0  0  0
 14 12  1  0  0  0  0
 16  1  1  0  0  0  0
 16 18  1  0  0  0  0
 18 17  1  1  0  0  0
 19 18  1  0  0  0  0
 20 19  1  0  0  0  0
 21 23  1  0  0  0  0
 21 20  1  1  0  0  0
 22 24  1  6  0  0  0
 22 21  1  0  0  0  0
 25 23  1  0  0  0  0
 26 27  1  0  0  0  0
 26 22  1  0  0  0  0
 27 30  1  6  0  0  0
 27 25  1  0  0  0  0
 28 30  2  0  0  0  0
 30 29  1  0  0  0  0
M  END
>  <MODEL>
3

>  <REMARK>
 VINA RESULT:      -6.9      1.900      2.654
  Name = 
  11 active torsions:
  status: ('A' for Active; 'I' for Inactive)
    1  A    between atoms: C_1  and  C_25
    2  A    between atoms: C_2  and  O_6
    3  A    between atoms: C_2  and  C_13
    4  A    between atoms: C_2  and  C_19
    5  A    between atoms: S_3  and  C_25
    6  A    between atoms: S_3  and  C_30
    7  A    between atoms: O_6  and  C_10
    8  A    between atoms: N_8  and  N_9
    9  A    between atoms: C_13  and  C_30
   10  A    between atoms: C_16  and  C_27
   11  A    between atoms: C_23  and  C_29
                            x       y       z     vdW  Elec       q    Type
                         _______ _______ _______ _____ _____    ______ ____

>  <TORSDO>
F 11

$$$$
=
 OpenBabel11072411133D

 30 31  0  0  1  0  0  0  0  0999 V2000
  160.4300  208.3530  155.1090 C   0  0  1  0  0  3  0  0  0  0  0  0
  160.5540  206.7980  156.9410 O   0  0  0  0  0  1  0  0  0  0  0  0
  159.6920  207.3460  155.9890 C   0  0  0  0  0  2  0  0  0  0  0  0
  161.1550  209.2770  155.9120 O   0  0  0  0  0  0  0  0  0  0  0  0
  162.8130  210.7540  155.2770 O   0  0  0  0  0  0  0  0  0  0  0  0
  160.6320  211.5220  155.1040 N   0  0  0  0  0  2  0  0  0  0  0  0
  161.5860  210.5150  155.4290 C   0  0  0  0  0  0  0  0  0  0  0  0
  159.2590  211.2750  155.2290 N   0  0  0  0  0  2  0  0  0  0  0  0
  157.0870  211.6420  154.5000 O   0  0  0  0  0  0  0  0  0  0  0  0
  158.3110  211.9190  154.3790 C   0  0  0  0  0  0  0  0  0  0  0  0
  158.1090  214.4520  151.6050 C   0  0  0  0  0  2  0  0  0  0  0  0
  159.3550  212.2040  152.1460 C   0  0  0  0  0  2  0  0  0  0  0  0
  157.6130  213.7450  152.8470 C   0  0  0  0  0  2  0  0  0  0  0  0
  158.7630  212.9040  153.3480 C   0  0  1  0  0  3  0  0  0  0  0  0
  159.2730  213.3500  150.7370 S   0  0  0  0  0  0  0  0  0  0  0  0
  161.3850  207.6510  154.1520 C   0  0  0  0  0  2  0  0  0  0  0  0
  160.4630  208.9960  152.4100 O   0  0  0  0  0  1  0  0  0  0  0  0
  160.8670  207.6980  152.7220 C   0  0  1  0  0  3  0  0  0  0  0  0
  162.1780  207.1860  151.5740 S   0  0  0  0  0  0  0  0  0  0  0  0
  160.9880  206.5830  150.3400 C   0  0  0  0  0  2  0  0  0  0  0  0
  161.3960  205.2030  149.8510 C   0  0  1  0  0  3  0  0  0  0  0  0
  160.5520  204.1080  150.5250 C   0  0  2  0  0  3  0  0  0  0  0  0
  161.1960  205.1630  148.3370 C   0  0  0  0  0  2  0  0  0  0  0  0
  160.8300  204.0570  152.2860 Cl  0  0  0  0  0  0  0  0  0  0  0  0
  161.5590  203.7910  147.7800 C   0  0  0  0  0  2  0  0  0  0  0  0
  160.8980  202.7360  149.9500 C   0  0  0  0  0  2  0  0  0  0  0  0
  160.6940  202.7190  148.4380 C   0  0  2  0  0  3  0  0  0  0  0  0
  160.9380  201.1230  146.5270 O   0  0  0  0  0  0  0  0  0  0  0  0
  161.4230  200.4660  148.6680 O   0  0  0  0  0  1  0  0  0  0  0  0
  161.0330  201.3750  147.8910 C   0  0  0  0  0  0  0  0  0  0  0  0
  1 16  1  6  0  0  0
  1  4  1  0  0  0  0
  1  3  1  0  0  0  0
  3  2  1  0  0  0  0
  5  7  2  0  0  0  0
  6  8  1  0  0  0  0
  6  7  1  0  0  0  0
  7  4  1  0  0  0  0
 10  9  2  0  0  0  0
 10  8  1  0  0  0  0
 11 13  1  0  0  0  0
 12 14  1  0  0  0  0
 13 14  1  0  0  0  0
 14 10  1  1  0  0  0
 15 11  1  0  0  0  0
 15 12  1  0  0  0  0
 18 17  1  6  0  0  0
 18 16  1  0  0  0  0
 19 18  1  0  0  0  0
 20 19  1  0  0  0  0
 21 20  1  1  0  0  0
 21 22  1  0  0  0  0
 22 24  1  1  0  0  0
 23 21  1  0  0  0  0
 25 23  1  0  0  0  0
 25 27  1  0  0  0  0
 26 22  1  0  0  0  0
 27 30  1  6  0  0  0
 27 26  1  0  0  0  0
 28 30  2  0  0  0  0
 30 29  1  0  0  0  0
M  END
>  <MODEL>
4

>  <REMARK>
 VINA RESULT:      -6.8      1.682      2.042
  Name = 
  11 active torsions:
  status: ('A' for Active; 'I' for Inactive)
    1  A    between atoms: C_1  and  C_25
    2  A    between atoms: C_2  and  O_6
    3  A    between atoms: C_2  and  C_13
    4  A    between atoms: C_2  and  C_19
    5  A    between atoms: S_3  and  C_25
    6  A    between atoms: S_3  and  C_30
    7  A    between atoms: O_6  and  C_10
    8  A    between atoms: N_8  and  N_9
    9  A    between atoms: C_13  and  C_30
   10  A    between atoms: C_16  and  C_27
   11  A    between atoms: C_23  and  C_29
                            x       y       z     vdW  Elec       q    Type
                         _______ _______ _______ _____ _____    ______ ____

>  <TORSDO>
F 11

$$$$
=
 OpenBabel11072411133D

 30 31  0  0  1  0  0  0  0  0999 V2000
  161.4040  209.0980  152.6290 C   0  0  1  0  0  3  0  0  0  0  0  0
  162.4440  209.2710  150.4660 O   0  0  0  0  0  1  0  0  0  0  0  0
  161.6330  209.9470  151.3800 C   0  0  0  0  0  2  0  0  0  0  0  0
  160.4450  209.7160  153.4800 O   0  0  0  0  0  0  0  0  0  0  0  0
  161.4030  209.7300  155.5810 O   0  0  0  0  0  0  0  0  0  0  0  0
  160.4770  211.7300  154.8630 N   0  0  0  0  0  2  0  0  0  0  0  0
  160.8000  210.3560  154.6710 C   0  0  0  0  0  0  0  0  0  0  0  0
  159.8370  212.4630  153.8560 N   0  0  0  0  0  2  0  0  0  0  0  0
  157.9790  213.6350  153.1080 O   0  0  0  0  0  0  0  0  0  0  0  0
  158.5070  212.9480  154.0240 C   0  0  0  0  0  0  0  0  0  0  0  0
  155.8640  211.5120  156.2850 C   0  0  0  0  0  2  0  0  0  0  0  0
  156.9190  213.8470  155.7070 C   0  0  0  0  0  2  0  0  0  0  0  0
  156.7910  211.5010  155.0900 C   0  0  0  0  0  2  0  0  0  0  0  0
  157.7450  212.6550  155.2800 C   0  0  1  0  0  3  0  0  0  0  0  0
  155.5880  213.2420  156.7880 S   0  0  0  0  0  0  0  0  0  0  0  0
  160.9320  207.6970  152.2630 C   0  0  0  0  0  2  0  0  0  0  0  0
  160.7410  206.5130  154.3270 O   0  0  0  0  0  1  0  0  0  0  0  0
  161.5370  206.6520  153.1900 C   0  0  1  0  0  3  0  0  0  0  0  0
  161.6420  205.0550  152.3340 S   0  0  0  0  0  0  0  0  0  0  0  0
  160.6650  205.6440  150.9190 C   0  0  0  0  0  2  0  0  0  0  0  0
  161.4070  205.3730  149.6210 C   0  0  1  0  0  3  0  0  0  0  0  0
  160.8200  204.1500  148.8960 C   0  0  2  0  0  3  0  0  0  0  0  0
  161.2840  206.6150  148.7410 C   0  0  0  0  0  2  0  0  0  0  0  0
  161.0290  202.6590  149.8500 Cl  0  0  0  0  0  0  0  0  0  0  0  0
  161.9830  206.4010  147.4040 C   0  0  0  0  0  2  0  0  0  0  0  0
  161.5020  203.9500  147.5450 C   0  0  0  0  0  2  0  0  0  0  0  0
  161.3700  205.2030  146.6840 C   0  0  2  0  0  3  0  0  0  0  0  0
  163.2190  204.2640  145.2850 O   0  0  0  0  0  1  0  0  0  0  0  0
  161.5220  205.4660  144.3240 O   0  0  0  0  0  0  0  0  0  0  0  0
  162.0390  204.9930  145.3690 C   0  0  0  0  0  0  0  0  0  0  0  0
  1  3  1  6  0  0  0
  1  4  1  0  0  0  0
  2  3  1  0  0  0  0
  4  7  1  0  0  0  0
  7  6  1  0  0  0  0
  7  5  2  0  0  0  0
  8 10  1  0  0  0  0
  8  6  1  0  0  0  0
  9 10  2  0  0  0  0
 11 15  1  0  0  0  0
 12 15  1  0  0  0  0
 13 14  1  0  0  0  0
 13 11  1  0  0  0  0
 14 10  1  6  0  0  0
 14 12  1  0  0  0  0
 16  1  1  0  0  0  0
 16 18  1  0  0  0  0
 18 17  1  1  0  0  0
 19 18  1  0  0  0  0
 20 19  1  0  0  0  0
 21 20  1  1  0  0  0
 22 21  1  0  0  0  0
 22 24  1  1  0  0  0
 23 21  1  0  0  0  0
 25 23  1  0  0  0  0
 26 22  1  0  0  0  0
 27 30  1  6  0  0  0
 27 25  1  0  0  0  0
 27 26  1  0  0  0  0
 28 30  1  0  0  0  0
 29 30  2  0  0  0  0
M  END
>  <MODEL>
5

>  <REMARK>
 VINA RESULT:      -6.7      1.955      2.821
  Name = 
  11 active torsions:
  status: ('A' for Active; 'I' for Inactive)
    1  A    between atoms: C_1  and  C_25
    2  A    between atoms: C_2  and  O_6
    3  A    between atoms: C_2  and  C_13
    4  A    between atoms: C_2  and  C_19
    5  A    between atoms: S_3  and  C_25
    6  A    between atoms: S_3  and  C_30
    7  A    between atoms: O_6  and  C_10
    8  A    between atoms: N_8  and  N_9
    9  A    between atoms: C_13  and  C_30
   10  A    between atoms: C_16  and  C_27
   11  A    between atoms: C_23  and  C_29
                            x       y       z     vdW  Elec       q    Type
                         _______ _______ _______ _____ _____    ______ ____

>  <TORSDO>
F 11

$$$$
=
 OpenBabel11072411133D

 30 31  0  0  1  0  0  0  0  0999 V2000
  160.4800  209.6180  153.5530 C   0  0  1  0  0  3  0  0  0  0  0  0
  161.4800  210.7450  155.4290 O   0  0  0  0  0  1  0  0  0  0  0  0
  161.6780  210.3960  154.0920 C   0  0  0  0  0  2  0  0  0  0  0  0
  159.7030  210.4380  152.6880 O   0  0  0  0  0  0  0  0  0  0  0  0
  159.6070  212.7140  153.0680 O   0  0  0  0  0  0  0  0  0  0  0  0
  160.9330  212.0250  151.2960 N   0  0  0  0  0  2  0  0  0  0  0  0
  160.0570  211.7560  152.3860 C   0  0  0  0  0  0  0  0  0  0  0  0
  161.4770  210.9790  150.5400 N   0  0  0  0  0  2  0  0  0  0  0  0
  162.3470  210.2050  148.5320 O   0  0  0  0  0  0  0  0  0  0  0  0
  161.8260  211.1600  149.1690 C   0  0  0  0  0  0  0  0  0  0  0  0
  160.5880  213.6310  146.6160 C   0  0  0  0  0  2  0  0  0  0  0  0
  162.8370  212.9650  147.7970 C   0  0  0  0  0  2  0  0  0  0  0  0
  160.5110  212.3650  147.4390 C   0  0  0  0  0  2  0  0  0  0  0  0
  161.5870  212.4740  148.4920 C   0  0  1  0  0  3  0  0  0  0  0  0
  162.3320  214.1530  146.5160 S   0  0  0  0  0  0  0  0  0  0  0  0
  160.9270  208.3680  152.8060 C   0  0  0  0  0  2  0  0  0  0  0  0
  160.4290  206.9520  154.6610 O   0  0  0  0  0  1  0  0  0  0  0  0
  161.4380  207.3040  153.7660 C   0  0  1  0  0  3  0  0  0  0  0  0
  161.9570  205.8330  152.8380 S   0  0  0  0  0  0  0  0  0  0  0  0
  160.8320  206.1940  151.4570 C   0  0  0  0  0  2  0  0  0  0  0  0
  161.4710  205.7840  150.1400 C   0  0  1  0  0  3  0  0  0  0  0  0
  160.8310  204.4960  149.5960 C   0  0  2  0  0  3  0  0  0  0  0  0
  161.2760  206.9280  149.1470 C   0  0  0  0  0  2  0  0  0  0  0  0
  161.1190  203.1110  150.6810 Cl  0  0  0  0  0  0  0  0  0  0  0  0
  161.8680  206.5720  147.7890 C   0  0  0  0  0  2  0  0  0  0  0  0
  161.4070  204.1520  148.2240 C   0  0  0  0  0  2  0  0  0  0  0  0
  161.2040  205.3080  147.2490 C   0  0  2  0  0  3  0  0  0  0  0  0
  161.5920  203.6840  145.3860 O   0  0  0  0  0  1  0  0  0  0  0  0
  162.3950  205.8260  145.2550 O   0  0  0  0  0  0  0  0  0  0  0  0
  161.7680  204.9570  145.9150 C   0  0  0  0  0  0  0  0  0  0  0  0
  1 16  1  6  0  0  0
  1  3  1  0  0  0  0
  3  2  1  0  0  0  0
  4  1  1  0  0  0  0
  6  7  1  0  0  0  0
  7  4  1  0  0  0  0
  7  5  2  0  0  0  0
  8  6  1  0  0  0  0
  9 10  2  0  0  0  0
 10  8  1  0  0  0  0
 11 13  1  0  0  0  0
 12 14  1  0  0  0  0
 13 14  1  0  0  0  0
 14 10  1  6  0  0  0
 15 11  1  0  0  0  0
 15 12  1  0  0  0  0
 16 18  1  0  0  0  0
 18 17  1  1  0  0  0
 19 18  1  0  0  0  0
 20 19  1  0  0  0  0
 21 20  1  1  0  0  0
 22 21  1  0  0  0  0
 22 24  1  1  0  0  0
 23 21  1  0  0  0  0
 25 23  1  0  0  0  0
 26 22  1  0  0  0  0
 27 30  1  6  0  0  0
 27 25  1  0  0  0  0
 27 26  1  0  0  0  0
 28 30  1  0  0  0  0
 29 30  2  0  0  0  0
M  END
>  <MODEL>
6

>  <REMARK>
 VINA RESULT:      -6.6      3.135      4.655
  Name = 
  11 active torsions:
  status: ('A' for Active; 'I' for Inactive)
    1  A    between atoms: C_1  and  C_25
    2  A    between atoms: C_2  and  O_6
    3  A    between atoms: C_2  and  C_13
    4  A    between atoms: C_2  and  C_19
    5  A    between atoms: S_3  and  C_25
    6  A    between atoms: S_3  and  C_30
    7  A    between atoms: O_6  and  C_10
    8  A    between atoms: N_8  and  N_9
    9  A    between atoms: C_13  and  C_30
   10  A    between atoms: C_16  and  C_27
   11  A    between atoms: C_23  and  C_29
                            x       y       z     vdW  Elec       q    Type
                         _______ _______ _______ _____ _____    ______ ____

>  <TORSDO>
F 11

$$$$
=
 OpenBabel11072411133D

 30 31  0  0  1  0  0  0  0  0999 V2000
  161.1610  206.2990  152.2460 C   0  0  1  0  0  3  0  0  0  0  0  0
  161.8810  204.0750  151.6740 O   0  0  0  0  0  1  0  0  0  0  0  0
  161.2160  204.8260  152.6450 C   0  0  0  0  0  2  0  0  0  0  0  0
  161.6590  207.1170  153.2990 O   0  0  0  0  0  0  0  0  0  0  0  0
  160.5170  206.9380  155.2990 O   0  0  0  0  0  0  0  0  0  0  0  0
  160.3390  208.9680  154.1930 N   0  0  0  0  0  0  0  0  0  0  0  0
  160.8330  207.6360  154.2990 C   0  0  0  0  0  0  0  0  0  0  0  0
  160.7000  209.7820  153.1120 N   0  0  0  0  0  0  0  0  0  0  0  0
  160.4440  211.7580  151.9240 O   0  0  0  0  0  0  0  0  0  0  0  0
  160.0650  211.0390  152.8880 C   0  0  0  0  0  0  0  0  0  0  0  0
  157.2250  213.1410  154.1800 C   0  0  0  0  0  2  0  0  0  0  0  0
  159.5260  212.1930  155.0180 C   0  0  0  0  0  2  0  0  0  0  0  0
  158.0700  212.5040  153.0990 C   0  0  0  0  0  2  0  0  0  0  0  0
  158.9680  211.5070  153.7920 C   0  0  1  0  0  3  0  0  0  0  0  0
  158.2230  213.2620  155.7000 S   0  0  0  0  0  0  0  0  0  0  0  0
  161.9660  206.5550  150.9780 C   0  0  0  0  0  2  0  0  0  0  0  0
  162.3480  208.8070  150.2820 O   0  0  0  0  0  1  0  0  0  0  0  0
  161.4290  207.7600  150.2180 C   0  0  1  0  0  3  0  0  0  0  0  0
  161.1460  207.3160  148.4800 S   0  0  0  0  0  0  0  0  0  0  0  0
  161.9930  205.7180  148.6540 C   0  0  0  0  0  2  0  0  0  0  0  0
  161.2950  204.6620  147.8140 C   0  0  1  0  0  3  0  0  0  0  0  0
  162.0720  204.3900  146.5140 C   0  0  2  0  0  3  0  0  0  0  0  0
  161.2010  203.3840  148.6460 C   0  0  0  0  0  2  0  0  0  0  0  0
  162.1220  205.8330  145.4670 Cl  0  0  0  0  0  0  0  0  0  0  0  0
  160.5360  202.2680  147.8500 C   0  0  0  0  0  2  0  0  0  0  0  0
  161.4200  203.2550  145.7280 C   0  0  0  0  0  2  0  0  0  0  0  0
  161.3340  201.9910  146.5780 C   0  0  2  0  0  3  0  0  0  0  0  0
  159.6830  201.1670  144.8890 O   0  0  0  0  0  0  0  0  0  0  0  0
  161.0940  199.7080  145.9530 O   0  0  0  0  0  1  0  0  0  0  0  0
  160.6980  200.8920  145.7980 C   0  0  0  0  0  0  0  0  0  0  0  0
  1 16  1  6  0  0  0
  1  3  1  0  0  0  0
  1  4  1  0  0  0  0
  2  3  1  0  0  0  0
  4  7  1  0  0  0  0
  6  7  1  0  0  0  0
  7  5  2  0  0  0  0
  8  6  2  0  0  0  0
  9 10  2  0  0  0  0
 10  8  1  0  0  0  0
 11 15  1  0  0  0  0
 12 15  1  0  0  0  0
 13 14  1  0  0  0  0
 13 11  1  0  0  0  0
 14 10  1  6  0  0  0
 14 12  1  0  0  0  0
 18 17  1  6  0  0  0
 18 16  1  0  0  0  0
 19 20  1  0  0  0  0
 19 18  1  0  0  0  0
 21 23  1  0  0  0  0
 21 20  1  1  0  0  0
 22 24  1  6  0  0  0
 22 21  1  0  0  0  0
 25 23  1  0  0  0  0
 26 22  1  0  0  0  0
 26 27  1  0  0  0  0
 27 30  1  6  0  0  0
 27 25  1  0  0  0  0
 28 30  2  0  0  0  0
 30 29  1  0  0  0  0
M  END
>  <MODEL>
7

>  <REMARK>
 VINA RESULT:      -6.6      2.181      2.791
  Name = 
  11 active torsions:
  status: ('A' for Active; 'I' for Inactive)
    1  A    between atoms: C_1  and  C_25
    2  A    between atoms: C_2  and  O_6
    3  A    between atoms: C_2  and  C_13
    4  A    between atoms: C_2  and  C_19
    5  A    between atoms: S_3  and  C_25
    6  A    between atoms: S_3  and  C_30
    7  A    between atoms: O_6  and  C_10
    8  A    between atoms: N_8  and  N_9
    9  A    between atoms: C_13  and  C_30
   10  A    between atoms: C_16  and  C_27
   11  A    between atoms: C_23  and  C_29
                            x       y       z     vdW  Elec       q    Type
                         _______ _______ _______ _____ _____    ______ ____

>  <TORSDO>
F 11

$$$$
=
 OpenBabel11072411133D

 30 31  0  0  1  0  0  0  0  0999 V2000
  160.8570  208.0370  153.8940 C   0  0  1  0  0  3  0  0  0  0  0  0
  161.8770  205.8640  153.7390 O   0  0  0  0  0  1  0  0  0  0  0  0
  160.7080  206.5780  153.4700 C   0  0  0  0  0  2  0  0  0  0  0  0
  161.3480  208.1190  155.2280 O   0  0  0  0  0  0  0  0  0  0  0  0
  160.1060  206.9910  156.8150 O   0  0  0  0  0  0  0  0  0  0  0  0
  160.0880  209.3050  156.9510 N   0  0  0  0  0  2  0  0  0  0  0  0
  160.5050  208.0870  156.3410 C   0  0  0  0  0  0  0  0  0  0  0  0
  160.5420  210.5390  156.4700 N   0  0  0  0  0  2  0  0  0  0  0  0
  160.0920  212.7220  155.8220 O   0  0  0  0  0  0  0  0  0  0  0  0
  159.6390  211.6150  156.2210 C   0  0  0  0  0  0  0  0  0  0  0  0
  155.9750  211.3030  155.4280 C   0  0  0  0  0  2  0  0  0  0  0  0
  157.5470  212.6930  157.0080 C   0  0  0  0  0  2  0  0  0  0  0  0
  157.4510  211.1350  155.1470 C   0  0  0  0  0  2  0  0  0  0  0  0
  158.1690  211.4380  156.4400 C   0  0  1  0  0  3  0  0  0  0  0  0
  155.7660  212.6440  156.6440 S   0  0  0  0  0  0  0  0  0  0  0  0
  161.7950  208.7890  152.9590 C   0  0  0  0  0  2  0  0  0  0  0  0
  161.3970  209.9550  150.9150 O   0  0  0  0  0  1  0  0  0  0  0  0
  161.3230  208.6990  151.5150 C   0  0  1  0  0  3  0  0  0  0  0  0
  162.3680  207.5320  150.5960 S   0  0  0  0  0  0  0  0  0  0  0  0
  161.2120  207.4560  149.1960 C   0  0  0  0  0  2  0  0  0  0  0  0
  160.6830  206.0410  149.0310 C   0  0  1  0  0  3  0  0  0  0  0  0
  161.3030  205.3620  147.7980 C   0  0  2  0  0  3  0  0  0  0  0  0
  161.0330  205.2570  150.2940 C   0  0  0  0  0  2  0  0  0  0  0  0
  160.8380  206.1910  146.2890 Cl  0  0  0  0  0  0  0  0  0  0  0  0
  160.5580  203.8140  150.1850 C   0  0  0  0  0  2  0  0  0  0  0  0
  160.8460  203.9080  147.7010 C   0  0  0  0  0  2  0  0  0  0  0  0
  161.2030  203.1460  148.9740 C   0  0  2  0  0  3  0  0  0  0  0  0
  159.4110  201.4000  149.0170 O   0  0  0  0  0  1  0  0  0  0  0  0
  161.5930  200.8250  148.6170 O   0  0  0  0  0  0  0  0  0  0  0  0
  160.7530  201.7290  148.8640 C   0  0  0  0  0  0  0  0  0  0  0  0
  1 16  1  6  0  0  0
  1  4  1  0  0  0  0
  3  2  1  0  0  0  0
  3  1  1  0  0  0  0
  4  7  1  0  0  0  0
  7  5  2  0  0  0  0
  7  6  1  0  0  0  0
  8  6  1  0  0  0  0
  9 10  2  0  0  0  0
 10  8  1  0  0  0  0
 11 15  1  0  0  0  0
 13 11  1  0  0  0  0
 13 14  1  0  0  0  0
 14 10  1  6  0  0  0
 14 12  1  0  0  0  0
 15 12  1  0  0  0  0
 18 17  1  6  0  0  0
 18 16  1  0  0  0  0
 19 18  1  0  0  0  0
 20 19  1  0  0  0  0
 21 20  1  1  0  0  0
 21 23  1  0  0  0  0
 22 24  1  6  0  0  0
 22 21  1  0  0  0  0
 25 23  1  0  0  0  0
 26 22  1  0  0  0  0
 26 27  1  0  0  0  0
 27 30  1  6  0  0  0
 27 25  1  0  0  0  0
 29 30  2  0  0  0  0
 30 28  1  0  0  0  0
M  END
>  <MODEL>
8

>  <REMARK>
 VINA RESULT:      -6.5      2.216      2.693
  Name = 
  11 active torsions:
  status: ('A' for Active; 'I' for Inactive)
    1  A    between atoms: C_1  and  C_25
    2  A    between atoms: C_2  and  O_6
    3  A    between atoms: C_2  and  C_13
    4  A    between atoms: C_2  and  C_19
    5  A    between atoms: S_3  and  C_25
    6  A    between atoms: S_3  and  C_30
    7  A    between atoms: O_6  and  C_10
    8  A    between atoms: N_8  and  N_9
    9  A    between atoms: C_13  and  C_30
   10  A    between atoms: C_16  and  C_27
   11  A    between atoms: C_23  and  C_29
                            x       y       z     vdW  Elec       q    Type
                         _______ _______ _______ _____ _____    ______ ____

>  <TORSDO>
F 11

$$$$
=
 OpenBabel11072411133D

 30 31  0  0  1  0  0  0  0  0999 V2000
  160.8440  206.7920  153.1140 C   0  0  1  0  0  3  0  0  0  0  0  0
  162.1060  208.5130  152.0030 O   0  0  0  0  0  1  0  0  0  0  0  0
  160.8190  208.1390  152.3960 C   0  0  0  0  0  2  0  0  0  0  0  0
  161.7170  205.8890  152.4450 O   0  0  0  0  0  0  0  0  0  0  0  0
  160.8110  203.8090  152.0100 O   0  0  0  0  0  0  0  0  0  0  0  0
  161.2750  205.1340  150.1650 N   0  0  0  0  0  0  0  0  0  0  0  0
  161.2510  204.9040  151.5700 C   0  0  0  0  0  0  0  0  0  0  0  0
  161.7260  206.3530  149.6460 N   0  0  0  0  0  0  0  0  0  0  0  0
  162.0870  207.7390  147.8190 O   0  0  0  0  0  0  0  0  0  0  0  0
  161.7050  206.6150  148.2440 C   0  0  0  0  0  0  0  0  0  0  0  0
  161.8360  203.8150  145.7330 C   0  0  0  0  0  2  0  0  0  0  0  0
  160.7530  206.1940  145.9910 C   0  0  0  0  0  2  0  0  0  0  0  0
  162.3270  204.6000  146.9300 C   0  0  0  0  0  2  0  0  0  0  0  0
  161.2260  205.5700  147.2840 C   0  0  1  0  0  3  0  0  0  0  0  0
  160.8100  204.9120  144.7020 S   0  0  0  0  0  0  0  0  0  0  0  0
  161.2860  206.9490  154.5630 C   0  0  0  0  0  2  0  0  0  0  0  0
  159.7120  207.0740  156.3530 O   0  0  0  0  0  1  0  0  0  0  0  0
  160.3160  207.8240  155.3440 C   0  0  1  0  0  3  0  0  0  0  0  0
  161.2060  209.2220  156.0860 S   0  0  0  0  0  0  0  0  0  0  0  0
  159.7040  210.2400  156.1920 C   0  0  0  0  0  2  0  0  0  0  0  0
  159.2880  210.7050  154.8060 C   0  0  1  0  0  3  0  0  0  0  0  0
  158.1820  211.7700  154.8920 C   0  0  2  0  0  3  0  0  0  0  0  0
  160.5210  211.2820  154.1130 C   0  0  0  0  0  2  0  0  0  0  0  0
  156.6880  211.1090  155.6080 Cl  0  0  0  0  0  0  0  0  0  0  0  0
  160.1680  211.7980  152.7240 C   0  0  0  0  0  2  0  0  0  0  0  0
  157.8450  212.3050  153.5020 C   0  0  0  0  0  2  0  0  0  0  0  0
  159.0900  212.8730  152.8280 C   0  0  2  0  0  3  0  0  0  0  0  0
  159.7170  213.4770  150.4820 O   0  0  0  0  0  0  0  0  0  0  0  0
  157.5650  213.7450  151.2220 O   0  0  0  0  0  1  0  0  0  0  0  0
  158.7470  213.3940  151.4730 C   0  0  0  0  0  0  0  0  0  0  0  0
  1  3  1  6  0  0  0
  1 16  1  0  0  0  0
  2  3  1  0  0  0  0
  4  1  1  0  0  0  0
  6  7  1  0  0  0  0
  7  5  2  0  0  0  0
  7  4  1  0  0  0  0
  8  6  2  0  0  0  0
  9 10  2  0  0  0  0
 10  8  1  0  0  0  0
 11 13  1  0  0  0  0
 12 14  1  0  0  0  0
 13 14  1  0  0  0  0
 14 10  1  1  0  0  0
 15 11  1  0  0  0  0
 15 12  1  0  0  0  0
 16 18  1  0  0  0  0
 18 19  1  0  0  0  0
 18 17  1  1  0  0  0
 19 20  1  0  0  0  0
 21 22  1  0  0  0  0
 21 20  1  1  0  0  0
 22 24  1  6  0  0  0
 23 21  1  0  0  0  0
 25 27  1  0  0  0  0
 25 23  1  0  0  0  0
 26 22  1  0  0  0  0
 27 30  1  6  0  0  0
 27 26  1  0  0  0  0
 28 30  2  0  0  0  0
 29 30  1  0  0  0  0
M  END
>  <MODEL>
9

>  <REMARK>
 VINA RESULT:      -6.5      3.796      9.100
  Name = 
  11 active torsions:
  status: ('A' for Active; 'I' for Inactive)
    1  A    between atoms: C_1  and  C_25
    2  A    between atoms: C_2  and  O_6
    3  A    between atoms: C_2  and  C_13
    4  A    between atoms: C_2  and  C_19
    5  A    between atoms: S_3  and  C_25
    6  A    between atoms: S_3  and  C_30
    7  A    between atoms: O_6  and  C_10
    8  A    between atoms: N_8  and  N_9
    9  A    between atoms: C_13  and  C_30
   10  A    between atoms: C_16  and  C_27
   11  A    between atoms: C_23  and  C_29
                            x       y       z     vdW  Elec       q    Type
                         _______ _______ _______ _____ _____    ______ ____

>  <TORSDO>
F 11

$$$$
