=
 OpenBabel11072412143D

 31 34  0  0  1  0  0  0  0  0999 V2000
  161.7490  208.9950  152.8660 C   0  0  2  0  0  3  0  0  0  0  0  0
  161.8500  207.1540  147.1920 O   0  0  0  0  0  0  0  0  0  0  0  0
  161.5600  207.0260  151.2080 C   0  0  2  0  0  3  0  0  0  0  0  0
  161.7630  208.3500  150.5380 C   0  0  0  0  0  0  0  0  0  0  0  0
  161.8130  209.5290  151.4430 C   0  0  0  0  0  2  0  0  0  0  0  0
  162.0860  209.7320  148.5050 C   0  0  0  0  0  1  0  0  0  0  0  0
  161.6090  207.2010  148.4300 C   0  0  0  0  0  0  0  0  0  0  0  0
  161.8390  208.4330  149.2020 C   0  0  0  0  0  0  0  0  0  0  0  0
  160.6170  206.2030  150.4460 N   0  0  0  0  0  2  0  0  0  0  0  0
  161.1140  206.0500  149.1350 N   0  0  0  0  0  0  0  0  0  0  0  0
  160.8980  207.3840  152.8550 S   0  0  0  0  0  0  0  0  0  0  0  0
  161.0050  209.9650  153.7700 C   0  0  0  0  0  2  0  0  0  0  0  0
  159.8340  211.2550  157.2340 O   0  0  0  0  0  0  0  0  0  0  0  0
  163.2830  210.8020  155.9250 C   0  0  0  0  0  2  0  0  0  0  0  0
  159.7190  209.3020  155.8250 C   0  0  0  0  0  2  0  0  0  0  0  0
  162.6840  210.1020  156.9960 O   0  0  0  0  0  0  0  0  0  0  0  0
  161.1140  209.5490  155.2330 C   0  0  2  0  0  3  0  0  0  0  0  0
  160.9770  211.7790  156.5980 C   0  0  0  0  0  2  0  0  0  0  0  0
  159.0580  210.6230  156.2420 C   0  0  0  0  0  2  0  0  0  0  0  0
  161.8210  210.6410  156.0300 C   0  0  2  0  0  0  0  0  0  0  0  0
  161.1670  204.7190  148.5500 C   0  0  0  0  0  2  0  0  0  0  0  0
  161.2040  203.6670  149.6470 C   0  0  0  0  0  2  0  0  0  0  0  0
  160.4720  202.4100  149.1980 C   0  0  2  0  0  3  0  0  0  0  0  0
  161.1340  202.2810  151.7040 S   0  0  0  0  0  1  0  0  0  0  0  0
  160.4240  201.4690  150.3060 N   0  0  0  0  0  2  0  0  0  0  0  0
  161.7020  200.5240  148.3850 O   0  0  0  0  0  1  0  0  0  0  0  0
  161.1850  201.7660  148.0100 C   0  0  1  0  0  3  0  0  0  0  0  0
  160.2790  201.5910  146.9270 O   0  0  0  0  0  0  0  0  0  0  0  0
  160.5610  202.0630  145.6450 C   0  0  0  0  0  0  0  0  0  0  0  0
  159.9470  201.5830  144.6570 O   0  0  0  0  0  0  0  0  0  0  0  0
  161.5110  203.0580  145.4470 O   0  0  0  0  0  1  0  0  0  0  0  0
  1 12  1  1  0  0  0
  2  7  2  0  0  0  0
  3  9  1  6  0  0  0
  3 11  1  0  0  0  0
  4  3  1  0  0  0  0
  4  5  1  0  0  0  0
  5  1  1  0  0  0  0
  6  8  1  0  0  0  0
  7 10  1  0  0  0  0
  7  8  1  0  0  0  0
  8  4  2  0  0  0  0
 10  9  1  0  0  0  0
 11  1  1  0  0  0  0
 14 16  1  0  0  0  0
 15 19  1  0  0  0  0
 17 12  1  6  0  0  0
 17 15  1  0  0  0  0
 17 20  1  0  0  0  0
 18 13  1  0  0  0  0
 19 13  1  0  0  0  0
 20 14  1  6  0  0  0
 20 18  1  0  0  0  0
 20 16  1  0  0  0  0
 21 10  1  0  0  0  0
 21 22  1  0  0  0  0
 23 22  1  1  0  0  0
 23 25  1  0  0  0  0
 25 24  1  0  0  0  0
 27 26  1  1  0  0  0
 27 23  1  0  0  0  0
 28 27  1  0  0  0  0
 29 28  1  0  0  0  0
 30 29  2  0  0  0  0
 31 29  1  0  0  0  0
M  END
>  <MODEL>
1

>  <REMARK>
 VINA RESULT:      -7.2      0.000      0.000
  Name = 
  9 active torsions:
  status: ('A' for Active; 'I' for Inactive)
    1  A    between atoms: C_1  and  C_17
    2  A    between atoms: C_1  and  C_19
    3  A    between atoms: C_1  and  N_24
    4  A    between atoms: C_3  and  C_16
    5  A    between atoms: C_5  and  O_9
    6  A    between atoms: O_9  and  C_17
    7  A    between atoms: C_14  and  C_16
    8  A    between atoms: C_19  and  C_30
    9  A    between atoms: N_28  and  C_30
                            x       y       z     vdW  Elec       q    Type
                         _______ _______ _______ _____ _____    ______ ____

>  <TORSDO>
F 9

$$$$
=
 OpenBabel11072412143D

 31 34  0  0  1  0  0  0  0  0999 V2000
  161.6570  208.0970  153.2050 C   0  0  2  0  0  3  0  0  0  0  0  0
  161.9090  207.2250  147.3090 O   0  0  0  0  0  0  0  0  0  0  0  0
  161.5450  206.4270  151.2410 C   0  0  2  0  0  3  0  0  0  0  0  0
  161.7300  207.8480  150.8040 C   0  0  0  0  0  0  0  0  0  0  0  0
  161.7360  208.8600  151.8920 C   0  0  0  0  0  2  0  0  0  0  0  0
  162.0600  209.5540  149.0350 C   0  0  0  0  0  1  0  0  0  0  0  0
  161.6430  207.0620  148.5310 C   0  0  0  0  0  0  0  0  0  0  0  0
  161.8300  208.1520  149.5020 C   0  0  0  0  0  0  0  0  0  0  0  0
  160.6350  205.7240  150.3320 N   0  0  0  0  0  2  0  0  0  0  0  0
  161.1600  205.8000  149.0250 N   0  0  0  0  0  0  0  0  0  0  0  0
  160.8430  206.4940  152.9090 S   0  0  0  0  0  0  0  0  0  0  0  0
  160.8740  208.8890  154.2400 C   0  0  0  0  0  2  0  0  0  0  0  0
  160.2620  212.0950  156.3340 O   0  0  0  0  0  0  0  0  0  0  0  0
  159.1260  211.2690  152.8930 C   0  0  0  0  0  2  0  0  0  0  0  0
  162.0530  210.7960  155.3770 C   0  0  0  0  0  2  0  0  0  0  0  0
  160.0270  212.2920  153.2650 O   0  0  0  0  0  0  0  0  0  0  0  0
  161.2080  210.3750  154.1660 C   0  0  2  0  0  3  0  0  0  0  0  0
  159.2810  211.5820  155.4630 C   0  0  0  0  0  2  0  0  0  0  0  0
  161.1670  211.0490  156.6040 C   0  0  0  0  0  2  0  0  0  0  0  0
  159.9210  211.1940  154.1330 C   0  0  2  0  0  0  0  0  0  0  0  0
  161.2540  204.5860  148.2290 C   0  0  0  0  0  2  0  0  0  0  0  0
  161.3510  203.3710  149.1380 C   0  0  0  0  0  2  0  0  0  0  0  0
  160.4940  202.2360  148.5960 C   0  0  2  0  0  3  0  0  0  0  0  0
  160.9800  201.9310  151.1270 S   0  0  0  0  0  1  0  0  0  0  0  0
  160.1220  201.3590  149.6940 N   0  0  0  0  0  2  0  0  0  0  0  0
  161.5750  200.1740  148.0400 O   0  0  0  0  0  1  0  0  0  0  0  0
  161.2580  201.4390  147.5400 C   0  0  1  0  0  3  0  0  0  0  0  0
  160.4710  201.2970  146.3640 O   0  0  0  0  0  0  0  0  0  0  0  0
  160.4870  202.2500  145.3460 C   0  0  0  0  0  0  0  0  0  0  0  0
  159.5810  202.2420  144.4720 O   0  0  0  0  0  0  0  0  0  0  0  0
  161.4900  203.2100  145.2860 O   0  0  0  0  0  1  0  0  0  0  0  0
  1 12  1  1  0  0  0
  2  7  2  0  0  0  0
  3  9  1  6  0  0  0
  3 11  1  0  0  0  0
  4  3  1  0  0  0  0
  4  5  1  0  0  0  0
  5  1  1  0  0  0  0
  6  8  1  0  0  0  0
  7 10  1  0  0  0  0
  7  8  1  0  0  0  0
  8  4  2  0  0  0  0
 10  9  1  0  0  0  0
 11  1  1  0  0  0  0
 13 19  1  0  0  0  0
 14 16  1  0  0  0  0
 15 19  1  0  0  0  0
 16 20  1  0  0  0  0
 17 12  1  1  0  0  0
 17 15  1  0  0  0  0
 18 13  1  0  0  0  0
 20 14  1  6  0  0  0
 20 17  1  0  0  0  0
 20 18  1  0  0  0  0
 21 10  1  0  0  0  0
 21 22  1  0  0  0  0
 23 22  1  1  0  0  0
 23 25  1  0  0  0  0
 25 24  1  0  0  0  0
 27 26  1  1  0  0  0
 27 23  1  0  0  0  0
 28 27  1  0  0  0  0
 29 28  1  0  0  0  0
 30 29  2  0  0  0  0
 31 29  1  0  0  0  0
M  END
>  <MODEL>
2

>  <REMARK>
 VINA RESULT:      -7.1      1.127      1.698
  Name = 
  9 active torsions:
  status: ('A' for Active; 'I' for Inactive)
    1  A    between atoms: C_1  and  C_17
    2  A    between atoms: C_1  and  C_19
    3  A    between atoms: C_1  and  N_24
    4  A    between atoms: C_3  and  C_16
    5  A    between atoms: C_5  and  O_9
    6  A    between atoms: O_9  and  C_17
    7  A    between atoms: C_14  and  C_16
    8  A    between atoms: C_19  and  C_30
    9  A    between atoms: N_28  and  C_30
                            x       y       z     vdW  Elec       q    Type
                         _______ _______ _______ _____ _____    ______ ____

>  <TORSDO>
F 9

$$$$
=
 OpenBabel11072412143D

 31 34  0  0  1  0  0  0  0  0999 V2000
  161.6520  205.5870  149.5150 C   0  0  2  0  0  3  0  0  0  0  0  0
  161.1690  208.1800  154.8660 O   0  0  0  0  0  0  0  0  0  0  0  0
  161.6500  207.7730  150.8880 C   0  0  2  0  0  3  0  0  0  0  0  0
  161.4000  206.5510  151.7160 C   0  0  0  0  0  0  0  0  0  0  0  0
  161.3250  205.2690  150.9660 C   0  0  0  0  0  2  0  0  0  0  0  0
  161.0040  205.4480  153.9010 C   0  0  0  0  0  1  0  0  0  0  0  0
  161.1520  208.0040  153.6170 C   0  0  0  0  0  0  0  0  0  0  0  0
  161.2110  206.6520  153.0390 C   0  0  0  0  0  0  0  0  0  0  0  0
  160.8130  208.8850  151.3470 N   0  0  0  0  0  2  0  0  0  0  0  0
  161.0870  209.1190  152.7110 N   0  0  0  0  0  0  0  0  0  0  0  0
  161.2300  207.3290  149.1830 S   0  0  0  0  0  0  0  0  0  0  0  0
  160.8700  204.6810  148.5780 C   0  0  0  0  0  2  0  0  0  0  0  0
  161.0250  202.3400  145.4910 O   0  0  0  0  0  0  0  0  0  0  0  0
  160.5040  201.4940  149.0710 C   0  0  0  0  0  2  0  0  0  0  0  0
  162.3730  203.9220  146.7110 C   0  0  0  0  0  2  0  0  0  0  0  0
  161.6060  201.1300  148.2660 O   0  0  0  0  0  0  0  0  0  0  0  0
  161.7410  203.5420  148.0580 C   0  0  2  0  0  3  0  0  0  0  0  0
  160.1570  202.0840  146.5700 C   0  0  0  0  0  2  0  0  0  0  0  0
  161.3840  203.7010  145.5590 C   0  0  0  0  0  2  0  0  0  0  0  0
  160.8980  202.2820  147.8890 C   0  0  2  0  0  0  0  0  0  0  0  0
  161.3560  210.4780  153.1550 C   0  0  0  0  0  2  0  0  0  0  0  0
  160.4560  211.4560  152.4190 C   0  0  0  0  0  2  0  0  0  0  0  0
  159.0740  211.4850  153.0550 C   0  0  2  0  0  3  0  0  0  0  0  0
  159.3590  213.3800  151.3040 S   0  0  0  0  0  1  0  0  0  0  0  0
  158.3200  212.5980  152.4980 N   0  0  0  0  0  2  0  0  0  0  0  0
  158.9380  212.9770  154.9220 O   0  0  0  0  0  1  0  0  0  0  0  0
  159.1810  211.6470  154.5710 C   0  0  1  0  0  3  0  0  0  0  0  0
  158.2370  210.8080  155.2240 O   0  0  0  0  0  0  0  0  0  0  0  0
  156.9850  211.2750  155.6230 C   0  0  0  0  0  0  0  0  0  0  0  0
  156.0340  211.2870  154.7980 O   0  0  0  0  0  0  0  0  0  0  0  0
  156.7750  211.7250  156.9210 O   0  0  0  0  0  1  0  0  0  0  0  0
  1 12  1  6  0  0  0
  1  5  1  0  0  0  0
  3 11  1  6  0  0  0
  3  9  1  0  0  0  0
  3  4  1  0  0  0  0
  4  8  2  0  0  0  0
  5  4  1  0  0  0  0
  7  2  2  0  0  0  0
  8  7  1  0  0  0  0
  8  6  1  0  0  0  0
  9 10  1  0  0  0  0
 10 21  1  0  0  0  0
 10  7  1  0  0  0  0
 11  1  1  0  0  0  0
 13 19  1  0  0  0  0
 13 18  1  0  0  0  0
 15 17  1  0  0  0  0
 16 14  1  0  0  0  0
 17 12  1  6  0  0  0
 19 15  1  0  0  0  0
 20 18  1  6  0  0  0
 20 17  1  0  0  0  0
 20 16  1  0  0  0  0
 20 14  1  0  0  0  0
 22 21  1  0  0  0  0
 23 22  1  6  0  0  0
 23 27  1  0  0  0  0
 24 25  1  0  0  0  0
 25 23  1  0  0  0  0
 27 26  1  6  0  0  0
 27 28  1  0  0  0  0
 28 29  1  0  0  0  0
 29 31  1  0  0  0  0
 30 29  2  0  0  0  0
M  END
>  <MODEL>
3

>  <REMARK>
 VINA RESULT:      -7.0      2.815     10.087
  Name = 
  9 active torsions:
  status: ('A' for Active; 'I' for Inactive)
    1  A    between atoms: C_1  and  C_17
    2  A    between atoms: C_1  and  C_19
    3  A    between atoms: C_1  and  N_24
    4  A    between atoms: C_3  and  C_16
    5  A    between atoms: C_5  and  O_9
    6  A    between atoms: O_9  and  C_17
    7  A    between atoms: C_14  and  C_16
    8  A    between atoms: C_19  and  C_30
    9  A    between atoms: N_28  and  C_30
                            x       y       z     vdW  Elec       q    Type
                         _______ _______ _______ _____ _____    ______ ____

>  <TORSDO>
F 9

$$$$
=
 OpenBabel11072412143D

 31 34  0  0  1  0  0  0  0  0999 V2000
  161.7080  205.7220  149.1860 C   0  0  2  0  0  3  0  0  0  0  0  0
  161.1270  207.6090  154.8160 O   0  0  0  0  0  0  0  0  0  0  0  0
  161.6530  207.7160  150.8240 C   0  0  2  0  0  3  0  0  0  0  0  0
  161.4180  206.3950  151.4880 C   0  0  0  0  0  0  0  0  0  0  0  0
  161.3740  205.2180  150.5820 C   0  0  0  0  0  2  0  0  0  0  0  0
  161.0230  205.0180  153.5120 C   0  0  0  0  0  1  0  0  0  0  0  0
  161.1250  207.5920  153.5550 C   0  0  0  0  0  0  0  0  0  0  0  0
  161.2140  206.3250  152.8110 C   0  0  0  0  0  0  0  0  0  0  0  0
  160.7910  208.7470  151.4100 N   0  0  0  0  0  2  0  0  0  0  0  0
  161.0480  208.8110  152.7950 N   0  0  0  0  0  0  0  0  0  0  0  0
  161.2570  207.4840  149.0720 S   0  0  0  0  0  0  0  0  0  0  0  0
  160.9520  204.9280  148.1330 C   0  0  0  0  0  2  0  0  0  0  0  0
  160.8030  202.2760  145.3080 O   0  0  0  0  0  0  0  0  0  0  0  0
  160.6340  201.8140  148.9920 C   0  0  0  0  0  2  0  0  0  0  0  0
  162.2650  203.9620  146.2190 C   0  0  0  0  0  2  0  0  0  0  0  0
  161.6530  201.3560  148.1260 O   0  0  0  0  0  0  0  0  0  0  0  0
  161.7680  203.7320  147.6540 C   0  0  2  0  0  3  0  0  0  0  0  0
  160.0450  202.1430  146.4880 C   0  0  0  0  0  2  0  0  0  0  0  0
  161.1680  203.6330  145.1980 C   0  0  0  0  0  2  0  0  0  0  0  0
  160.9120  202.4700  147.7000 C   0  0  2  0  0  0  0  0  0  0  0  0
  161.2860  210.1070  153.4110 C   0  0  0  0  0  2  0  0  0  0  0  0
  159.9670  210.7500  153.8050 C   0  0  0  0  0  2  0  0  0  0  0  0
  159.8400  210.8100  155.3200 C   0  0  2  0  0  3  0  0  0  0  0  0
  157.6720  211.6510  154.1680 S   0  0  0  0  0  1  0  0  0  0  0  0
  158.4760  211.1760  155.6660 N   0  0  0  0  0  2  0  0  0  0  0  0
  160.1030  212.9650  156.3280 O   0  0  0  0  0  1  0  0  0  0  0  0
  160.8090  211.8370  155.9030 C   0  0  1  0  0  3  0  0  0  0  0  0
  161.5140  211.2800  157.0050 O   0  0  0  0  0  0  0  0  0  0  0  0
  162.6410  210.4770  156.8310 C   0  0  0  0  0  0  0  0  0  0  0  0
  163.6700  210.9580  156.2880 O   0  0  0  0  0  0  0  0  0  0  0  0
  162.6420  209.1520  157.2520 O   0  0  0  0  0  1  0  0  0  0  0  0
  1 12  1  6  0  0  0
  1  5  1  0  0  0  0
  3 11  1  6  0  0  0
  3  9  1  0  0  0  0
  3  4  1  0  0  0  0
  4  8  2  0  0  0  0
  5  4  1  0  0  0  0
  7  2  2  0  0  0  0
  8  6  1  0  0  0  0
  8  7  1  0  0  0  0
  9 10  1  0  0  0  0
 10 21  1  0  0  0  0
 10  7  1  0  0  0  0
 11  1  1  0  0  0  0
 13 18  1  0  0  0  0
 15 17  1  0  0  0  0
 16 14  1  0  0  0  0
 17 20  1  0  0  0  0
 17 12  1  6  0  0  0
 19 13  1  0  0  0  0
 19 15  1  0  0  0  0
 20 18  1  6  0  0  0
 20 16  1  0  0  0  0
 20 14  1  0  0  0  0
 21 22  1  0  0  0  0
 23 22  1  6  0  0  0
 23 25  1  0  0  0  0
 23 27  1  0  0  0  0
 24 25  1  0  0  0  0
 27 26  1  1  0  0  0
 27 28  1  0  0  0  0
 29 28  1  0  0  0  0
 29 31  1  0  0  0  0
 30 29  2  0  0  0  0
M  END
>  <MODEL>
4

>  <REMARK>
 VINA RESULT:      -6.9      2.542     10.165
  Name = 
  9 active torsions:
  status: ('A' for Active; 'I' for Inactive)
    1  A    between atoms: C_1  and  C_17
    2  A    between atoms: C_1  and  C_19
    3  A    between atoms: C_1  and  N_24
    4  A    between atoms: C_3  and  C_16
    5  A    between atoms: C_5  and  O_9
    6  A    between atoms: O_9  and  C_17
    7  A    between atoms: C_14  and  C_16
    8  A    between atoms: C_19  and  C_30
    9  A    between atoms: N_28  and  C_30
                            x       y       z     vdW  Elec       q    Type
                         _______ _______ _______ _____ _____    ______ ____

>  <TORSDO>
F 9

$$$$
=
 OpenBabel11072412143D

 31 34  0  0  1  0  0  0  0  0999 V2000
  161.6960  205.6040  149.3490 C   0  0  2  0  0  3  0  0  0  0  0  0
  161.2570  208.0640  154.7660 O   0  0  0  0  0  0  0  0  0  0  0  0
  161.7280  207.7530  150.7780 C   0  0  2  0  0  3  0  0  0  0  0  0
  161.4610  206.5140  151.5740 C   0  0  0  0  0  0  0  0  0  0  0  0
  161.3660  205.2530  150.7920 C   0  0  0  0  0  2  0  0  0  0  0  0
  161.0510  205.3600  153.7300 C   0  0  0  0  0  1  0  0  0  0  0  0
  161.2360  207.9200  153.5130 C   0  0  0  0  0  0  0  0  0  0  0  0
  161.2740  206.5830  152.9000 C   0  0  0  0  0  0  0  0  0  0  0  0
  160.9080  208.8650  151.2670 N   0  0  0  0  0  2  0  0  0  0  0  0
  161.1870  209.0590  152.6360 N   0  0  0  0  0  0  0  0  0  0  0  0
  161.3000  207.3600  149.0630 S   0  0  0  0  0  0  0  0  0  0  0  0
  160.9000  204.7340  148.3890 C   0  0  0  0  0  2  0  0  0  0  0  0
  160.8990  202.2900  145.3790 O   0  0  0  0  0  0  0  0  0  0  0  0
  160.5570  201.5660  149.0080 C   0  0  0  0  0  2  0  0  0  0  0  0
  162.3080  203.9090  146.4770 C   0  0  0  0  0  2  0  0  0  0  0  0
  161.6180  201.1730  148.1620 O   0  0  0  0  0  0  0  0  0  0  0  0
  161.7440  203.5760  147.8660 C   0  0  2  0  0  3  0  0  0  0  0  0
  160.0860  202.0720  146.5080 C   0  0  0  0  0  2  0  0  0  0  0  0
  161.2620  203.6520  145.3840 C   0  0  0  0  0  2  0  0  0  0  0  0
  160.8930  202.3130  147.7810 C   0  0  2  0  0  0  0  0  0  0  0  0
  161.4750  210.4020  153.1150 C   0  0  0  0  0  2  0  0  0  0  0  0
  160.2410  211.2790  152.9880 C   0  0  0  0  0  2  0  0  0  0  0  0
  159.9790  212.0160  154.2940 C   0  0  2  0  0  3  0  0  0  0  0  0
  160.8380  211.5590  156.7000 S   0  0  0  0  0  1  0  0  0  0  0  0
  159.8120  211.0410  155.3600 N   0  0  0  0  0  2  0  0  0  0  0  0
  158.8550  213.7790  153.1280 O   0  0  0  0  0  1  0  0  0  0  0  0
  158.7200  212.8750  154.1850 C   0  0  1  0  0  3  0  0  0  0  0  0
  157.5810  212.0550  153.9600 O   0  0  0  0  0  0  0  0  0  0  0  0
  156.4020  212.2120  154.6890 C   0  0  0  0  0  0  0  0  0  0  0  0
  155.6410  213.1840  154.4380 O   0  0  0  0  0  0  0  0  0  0  0  0
  156.0560  211.3090  155.6860 O   0  0  0  0  0  1  0  0  0  0  0  0
  1 12  1  6  0  0  0
  1  5  1  0  0  0  0
  3 11  1  6  0  0  0
  3  9  1  0  0  0  0
  3  4  1  0  0  0  0
  4  8  2  0  0  0  0
  5  4  1  0  0  0  0
  7  2  2  0  0  0  0
  8  7  1  0  0  0  0
  8  6  1  0  0  0  0
  9 10  1  0  0  0  0
 10 21  1  0  0  0  0
 10  7  1  0  0  0  0
 11  1  1  0  0  0  0
 13 19  1  0  0  0  0
 13 18  1  0  0  0  0
 15 17  1  0  0  0  0
 16 14  1  0  0  0  0
 17 12  1  6  0  0  0
 19 15  1  0  0  0  0
 20 18  1  6  0  0  0
 20 17  1  0  0  0  0
 20 16  1  0  0  0  0
 20 14  1  0  0  0  0
 22 21  1  0  0  0  0
 23 22  1  6  0  0  0
 23 25  1  0  0  0  0
 25 24  1  0  0  0  0
 27 26  1  6  0  0  0
 27 23  1  0  0  0  0
 28 27  1  0  0  0  0
 28 29  1  0  0  0  0
 29 31  1  0  0  0  0
 30 29  2  0  0  0  0
M  END
>  <MODEL>
5

>  <REMARK>
 VINA RESULT:      -6.8      3.004     10.166
  Name = 
  9 active torsions:
  status: ('A' for Active; 'I' for Inactive)
    1  A    between atoms: C_1  and  C_17
    2  A    between atoms: C_1  and  C_19
    3  A    between atoms: C_1  and  N_24
    4  A    between atoms: C_3  and  C_16
    5  A    between atoms: C_5  and  O_9
    6  A    between atoms: O_9  and  C_17
    7  A    between atoms: C_14  and  C_16
    8  A    between atoms: C_19  and  C_30
    9  A    between atoms: N_28  and  C_30
                            x       y       z     vdW  Elec       q    Type
                         _______ _______ _______ _____ _____    ______ ____

>  <TORSDO>
F 9

$$$$
=
 OpenBabel11072412143D

 31 34  0  0  1  0  0  0  0  0999 V2000
  161.6290  205.6020  149.4900 C   0  0  2  0  0  3  0  0  0  0  0  0
  161.2090  208.1730  154.8560 O   0  0  0  0  0  0  0  0  0  0  0  0
  161.6560  207.7810  150.8720 C   0  0  2  0  0  3  0  0  0  0  0  0
  161.4020  206.5570  151.6970 C   0  0  0  0  0  0  0  0  0  0  0  0
  161.3120  205.2800  150.9420 C   0  0  0  0  0  2  0  0  0  0  0  0
  161.0150  205.4470  153.8800 C   0  0  0  0  0  1  0  0  0  0  0  0
  161.1810  208.0030  153.6070 C   0  0  0  0  0  0  0  0  0  0  0  0
  161.2240  206.6540  153.0220 C   0  0  0  0  0  0  0  0  0  0  0  0
  160.8320  208.8980  151.3430 N   0  0  0  0  0  2  0  0  0  0  0  0
  161.1180  209.1230  152.7060 N   0  0  0  0  0  0  0  0  0  0  0  0
  161.2190  207.3480  149.1690 S   0  0  0  0  0  0  0  0  0  0  0  0
  160.8330  204.7060  148.5550 C   0  0  0  0  0  2  0  0  0  0  0  0
  160.8860  202.3160  145.5020 O   0  0  0  0  0  0  0  0  0  0  0  0
  160.5090  201.5250  149.1130 C   0  0  0  0  0  2  0  0  0  0  0  0
  162.2690  203.9270  146.6440 C   0  0  0  0  0  2  0  0  0  0  0  0
  161.5820  201.1550  148.2720 O   0  0  0  0  0  0  0  0  0  0  0  0
  161.6920  203.5650  148.0200 C   0  0  2  0  0  3  0  0  0  0  0  0
  160.0620  202.0720  146.6170 C   0  0  0  0  0  2  0  0  0  0  0  0
  161.2380  203.6800  145.5340 C   0  0  0  0  0  2  0  0  0  0  0  0
  160.8520  202.2960  147.9040 C   0  0  2  0  0  0  0  0  0  0  0  0
  161.4010  210.4780  153.1540 C   0  0  0  0  0  2  0  0  0  0  0  0
  160.2420  211.3960  152.8060 C   0  0  0  0  0  2  0  0  0  0  0  0
  159.6390  211.9890  154.0710 C   0  0  2  0  0  3  0  0  0  0  0  0
  159.3810  211.1400  156.5110 S   0  0  0  0  0  1  0  0  0  0  0  0
  158.9580  210.9360  154.8090 N   0  0  0  0  0  2  0  0  0  0  0  0
  158.8850  214.2150  154.5300 O   0  0  0  0  0  1  0  0  0  0  0  0
  158.6440  213.0980  153.7270 C   0  0  1  0  0  3  0  0  0  0  0  0
  158.7710  213.4650  152.3590 O   0  0  0  0  0  0  0  0  0  0  0  0
  157.6580  213.7010  151.5530 C   0  0  0  0  0  0  0  0  0  0  0  0
  156.5810  214.0920  152.0770 O   0  0  0  0  0  1  0  0  0  0  0  0
  157.7240  213.5140  150.1770 O   0  0  0  0  0  0  0  0  0  0  0  0
  1 12  1  6  0  0  0
  1  5  1  0  0  0  0
  3 11  1  6  0  0  0
  3  9  1  0  0  0  0
  3  4  1  0  0  0  0
  4  8  2  0  0  0  0
  5  4  1  0  0  0  0
  7  2  2  0  0  0  0
  8  7  1  0  0  0  0
  8  6  1  0  0  0  0
  9 10  1  0  0  0  0
 10 21  1  0  0  0  0
 10  7  1  0  0  0  0
 11  1  1  0  0  0  0
 13 19  1  0  0  0  0
 13 18  1  0  0  0  0
 15 17  1  0  0  0  0
 16 14  1  0  0  0  0
 17 12  1  6  0  0  0
 19 15  1  0  0  0  0
 20 18  1  6  0  0  0
 20 17  1  0  0  0  0
 20 16  1  0  0  0  0
 20 14  1  0  0  0  0
 22 21  1  0  0  0  0
 23 22  1  6  0  0  0
 23 25  1  0  0  0  0
 25 24  1  0  0  0  0
 27 23  1  0  0  0  0
 27 26  1  1  0  0  0
 28 27  1  0  0  0  0
 29 30  1  0  0  0  0
 29 28  1  0  0  0  0
 31 29  2  0  0  0  0
M  END
>  <MODEL>
6

>  <REMARK>
 VINA RESULT:      -6.7      3.409     10.003
  Name = 
  9 active torsions:
  status: ('A' for Active; 'I' for Inactive)
    1  A    between atoms: C_1  and  C_17
    2  A    between atoms: C_1  and  C_19
    3  A    between atoms: C_1  and  N_24
    4  A    between atoms: C_3  and  C_16
    5  A    between atoms: C_5  and  O_9
    6  A    between atoms: O_9  and  C_17
    7  A    between atoms: C_14  and  C_16
    8  A    between atoms: C_19  and  C_30
    9  A    between atoms: N_28  and  C_30
                            x       y       z     vdW  Elec       q    Type
                         _______ _______ _______ _____ _____    ______ ____

>  <TORSDO>
F 9

$$$$
=
 OpenBabel11072412143D

 31 34  0  0  1  0  0  0  0  0999 V2000
  161.5940  207.9700  153.0050 C   0  0  2  0  0  3  0  0  0  0  0  0
  162.2400  207.0690  147.1440 O   0  0  0  0  0  0  0  0  0  0  0  0
  161.8590  206.2780  151.0750 C   0  0  2  0  0  3  0  0  0  0  0  0
  161.8090  207.7010  150.6150 C   0  0  0  0  0  0  0  0  0  0  0  0
  161.5920  208.7150  151.6800 C   0  0  0  0  0  2  0  0  0  0  0  0
  161.9080  209.4130  148.8230 C   0  0  0  0  0  1  0  0  0  0  0  0
  161.9570  206.8790  148.3580 C   0  0  0  0  0  0  0  0  0  0  0  0
  161.9080  208.0000  149.3110 C   0  0  0  0  0  0  0  0  0  0  0  0
  161.1250  205.4110  150.1470 N   0  0  0  0  0  2  0  0  0  0  0  0
  161.6840  205.5590  148.8600 N   0  0  0  0  0  0  0  0  0  0  0  0
  161.0870  206.2440  152.7130 S   0  0  0  0  0  0  0  0  0  0  0  0
  160.6410  208.6260  153.9920 C   0  0  0  0  0  2  0  0  0  0  0  0
  159.8150  211.4460  156.5220 O   0  0  0  0  0  0  0  0  0  0  0  0
  159.1230  211.2690  152.8750 C   0  0  0  0  0  2  0  0  0  0  0  0
  161.6940  210.2620  155.5840 C   0  0  0  0  0  2  0  0  0  0  0  0
  159.9840  212.1770  153.5310 O   0  0  0  0  0  0  0  0  0  0  0  0
  161.0060  210.0890  154.2220 C   0  0  2  0  0  3  0  0  0  0  0  0
  158.9470  211.1300  155.4590 C   0  0  0  0  0  2  0  0  0  0  0  0
  160.6600  210.3350  156.7150 C   0  0  0  0  0  2  0  0  0  0  0  0
  159.7480  210.9500  154.1720 C   0  0  2  0  0  0  0  0  0  0  0  0
  162.0230  204.3690  148.0960 C   0  0  0  0  0  2  0  0  0  0  0  0
  160.8460  203.9490  147.2310 C   0  0  0  0  0  2  0  0  0  0  0  0
  161.2470  202.8050  146.3120 C   0  0  2  0  0  3  0  0  0  0  0  0
  161.0170  204.7840  144.6490 S   0  0  0  0  0  1  0  0  0  0  0  0
  160.7400  203.0720  144.9750 N   0  0  0  0  0  2  0  0  0  0  0  0
  160.9560  200.4640  145.9030 O   0  0  0  0  0  1  0  0  0  0  0  0
  160.6790  201.4800  146.8200 C   0  0  1  0  0  3  0  0  0  0  0  0
  161.2530  201.1480  148.0780 O   0  0  0  0  0  0  0  0  0  0  0  0
  160.5680  201.3460  149.2770 C   0  0  0  0  0  0  0  0  0  0  0  0
  159.3090  201.3240  149.2850 O   0  0  0  0  0  0  0  0  0  0  0  0
  161.2590  201.5650  150.4630 O   0  0  0  0  0  1  0  0  0  0  0  0
  1 12  1  1  0  0  0
  2  7  2  0  0  0  0
  3  9  1  6  0  0  0
  3 11  1  0  0  0  0
  4  3  1  0  0  0  0
  4  5  1  0  0  0  0
  5  1  1  0  0  0  0
  6  8  1  0  0  0  0
  7 10  1  0  0  0  0
  7  8  1  0  0  0  0
  8  4  2  0  0  0  0
 10  9  1  0  0  0  0
 11  1  1  0  0  0  0
 13 19  1  0  0  0  0
 14 16  1  0  0  0  0
 15 19  1  0  0  0  0
 16 20  1  0  0  0  0
 17 12  1  1  0  0  0
 17 15  1  0  0  0  0
 18 13  1  0  0  0  0
 20 14  1  6  0  0  0
 20 17  1  0  0  0  0
 20 18  1  0  0  0  0
 21 10  1  0  0  0  0
 22 21  1  0  0  0  0
 23 27  1  0  0  0  0
 23 22  1  1  0  0  0
 24 25  1  0  0  0  0
 25 23  1  0  0  0  0
 27 26  1  6  0  0  0
 27 28  1  0  0  0  0
 28 29  1  0  0  0  0
 29 30  2  0  0  0  0
 29 31  1  0  0  0  0
M  END
>  <MODEL>
7

>  <REMARK>
 VINA RESULT:      -6.6      2.139      2.895
  Name = 
  9 active torsions:
  status: ('A' for Active; 'I' for Inactive)
    1  A    between atoms: C_1  and  C_17
    2  A    between atoms: C_1  and  C_19
    3  A    between atoms: C_1  and  N_24
    4  A    between atoms: C_3  and  C_16
    5  A    between atoms: C_5  and  O_9
    6  A    between atoms: O_9  and  C_17
    7  A    between atoms: C_14  and  C_16
    8  A    between atoms: C_19  and  C_30
    9  A    between atoms: N_28  and  C_30
                            x       y       z     vdW  Elec       q    Type
                         _______ _______ _______ _____ _____    ______ ____

>  <TORSDO>
F 9

$$$$
=
 OpenBabel11072412143D

 31 34  0  0  1  0  0  0  0  0999 V2000
  160.6830  209.0390  155.4380 C   0  0  2  0  0  3  0  0  0  0  0  0
  162.2370  207.2900  149.9500 O   0  0  0  0  0  0  0  0  0  0  0  0
  161.2070  207.0820  153.8390 C   0  0  2  0  0  3  0  0  0  0  0  0
  161.2720  208.4240  153.1780 C   0  0  0  0  0  0  0  0  0  0  0  0
  160.9150  209.5830  154.0370 C   0  0  0  0  0  2  0  0  0  0  0  0
  161.7060  209.8550  151.2000 C   0  0  0  0  0  1  0  0  0  0  0  0
  161.7570  207.2810  151.1170 C   0  0  0  0  0  0  0  0  0  0  0  0
  161.5870  208.5290  151.8790 C   0  0  0  0  0  0  0  0  0  0  0  0
  160.6080  206.0930  152.9380 N   0  0  0  0  0  2  0  0  0  0  0  0
  161.3700  206.0490  151.7510 N   0  0  0  0  0  0  0  0  0  0  0  0
  160.1820  207.2910  155.3170 S   0  0  0  0  0  0  0  0  0  0  0  0
  159.6030  209.8360  156.1520 C   0  0  0  0  0  2  0  0  0  0  0  0
  158.5960  213.4640  157.0760 O   0  0  0  0  0  0  0  0  0  0  0  0
  156.7700  210.9560  155.0310 C   0  0  0  0  0  2  0  0  0  0  0  0
  160.3130  212.2360  155.9120 C   0  0  0  0  0  2  0  0  0  0  0  0
  157.3060  212.1850  154.5850 O   0  0  0  0  0  0  0  0  0  0  0  0
  159.3290  211.1560  155.4380 C   0  0  2  0  0  3  0  0  0  0  0  0
  157.6400  212.4350  156.9750 C   0  0  0  0  0  2  0  0  0  0  0  0
  159.8540  212.8510  157.2410 C   0  0  0  0  0  2  0  0  0  0  0  0
  157.8990  211.6090  155.7190 C   0  0  2  0  0  0  0  0  0  0  0  0
  161.7940  204.7590  151.2310 C   0  0  0  0  0  2  0  0  0  0  0  0
  160.7660  204.2290  150.2460 C   0  0  0  0  0  2  0  0  0  0  0  0
  161.4120  203.9790  148.8900 C   0  0  2  0  0  3  0  0  0  0  0  0
  162.1550  205.3870  146.8410 S   0  0  0  0  0  1  0  0  0  0  0  0
  160.8450  204.9010  147.9190 N   0  0  0  0  0  2  0  0  0  0  0  0
  160.0170  202.0390  149.0450 O   0  0  0  0  0  1  0  0  0  0  0  0
  161.1680  202.5410  148.4330 C   0  0  1  0  0  3  0  0  0  0  0  0
  161.0090  202.4930  147.0210 O   0  0  0  0  0  0  0  0  0  0  0  0
  160.7750  201.2960  146.3450 C   0  0  0  0  0  0  0  0  0  0  0  0
  161.2180  200.2170  146.8180 O   0  0  0  0  0  1  0  0  0  0  0  0
  160.0550  201.2800  145.1560 O   0  0  0  0  0  0  0  0  0  0  0  0
  1 12  1  6  0  0  0
  2  7  2  0  0  0  0
  3  9  1  6  0  0  0
  3 11  1  0  0  0  0
  4  3  1  0  0  0  0
  4  5  1  0  0  0  0
  5  1  1  0  0  0  0
  6  8  1  0  0  0  0
  7 10  1  0  0  0  0
  7  8  1  0  0  0  0
  8  4  2  0  0  0  0
 10  9  1  0  0  0  0
 11  1  1  0  0  0  0
 13 19  1  0  0  0  0
 15 19  1  0  0  0  0
 16 14  1  0  0  0  0
 16 20  1  0  0  0  0
 17 20  1  0  0  0  0
 17 15  1  0  0  0  0
 17 12  1  1  0  0  0
 18 13  1  0  0  0  0
 20 14  1  1  0  0  0
 20 18  1  0  0  0  0
 21 10  1  0  0  0  0
 22 21  1  0  0  0  0
 23 22  1  1  0  0  0
 24 25  1  0  0  0  0
 25 23  1  0  0  0  0
 27 23  1  0  0  0  0
 27 26  1  1  0  0  0
 28 27  1  0  0  0  0
 29 30  1  0  0  0  0
 29 28  1  0  0  0  0
 31 29  2  0  0  0  0
M  END
>  <MODEL>
8

>  <REMARK>
 VINA RESULT:      -6.5      2.254      3.168
  Name = 
  9 active torsions:
  status: ('A' for Active; 'I' for Inactive)
    1  A    between atoms: C_1  and  C_17
    2  A    between atoms: C_1  and  C_19
    3  A    between atoms: C_1  and  N_24
    4  A    between atoms: C_3  and  C_16
    5  A    between atoms: C_5  and  O_9
    6  A    between atoms: O_9  and  C_17
    7  A    between atoms: C_14  and  C_16
    8  A    between atoms: C_19  and  C_30
    9  A    between atoms: N_28  and  C_30
                            x       y       z     vdW  Elec       q    Type
                         _______ _______ _______ _____ _____    ______ ____

>  <TORSDO>
F 9

$$$$
=
 OpenBabel11072412143D

 31 34  0  0  1  0  0  0  0  0999 V2000
  161.2710  210.6700  153.4140 C   0  0  2  0  0  3  0  0  0  0  0  0
  162.4130  207.4990  148.4910 O   0  0  0  0  0  0  0  0  0  0  0  0
  161.5390  208.3420  152.3320 C   0  0  2  0  0  3  0  0  0  0  0  0
  161.7000  209.4710  151.3620 C   0  0  0  0  0  0  0  0  0  0  0  0
  161.4910  210.8330  151.9180 C   0  0  0  0  0  2  0  0  0  0  0  0
  162.1780  210.3310  149.0860 C   0  0  0  0  0  1  0  0  0  0  0  0
  161.9850  207.8210  149.6340 C   0  0  0  0  0  0  0  0  0  0  0  0
  161.9660  209.2260  150.0710 C   0  0  0  0  0  0  0  0  0  0  0  0
  160.8110  207.2310  151.7120 N   0  0  0  0  0  2  0  0  0  0  0  0
  161.5130  206.8250  150.5580 N   0  0  0  0  0  0  0  0  0  0  0  0
  160.6040  209.0050  153.7340 S   0  0  0  0  0  0  0  0  0  0  0  0
  160.3020  211.7210  153.9320 C   0  0  0  0  0  2  0  0  0  0  0  0
  156.8250  213.3860  153.5170 O   0  0  0  0  0  0  0  0  0  0  0  0
  158.0460  211.0990  156.1800 C   0  0  0  0  0  2  0  0  0  0  0  0
  158.3160  211.8590  152.3970 C   0  0  0  0  0  2  0  0  0  0  0  0
  157.0230  210.8370  155.2410 O   0  0  0  0  0  0  0  0  0  0  0  0
  158.8550  211.2910  153.7180 C   0  0  2  0  0  3  0  0  0  0  0  0
  157.4040  213.1900  154.7860 C   0  0  0  0  0  2  0  0  0  0  0  0
  157.8650  213.3160  152.5690 C   0  0  0  0  0  2  0  0  0  0  0  0
  157.9920  211.7850  154.8760 C   0  0  2  0  0  0  0  0  0  0  0  0
  161.7910  205.4110  150.3610 C   0  0  0  0  0  2  0  0  0  0  0  0
  160.8170  204.8210  149.3550 C   0  0  0  0  0  2  0  0  0  0  0  0
  161.5720  204.1390  148.2230 C   0  0  2  0  0  3  0  0  0  0  0  0
  162.6990  205.0120  146.0540 S   0  0  0  0  0  1  0  0  0  0  0  0
  161.2060  204.7680  146.9640 N   0  0  0  0  0  2  0  0  0  0  0  0
  160.2650  202.3500  149.1300 O   0  0  0  0  0  1  0  0  0  0  0  0
  161.2340  202.6500  148.1690 C   0  0  1  0  0  3  0  0  0  0  0  0
  160.7430  202.3030  146.8810 O   0  0  0  0  0  0  0  0  0  0  0  0
  160.8280  201.0020  146.3840 C   0  0  0  0  0  0  0  0  0  0  0  0
  161.5150  200.1450  147.0000 O   0  0  0  0  0  1  0  0  0  0  0  0
  160.1610  200.6410  145.2200 O   0  0  0  0  0  0  0  0  0  0  0  0
  1 11  1  0  0  0  0
  1 12  1  6  0  0  0
  2  7  2  0  0  0  0
  3  4  1  6  0  0  0
  3 11  1  0  0  0  0
  4  5  1  0  0  0  0
  5  1  1  0  0  0  0
  6  8  1  0  0  0  0
  7  8  1  0  0  0  0
  7 10  1  0  0  0  0
  8  4  2  0  0  0  0
  9  3  1  0  0  0  0
 10  9  1  0  0  0  0
 13 18  1  0  0  0  0
 15 19  1  0  0  0  0
 15 17  1  0  0  0  0
 16 14  1  0  0  0  0
 17 12  1  1  0  0  0
 17 20  1  0  0  0  0
 19 13  1  0  0  0  0
 20 18  1  6  0  0  0
 20 16  1  0  0  0  0
 20 14  1  0  0  0  0
 21 10  1  0  0  0  0
 22 21  1  0  0  0  0
 23 22  1  1  0  0  0
 24 25  1  0  0  0  0
 25 23  1  0  0  0  0
 27 23  1  0  0  0  0
 27 26  1  1  0  0  0
 28 27  1  0  0  0  0
 29 28  1  0  0  0  0
 29 30  1  0  0  0  0
 31 29  2  0  0  0  0
M  END
>  <MODEL>
9

>  <REMARK>
 VINA RESULT:      -6.4      2.421      3.163
  Name = 
  9 active torsions:
  status: ('A' for Active; 'I' for Inactive)
    1  A    between atoms: C_1  and  C_17
    2  A    between atoms: C_1  and  C_19
    3  A    between atoms: C_1  and  N_24
    4  A    between atoms: C_3  and  C_16
    5  A    between atoms: C_5  and  O_9
    6  A    between atoms: O_9  and  C_17
    7  A    between atoms: C_14  and  C_16
    8  A    between atoms: C_19  and  C_30
    9  A    between atoms: N_28  and  C_30
                            x       y       z     vdW  Elec       q    Type
                         _______ _______ _______ _____ _____    ______ ____

>  <TORSDO>
F 9

$$$$
