=
 OpenBabel11072414573D

 65 68  0  0  1  0  0  0  0  0999 V2000
  162.0730  207.8250  150.7120 O   0  0  0  0  0  0  0  0  0  0  0  0
  161.1020  205.5690  146.4920 N   0  0  0  0  0  0  0  0  0  0  0  0
  162.8610  203.2260  151.9790 N   0  0  0  0  0  1  0  0  0  0  0  0
  159.7860  205.9880  153.1620 N   0  0  0  0  0  0  0  0  0  0  0  0
  161.8910  209.4010  152.4080 O   0  0  0  0  0  0  0  0  0  0  0  0
  159.3410  207.3990  148.8250 O   0  0  0  0  0  0  0  0  0  0  0  0
  162.2960  202.3130  145.2630 C   0  0  0  0  0  1  0  0  0  0  0  0
  161.2980  204.7570  149.9160 C   0  0  1  0  0  3  0  0  0  0  0  0
  160.9250  205.0460  145.3150 C   0  0  0  0  0  0  0  0  0  0  0  0
  161.4380  203.6270  147.9200 C   0  0  1  0  0  3  0  0  0  0  0  0
  160.0930  205.6590  151.7970 C   0  0  0  0  0  3  0  0  0  0  0  0
  162.2270  204.4630  152.2950 C   0  0  0  0  0  0  0  0  0  0  0  0
  159.8670  209.8780  151.3920 O   0  0  0  0  0  0  0  0  0  0  0  0
  161.1960  205.0200  151.3680 C   0  0  0  0  0  0  0  0  0  0  0  0
  160.1730  206.5220  155.3870 O   0  0  0  0  0  0  0  0  0  0  0  0
  161.5300  203.5520  149.4120 C   0  0  0  0  0  2  0  0  0  0  0  0
  160.7010  202.4800  147.2490 C   0  0  2  0  0  3  0  0  0  0  0  0
  162.1020  206.3830  153.7800 C   0  0  0  0  0  2  0  0  0  0  0  0
  160.8260  208.4170  156.7490 C   0  0  0  0  0  2  0  0  0  0  0  0
  160.9160  205.6810  148.8950 N   0  0  0  0  0  0  0  0  0  0  0  0
  160.5240  207.0490  149.0770 C   0  0  0  0  0  0  0  0  0  0  0  0
  162.5500  209.0480  151.2000 C   0  0  0  0  0  2  0  0  0  0  0  0
  161.2930  205.7950  144.1610 N   0  0  0  0  0  1  0  0  0  0  0  0
  161.5340  208.0940  149.4450 C   0  0  2  0  0  3  0  0  0  0  0  0
  160.5890  209.9080  152.4270 C   0  0  0  0  0  0  0  0  0  0  0  0
  161.1800  201.2510  147.7100 O   0  0  0  0  0  1  0  0  0  0  0  0
  162.6070  205.0860  153.3690 N   0  0  0  0  0  0  0  0  0  0  0  0
  160.0660  210.5890  153.6500 C   0  0  1  0  0  3  0  0  0  0  0  0
  160.8630  202.5640  145.7210 C   0  0  1  0  0  3  0  0  0  0  0  0
  160.3460  203.7760  145.1490 O   0  0  0  0  0  0  0  0  0  0  0  0
  161.1410  209.2880  155.5440 C   0  0  0  0  0  2  0  0  0  0  0  0
  160.6490  204.9020  147.7000 C   0  0  1  0  0  3  0  0  0  0  0  0
  161.0320  206.9400  156.4390 C   0  0  0  0  0  2  0  0  0  0  0  0
  159.8500  209.6170  154.8090 C   0  0  0  0  0  2  0  0  0  0  0  0
  160.6420  206.2810  154.0930 C   0  0  0  0  0  0  0  0  0  0  0  0
  160.9130  211.6390  154.0160 O   0  0  0  0  0  0  0  0  0  0  0  0
  160.1240  212.7940  153.9650 C   0  0  2  0  0  3  0  0  0  0  0  0
  159.4420  213.0270  155.3150 C   0  0  2  0  0  3  0  0  0  0  0  0
  160.4200  212.8300  156.4610 C   0  0  0  0  0  1  0  0  0  0  0  0
  158.3770  212.1410  155.4720 O   0  0  0  0  0  1  0  0  0  0  0  0
  159.1110  212.6810  152.8260 C   0  0  0  0  0  2  0  0  0  0  0  0
  159.7370  213.0190  151.4760 C   0  0  0  0  0  2  0  0  0  0  0  0
  159.1360  214.2930  150.9060 C   0  0  0  0  0  2  0  0  0  0  0  0
  159.5250  214.4500  149.4460 C   0  0  0  0  0  2  0  0  0  0  0  0
  158.3010  214.3300  148.5510 C   0  0  1  0  0  3  0  0  0  0  0  0
  159.1160  212.3090  147.3790 F   0  0  0  0  0  0  0  0  0  0  0  0
  158.6090  213.5710  147.2960 C   0  0  0  0  0  0  0  0  0  0  0  0
  158.2570  214.0670  146.1610 N   0  0  0  0  0  0  0  0  0  0  0  0
  158.3890  213.3320  144.9260 C   0  0  0  0  0  2  0  0  0  0  0  0
  159.6700  213.6850  144.2480 C   0  0  0  0  0  0  0  0  0  0  0  0
  160.8560  213.5490  144.9560 O   0  0  0  0  0  1  0  0  0  0  0  0
  159.6290  214.1000  142.9770 C   0  0  0  0  0  3  0  0  0  0  0  0
  160.7110  214.4180  142.1330 O   0  0  0  0  0  0  0  0  0  0  0  0
  162.9580  213.6870  142.6920 C   0  0  0  0  0  1  0  0  0  0  0  0
  161.3540  212.1390  141.5570 C   0  0  0  0  0  1  0  0  0  0  0  0
  162.2790  214.0720  140.3700 C   0  0  0  0  0  1  0  0  0  0  0  0
  161.7970  213.5840  141.7200 C   0  0  0  0  0  0  0  0  0  0  0  0
  156.3150  214.4530  150.0990 N   0  0  0  0  0  1  0  0  0  0  0  0
  156.9390  212.4420  149.1180 O   0  0  0  0  0  0  0  0  0  0  0  0
  157.1740  213.6700  149.2790 C   0  0  0  0  0  0  0  0  0  0  0  0
  162.6400  208.1750  148.3860 C   0  0  0  0  0  2  0  0  0  0  0  0
  162.7820  209.5940  147.8580 C   0  0  0  0  0  2  0  0  0  0  0  0
  161.6270  210.4560  148.3310 C   0  0  0  0  0  2  0  0  0  0  0  0
  163.1570  212.3240  147.9190 C   0  0  0  0  0  2  0  0  0  0  0  0
  162.1070  211.8460  148.5820 C   0  0  0  0  0  3  0  0  0  0  0  0
  1 22  1  0  0  0  0
  3 12  1  0  0  0  0
  4 35  2  0  0  0  0
  5 25  1  0  0  0  0
  6 21  2  0  0  0  0
  8 16  1  1  0  0  0
  8 14  1  0  0  0  0
  9  2  2  0  0  0  0
 10 16  1  1  0  0  0
 11  4  1  0  0  0  0
 12 27  2  0  0  0  0
 13 25  2  0  0  0  0
 14 11  2  0  0  0  0
 14 12  1  0  0  0  0
 15 33  1  0  0  0  0
 17 26  1  1  0  0  0
 17 10  1  0  0  0  0
 18 35  1  0  0  0  0
 20 21  1  0  0  0  0
 20  8  1  0  0  0  0
 21 24  1  0  0  0  0
 22  5  1  0  0  0  0
 23  9  1  0  0  0  0
 24 61  1  6  0  0  0
 24  1  1  0  0  0  0
 25 28  1  0  0  0  0
 27 18  1  0  0  0  0
 28 36  1  1  0  0  0
 28 34  1  0  0  0  0
 29  7  1  1  0  0  0
 29 17  1  0  0  0  0
 30  9  1  0  0  0  0
 30 29  1  0  0  0  0
 31 19  1  0  0  0  0
 32  2  1  6  0  0  0
 32 10  1  0  0  0  0
 32 20  1  0  0  0  0
 33 19  1  0  0  0  0
 34 31  1  0  0  0  0
 35 15  1  0  0  0  0
 37 41  1  6  0  0  0
 37 36  1  0  0  0  0
 37 38  1  0  0  0  0
 38 40  1  0  0  0  0
 38 39  1  1  0  0  0
 42 41  1  0  0  0  0
 43 42  1  0  0  0  0
 44 43  1  0  0  0  0
 45 60  1  0  0  0  0
 45 44  1  1  0  0  0
 47 46  1  0  0  0  0
 47 45  1  0  0  0  0
 48 47  2  0  0  0  0
 49 48  1  0  0  0  0
 50 49  1  0  0  0  0
 50 51  1  0  0  0  0
 52 50  2  0  0  0  0
 53 52  1  0  0  0  0
 55 57  1  0  0  0  0
 56 57  1  0  0  0  0
 57 53  1  0  0  0  0
 57 54  1  0  0  0  0
 59 60  2  0  0  0  0
 60 58  1  0  0  0  0
 62 63  1  0  0  0  0
 62 61  1  0  0  0  0
 63 65  1  0  0  0  0
 64 65  2  0  0  0  0
M  END
>  <MODEL>
1

>  <REMARK>
 VINA RESULT:       3.1      0.000      0.000
  Name = 
  18 active torsions:
  status: ('A' for Active; 'I' for Inactive)
    1  A    between atoms: O_3  and  C_46
    2  A    between atoms: O_3  and  C_50
    3  A    between atoms: C_9  and  C_16
    4  A    between atoms: C_9  and  C_37
    5  A    between atoms: C_15  and  C_46
    6  A    between atoms: C_16  and  C_55
    7  A    between atoms: C_24  and  C_55
    8  A    between atoms: C_26  and  C_38
    9  A    between atoms: C_29  and  C_40
   10  A    between atoms: C_29  and  C_44
   11  A    between atoms: C_36  and  C_63
   12  A    between atoms: C_37  and  C_58
   13  A    between atoms: C_38  and  N_41
   14  A    between atoms: C_40  and  C_63
   15  A    between atoms: C_46  and  C_58
   16  A    between atoms: O_51  and  C_62
   17  A    between atoms: O_51  and  C_64
   18  A    between atoms: C_55  and  C_59
                            x       y       z     vdW  Elec       q    Type
                         _______ _______ _______ _____ _____    ______ ____

>  <TORSDO>
F 18

$$$$
=
 OpenBabel11072414573D

 65 68  0  0  1  0  0  0  0  0999 V2000
  160.5980  206.0580  149.8080 O   0  0  0  0  0  0  0  0  0  0  0  0
  161.7520  209.0650  153.4760 N   0  0  0  0  0  0  0  0  0  0  0  0
  159.0530  203.4630  153.5830 N   0  0  0  0  0  1  0  0  0  0  0  0
  162.3090  202.8040  150.8530 N   0  0  0  0  0  0  0  0  0  0  0  0
  160.7870  204.9840  147.7570 O   0  0  0  0  0  0  0  0  0  0  0  0
  163.4530  207.2340  151.1000 O   0  0  0  0  0  0  0  0  0  0  0  0
  160.2860  209.3030  156.8430 C   0  0  0  0  0  1  0  0  0  0  0  0
  161.0420  205.6450  153.0130 C   0  0  1  0  0  3  0  0  0  0  0  0
  161.9950  209.9550  154.3930 C   0  0  0  0  0  0  0  0  0  0  0  0
  160.9900  207.1410  154.7570 C   0  0  1  0  0  3  0  0  0  0  0  0
  162.1250  204.0100  151.6140 C   0  0  0  0  0  3  0  0  0  0  0  0
  159.8060  203.4830  152.3730 C   0  0  0  0  0  0  0  0  0  0  0  0
  162.9630  205.7670  147.8420 O   0  0  0  0  0  0  0  0  0  0  0  0
  161.0050  204.3680  152.2670 C   0  0  0  0  0  0  0  0  0  0  0  0
  161.7350  200.9790  149.5400 O   0  0  0  0  0  0  0  0  0  0  0  0
  160.7120  205.7450  154.2950 C   0  0  0  0  0  2  0  0  0  0  0  0
  161.6410  207.2620  156.1250 C   0  0  2  0  0  3  0  0  0  0  0  0
  160.0100  202.7290  150.0710 C   0  0  0  0  0  2  0  0  0  0  0  0
  161.1850  200.4530  147.2390 C   0  0  0  0  0  2  0  0  0  0  0  0
  161.6640  206.8420  152.5430 N   0  0  0  0  0  0  0  0  0  0  0  0
  162.2120  207.0710  151.2380 C   0  0  0  0  0  0  0  0  0  0  0  0
  160.2340  206.0910  148.4560 C   0  0  0  0  0  2  0  0  0  0  0  0
  161.8720  211.3360  154.0690 N   0  0  0  0  0  1  0  0  0  0  0  0
  161.3150  207.2400  150.0480 C   0  0  2  0  0  3  0  0  0  0  0  0
  162.1340  204.9300  147.3890 C   0  0  0  0  0  0  0  0  0  0  0  0
  160.9490  206.4970  157.0680 O   0  0  0  0  0  1  0  0  0  0  0  0
  159.3880  202.7560  151.3820 N   0  0  0  0  0  0  0  0  0  0  0  0
  162.5940  203.9400  146.3690 C   0  0  1  0  0  3  0  0  0  0  0  0
  161.6750  208.7350  156.5700 C   0  0  1  0  0  3  0  0  0  0  0  0
  162.4140  209.5910  155.6850 O   0  0  0  0  0  0  0  0  0  0  0  0
  161.1360  201.9150  146.8240 C   0  0  0  0  0  2  0  0  0  0  0  0
  161.9640  207.6490  153.7120 C   0  0  1  0  0  3  0  0  0  0  0  0
  160.8210  200.2780  148.7080 C   0  0  0  0  0  2  0  0  0  0  0  0
  162.5380  202.5030  146.8860 C   0  0  0  0  0  2  0  0  0  0  0  0
  161.3950  202.1740  150.1800 C   0  0  0  0  0  0  0  0  0  0  0  0
  161.8590  204.0870  145.1890 O   0  0  0  0  0  0  0  0  0  0  0  0
  161.8670  205.4590  144.9080 C   0  0  2  0  0  3  0  0  0  0  0  0
  160.4360  205.9720  144.7450 C   0  0  2  0  0  3  0  0  0  0  0  0
  160.1200  207.0430  145.7750 C   0  0  0  0  0  1  0  0  0  0  0  0
  159.5300  204.9220  144.8930 O   0  0  0  0  0  1  0  0  0  0  0  0
  162.7160  205.7280  143.6650 C   0  0  0  0  0  2  0  0  0  0  0  0
  161.8590  205.8460  142.4080 C   0  0  0  0  0  2  0  0  0  0  0  0
  162.1510  207.1460  141.6760 C   0  0  0  0  0  2  0  0  0  0  0  0
  162.3070  206.8870  140.1880 C   0  0  0  0  0  2  0  0  0  0  0  0
  161.4380  207.8450  139.3860 C   0  0  1  0  0  3  0  0  0  0  0  0
  163.0030  209.7040  139.8520 F   0  0  0  0  0  0  0  0  0  0  0  0
  161.7150  209.2720  139.7480 C   0  0  0  0  0  0  0  0  0  0  0  0
  160.7340  210.1040  139.8150 N   0  0  0  0  0  0  0  0  0  0  0  0
  160.9350  211.5190  140.0140 C   0  0  0  0  0  2  0  0  0  0  0  0
  161.2040  211.8050  141.4540 C   0  0  0  0  0  0  0  0  0  0  0  0
  162.5220  211.8790  141.8820 O   0  0  0  0  0  1  0  0  0  0  0  0
  160.1650  212.0000  142.2720 C   0  0  0  0  0  3  0  0  0  0  0  0
  160.1890  212.3450  143.6390 O   0  0  0  0  0  0  0  0  0  0  0  0
  158.5020  214.0730  143.3890 C   0  0  0  0  0  1  0  0  0  0  0  0
  158.4280  212.4820  145.3170 C   0  0  0  0  0  1  0  0  0  0  0  0
  160.1880  214.1780  145.1630 C   0  0  0  0  0  1  0  0  0  0  0  0
  159.3260  213.2360  144.3500 C   0  0  0  0  0  0  0  0  0  0  0  0
  161.2620  208.6730  137.0110 N   0  0  0  0  0  1  0  0  0  0  0  0
  162.2110  206.6070  137.4860 O   0  0  0  0  0  0  0  0  0  0  0  0
  161.6430  207.6450  137.9190 C   0  0  0  0  0  0  0  0  0  0  0  0
  160.3640  208.4250  150.2500 C   0  0  0  0  0  2  0  0  0  0  0  0
  161.1320  209.7370  150.2830 C   0  0  0  0  0  2  0  0  0  0  0  0
  161.9540  209.9040  149.0190 C   0  0  0  0  0  2  0  0  0  0  0  0
  161.2470  211.9000  147.7890 C   0  0  0  0  0  2  0  0  0  0  0  0
  162.0670  211.3520  148.6810 C   0  0  0  0  0  3  0  0  0  0  0  0
  1 24  1  0  0  0  0
  2  9  2  0  0  0  0
  4 11  1  0  0  0  0
  5 22  1  0  0  0  0
  6 21  2  0  0  0  0
  8 16  1  1  0  0  0
  9 30  1  0  0  0  0
 10 16  1  6  0  0  0
 10 17  1  0  0  0  0
 11 14  2  0  0  0  0
 12  3  1  0  0  0  0
 14 12  1  0  0  0  0
 14  8  1  0  0  0  0
 15 35  1  0  0  0  0
 17 29  1  0  0  0  0
 17 26  1  1  0  0  0
 18 35  1  0  0  0  0
 18 27  1  0  0  0  0
 19 33  1  0  0  0  0
 20  8  1  0  0  0  0
 20 32  1  0  0  0  0
 21 20  1  0  0  0  0
 22  1  1  0  0  0  0
 23  9  1  0  0  0  0
 24 61  1  1  0  0  0
 24 21  1  0  0  0  0
 25  5  1  0  0  0  0
 25 13  2  0  0  0  0
 27 12  2  0  0  0  0
 28 36  1  6  0  0  0
 28 34  1  0  0  0  0
 28 25  1  0  0  0  0
 29  7  1  6  0  0  0
 30 29  1  0  0  0  0
 31 34  1  0  0  0  0
 31 19  1  0  0  0  0
 32  2  1  6  0  0  0
 32 10  1  0  0  0  0
 33 15  1  0  0  0  0
 35  4  2  0  0  0  0
 37 41  1  6  0  0  0
 37 36  1  0  0  0  0
 38 40  1  0  0  0  0
 38 37  1  0  0  0  0
 38 39  1  1  0  0  0
 42 41  1  0  0  0  0
 43 42  1  0  0  0  0
 44 43  1  0  0  0  0
 45 47  1  0  0  0  0
 45 44  1  1  0  0  0
 47 48  2  0  0  0  0
 47 46  1  0  0  0  0
 48 49  1  0  0  0  0
 49 50  1  0  0  0  0
 50 51  1  0  0  0  0
 50 52  2  0  0  0  0
 52 53  1  0  0  0  0
 53 57  1  0  0  0  0
 54 57  1  0  0  0  0
 57 56  1  0  0  0  0
 57 55  1  0  0  0  0
 58 60  1  0  0  0  0
 59 60  2  0  0  0  0
 60 45  1  0  0  0  0
 61 62  1  0  0  0  0
 63 62  1  0  0  0  0
 64 65  2  0  0  0  0
 65 63  1  0  0  0  0
M  END
>  <MODEL>
2

>  <REMARK>
 VINA RESULT:       3.9      3.127      8.470
  Name = 
  18 active torsions:
  status: ('A' for Active; 'I' for Inactive)
    1  A    between atoms: O_3  and  C_46
    2  A    between atoms: O_3  and  C_50
    3  A    between atoms: C_9  and  C_16
    4  A    between atoms: C_9  and  C_37
    5  A    between atoms: C_15  and  C_46
    6  A    between atoms: C_16  and  C_55
    7  A    between atoms: C_24  and  C_55
    8  A    between atoms: C_26  and  C_38
    9  A    between atoms: C_29  and  C_40
   10  A    between atoms: C_29  and  C_44
   11  A    between atoms: C_36  and  C_63
   12  A    between atoms: C_37  and  C_58
   13  A    between atoms: C_38  and  N_41
   14  A    between atoms: C_40  and  C_63
   15  A    between atoms: C_46  and  C_58
   16  A    between atoms: O_51  and  C_62
   17  A    between atoms: O_51  and  C_64
   18  A    between atoms: C_55  and  C_59
                            x       y       z     vdW  Elec       q    Type
                         _______ _______ _______ _____ _____    ______ ____

>  <TORSDO>
F 18

$$$$
=
 OpenBabel11072414573D

 65 68  0  0  1  0  0  0  0  0999 V2000
  160.3410  211.7240  149.5750 O   0  0  0  0  0  0  0  0  0  0  0  0
  162.5510  213.2230  145.4880 N   0  0  0  0  0  0  0  0  0  0  0  0
  156.5240  212.2100  146.6480 N   0  0  0  0  0  1  0  0  0  0  0  0
  157.7120  214.4440  150.1240 N   0  0  0  0  0  0  0  0  0  0  0  0
  159.9400  211.4940  151.8520 O   0  0  0  0  0  0  0  0  0  0  0  0
  162.0580  214.4520  148.6720 O   0  0  0  0  0  0  0  0  0  0  0  0
  161.4320  212.9330  141.9940 C   0  0  0  0  0  1  0  0  0  0  0  0
  159.3220  213.2850  146.8980 C   0  0  1  0  0  3  0  0  0  0  0  0
  163.2130  213.5210  144.4100 C   0  0  0  0  0  0  0  0  0  0  0  0
  160.2280  213.4340  144.7920 C   0  0  1  0  0  3  0  0  0  0  0  0
  158.5540  214.2230  148.9810 C   0  0  0  0  0  3  0  0  0  0  0  0
  157.1000  212.4930  147.9210 C   0  0  0  0  0  0  0  0  0  0  0  0
  161.3690  213.3050  152.0220 O   0  0  0  0  0  0  0  0  0  0  0  0
  158.3370  213.3270  148.0010 C   0  0  0  0  0  0  0  0  0  0  0  0
  156.1870  213.9500  151.8020 O   0  0  0  0  0  0  0  0  0  0  0  0
  158.9820  213.3800  145.6180 C   0  0  0  0  0  2  0  0  0  0  0  0
  160.2200  214.4440  143.6570 C   0  0  2  0  0  3  0  0  0  0  0  0
  157.0560  212.1130  150.3210 C   0  0  0  0  0  2  0  0  0  0  0  0
  156.0950  212.8260  153.9470 C   0  0  0  0  0  2  0  0  0  0  0  0
  160.7360  213.3950  147.0680 N   0  0  0  0  0  0  0  0  0  0  0  0
  161.4540  213.4080  148.3100 C   0  0  0  0  0  0  0  0  0  0  0  0
  160.5830  210.9410  150.7110 C   0  0  0  0  0  2  0  0  0  0  0  0
  164.5040  212.9550  144.2100 N   0  0  0  0  0  1  0  0  0  0  0  0
  161.5970  212.1580  149.1270 C   0  0  2  0  0  3  0  0  0  0  0  0
  160.4400  212.6120  152.5230 C   0  0  0  0  0  0  0  0  0  0  0  0
  159.0570  214.3170  142.8930 O   0  0  0  0  0  1  0  0  0  0  0  0
  156.5430  211.9710  148.9710 N   0  0  0  0  0  0  0  0  0  0  0  0
  159.9520  212.9450  153.8940 C   0  0  1  0  0  3  0  0  0  0  0  0
  161.4570  214.2510  142.7620 C   0  0  1  0  0  3  0  0  0  0  0  0
  162.7050  214.4180  143.4540 O   0  0  0  0  0  0  0  0  0  0  0  0
  157.5060  212.2770  153.8210 C   0  0  0  0  0  2  0  0  0  0  0  0
  161.2790  213.8500  145.8010 C   0  0  1  0  0  3  0  0  0  0  0  0
  155.4470  213.0210  152.5820 C   0  0  0  0  0  2  0  0  0  0  0  0
  158.5020  213.4260  153.8960 C   0  0  0  0  0  2  0  0  0  0  0  0
  156.9970  213.5500  150.7350 C   0  0  0  0  0  0  0  0  0  0  0  0
  160.1280  211.8520  154.7470 O   0  0  0  0  0  0  0  0  0  0  0  0
  159.2930  212.0920  155.8450 C   0  0  2  0  0  3  0  0  0  0  0  0
  160.1020  212.6710  157.0060 C   0  0  2  0  0  3  0  0  0  0  0  0
  160.2390  214.1790  156.8770 C   0  0  0  0  0  1  0  0  0  0  0  0
  161.3750  212.1020  157.0340 O   0  0  0  0  0  1  0  0  0  0  0  0
  158.5710  210.8030  156.2380 C   0  0  0  0  0  2  0  0  0  0  0  0
  159.4950  209.5900  156.1630 C   0  0  0  0  0  2  0  0  0  0  0  0
  159.3480  208.8820  154.8260 C   0  0  0  0  0  2  0  0  0  0  0  0
  159.9340  207.4830  154.9060 C   0  0  0  0  0  2  0  0  0  0  0  0
  161.3600  207.4710  154.3740 C   0  0  1  0  0  3  0  0  0  0  0  0
  162.9280  205.9750  153.1800 F   0  0  0  0  0  0  0  0  0  0  0  0
  161.6760  206.1820  153.6790 C   0  0  0  0  0  0  0  0  0  0  0  0
  160.8050  205.2340  153.6880 N   0  0  0  0  0  0  0  0  0  0  0  0
  161.0930  203.9190  153.1670 C   0  0  0  0  0  2  0  0  0  0  0  0
  160.8300  203.8750  151.6990 C   0  0  0  0  0  0  0  0  0  0  0  0
  159.8330  204.6880  151.1780 O   0  0  0  0  0  1  0  0  0  0  0  0
  161.5800  203.0690  150.9390 C   0  0  0  0  0  3  0  0  0  0  0  0
  161.5480  202.9220  149.5370 O   0  0  0  0  0  0  0  0  0  0  0  0
  159.6040  201.4690  149.4800 C   0  0  0  0  0  1  0  0  0  0  0  0
  160.4990  202.4910  147.3810 C   0  0  0  0  0  1  0  0  0  0  0  0
  161.7610  200.7570  148.5630 C   0  0  0  0  0  1  0  0  0  0  0  0
  160.8490  201.9490  148.7570 C   0  0  0  0  0  0  0  0  0  0  0  0
  162.2400  209.7900  153.9250 N   0  0  0  0  0  1  0  0  0  0  0  0
  161.2760  208.5300  152.2280 O   0  0  0  0  0  0  0  0  0  0  0  0
  161.5900  208.6180  153.4450 C   0  0  0  0  0  0  0  0  0  0  0  0
  162.2980  211.0610  148.3180 C   0  0  0  0  0  2  0  0  0  0  0  0
  161.8850  209.6810  148.8030 C   0  0  0  0  0  2  0  0  0  0  0  0
  162.8570  208.6290  148.3050 C   0  0  0  0  0  2  0  0  0  0  0  0
  160.8820  207.1840  148.4100 C   0  0  0  0  0  2  0  0  0  0  0  0
  162.2060  207.2870  148.3360 C   0  0  0  0  0  3  0  0  0  0  0  0
  1 22  1  0  0  0  0
  3 12  1  0  0  0  0
  4 35  2  0  0  0  0
  5 25  1  0  0  0  0
  8 16  1  6  0  0  0
  8 20  1  0  0  0  0
  8 14  1  0  0  0  0
  9  2  2  0  0  0  0
 10 16  1  1  0  0  0
 10 32  1  0  0  0  0
 11  4  1  0  0  0  0
 12 14  1  0  0  0  0
 12 27  2  0  0  0  0
 13 25  2  0  0  0  0
 14 11  2  0  0  0  0
 15 33  1  0  0  0  0
 17 26  1  6  0  0  0
 17 10  1  0  0  0  0
 18 35  1  0  0  0  0
 20 21  1  0  0  0  0
 21  6  2  0  0  0  0
 21 24  1  0  0  0  0
 22  5  1  0  0  0  0
 23  9  1  0  0  0  0
 24 61  1  6  0  0  0
 24  1  1  0  0  0  0
 25 28  1  0  0  0  0
 27 18  1  0  0  0  0
 28 34  1  0  0  0  0
 28 36  1  1  0  0  0
 29  7  1  1  0  0  0
 29 30  1  0  0  0  0
 29 17  1  0  0  0  0
 30  9  1  0  0  0  0
 31 34  1  0  0  0  0
 31 19  1  0  0  0  0
 32  2  1  6  0  0  0
 32 20  1  0  0  0  0
 33 19  1  0  0  0  0
 35 15  1  0  0  0  0
 36 37  1  0  0  0  0
 37 41  1  1  0  0  0
 37 38  1  0  0  0  0
 38 39  1  6  0  0  0
 38 40  1  0  0  0  0
 42 41  1  0  0  0  0
 43 44  1  0  0  0  0
 43 42  1  0  0  0  0
 45 44  1  6  0  0  0
 46 47  1  0  0  0  0
 47 48  2  0  0  0  0
 47 45  1  0  0  0  0
 49 48  1  0  0  0  0
 50 49  1  0  0  0  0
 51 50  1  0  0  0  0
 52 50  2  0  0  0  0
 53 52  1  0  0  0  0
 55 57  1  0  0  0  0
 56 57  1  0  0  0  0
 57 54  1  0  0  0  0
 57 53  1  0  0  0  0
 59 60  2  0  0  0  0
 60 58  1  0  0  0  0
 60 45  1  0  0  0  0
 61 62  1  0  0  0  0
 63 65  1  0  0  0  0
 63 62  1  0  0  0  0
 65 64  2  0  0  0  0
M  END
>  <MODEL>
3

>  <REMARK>
 VINA RESULT:       4.1      2.601      8.816
  Name = 
  18 active torsions:
  status: ('A' for Active; 'I' for Inactive)
    1  A    between atoms: O_3  and  C_46
    2  A    between atoms: O_3  and  C_50
    3  A    between atoms: C_9  and  C_16
    4  A    between atoms: C_9  and  C_37
    5  A    between atoms: C_15  and  C_46
    6  A    between atoms: C_16  and  C_55
    7  A    between atoms: C_24  and  C_55
    8  A    between atoms: C_26  and  C_38
    9  A    between atoms: C_29  and  C_40
   10  A    between atoms: C_29  and  C_44
   11  A    between atoms: C_36  and  C_63
   12  A    between atoms: C_37  and  C_58
   13  A    between atoms: C_38  and  N_41
   14  A    between atoms: C_40  and  C_63
   15  A    between atoms: C_46  and  C_58
   16  A    between atoms: O_51  and  C_62
   17  A    between atoms: O_51  and  C_64
   18  A    between atoms: C_55  and  C_59
                            x       y       z     vdW  Elec       q    Type
                         _______ _______ _______ _____ _____    ______ ____

>  <TORSDO>
F 18

$$$$
=
 OpenBabel11072414573D

 65 68  0  0  1  0  0  0  0  0999 V2000
  160.5230  206.1390  149.8790 O   0  0  0  0  0  0  0  0  0  0  0  0
  161.7070  209.1360  153.5460 N   0  0  0  0  0  0  0  0  0  0  0  0
  159.1240  203.4790  153.6650 N   0  0  0  0  0  1  0  0  0  0  0  0
  162.3240  202.9110  150.8510 N   0  0  0  0  0  0  0  0  0  0  0  0
  160.6830  205.0870  147.8140 O   0  0  0  0  0  0  0  0  0  0  0  0
  163.3850  207.3610  151.1110 O   0  0  0  0  0  0  0  0  0  0  0  0
  160.3200  209.3140  156.9500 C   0  0  0  0  0  1  0  0  0  0  0  0
  161.0540  205.7060  153.0680 C   0  0  1  0  0  3  0  0  0  0  0  0
  161.9550  210.0220  154.4640 C   0  0  0  0  0  0  0  0  0  0  0  0
  161.0160  207.1850  154.8270 C   0  0  1  0  0  3  0  0  0  0  0  0
  162.1350  204.1060  151.6270 C   0  0  0  0  0  3  0  0  0  0  0  0
  159.8460  203.5260  152.4380 C   0  0  0  0  0  0  0  0  0  0  0  0
  162.8440  205.9130  147.8530 O   0  0  0  0  0  0  0  0  0  0  0  0
  161.0240  204.4360  152.3100 C   0  0  0  0  0  0  0  0  0  0  0  0
  161.7550  201.0870  149.5350 O   0  0  0  0  0  0  0  0  0  0  0  0
  160.7540  205.7880  154.3580 C   0  0  0  0  0  2  0  0  0  0  0  0
  161.6970  207.3070  156.1790 C   0  0  2  0  0  3  0  0  0  0  0  0
  160.0080  202.7970  150.1240 C   0  0  0  0  0  2  0  0  0  0  0  0
  161.1580  200.5710  147.2430 C   0  0  0  0  0  2  0  0  0  0  0  0
  161.6400  206.9200  152.5940 N   0  0  0  0  0  0  0  0  0  0  0  0
  162.1510  207.1710  151.2780 C   0  0  0  0  0  0  0  0  0  0  0  0
  160.1260  206.1770  148.5360 C   0  0  0  0  0  2  0  0  0  0  0  0
  161.7970  211.4040  154.1570 N   0  0  0  0  0  1  0  0  0  0  0  0
  161.2220  207.3330  150.1120 C   0  0  2  0  0  3  0  0  0  0  0  0
  162.0210  205.0640  147.4120 C   0  0  0  0  0  0  0  0  0  0  0  0
  161.0450  206.5200  157.1320 O   0  0  0  0  0  1  0  0  0  0  0  0
  159.4190  202.7990  151.4500 N   0  0  0  0  0  0  0  0  0  0  0  0
  162.4750  204.0930  146.3720 C   0  0  1  0  0  3  0  0  0  0  0  0
  161.7130  208.7770  156.6370 C   0  0  1  0  0  3  0  0  0  0  0  0
  162.4130  209.6550  155.7420 O   0  0  0  0  0  0  0  0  0  0  0  0
  161.0700  202.0340  146.8430 C   0  0  0  0  0  2  0  0  0  0  0  0
  161.9530  207.7220  153.7630 C   0  0  1  0  0  3  0  0  0  0  0  0
  160.8340  200.3750  148.7190 C   0  0  0  0  0  2  0  0  0  0  0  0
  162.4610  202.6510  146.8760 C   0  0  0  0  0  2  0  0  0  0  0  0
  161.4070  202.2690  150.1940 C   0  0  0  0  0  0  0  0  0  0  0  0
  161.7080  204.2350  145.2120 O   0  0  0  0  0  0  0  0  0  0  0  0
  161.8840  205.5640  144.8040 C   0  0  2  0  0  3  0  0  0  0  0  0
  160.5420  206.2970  144.8040 C   0  0  2  0  0  3  0  0  0  0  0  0
  160.4990  207.3560  145.8930 C   0  0  0  0  0  1  0  0  0  0  0  0
  159.5020  205.3920  145.0120 O   0  0  0  0  0  1  0  0  0  0  0  0
  162.5560  205.5990  143.4320 C   0  0  0  0  0  2  0  0  0  0  0  0
  161.6620  206.2520  142.3800 C   0  0  0  0  0  2  0  0  0  0  0  0
  162.2310  206.0470  140.9860 C   0  0  0  0  0  2  0  0  0  0  0  0
  162.7160  207.3690  140.4170 C   0  0  0  0  0  2  0  0  0  0  0  0
  161.6290  208.0180  139.5730 C   0  0  1  0  0  3  0  0  0  0  0  0
  162.7830  210.1870  139.8680 F   0  0  0  0  0  0  0  0  0  0  0  0
  161.6080  209.5050  139.7520 C   0  0  0  0  0  0  0  0  0  0  0  0
  160.4900  210.1340  139.6500 N   0  0  0  0  0  0  0  0  0  0  0  0
  160.4120  211.5760  139.6660 C   0  0  0  0  0  2  0  0  0  0  0  0
  159.0630  212.0150  140.1290 C   0  0  0  0  0  0  0  0  0  0  0  0
  158.9800  212.8580  141.2290 O   0  0  0  0  0  1  0  0  0  0  0  0
  157.9870  211.5970  139.4540 C   0  0  0  0  0  3  0  0  0  0  0  0
  156.6370  211.9390  139.6740 O   0  0  0  0  0  0  0  0  0  0  0  0
  155.0040  213.2370  138.4320 C   0  0  0  0  0  1  0  0  0  0  0  0
  155.9160  211.1030  137.5020 C   0  0  0  0  0  1  0  0  0  0  0  0
  154.4240  211.0840  139.4440 C   0  0  0  0  0  1  0  0  0  0  0  0
  155.5360  211.8560  138.7660 C   0  0  0  0  0  0  0  0  0  0  0  0
  161.3860  208.6130  137.1360 N   0  0  0  0  0  1  0  0  0  0  0  0
  162.3870  206.6200  137.7830 O   0  0  0  0  0  0  0  0  0  0  0  0
  161.8070  207.6840  138.1280 C   0  0  0  0  0  0  0  0  0  0  0  0
  160.2530  208.4970  150.3490 C   0  0  0  0  0  2  0  0  0  0  0  0
  160.9870  209.8280  150.3180 C   0  0  0  0  0  2  0  0  0  0  0  0
  161.8590  209.9260  149.0810 C   0  0  0  0  0  2  0  0  0  0  0  0
  161.4650  212.0560  147.9380 C   0  0  0  0  0  2  0  0  0  0  0  0
  162.1860  211.3560  148.8080 C   0  0  0  0  0  3  0  0  0  0  0  0
  1 24  1  0  0  0  0
  2  9  2  0  0  0  0
  4 11  1  0  0  0  0
  5 22  1  0  0  0  0
  6 21  2  0  0  0  0
  8 16  1  1  0  0  0
  9 30  1  0  0  0  0
 10 16  1  6  0  0  0
 10 17  1  0  0  0  0
 11 14  2  0  0  0  0
 12  3  1  0  0  0  0
 14 12  1  0  0  0  0
 14  8  1  0  0  0  0
 15 35  1  0  0  0  0
 17 29  1  0  0  0  0
 17 26  1  1  0  0  0
 18 35  1  0  0  0  0
 18 27  1  0  0  0  0
 19 33  1  0  0  0  0
 20  8  1  0  0  0  0
 20 32  1  0  0  0  0
 21 20  1  0  0  0  0
 22  1  1  0  0  0  0
 23  9  1  0  0  0  0
 24 61  1  1  0  0  0
 24 21  1  0  0  0  0
 25  5  1  0  0  0  0
 25 13  2  0  0  0  0
 27 12  2  0  0  0  0
 28 36  1  6  0  0  0
 28 34  1  0  0  0  0
 28 25  1  0  0  0  0
 29  7  1  6  0  0  0
 30 29  1  0  0  0  0
 31 34  1  0  0  0  0
 31 19  1  0  0  0  0
 32  2  1  6  0  0  0
 32 10  1  0  0  0  0
 33 15  1  0  0  0  0
 35  4  2  0  0  0  0
 37 41  1  6  0  0  0
 37 36  1  0  0  0  0
 38 37  1  0  0  0  0
 38 40  1  0  0  0  0
 38 39  1  1  0  0  0
 42 41  1  0  0  0  0
 43 42  1  0  0  0  0
 44 43  1  0  0  0  0
 45 47  1  0  0  0  0
 45 44  1  1  0  0  0
 47 46  1  0  0  0  0
 48 49  1  0  0  0  0
 48 47  2  0  0  0  0
 49 50  1  0  0  0  0
 50 51  1  0  0  0  0
 52 53  1  0  0  0  0
 52 50  2  0  0  0  0
 54 57  1  0  0  0  0
 55 57  1  0  0  0  0
 57 56  1  0  0  0  0
 57 53  1  0  0  0  0
 58 60  1  0  0  0  0
 59 60  2  0  0  0  0
 60 45  1  0  0  0  0
 62 61  1  0  0  0  0
 63 62  1  0  0  0  0
 64 65  2  0  0  0  0
 65 63  1  0  0  0  0
M  END
>  <MODEL>
4

>  <REMARK>
 VINA RESULT:       4.3      3.498      8.641
  Name = 
  18 active torsions:
  status: ('A' for Active; 'I' for Inactive)
    1  A    between atoms: O_3  and  C_46
    2  A    between atoms: O_3  and  C_50
    3  A    between atoms: C_9  and  C_16
    4  A    between atoms: C_9  and  C_37
    5  A    between atoms: C_15  and  C_46
    6  A    between atoms: C_16  and  C_55
    7  A    between atoms: C_24  and  C_55
    8  A    between atoms: C_26  and  C_38
    9  A    between atoms: C_29  and  C_40
   10  A    between atoms: C_29  and  C_44
   11  A    between atoms: C_36  and  C_63
   12  A    between atoms: C_37  and  C_58
   13  A    between atoms: C_38  and  N_41
   14  A    between atoms: C_40  and  C_63
   15  A    between atoms: C_46  and  C_58
   16  A    between atoms: O_51  and  C_62
   17  A    between atoms: O_51  and  C_64
   18  A    between atoms: C_55  and  C_59
                            x       y       z     vdW  Elec       q    Type
                         _______ _______ _______ _____ _____    ______ ____

>  <TORSDO>
F 18

$$$$
=
 OpenBabel11072414573D

 65 68  0  0  1  0  0  0  0  0999 V2000
  160.5750  206.1730  149.6520 O   0  0  0  0  0  0  0  0  0  0  0  0
  161.7150  209.2740  153.2460 N   0  0  0  0  0  0  0  0  0  0  0  0
  159.0720  203.6490  153.4910 N   0  0  0  0  0  1  0  0  0  0  0  0
  162.3220  202.9600  150.7630 N   0  0  0  0  0  0  0  0  0  0  0  0
  160.7670  205.0550  147.6250 O   0  0  0  0  0  0  0  0  0  0  0  0
  163.4240  207.4060  150.9050 O   0  0  0  0  0  0  0  0  0  0  0  0
  160.2600  209.5730  156.6130 C   0  0  0  0  0  1  0  0  0  0  0  0
  161.0370  205.8370  152.8630 C   0  0  1  0  0  3  0  0  0  0  0  0
  161.9530  210.1860  154.1420 C   0  0  0  0  0  0  0  0  0  0  0  0
  160.9780  207.3710  154.5730 C   0  0  1  0  0  3  0  0  0  0  0  0
  162.1290  204.1810  151.4960 C   0  0  0  0  0  3  0  0  0  0  0  0
  159.8190  203.6500  152.2770 C   0  0  0  0  0  0  0  0  0  0  0  0
  162.9350  205.8610  147.6830 O   0  0  0  0  0  0  0  0  0  0  0  0
  161.0090  204.5440  152.1460 C   0  0  0  0  0  0  0  0  0  0  0  0
  161.7610  201.1010  149.4940 O   0  0  0  0  0  0  0  0  0  0  0  0
  160.7110  205.9630  154.1440 C   0  0  0  0  0  2  0  0  0  0  0  0
  161.6320  207.5300  155.9350 C   0  0  2  0  0  3  0  0  0  0  0  0
  160.0210  202.8460  149.9920 C   0  0  0  0  0  2  0  0  0  0  0  0
  161.2070  200.5180  147.2070 C   0  0  0  0  0  2  0  0  0  0  0  0
  161.6440  207.0290  152.3640 N   0  0  0  0  0  0  0  0  0  0  0  0
  162.1850  207.2340  151.0510 C   0  0  0  0  0  0  0  0  0  0  0  0
  160.2060  206.1720  148.3010 C   0  0  0  0  0  2  0  0  0  0  0  0
  161.8150  211.5580  153.7870 N   0  0  0  0  0  1  0  0  0  0  0  0
  161.2810  207.3670  149.8620 C   0  0  2  0  0  3  0  0  0  0  0  0
  162.1120  205.0060  147.2520 C   0  0  0  0  0  0  0  0  0  0  0  0
  160.9520  206.7800  156.8980 O   0  0  0  0  0  1  0  0  0  0  0  0
  159.4040  202.8960  151.3050 N   0  0  0  0  0  0  0  0  0  0  0  0
  162.5780  203.9980  146.2530 C   0  0  1  0  0  3  0  0  0  0  0  0
  161.6540  209.0130  156.3470 C   0  0  1  0  0  3  0  0  0  0  0  0
  162.3810  209.8550  155.4400 O   0  0  0  0  0  0  0  0  0  0  0  0
  161.1410  201.9690  146.7590 C   0  0  0  0  0  2  0  0  0  0  0  0
  161.9420  207.8650  153.5130 C   0  0  1  0  0  3  0  0  0  0  0  0
  160.8510  200.3730  148.6810 C   0  0  0  0  0  2  0  0  0  0  0  0
  162.5380  202.5730  146.8020 C   0  0  0  0  0  2  0  0  0  0  0  0
  161.4120  202.3070  150.1080 C   0  0  0  0  0  0  0  0  0  0  0  0
  161.8360  204.1110  145.0730 O   0  0  0  0  0  0  0  0  0  0  0  0
  161.8180  205.4780  144.7690 C   0  0  2  0  0  3  0  0  0  0  0  0
  160.3760  205.9770  144.6730 C   0  0  2  0  0  3  0  0  0  0  0  0
  160.1170  207.0910  145.6730 C   0  0  0  0  0  1  0  0  0  0  0  0
  159.4890  204.9300  144.9220 O   0  0  0  0  0  1  0  0  0  0  0  0
  162.5980  205.7310  143.4790 C   0  0  0  0  0  2  0  0  0  0  0  0
  161.6900  206.2220  142.3540 C   0  0  0  0  0  2  0  0  0  0  0  0
  162.4980  206.5390  141.1070 C   0  0  0  0  0  2  0  0  0  0  0  0
  161.9290  207.7620  140.4090 C   0  0  0  0  0  2  0  0  0  0  0  0
  161.2550  207.3660  139.1040 C   0  0  1  0  0  3  0  0  0  0  0  0
  159.1140  208.0640  138.0780 F   0  0  0  0  0  0  0  0  0  0  0  0
  160.3050  208.4250  138.6320 C   0  0  0  0  0  0  0  0  0  0  0  0
  160.5660  209.6600  138.8870 N   0  0  0  0  0  0  0  0  0  0  0  0
  159.6330  210.7210  138.5940 C   0  0  0  0  0  2  0  0  0  0  0  0
  160.3440  212.0320  138.5290 C   0  0  0  0  0  0  0  0  0  0  0  0
  159.5970  213.1980  138.6120 O   0  0  0  0  0  1  0  0  0  0  0  0
  161.6770  212.0310  138.4130 C   0  0  0  0  0  3  0  0  0  0  0  0
  162.5470  213.1400  138.4000 O   0  0  0  0  0  0  0  0  0  0  0  0
  163.7670  213.8290  140.3830 C   0  0  0  0  0  1  0  0  0  0  0  0
  164.5790  211.9260  138.9780 C   0  0  0  0  0  1  0  0  0  0  0  0
  164.6530  214.2240  138.1330 C   0  0  0  0  0  1  0  0  0  0  0  0
  163.8490  213.2590  138.9790 C   0  0  0  0  0  0  0  0  0  0  0  0
  162.6020  208.1060  137.1050 N   0  0  0  0  0  1  0  0  0  0  0  0
  162.8840  205.9880  138.0170 O   0  0  0  0  0  0  0  0  0  0  0  0
  162.2710  207.0880  138.0440 C   0  0  0  0  0  0  0  0  0  0  0  0
  160.3200  208.5470  150.0420 C   0  0  0  0  0  2  0  0  0  0  0  0
  161.0520  209.8710  149.8870 C   0  0  0  0  0  2  0  0  0  0  0  0
  161.9880  209.8260  148.6950 C   0  0  0  0  0  2  0  0  0  0  0  0
  161.3880  212.0450  147.8520 C   0  0  0  0  0  2  0  0  0  0  0  0
  162.3350  211.2140  148.2750 C   0  0  0  0  0  3  0  0  0  0  0  0
  1 24  1  0  0  0  0
  2  9  2  0  0  0  0
  4 11  1  0  0  0  0
  5 22  1  0  0  0  0
  6 21  2  0  0  0  0
  8 16  1  1  0  0  0
  9 30  1  0  0  0  0
 10 16  1  6  0  0  0
 10 17  1  0  0  0  0
 11 14  2  0  0  0  0
 12  3  1  0  0  0  0
 14 12  1  0  0  0  0
 14  8  1  0  0  0  0
 15 35  1  0  0  0  0
 17 29  1  0  0  0  0
 17 26  1  1  0  0  0
 18 35  1  0  0  0  0
 18 27  1  0  0  0  0
 19 33  1  0  0  0  0
 20  8  1  0  0  0  0
 20 32  1  0  0  0  0
 21 20  1  0  0  0  0
 22  1  1  0  0  0  0
 23  9  1  0  0  0  0
 24 61  1  1  0  0  0
 24 21  1  0  0  0  0
 25  5  1  0  0  0  0
 25 13  2  0  0  0  0
 27 12  2  0  0  0  0
 28 36  1  6  0  0  0
 28 34  1  0  0  0  0
 28 25  1  0  0  0  0
 29  7  1  6  0  0  0
 30 29  1  0  0  0  0
 31 34  1  0  0  0  0
 31 19  1  0  0  0  0
 32  2  1  6  0  0  0
 32 10  1  0  0  0  0
 33 15  1  0  0  0  0
 35  4  2  0  0  0  0
 37 41  1  6  0  0  0
 37 36  1  0  0  0  0
 38 37  1  0  0  0  0
 38 40  1  0  0  0  0
 38 39  1  1  0  0  0
 42 41  1  0  0  0  0
 43 42  1  0  0  0  0
 44 43  1  0  0  0  0
 45 44  1  1  0  0  0
 46 47  1  0  0  0  0
 47 48  2  0  0  0  0
 47 45  1  0  0  0  0
 49 48  1  0  0  0  0
 50 49  1  0  0  0  0
 50 51  1  0  0  0  0
 52 50  2  0  0  0  0
 53 52  1  0  0  0  0
 53 57  1  0  0  0  0
 55 57  1  0  0  0  0
 56 57  1  0  0  0  0
 57 54  1  0  0  0  0
 58 60  1  0  0  0  0
 59 60  2  0  0  0  0
 60 45  1  0  0  0  0
 62 61  1  0  0  0  0
 63 62  1  0  0  0  0
 64 65  2  0  0  0  0
 65 63  1  0  0  0  0
M  END
>  <MODEL>
5

>  <REMARK>
 VINA RESULT:       5.3      3.486      8.605
  Name = 
  18 active torsions:
  status: ('A' for Active; 'I' for Inactive)
    1  A    between atoms: O_3  and  C_46
    2  A    between atoms: O_3  and  C_50
    3  A    between atoms: C_9  and  C_16
    4  A    between atoms: C_9  and  C_37
    5  A    between atoms: C_15  and  C_46
    6  A    between atoms: C_16  and  C_55
    7  A    between atoms: C_24  and  C_55
    8  A    between atoms: C_26  and  C_38
    9  A    between atoms: C_29  and  C_40
   10  A    between atoms: C_29  and  C_44
   11  A    between atoms: C_36  and  C_63
   12  A    between atoms: C_37  and  C_58
   13  A    between atoms: C_38  and  N_41
   14  A    between atoms: C_40  and  C_63
   15  A    between atoms: C_46  and  C_58
   16  A    between atoms: O_51  and  C_62
   17  A    between atoms: O_51  and  C_64
   18  A    between atoms: C_55  and  C_59
                            x       y       z     vdW  Elec       q    Type
                         _______ _______ _______ _____ _____    ______ ____

>  <TORSDO>
F 18

$$$$
