=
 OpenBabel11072412003D

 45 48  0  0  1  0  0  0  0  0999 V2000
  161.4420  207.9820  157.0250 C   0  0  0  0  0  1  0  0  0  0  0  0
  161.4940  204.1930  152.6410 C   0  0  0  0  0  1  0  0  0  0  0  0
  160.6360  210.2140  156.3130 C   0  0  2  0  0  3  0  0  0  0  0  0
  161.7340  209.0170  148.1720 C   0  0  0  0  0  2  0  0  0  0  0  0
  161.5960  205.9860  151.0920 O   0  0  0  0  0  0  0  0  0  0  0  0
  161.0250  205.5930  152.3040 C   0  0  2  0  0  3  0  0  0  0  0  0
  162.0310  211.0480  149.3130 C   0  0  0  0  0  2  0  0  0  0  0  0
  160.9470  210.0120  154.0830 C   0  0  2  0  0  3  0  0  0  0  0  0
  162.0300  210.3810  153.0820 C   0  0  0  0  0  2  0  0  0  0  0  0
  160.9070  210.9420  155.1350 O   0  0  0  0  0  0  0  0  0  0  0  0
  160.6460  209.5350  151.3230 O   0  0  0  0  0  1  0  0  0  0  0  0
  161.4360  210.6230  151.7020 C   0  0  2  0  0  3  0  0  0  0  0  0
  162.5720  210.7950  150.7090 C   0  0  0  0  0  2  0  0  0  0  0  0
  161.2220  208.6470  154.6600 C   0  0  1  0  0  3  0  0  0  0  0  0
  160.5980  208.7320  156.0130 C   0  0  1  0  0  3  0  0  0  0  0  0
  160.6150  207.5650  153.8220 C   0  0  0  0  0  0  0  0  0  0  0  0
  160.5290  206.4330  150.3080 C   0  0  0  0  0  2  0  0  0  0  0  0
  161.0190  206.9250  148.9480 C   0  0  1  0  0  3  0  0  0  0  0  0
  161.4480  206.5050  153.3530 N   0  0  0  0  0  2  0  0  0  0  0  0
  162.6530  210.1280  148.3710 N   0  0  0  0  0  2  0  0  0  0  0  0
  159.3910  207.6000  153.5160 O   0  0  0  0  0  0  0  0  0  0  0  0
  162.0450  207.9470  149.1080 N   0  0  0  0  0  2  0  0  0  0  0  0
  163.2330  204.3870  145.3140 C   0  0  0  0  0  1  0  0  0  0  0  0
  162.4720  204.7160  146.5490 C   0  0  0  0  0  0  0  0  0  0  0  0
  161.3020  204.5360  148.3780 O   0  0  0  0  0  0  0  0  0  0  0  0
  162.2510  205.9750  146.9720 N   0  0  0  0  0  0  0  0  0  0  0  0
  161.8760  203.8380  147.4310 C   0  0  0  0  0  0  0  0  0  0  0  0
  161.5290  205.8010  148.1030 C   0  0  0  0  0  0  0  0  0  0  0  0
  161.8480  202.4090  147.3780 N   0  0  0  0  0  2  0  0  0  0  0  0
  160.7470  201.6040  147.8840 C   0  0  0  0  0  2  0  0  0  0  0  0
  160.4370  201.6860  150.3540 C   0  0  0  0  0  1  0  0  0  0  0  0
  161.1330  200.9720  149.2090 C   0  0  0  0  0  2  0  0  0  0  0  0
  159.3640  210.6380  156.8770 N   0  0  0  0  0  2  0  0  0  0  0  0
  157.9720  212.8560  157.2610 O   0  0  0  0  0  0  0  0  0  0  0  0
  159.1480  212.3140  156.4960 S   0  0  0  0  0  0  0  0  0  0  0  0
  160.3780  213.0810  156.8910 O   0  0  0  0  0  0  0  0  0  0  0  0
  159.4110  213.6150  154.1050 C   0  0  0  0  0  3  0  0  0  0  0  0
  158.8800  212.5060  154.7720 C   0  0  0  0  0  0  0  0  0  0  0  0
  158.4990  212.7980  152.0100 C   0  0  0  0  0  0  0  0  0  0  0  0
  157.9760  211.6860  152.6770 C   0  0  0  0  0  3  0  0  0  0  0  0
  159.2210  213.7630  152.7290 C   0  0  0  0  0  3  0  0  0  0  0  0
  158.1660  211.5390  154.0540 C   0  0  0  0  0  3  0  0  0  0  0  0
  156.9360  213.3770  150.2500 N   0  0  0  0  0  1  0  0  0  0  0  0
  158.2900  212.9300  150.5350 C   0  0  1  0  0  3  0  0  0  0  0  0
  159.2910  213.9000  149.9330 C   0  0  0  0  0  1  0  0  0  0  0  0
  3 33  1  6  0  0  0
  4 20  1  0  0  0  0
  4 22  1  0  0  0  0
  5  6  1  0  0  0  0
  6  2  1  1  0  0  0
  6 19  1  0  0  0  0
  7 13  1  0  0  0  0
  8  9  1  6  0  0  0
  8 14  1  0  0  0  0
  8 10  1  0  0  0  0
 10  3  1  0  0  0  0
 12 11  1  6  0  0  0
 12  9  1  0  0  0  0
 13 12  1  0  0  0  0
 14 16  1  6  0  0  0
 14 15  1  0  0  0  0
 15  3  1  0  0  0  0
 15  1  1  1  0  0  0
 17  5  1  0  0  0  0
 18 28  1  6  0  0  0
 18 22  1  0  0  0  0
 18 17  1  0  0  0  0
 19 16  1  0  0  0  0
 20  7  1  0  0  0  0
 21 16  2  0  0  0  0
 23 24  1  0  0  0  0
 24 26  1  0  0  0  0
 24 27  2  0  0  0  0
 26 28  2  0  0  0  0
 27 25  1  0  0  0  0
 28 25  1  0  0  0  0
 29 27  1  0  0  0  0
 29 30  1  0  0  0  0
 30 32  1  0  0  0  0
 32 31  1  0  0  0  0
 35 33  1  0  0  0  0
 35 36  2  0  0  0  0
 35 34  2  0  0  0  0
 37 38  1  0  0  0  0
 38 35  1  0  0  0  0
 39 40  2  0  0  0  0
 39 41  1  0  0  0  0
 40 42  1  0  0  0  0
 41 37  2  0  0  0  0
 42 38  2  0  0  0  0
 43 44  1  0  0  0  0
 44 45  1  1  0  0  0
 44 39  1  0  0  0  0
M  END
>  <MODEL>
1

>  <REMARK>
 VINA RESULT:      -4.4      0.000      0.000
  Name = 
  8 active torsions:
  status: ('A' for Active; 'I' for Inactive)
    1  A    between atoms: C_4  and  N_34
    2  A    between atoms: C_8  and  S_24
    3  A    between atoms: C_12  and  C_13
    4  A    between atoms: N_17  and  C_30
    5  A    between atoms: N_17  and  C_40
    6  A    between atoms: C_21  and  C_30
    7  A    between atoms: S_24  and  N_34
    8  A    between atoms: C_33  and  C_45
                            x       y       z     vdW  Elec       q    Type
                         _______ _______ _______ _____ _____    ______ ____

>  <TORSDO>
F 8

$$$$
=
 OpenBabel11072412003D

 45 48  0  0  1  0  0  0  0  0999 V2000
  161.0400  211.1640  143.1330 C   0  0  0  0  0  1  0  0  0  0  0  0
  162.4090  211.0720  148.7630 C   0  0  0  0  0  1  0  0  0  0  0  0
  159.4420  212.9810  142.5960 C   0  0  2  0  0  3  0  0  0  0  0  0
  156.8980  214.2780  150.3920 C   0  0  0  0  0  2  0  0  0  0  0  0
  160.3950  212.2150  149.2720 O   0  0  0  0  0  0  0  0  0  0  0  0
  161.4280  212.1420  148.3360 C   0  0  2  0  0  3  0  0  0  0  0  0
  155.5660  214.4530  148.4660 C   0  0  0  0  0  2  0  0  0  0  0  0
  158.6420  213.3770  144.6730 C   0  0  2  0  0  3  0  0  0  0  0  0
  157.4450  212.9320  145.4970 C   0  0  0  0  0  2  0  0  0  0  0  0
  158.3100  213.4310  143.3090 O   0  0  0  0  0  0  0  0  0  0  0  0
  158.1760  214.3650  147.2700 O   0  0  0  0  0  1  0  0  0  0  0  0
  157.0590  213.9960  146.5150 C   0  0  2  0  0  3  0  0  0  0  0  0
  155.9920  213.4250  147.4330 C   0  0  0  0  0  2  0  0  0  0  0  0
  159.7800  212.4060  144.8510 C   0  0  1  0  0  3  0  0  0  0  0  0
  160.5150  212.5220  143.5580 C   0  0  1  0  0  3  0  0  0  0  0  0
  160.6340  212.7730  146.0250 C   0  0  0  0  0  0  0  0  0  0  0  0
  160.3030  213.5670  149.6170 C   0  0  0  0  0  2  0  0  0  0  0  0
  159.1800  213.7970  150.6250 C   0  0  1  0  0  3  0  0  0  0  0  0
  160.8760  211.7950  147.0370 N   0  0  0  0  0  2  0  0  0  0  0  0
  155.6340  213.8700  149.7980 N   0  0  0  0  0  2  0  0  0  0  0  0
  161.1160  213.9350  146.1310 O   0  0  0  0  0  0  0  0  0  0  0  0
  157.9170  213.2750  150.1210 N   0  0  0  0  0  2  0  0  0  0  0  0
  159.3430  212.9670  155.5080 C   0  0  0  0  0  1  0  0  0  0  0  0
  159.5720  212.8420  154.0440 C   0  0  0  0  0  0  0  0  0  0  0  0
  160.2950  212.1590  152.1050 O   0  0  0  0  0  0  0  0  0  0  0  0
  159.0210  213.6660  153.1320 N   0  0  0  0  0  0  0  0  0  0  0  0
  160.3580  211.9160  153.3890 C   0  0  0  0  0  0  0  0  0  0  0  0
  159.5000  213.1950  151.9570 C   0  0  0  0  0  0  0  0  0  0  0  0
  161.1350  210.8550  153.9530 N   0  0  0  0  0  2  0  0  0  0  0  0
  160.6510  209.4910  154.1000 C   0  0  0  0  0  2  0  0  0  0  0  0
  160.1130  207.7040  155.7490 C   0  0  0  0  0  1  0  0  0  0  0  0
  160.4130  209.1810  155.5660 C   0  0  0  0  0  2  0  0  0  0  0  0
  159.9560  214.0480  141.7530 N   0  0  0  0  0  2  0  0  0  0  0  0
  160.5640  214.4530  139.2090 O   0  0  0  0  0  0  0  0  0  0  0  0
  160.3710  213.3560  140.2190 S   0  0  0  0  0  0  0  0  0  0  0  0
  161.6540  212.5850  140.3470 O   0  0  0  0  0  0  0  0  0  0  0  0
  157.7790  212.7290  139.6140 C   0  0  0  0  0  3  0  0  0  0  0  0
  159.0980  212.2700  139.6870 C   0  0  0  0  0  0  0  0  0  0  0  0
  157.0650  210.5590  138.7940 C   0  0  0  0  0  0  0  0  0  0  0  0
  158.3870  210.1050  138.8610 C   0  0  0  0  0  3  0  0  0  0  0  0
  156.7640  211.8770  139.1710 C   0  0  0  0  0  3  0  0  0  0  0  0
  159.4010  210.9580  139.3050 C   0  0  0  0  0  3  0  0  0  0  0  0
  154.9860  209.4370  139.3340 N   0  0  0  0  0  1  0  0  0  0  0  0
  155.9980  209.6320  138.3090 C   0  0  1  0  0  3  0  0  0  0  0  0
  155.3530  210.1660  137.0420 C   0  0  0  0  0  1  0  0  0  0  0  0
  3 33  1  1  0  0  0
  3 10  1  0  0  0  0
  3 15  1  0  0  0  0
  5 17  1  0  0  0  0
  6  2  1  1  0  0  0
  6  5  1  0  0  0  0
  7 20  1  0  0  0  0
  8 14  1  0  0  0  0
  8  9  1  1  0  0  0
  9 12  1  0  0  0  0
 10  8  1  0  0  0  0
 12 11  1  1  0  0  0
 12 13  1  0  0  0  0
 13  7  1  0  0  0  0
 14 16  1  1  0  0  0
 15  1  1  6  0  0  0
 15 14  1  0  0  0  0
 16 21  2  0  0  0  0
 16 19  1  0  0  0  0
 17 18  1  0  0  0  0
 18 28  1  1  0  0  0
 19  6  1  0  0  0  0
 20  4  1  0  0  0  0
 22  4  1  0  0  0  0
 22 18  1  0  0  0  0
 24 23  1  0  0  0  0
 25 27  1  0  0  0  0
 26 24  1  0  0  0  0
 27 29  1  0  0  0  0
 27 24  2  0  0  0  0
 28 25  1  0  0  0  0
 28 26  2  0  0  0  0
 29 30  1  0  0  0  0
 30 32  1  0  0  0  0
 32 31  1  0  0  0  0
 34 35  2  0  0  0  0
 35 36  2  0  0  0  0
 35 33  1  0  0  0  0
 37 38  1  0  0  0  0
 38 35  1  0  0  0  0
 39 40  2  0  0  0  0
 39 41  1  0  0  0  0
 40 42  1  0  0  0  0
 41 37  2  0  0  0  0
 42 38  2  0  0  0  0
 44 45  1  6  0  0  0
 44 39  1  0  0  0  0
 44 43  1  0  0  0  0
M  END
>  <MODEL>
2

>  <REMARK>
 VINA RESULT:      -4.4      6.930     11.405
  Name = 
  8 active torsions:
  status: ('A' for Active; 'I' for Inactive)
    1  A    between atoms: C_4  and  N_34
    2  A    between atoms: C_8  and  S_24
    3  A    between atoms: C_12  and  C_13
    4  A    between atoms: N_17  and  C_30
    5  A    between atoms: N_17  and  C_40
    6  A    between atoms: C_21  and  C_30
    7  A    between atoms: S_24  and  N_34
    8  A    between atoms: C_33  and  C_45
                            x       y       z     vdW  Elec       q    Type
                         _______ _______ _______ _____ _____    ______ ____

>  <TORSDO>
F 8

$$$$
=
 OpenBabel11072412003D

 45 48  0  0  1  0  0  0  0  0999 V2000
  162.6320  211.5120  142.9880 C   0  0  0  0  0  1  0  0  0  0  0  0
  162.9700  211.5290  148.7720 C   0  0  0  0  0  1  0  0  0  0  0  0
  161.0090  213.1860  142.1480 C   0  0  2  0  0  3  0  0  0  0  0  0
  157.0060  214.2490  149.3430 C   0  0  0  0  0  2  0  0  0  0  0  0
  160.8080  212.4940  148.8970 O   0  0  0  0  0  0  0  0  0  0  0  0
  161.9950  212.5120  148.1620 C   0  0  2  0  0  3  0  0  0  0  0  0
  156.0310  214.3130  147.2080 C   0  0  0  0  0  2  0  0  0  0  0  0
  159.8180  213.5090  144.0420 C   0  0  2  0  0  3  0  0  0  0  0  0
  158.5340  212.9630  144.6450 C   0  0  0  0  0  2  0  0  0  0  0  0
  159.7330  213.5370  142.6400 O   0  0  0  0  0  0  0  0  0  0  0  0
  158.8110  214.4500  146.5000 O   0  0  0  0  0  1  0  0  0  0  0  0
  157.8830  213.9880  145.5630 C   0  0  2  0  0  3  0  0  0  0  0  0
  156.7210  213.3270  146.2820 C   0  0  0  0  0  2  0  0  0  0  0  0
  160.9840  212.6390  144.4350 C   0  0  1  0  0  3  0  0  0  0  0  0
  161.9270  212.8200  143.2940 C   0  0  1  0  0  3  0  0  0  0  0  0
  161.5780  213.0750  145.7380 C   0  0  0  0  0  0  0  0  0  0  0  0
  160.5420  213.8330  149.2010 C   0  0  0  0  0  2  0  0  0  0  0  0
  159.2400  213.9640  149.9890 C   0  0  1  0  0  3  0  0  0  0  0  0
  161.7160  212.1200  146.7900 N   0  0  0  0  0  2  0  0  0  0  0  0
  155.9080  213.7350  148.5380 N   0  0  0  0  0  2  0  0  0  0  0  0
  161.9340  214.2740  145.9120 O   0  0  0  0  0  0  0  0  0  0  0  0
  158.1380  213.3370  149.2740 N   0  0  0  0  0  2  0  0  0  0  0  0
  158.5080  213.0610  154.8050 C   0  0  0  0  0  1  0  0  0  0  0  0
  159.0550  213.0060  153.4230 C   0  0  0  0  0  0  0  0  0  0  0  0
  160.2650  212.4880  151.6870 O   0  0  0  0  0  0  0  0  0  0  0  0
  158.5840  213.7550  152.4080 N   0  0  0  0  0  0  0  0  0  0  0  0
  160.0960  212.2290  152.9580 C   0  0  0  0  0  0  0  0  0  0  0  0
  159.3660  213.3900  151.3650 C   0  0  0  0  0  0  0  0  0  0  0  0
  160.8950  211.2900  153.6840 N   0  0  0  0  0  2  0  0  0  0  0  0
  161.1410  209.9270  153.2400 C   0  0  0  0  0  2  0  0  0  0  0  0
  161.8590  208.6260  151.2410 C   0  0  0  0  0  1  0  0  0  0  0  0
  162.0070  209.9370  151.9940 C   0  0  0  0  0  2  0  0  0  0  0  0
  161.5740  214.2940  141.3960 N   0  0  0  0  0  2  0  0  0  0  0  0
  160.5220  214.4530  138.9730 O   0  0  0  0  0  0  0  0  0  0  0  0
  161.6540  213.8180  139.7320 S   0  0  0  0  0  0  0  0  0  0  0  0
  162.9550  214.2810  139.1390 O   0  0  0  0  0  0  0  0  0  0  0  0
  160.3790  211.4740  139.1320 C   0  0  0  0  0  3  0  0  0  0  0  0
  161.5540  212.0700  139.6040 C   0  0  0  0  0  0  0  0  0  0  0  0
  161.4000  209.2820  139.3490 C   0  0  0  0  0  0  0  0  0  0  0  0
  162.5750  209.8820  139.8130 C   0  0  0  0  0  3  0  0  0  0  0  0
  160.3000  210.0840  139.0070 C   0  0  0  0  0  3  0  0  0  0  0  0
  162.6530  211.2710  139.9390 C   0  0  0  0  0  3  0  0  0  0  0  0
  161.5990  207.3960  137.8410 N   0  0  0  0  0  1  0  0  0  0  0  0
  161.3420  207.7940  139.2150 C   0  0  1  0  0  3  0  0  0  0  0  0
  162.3450  207.1300  140.1410 C   0  0  0  0  0  1  0  0  0  0  0  0
  3 33  1  1  0  0  0
  3 10  1  0  0  0  0
  3 15  1  0  0  0  0
  5 17  1  0  0  0  0
  6  2  1  1  0  0  0
  6  5  1  0  0  0  0
  7 20  1  0  0  0  0
  8 14  1  0  0  0  0
  8  9  1  1  0  0  0
  9 12  1  0  0  0  0
 10  8  1  0  0  0  0
 12 13  1  0  0  0  0
 12 11  1  1  0  0  0
 13  7  1  0  0  0  0
 14 16  1  1  0  0  0
 15  1  1  6  0  0  0
 15 14  1  0  0  0  0
 16 21  2  0  0  0  0
 16 19  1  0  0  0  0
 17 18  1  0  0  0  0
 18 28  1  1  0  0  0
 19  6  1  0  0  0  0
 20  4  1  0  0  0  0
 22  4  1  0  0  0  0
 22 18  1  0  0  0  0
 24 23  1  0  0  0  0
 25 27  1  0  0  0  0
 26 24  1  0  0  0  0
 27 24  2  0  0  0  0
 27 29  1  0  0  0  0
 28 25  1  0  0  0  0
 28 26  2  0  0  0  0
 30 29  1  0  0  0  0
 31 32  1  0  0  0  0
 32 30  1  0  0  0  0
 34 35  2  0  0  0  0
 35 33  1  0  0  0  0
 36 35  2  0  0  0  0
 37 38  1  0  0  0  0
 38 35  1  0  0  0  0
 38 42  2  0  0  0  0
 39 40  2  0  0  0  0
 40 42  1  0  0  0  0
 41 37  2  0  0  0  0
 41 39  1  0  0  0  0
 43 44  1  0  0  0  0
 44 39  1  0  0  0  0
 44 45  1  1  0  0  0
M  END
>  <MODEL>
3

>  <REMARK>
 VINA RESULT:      -3.7      6.510     11.616
  Name = 
  8 active torsions:
  status: ('A' for Active; 'I' for Inactive)
    1  A    between atoms: C_4  and  N_34
    2  A    between atoms: C_8  and  S_24
    3  A    between atoms: C_12  and  C_13
    4  A    between atoms: N_17  and  C_30
    5  A    between atoms: N_17  and  C_40
    6  A    between atoms: C_21  and  C_30
    7  A    between atoms: S_24  and  N_34
    8  A    between atoms: C_33  and  C_45
                            x       y       z     vdW  Elec       q    Type
                         _______ _______ _______ _____ _____    ______ ____

>  <TORSDO>
F 8

$$$$
=
 OpenBabel11072412003D

 45 48  0  0  1  0  0  0  0  0999 V2000
  161.7780  208.0840  156.9820 C   0  0  0  0  0  1  0  0  0  0  0  0
  161.5380  204.2630  152.6320 C   0  0  0  0  0  1  0  0  0  0  0  0
  160.9970  210.3310  156.2870 C   0  0  2  0  0  3  0  0  0  0  0  0
  161.7020  209.0450  148.1160 C   0  0  0  0  0  2  0  0  0  0  0  0
  161.6170  206.0410  151.0650 O   0  0  0  0  0  0  0  0  0  0  0  0
  161.0910  205.6710  152.3040 C   0  0  2  0  0  3  0  0  0  0  0  0
  162.1010  211.0760  149.2250 C   0  0  0  0  0  2  0  0  0  0  0  0
  161.2040  210.1040  154.0480 C   0  0  2  0  0  3  0  0  0  0  0  0
  162.2500  210.4380  152.9970 C   0  0  0  0  0  2  0  0  0  0  0  0
  161.2340  211.0430  155.0920 O   0  0  0  0  0  0  0  0  0  0  0  0
  160.7680  209.6150  151.3070 O   0  0  0  0  0  1  0  0  0  0  0  0
  161.6020  210.6850  151.6420 C   0  0  2  0  0  3  0  0  0  0  0  0
  162.6970  210.8200  150.5980 C   0  0  0  0  0  2  0  0  0  0  0  0
  161.4690  208.7370  154.6240 C   0  0  1  0  0  3  0  0  0  0  0  0
  160.9080  208.8480  156.0020 C   0  0  1  0  0  3  0  0  0  0  0  0
  160.7990  207.6650  153.8220 C   0  0  0  0  0  0  0  0  0  0  0  0
  160.5270  206.5090  150.3250 C   0  0  0  0  0  2  0  0  0  0  0  0
  160.9700  206.9780  148.9410 C   0  0  1  0  0  3  0  0  0  0  0  0
  161.5830  206.5800  153.3260 N   0  0  0  0  0  2  0  0  0  0  0  0
  162.6560  210.1340  148.2650 N   0  0  0  0  0  2  0  0  0  0  0  0
  159.5630  207.7290  153.5700 O   0  0  0  0  0  0  0  0  0  0  0  0
  162.0260  207.9740  149.0460 N   0  0  0  0  0  2  0  0  0  0  0  0
  163.4510  204.2540  145.6290 C   0  0  0  0  0  1  0  0  0  0  0  0
  162.4710  204.6720  146.6660 C   0  0  0  0  0  0  0  0  0  0  0  0
  160.8170  204.6630  148.0850 O   0  0  0  0  0  0  0  0  0  0  0  0
  162.4500  205.9010  147.2160 N   0  0  0  0  0  0  0  0  0  0  0  0
  161.4520  203.9200  147.2160 C   0  0  0  0  0  0  0  0  0  0  0  0
  161.4130  205.8350  148.0840 C   0  0  0  0  0  0  0  0  0  0  0  0
  161.0950  202.5650  146.9280 N   0  0  0  0  0  2  0  0  0  0  0  0
  160.3560  201.7130  147.8470 C   0  0  0  0  0  2  0  0  0  0  0  0
  161.0160  200.9220  150.1150 C   0  0  0  0  0  1  0  0  0  0  0  0
  161.3160  200.8360  148.6280 C   0  0  0  0  0  2  0  0  0  0  0  0
  159.7630  210.7910  156.9040 N   0  0  0  0  0  2  0  0  0  0  0  0
  160.3290  213.3580  157.2050 O   0  0  0  0  0  0  0  0  0  0  0  0
  159.4880  212.4210  156.3840 S   0  0  0  0  0  0  0  0  0  0  0  0
  159.8780  212.5600  154.9400 O   0  0  0  0  0  0  0  0  0  0  0  0
  157.4230  214.1150  156.9720 C   0  0  0  0  0  3  0  0  0  0  0  0
  157.7900  212.8290  156.5630 C   0  0  0  0  0  0  0  0  0  0  0  0
  155.0800  213.5050  156.8050 C   0  0  0  0  0  0  0  0  0  0  0  0
  155.4490  212.2220  156.3890 C   0  0  0  0  0  3  0  0  0  0  0  0
  156.0730  214.4530  157.0950 C   0  0  0  0  0  3  0  0  0  0  0  0
  156.8000  211.8840  156.2670 C   0  0  0  0  0  3  0  0  0  0  0  0
  153.1440  214.4370  155.6840 N   0  0  0  0  0  1  0  0  0  0  0  0
  153.6290  213.8460  156.9210 C   0  0  1  0  0  3  0  0  0  0  0  0
  152.8100  212.6130  157.2590 C   0  0  0  0  0  1  0  0  0  0  0  0
  3 33  1  6  0  0  0
  4 20  1  0  0  0  0
  4 22  1  0  0  0  0
  5  6  1  0  0  0  0
  6  2  1  1  0  0  0
  6 19  1  0  0  0  0
  7 13  1  0  0  0  0
  8  9  1  6  0  0  0
  8 14  1  0  0  0  0
  8 10  1  0  0  0  0
 10  3  1  0  0  0  0
 12 11  1  6  0  0  0
 12  9  1  0  0  0  0
 13 12  1  0  0  0  0
 14 16  1  6  0  0  0
 14 15  1  0  0  0  0
 15  3  1  0  0  0  0
 15  1  1  1  0  0  0
 17  5  1  0  0  0  0
 18 28  1  6  0  0  0
 18 22  1  0  0  0  0
 18 17  1  0  0  0  0
 19 16  1  0  0  0  0
 20  7  1  0  0  0  0
 21 16  2  0  0  0  0
 23 24  1  0  0  0  0
 24 26  1  0  0  0  0
 24 27  2  0  0  0  0
 26 28  2  0  0  0  0
 27 25  1  0  0  0  0
 28 25  1  0  0  0  0
 29 27  1  0  0  0  0
 29 30  1  0  0  0  0
 30 32  1  0  0  0  0
 32 31  1  0  0  0  0
 35 38  1  0  0  0  0
 35 33  1  0  0  0  0
 35 34  2  0  0  0  0
 36 35  2  0  0  0  0
 37 41  1  0  0  0  0
 38 37  2  0  0  0  0
 39 44  1  0  0  0  0
 39 41  2  0  0  0  0
 40 39  1  0  0  0  0
 42 40  2  0  0  0  0
 42 38  1  0  0  0  0
 43 44  1  0  0  0  0
 44 45  1  6  0  0  0
M  END
>  <MODEL>
4

>  <REMARK>
 VINA RESULT:      -2.9      2.099      2.705
  Name = 
  8 active torsions:
  status: ('A' for Active; 'I' for Inactive)
    1  A    between atoms: C_4  and  N_34
    2  A    between atoms: C_8  and  S_24
    3  A    between atoms: C_12  and  C_13
    4  A    between atoms: N_17  and  C_30
    5  A    between atoms: N_17  and  C_40
    6  A    between atoms: C_21  and  C_30
    7  A    between atoms: S_24  and  N_34
    8  A    between atoms: C_33  and  C_45
                            x       y       z     vdW  Elec       q    Type
                         _______ _______ _______ _____ _____    ______ ____

>  <TORSDO>
F 8

$$$$
=
 OpenBabel11072412003D

 45 48  0  0  1  0  0  0  0  0999 V2000
  160.7460  210.8180  142.7580 C   0  0  0  0  0  1  0  0  0  0  0  0
  162.3650  210.3830  148.3040 C   0  0  0  0  0  1  0  0  0  0  0  0
  159.3210  212.8060  142.3600 C   0  0  2  0  0  3  0  0  0  0  0  0
  157.3000  214.0730  150.3120 C   0  0  0  0  0  2  0  0  0  0  0  0
  160.5070  211.7060  148.9510 O   0  0  0  0  0  0  0  0  0  0  0  0
  161.4800  211.5620  147.9610 C   0  0  2  0  0  3  0  0  0  0  0  0
  155.9030  214.4530  148.4640 C   0  0  0  0  0  2  0  0  0  0  0  0
  158.6660  213.2070  144.4860 C   0  0  2  0  0  3  0  0  0  0  0  0
  157.4700  212.8570  145.3570 C   0  0  0  0  0  2  0  0  0  0  0  0
  158.2770  213.3440  143.1430 O   0  0  0  0  0  0  0  0  0  0  0  0
  158.4290  214.1420  147.1330 O   0  0  0  0  0  1  0  0  0  0  0  0
  157.2460  213.9170  146.4250 C   0  0  2  0  0  3  0  0  0  0  0  0
  156.1710  213.4250  147.3780 C   0  0  0  0  0  2  0  0  0  0  0  0
  159.7050  212.1190  144.5760 C   0  0  1  0  0  3  0  0  0  0  0  0
  160.3860  212.2070  143.2510 C   0  0  1  0  0  3  0  0  0  0  0  0
  160.6470  212.3540  145.7160 C   0  0  0  0  0  0  0  0  0  0  0  0
  160.5720  213.0470  149.3430 C   0  0  0  0  0  2  0  0  0  0  0  0
  159.5280  213.3530  150.4140 C   0  0  1  0  0  3  0  0  0  0  0  0
  160.8340  211.3200  146.6830 N   0  0  0  0  0  2  0  0  0  0  0  0
  155.9740  213.8180  149.7710 N   0  0  0  0  0  2  0  0  0  0  0  0
  161.2520  213.4560  145.8330 O   0  0  0  0  0  0  0  0  0  0  0  0
  158.1960  212.9820  149.9590 N   0  0  0  0  0  2  0  0  0  0  0  0
  161.1430  210.0430  153.7290 C   0  0  0  0  0  1  0  0  0  0  0  0
  160.5340  211.2590  153.1240 C   0  0  0  0  0  0  0  0  0  0  0  0
  159.5260  213.1740  152.8800 O   0  0  0  0  0  0  0  0  0  0  0  0
  160.4760  211.4790  151.7970 N   0  0  0  0  0  0  0  0  0  0  0  0
  159.9390  212.3190  153.7780 C   0  0  0  0  0  0  0  0  0  0  0  0
  159.8470  212.6740  151.7080 C   0  0  0  0  0  0  0  0  0  0  0  0
  159.7690  212.5090  155.1860 N   0  0  0  0  0  2  0  0  0  0  0  0
  158.9510  211.6460  156.0240 C   0  0  0  0  0  2  0  0  0  0  0  0
  161.1130  211.5910  157.2610 C   0  0  0  0  0  1  0  0  0  0  0  0
  159.8370  210.8300  156.9470 C   0  0  0  0  0  2  0  0  0  0  0  0
  159.9020  213.8450  141.5250 N   0  0  0  0  0  2  0  0  0  0  0  0
  158.2440  213.2640  139.5460 O   0  0  0  0  0  0  0  0  0  0  0  0
  159.7090  213.3650  139.8710 S   0  0  0  0  0  0  0  0  0  0  0  0
  160.3350  214.3940  138.9730 O   0  0  0  0  0  0  0  0  0  0  0  0
  159.7360  210.6390  139.6590 C   0  0  0  0  0  3  0  0  0  0  0  0
  160.4890  211.8160  139.6020 C   0  0  0  0  0  0  0  0  0  0  0  0
  161.7160  209.3400  139.1270 C   0  0  0  0  0  0  0  0  0  0  0  0
  162.4650  210.5190  139.0630 C   0  0  0  0  0  3  0  0  0  0  0  0
  160.3460  209.4040  139.4240 C   0  0  0  0  0  3  0  0  0  0  0  0
  161.8550  211.7540  139.2990 C   0  0  0  0  0  3  0  0  0  0  0  0
  162.6250  207.3190  140.1090 N   0  0  0  0  0  1  0  0  0  0  0  0
  162.3890  208.0320  138.8630 C   0  0  1  0  0  3  0  0  0  0  0  0
  161.5540  207.1740  137.9290 C   0  0  0  0  0  1  0  0  0  0  0  0
  3 33  1  1  0  0  0
  3 10  1  0  0  0  0
  3 15  1  0  0  0  0
  5 17  1  0  0  0  0
  6  2  1  1  0  0  0
  6  5  1  0  0  0  0
  7 20  1  0  0  0  0
  8 14  1  0  0  0  0
  8  9  1  1  0  0  0
  9 12  1  0  0  0  0
 10  8  1  0  0  0  0
 12 11  1  1  0  0  0
 12 13  1  0  0  0  0
 13  7  1  0  0  0  0
 14 16  1  1  0  0  0
 15  1  1  6  0  0  0
 15 14  1  0  0  0  0
 16 21  2  0  0  0  0
 16 19  1  0  0  0  0
 17 18  1  0  0  0  0
 18 28  1  1  0  0  0
 19  6  1  0  0  0  0
 20  4  1  0  0  0  0
 22  4  1  0  0  0  0
 22 18  1  0  0  0  0
 24 23  1  0  0  0  0
 24 27  2  0  0  0  0
 25 27  1  0  0  0  0
 26 24  1  0  0  0  0
 27 29  1  0  0  0  0
 28 26  2  0  0  0  0
 28 25  1  0  0  0  0
 29 30  1  0  0  0  0
 30 32  1  0  0  0  0
 32 31  1  0  0  0  0
 34 35  2  0  0  0  0
 35 33  1  0  0  0  0
 36 35  2  0  0  0  0
 38 37  1  0  0  0  0
 38 35  1  0  0  0  0
 39 41  1  0  0  0  0
 40 39  2  0  0  0  0
 40 42  1  0  0  0  0
 41 37  2  0  0  0  0
 42 38  2  0  0  0  0
 44 45  1  6  0  0  0
 44 39  1  0  0  0  0
 44 43  1  0  0  0  0
M  END
>  <MODEL>
5

>  <REMARK>
 VINA RESULT:      -2.6      6.382     11.608
  Name = 
  8 active torsions:
  status: ('A' for Active; 'I' for Inactive)
    1  A    between atoms: C_4  and  N_34
    2  A    between atoms: C_8  and  S_24
    3  A    between atoms: C_12  and  C_13
    4  A    between atoms: N_17  and  C_30
    5  A    between atoms: N_17  and  C_40
    6  A    between atoms: C_21  and  C_30
    7  A    between atoms: S_24  and  N_34
    8  A    between atoms: C_33  and  C_45
                            x       y       z     vdW  Elec       q    Type
                         _______ _______ _______ _____ _____    ______ ____

>  <TORSDO>
F 8

$$$$
=
 OpenBabel11072412003D

 45 48  0  0  1  0  0  0  0  0999 V2000
  161.5420  208.2480  157.2560 C   0  0  0  0  0  1  0  0  0  0  0  0
  161.2150  204.0530  153.2720 C   0  0  0  0  0  1  0  0  0  0  0  0
  160.8170  210.4400  156.3570 C   0  0  2  0  0  3  0  0  0  0  0  0
  161.5020  208.3990  148.3390 C   0  0  0  0  0  2  0  0  0  0  0  0
  161.3400  205.6790  151.5500 O   0  0  0  0  0  0  0  0  0  0  0  0
  160.8030  205.4360  152.8150 C   0  0  2  0  0  3  0  0  0  0  0  0
  161.9490  210.5120  149.2600 C   0  0  0  0  0  2  0  0  0  0  0  0
  161.0210  210.0050  154.1480 C   0  0  2  0  0  3  0  0  0  0  0  0
  162.0770  210.2170  153.0750 C   0  0  0  0  0  2  0  0  0  0  0  0
  161.0740  211.0350  155.1030 O   0  0  0  0  0  0  0  0  0  0  0  0
  160.5780  209.2800  151.4620 O   0  0  0  0  0  1  0  0  0  0  0  0
  161.4370  210.3550  151.7010 C   0  0  2  0  0  3  0  0  0  0  0  0
  162.5370  210.3680  150.6540 C   0  0  0  0  0  2  0  0  0  0  0  0
  161.2520  208.6910  154.8470 C   0  0  1  0  0  3  0  0  0  0  0  0
  160.6930  208.9410  156.2070 C   0  0  1  0  0  3  0  0  0  0  0  0
  160.5580  207.5670  154.1440 C   0  0  0  0  0  0  0  0  0  0  0  0
  160.2630  206.1040  150.7660 C   0  0  0  0  0  2  0  0  0  0  0  0
  160.7180  206.4340  149.3470 C   0  0  1  0  0  3  0  0  0  0  0  0
  161.3150  206.4220  153.7520 N   0  0  0  0  0  2  0  0  0  0  0  0
  162.4830  209.4740  148.3920 N   0  0  0  0  0  2  0  0  0  0  0  0
  159.3240  207.6370  153.8830 O   0  0  0  0  0  0  0  0  0  0  0  0
  161.7990  207.4100  149.3650 N   0  0  0  0  0  2  0  0  0  0  0  0
  161.3490  201.6970  148.0390 C   0  0  0  0  0  1  0  0  0  0  0  0
  161.4070  203.1830  148.0420 C   0  0  0  0  0  0  0  0  0  0  0  0
  161.8580  205.2450  147.5030 O   0  0  0  0  0  0  0  0  0  0  0  0
  160.8250  203.9470  148.9850 N   0  0  0  0  0  0  0  0  0  0  0  0
  162.0430  204.0040  147.1330 C   0  0  0  0  0  0  0  0  0  0  0  0
  161.1340  205.2070  148.5990 C   0  0  0  0  0  0  0  0  0  0  0  0
  162.7920  203.6300  145.9730 N   0  0  0  0  0  2  0  0  0  0  0  0
  162.3960  203.9660  144.6140 C   0  0  0  0  0  2  0  0  0  0  0  0
  161.2890  205.7990  143.3420 C   0  0  0  0  0  1  0  0  0  0  0  0
  162.2470  205.4690  144.4730 C   0  0  0  0  0  2  0  0  0  0  0  0
  159.5940  210.9850  156.9250 N   0  0  0  0  0  2  0  0  0  0  0  0
  158.4370  213.3410  157.2600 O   0  0  0  0  0  0  0  0  0  0  0  0
  159.4660  212.6370  156.4200 S   0  0  0  0  0  0  0  0  0  0  0  0
  160.7920  213.3210  156.6030 O   0  0  0  0  0  0  0  0  0  0  0  0
  157.8870  212.0100  154.2780 C   0  0  0  0  0  3  0  0  0  0  0  0
  159.0090  212.7130  154.7270 C   0  0  0  0  0  0  0  0  0  0  0  0
  158.2420  212.8660  152.0350 C   0  0  0  0  0  0  0  0  0  0  0  0
  159.3600  213.5740  152.4880 C   0  0  0  0  0  3  0  0  0  0  0  0
  157.5040  212.0830  152.9360 C   0  0  0  0  0  3  0  0  0  0  0  0
  159.7420  213.5000  153.8300 C   0  0  0  0  0  3  0  0  0  0  0  0
  156.4910  213.4760  150.4740 N   0  0  0  0  0  1  0  0  0  0  0  0
  157.8470  212.9670  150.5960 C   0  0  1  0  0  3  0  0  0  0  0  0
  158.8060  213.8650  149.8350 C   0  0  0  0  0  1  0  0  0  0  0  0
  3 33  1  6  0  0  0
  4 20  1  0  0  0  0
  4 22  1  0  0  0  0
  5  6  1  0  0  0  0
  6  2  1  1  0  0  0
  6 19  1  0  0  0  0
  7 13  1  0  0  0  0
  8  9  1  6  0  0  0
  8 14  1  0  0  0  0
  8 10  1  0  0  0  0
 10  3  1  0  0  0  0
 12 11  1  6  0  0  0
 12  9  1  0  0  0  0
 13 12  1  0  0  0  0
 14 16  1  6  0  0  0
 14 15  1  0  0  0  0
 15  3  1  0  0  0  0
 15  1  1  1  0  0  0
 17  5  1  0  0  0  0
 18 28  1  1  0  0  0
 18 22  1  0  0  0  0
 18 17  1  0  0  0  0
 19 16  1  0  0  0  0
 20  7  1  0  0  0  0
 21 16  2  0  0  0  0
 23 24  1  0  0  0  0
 24 26  1  0  0  0  0
 25 28  1  0  0  0  0
 27 25  1  0  0  0  0
 27 24  2  0  0  0  0
 28 26  2  0  0  0  0
 29 27  1  0  0  0  0
 30 29  1  0  0  0  0
 31 32  1  0  0  0  0
 32 30  1  0  0  0  0
 35 36  2  0  0  0  0
 35 33  1  0  0  0  0
 35 34  2  0  0  0  0
 37 38  1  0  0  0  0
 38 35  1  0  0  0  0
 39 40  2  0  0  0  0
 39 41  1  0  0  0  0
 40 42  1  0  0  0  0
 41 37  2  0  0  0  0
 42 38  2  0  0  0  0
 43 44  1  0  0  0  0
 44 45  1  6  0  0  0
 44 39  1  0  0  0  0
M  END
>  <MODEL>
6

>  <REMARK>
 VINA RESULT:      -2.3      0.896      2.109
  Name = 
  8 active torsions:
  status: ('A' for Active; 'I' for Inactive)
    1  A    between atoms: C_4  and  N_34
    2  A    between atoms: C_8  and  S_24
    3  A    between atoms: C_12  and  C_13
    4  A    between atoms: N_17  and  C_30
    5  A    between atoms: N_17  and  C_40
    6  A    between atoms: C_21  and  C_30
    7  A    between atoms: S_24  and  N_34
    8  A    between atoms: C_33  and  C_45
                            x       y       z     vdW  Elec       q    Type
                         _______ _______ _______ _____ _____    ______ ____

>  <TORSDO>
F 8

$$$$
=
 OpenBabel11072412003D

 45 48  0  0  1  0  0  0  0  0999 V2000
  160.4420  211.1960  144.4430 C   0  0  0  0  0  1  0  0  0  0  0  0
  161.8500  207.7370  148.8740 C   0  0  0  0  0  1  0  0  0  0  0  0
  160.4420  213.5860  145.0950 C   0  0  2  0  0  3  0  0  0  0  0  0
  160.0820  212.2870  153.2870 C   0  0  0  0  0  2  0  0  0  0  0  0
  161.1770  209.4200  150.4020 O   0  0  0  0  0  0  0  0  0  0  0  0
  161.8120  209.2200  149.1750 C   0  0  2  0  0  3  0  0  0  0  0  0
  159.0610  214.0580  152.1320 C   0  0  0  0  0  2  0  0  0  0  0  0
  160.2900  213.3440  147.3380 C   0  0  2  0  0  3  0  0  0  0  0  0
  159.1780  213.3390  148.3740 C   0  0  0  0  0  2  0  0  0  0  0  0
  159.9700  214.2040  146.2730 O   0  0  0  0  0  0  0  0  0  0  0  0
  160.8240  213.0720  150.0910 O   0  0  0  0  0  1  0  0  0  0  0  0
  159.6930  213.8070  149.7280 C   0  0  2  0  0  3  0  0  0  0  0  0
  158.5990  213.5980  150.7600 C   0  0  0  0  0  2  0  0  0  0  0  0
  160.4900  211.9550  146.7890 C   0  0  1  0  0  3  0  0  0  0  0  0
  161.0030  212.2180  145.4130 C   0  0  1  0  0  3  0  0  0  0  0  0
  161.4610  211.1730  147.6180 C   0  0  0  0  0  0  0  0  0  0  0  0
  162.0460  210.2300  151.1400 C   0  0  0  0  0  2  0  0  0  0  0  0
  161.4570  210.5550  152.5110 C   0  0  1  0  0  3  0  0  0  0  0  0
  161.0650  209.9010  148.1310 N   0  0  0  0  0  2  0  0  0  0  0  0
  158.8280  213.0040  153.1090 N   0  0  0  0  0  2  0  0  0  0  0  0
  162.6060  211.6390  147.8770 O   0  0  0  0  0  0  0  0  0  0  0  0
  160.1360  211.1520  152.3770 N   0  0  0  0  0  2  0  0  0  0  0  0
  161.6590  207.5960  156.4800 C   0  0  0  0  0  1  0  0  0  0  0  0
  161.4870  208.0800  155.0840 C   0  0  1  0  0  3  0  0  0  0  0  0
  161.1260  208.1420  152.9360 O   0  0  0  0  0  0  0  0  0  0  0  0
  161.6350  209.3690  154.7210 N   0  0  0  0  0  0  0  0  0  0  0  0
  161.1730  207.3360  153.9650 C   0  0  0  0  0  0  0  0  0  0  0  0
  161.3970  209.3450  153.3890 C   0  0  0  0  0  0  0  0  0  0  0  0
  160.9340  205.9280  153.8750 N   0  0  0  0  0  0  0  0  0  0  0  0
  160.9040  205.1930  152.6190 C   0  0  0  0  0  2  0  0  0  0  0  0
  161.3920  202.9640  151.6210 C   0  0  0  0  0  1  0  0  0  0  0  0
  160.9980  203.7030  152.8880 C   0  0  0  0  0  2  0  0  0  0  0  0
  161.4680  214.4110  144.4780 N   0  0  0  0  0  2  0  0  0  0  0  0
  163.0440  214.4420  142.3520 O   0  0  0  0  0  0  0  0  0  0  0  0
  161.9920  213.6110  143.0330 S   0  0  0  0  0  0  0  0  0  0  0  0
  162.5830  212.2750  143.3860 O   0  0  0  0  0  0  0  0  0  0  0  0
  160.7480  212.4980  140.8670 C   0  0  0  0  0  3  0  0  0  0  0  0
  160.6280  213.3700  141.9540 C   0  0  0  0  0  0  0  0  0  0  0  0
  158.4420  212.9400  140.2530 C   0  0  0  0  0  0  0  0  0  0  0  0
  158.3230  213.8060  141.3450 C   0  0  0  0  0  3  0  0  0  0  0  0
  159.6600  212.2830  140.0170 C   0  0  0  0  0  3  0  0  0  0  0  0
  159.4120  214.0200  142.1940 C   0  0  0  0  0  3  0  0  0  0  0  0
  156.1430  213.5480  139.7850 N   0  0  0  0  0  1  0  0  0  0  0  0
  157.2620  212.7200  139.3620 C   0  0  1  0  0  3  0  0  0  0  0  0
  157.6120  213.0250  137.9170 C   0  0  0  0  0  1  0  0  0  0  0  0
  3 33  1  1  0  0  0
  3 15  1  0  0  0  0
  3 10  1  0  0  0  0
  5 17  1  0  0  0  0
  6  2  1  6  0  0  0
  6  5  1  0  0  0  0
  7 20  1  0  0  0  0
  8  9  1  1  0  0  0
  9 12  1  0  0  0  0
 10  8  1  0  0  0  0
 12 11  1  1  0  0  0
 12 13  1  0  0  0  0
 13  7  1  0  0  0  0
 14  8  1  0  0  0  0
 14 16  1  1  0  0  0
 15  1  1  6  0  0  0
 15 14  1  0  0  0  0
 16 21  2  0  0  0  0
 16 19  1  0  0  0  0
 17 18  1  0  0  0  0
 18 28  1  1  0  0  0
 19  6  1  0  0  0  0
 20  4  1  0  0  0  0
 22 18  1  0  0  0  0
 22  4  1  0  0  0  0
 24 23  1  6  0  0  0
 25 28  1  0  0  0  0
 25 27  1  0  0  0  0
 26 24  1  0  0  0  0
 27 24  1  0  0  0  0
 28 26  2  0  0  0  0
 29 27  2  0  0  0  0
 30 32  1  0  0  0  0
 30 29  1  0  0  0  0
 31 32  1  0  0  0  0
 34 35  2  0  0  0  0
 35 36  2  0  0  0  0
 35 33  1  0  0  0  0
 37 38  1  0  0  0  0
 38 42  2  0  0  0  0
 38 35  1  0  0  0  0
 39 40  2  0  0  0  0
 40 42  1  0  0  0  0
 41 39  1  0  0  0  0
 41 37  2  0  0  0  0
 44 45  1  6  0  0  0
 44 43  1  0  0  0  0
 44 39  1  0  0  0  0
M  END
>  <MODEL>
7

>  <REMARK>
 VINA RESULT:      -2.2      5.643      9.181
  Name = 
  8 active torsions:
  status: ('A' for Active; 'I' for Inactive)
    1  A    between atoms: C_4  and  N_34
    2  A    between atoms: C_8  and  S_24
    3  A    between atoms: C_12  and  C_13
    4  A    between atoms: N_17  and  C_30
    5  A    between atoms: N_17  and  C_40
    6  A    between atoms: C_21  and  C_30
    7  A    between atoms: S_24  and  N_34
    8  A    between atoms: C_33  and  C_45
                            x       y       z     vdW  Elec       q    Type
                         _______ _______ _______ _____ _____    ______ ____

>  <TORSDO>
F 8

$$$$
=
 OpenBabel11072412003D

 45 48  0  0  1  0  0  0  0  0999 V2000
  162.0150  207.9130  157.0900 C   0  0  0  0  0  1  0  0  0  0  0  0
  161.1790  203.8020  153.0930 C   0  0  0  0  0  1  0  0  0  0  0  0
  161.3690  210.1570  156.2630 C   0  0  2  0  0  3  0  0  0  0  0  0
  161.4120  208.1910  148.1970 C   0  0  0  0  0  2  0  0  0  0  0  0
  161.2920  205.4410  151.3840 O   0  0  0  0  0  0  0  0  0  0  0  0
  160.8230  205.2130  152.6780 C   0  0  2  0  0  3  0  0  0  0  0  0
  162.0450  210.2610  149.1080 C   0  0  0  0  0  2  0  0  0  0  0  0
  161.4040  209.7420  154.0410 C   0  0  2  0  0  3  0  0  0  0  0  0
  162.3990  209.9040  152.9040 C   0  0  0  0  0  2  0  0  0  0  0  0
  161.5800  210.7530  155.0010 O   0  0  0  0  0  0  0  0  0  0  0  0
  160.7460  209.0820  151.3820 O   0  0  0  0  0  1  0  0  0  0  0  0
  161.6820  210.1000  151.5760 C   0  0  2  0  0  3  0  0  0  0  0  0
  162.7110  210.0620  150.4590 C   0  0  0  0  0  2  0  0  0  0  0  0
  161.5990  208.4060  154.7100 C   0  0  1  0  0  3  0  0  0  0  0  0
  161.1440  208.6700  156.1060 C   0  0  1  0  0  3  0  0  0  0  0  0
  160.7940  207.3350  154.0420 C   0  0  0  0  0  0  0  0  0  0  0  0
  160.1940  205.9400  150.6750 C   0  0  0  0  0  2  0  0  0  0  0  0
  160.5770  206.2630  149.2330 C   0  0  1  0  0  3  0  0  0  0  0  0
  161.4540  206.1530  153.5900 N   0  0  0  0  0  2  0  0  0  0  0  0
  162.4580  209.2040  148.1970 N   0  0  0  0  0  2  0  0  0  0  0  0
  159.5530  207.4830  153.8620 O   0  0  0  0  0  0  0  0  0  0  0  0
  161.7140  207.1720  149.1910 N   0  0  0  0  0  2  0  0  0  0  0  0
  161.3710  201.5240  148.0260 C   0  0  0  0  0  1  0  0  0  0  0  0
  161.2110  202.9990  147.9320 C   0  0  0  0  0  0  0  0  0  0  0  0
  161.1380  205.0360  147.1610 O   0  0  0  0  0  0  0  0  0  0  0  0
  160.9030  203.7810  148.9840 N   0  0  0  0  0  0  0  0  0  0  0  0
  161.3540  203.7940  146.8120 C   0  0  0  0  0  0  0  0  0  0  0  0
  160.8690  205.0240  148.4470 C   0  0  0  0  0  0  0  0  0  0  0  0
  161.6830  203.3950  145.4780 N   0  0  0  0  0  2  0  0  0  0  0  0
  160.7270  203.3860  144.3800 C   0  0  0  0  0  2  0  0  0  0  0  0
  159.7020  201.1180  144.4690 C   0  0  0  0  0  1  0  0  0  0  0  0
  159.4960  202.5910  144.7730 C   0  0  0  0  0  2  0  0  0  0  0  0
  160.2200  210.7660  156.9140 N   0  0  0  0  0  2  0  0  0  0  0  0
  160.9240  213.3070  157.1370 O   0  0  0  0  0  0  0  0  0  0  0  0
  160.0680  212.3840  156.3140 S   0  0  0  0  0  0  0  0  0  0  0  0
  160.5340  212.4360  154.8860 O   0  0  0  0  0  0  0  0  0  0  0  0
  158.0290  213.9740  157.2070 C   0  0  0  0  0  3  0  0  0  0  0  0
  158.3910  212.8960  156.3910 C   0  0  0  0  0  0  0  0  0  0  0  0
  155.7230  213.7530  156.4840 C   0  0  0  0  0  0  0  0  0  0  0  0
  156.0880  212.6810  155.6630 C   0  0  0  0  0  3  0  0  0  0  0  0
  156.7000  214.4010  157.2560 C   0  0  0  0  0  3  0  0  0  0  0  0
  157.4180  212.2540  155.6150 C   0  0  0  0  0  3  0  0  0  0  0  0
  153.8140  214.4520  155.1650 N   0  0  0  0  0  1  0  0  0  0  0  0
  154.2960  214.1980  156.5130 C   0  0  1  0  0  3  0  0  0  0  0  0
  153.4200  213.1570  157.1870 C   0  0  0  0  0  1  0  0  0  0  0  0
  3 33  1  6  0  0  0
  4 22  1  0  0  0  0
  5  6  1  0  0  0  0
  6  2  1  1  0  0  0
  6 19  1  0  0  0  0
  7 13  1  0  0  0  0
  8  9  1  6  0  0  0
  8 14  1  0  0  0  0
  8 10  1  0  0  0  0
 10  3  1  0  0  0  0
 12 11  1  6  0  0  0
 12  9  1  0  0  0  0
 13 12  1  0  0  0  0
 14 16  1  6  0  0  0
 14 15  1  0  0  0  0
 15  3  1  0  0  0  0
 15  1  1  1  0  0  0
 17  5  1  0  0  0  0
 18 28  1  6  0  0  0
 18 17  1  0  0  0  0
 19 16  1  0  0  0  0
 20  4  1  0  0  0  0
 20  7  1  0  0  0  0
 21 16  2  0  0  0  0
 22 18  1  0  0  0  0
 24 23  1  0  0  0  0
 24 26  1  0  0  0  0
 25 28  1  0  0  0  0
 27 25  1  0  0  0  0
 27 24  2  0  0  0  0
 28 26  2  0  0  0  0
 29 27  1  0  0  0  0
 30 32  1  0  0  0  0
 30 29  1  0  0  0  0
 31 32  1  0  0  0  0
 35 38  1  0  0  0  0
 35 33  1  0  0  0  0
 35 34  2  0  0  0  0
 36 35  2  0  0  0  0
 37 41  1  0  0  0  0
 38 37  2  0  0  0  0
 39 44  1  0  0  0  0
 39 41  2  0  0  0  0
 40 39  1  0  0  0  0
 42 40  2  0  0  0  0
 42 38  1  0  0  0  0
 43 44  1  0  0  0  0
 44 45  1  6  0  0  0
M  END
>  <MODEL>
8

>  <REMARK>
 VINA RESULT:      -2.2      2.170      3.013
  Name = 
  8 active torsions:
  status: ('A' for Active; 'I' for Inactive)
    1  A    between atoms: C_4  and  N_34
    2  A    between atoms: C_8  and  S_24
    3  A    between atoms: C_12  and  C_13
    4  A    between atoms: N_17  and  C_30
    5  A    between atoms: N_17  and  C_40
    6  A    between atoms: C_21  and  C_30
    7  A    between atoms: S_24  and  N_34
    8  A    between atoms: C_33  and  C_45
                            x       y       z     vdW  Elec       q    Type
                         _______ _______ _______ _____ _____    ______ ____

>  <TORSDO>
F 8

$$$$
=
 OpenBabel11072412003D

 45 48  0  0  1  0  0  0  0  0999 V2000
  160.7460  210.8180  142.7580 C   0  0  0  0  0  1  0  0  0  0  0  0
  162.3650  210.3830  148.3040 C   0  0  0  0  0  1  0  0  0  0  0  0
  159.3210  212.8060  142.3600 C   0  0  2  0  0  3  0  0  0  0  0  0
  157.3000  214.0730  150.3120 C   0  0  0  0  0  2  0  0  0  0  0  0
  160.5070  211.7060  148.9510 O   0  0  0  0  0  0  0  0  0  0  0  0
  161.4800  211.5620  147.9610 C   0  0  2  0  0  3  0  0  0  0  0  0
  155.9030  214.4530  148.4640 C   0  0  0  0  0  2  0  0  0  0  0  0
  158.6660  213.2070  144.4860 C   0  0  2  0  0  3  0  0  0  0  0  0
  157.4700  212.8570  145.3570 C   0  0  0  0  0  2  0  0  0  0  0  0
  158.2770  213.3440  143.1430 O   0  0  0  0  0  0  0  0  0  0  0  0
  158.4290  214.1420  147.1330 O   0  0  0  0  0  1  0  0  0  0  0  0
  157.2460  213.9170  146.4250 C   0  0  2  0  0  3  0  0  0  0  0  0
  156.1710  213.4250  147.3780 C   0  0  0  0  0  2  0  0  0  0  0  0
  159.7050  212.1190  144.5760 C   0  0  1  0  0  3  0  0  0  0  0  0
  160.3860  212.2070  143.2510 C   0  0  1  0  0  3  0  0  0  0  0  0
  160.6470  212.3540  145.7160 C   0  0  0  0  0  0  0  0  0  0  0  0
  160.5720  213.0470  149.3430 C   0  0  0  0  0  2  0  0  0  0  0  0
  159.5280  213.3530  150.4140 C   0  0  1  0  0  3  0  0  0  0  0  0
  160.8340  211.3200  146.6830 N   0  0  0  0  0  2  0  0  0  0  0  0
  155.9740  213.8180  149.7710 N   0  0  0  0  0  2  0  0  0  0  0  0
  161.2520  213.4560  145.8330 O   0  0  0  0  0  0  0  0  0  0  0  0
  158.1960  212.9820  149.9590 N   0  0  0  0  0  2  0  0  0  0  0  0
  161.5240  210.3060  153.7720 C   0  0  0  0  0  1  0  0  0  0  0  0
  160.6970  211.3700  153.1430 C   0  0  0  0  0  0  0  0  0  0  0  0
  159.2570  212.9770  152.8430 O   0  0  0  0  0  0  0  0  0  0  0  0
  160.7530  211.6770  151.8330 N   0  0  0  0  0  0  0  0  0  0  0  0
  159.7640  212.1850  153.7510 C   0  0  0  0  0  0  0  0  0  0  0  0
  159.8470  212.6740  151.7080 C   0  0  0  0  0  0  0  0  0  0  0  0
  159.3700  212.2090  155.1260 N   0  0  0  0  0  2  0  0  0  0  0  0
  158.1740  211.5540  155.6340 C   0  0  0  0  0  2  0  0  0  0  0  0
  155.7790  211.5620  154.9510 C   0  0  0  0  0  1  0  0  0  0  0  0
  156.9580  212.4220  155.3730 C   0  0  0  0  0  2  0  0  0  0  0  0
  159.9020  213.8450  141.5250 N   0  0  0  0  0  2  0  0  0  0  0  0
  160.3660  214.3760  138.9740 O   0  0  0  0  0  0  0  0  0  0  0  0
  159.7090  213.3650  139.8710 S   0  0  0  0  0  0  0  0  0  0  0  0
  160.3640  212.0290  139.6570 O   0  0  0  0  0  0  0  0  0  0  0  0
  157.3460  214.3140  138.8750 C   0  0  0  0  0  3  0  0  0  0  0  0
  158.0020  213.2370  139.4800 C   0  0  0  0  0  0  0  0  0  0  0  0
  155.2890  213.0270  138.8070 C   0  0  0  0  0  0  0  0  0  0  0  0
  155.9500  211.9490  139.4050 C   0  0  0  0  0  3  0  0  0  0  0  0
  155.9930  214.2120  138.5410 C   0  0  0  0  0  3  0  0  0  0  0  0
  157.3030  212.0530  139.7400 C   0  0  0  0  0  3  0  0  0  0  0  0
  153.2760  211.7030  139.0670 N   0  0  0  0  0  1  0  0  0  0  0  0
  153.8440  212.8910  138.4510 C   0  0  1  0  0  3  0  0  0  0  0  0
  153.0630  214.1190  138.8830 C   0  0  0  0  0  1  0  0  0  0  0  0
  3 33  1  1  0  0  0
  3 10  1  0  0  0  0
  3 15  1  0  0  0  0
  5 17  1  0  0  0  0
  6  2  1  1  0  0  0
  6  5  1  0  0  0  0
  7 20  1  0  0  0  0
  8 14  1  0  0  0  0
  8  9  1  1  0  0  0
  9 12  1  0  0  0  0
 10  8  1  0  0  0  0
 12 11  1  1  0  0  0
 12 13  1  0  0  0  0
 13  7  1  0  0  0  0
 14 16  1  1  0  0  0
 15  1  1  6  0  0  0
 15 14  1  0  0  0  0
 16 21  2  0  0  0  0
 16 19  1  0  0  0  0
 17 18  1  0  0  0  0
 18 28  1  1  0  0  0
 19  6  1  0  0  0  0
 20  4  1  0  0  0  0
 22  4  1  0  0  0  0
 22 18  1  0  0  0  0
 24 27  2  0  0  0  0
 24 23  1  0  0  0  0
 25 27  1  0  0  0  0
 26 24  1  0  0  0  0
 27 29  1  0  0  0  0
 28 26  2  0  0  0  0
 28 25  1  0  0  0  0
 29 30  1  0  0  0  0
 31 32  1  0  0  0  0
 32 30  1  0  0  0  0
 34 35  2  0  0  0  0
 35 33  1  0  0  0  0
 36 35  2  0  0  0  0
 37 38  1  0  0  0  0
 38 42  2  0  0  0  0
 38 35  1  0  0  0  0
 39 40  2  0  0  0  0
 40 42  1  0  0  0  0
 41 39  1  0  0  0  0
 41 37  2  0  0  0  0
 44 39  1  0  0  0  0
 44 45  1  1  0  0  0
 44 43  1  0  0  0  0
M  END
>  <MODEL>
9

>  <REMARK>
 VINA RESULT:      -2.2      7.276     11.532
  Name = 
  8 active torsions:
  status: ('A' for Active; 'I' for Inactive)
    1  A    between atoms: C_4  and  N_34
    2  A    between atoms: C_8  and  S_24
    3  A    between atoms: C_12  and  C_13
    4  A    between atoms: N_17  and  C_30
    5  A    between atoms: N_17  and  C_40
    6  A    between atoms: C_21  and  C_30
    7  A    between atoms: S_24  and  N_34
    8  A    between atoms: C_33  and  C_45
                            x       y       z     vdW  Elec       q    Type
                         _______ _______ _______ _____ _____    ______ ____

>  <TORSDO>
F 8

$$$$
