=
 OpenBabel11072409523D

 64 70  0  0  1  0  0  0  0  0999 V2000
  161.0640  207.3760  151.1840 C   0  0  2  0  0  3  0  0  0  0  0  0
  162.0380  208.5550  149.5530 C   0  0  0  0  0  0  0  0  0  0  0  0
  162.6830  208.8590  148.3230 N   0  0  0  0  0  1  0  0  0  0  0  0
  161.6910  207.3590  149.8670 N   0  0  0  0  0  0  0  0  0  0  0  0
  160.8800  208.8850  151.5050 C   0  0  2  0  0  3  0  0  0  0  0  0
  161.6660  209.5550  150.4840 N   0  0  0  0  0  2  0  0  0  0  0  0
  159.0680  209.2360  153.8100 O   0  0  0  0  0  0  0  0  0  0  0  0
  162.5450  210.7850  154.7360 C   0  0  0  0  0  2  0  0  0  0  0  0
  160.0760  209.9100  153.6660 C   0  0  0  0  0  0  0  0  0  0  0  0
  161.2610  209.3190  152.9330 C   0  0  2  0  0  3  0  0  0  0  0  0
  160.1150  211.2970  154.2710 C   0  0  2  0  0  0  0  0  0  0  0  0
  161.4240  211.8040  154.8710 C   0  0  1  0  0  3  0  0  0  0  0  0
  160.3160  211.2790  155.7740 C   0  0  0  0  0  2  0  0  0  0  0  0
  162.7490  210.3930  152.9740 S   0  0  0  0  0  0  0  0  0  0  0  0
  158.8970  212.4090  152.3610 C   0  0  0  0  0  3  0  0  0  0  0  0
  157.9340  214.4330  154.0320 C   0  0  0  0  0  3  0  0  0  0  0  0
  159.2070  212.3780  153.7280 C   0  0  0  0  0  0  0  0  0  0  0  0
  157.6390  214.4530  152.6680 C   0  0  0  0  0  3  0  0  0  0  0  0
  158.7160  213.4030  154.5600 C   0  0  0  0  0  3  0  0  0  0  0  0
  158.1170  213.4430  151.8280 C   0  0  0  0  0  0  0  0  0  0  0  0
  157.7920  213.4650  150.3920 C   0  0  0  0  0  0  0  0  0  0  0  0
  158.7150  213.8060  149.5340 C   0  0  0  0  0  0  0  0  0  0  0  0
  159.6460  214.1080  148.6640 C   0  0  0  0  0  0  0  0  0  0  0  0
  161.0410  214.3630  149.1680 C   0  0  1  0  0  3  0  0  0  0  0  0
  161.4120  213.4330  150.3100 C   0  0  0  0  0  2  0  0  0  0  0  0
  161.4500  211.9310  148.3520 C   0  0  0  0  0  1  0  0  0  0  0  0
  162.0350  213.2080  148.9470 C   0  0  1  0  0  3  0  0  0  0  0  0
  160.1790  214.4520  146.2870 C   0  0  0  0  0  3  0  0  0  0  0  0
  159.4190  213.8900  147.2220 C   0  0  0  0  0  3  0  0  0  0  0  0
  160.5080  213.2950  144.2390 N   0  0  0  0  0  0  0  0  0  0  0  0
  159.9030  214.2420  144.8710 C   0  0  0  0  0  3  0  0  0  0  0  0
  160.2640  213.0910  142.8200 C   0  0  0  0  0  2  0  0  0  0  0  0
  161.3540  212.2570  142.2360 C   0  0  0  0  0  3  0  0  0  0  0  0
  162.4550  212.2350  142.7590 O   0  0  0  0  0  0  0  0  0  0  0  0
  156.5320  213.0900  149.9130 O   0  0  0  0  0  0  0  0  0  0  0  0
  155.8140  213.8520  148.9520 C   0  0  0  0  0  1  0  0  0  0  0  0
  161.9280  206.5840  152.1870 C   0  0  0  0  0  2  0  0  0  0  0  0
  161.1320  205.5470  152.9860 C   0  0  2  0  0  3  0  0  0  0  0  0
  161.4670  205.6760  154.4620 C   0  0  0  0  0  1  0  0  0  0  0  0
  161.4180  204.1210  152.5080 C   0  0  1  0  0  3  0  0  0  0  0  0
  160.2060  203.4460  152.3260 O   0  0  0  0  0  0  0  0  0  0  0  0
  159.3200  204.4120  151.8570 C   0  0  0  0  0  1  0  0  0  0  0  0
  162.1040  204.1490  151.2900 O   0  0  0  0  0  0  0  0  0  0  0  0
  160.2830  202.0680  150.9550 O   0  0  0  0  0  0  0  0  0  0  0  0
  162.8610  201.6590  151.0300 O   0  0  0  0  0  1  0  0  0  0  0  0
  161.8220  202.6470  150.5470 P   0  0  2  0  0  0  0  0  0  0  0  0
  161.9330  202.7920  148.8370 O   0  0  0  0  0  0  0  0  0  0  0  0
  161.9810  204.0270  148.1830 C   0  0  0  0  0  0  0  0  0  0  0  0
  161.7580  205.0940  148.8160 O   0  0  0  0  0  0  0  0  0  0  0  0
  163.4390  204.2140  146.3390 O   0  0  0  0  0  0  0  0  0  0  0  0
  162.2500  204.0910  146.7380 C   0  0  0  0  0  0  0  0  0  0  0  0
  161.1610  204.0020  145.7020 C   0  0  2  0  0  3  0  0  0  0  0  0
  159.6450  200.8800  144.3600 C   0  0  0  0  0  2  0  0  0  0  0  0
  159.7010  202.3780  144.3670 C   0  0  0  0  0  2  0  0  0  0  0  0
  160.8490  200.4770  145.1830 C   0  0  1  0  0  3  0  0  0  0  0  0
  160.3410  202.7010  145.7030 C   0  0  1  0  0  3  0  0  0  0  0  0
  161.1310  201.5480  146.1360 N   0  0  0  0  0  2  0  0  0  0  0  0
  161.9500  198.4920  146.1330 C   0  0  0  0  0  2  0  0  0  0  0  0
  161.0250  197.9990  145.0440 C   0  0  0  0  0  2  0  0  0  0  0  0
  160.6150  199.1690  145.9180 C   0  0  0  0  0  3  0  0  0  0  0  0
  161.6410  204.3160  144.4240 O   0  0  0  0  0  0  0  0  0  0  0  0
  161.3850  205.6780  144.2650 C   0  0  0  0  0  2  0  0  0  0  0  0
  160.4080  206.6770  146.2680 C   0  0  0  0  0  2  0  0  0  0  0  0
  160.2140  206.0680  145.1040 C   0  0  0  0  0  3  0  0  0  0  0  0
  1  5  1  0  0  0  0
  1 37  1  1  0  0  0
  2  4  2  0  0  0  0
  2  6  1  0  0  0  0
  3  2  1  0  0  0  0
  4  1  1  0  0  0  0
  5  6  1  6  0  0  0
  5 10  1  0  0  0  0
  9  7  2  0  0  0  0
  9 11  1  0  0  0  0
 10 14  1  6  0  0  0
 10  9  1  0  0  0  0
 11 17  1  6  0  0  0
 11 12  1  0  0  0  0
 11 13  1  0  0  0  0
 12  8  1  6  0  0  0
 12 13  1  0  0  0  0
 14  8  1  0  0  0  0
 15 17  1  0  0  0  0
 16 19  1  0  0  0  0
 17 19  2  0  0  0  0
 18 16  2  0  0  0  0
 20 15  2  0  0  0  0
 20 18  1  0  0  0  0
 21 20  1  0  0  0  0
 22 21  2  0  0  0  0
 23 22  2  0  0  0  0
 24 23  1  6  0  0  0
 24 25  1  0  0  0  0
 27 26  1  6  0  0  0
 27 24  1  0  0  0  0
 27 25  1  0  0  0  0
 28 29  2  0  0  0  0
 29 23  1  0  0  0  0
 30 31  2  0  0  0  0
 31 28  1  0  0  0  0
 32 30  1  0  0  0  0
 33 34  2  0  0  0  0
 33 32  1  0  0  0  0
 35 21  1  0  0  0  0
 36 35  1  0  0  0  0
 37 38  1  0  0  0  0
 38 39  1  1  0  0  0
 40 43  1  6  0  0  0
 40 38  1  0  0  0  0
 41 40  1  0  0  0  0
 42 41  1  0  0  0  0
 46 44  2  1  0  0  0
 46 45  1  0  0  0  0
 46 43  1  0  0  0  0
 47 46  1  0  0  0  0
 48 49  2  0  0  0  0
 48 47  1  0  0  0  0
 50 51  2  0  0  0  0
 51 48  1  0  0  0  0
 52 61  1  6  0  0  0
 52 51  1  0  0  0  0
 53 54  1  0  0  0  0
 53 55  1  0  0  0  0
 54 56  1  0  0  0  0
 55 60  1  1  0  0  0
 55 57  1  0  0  0  0
 56 52  1  6  0  0  0
 56 57  1  0  0  0  0
 59 60  1  0  0  0  0
 59 58  1  0  0  0  0
 60 58  1  0  0  0  0
 62 61  1  0  0  0  0
 62 64  1  0  0  0  0
 64 63  2  0  0  0  0
M  END
>  <MODEL>
1

>  <REMARK>
 VINA RESULT:       0.1      0.000      0.000
  Name = 
  24 active torsions:
  status: ('A' for Active; 'I' for Inactive)
    1  A    between atoms: C_1  and  C_61
    2  A    between atoms: C_2  and  C_6
    3  A    between atoms: C_2  and  C_8
    4  A    between atoms: C_5  and  C_63
    5  A    between atoms: C_7  and  O_33
    6  A    between atoms: C_7  and  C_47
    7  A    between atoms: C_7  and  C_56
    8  A    between atoms: C_8  and  C_34
    9  A    between atoms: O_10  and  C_16
   10  A    between atoms: C_11  and  C_50
   11  A    between atoms: C_16  and  C_58
   12  A    between atoms: O_18  and  C_26
   13  A    between atoms: O_18  and  P_51
   14  A    between atoms: C_26  and  C_56
   15  A    between atoms: C_31  and  C_52
   16  A    between atoms: N_32  and  C_61
   17  A    between atoms: O_33  and  C_36
   18  A    between atoms: C_34  and  O_35
   19  A    between atoms: C_34  and  O_54
   20  A    between atoms: C_36  and  C_44
   21  A    between atoms: C_38  and  C_45
   22  A    between atoms: C_40  and  C_53
   23  A    between atoms: P_51  and  O_54
   24  A    between atoms: C_55  and  C_63
                            x       y       z     vdW  Elec       q    Type
                         _______ _______ _______ _____ _____    ______ ____

>  <TORSDO>
F 24

$$$$
=
 OpenBabel11072409523D

 64 71  0  0  1  0  0  0  0  0999 V2000
  161.9160  210.9870  137.6860 C   0  0  2  0  0  3  0  0  0  0  0  0
  162.9960  212.5330  138.8870 C   0  0  0  0  0  0  0  0  0  0  0  0
  164.0180  213.1640  139.6490 N   0  0  0  0  0  1  0  0  0  0  0  0
  163.1310  211.3500  138.4060 N   0  0  0  0  0  0  0  0  0  0  0  0
  161.0960  212.3050  137.6220 C   0  0  2  0  0  3  0  0  0  0  0  0
  161.7900  213.1900  138.5430 N   0  0  0  0  0  2  0  0  0  0  0  0
  159.2780  214.4350  138.5610 O   0  0  0  0  0  0  0  0  0  0  0  0
  157.4420  210.9960  138.9460 C   0  0  0  0  0  2  0  0  0  0  0  0
  159.1310  213.2660  138.8800 C   0  0  0  0  0  0  0  0  0  0  0  0
  159.5930  212.1780  137.9350 C   0  0  2  0  0  3  0  0  0  0  0  0
  158.4440  212.9530  140.1920 C   0  0  2  0  0  0  0  0  0  0  0  0
  157.5140  211.7440  140.2680 C   0  0  1  0  0  3  0  0  0  0  0  0
  156.9420  213.1480  140.1340 C   0  0  0  0  0  2  0  0  0  0  0  0
  159.1240  210.4910  138.4850 S   0  0  1  0  0  3  0  0  0  0  0  0
  158.3850  213.2880  142.6930 C   0  0  0  0  0  3  0  0  0  0  0  0
  161.0460  214.1440  142.7330 C   0  0  0  0  0  3  0  0  0  0  0  0
  159.1180  213.3160  141.4970 C   0  0  0  0  0  0  0  0  0  0  0  0
  160.3030  214.1170  143.9140 C   0  0  0  0  0  3  0  0  0  0  0  0
  160.4570  213.7480  141.5300 C   0  0  0  0  0  3  0  0  0  0  0  0
  158.9720  213.6890  143.8990 C   0  0  0  0  0  0  0  0  0  0  0  0
  158.1980  213.6530  145.1510 C   0  0  0  0  0  0  0  0  0  0  0  0
  158.8250  213.4970  146.2850 C   0  0  0  0  0  0  0  0  0  0  0  0
  159.4510  213.3800  147.4300 C   0  0  0  0  0  0  0  0  0  0  0  0
  160.9560  213.3490  147.4230 C   0  0  1  0  0  3  0  0  0  0  0  0
  161.5060  212.2240  148.2820 C   0  0  0  0  0  2  0  0  0  0  0  0
  160.5960  211.0200  146.3280 C   0  0  0  0  0  1  0  0  0  0  0  0
  161.5790  212.0990  146.7740 C   0  0  1  0  0  3  0  0  0  0  0  0
  159.3380  214.0400  149.7970 C   0  0  0  0  0  3  0  0  0  0  0  0
  158.7310  213.5990  148.7000 C   0  0  0  0  0  3  0  0  0  0  0  0
  157.5440  213.5020  151.2580 N   0  0  0  0  0  0  0  0  0  0  0  0
  158.6020  214.2090  151.0440 C   0  0  0  0  0  3  0  0  0  0  0  0
  156.7830  213.6780  152.4850 C   0  0  0  0  0  2  0  0  0  0  0  0
  155.3230  213.6580  152.1800 C   0  0  0  0  0  3  0  0  0  0  0  0
  154.5100  213.7760  153.0800 O   0  0  0  0  0  0  0  0  0  0  0  0
  156.8090  213.8240  145.1680 O   0  0  0  0  0  0  0  0  0  0  0  0
  156.1210  214.4410  146.2480 C   0  0  0  0  0  1  0  0  0  0  0  0
  161.2190  209.8060  138.3940 C   0  0  1  0  0  3  0  0  0  0  0  0
  162.1040  208.5610  138.5090 C   0  0  2  0  0  3  0  0  0  0  0  0
  161.3470  207.3490  137.9950 C   0  0  0  0  0  1  0  0  0  0  0  0
  162.5600  208.3200  139.9500 C   0  0  1  0  0  3  0  0  0  0  0  0
  162.8180  209.5520  140.5620 O   0  0  0  0  0  0  0  0  0  0  0  0
  161.6050  209.9340  141.1320 C   0  0  0  0  0  1  0  0  0  0  0  0
  161.5570  207.6620  140.6700 O   0  0  0  0  0  0  0  0  0  0  0  0
  163.7680  206.7030  142.0670 O   0  0  0  0  0  1  0  0  0  0  0  0
  162.5290  205.2670  140.2720 O   0  0  0  0  0  0  0  0  0  0  0  0
  162.2850  206.2900  141.3590 P   0  0  2  0  0  0  0  0  0  0  0  0
  161.2610  205.6050  142.5600 O   0  0  0  0  0  0  0  0  0  0  0  0
  161.6330  205.5010  143.9030 C   0  0  0  0  0  0  0  0  0  0  0  0
  162.6610  206.0910  144.3290 O   0  0  0  0  0  0  0  0  0  0  0  0
  159.7220  204.2360  144.4610 O   0  0  0  0  0  0  0  0  0  0  0  0
  160.8500  204.6630  144.8260 C   0  0  0  0  0  0  0  0  0  0  0  0
  161.3450  204.2790  146.1950 C   0  0  2  0  0  3  0  0  0  0  0  0
  160.7300  200.7750  147.2850 C   0  0  0  0  0  2  0  0  0  0  0  0
  160.8360  201.7710  146.1700 C   0  0  0  0  0  2  0  0  0  0  0  0
  161.2330  201.5390  148.4910 C   0  0  1  0  0  3  0  0  0  0  0  0
  160.6150  203.1010  146.8630 C   0  0  1  0  0  3  0  0  0  0  0  0
  160.9680  202.9590  148.2760 N   0  0  0  0  0  2  0  0  0  0  0  0
  160.4210  202.2530  150.7020 C   0  0  0  0  0  2  0  0  0  0  0  0
  161.5130  201.2360  150.9450 C   0  0  0  0  0  2  0  0  0  0  0  0
  160.5660  201.0690  149.7720 C   0  0  0  0  0  3  0  0  0  0  0  0
  161.4260  205.3910  147.0420 O   0  0  0  0  0  0  0  0  0  0  0  0
  161.7890  204.8730  148.2870 C   0  0  0  0  0  2  0  0  0  0  0  0
  160.3160  206.5400  149.2960 C   0  0  0  0  0  2  0  0  0  0  0  0
  161.4570  205.8620  149.3540 C   0  0  0  0  0  3  0  0  0  0  0  0
  1 37  1  0  0  0  0
  1  4  1  1  0  0  0
  2  3  1  0  0  0  0
  4  2  2  0  0  0  0
  5  1  1  0  0  0  0
  5 10  1  0  0  0  0
  5  6  1  1  0  0  0
  6  2  1  0  0  0  0
  7  9  2  0  0  0  0
  9 11  1  0  0  0  0
 10 14  1  0  0  0  0
 10  9  1  1  0  0  0
 11 12  1  0  0  0  0
 11 17  1  1  0  0  0
 12  8  1  6  0  0  0
 13 11  1  0  0  0  0
 13 12  1  0  0  0  0
 14  8  1  1  0  0  0
 15 20  1  0  0  0  0
 16 18  1  0  0  0  0
 17 19  1  0  0  0  0
 17 15  2  0  0  0  0
 19 16  2  0  0  0  0
 20 18  2  0  0  0  0
 20 21  1  0  0  0  0
 21 35  1  0  0  0  0
 21 22  2  0  0  0  0
 22 23  2  0  0  0  0
 23 29  1  0  0  0  0
 24 23  1  6  0  0  0
 24 25  1  0  0  0  0
 27 26  1  6  0  0  0
 27 24  1  0  0  0  0
 27 25  1  0  0  0  0
 28 31  1  0  0  0  0
 29 28  2  0  0  0  0
 30 32  1  0  0  0  0
 31 30  2  0  0  0  0
 33 32  1  0  0  0  0
 33 34  2  0  0  0  0
 35 36  1  0  0  0  0
 37 14  1  0  0  0  0
 37 38  1  6  0  0  0
 38 39  1  1  0  0  0
 38 40  1  0  0  0  0
 40 41  1  1  0  0  0
 40 43  1  0  0  0  0
 41 42  1  0  0  0  0
 43 46  1  0  0  0  0
 46 45  2  6  0  0  0
 46 44  1  0  0  0  0
 46 47  1  0  0  0  0
 47 48  1  0  0  0  0
 48 49  2  0  0  0  0
 48 51  1  0  0  0  0
 50 51  2  0  0  0  0
 52 51  1  6  0  0  0
 52 61  1  0  0  0  0
 53 55  1  0  0  0  0
 54 56  1  0  0  0  0
 54 53  1  0  0  0  0
 55 60  1  1  0  0  0
 56 52  1  6  0  0  0
 56 57  1  0  0  0  0
 57 55  1  0  0  0  0
 58 59  1  0  0  0  0
 60 58  1  0  0  0  0
 60 59  1  0  0  0  0
 61 62  1  0  0  0  0
 62 64  1  0  0  0  0
 63 64  2  0  0  0  0
M  END
>  <MODEL>
2

>  <REMARK>
 VINA RESULT:       1.0      4.003      9.800
  Name = 
  24 active torsions:
  status: ('A' for Active; 'I' for Inactive)
    1  A    between atoms: C_1  and  C_61
    2  A    between atoms: C_2  and  C_6
    3  A    between atoms: C_2  and  C_8
    4  A    between atoms: C_5  and  C_63
    5  A    between atoms: C_7  and  O_33
    6  A    between atoms: C_7  and  C_47
    7  A    between atoms: C_7  and  C_56
    8  A    between atoms: C_8  and  C_34
    9  A    between atoms: O_10  and  C_16
   10  A    between atoms: C_11  and  C_50
   11  A    between atoms: C_16  and  C_58
   12  A    between atoms: O_18  and  C_26
   13  A    between atoms: O_18  and  P_51
   14  A    between atoms: C_26  and  C_56
   15  A    between atoms: C_31  and  C_52
   16  A    between atoms: N_32  and  C_61
   17  A    between atoms: O_33  and  C_36
   18  A    between atoms: C_34  and  O_35
   19  A    between atoms: C_34  and  O_54
   20  A    between atoms: C_36  and  C_44
   21  A    between atoms: C_38  and  C_45
   22  A    between atoms: C_40  and  C_53
   23  A    between atoms: P_51  and  O_54
   24  A    between atoms: C_55  and  C_63
                            x       y       z     vdW  Elec       q    Type
                         _______ _______ _______ _____ _____    ______ ____

>  <TORSDO>
F 24

$$$$
=
 OpenBabel11072409523D

 64 70  0  0  1  0  0  0  0  0999 V2000
  161.1060  207.2240  150.8380 C   0  0  2  0  0  3  0  0  0  0  0  0
  162.1210  208.3820  149.2170 C   0  0  0  0  0  0  0  0  0  0  0  0
  162.7850  208.6720  147.9930 N   0  0  0  0  0  1  0  0  0  0  0  0
  161.7480  207.1930  149.5290 N   0  0  0  0  0  0  0  0  0  0  0  0
  160.9470  208.7370  151.1540 C   0  0  2  0  0  3  0  0  0  0  0  0
  161.7560  209.3910  150.1410 N   0  0  0  0  0  2  0  0  0  0  0  0
  159.1390  208.9750  153.4770 O   0  0  0  0  0  0  0  0  0  0  0  0
  162.5510  210.6610  154.4020 C   0  0  0  0  0  2  0  0  0  0  0  0
  160.1150  209.6940  153.3360 C   0  0  0  0  0  0  0  0  0  0  0  0
  161.3190  209.1660  152.5860 C   0  0  2  0  0  3  0  0  0  0  0  0
  160.0980  211.0720  153.9610 C   0  0  2  0  0  0  0  0  0  0  0  0
  161.3880  211.6270  154.5600 C   0  0  1  0  0  3  0  0  0  0  0  0
  160.3110  211.0420  155.4620 C   0  0  0  0  0  2  0  0  0  0  0  0
  162.7580  210.3040  152.6330 S   0  0  0  0  0  0  0  0  0  0  0  0
  159.0210  212.3350  152.0600 C   0  0  0  0  0  3  0  0  0  0  0  0
  157.5760  213.9490  153.8280 C   0  0  0  0  0  3  0  0  0  0  0  0
  159.1400  212.1210  153.4410 C   0  0  0  0  0  0  0  0  0  0  0  0
  157.4730  214.1540  152.4520 C   0  0  0  0  0  3  0  0  0  0  0  0
  158.4070  212.9390  154.3210 C   0  0  0  0  0  3  0  0  0  0  0  0
  158.1930  213.3490  151.5630 C   0  0  0  0  0  0  0  0  0  0  0  0
  158.0700  213.5650  150.1120 C   0  0  0  0  0  0  0  0  0  0  0  0
  159.1410  213.5180  149.3670 C   0  0  0  0  0  0  0  0  0  0  0  0
  160.2050  213.4330  148.6070 C   0  0  0  0  0  0  0  0  0  0  0  0
  161.5130  213.0540  149.2480 C   0  0  1  0  0  3  0  0  0  0  0  0
  162.3760  212.2100  148.3250 C   0  0  0  0  0  2  0  0  0  0  0  0
  162.5180  214.4530  147.3020 C   0  0  0  0  0  1  0  0  0  0  0  0
  162.7640  213.6530  148.5780 C   0  0  1  0  0  3  0  0  0  0  0  0
  159.1880  212.6070  146.5250 C   0  0  0  0  0  3  0  0  0  0  0  0
  160.0710  213.3890  147.1380 C   0  0  0  0  0  3  0  0  0  0  0  0
  159.9980  211.9040  144.4060 N   0  0  0  0  0  0  0  0  0  0  0  0
  159.1100  212.5620  145.0700 C   0  0  0  0  0  3  0  0  0  0  0  0
  159.9500  211.8720  142.9530 C   0  0  0  0  0  2  0  0  0  0  0  0
  161.2930  212.2010  142.3960 C   0  0  0  0  0  3  0  0  0  0  0  0
  161.7310  211.5760  141.4450 O   0  0  0  0  0  0  0  0  0  0  0  0
  156.8320  213.7770  149.4970 O   0  0  0  0  0  0  0  0  0  0  0  0
  156.5990  213.5190  148.1190 C   0  0  0  0  0  1  0  0  0  0  0  0
  161.9430  206.4180  151.8520 C   0  0  0  0  0  2  0  0  0  0  0  0
  161.1110  205.4340  152.6800 C   0  0  2  0  0  3  0  0  0  0  0  0
  161.3420  205.6910  154.1590 C   0  0  0  0  0  1  0  0  0  0  0  0
  161.4500  203.9800  152.3430 C   0  0  1  0  0  3  0  0  0  0  0  0
  160.2670  203.2360  152.2770 O   0  0  0  0  0  0  0  0  0  0  0  0
  159.3030  204.0310  152.8930 C   0  0  0  0  0  1  0  0  0  0  0  0
  162.0950  203.9100  151.1040 O   0  0  0  0  0  0  0  0  0  0  0  0
  159.6490  202.8320  150.3210 O   0  0  0  0  0  0  0  0  0  0  0  0
  161.7230  201.3340  150.8470 O   0  0  0  0  0  1  0  0  0  0  0  0
  161.3330  202.6630  150.2380 P   0  0  2  0  0  0  0  0  0  0  0  0
  161.8200  202.6930  148.5880 O   0  0  0  0  0  0  0  0  0  0  0  0
  161.6240  203.8020  147.7610 C   0  0  0  0  0  0  0  0  0  0  0  0
  161.0690  204.8410  148.2070 O   0  0  0  0  0  0  0  0  0  0  0  0
  163.2210  204.0020  146.0370 O   0  0  0  0  0  0  0  0  0  0  0  0
  162.0250  203.7520  146.3460 C   0  0  0  0  0  0  0  0  0  0  0  0
  161.0660  203.3990  145.2400 C   0  0  2  0  0  3  0  0  0  0  0  0
  160.5670  206.9330  144.1880 C   0  0  0  0  0  2  0  0  0  0  0  0
  160.2560  205.8260  145.1480 C   0  0  0  0  0  2  0  0  0  0  0  0
  161.6990  206.3720  143.3540 C   0  0  1  0  0  3  0  0  0  0  0  0
  160.5960  204.5730  144.3640 C   0  0  1  0  0  3  0  0  0  0  0  0
  161.5700  204.9170  143.3280 N   0  0  0  0  0  2  0  0  0  0  0  0
  161.5210  205.7750  140.9740 C   0  0  0  0  0  2  0  0  0  0  0  0
  162.8810  206.4070  141.1650 C   0  0  0  0  0  2  0  0  0  0  0  0
  161.6850  206.9260  141.9410 C   0  0  0  0  0  3  0  0  0  0  0  0
  159.9910  202.6390  145.7150 O   0  0  0  0  0  0  0  0  0  0  0  0
  160.1250  201.3940  145.0980 C   0  0  0  0  0  2  0  0  0  0  0  0
  161.0700  199.6700  146.5470 C   0  0  0  0  0  2  0  0  0  0  0  0
  161.2830  200.6650  145.6930 C   0  0  0  0  0  3  0  0  0  0  0  0
  1  5  1  0  0  0  0
  1 37  1  1  0  0  0
  2  4  2  0  0  0  0
  2  6  1  0  0  0  0
  3  2  1  0  0  0  0
  4  1  1  0  0  0  0
  5  6  1  6  0  0  0
  5 10  1  0  0  0  0
  9  7  2  0  0  0  0
  9 11  1  0  0  0  0
 10 14  1  6  0  0  0
 10  9  1  0  0  0  0
 11 17  1  6  0  0  0
 11 12  1  0  0  0  0
 11 13  1  0  0  0  0
 12  8  1  6  0  0  0
 12 13  1  0  0  0  0
 14  8  1  0  0  0  0
 15 17  1  0  0  0  0
 16 19  1  0  0  0  0
 17 19  2  0  0  0  0
 18 16  2  0  0  0  0
 20 15  2  0  0  0  0
 20 18  1  0  0  0  0
 21 20  1  0  0  0  0
 22 21  2  0  0  0  0
 23 22  2  0  0  0  0
 24 23  1  6  0  0  0
 25 27  1  0  0  0  0
 25 24  1  0  0  0  0
 27 26  1  6  0  0  0
 27 24  1  0  0  0  0
 28 29  2  0  0  0  0
 29 23  1  0  0  0  0
 30 31  2  0  0  0  0
 31 28  1  0  0  0  0
 32 30  1  0  0  0  0
 33 32  1  0  0  0  0
 34 33  2  0  0  0  0
 35 21  1  0  0  0  0
 36 35  1  0  0  0  0
 37 38  1  0  0  0  0
 38 39  1  1  0  0  0
 40 43  1  6  0  0  0
 40 38  1  0  0  0  0
 41 40  1  0  0  0  0
 41 42  1  0  0  0  0
 46 44  2  1  0  0  0
 46 45  1  0  0  0  0
 46 43  1  0  0  0  0
 47 46  1  0  0  0  0
 48 49  2  0  0  0  0
 48 47  1  0  0  0  0
 50 51  2  0  0  0  0
 51 48  1  0  0  0  0
 52 61  1  1  0  0  0
 52 51  1  0  0  0  0
 53 54  1  0  0  0  0
 55 60  1  6  0  0  0
 55 53  1  0  0  0  0
 56 54  1  0  0  0  0
 56 52  1  1  0  0  0
 57 55  1  0  0  0  0
 57 56  1  0  0  0  0
 58 59  1  0  0  0  0
 58 60  1  0  0  0  0
 59 60  1  0  0  0  0
 62 64  1  0  0  0  0
 62 61  1  0  0  0  0
 64 63  2  0  0  0  0
M  END
>  <MODEL>
3

>  <REMARK>
 VINA RESULT:       1.1      1.238      2.837
  Name = 
  24 active torsions:
  status: ('A' for Active; 'I' for Inactive)
    1  A    between atoms: C_1  and  C_61
    2  A    between atoms: C_2  and  C_6
    3  A    between atoms: C_2  and  C_8
    4  A    between atoms: C_5  and  C_63
    5  A    between atoms: C_7  and  O_33
    6  A    between atoms: C_7  and  C_47
    7  A    between atoms: C_7  and  C_56
    8  A    between atoms: C_8  and  C_34
    9  A    between atoms: O_10  and  C_16
   10  A    between atoms: C_11  and  C_50
   11  A    between atoms: C_16  and  C_58
   12  A    between atoms: O_18  and  C_26
   13  A    between atoms: O_18  and  P_51
   14  A    between atoms: C_26  and  C_56
   15  A    between atoms: C_31  and  C_52
   16  A    between atoms: N_32  and  C_61
   17  A    between atoms: O_33  and  C_36
   18  A    between atoms: C_34  and  O_35
   19  A    between atoms: C_34  and  O_54
   20  A    between atoms: C_36  and  C_44
   21  A    between atoms: C_38  and  C_45
   22  A    between atoms: C_40  and  C_53
   23  A    between atoms: P_51  and  O_54
   24  A    between atoms: C_55  and  C_63
                            x       y       z     vdW  Elec       q    Type
                         _______ _______ _______ _____ _____    ______ ____

>  <TORSDO>
F 24

$$$$
=
 OpenBabel11072409523D

 64 70  0  0  1  0  0  0  0  0999 V2000
  162.4090  205.9730  152.6980 C   0  0  2  0  0  3  0  0  0  0  0  0
  162.5390  206.8160  150.6310 C   0  0  0  0  0  0  0  0  0  0  0  0
  162.7380  207.7480  149.5750 N   0  0  0  0  0  1  0  0  0  0  0  0
  162.6900  207.1370  151.8660 N   0  0  0  0  0  0  0  0  0  0  0  0
  162.2900  204.7970  151.6890 C   0  0  2  0  0  3  0  0  0  0  0  0
  162.2340  205.4540  150.3950 N   0  0  0  0  0  2  0  0  0  0  0  0
  162.3980  201.8490  151.8210 O   0  0  0  0  0  0  0  0  0  0  0  0
  158.6410  202.9290  151.5700 C   0  0  0  0  0  2  0  0  0  0  0  0
  161.4240  202.4460  151.3920 C   0  0  0  0  0  0  0  0  0  0  0  0
  161.1130  203.8300  151.9200 C   0  0  2  0  0  3  0  0  0  0  0  0
  160.5350  201.7540  150.3810 C   0  0  2  0  0  0  0  0  0  0  0  0
  159.0260  201.9760  150.4490 C   0  0  1  0  0  3  0  0  0  0  0  0
  159.6420  200.7000  151.0050 C   0  0  0  0  0  2  0  0  0  0  0  0
  159.5170  204.4980  151.3100 S   0  0  0  0  0  0  0  0  0  0  0  0
  160.5460  202.1230  147.8840 C   0  0  0  0  0  3  0  0  0  0  0  0
  162.4700  200.1310  147.5050 C   0  0  0  0  0  3  0  0  0  0  0  0
  161.0680  201.4490  148.9980 C   0  0  0  0  0  0  0  0  0  0  0  0
  161.9380  200.8060  146.4060 C   0  0  0  0  0  3  0  0  0  0  0  0
  162.0360  200.4480  148.7940 C   0  0  0  0  0  3  0  0  0  0  0  0
  160.9750  201.8040  146.5900 C   0  0  0  0  0  0  0  0  0  0  0  0
  160.4270  202.5200  145.4270 C   0  0  0  0  0  0  0  0  0  0  0  0
  160.8800  203.7090  145.1370 C   0  0  0  0  0  0  0  0  0  0  0  0
  161.3570  204.8860  144.8160 C   0  0  0  0  0  0  0  0  0  0  0  0
  162.5010  205.4380  145.6230 C   0  0  1  0  0  3  0  0  0  0  0  0
  162.1960  206.8210  146.1730 C   0  0  0  0  0  2  0  0  0  0  0  0
  160.7710  205.3570  147.5600 C   0  0  0  0  0  1  0  0  0  0  0  0
  162.2060  205.6390  147.1210 C   0  0  1  0  0  3  0  0  0  0  0  0
  161.9330  205.9790  142.6890 C   0  0  0  0  0  3  0  0  0  0  0  0
  161.0110  205.5040  143.5210 C   0  0  0  0  0  3  0  0  0  0  0  0
  162.4270  206.7410  140.4940 N   0  0  0  0  0  0  0  0  0  0  0  0
  161.5530  206.6160  141.4340 C   0  0  0  0  0  3  0  0  0  0  0  0
  162.0710  207.3980  139.2470 C   0  0  0  0  0  2  0  0  0  0  0  0
  162.7100  206.6880  138.1020 C   0  0  0  0  0  3  0  0  0  0  0  0
  162.6440  205.4730  138.0220 O   0  0  0  0  0  0  0  0  0  0  0  0
  159.4610  201.9460  144.5920 O   0  0  0  0  0  0  0  0  0  0  0  0
  159.1790  200.5530  144.5840 C   0  0  0  0  0  1  0  0  0  0  0  0
  161.1590  206.2350  153.5630 C   0  0  0  0  0  2  0  0  0  0  0  0
  161.3770  207.3040  154.6380 C   0  0  2  0  0  3  0  0  0  0  0  0
  160.9550  206.7590  155.9910 C   0  0  0  0  0  1  0  0  0  0  0  0
  160.6040  208.5880  154.3270 C   0  0  1  0  0  3  0  0  0  0  0  0
  161.4490  209.6880  154.5080 O   0  0  0  0  0  0  0  0  0  0  0  0
  161.5140  209.8730  155.8870 C   0  0  0  0  0  1  0  0  0  0  0  0
  160.1610  208.5750  153.0000 O   0  0  0  0  0  0  0  0  0  0  0  0
  161.1640  209.9630  150.8030 O   0  0  0  0  0  0  0  0  0  0  0  0
  161.5340  210.7860  153.2530 O   0  0  0  0  0  1  0  0  0  0  0  0
  160.5170  210.1090  152.3620 P   0  0  2  0  0  0  0  0  0  0  0  0
  159.0950  211.0750  152.2920 O   0  0  0  0  0  0  0  0  0  0  0  0
  159.1310  212.4680  152.1790 C   0  0  0  0  0  0  0  0  0  0  0  0
  160.0010  213.1370  152.7970 O   0  0  0  0  0  0  0  0  0  0  0  0
  157.2620  213.8880  151.9480 O   0  0  0  0  0  0  0  0  0  0  0  0
  158.1230  213.1710  151.3700 C   0  0  0  0  0  0  0  0  0  0  0  0
  158.0780  213.0830  149.8670 C   0  0  2  0  0  3  0  0  0  0  0  0
  161.6040  214.1830  149.4170 C   0  0  0  0  0  2  0  0  0  0  0  0
  160.2430  214.4440  149.9860 C   0  0  0  0  0  2  0  0  0  0  0  0
  161.5100  212.7590  148.9120 C   0  0  1  0  0  3  0  0  0  0  0  0
  159.3320  213.5850  149.1310 C   0  0  1  0  0  3  0  0  0  0  0  0
  160.1170  212.4900  148.5620 N   0  0  0  0  0  2  0  0  0  0  0  0
  162.8600  213.8720  147.1810 C   0  0  0  0  0  2  0  0  0  0  0  0
  161.7690  213.1120  146.4620 C   0  0  0  0  0  2  0  0  0  0  0  0
  162.4070  212.5290  147.7090 C   0  0  0  0  0  3  0  0  0  0  0  0
  156.9070  213.6540  149.3540 O   0  0  0  0  0  0  0  0  0  0  0  0
  157.1250  213.7550  147.9790 C   0  0  0  0  0  2  0  0  0  0  0  0
  157.1130  212.2370  146.0660 C   0  0  0  0  0  2  0  0  0  0  0  0
  157.1920  212.3890  147.3830 C   0  0  0  0  0  3  0  0  0  0  0  0
  1 37  1  6  0  0  0
  2  4  2  0  0  0  0
  3  2  1  0  0  0  0
  4  1  1  0  0  0  0
  5  6  1  6  0  0  0
  5 10  1  0  0  0  0
  5  1  1  0  0  0  0
  6  2  1  0  0  0  0
  9  7  2  0  0  0  0
  9 10  1  0  0  0  0
 10 14  1  6  0  0  0
 11 17  1  6  0  0  0
 11 12  1  0  0  0  0
 11 13  1  0  0  0  0
 11  9  1  0  0  0  0
 12 13  1  1  0  0  0
 12  8  1  0  0  0  0
 14  8  1  0  0  0  0
 15 17  1  0  0  0  0
 16 19  1  0  0  0  0
 18 20  1  0  0  0  0
 18 16  2  0  0  0  0
 19 17  2  0  0  0  0
 20 15  2  0  0  0  0
 21 20  1  0  0  0  0
 22 21  2  0  0  0  0
 23 22  2  0  0  0  0
 24 23  1  6  0  0  0
 24 25  1  0  0  0  0
 24 27  1  0  0  0  0
 25 27  1  0  0  0  0
 27 26  1  6  0  0  0
 28 29  2  0  0  0  0
 29 23  1  0  0  0  0
 30 31  2  0  0  0  0
 31 28  1  0  0  0  0
 32 30  1  0  0  0  0
 33 32  1  0  0  0  0
 34 33  2  0  0  0  0
 35 21  1  0  0  0  0
 36 35  1  0  0  0  0
 37 38  1  0  0  0  0
 38 39  1  1  0  0  0
 40 43  1  6  0  0  0
 40 41  1  0  0  0  0
 40 38  1  0  0  0  0
 41 42  1  0  0  0  0
 46 44  2  6  0  0  0
 46 43  1  0  0  0  0
 46 45  1  0  0  0  0
 47 46  1  0  0  0  0
 48 47  1  0  0  0  0
 48 49  2  0  0  0  0
 51 50  2  0  0  0  0
 51 48  1  0  0  0  0
 52 61  1  6  0  0  0
 52 51  1  0  0  0  0
 53 54  1  0  0  0  0
 55 60  1  6  0  0  0
 55 53  1  0  0  0  0
 56 52  1  1  0  0  0
 56 54  1  0  0  0  0
 57 55  1  0  0  0  0
 57 56  1  0  0  0  0
 58 60  1  0  0  0  0
 59 58  1  0  0  0  0
 59 60  1  0  0  0  0
 62 61  1  0  0  0  0
 63 64  2  0  0  0  0
 64 62  1  0  0  0  0
M  END
>  <MODEL>
4

>  <REMARK>
 VINA RESULT:       2.6      2.880      9.835
  Name = 
  24 active torsions:
  status: ('A' for Active; 'I' for Inactive)
    1  A    between atoms: C_1  and  C_61
    2  A    between atoms: C_2  and  C_6
    3  A    between atoms: C_2  and  C_8
    4  A    between atoms: C_5  and  C_63
    5  A    between atoms: C_7  and  O_33
    6  A    between atoms: C_7  and  C_47
    7  A    between atoms: C_7  and  C_56
    8  A    between atoms: C_8  and  C_34
    9  A    between atoms: O_10  and  C_16
   10  A    between atoms: C_11  and  C_50
   11  A    between atoms: C_16  and  C_58
   12  A    between atoms: O_18  and  C_26
   13  A    between atoms: O_18  and  P_51
   14  A    between atoms: C_26  and  C_56
   15  A    between atoms: C_31  and  C_52
   16  A    between atoms: N_32  and  C_61
   17  A    between atoms: O_33  and  C_36
   18  A    between atoms: C_34  and  O_35
   19  A    between atoms: C_34  and  O_54
   20  A    between atoms: C_36  and  C_44
   21  A    between atoms: C_38  and  C_45
   22  A    between atoms: C_40  and  C_53
   23  A    between atoms: P_51  and  O_54
   24  A    between atoms: C_55  and  C_63
                            x       y       z     vdW  Elec       q    Type
                         _______ _______ _______ _____ _____    ______ ____

>  <TORSDO>
F 24

$$$$
