=
 OpenBabel11072410113D

 43 49  0  0  1  0  0  0  0  0999 V2000
  160.9080  208.6700  150.4350 C   0  0  0  0  0  2  0  0  0  0  0  0
  162.8810  207.7540  151.5550 C   0  0  0  0  0  2  0  0  0  0  0  0
  161.1910  207.7600  153.4150 C   0  0  0  0  0  0  0  0  0  0  0  0
  162.0570  206.8990  149.6010 O   0  0  0  0  0  1  0  0  0  0  0  0
  160.3860  209.7710  154.7570 C   0  0  2  0  0  3  0  0  0  0  0  0
  161.0150  209.8770  151.1330 O   0  0  0  0  0  0  0  0  0  0  0  0
  161.0650  205.5790  154.0890 C   0  0  0  0  0  3  0  0  0  0  0  0
  159.6140  207.1120  155.4090 C   0  0  0  0  0  2  0  0  0  0  0  0
  160.6150  206.7970  154.3460 C   0  0  0  0  0  0  0  0  0  0  0  0
  162.2280  208.0620  150.2710 N   0  0  0  0  0  0  0  0  0  0  0  0
  162.0140  205.6420  152.9280 C   0  0  2  0  0  3  0  0  0  0  0  0
  160.1900  209.7250  152.2510 C   0  0  0  0  0  2  0  0  0  0  0  0
  161.0300  209.1320  155.9030 N   0  0  0  0  0  2  0  0  0  0  0  0
  161.9800  207.1010  152.5740 C   0  0  0  0  0  0  0  0  0  0  0  0
  160.1500  208.1000  156.4570 C   0  0  0  0  0  2  0  0  0  0  0  0
  161.0130  209.2640  153.4510 C   0  0  2  0  0  3  0  0  0  0  0  0
  160.7490  203.1040  149.7100 C   0  0  0  0  0  0  0  0  0  0  0  0
  161.7090  202.7160  150.5950 N   0  0  0  0  0  0  0  0  0  0  0  0
  162.1120  203.5130  151.6200 C   0  0  0  0  0  3  0  0  0  0  0  0
  160.5550  205.2030  150.9000 C   0  0  0  0  0  3  0  0  0  0  0  0
  160.1570  204.3720  149.8540 C   0  0  0  0  0  3  0  0  0  0  0  0
  161.5420  204.7760  151.7970 C   0  0  0  0  0  0  0  0  0  0  0  0
  161.5860  201.2790  148.2300 C   0  0  1  0  0  3  0  0  0  0  0  0
  161.9580  203.4970  147.2070 O   0  0  0  0  0  1  0  0  0  0  0  0
  160.4080  200.6840  148.9790 C   0  0  0  0  0  2  0  0  0  0  0  0
  161.1290  202.3730  147.2950 C   0  0  2  0  0  0  0  0  0  0  0  0
  160.3760  202.1520  148.5940 C   0  0  1  0  0  0  0  0  0  0  0  0
  160.8340  202.8130  145.1980 O   0  0  0  0  0  1  0  0  0  0  0  0
  160.4620  201.9640  146.1340 O   0  0  0  0  0  0  0  0  0  0  0  0
  160.5510  211.2820  154.8630 C   0  0  0  0  0  2  0  0  0  0  0  0
  159.2900  211.9320  155.4210 C   0  0  2  0  0  3  0  0  0  0  0  0
  158.0690  211.0390  155.2520 C   0  0  0  0  0  1  0  0  0  0  0  0
  159.0680  213.3140  154.8500 C   0  0  0  0  0  0  0  0  0  0  0  0
  159.2820  214.4320  155.5670 C   0  0  0  0  0  3  0  0  0  0  0  0
  157.1790  213.7760  149.4310 C   0  0  0  0  0  1  0  0  0  0  0  0
  158.9940  213.2560  151.0610 C   0  0  0  0  0  3  0  0  0  0  0  0
  157.2730  213.8260  153.1580 C   0  0  0  0  0  3  0  0  0  0  0  0
  157.6780  213.6530  150.8240 C   0  0  0  0  0  0  0  0  0  0  0  0
  156.8520  213.9290  151.8690 N   0  0  0  0  0  0  0  0  0  0  0  0
  158.5880  213.4300  153.4500 C   0  0  0  0  0  0  0  0  0  0  0  0
  159.4460  213.1460  152.3770 C   0  0  0  0  0  3  0  0  0  0  0  0
  160.9440  213.9780  157.2610 C   0  0  0  0  0  2  0  0  0  0  0  0
  159.7440  214.4450  156.9570 C   0  0  0  0  0  3  0  0  0  0  0  0
  1  6  1  0  0  0  0
  2 14  1  0  0  0  0
  3 16  1  0  0  0  0
  3  9  1  0  0  0  0
  4 10  1  0  0  0  0
  5 30  1  1  0  0  0
  5 13  1  0  0  0  0
  6 12  1  0  0  0  0
  7  9  2  0  0  0  0
  8 15  1  0  0  0  0
  9  8  1  0  0  0  0
 10  1  1  0  0  0  0
 10  2  1  0  0  0  0
 11 22  1  6  0  0  0
 11  7  1  0  0  0  0
 13 15  1  0  0  0  0
 14 11  1  0  0  0  0
 14  3  2  0  0  0  0
 16 12  1  6  0  0  0
 16  5  1  0  0  0  0
 17 21  2  0  0  0  0
 17 18  1  0  0  0  0
 18 19  2  0  0  0  0
 19 22  1  0  0  0  0
 20 22  2  0  0  0  0
 21 20  1  0  0  0  0
 23 27  1  0  0  0  0
 23 25  1  6  0  0  0
 26 24  1  6  0  0  0
 26 23  1  0  0  0  0
 26 27  1  0  0  0  0
 27 25  1  0  0  0  0
 27 17  1  1  0  0  0
 28 29  1  0  0  0  0
 29 26  1  0  0  0  0
 30 31  1  0  0  0  0
 31 32  1  6  0  0  0
 33 31  1  0  0  0  0
 33 34  2  0  0  0  0
 34 43  1  0  0  0  0
 35 38  1  0  0  0  0
 36 41  1  0  0  0  0
 37 40  1  0  0  0  0
 38 36  2  0  0  0  0
 38 39  1  0  0  0  0
 39 37  2  0  0  0  0
 40 33  1  0  0  0  0
 41 40  2  0  0  0  0
 43 42  2  0  0  0  0
M  END
>  <MODEL>
1

>  <REMARK>
 VINA RESULT:      -6.7      0.000      0.000
  Name = 
  8 active torsions:
  status: ('A' for Active; 'I' for Inactive)
    1  A    between atoms: C_9  and  C_11
    2  A    between atoms: C_9  and  C_16
    3  A    between atoms: C_16  and  C_18
    4  A    between atoms: C_18  and  C_35
    5  A    between atoms: C_22  and  C_40
    6  A    between atoms: C_24  and  C_26
    7  A    between atoms: C_25  and  O_43
    8  A    between atoms: C_27  and  C_39
                            x       y       z     vdW  Elec       q    Type
                         _______ _______ _______ _____ _____    ______ ____

>  <TORSDO>
F 8

$$$$
=
 OpenBabel11072410113D

 43 49  0  0  1  0  0  0  0  0999 V2000
  161.1980  208.6190  150.3400 C   0  0  0  0  0  2  0  0  0  0  0  0
  163.0160  207.6290  151.6450 C   0  0  0  0  0  2  0  0  0  0  0  0
  161.2220  207.8970  153.3840 C   0  0  0  0  0  0  0  0  0  0  0  0
  162.2430  206.7090  149.7000 O   0  0  0  0  0  1  0  0  0  0  0  0
  160.5090  210.0550  154.5390 C   0  0  2  0  0  3  0  0  0  0  0  0
  161.3630  209.8600  150.9650 O   0  0  0  0  0  0  0  0  0  0  0  0
  160.8730  205.7860  154.1870 C   0  0  0  0  0  3  0  0  0  0  0  0
  159.4780  207.5170  155.3070 C   0  0  0  0  0  2  0  0  0  0  0  0
  160.5120  207.0500  154.3350 C   0  0  0  0  0  0  0  0  0  0  0  0
  162.4700  207.8990  150.3040 N   0  0  0  0  0  0  0  0  0  0  0  0
  161.8940  205.6930  153.0900 C   0  0  2  0  0  3  0  0  0  0  0  0
  160.4620  209.8510  152.0330 C   0  0  0  0  0  2  0  0  0  0  0  0
  161.0250  209.4470  155.7630 N   0  0  0  0  0  2  0  0  0  0  0  0
  162.0030  207.1210  152.6420 C   0  0  0  0  0  0  0  0  0  0  0  0
  160.0310  208.5290  156.3230 C   0  0  0  0  0  2  0  0  0  0  0  0
  161.1690  209.4110  153.3130 C   0  0  2  0  0  3  0  0  0  0  0  0
  160.6230  203.0510  149.9590 C   0  0  0  0  0  0  0  0  0  0  0  0
  161.5490  202.6740  150.8840 N   0  0  0  0  0  0  0  0  0  0  0  0
  161.9540  203.5040  151.8820 C   0  0  0  0  0  3  0  0  0  0  0  0
  160.4680  205.2070  151.0480 C   0  0  0  0  0  3  0  0  0  0  0  0
  160.0690  204.3410  150.0310 C   0  0  0  0  0  3  0  0  0  0  0  0
  161.4200  204.7900  151.9870 C   0  0  0  0  0  0  0  0  0  0  0  0
  161.4340  201.1330  148.5850 C   0  0  1  0  0  3  0  0  0  0  0  0
  161.9050  203.2870  147.4730 O   0  0  0  0  0  1  0  0  0  0  0  0
  160.2190  200.6120  149.3300 C   0  0  0  0  0  2  0  0  0  0  0  0
  161.0370  202.1960  147.5900 C   0  0  2  0  0  0  0  0  0  0  0  0
  160.2450  202.0600  148.8780 C   0  0  1  0  0  0  0  0  0  0  0  0
  160.8010  202.5540  145.4700 O   0  0  0  0  0  1  0  0  0  0  0  0
  160.3850  201.7560  146.4320 O   0  0  0  0  0  0  0  0  0  0  0  0
  160.7930  211.5510  154.5580 C   0  0  0  0  0  2  0  0  0  0  0  0
  159.7270  212.3000  155.3520 C   0  0  2  0  0  3  0  0  0  0  0  0
  159.5820  211.7510  156.7640 C   0  0  0  0  0  1  0  0  0  0  0  0
  158.4060  212.3440  154.6200 C   0  0  0  0  0  0  0  0  0  0  0  0
  158.2840  212.8710  153.3880 C   0  0  0  0  0  3  0  0  0  0  0  0
  153.7470  210.2300  157.2610 C   0  0  0  0  0  1  0  0  0  0  0  0
  155.4720  210.0990  155.4620 C   0  0  0  0  0  3  0  0  0  0  0  0
  156.6400  212.4250  156.4150 C   0  0  0  0  0  3  0  0  0  0  0  0
  154.9490  210.7650  156.5710 C   0  0  0  0  0  0  0  0  0  0  0  0
  155.5380  211.9060  157.0200 N   0  0  0  0  0  0  0  0  0  0  0  0
  157.2050  211.7930  155.2950 C   0  0  0  0  0  0  0  0  0  0  0  0
  156.6000  210.6170  154.8270 C   0  0  0  0  0  3  0  0  0  0  0  0
  159.4900  213.2270  151.3250 C   0  0  0  0  0  2  0  0  0  0  0  0
  159.3910  213.4530  152.6250 C   0  0  0  0  0  3  0  0  0  0  0  0
  1  6  1  0  0  0  0
  2 14  1  0  0  0  0
  3  9  1  0  0  0  0
  4 10  1  0  0  0  0
  5 30  1  1  0  0  0
  5 13  1  0  0  0  0
  6 12  1  0  0  0  0
  7  9  2  0  0  0  0
  8 15  1  0  0  0  0
  9  8  1  0  0  0  0
 10  1  1  0  0  0  0
 10  2  1  0  0  0  0
 11 22  1  6  0  0  0
 11  7  1  0  0  0  0
 13 15  1  0  0  0  0
 14 11  1  0  0  0  0
 14  3  2  0  0  0  0
 16 12  1  6  0  0  0
 16  3  1  0  0  0  0
 16  5  1  0  0  0  0
 17 21  2  0  0  0  0
 17 18  1  0  0  0  0
 18 19  2  0  0  0  0
 19 22  1  0  0  0  0
 20 22  2  0  0  0  0
 21 20  1  0  0  0  0
 23 27  1  0  0  0  0
 23 25  1  6  0  0  0
 26 24  1  6  0  0  0
 26 23  1  0  0  0  0
 26 27  1  0  0  0  0
 27 25  1  0  0  0  0
 27 17  1  1  0  0  0
 28 29  1  0  0  0  0
 29 26  1  0  0  0  0
 30 31  1  0  0  0  0
 31 32  1  1  0  0  0
 33 40  1  0  0  0  0
 33 31  1  0  0  0  0
 34 33  2  0  0  0  0
 36 38  1  0  0  0  0
 37 39  1  0  0  0  0
 38 39  2  0  0  0  0
 38 35  1  0  0  0  0
 40 37  2  0  0  0  0
 41 40  1  0  0  0  0
 41 36  2  0  0  0  0
 42 43  2  0  0  0  0
 43 34  1  0  0  0  0
M  END
>  <MODEL>
2

>  <REMARK>
 VINA RESULT:      -6.3      1.461      2.753
  Name = 
  8 active torsions:
  status: ('A' for Active; 'I' for Inactive)
    1  A    between atoms: C_9  and  C_11
    2  A    between atoms: C_9  and  C_16
    3  A    between atoms: C_16  and  C_18
    4  A    between atoms: C_18  and  C_35
    5  A    between atoms: C_22  and  C_40
    6  A    between atoms: C_24  and  C_26
    7  A    between atoms: C_25  and  O_43
    8  A    between atoms: C_27  and  C_39
                            x       y       z     vdW  Elec       q    Type
                         _______ _______ _______ _____ _____    ______ ____

>  <TORSDO>
F 8

$$$$
=
 OpenBabel11072410113D

 43 49  0  0  1  0  0  0  0  0999 V2000
  161.2040  208.5880  150.3310 C   0  0  0  0  0  2  0  0  0  0  0  0
  163.0120  207.6150  151.6610 C   0  0  0  0  0  2  0  0  0  0  0  0
  161.2060  207.9050  153.3840 C   0  0  0  0  0  0  0  0  0  0  0  0
  162.2530  206.6690  149.7220 O   0  0  0  0  0  1  0  0  0  0  0  0
  160.4850  210.0780  154.5060 C   0  0  2  0  0  3  0  0  0  0  0  0
  161.3650  209.8360  150.9400 O   0  0  0  0  0  0  0  0  0  0  0  0
  160.8520  205.8040  154.2110 C   0  0  0  0  0  3  0  0  0  0  0  0
  159.4490  207.5500  155.2990 C   0  0  0  0  0  2  0  0  0  0  0  0
  160.4900  207.0700  154.3410 C   0  0  0  0  0  0  0  0  0  0  0  0
  162.4760  207.8670  150.3120 N   0  0  0  0  0  0  0  0  0  0  0  0
  161.8800  205.6970  153.1230 C   0  0  2  0  0  3  0  0  0  0  0  0
  160.4560  209.8410  152.0020 C   0  0  0  0  0  2  0  0  0  0  0  0
  160.9930  209.4860  155.7410 N   0  0  0  0  0  2  0  0  0  0  0  0
  161.9920  207.1200  152.6570 C   0  0  0  0  0  0  0  0  0  0  0  0
  159.9940  208.5750  156.3060 C   0  0  0  0  0  2  0  0  0  0  0  0
  161.1540  209.4170  153.2920 C   0  0  2  0  0  3  0  0  0  0  0  0
  160.6310  203.0150  150.0180 C   0  0  0  0  0  0  0  0  0  0  0  0
  161.5600  202.6550  150.9460 N   0  0  0  0  0  0  0  0  0  0  0  0
  161.9580  203.4970  151.9360 C   0  0  0  0  0  3  0  0  0  0  0  0
  160.4590  205.1800  151.0860 C   0  0  0  0  0  3  0  0  0  0  0  0
  160.0670  204.3010  150.0770 C   0  0  0  0  0  3  0  0  0  0  0  0
  161.4140  204.7800  152.0290 C   0  0  0  0  0  0  0  0  0  0  0  0
  161.4980  201.1860  148.5590 C   0  0  1  0  0  3  0  0  0  0  0  0
  161.7220  203.3850  147.4570 O   0  0  0  0  0  1  0  0  0  0  0  0
  160.3810  200.5590  149.3720 C   0  0  0  0  0  2  0  0  0  0  0  0
  160.9520  202.2270  147.6110 C   0  0  2  0  0  0  0  0  0  0  0  0
  160.2620  202.0110  148.9460 C   0  0  1  0  0  0  0  0  0  0  0  0
  160.8510  202.3080  145.4530 O   0  0  0  0  0  1  0  0  0  0  0  0
  160.2620  201.7500  146.4910 O   0  0  0  0  0  0  0  0  0  0  0  0
  160.7690  211.5740  154.5070 C   0  0  0  0  0  2  0  0  0  0  0  0
  159.5200  212.3680  154.8760 C   0  0  2  0  0  3  0  0  0  0  0  0
  159.0470  212.0550  156.2890 C   0  0  0  0  0  1  0  0  0  0  0  0
  158.4200  212.1920  153.8560 C   0  0  0  0  0  0  0  0  0  0  0  0
  157.2850  211.5220  154.1290 C   0  0  0  0  0  3  0  0  0  0  0  0
  159.1270  214.4530  148.6080 C   0  0  0  0  0  1  0  0  0  0  0  0
  160.0780  213.5650  150.7370 C   0  0  0  0  0  3  0  0  0  0  0  0
  157.5160  213.0990  151.6860 C   0  0  0  0  0  3  0  0  0  0  0  0
  158.9580  213.8690  149.9640 C   0  0  0  0  0  0  0  0  0  0  0  0
  157.7100  213.6330  150.4500 N   0  0  0  0  0  0  0  0  0  0  0  0
  158.6100  212.7750  152.5030 C   0  0  0  0  0  0  0  0  0  0  0  0
  159.9000  213.0180  152.0080 C   0  0  0  0  0  3  0  0  0  0  0  0
  155.7400  210.5770  155.7270 C   0  0  0  0  0  2  0  0  0  0  0  0
  156.9870  210.8960  155.4180 C   0  0  0  0  0  3  0  0  0  0  0  0
  1  6  1  0  0  0  0
  2 14  1  0  0  0  0
  3  9  1  0  0  0  0
  4 10  1  0  0  0  0
  5 30  1  1  0  0  0
  5 13  1  0  0  0  0
  6 12  1  0  0  0  0
  7  9  2  0  0  0  0
  8 15  1  0  0  0  0
  9  8  1  0  0  0  0
 10  1  1  0  0  0  0
 10  2  1  0  0  0  0
 11 22  1  6  0  0  0
 11  7  1  0  0  0  0
 13 15  1  0  0  0  0
 14 11  1  0  0  0  0
 14  3  2  0  0  0  0
 16 12  1  6  0  0  0
 16  3  1  0  0  0  0
 16  5  1  0  0  0  0
 17 21  2  0  0  0  0
 17 18  1  0  0  0  0
 18 19  2  0  0  0  0
 19 22  1  0  0  0  0
 20 22  2  0  0  0  0
 21 20  1  0  0  0  0
 23 27  1  0  0  0  0
 23 25  1  6  0  0  0
 26 24  1  6  0  0  0
 26 23  1  0  0  0  0
 26 27  1  0  0  0  0
 27 25  1  0  0  0  0
 27 17  1  1  0  0  0
 28 29  1  0  0  0  0
 29 26  1  0  0  0  0
 30 31  1  0  0  0  0
 31 32  1  1  0  0  0
 33 34  2  0  0  0  0
 33 31  1  0  0  0  0
 34 43  1  0  0  0  0
 35 38  1  0  0  0  0
 36 41  1  0  0  0  0
 37 40  1  0  0  0  0
 38 39  1  0  0  0  0
 38 36  2  0  0  0  0
 39 37  2  0  0  0  0
 40 33  1  0  0  0  0
 41 40  2  0  0  0  0
 43 42  2  0  0  0  0
M  END
>  <MODEL>
3

>  <REMARK>
 VINA RESULT:      -5.9      0.960      1.557
  Name = 
  8 active torsions:
  status: ('A' for Active; 'I' for Inactive)
    1  A    between atoms: C_9  and  C_11
    2  A    between atoms: C_9  and  C_16
    3  A    between atoms: C_16  and  C_18
    4  A    between atoms: C_18  and  C_35
    5  A    between atoms: C_22  and  C_40
    6  A    between atoms: C_24  and  C_26
    7  A    between atoms: C_25  and  O_43
    8  A    between atoms: C_27  and  C_39
                            x       y       z     vdW  Elec       q    Type
                         _______ _______ _______ _____ _____    ______ ____

>  <TORSDO>
F 8

$$$$
=
 OpenBabel11072410113D

 43 49  0  0  1  0  0  0  0  0999 V2000
  159.4430  207.7190  155.3500 C   0  0  0  0  0  2  0  0  0  0  0  0
  161.6160  208.8250  155.5500 C   0  0  0  0  0  2  0  0  0  0  0  0
  161.3640  208.6370  153.0570 C   0  0  0  0  0  0  0  0  0  0  0  0
  159.7300  209.6020  156.5830 O   0  0  0  0  0  1  0  0  0  0  0  0
  161.6730  206.5460  151.6320 C   0  0  2  0  0  3  0  0  0  0  0  0
  160.0370  206.5250  154.9290 O   0  0  0  0  0  0  0  0  0  0  0  0
  161.4910  210.7900  152.2990 C   0  0  0  0  0  3  0  0  0  0  0  0
  161.2300  209.1100  150.4800 C   0  0  0  0  0  2  0  0  0  0  0  0
  161.3790  209.5310  151.9050 C   0  0  0  0  0  0  0  0  0  0  0  0
  160.3560  208.4580  156.2200 N   0  0  0  0  0  0  0  0  0  0  0  0
  161.5690  210.8300  153.7970 C   0  0  2  0  0  3  0  0  0  0  0  0
  160.0270  206.5860  153.5320 C   0  0  0  0  0  2  0  0  0  0  0  0
  162.8170  207.2410  151.0470 N   0  0  0  0  0  2  0  0  0  0  0  0
  161.4460  209.3780  154.1560 C   0  0  0  0  0  0  0  0  0  0  0  0
  162.3600  208.1760  150.0160 C   0  0  0  0  0  2  0  0  0  0  0  0
  161.3610  207.1220  153.0200 C   0  0  2  0  0  3  0  0  0  0  0  0
  158.3340  213.1800  155.3500 C   0  0  0  0  0  0  0  0  0  0  0  0
  158.2900  212.6340  154.1030 N   0  0  0  0  0  0  0  0  0  0  0  0
  159.3100  211.8840  153.6050 C   0  0  0  0  0  3  0  0  0  0  0  0
  160.5260  212.2020  155.6590 C   0  0  0  0  0  3  0  0  0  0  0  0
  159.4710  212.9700  156.1500 C   0  0  0  0  0  3  0  0  0  0  0  0
  160.4510  211.6500  154.3740 C   0  0  0  0  0  0  0  0  0  0  0  0
  156.3750  213.2500  156.8930 C   0  0  1  0  0  3  0  0  0  0  0  0
  155.7610  212.2500  154.7190 O   0  0  0  0  0  1  0  0  0  0  0  0
  157.2230  214.4530  157.2610 C   0  0  0  0  0  2  0  0  0  0  0  0
  155.7970  213.4060  155.5070 C   0  0  2  0  0  0  0  0  0  0  0  0
  157.1550  214.0100  155.8100 C   0  0  1  0  0  0  0  0  0  0  0  0
  154.3350  214.1950  154.1230 O   0  0  0  0  0  1  0  0  0  0  0  0
  154.7460  214.3210  155.3680 O   0  0  0  0  0  0  0  0  0  0  0  0
  161.9870  205.0600  151.7420 C   0  0  0  0  0  2  0  0  0  0  0  0
  160.8700  204.2190  151.1330 C   0  0  2  0  0  3  0  0  0  0  0  0
  160.1150  203.4280  152.1920 C   0  0  0  0  0  1  0  0  0  0  0  0
  161.3750  203.3360  150.0160 C   0  0  0  0  0  0  0  0  0  0  0  0
  161.8690  202.1040  150.2390 C   0  0  0  0  0  3  0  0  0  0  0  0
  161.2030  205.3330  144.6180 C   0  0  0  0  0  1  0  0  0  0  0  0
  161.1940  205.7280  147.0820 C   0  0  0  0  0  3  0  0  0  0  0  0
  161.3810  202.9970  147.5190 C   0  0  0  0  0  3  0  0  0  0  0  0
  161.2470  204.8300  146.0150 C   0  0  0  0  0  0  0  0  0  0  0  0
  161.3380  203.4940  146.2540 N   0  0  0  0  0  0  0  0  0  0  0  0
  161.3300  203.8590  148.6270 C   0  0  0  0  0  0  0  0  0  0  0  0
  161.2350  205.2370  148.3870 C   0  0  0  0  0  3  0  0  0  0  0  0
  163.1630  201.1720  152.0530 C   0  0  0  0  0  2  0  0  0  0  0  0
  161.9750  201.4850  151.5620 C   0  0  0  0  0  3  0  0  0  0  0  0
  1 10  1  0  0  0  0
  2 10  1  0  0  0  0
  3 14  2  0  0  0  0
  5 30  1  1  0  0  0
  5 16  1  0  0  0  0
  6  1  1  0  0  0  0
  7 11  1  0  0  0  0
  8  9  1  0  0  0  0
  9  7  2  0  0  0  0
  9  3  1  0  0  0  0
 10  4  1  0  0  0  0
 11 14  1  0  0  0  0
 11 22  1  1  0  0  0
 12  6  1  0  0  0  0
 13  5  1  0  0  0  0
 14  2  1  0  0  0  0
 15  8  1  0  0  0  0
 15 13  1  0  0  0  0
 16  3  1  0  0  0  0
 16 12  1  6  0  0  0
 17 21  1  0  0  0  0
 18 17  2  0  0  0  0
 19 18  1  0  0  0  0
 19 22  2  0  0  0  0
 20 21  2  0  0  0  0
 22 20  1  0  0  0  0
 23 25  1  1  0  0  0
 26 24  1  6  0  0  0
 26 27  1  0  0  0  0
 26 23  1  0  0  0  0
 27 17  1  6  0  0  0
 27 23  1  0  0  0  0
 27 25  1  0  0  0  0
 28 29  1  0  0  0  0
 29 26  1  0  0  0  0
 31 30  1  0  0  0  0
 31 32  1  1  0  0  0
 33 34  2  0  0  0  0
 33 31  1  0  0  0  0
 34 43  1  0  0  0  0
 35 38  1  0  0  0  0
 36 41  1  0  0  0  0
 37 40  1  0  0  0  0
 38 39  1  0  0  0  0
 38 36  2  0  0  0  0
 39 37  2  0  0  0  0
 40 33  1  0  0  0  0
 41 40  2  0  0  0  0
 43 42  2  0  0  0  0
M  END
>  <MODEL>
4

>  <REMARK>
 VINA RESULT:      -4.5      3.348     10.070
  Name = 
  8 active torsions:
  status: ('A' for Active; 'I' for Inactive)
    1  A    between atoms: C_9  and  C_11
    2  A    between atoms: C_9  and  C_16
    3  A    between atoms: C_16  and  C_18
    4  A    between atoms: C_18  and  C_35
    5  A    between atoms: C_22  and  C_40
    6  A    between atoms: C_24  and  C_26
    7  A    between atoms: C_25  and  O_43
    8  A    between atoms: C_27  and  C_39
                            x       y       z     vdW  Elec       q    Type
                         _______ _______ _______ _____ _____    ______ ____

>  <TORSDO>
F 8

$$$$
=
 OpenBabel11072410113D

 43 49  0  0  1  0  0  0  0  0999 V2000
  160.0840  206.1340  153.2550 C   0  0  0  0  0  2  0  0  0  0  0  0
  162.3680  206.9900  153.4290 C   0  0  0  0  0  2  0  0  0  0  0  0
  161.8460  207.4090  151.0070 C   0  0  0  0  0  0  0  0  0  0  0  0
  160.6880  207.6500  154.8330 O   0  0  0  0  0  1  0  0  0  0  0  0
  161.7910  205.6910  149.1250 C   0  0  2  0  0  3  0  0  0  0  0  0
  160.5050  205.0280  152.5090 O   0  0  0  0  0  0  0  0  0  0  0  0
  162.1170  209.6630  150.7380 C   0  0  0  0  0  3  0  0  0  0  0  0
  161.5010  208.4780  148.6360 C   0  0  0  0  0  2  0  0  0  0  0  0
  161.8360  208.5430  150.0900 C   0  0  0  0  0  0  0  0  0  0  0  0
  161.1520  206.5770  154.1500 N   0  0  0  0  0  0  0  0  0  0  0  0
  162.3510  209.3470  152.1860 C   0  0  2  0  0  3  0  0  0  0  0  0
  160.3590  205.4140  151.1740 C   0  0  0  0  0  2  0  0  0  0  0  0
  162.9350  206.4120  148.5740 N   0  0  0  0  0  2  0  0  0  0  0  0
  162.1160  207.8640  152.2250 C   0  0  0  0  0  0  0  0  0  0  0  0
  162.4740  207.5940  147.8410 C   0  0  0  0  0  2  0  0  0  0  0  0
  161.6830  205.9490  150.6340 C   0  0  2  0  0  3  0  0  0  0  0  0
  159.6720  211.4720  154.7740 C   0  0  0  0  0  0  0  0  0  0  0  0
  160.9730  211.2540  155.1110 N   0  0  0  0  0  0  0  0  0  0  0  0
  161.8300  210.5860  154.2940 C   0  0  0  0  0  3  0  0  0  0  0  0
  160.0550  210.2990  152.6920 C   0  0  0  0  0  3  0  0  0  0  0  0
  159.1920  210.9850  153.5450 C   0  0  0  0  0  3  0  0  0  0  0  0
  161.3890  210.0940  153.0640 C   0  0  0  0  0  0  0  0  0  0  0  0
  158.6900  211.4230  157.0670 C   0  0  1  0  0  3  0  0  0  0  0  0
  157.1980  210.3210  155.4360 O   0  0  0  0  0  1  0  0  0  0  0  0
  159.5070  212.7000  157.0040 C   0  0  0  0  0  2  0  0  0  0  0  0
  157.5090  211.4960  156.1290 C   0  0  2  0  0  0  0  0  0  0  0  0
  158.7920  212.2160  155.7560 C   0  0  1  0  0  0  0  0  0  0  0  0
  155.3590  211.7240  156.0810 O   0  0  0  0  0  1  0  0  0  0  0  0
  156.4470  212.3190  156.5240 O   0  0  0  0  0  0  0  0  0  0  0  0
  161.9580  204.2000  148.8620 C   0  0  0  0  0  2  0  0  0  0  0  0
  160.6840  203.6010  148.2770 C   0  0  2  0  0  3  0  0  0  0  0  0
  160.1930  202.4110  149.0880 C   0  0  0  0  0  1  0  0  0  0  0  0
  160.8410  203.2660  146.8120 C   0  0  0  0  0  0  0  0  0  0  0  0
  160.8910  204.2130  145.8580 C   0  0  0  0  0  3  0  0  0  0  0  0
  161.1820  197.7300  145.2650 C   0  0  0  0  0  1  0  0  0  0  0  0
  161.6860  199.5720  146.8700 C   0  0  0  0  0  3  0  0  0  0  0  0
  160.3610  201.3670  145.2260 C   0  0  0  0  0  3  0  0  0  0  0  0
  161.1010  199.1560  145.6750 C   0  0  0  0  0  0  0  0  0  0  0  0
  160.4560  200.0540  144.8830 N   0  0  0  0  0  0  0  0  0  0  0  0
  160.9330  201.8360  146.4190 C   0  0  0  0  0  0  0  0  0  0  0  0
  161.6000  200.9150  147.2390 C   0  0  0  0  0  3  0  0  0  0  0  0
  160.1720  206.4410  145.2610 C   0  0  0  0  0  2  0  0  0  0  0  0
  160.7990  205.6520  146.1180 C   0  0  0  0  0  3  0  0  0  0  0  0
  1 10  1  0  0  0  0
  2 10  1  0  0  0  0
  3 14  2  0  0  0  0
  5 30  1  1  0  0  0
  5 16  1  0  0  0  0
  6  1  1  0  0  0  0
  7 11  1  0  0  0  0
  8  9  1  0  0  0  0
  9  7  2  0  0  0  0
  9  3  1  0  0  0  0
 10  4  1  0  0  0  0
 11 14  1  0  0  0  0
 11 22  1  1  0  0  0
 12  6  1  0  0  0  0
 13  5  1  0  0  0  0
 14  2  1  0  0  0  0
 15 13  1  0  0  0  0
 15  8  1  0  0  0  0
 16  3  1  0  0  0  0
 16 12  1  6  0  0  0
 17 18  1  0  0  0  0
 19 18  2  0  0  0  0
 20 22  2  0  0  0  0
 20 21  1  0  0  0  0
 21 17  2  0  0  0  0
 22 19  1  0  0  0  0
 23 25  1  1  0  0  0
 26 24  1  6  0  0  0
 26 29  1  0  0  0  0
 26 23  1  0  0  0  0
 27 17  1  6  0  0  0
 27 26  1  0  0  0  0
 27 25  1  0  0  0  0
 27 23  1  0  0  0  0
 28 29  1  0  0  0  0
 31 30  1  0  0  0  0
 31 32  1  1  0  0  0
 33 31  1  0  0  0  0
 34 43  1  0  0  0  0
 34 33  2  0  0  0  0
 35 38  1  0  0  0  0
 36 41  1  0  0  0  0
 37 40  1  0  0  0  0
 38 36  2  0  0  0  0
 39 37  2  0  0  0  0
 39 38  1  0  0  0  0
 40 33  1  0  0  0  0
 40 41  2  0  0  0  0
 42 43  2  0  0  0  0
M  END
>  <MODEL>
5

>  <REMARK>
 VINA RESULT:      -4.0      3.014     10.609
  Name = 
  8 active torsions:
  status: ('A' for Active; 'I' for Inactive)
    1  A    between atoms: C_9  and  C_11
    2  A    between atoms: C_9  and  C_16
    3  A    between atoms: C_16  and  C_18
    4  A    between atoms: C_18  and  C_35
    5  A    between atoms: C_22  and  C_40
    6  A    between atoms: C_24  and  C_26
    7  A    between atoms: C_25  and  O_43
    8  A    between atoms: C_27  and  C_39
                            x       y       z     vdW  Elec       q    Type
                         _______ _______ _______ _____ _____    ______ ____

>  <TORSDO>
F 8

$$$$
