=
 OpenBabel11072415283D

 70 77  0  0  1  0  0  0  0  0999 V2000
  160.7660  206.1900  145.7070 C   0  0  1  0  0  0  0  0  0  0  0  0
  162.8020  211.1150  149.6780 C   0  0  0  0  0  2  0  0  0  0  0  0
  159.7380  209.9350  146.6230 C   0  0  0  0  0  2  0  0  0  0  0  0
  161.9390  206.7240  148.1890 C   0  0  0  0  0  2  0  0  0  0  0  0
  162.1050  206.1700  143.7380 C   0  0  0  0  0  2  0  0  0  0  0  0
  161.5540  207.6140  139.3120 C   0  0  0  0  0  2  0  0  0  0  0  0
  161.0410  210.6290  146.9860 C   0  0  2  0  0  3  0  0  0  0  0  0
  161.4310  209.6610  140.8430 C   0  0  1  0  0  3  0  0  0  0  0  0
  160.7550  211.3420  148.1640 O   0  0  0  0  0  0  0  0  0  0  0  0
  162.5150  208.0540  148.0660 C   0  0  1  0  0  3  0  0  0  0  0  0
  161.1340  210.0990  142.3890 C   0  0  0  0  0  2  0  0  0  0  0  0
  159.3840  205.7230  146.1010 C   0  0  0  0  0  1  0  0  0  0  0  0
  160.5530  212.3570  145.0910 C   0  0  0  0  0  2  0  0  0  0  0  0
  161.4590  213.3050  149.3690 C   0  0  0  0  0  1  0  0  0  0  0  0
  161.2400  208.2130  140.5270 C   0  0  2  0  0  3  0  0  0  0  0  0
  162.8640  212.5660  143.5880 O   0  0  0  0  0  0  0  0  0  0  0  0
  162.2240  209.7770  150.1250 C   0  0  2  0  0  3  0  0  0  0  0  0
  161.4590  206.6530  142.6040 C   0  0  0  0  0  0  0  0  0  0  0  0
  161.1230  205.3610  144.4650 C   0  0  1  0  0  3  0  0  0  0  0  0
  159.6210  210.3970  139.2610 C   0  0  0  0  0  1  0  0  0  0  0  0
  161.9360  204.6270  147.1550 F   0  0  0  0  0  0  0  0  0  0  0  0
  161.8730  211.9980  148.7130 C   0  0  1  0  0  3  0  0  0  0  0  0
  160.8640  211.8860  140.9800 C   0  0  2  0  0  3  0  0  0  0  0  0
  160.7620  210.6860  140.0040 C   0  0  1  0  0  3  0  0  0  0  0  0
  160.8980  213.9770  143.2350 O   0  0  0  0  0  0  0  0  0  0  0  0
  161.1500  207.2690  141.5910 C   0  0  0  0  0  0  0  0  0  0  0  0
  161.6930  208.4390  145.1760 O   0  0  0  0  0  1  0  0  0  0  0  0
  160.4830  207.7940  145.4180 C   0  0  2  0  0  3  0  0  0  0  0  0
  161.6180  208.9310  149.0390 C   0  0  0  0  0  2  0  0  0  0  0  0
  161.5130  211.4500  145.8020 C   0  0  0  0  0  2  0  0  0  0  0  0
  161.3600  212.5780  143.5180 S   0  0  0  0  0  0  0  0  0  0  0  0
  160.5380  211.4670  142.3690 N   0  0  2  0  0  0  0  0  0  0  0  0
  159.7780  208.4210  146.6320 C   0  0  0  0  0  2  0  0  0  0  0  0
  161.8630  205.9630  146.8000 C   0  0  1  0  0  3  0  0  0  0  0  0
  160.6560  203.0850  144.6480 F   0  0  0  0  0  0  0  0  0  0  0  0
  162.8130  203.6720  143.9750 F   0  0  0  0  0  0  0  0  0  0  0  0
  161.6870  204.0000  144.7550 C   0  0  0  0  0  3  0  0  0  0  0  0
  161.2610  209.9140  151.2600 C   0  0  0  0  0  0  0  0  0  0  0  0
  160.8960  211.0270  151.7940 N   0  0  0  0  0  0  0  0  0  0  0  0
  160.1100  211.0330  152.9670 O   0  0  0  0  0  1  0  0  0  0  0  0
  160.7720  208.5250  151.7560 C   0  0  1  0  0  3  0  0  0  0  0  0
  160.8940  206.9940  153.7930 C   0  0  0  0  0  2  0  0  0  0  0  0
  161.2540  206.2980  152.4130 C   0  0  2  0  0  3  0  0  0  0  0  0
  161.5810  207.3500  151.3120 C   0  0  0  0  0  2  0  0  0  0  0  0
  160.8500  208.4530  153.2780 C   0  0  0  0  0  2  0  0  0  0  0  0
  160.7420  204.8670  152.0230 C   0  0  1  0  0  3  0  0  0  0  0  0
  161.3670  204.2370  150.8380 C   0  0  0  0  0  1  0  0  0  0  0  0
  161.1470  203.8340  152.9700 O   0  0  0  0  0  1  0  0  0  0  0  0
  162.9340  207.3300  137.3710 O   0  0  0  0  0  0  0  0  0  0  0  0
  162.1260  208.0910  138.0610 C   0  0  0  0  0  0  0  0  0  0  0  0
  161.8880  209.3680  137.5860 O   0  0  0  0  0  0  0  0  0  0  0  0
  162.3780  211.6430  137.1660 C   0  0  0  0  0  1  0  0  0  0  0  0
  162.9910  210.3400  137.5660 C   0  0  0  0  0  2  0  0  0  0  0  0
  164.1520  206.9430  149.0210 C   0  0  0  0  0  1  0  0  0  0  0  0
  163.8780  208.2040  148.2960 O   0  0  0  0  0  0  0  0  0  0  0  0
  160.1240  213.0430  140.3960 C   0  0  0  0  0  2  0  0  0  0  0  0
  157.5550  213.3500  137.0110 O   0  0  0  0  0  1  0  0  0  0  0  0
  158.8350  212.7990  139.4980 C   0  0  2  0  0  3  0  0  0  0  0  0
  155.0350  214.4520  139.0260 O   0  0  0  0  0  1  0  0  0  0  0  0
  157.2540  214.1370  140.4120 O   0  0  0  0  0  0  0  0  0  0  0  0
  158.0760  214.0750  139.3110 C   0  0  2  0  0  3  0  0  0  0  0  0
  157.6970  211.6080  140.2750 S   0  0  0  0  0  0  0  0  0  0  0  0
  156.4670  213.0240  140.1590 C   0  0  2  0  0  3  0  0  0  0  0  0
  157.0660  214.0800  138.1480 C   0  0  2  0  0  3  0  0  0  0  0  0
  155.8570  213.3890  138.8540 C   0  0  2  0  0  0  0  0  0  0  0  0
  152.7590  211.5150  137.5790 C   0  0  0  0  0  2  0  0  0  0  0  0
  153.9330  212.3740  137.1580 C   0  0  1  0  0  3  0  0  0  0  0  0
  155.5550  210.8550  138.2320 O   0  0  0  0  0  1  0  0  0  0  0  0
  153.6500  212.1790  138.5880 C   0  0  2  0  0  3  0  0  0  0  0  0
  155.0720  212.1640  138.0930 C   0  0  1  0  0  0  0  0  0  0  0  0
  1 12  1  1  0  0  0
  1 34  1  0  0  0  0
  2 17  1  0  0  0  0
  3 33  1  0  0  0  0
  3  7  1  0  0  0  0
  5 19  1  0  0  0  0
  7 30  1  6  0  0  0
  7  9  1  0  0  0  0
  8 11  1  1  0  0  0
  9 22  1  0  0  0  0
 10  4  1  0  0  0  0
 10 55  1  1  0  0  0
 10 29  1  0  0  0  0
 13 30  1  0  0  0  0
 15  6  1  6  0  0  0
 15  8  1  0  0  0  0
 15 26  1  0  0  0  0
 17 38  1  1  0  0  0
 18  5  1  0  0  0  0
 19 37  1  1  0  0  0
 19  1  1  0  0  0  0
 22 14  1  1  0  0  0
 22  2  1  0  0  0  0
 23 56  1  6  0  0  0
 23 32  1  0  0  0  0
 24 20  1  1  0  0  0
 24  8  1  0  0  0  0
 24 23  1  0  0  0  0
 25 31  2  0  0  0  0
 26 18  3  0  0  0  0
 28 27  1  1  0  0  0
 28  1  1  0  0  0  0
 28 33  1  0  0  0  0
 29 17  1  0  0  0  0
 31 16  2  0  0  0  0
 31 13  1  0  0  0  0
 32 11  1  1  0  0  0
 32 31  1  0  0  0  0
 34 21  1  1  0  0  0
 34  4  1  0  0  0  0
 35 37  1  0  0  0  0
 36 37  1  0  0  0  0
 38 39  2  0  0  0  0
 39 40  1  0  0  0  0
 41 38  1  6  0  0  0
 41 45  1  0  0  0  0
 43 46  1  6  0  0  0
 43 42  1  0  0  0  0
 44 41  1  0  0  0  0
 44 43  1  0  0  0  0
 45 42  1  0  0  0  0
 46 47  1  6  0  0  0
 46 48  1  0  0  0  0
 49 50  2  0  0  0  0
 50  6  1  0  0  0  0
 51 50  1  0  0  0  0
 52 53  1  0  0  0  0
 53 51  1  0  0  0  0
 55 54  1  0  0  0  0
 58 62  1  0  0  0  0
 58 56  1  1  0  0  0
 61 58  1  0  0  0  0
 61 60  1  1  0  0  0
 63 62  1  6  0  0  0
 63 60  1  0  0  0  0
 64 57  1  6  0  0  0
 64 65  1  0  0  0  0
 64 61  1  0  0  0  0
 65 59  1  1  0  0  0
 65 63  1  0  0  0  0
 67 66  1  6  0  0  0
 67 70  1  0  0  0  0
 67 69  1  0  0  0  0
 69 66  1  6  0  0  0
 70 68  1  6  0  0  0
 70 69  1  0  0  0  0
 70 65  1  0  0  0  0
M  END
>  <MODEL>
1

>  <REMARK>
 VINA RESULT:      27.0      0.000      0.000
  Name = 
  11 active torsions:
  status: ('A' for Active; 'I' for Inactive)
    1  A    between atoms: C_1  and  C_42
    2  A    between atoms: C_11  and  C_61
    3  A    between atoms: C_12  and  C_63
    4  A    between atoms: C_18  and  C_35
    5  A    between atoms: C_20  and  O_44
    6  A    between atoms: C_28  and  C_42
    7  A    between atoms: C_34  and  C_47
    8  A    between atoms: C_41  and  C_61
    9  A    between atoms: C_53  and  C_60
   10  A    between atoms: C_63  and  O_66
   11  A    between atoms: O_66  and  C_68
                            x       y       z     vdW  Elec       q    Type
                         _______ _______ _______ _____ _____    ______ ____

>  <TORSDO>
F 11

$$$$
=
 OpenBabel11072415283D

 70 77  0  0  1  0  0  0  0  0999 V2000
  160.6470  206.4400  145.9260 C   0  0  1  0  0  0  0  0  0  0  0  0
  162.5720  211.8500  149.2720 C   0  0  0  0  0  2  0  0  0  0  0  0
  159.6140  210.2760  146.2910 C   0  0  0  0  0  2  0  0  0  0  0  0
  161.7310  207.3010  148.3560 C   0  0  0  0  0  2  0  0  0  0  0  0
  162.0580  206.1510  144.0300 C   0  0  0  0  0  2  0  0  0  0  0  0
  161.6820  206.9870  139.4310 C   0  0  0  0  0  2  0  0  0  0  0  0
  160.9070  211.0100  146.6060 C   0  0  2  0  0  3  0  0  0  0  0  0
  161.5170  209.2220  140.6680 C   0  0  1  0  0  3  0  0  0  0  0  0
  160.5830  211.8750  147.6650 O   0  0  0  0  0  0  0  0  0  0  0  0
  162.3210  208.6000  148.0770 C   0  0  1  0  0  3  0  0  0  0  0  0
  161.1660  209.8650  142.1280 C   0  0  0  0  0  2  0  0  0  0  0  0
  159.2480  206.0330  146.3270 C   0  0  0  0  0  1  0  0  0  0  0  0
  160.5030  212.4680  144.4780 C   0  0  0  0  0  2  0  0  0  0  0  0
  161.2570  213.9810  148.6210 C   0  0  0  0  0  1  0  0  0  0  0  0
  161.3270  207.7440  140.5420 C   0  0  2  0  0  3  0  0  0  0  0  0
  162.8700  212.4670  143.0490 O   0  0  0  0  0  0  0  0  0  0  0  0
  161.9670  210.5860  149.8720 C   0  0  2  0  0  3  0  0  0  0  0  0
  161.4580  206.4790  142.8170 C   0  0  0  0  0  0  0  0  0  0  0  0
  161.0430  205.4500  144.8210 C   0  0  1  0  0  3  0  0  0  0  0  0
  159.7720  209.7420  138.9340 C   0  0  0  0  0  1  0  0  0  0  0  0
  161.7510  205.0830  147.6140 F   0  0  0  0  0  0  0  0  0  0  0  0
  161.6860  212.5970  148.1620 C   0  0  1  0  0  3  0  0  0  0  0  0
  160.9630  211.4470  140.4830 C   0  0  2  0  0  3  0  0  0  0  0  0
  160.8880  210.1260  139.6740 C   0  0  1  0  0  3  0  0  0  0  0  0
  160.9290  213.8220  142.4350 O   0  0  0  0  0  0  0  0  0  0  0  0
  161.1920  206.9530  141.7190 C   0  0  0  0  0  0  0  0  0  0  0  0
  161.6100  208.5940  145.1330 O   0  0  0  0  0  1  0  0  0  0  0  0
  160.3870  207.9910  145.4130 C   0  0  2  0  0  3  0  0  0  0  0  0
  161.3960  209.6030  148.8890 C   0  0  0  0  0  2  0  0  0  0  0  0
  161.4300  211.6630  145.3400 C   0  0  0  0  0  2  0  0  0  0  0  0
  161.3690  212.4730  142.9210 S   0  0  0  0  0  0  0  0  0  0  0  0
  160.5820  211.2190  141.9020 N   0  0  2  0  0  0  0  0  0  0  0  0
  159.6420  208.7780  146.5050 C   0  0  0  0  0  2  0  0  0  0  0  0
  161.7010  206.3600  147.0800 C   0  0  1  0  0  3  0  0  0  0  0  0
  160.5500  203.4550  145.9200 F   0  0  0  0  0  0  0  0  0  0  0  0
  162.2490  203.3900  144.3220 F   0  0  0  0  0  0  0  0  0  0  0  0
  161.5860  204.1390  145.3130 C   0  0  0  0  0  3  0  0  0  0  0  0
  160.9640  210.8770  150.9420 C   0  0  0  0  0  0  0  0  0  0  0  0
  160.3500  211.9970  151.0990 N   0  0  0  0  0  0  0  0  0  0  0  0
  159.5460  212.2180  152.2390 O   0  0  0  0  0  1  0  0  0  0  0  0
  160.7750  209.6570  151.8850 C   0  0  1  0  0  3  0  0  0  0  0  0
  161.1100  208.9630  154.3170 C   0  0  0  0  0  2  0  0  0  0  0  0
  161.7110  207.9560  153.2480 C   0  0  2  0  0  3  0  0  0  0  0  0
  161.8590  208.6290  151.8520 C   0  0  0  0  0  2  0  0  0  0  0  0
  160.7670  210.1140  153.3410 C   0  0  0  0  0  2  0  0  0  0  0  0
  161.5670  206.3990  153.3720 C   0  0  1  0  0  3  0  0  0  0  0  0
  160.6150  205.8970  154.3900 C   0  0  0  0  0  1  0  0  0  0  0  0
  160.8920  205.7920  152.2290 O   0  0  0  0  0  1  0  0  0  0  0  0
  163.2310  206.5080  137.6650 O   0  0  0  0  0  0  0  0  0  0  0  0
  162.3030  207.2900  138.1500 C   0  0  0  0  0  0  0  0  0  0  0  0
  161.9840  208.4270  137.4310 O   0  0  0  0  0  0  0  0  0  0  0  0
  162.5480  210.7170  137.2660 C   0  0  0  0  0  1  0  0  0  0  0  0
  163.0630  209.3360  137.0170 C   0  0  0  0  0  2  0  0  0  0  0  0
  163.9700  207.5000  149.0240 C   0  0  0  0  0  1  0  0  0  0  0  0
  163.6760  208.7770  148.3350 O   0  0  0  0  0  0  0  0  0  0  0  0
  160.2530  212.5160  139.7210 C   0  0  0  0  0  2  0  0  0  0  0  0
  156.9440  211.1230  137.4260 O   0  0  0  0  0  1  0  0  0  0  0  0
  158.7340  212.3230  139.2920 C   0  0  2  0  0  3  0  0  0  0  0  0
  155.8820  214.3360  137.0110 O   0  0  0  0  0  1  0  0  0  0  0  0
  158.1760  214.2830  138.3070 O   0  0  0  0  0  0  0  0  0  0  0  0
  158.4720  212.9810  137.9750 C   0  0  2  0  0  3  0  0  0  0  0  0
  157.6000  213.0750  140.5030 S   0  0  0  0  0  0  0  0  0  0  0  0
  157.0070  214.0650  139.0200 C   0  0  2  0  0  3  0  0  0  0  0  0
  157.1890  212.5290  137.2530 C   0  0  2  0  0  3  0  0  0  0  0  0
  156.1480  213.4320  137.9850 C   0  0  2  0  0  0  0  0  0  0  0  0
  154.0370  210.6630  139.6010 C   0  0  0  0  0  2  0  0  0  0  0  0
  154.6750  212.0160  139.8380 C   0  0  1  0  0  3  0  0  0  0  0  0
  153.5610  212.9940  137.8640 O   0  0  0  0  0  1  0  0  0  0  0  0
  154.9780  211.2750  138.6050 C   0  0  2  0  0  3  0  0  0  0  0  0
  154.7600  212.7650  138.5540 C   0  0  1  0  0  0  0  0  0  0  0  0
  1 12  1  1  0  0  0
  1 34  1  0  0  0  0
  2 17  1  0  0  0  0
  3 33  1  0  0  0  0
  3  7  1  0  0  0  0
  5 19  1  0  0  0  0
  7 30  1  6  0  0  0
  7  9  1  0  0  0  0
  8 11  1  1  0  0  0
  9 22  1  0  0  0  0
 10 55  1  1  0  0  0
 10  4  1  0  0  0  0
 10 29  1  0  0  0  0
 13 30  1  0  0  0  0
 15  6  1  1  0  0  0
 15  8  1  0  0  0  0
 15 26  1  0  0  0  0
 17 38  1  1  0  0  0
 18  5  1  0  0  0  0
 19 37  1  1  0  0  0
 19  1  1  0  0  0  0
 22 14  1  1  0  0  0
 22  2  1  0  0  0  0
 23 56  1  6  0  0  0
 23 32  1  0  0  0  0
 24 20  1  1  0  0  0
 24 23  1  0  0  0  0
 24  8  1  0  0  0  0
 25 31  2  0  0  0  0
 26 18  3  0  0  0  0
 28 27  1  1  0  0  0
 28  1  1  0  0  0  0
 28 33  1  0  0  0  0
 29 17  1  0  0  0  0
 31 16  2  0  0  0  0
 31 13  1  0  0  0  0
 32 11  1  1  0  0  0
 32 31  1  0  0  0  0
 34 21  1  1  0  0  0
 34  4  1  0  0  0  0
 36 37  1  0  0  0  0
 37 35  1  0  0  0  0
 38 39  2  0  0  0  0
 39 40  1  0  0  0  0
 41 38  1  6  0  0  0
 41 45  1  0  0  0  0
 43 46  1  6  0  0  0
 43 42  1  0  0  0  0
 44 41  1  0  0  0  0
 44 43  1  0  0  0  0
 45 42  1  0  0  0  0
 46 47  1  1  0  0  0
 48 46  1  0  0  0  0
 49 50  2  0  0  0  0
 50  6  1  0  0  0  0
 51 50  1  0  0  0  0
 53 52  1  0  0  0  0
 53 51  1  0  0  0  0
 55 54  1  0  0  0  0
 58 56  1  1  0  0  0
 58 62  1  0  0  0  0
 61 60  1  1  0  0  0
 61 58  1  0  0  0  0
 63 60  1  6  0  0  0
 63 62  1  0  0  0  0
 64 57  1  1  0  0  0
 64 61  1  0  0  0  0
 64 65  1  0  0  0  0
 65 59  1  6  0  0  0
 65 70  1  0  0  0  0
 65 63  1  0  0  0  0
 67 66  1  6  0  0  0
 69 66  1  6  0  0  0
 69 67  1  0  0  0  0
 70 68  1  6  0  0  0
 70 69  1  0  0  0  0
 70 67  1  0  0  0  0
M  END
>  <MODEL>
2

>  <REMARK>
 VINA RESULT:      27.3      1.108      1.305
  Name = 
  11 active torsions:
  status: ('A' for Active; 'I' for Inactive)
    1  A    between atoms: C_1  and  C_42
    2  A    between atoms: C_11  and  C_61
    3  A    between atoms: C_12  and  C_63
    4  A    between atoms: C_18  and  C_35
    5  A    between atoms: C_20  and  O_44
    6  A    between atoms: C_28  and  C_42
    7  A    between atoms: C_34  and  C_47
    8  A    between atoms: C_41  and  C_61
    9  A    between atoms: C_53  and  C_60
   10  A    between atoms: C_63  and  O_66
   11  A    between atoms: O_66  and  C_68
                            x       y       z     vdW  Elec       q    Type
                         _______ _______ _______ _____ _____    ______ ____

>  <TORSDO>
F 11

$$$$
=
 OpenBabel11072415283D

 70 77  0  0  1  0  0  0  0  0999 V2000
  161.7230  212.1730  149.2660 C   0  0  1  0  0  0  0  0  0  0  0  0
  158.4560  210.9900  154.9310 C   0  0  0  0  0  2  0  0  0  0  0  0
  161.9760  209.7650  152.4370 C   0  0  0  0  0  2  0  0  0  0  0  0
  160.2270  213.4010  151.2850 C   0  0  0  0  0  2  0  0  0  0  0  0
  160.6160  211.0550  147.4780 C   0  0  0  0  0  2  0  0  0  0  0  0
  161.3520  207.1200  145.0360 C   0  0  0  0  0  2  0  0  0  0  0  0
  160.5410  209.5510  152.8900 C   0  0  2  0  0  3  0  0  0  0  0  0
  160.9560  206.4820  147.4830 C   0  0  1  0  0  3  0  0  0  0  0  0
  160.5750  209.7140  154.2870 O   0  0  0  0  0  0  0  0  0  0  0  0
  159.4410  212.3350  151.8860 C   0  0  1  0  0  3  0  0  0  0  0  0
  161.0120  207.0880  148.9990 C   0  0  0  0  0  2  0  0  0  0  0  0
  163.1180  212.6790  149.5490 C   0  0  0  0  0  1  0  0  0  0  0  0
  160.9060  206.9860  152.5650 C   0  0  0  0  0  2  0  0  0  0  0  0
  159.4160  208.9980  156.2730 C   0  0  0  0  0  1  0  0  0  0  0  0
  161.4310  207.3940  146.3970 C   0  0  2  0  0  3  0  0  0  0  0  0
  158.7600  206.0550  151.0920 O   0  0  0  0  0  0  0  0  0  0  0  0
  159.2120  212.2650  154.5760 C   0  0  2  0  0  3  0  0  0  0  0  0
  161.2790  209.9210  147.0170 C   0  0  0  0  0  0  0  0  0  0  0  0
  161.6460  212.0650  147.7360 C   0  0  1  0  0  3  0  0  0  0  0  0
  162.7600  204.7850  147.0490 C   0  0  0  0  0  1  0  0  0  0  0  0
  160.7050  214.3790  149.2150 F   0  0  0  0  0  0  0  0  0  0  0  0
  159.3080  209.6310  154.8960 C   0  0  1  0  0  3  0  0  0  0  0  0
  161.1040  204.7990  149.0440 C   0  0  2  0  0  3  0  0  0  0  0  0
  161.5160  205.1110  147.5820 C   0  0  1  0  0  3  0  0  0  0  0  0
  160.4730  204.5920  152.0460 O   0  0  0  0  0  0  0  0  0  0  0  0
  161.5760  208.7860  146.6650 C   0  0  0  0  0  0  0  0  0  0  0  0
  160.4730  210.1650  150.0410 O   0  0  0  0  0  1  0  0  0  0  0  0
  161.7470  210.7260  150.0670 C   0  0  2  0  0  3  0  0  0  0  0  0
  160.0650  212.1970  153.3390 C   0  0  0  0  0  2  0  0  0  0  0  0
  160.0540  208.2060  152.3830 C   0  0  0  0  0  2  0  0  0  0  0  0
  160.2390  205.8890  151.3300 S   0  0  0  0  0  0  0  0  0  0  0  0
  161.3570  205.9700  149.9250 N   0  0  2  0  0  0  0  0  0  0  0  0
  162.2020  210.9480  151.5190 C   0  0  0  0  0  2  0  0  0  0  0  0
  160.5770  213.1150  149.7640 C   0  0  1  0  0  3  0  0  0  0  0  0
  162.0850  213.4190  145.8910 F   0  0  0  0  0  0  0  0  0  0  0  0
  159.9280  213.5060  146.7770 F   0  0  0  0  0  0  0  0  0  0  0  0
  161.3040  213.3440  147.0290 C   0  0  0  0  0  3  0  0  0  0  0  0
  160.0150  212.7990  155.7190 C   0  0  0  0  0  0  0  0  0  0  0  0
  160.0300  214.0250  156.1070 N   0  0  0  0  0  0  0  0  0  0  0  0
  160.9470  214.4530  157.0910 O   0  0  0  0  0  1  0  0  0  0  0  0
  160.8760  211.6830  156.3720 C   0  0  1  0  0  3  0  0  0  0  0  0
  163.2330  211.2620  157.2550 C   0  0  0  0  0  2  0  0  0  0  0  0
  162.6900  210.1590  156.2510 C   0  0  2  0  0  3  0  0  0  0  0  0
  161.4700  210.6810  155.4370 C   0  0  0  0  0  2  0  0  0  0  0  0
  162.0970  212.2930  157.0550 C   0  0  0  0  0  2  0  0  0  0  0  0
  162.8920  208.6210  156.4880 C   0  0  1  0  0  3  0  0  0  0  0  0
  161.8400  207.9220  157.2600 C   0  0  0  0  0  1  0  0  0  0  0  0
  162.7340  207.8280  155.2730 O   0  0  0  0  0  1  0  0  0  0  0  0
  160.1850  205.0360  144.8300 O   0  0  0  0  0  0  0  0  0  0  0  0
  160.8360  206.0090  144.2500 C   0  0  0  0  0  0  0  0  0  0  0  0
  161.0590  205.9080  142.8890 O   0  0  0  0  0  0  0  0  0  0  0  0
  162.3110  206.3690  140.9380 C   0  0  0  0  0  1  0  0  0  0  0  0
  161.8030  206.9760  142.2060 C   0  0  0  0  0  2  0  0  0  0  0  0
  157.8520  213.0870  150.5690 C   0  0  0  0  0  1  0  0  0  0  0  0
  158.0570  212.4630  151.8960 O   0  0  0  0  0  0  0  0  0  0  0  0
  161.6850  203.4810  149.4340 C   0  0  0  0  0  2  0  0  0  0  0  0
  162.5520  201.6550  145.6830 O   0  0  0  0  0  1  0  0  0  0  0  0
  161.8270  202.3180  148.3590 C   0  0  2  0  0  3  0  0  0  0  0  0
  159.4050  200.3470  145.5940 O   0  0  0  0  0  1  0  0  0  0  0  0
  159.7010  201.8960  147.7050 O   0  0  0  0  0  0  0  0  0  0  0  0
  160.8440  202.5070  147.2460 C   0  0  2  0  0  3  0  0  0  0  0  0
  161.4930  200.6850  149.0950 S   0  0  0  0  0  0  0  0  0  0  0  0
  160.1630  200.5910  147.7710 C   0  0  2  0  0  3  0  0  0  0  0  0
  161.1430  201.7170  145.9580 C   0  0  2  0  0  3  0  0  0  0  0  0
  160.5280  200.3390  146.3530 C   0  0  2  0  0  0  0  0  0  0  0  0
  161.3890  197.0680  144.5380 C   0  0  0  0  0  2  0  0  0  0  0  0
  161.8190  198.5050  144.7460 C   0  0  1  0  0  3  0  0  0  0  0  0
  161.8590  198.2380  147.2000 O   0  0  0  0  0  1  0  0  0  0  0  0
  160.5260  198.0470  145.2770 C   0  0  2  0  0  3  0  0  0  0  0  0
  161.3930  198.9670  146.0960 C   0  0  1  0  0  0  0  0  0  0  0  0
  1 12  1  1  0  0  0
  1 34  1  0  0  0  0
  1 28  1  0  0  0  0
  3  7  1  0  0  0  0
  4 10  1  0  0  0  0
  5 19  1  0  0  0  0
  7 30  1  1  0  0  0
  7  9  1  0  0  0  0
  8 24  1  0  0  0  0
  8 11  1  1  0  0  0
  9 22  1  0  0  0  0
 10 55  1  1  0  0  0
 10 29  1  0  0  0  0
 15  6  1  6  0  0  0
 15 26  1  0  0  0  0
 15  8  1  0  0  0  0
 16 31  2  0  0  0  0
 17  2  1  0  0  0  0
 17 38  1  1  0  0  0
 18  5  1  0  0  0  0
 19 37  1  6  0  0  0
 19  1  1  0  0  0  0
 22  2  1  0  0  0  0
 22 14  1  1  0  0  0
 23 56  1  1  0  0  0
 23 32  1  0  0  0  0
 24 20  1  1  0  0  0
 24 23  1  0  0  0  0
 26 18  3  0  0  0  0
 28 27  1  1  0  0  0
 28 33  1  0  0  0  0
 29 17  1  0  0  0  0
 30 13  1  0  0  0  0
 31 25  2  0  0  0  0
 31 13  1  0  0  0  0
 32 11  1  6  0  0  0
 32 31  1  0  0  0  0
 33  3  1  0  0  0  0
 34 21  1  1  0  0  0
 34  4  1  0  0  0  0
 35 37  1  0  0  0  0
 36 37  1  0  0  0  0
 38 39  2  0  0  0  0
 39 40  1  0  0  0  0
 41 38  1  6  0  0  0
 41 45  1  0  0  0  0
 43 46  1  1  0  0  0
 43 42  1  0  0  0  0
 44 43  1  0  0  0  0
 44 41  1  0  0  0  0
 45 42  1  0  0  0  0
 46 47  1  1  0  0  0
 48 46  1  0  0  0  0
 50 49  2  0  0  0  0
 50  6  1  0  0  0  0
 51 50  1  0  0  0  0
 52 53  1  0  0  0  0
 53 51  1  0  0  0  0
 54 55  1  0  0  0  0
 58 62  1  0  0  0  0
 58 56  1  1  0  0  0
 61 60  1  1  0  0  0
 61 58  1  0  0  0  0
 63 60  1  6  0  0  0
 63 62  1  0  0  0  0
 64 57  1  1  0  0  0
 64 65  1  0  0  0  0
 64 61  1  0  0  0  0
 65 59  1  6  0  0  0
 65 63  1  0  0  0  0
 67 66  1  1  0  0  0
 67 69  1  0  0  0  0
 67 70  1  0  0  0  0
 69 66  1  1  0  0  0
 69 70  1  0  0  0  0
 70 65  1  0  0  0  0
 70 68  1  1  0  0  0
M  END
>  <MODEL>
3

>  <REMARK>
 VINA RESULT:      28.2      5.844      9.879
  Name = 
  11 active torsions:
  status: ('A' for Active; 'I' for Inactive)
    1  A    between atoms: C_1  and  C_42
    2  A    between atoms: C_11  and  C_61
    3  A    between atoms: C_12  and  C_63
    4  A    between atoms: C_18  and  C_35
    5  A    between atoms: C_20  and  O_44
    6  A    between atoms: C_28  and  C_42
    7  A    between atoms: C_34  and  C_47
    8  A    between atoms: C_41  and  C_61
    9  A    between atoms: C_53  and  C_60
   10  A    between atoms: C_63  and  O_66
   11  A    between atoms: O_66  and  C_68
                            x       y       z     vdW  Elec       q    Type
                         _______ _______ _______ _____ _____    ______ ____

>  <TORSDO>
F 11

$$$$
