=
 OpenBabel11072410373D

 54 57  0  0  1  0  0  0  0  0999 V2000
  159.7960  214.4190  149.5720 O   0  0  0  0  0  0  0  0  0  0  0  0
  158.6170  213.8140  150.0340 C   0  0  0  0  0  2  0  0  0  0  0  0
  160.8500  212.2320  149.7210 C   0  0  0  0  0  0  0  0  0  0  0  0
  161.5390  211.2440  149.1370 C   0  0  0  0  0  3  0  0  0  0  0  0
  160.5700  211.3540  152.0510 C   0  0  0  0  0  3  0  0  0  0  0  0
  161.7190  210.5010  152.0350 N   0  0  0  0  0  0  0  0  0  0  0  0
  161.9650  209.5770  150.9610 C   0  0  0  0  0  0  0  0  0  0  0  0
  161.9050  209.9310  149.6800 C   0  0  0  0  0  3  0  0  0  0  0  0
  162.3740  210.3010  153.2940 C   0  0  0  0  0  0  0  0  0  0  0  0
  158.9380  212.9850  151.2810 C   0  0  1  0  0  3  0  0  0  0  0  0
  163.5010  210.8390  153.4910 O   0  0  0  0  0  0  0  0  0  0  0  0
  160.1480  212.1100  151.0320 C   0  0  0  0  0  0  0  0  0  0  0  0
  160.5040  213.4310  148.8570 C   0  0  2  0  0  3  0  0  0  0  0  0
  161.9530  209.7000  155.6070 C   0  0  0  0  0  2  0  0  0  0  0  0
  160.5270  207.4630  156.4250 C   0  0  2  0  0  3  0  0  0  0  0  0
  160.6130  208.7620  157.2610 C   0  0  0  0  0  2  0  0  0  0  0  0
  161.8140  209.5870  156.8860 C   0  0  0  0  0  2  0  0  0  0  0  0
  160.6880  208.4870  154.0560 C   0  0  0  0  0  3  0  0  0  0  0  0
  160.1280  207.6480  154.9610 C   0  0  0  0  0  2  0  0  0  0  0  0
  161.7490  209.4780  154.3490 C   0  0  0  0  0  0  0  0  0  0  0  0
  159.6030  206.5420  157.0620 N   0  0  0  0  0  1  0  0  0  0  0  0
  162.4120  208.1810  151.2660 C   0  0  0  0  0  2  0  0  0  0  0  0
  161.4000  207.1620  150.7340 C   0  0  2  0  0  3  0  0  0  0  0  0
  160.6700  206.4660  151.7270 O   0  0  0  0  0  0  0  0  0  0  0  0
  161.5650  205.7420  152.5300 C   0  0  0  0  0  1  0  0  0  0  0  0
  162.6040  207.0900  148.6620 O   0  0  0  0  0  1  0  0  0  0  0  0
  161.8970  206.2970  149.5640 C   0  0  2  0  0  3  0  0  0  0  0  0
  160.7860  205.5530  148.8290 C   0  0  0  0  0  2  0  0  0  0  0  0
  162.3220  204.4990  145.5320 C   0  0  0  0  0  3  0  0  0  0  0  0
  162.0520  204.5840  146.9010 C   0  0  0  0  0  3  0  0  0  0  0  0
  161.6060  205.2880  144.6290 C   0  0  0  0  0  3  0  0  0  0  0  0
  161.0710  205.4660  147.3700 C   0  0  0  0  0  0  0  0  0  0  0  0
  160.6210  206.1650  145.0960 C   0  0  0  0  0  3  0  0  0  0  0  0
  160.3550  206.2560  146.4650 C   0  0  0  0  0  3  0  0  0  0  0  0
  161.7610  214.0490  148.2490 C   0  0  0  0  0  2  0  0  0  0  0  0
  161.5400  214.3560  146.9060 O   0  0  0  0  0  0  0  0  0  0  0  0
  161.9380  213.2160  146.2050 C   0  0  0  0  0  2  0  0  0  0  0  0
  162.8220  213.6100  145.0320 C   0  0  0  0  0  2  0  0  0  0  0  0
  161.4900  213.0730  142.9450 C   0  0  0  0  0  0  0  0  0  0  0  0
  160.8170  214.1350  143.0510 O   0  0  0  0  0  0  0  0  0  0  0  0
  162.5370  212.7750  143.8710 N   0  0  0  0  0  2  0  0  0  0  0  0
  161.2360  212.1500  141.8060 C   0  0  0  0  0  2  0  0  0  0  0  0
  162.0960  212.5110  140.6890 N   0  0  0  0  0  2  0  0  0  0  0  0
  162.8460  211.5420  139.9560 C   0  0  0  0  0  0  0  0  0  0  0  0
  162.8000  210.3230  140.2740 O   0  0  0  0  0  0  0  0  0  0  0  0
  164.1450  213.4160  139.0320 C   0  0  0  0  0  1  0  0  0  0  0  0
  163.7140  211.9790  138.8250 C   0  0  0  0  0  2  0  0  0  0  0  0
  159.1650  213.9080  152.4840 C   0  0  0  0  0  2  0  0  0  0  0  0
  158.6460  214.2840  154.7680 O   0  0  0  0  0  1  0  0  0  0  0  0
  158.1540  213.6860  153.6080 C   0  0  0  0  0  0  0  0  0  0  0  0
  156.9390  214.2940  153.2730 O   0  0  0  0  0  1  0  0  0  0  0  0
  157.9920  212.2860  153.8470 O   0  0  0  0  0  0  0  0  0  0  0  0
  158.3990  211.2260  156.1080 N   0  0  0  0  0  0  0  0  0  0  0  0
  158.2130  211.7080  155.0730 C   0  0  0  0  0  0  0  0  0  0  0  0
  1  2  1  0  0  0  0
  2 10  1  0  0  0  0
  3 12  1  0  0  0  0
  4  8  1  0  0  0  0
  4  3  2  0  0  0  0
  6  5  1  0  0  0  0
  6  9  1  0  0  0  0
  7 22  1  0  0  0  0
  7  6  1  0  0  0  0
  8  7  2  0  0  0  0
  9 11  2  0  0  0  0
  9 20  1  0  0  0  0
 10 48  1  1  0  0  0
 12 10  1  0  0  0  0
 12  5  2  0  0  0  0
 13 35  1  1  0  0  0
 13  1  1  0  0  0  0
 13  3  1  0  0  0  0
 14 17  1  0  0  0  0
 15 21  1  1  0  0  0
 15 16  1  0  0  0  0
 17 16  1  0  0  0  0
 18 20  2  0  0  0  0
 18 19  1  0  0  0  0
 19 15  1  0  0  0  0
 20 14  1  0  0  0  0
 23 22  1  1  0  0  0
 23 24  1  0  0  0  0
 24 25  1  0  0  0  0
 27 26  1  6  0  0  0
 27 23  1  0  0  0  0
 28 27  1  0  0  0  0
 29 30  1  0  0  0  0
 30 32  2  0  0  0  0
 31 33  1  0  0  0  0
 31 29  2  0  0  0  0
 32 28  1  0  0  0  0
 33 34  2  0  0  0  0
 34 32  1  0  0  0  0
 36 35  1  0  0  0  0
 37 36  1  0  0  0  0
 38 37  1  0  0  0  0
 39 40  2  0  0  0  0
 39 41  1  0  0  0  0
 41 38  1  0  0  0  0
 42 39  1  0  0  0  0
 43 42  1  0  0  0  0
 44 45  2  0  0  0  0
 44 43  1  0  0  0  0
 47 46  1  0  0  0  0
 47 44  1  0  0  0  0
 48 50  1  0  0  0  0
 50 52  1  0  0  0  0
 50 49  1  0  0  0  0
 51 50  1  0  0  0  0
 52 54  1  0  0  0  0
 54 53  3  0  0  0  0
M  END
>  <MODEL>
1

>  <REMARK>
 VINA RESULT:      -5.6      0.000      0.000
  Name = 
  19 active torsions:
  status: ('A' for Active; 'I' for Inactive)
    1  A    between atoms: C_3  and  N_4
    2  A    between atoms: C_3  and  C_10
    3  A    between atoms: C_6  and  O_16
    4  A    between atoms: C_6  and  C_32
    5  A    between atoms: C_6  and  C_54
    6  A    between atoms: C_8  and  C_39
    7  A    between atoms: C_12  and  O_19
    8  A    between atoms: C_12  and  C_45
    9  A    between atoms: C_18  and  C_32
   10  A    between atoms: C_18  and  C_36
   11  A    between atoms: O_19  and  C_33
   12  A    between atoms: C_22  and  C_54
   13  A    between atoms: C_24  and  C_30
   14  A    between atoms: C_24  and  C_48
   15  A    between atoms: C_29  and  C_44
   16  A    between atoms: C_33  and  C_50
   17  A    between atoms: C_38  and  O_51
   18  A    between atoms: N_42  and  C_45
   19  A    between atoms: C_48  and  O_51
                            x       y       z     vdW  Elec       q    Type
                         _______ _______ _______ _____ _____    ______ ____

>  <TORSDO>
F 19

$$$$
=
 OpenBabel11072410373D

 54 57  0  0  1  0  0  0  0  0999 V2000
  161.3440  210.9530  152.4810 O   0  0  0  0  0  0  0  0  0  0  0  0
  162.4490  211.1320  151.6340 C   0  0  0  0  0  2  0  0  0  0  0  0
  161.5850  208.5610  152.1150 C   0  0  0  0  0  0  0  0  0  0  0  0
  161.7300  207.3290  152.6170 C   0  0  0  0  0  3  0  0  0  0  0  0
  161.5260  208.1070  149.6520 C   0  0  0  0  0  3  0  0  0  0  0  0
  161.0560  206.7590  149.7530 N   0  0  0  0  0  0  0  0  0  0  0  0
  161.6740  205.8010  150.6290 C   0  0  0  0  0  0  0  0  0  0  0  0
  161.9440  206.0640  151.9060 C   0  0  0  0  0  3  0  0  0  0  0  0
  160.2390  206.2920  148.6710 C   0  0  0  0  0  0  0  0  0  0  0  0
  162.2280  210.3290  150.3490 C   0  0  1  0  0  3  0  0  0  0  0  0
  159.0020  206.1210  148.8660 O   0  0  0  0  0  0  0  0  0  0  0  0
  161.7940  208.9170  150.6820 C   0  0  0  0  0  0  0  0  0  0  0  0
  161.5150  209.7030  153.1110 C   0  0  2  0  0  3  0  0  0  0  0  0
  161.9980  205.4730  147.2130 C   0  0  0  0  0  2  0  0  0  0  0  0
  162.0040  205.7250  144.4480 C   0  0  2  0  0  3  0  0  0  0  0  0
  162.7210  204.5750  145.1930 C   0  0  0  0  0  2  0  0  0  0  0  0
  163.0130  204.9350  146.6250 C   0  0  0  0  0  2  0  0  0  0  0  0
  160.0480  206.1240  146.0930 C   0  0  0  0  0  3  0  0  0  0  0  0
  160.5450  205.9560  144.8430 C   0  0  0  0  0  2  0  0  0  0  0  0
  160.8280  206.0110  147.3470 C   0  0  0  0  0  0  0  0  0  0  0  0
  162.0830  205.4950  143.0170 N   0  0  0  0  0  1  0  0  0  0  0  0
  161.9420  204.4110  150.1440 C   0  0  0  0  0  2  0  0  0  0  0  0
  160.7330  203.5070  150.4020 C   0  0  2  0  0  3  0  0  0  0  0  0
  160.6830  202.9260  151.6920 O   0  0  0  0  0  0  0  0  0  0  0  0
  161.8750  202.2210  151.9240 C   0  0  0  0  0  1  0  0  0  0  0  0
  159.6690  201.4610  149.7460 O   0  0  0  0  0  1  0  0  0  0  0  0
  160.3640  202.5610  149.2470 C   0  0  2  0  0  3  0  0  0  0  0  0
  161.5630  202.0840  148.4320 C   0  0  0  0  0  2  0  0  0  0  0  0
  160.9870  199.4490  145.7750 C   0  0  0  0  0  3  0  0  0  0  0  0
  161.3960  200.0700  146.9580 C   0  0  0  0  0  3  0  0  0  0  0  0
  160.2970  200.1810  144.8050 C   0  0  0  0  0  3  0  0  0  0  0  0
  161.1250  201.4270  147.1700 C   0  0  0  0  0  0  0  0  0  0  0  0
  160.0200  201.5350  145.0190 C   0  0  0  0  0  3  0  0  0  0  0  0
  160.4340  202.1580  146.1980 C   0  0  0  0  0  3  0  0  0  0  0  0
  160.3870  209.4860  154.1170 C   0  0  0  0  0  2  0  0  0  0  0  0
  160.6730  210.1550  155.3080 O   0  0  0  0  0  0  0  0  0  0  0  0
  159.7580  209.6500  156.2340 C   0  0  0  0  0  2  0  0  0  0  0  0
  159.3200  210.7540  157.1850 C   0  0  0  0  0  2  0  0  0  0  0  0
  157.6170  211.9180  155.7160 C   0  0  0  0  0  0  0  0  0  0  0  0
  156.8380  210.9280  155.7630 O   0  0  0  0  0  0  0  0  0  0  0  0
  158.8480  211.9150  156.4420 N   0  0  0  0  0  2  0  0  0  0  0  0
  157.2240  213.1310  154.9490 C   0  0  0  0  0  2  0  0  0  0  0  0
  157.2870  212.8450  153.5230 N   0  0  0  0  0  2  0  0  0  0  0  0
  158.3970  213.2330  152.7130 C   0  0  0  0  0  0  0  0  0  0  0  0
  159.3650  213.8650  153.2150 O   0  0  0  0  0  0  0  0  0  0  0  0
  157.4330  213.8270  150.5290 C   0  0  0  0  0  1  0  0  0  0  0  0
  158.3970  212.9140  151.2560 C   0  0  0  0  0  2  0  0  0  0  0  0
  161.1920  211.0290  149.4620 C   0  0  0  0  0  2  0  0  0  0  0  0
  161.7280  213.2890  148.9850 O   0  0  0  0  0  1  0  0  0  0  0  0
  161.8170  211.9990  148.4630 C   0  0  0  0  0  0  0  0  0  0  0  0
  163.1680  211.6830  148.2840 O   0  0  0  0  0  1  0  0  0  0  0  0
  161.1000  211.9550  147.2260 O   0  0  0  0  0  0  0  0  0  0  0  0
  159.0680  213.3890  146.7610 N   0  0  0  0  0  0  0  0  0  0  0  0
  159.9970  212.7330  146.9760 C   0  0  0  0  0  0  0  0  0  0  0  0
  1 13  1  0  0  0  0
  2  1  1  0  0  0  0
  3  4  2  0  0  0  0
  3 13  1  0  0  0  0
  5  6  1  0  0  0  0
  5 12  2  0  0  0  0
  6  7  1  0  0  0  0
  7  8  2  0  0  0  0
  8  4  1  0  0  0  0
  9 11  2  0  0  0  0
  9  6  1  0  0  0  0
 10 48  1  6  0  0  0
 10 12  1  0  0  0  0
 10  2  1  0  0  0  0
 12  3  1  0  0  0  0
 13 35  1  1  0  0  0
 14 20  1  0  0  0  0
 15 21  1  6  0  0  0
 15 19  1  0  0  0  0
 15 16  1  0  0  0  0
 16 17  1  0  0  0  0
 17 14  1  0  0  0  0
 18 20  2  0  0  0  0
 19 18  1  0  0  0  0
 20  9  1  0  0  0  0
 22  7  1  0  0  0  0
 23 22  1  6  0  0  0
 23 24  1  0  0  0  0
 24 25  1  0  0  0  0
 27 26  1  1  0  0  0
 27 23  1  0  0  0  0
 28 27  1  0  0  0  0
 29 30  1  0  0  0  0
 30 32  2  0  0  0  0
 31 33  1  0  0  0  0
 31 29  2  0  0  0  0
 32 28  1  0  0  0  0
 33 34  2  0  0  0  0
 34 32  1  0  0  0  0
 35 36  1  0  0  0  0
 36 37  1  0  0  0  0
 37 38  1  0  0  0  0
 39 40  2  0  0  0  0
 39 41  1  0  0  0  0
 41 38  1  0  0  0  0
 42 39  1  0  0  0  0
 43 42  1  0  0  0  0
 44 45  2  0  0  0  0
 44 43  1  0  0  0  0
 46 47  1  0  0  0  0
 47 44  1  0  0  0  0
 50 49  1  0  0  0  0
 50 48  1  0  0  0  0
 51 50  1  0  0  0  0
 52 50  1  0  0  0  0
 53 54  3  0  0  0  0
 54 52  1  0  0  0  0
M  END
>  <MODEL>
2

>  <REMARK>
 VINA RESULT:      -5.2      3.279      8.660
  Name = 
  19 active torsions:
  status: ('A' for Active; 'I' for Inactive)
    1  A    between atoms: C_3  and  N_4
    2  A    between atoms: C_3  and  C_10
    3  A    between atoms: C_6  and  O_16
    4  A    between atoms: C_6  and  C_32
    5  A    between atoms: C_6  and  C_54
    6  A    between atoms: C_8  and  C_39
    7  A    between atoms: C_12  and  O_19
    8  A    between atoms: C_12  and  C_45
    9  A    between atoms: C_18  and  C_32
   10  A    between atoms: C_18  and  C_36
   11  A    between atoms: O_19  and  C_33
   12  A    between atoms: C_22  and  C_54
   13  A    between atoms: C_24  and  C_30
   14  A    between atoms: C_24  and  C_48
   15  A    between atoms: C_29  and  C_44
   16  A    between atoms: C_33  and  C_50
   17  A    between atoms: C_38  and  O_51
   18  A    between atoms: N_42  and  C_45
   19  A    between atoms: C_48  and  O_51
                            x       y       z     vdW  Elec       q    Type
                         _______ _______ _______ _____ _____    ______ ____

>  <TORSDO>
F 19

$$$$
=
 OpenBabel11072410373D

 54 57  0  0  1  0  0  0  0  0999 V2000
  161.5830  207.9290  154.6650 O   0  0  0  0  0  0  0  0  0  0  0  0
  160.4380  207.2370  154.2390 C   0  0  0  0  0  2  0  0  0  0  0  0
  161.5250  209.1170  152.5440 C   0  0  0  0  0  0  0  0  0  0  0  0
  161.4980  210.2750  151.8730 C   0  0  0  0  0  3  0  0  0  0  0  0
  161.5360  207.4450  150.6780 C   0  0  0  0  0  3  0  0  0  0  0  0
  162.1170  208.3090  149.6970 N   0  0  0  0  0  0  0  0  0  0  0  0
  161.6090  209.6320  149.4520 C   0  0  0  0  0  0  0  0  0  0  0  0
  161.3640  210.5000  150.4300 C   0  0  0  0  0  3  0  0  0  0  0  0
  162.9310  207.6770  148.7010 C   0  0  0  0  0  0  0  0  0  0  0  0
  160.6790  206.6960  152.8270 C   0  0  1  0  0  3  0  0  0  0  0  0
  164.1850  207.8400  148.7390 O   0  0  0  0  0  0  0  0  0  0  0  0
  161.2380  207.7840  151.9370 C   0  0  0  0  0  0  0  0  0  0  0  0
  161.5350  209.2010  154.0590 C   0  0  2  0  0  3  0  0  0  0  0  0
  162.9720  205.9000  147.0480 C   0  0  0  0  0  2  0  0  0  0  0  0
  160.9280  205.3690  145.2470 C   0  0  2  0  0  3  0  0  0  0  0  0
  161.9030  204.2850  145.7620 C   0  0  0  0  0  2  0  0  0  0  0  0
  163.1820  204.8860  146.2780 C   0  0  0  0  0  2  0  0  0  0  0  0
  160.8730  206.8970  147.3330 C   0  0  0  0  0  3  0  0  0  0  0  0
  160.2640  206.2230  146.3270 C   0  0  0  0  0  2  0  0  0  0  0  0
  162.3220  206.8480  147.6410 C   0  0  0  0  0  0  0  0  0  0  0  0
  159.9010  204.7460  144.4310 N   0  0  0  0  0  1  0  0  0  0  0  0
  161.4400  210.1170  148.0460 C   0  0  0  0  0  2  0  0  0  0  0  0
  161.3870  211.6470  148.0050 C   0  0  2  0  0  3  0  0  0  0  0  0
  160.1000  212.1980  147.8020 O   0  0  0  0  0  0  0  0  0  0  0  0
  159.8800  213.2120  148.7480 C   0  0  0  0  0  1  0  0  0  0  0  0
  163.5130  212.7530  148.0810 O   0  0  0  0  0  1  0  0  0  0  0  0
  162.5180  212.3190  147.2080 C   0  0  2  0  0  3  0  0  0  0  0  0
  162.0530  213.4840  146.3390 C   0  0  0  0  0  2  0  0  0  0  0  0
  162.5750  212.6040  142.6940 C   0  0  0  0  0  3  0  0  0  0  0  0
  162.8220  213.0210  144.0040 C   0  0  0  0  0  3  0  0  0  0  0  0
  161.2920  212.1950  142.3220 C   0  0  0  0  0  3  0  0  0  0  0  0
  161.7850  213.0400  144.9440 C   0  0  0  0  0  0  0  0  0  0  0  0
  160.2560  212.2080  143.2620 C   0  0  0  0  0  3  0  0  0  0  0  0
  160.5000  212.6300  144.5700 C   0  0  0  0  0  3  0  0  0  0  0  0
  162.7120  210.0400  154.5530 C   0  0  0  0  0  2  0  0  0  0  0  0
  162.3790  210.6700  155.7530 O   0  0  0  0  0  0  0  0  0  0  0  0
  161.1730  211.3240  155.4950 C   0  0  0  0  0  2  0  0  0  0  0  0
  160.4890  211.6870  156.8040 C   0  0  0  0  0  2  0  0  0  0  0  0
  158.1710  212.5200  156.2140 C   0  0  0  0  0  0  0  0  0  0  0  0
  157.7270  211.3430  156.1190 O   0  0  0  0  0  0  0  0  0  0  0  0
  159.5260  212.7610  156.5990 N   0  0  0  0  0  2  0  0  0  0  0  0
  157.2580  213.6730  155.9860 C   0  0  0  0  0  2  0  0  0  0  0  0
  157.3530  214.0980  154.5970 N   0  0  0  0  0  2  0  0  0  0  0  0
  156.3470  213.7880  153.6320 C   0  0  0  0  0  0  0  0  0  0  0  0
  155.3370  213.1060  153.9560 O   0  0  0  0  0  0  0  0  0  0  0  0
  157.9720  214.2380  151.8400 C   0  0  0  0  0  1  0  0  0  0  0  0
  156.5070  214.2490  152.2230 C   0  0  0  0  0  2  0  0  0  0  0  0
  161.6240  205.4890  152.8800 C   0  0  0  0  0  2  0  0  0  0  0  0
  162.1620  203.4230  151.8460 O   0  0  0  0  0  1  0  0  0  0  0  0
  161.0940  204.2800  152.1120 C   0  0  0  0  0  0  0  0  0  0  0  0
  160.1580  203.5980  152.8960 O   0  0  0  0  0  1  0  0  0  0  0  0
  160.5270  204.7040  150.8690 O   0  0  0  0  0  0  0  0  0  0  0  0
  160.7650  203.3740  148.7300 N   0  0  0  0  0  0  0  0  0  0  0  0
  160.6560  203.9840  149.7070 C   0  0  0  0  0  0  0  0  0  0  0  0
  2  1  1  0  0  0  0
  3 13  1  0  0  0  0
  4  3  2  0  0  0  0
  5 12  2  0  0  0  0
  6  5  1  0  0  0  0
  7  6  1  0  0  0  0
  7  8  2  0  0  0  0
  8  4  1  0  0  0  0
  9 11  2  0  0  0  0
  9  6  1  0  0  0  0
 10 48  1  1  0  0  0
 10  2  1  0  0  0  0
 12  3  1  0  0  0  0
 12 10  1  0  0  0  0
 13 35  1  6  0  0  0
 13  1  1  0  0  0  0
 14 20  1  0  0  0  0
 15 21  1  1  0  0  0
 15 16  1  0  0  0  0
 15 19  1  0  0  0  0
 16 17  1  0  0  0  0
 17 14  1  0  0  0  0
 18 20  2  0  0  0  0
 19 18  1  0  0  0  0
 20  9  1  0  0  0  0
 22  7  1  0  0  0  0
 23 22  1  6  0  0  0
 24 23  1  0  0  0  0
 24 25  1  0  0  0  0
 27 23  1  0  0  0  0
 27 26  1  1  0  0  0
 28 27  1  0  0  0  0
 29 30  1  0  0  0  0
 30 32  2  0  0  0  0
 31 29  2  0  0  0  0
 31 33  1  0  0  0  0
 32 28  1  0  0  0  0
 33 34  2  0  0  0  0
 34 32  1  0  0  0  0
 35 36  1  0  0  0  0
 37 36  1  0  0  0  0
 37 38  1  0  0  0  0
 39 41  1  0  0  0  0
 40 39  2  0  0  0  0
 41 38  1  0  0  0  0
 42 39  1  0  0  0  0
 43 42  1  0  0  0  0
 44 45  2  0  0  0  0
 44 43  1  0  0  0  0
 46 47  1  0  0  0  0
 47 44  1  0  0  0  0
 49 50  1  0  0  0  0
 50 48  1  0  0  0  0
 50 51  1  0  0  0  0
 52 50  1  0  0  0  0
 53 54  3  0  0  0  0
 54 52  1  0  0  0  0
M  END
>  <MODEL>
3

>  <REMARK>
 VINA RESULT:      -4.7      2.870      9.531
  Name = 
  19 active torsions:
  status: ('A' for Active; 'I' for Inactive)
    1  A    between atoms: C_3  and  N_4
    2  A    between atoms: C_3  and  C_10
    3  A    between atoms: C_6  and  O_16
    4  A    between atoms: C_6  and  C_32
    5  A    between atoms: C_6  and  C_54
    6  A    between atoms: C_8  and  C_39
    7  A    between atoms: C_12  and  O_19
    8  A    between atoms: C_12  and  C_45
    9  A    between atoms: C_18  and  C_32
   10  A    between atoms: C_18  and  C_36
   11  A    between atoms: O_19  and  C_33
   12  A    between atoms: C_22  and  C_54
   13  A    between atoms: C_24  and  C_30
   14  A    between atoms: C_24  and  C_48
   15  A    between atoms: C_29  and  C_44
   16  A    between atoms: C_33  and  C_50
   17  A    between atoms: C_38  and  O_51
   18  A    between atoms: N_42  and  C_45
   19  A    between atoms: C_48  and  O_51
                            x       y       z     vdW  Elec       q    Type
                         _______ _______ _______ _____ _____    ______ ____

>  <TORSDO>
F 19

$$$$
=
 OpenBabel11072410373D

 54 57  0  0  1  0  0  0  0  0999 V2000
  162.0410  206.1100  149.9640 O   0  0  0  0  0  0  0  0  0  0  0  0
  160.9740  206.1480  149.0530 C   0  0  0  0  0  2  0  0  0  0  0  0
  161.5200  208.4220  150.5100 C   0  0  0  0  0  0  0  0  0  0  0  0
  161.2240  209.3490  151.4290 C   0  0  0  0  0  3  0  0  0  0  0  0
  161.5490  209.7790  148.4040 C   0  0  0  0  0  3  0  0  0  0  0  0
  161.8540  211.0300  149.0290 N   0  0  0  0  0  0  0  0  0  0  0  0
  161.1170  211.5120  150.1650 C   0  0  0  0  0  0  0  0  0  0  0  0
  160.8680  210.7590  151.2330 C   0  0  0  0  0  3  0  0  0  0  0  0
  162.6200  211.9560  148.2470 C   0  0  0  0  0  0  0  0  0  0  0  0
  161.1100  207.3970  148.1780 C   0  0  1  0  0  3  0  0  0  0  0  0
  163.8260  212.1710  148.5590 O   0  0  0  0  0  0  0  0  0  0  0  0
  161.3700  208.6150  149.0380 C   0  0  0  0  0  0  0  0  0  0  0  0
  161.7160  207.0020  151.0070 C   0  0  2  0  0  3  0  0  0  0  0  0
  162.6410  213.5780  146.4420 C   0  0  0  0  0  2  0  0  0  0  0  0
  160.4600  214.1830  144.8350 C   0  0  2  0  0  3  0  0  0  0  0  0
  161.9250  214.3220  144.3580 C   0  0  0  0  0  2  0  0  0  0  0  0
  162.8780  214.4460  145.5160 C   0  0  0  0  0  2  0  0  0  0  0  0
  160.7470  212.2030  146.4740 C   0  0  0  0  0  3  0  0  0  0  0  0
  160.0990  212.8390  145.4670 C   0  0  0  0  0  2  0  0  0  0  0  0
  162.0140  212.6530  147.0950 C   0  0  0  0  0  0  0  0  0  0  0  0
  159.5650  214.4450  143.7220 N   0  0  0  0  0  1  0  0  0  0  0  0
  160.6900  212.9460  150.2230 C   0  0  0  0  0  2  0  0  0  0  0  0
  159.1680  213.0620  150.0920 C   0  0  2  0  0  3  0  0  0  0  0  0
  158.7190  213.9320  149.0710 O   0  0  0  0  0  0  0  0  0  0  0  0
  157.7500  213.2720  148.2990 C   0  0  0  0  0  1  0  0  0  0  0  0
  157.3830  214.1080  151.3030 O   0  0  0  0  0  1  0  0  0  0  0  0
  158.4040  213.1670  151.4230 C   0  0  2  0  0  3  0  0  0  0  0  0
  159.2870  213.5180  152.6170 C   0  0  0  0  0  2  0  0  0  0  0  0
  159.7370  211.5910  155.8450 C   0  0  0  0  0  3  0  0  0  0  0  0
  159.9860  212.4400  154.7630 C   0  0  0  0  0  3  0  0  0  0  0  0
  158.5150  210.9210  155.9400 C   0  0  0  0  0  3  0  0  0  0  0  0
  159.0180  212.6120  153.7680 C   0  0  0  0  0  0  0  0  0  0  0  0
  157.5440  211.0980  154.9490 C   0  0  0  0  0  3  0  0  0  0  0  0
  157.7940  211.9410  153.8630 C   0  0  0  0  0  3  0  0  0  0  0  0
  162.8000  206.9410  152.0810 C   0  0  0  0  0  2  0  0  0  0  0  0
  162.4250  206.0510  153.0880 O   0  0  0  0  0  0  0  0  0  0  0  0
  162.2020  204.8380  152.4350 C   0  0  0  0  0  2  0  0  0  0  0  0
  160.7560  204.4040  152.6240 C   0  0  0  0  0  2  0  0  0  0  0  0
  161.2680  202.3030  151.3060 C   0  0  0  0  0  0  0  0  0  0  0  0
  162.3680  202.1450  151.9040 O   0  0  0  0  0  0  0  0  0  0  0  0
  160.3960  203.3810  151.6520 N   0  0  0  0  0  2  0  0  0  0  0  0
  160.8430  201.3190  150.2740 C   0  0  0  0  0  2  0  0  0  0  0  0
  160.7840  201.9730  148.9760 N   0  0  0  0  0  2  0  0  0  0  0  0
  161.0480  201.2790  147.7560 C   0  0  0  0  0  0  0  0  0  0  0  0
  161.3640  200.0590  147.7700 O   0  0  0  0  0  0  0  0  0  0  0  0
  160.2820  201.1520  145.4210 C   0  0  0  0  0  1  0  0  0  0  0  0
  160.9770  202.0100  146.4580 C   0  0  0  0  0  2  0  0  0  0  0  0
  162.2320  207.2000  147.1510 C   0  0  0  0  0  2  0  0  0  0  0  0
  162.8130  206.0940  145.1340 O   0  0  0  0  0  1  0  0  0  0  0  0
  162.0410  205.9550  146.2870 C   0  0  0  0  0  0  0  0  0  0  0  0
  162.4820  204.8270  146.9870 O   0  0  0  0  0  1  0  0  0  0  0  0
  160.6670  205.8320  145.9070 O   0  0  0  0  0  0  0  0  0  0  0  0
  159.8860  204.3060  144.0470 N   0  0  0  0  0  0  0  0  0  0  0  0
  160.2450  205.0040  144.8960 C   0  0  0  0  0  0  0  0  0  0  0  0
  1 13  1  0  0  0  0
  2  1  1  0  0  0  0
  3 13  1  0  0  0  0
  3  4  2  0  0  0  0
  5  6  1  0  0  0  0
  5 12  2  0  0  0  0
  6  7  1  0  0  0  0
  7 22  1  0  0  0  0
  7  8  2  0  0  0  0
  8  4  1  0  0  0  0
  9 11  2  0  0  0  0
  9  6  1  0  0  0  0
 10 48  1  6  0  0  0
 10 12  1  0  0  0  0
 10  2  1  0  0  0  0
 12  3  1  0  0  0  0
 13 35  1  1  0  0  0
 14 20  1  0  0  0  0
 15 21  1  6  0  0  0
 15 19  1  0  0  0  0
 16 15  1  0  0  0  0
 16 17  1  0  0  0  0
 17 14  1  0  0  0  0
 18 20  2  0  0  0  0
 19 18  1  0  0  0  0
 20  9  1  0  0  0  0
 23 22  1  1  0  0  0
 23 27  1  0  0  0  0
 24 23  1  0  0  0  0
 25 24  1  0  0  0  0
 27 26  1  6  0  0  0
 27 28  1  0  0  0  0
 28 32  1  0  0  0  0
 29 31  1  0  0  0  0
 30 29  2  0  0  0  0
 32 34  2  0  0  0  0
 32 30  1  0  0  0  0
 33 31  2  0  0  0  0
 34 33  1  0  0  0  0
 35 36  1  0  0  0  0
 37 38  1  0  0  0  0
 37 36  1  0  0  0  0
 39 41  1  0  0  0  0
 39 40  2  0  0  0  0
 41 38  1  0  0  0  0
 42 39  1  0  0  0  0
 43 42  1  0  0  0  0
 44 45  2  0  0  0  0
 44 43  1  0  0  0  0
 46 47  1  0  0  0  0
 47 44  1  0  0  0  0
 49 50  1  0  0  0  0
 50 51  1  0  0  0  0
 50 48  1  0  0  0  0
 52 50  1  0  0  0  0
 53 54  3  0  0  0  0
 54 52  1  0  0  0  0
M  END
>  <MODEL>
4

>  <REMARK>
 VINA RESULT:      -4.4      3.147     10.360
  Name = 
  19 active torsions:
  status: ('A' for Active; 'I' for Inactive)
    1  A    between atoms: C_3  and  N_4
    2  A    between atoms: C_3  and  C_10
    3  A    between atoms: C_6  and  O_16
    4  A    between atoms: C_6  and  C_32
    5  A    between atoms: C_6  and  C_54
    6  A    between atoms: C_8  and  C_39
    7  A    between atoms: C_12  and  O_19
    8  A    between atoms: C_12  and  C_45
    9  A    between atoms: C_18  and  C_32
   10  A    between atoms: C_18  and  C_36
   11  A    between atoms: O_19  and  C_33
   12  A    between atoms: C_22  and  C_54
   13  A    between atoms: C_24  and  C_30
   14  A    between atoms: C_24  and  C_48
   15  A    between atoms: C_29  and  C_44
   16  A    between atoms: C_33  and  C_50
   17  A    between atoms: C_38  and  O_51
   18  A    between atoms: N_42  and  C_45
   19  A    between atoms: C_48  and  O_51
                            x       y       z     vdW  Elec       q    Type
                         _______ _______ _______ _____ _____    ______ ____

>  <TORSDO>
F 19

$$$$
=
 OpenBabel11072410373D

 54 57  0  0  1  0  0  0  0  0999 V2000
  161.2330  207.6190  154.9580 O   0  0  0  0  0  0  0  0  0  0  0  0
  160.0920  206.9930  154.4320 C   0  0  0  0  0  2  0  0  0  0  0  0
  161.3500  208.9020  152.8950 C   0  0  0  0  0  0  0  0  0  0  0  0
  161.4080  210.0890  152.2790 C   0  0  0  0  0  3  0  0  0  0  0  0
  161.4150  207.3160  150.9560 C   0  0  0  0  0  3  0  0  0  0  0  0
  162.0880  208.2000  150.0540 N   0  0  0  0  0  0  0  0  0  0  0  0
  161.6450  209.5510  149.8410 C   0  0  0  0  0  0  0  0  0  0  0  0
  161.3720  210.3840  150.8420 C   0  0  0  0  0  3  0  0  0  0  0  0
  162.9380  207.5810  149.0790 C   0  0  0  0  0  0  0  0  0  0  0  0
  160.4000  206.5060  153.0130 C   0  0  1  0  0  3  0  0  0  0  0  0
  164.1910  207.6910  149.2010 O   0  0  0  0  0  0  0  0  0  0  0  0
  161.0530  207.6100  152.2100 C   0  0  0  0  0  0  0  0  0  0  0  0
  161.2710  208.9180  154.4100 C   0  0  2  0  0  3  0  0  0  0  0  0
  163.0120  205.8740  147.3550 C   0  0  0  0  0  2  0  0  0  0  0  0
  161.0690  205.5100  145.4060 C   0  0  2  0  0  3  0  0  0  0  0  0
  161.9620  204.3630  145.9330 C   0  0  0  0  0  2  0  0  0  0  0  0
  163.2290  204.8840  146.5560 C   0  0  0  0  0  2  0  0  0  0  0  0
  160.9430  206.9500  147.5510 C   0  0  0  0  0  3  0  0  0  0  0  0
  160.3720  206.3470  146.4790 C   0  0  0  0  0  2  0  0  0  0  0  0
  162.3640  206.8250  147.9480 C   0  0  0  0  0  0  0  0  0  0  0  0
  160.0730  204.9680  144.5000 N   0  0  0  0  0  1  0  0  0  0  0  0
  161.5800  210.1040  148.4520 C   0  0  0  0  0  2  0  0  0  0  0  0
  161.7370  211.6280  148.4700 C   0  0  2  0  0  3  0  0  0  0  0  0
  160.5230  212.3550  148.5060 O   0  0  0  0  0  0  0  0  0  0  0  0
  160.4950  213.1440  149.6670 C   0  0  0  0  0  1  0  0  0  0  0  0
  163.9610  212.4870  148.2290 O   0  0  0  0  0  1  0  0  0  0  0  0
  162.8040  212.1870  147.5150 C   0  0  2  0  0  3  0  0  0  0  0  0
  162.3500  213.4160  146.7330 C   0  0  0  0  0  2  0  0  0  0  0  0
  160.2960  212.4600  143.6990 C   0  0  0  0  0  3  0  0  0  0  0  0
  160.6460  212.7960  145.0090 C   0  0  0  0  0  3  0  0  0  0  0  0
  161.2790  212.3950  142.7090 C   0  0  0  0  0  3  0  0  0  0  0  0
  161.9820  213.0580  145.3350 C   0  0  0  0  0  0  0  0  0  0  0  0
  162.6130  212.6630  143.0320 C   0  0  0  0  0  3  0  0  0  0  0  0
  162.9660  212.9920  144.3430 C   0  0  0  0  0  3  0  0  0  0  0  0
  162.4450  209.6870  155.0130 C   0  0  0  0  0  2  0  0  0  0  0  0
  162.5460  209.4110  156.3770 O   0  0  0  0  0  0  0  0  0  0  0  0
  161.5030  210.1250  156.9680 C   0  0  0  0  0  2  0  0  0  0  0  0
  161.5800  211.5890  156.5650 C   0  0  0  0  0  2  0  0  0  0  0  0
  159.6280  212.5760  155.2890 C   0  0  0  0  0  0  0  0  0  0  0  0
  160.1830  212.3480  154.1800 O   0  0  0  0  0  0  0  0  0  0  0  0
  160.2480  212.1790  156.5130 N   0  0  0  0  0  2  0  0  0  0  0  0
  158.2800  213.2080  155.3230 C   0  0  0  0  0  2  0  0  0  0  0  0
  157.2780  212.2320  154.9200 N   0  0  0  0  0  2  0  0  0  0  0  0
  156.4840  211.5160  155.8670 C   0  0  0  0  0  0  0  0  0  0  0  0
  156.6450  211.6960  157.1040 O   0  0  0  0  0  0  0  0  0  0  0  0
  154.4230  210.3070  156.4530 C   0  0  0  0  0  1  0  0  0  0  0  0
  155.4780  210.5250  155.3890 C   0  0  0  0  0  2  0  0  0  0  0  0
  161.2950  205.2620  153.0660 C   0  0  0  0  0  2  0  0  0  0  0  0
  160.0660  204.7790  151.0950 O   0  0  0  0  0  1  0  0  0  0  0  0
  161.2120  204.4110  151.8000 C   0  0  0  0  0  0  0  0  0  0  0  0
  162.3300  204.6560  150.9960 O   0  0  0  0  0  1  0  0  0  0  0  0
  161.1100  203.0280  152.1490 O   0  0  0  0  0  0  0  0  0  0  0  0
  161.2180  201.1690  150.4360 N   0  0  0  0  0  0  0  0  0  0  0  0
  161.1710  202.0180  151.2200 C   0  0  0  0  0  0  0  0  0  0  0  0
  2  1  1  0  0  0  0
  3 13  1  0  0  0  0
  4  3  2  0  0  0  0
  5 12  2  0  0  0  0
  6  5  1  0  0  0  0
  7  6  1  0  0  0  0
  7  8  2  0  0  0  0
  8  4  1  0  0  0  0
  9 11  2  0  0  0  0
  9  6  1  0  0  0  0
 10 48  1  1  0  0  0
 10  2  1  0  0  0  0
 12  3  1  0  0  0  0
 12 10  1  0  0  0  0
 13  1  1  0  0  0  0
 13 35  1  1  0  0  0
 14 20  1  0  0  0  0
 15 21  1  6  0  0  0
 15 16  1  0  0  0  0
 15 19  1  0  0  0  0
 16 17  1  0  0  0  0
 17 14  1  0  0  0  0
 18 20  2  0  0  0  0
 19 18  1  0  0  0  0
 20  9  1  0  0  0  0
 22  7  1  0  0  0  0
 23 22  1  6  0  0  0
 23 24  1  0  0  0  0
 24 25  1  0  0  0  0
 27 26  1  1  0  0  0
 27 23  1  0  0  0  0
 28 27  1  0  0  0  0
 29 30  1  0  0  0  0
 30 32  2  0  0  0  0
 31 33  1  0  0  0  0
 31 29  2  0  0  0  0
 32 28  1  0  0  0  0
 33 34  2  0  0  0  0
 34 32  1  0  0  0  0
 35 36  1  0  0  0  0
 36 37  1  0  0  0  0
 38 37  1  0  0  0  0
 39 42  1  0  0  0  0
 39 41  1  0  0  0  0
 40 39  2  0  0  0  0
 41 38  1  0  0  0  0
 43 42  1  0  0  0  0
 43 44  1  0  0  0  0
 44 45  2  0  0  0  0
 47 44  1  0  0  0  0
 47 46  1  0  0  0  0
 49 50  1  0  0  0  0
 50 52  1  0  0  0  0
 50 48  1  0  0  0  0
 51 50  1  0  0  0  0
 53 54  3  0  0  0  0
 54 52  1  0  0  0  0
M  END
>  <MODEL>
5

>  <REMARK>
 VINA RESULT:      -3.7      2.902      9.911
  Name = 
  19 active torsions:
  status: ('A' for Active; 'I' for Inactive)
    1  A    between atoms: C_3  and  N_4
    2  A    between atoms: C_3  and  C_10
    3  A    between atoms: C_6  and  O_16
    4  A    between atoms: C_6  and  C_32
    5  A    between atoms: C_6  and  C_54
    6  A    between atoms: C_8  and  C_39
    7  A    between atoms: C_12  and  O_19
    8  A    between atoms: C_12  and  C_45
    9  A    between atoms: C_18  and  C_32
   10  A    between atoms: C_18  and  C_36
   11  A    between atoms: O_19  and  C_33
   12  A    between atoms: C_22  and  C_54
   13  A    between atoms: C_24  and  C_30
   14  A    between atoms: C_24  and  C_48
   15  A    between atoms: C_29  and  C_44
   16  A    between atoms: C_33  and  C_50
   17  A    between atoms: C_38  and  O_51
   18  A    between atoms: N_42  and  C_45
   19  A    between atoms: C_48  and  O_51
                            x       y       z     vdW  Elec       q    Type
                         _______ _______ _______ _____ _____    ______ ____

>  <TORSDO>
F 19

$$$$
=
 OpenBabel11072410373D

 54 57  0  0  1  0  0  0  0  0999 V2000
  161.5910  207.8870  154.5280 O   0  0  0  0  0  0  0  0  0  0  0  0
  160.4610  207.1570  154.1250 C   0  0  0  0  0  2  0  0  0  0  0  0
  161.4760  209.0410  152.3900 C   0  0  0  0  0  0  0  0  0  0  0  0
  161.4090  210.1870  151.7030 C   0  0  0  0  0  3  0  0  0  0  0  0
  161.5150  207.3420  150.5490 C   0  0  0  0  0  3  0  0  0  0  0  0
  162.0610  208.2080  149.5490 N   0  0  0  0  0  0  0  0  0  0  0  0
  161.5120  209.5110  149.2900 C   0  0  0  0  0  0  0  0  0  0  0  0
  161.2530  210.3870  150.2580 C   0  0  0  0  0  3  0  0  0  0  0  0
  162.8810  207.5840  148.5530 C   0  0  0  0  0  0  0  0  0  0  0  0
  160.7030  206.6010  152.7190 C   0  0  1  0  0  3  0  0  0  0  0  0
  164.1300  207.7830  148.5750 O   0  0  0  0  0  0  0  0  0  0  0  0
  161.2210  207.6920  151.8060 C   0  0  0  0  0  0  0  0  0  0  0  0
  161.5010  209.1480  153.9030 C   0  0  2  0  0  3  0  0  0  0  0  0
  162.9420  205.7570  146.9570 C   0  0  0  0  0  2  0  0  0  0  0  0
  160.9180  205.1690  145.1500 C   0  0  2  0  0  3  0  0  0  0  0  0
  161.8880  204.1020  145.7090 C   0  0  0  0  0  2  0  0  0  0  0  0
  163.1610  204.7190  146.2210 C   0  0  0  0  0  2  0  0  0  0  0  0
  160.8400  206.7600  147.1870 C   0  0  0  0  0  3  0  0  0  0  0  0
  160.2420  206.0550  146.1960 C   0  0  0  0  0  2  0  0  0  0  0  0
  162.2840  206.7230  147.5130 C   0  0  0  0  0  0  0  0  0  0  0  0
  159.9020  204.5200  144.3420 N   0  0  0  0  0  1  0  0  0  0  0  0
  161.3130  209.9700  147.8790 C   0  0  0  0  0  2  0  0  0  0  0  0
  161.8610  211.3880  147.6900 C   0  0  2  0  0  3  0  0  0  0  0  0
  162.8400  211.7830  148.6330 O   0  0  0  0  0  0  0  0  0  0  0  0
  163.7170  212.6970  148.0280 C   0  0  0  0  0  1  0  0  0  0  0  0
  161.1990  213.1620  146.2210 O   0  0  0  0  0  1  0  0  0  0  0  0
  160.8080  212.4570  147.3570 C   0  0  2  0  0  3  0  0  0  0  0  0
  160.5350  213.4330  148.4980 C   0  0  0  0  0  2  0  0  0  0  0  0
  157.2650  214.0330  150.3100 C   0  0  0  0  0  3  0  0  0  0  0  0
  158.6340  213.9310  150.0450 C   0  0  0  0  0  3  0  0  0  0  0  0
  156.3370  213.7520  149.3050 C   0  0  0  0  0  3  0  0  0  0  0  0
  159.0760  213.5390  148.7760 C   0  0  0  0  0  0  0  0  0  0  0  0
  156.7780  213.3670  148.0350 C   0  0  0  0  0  3  0  0  0  0  0  0
  158.1460  213.2590  147.7700 C   0  0  0  0  0  3  0  0  0  0  0  0
  162.6580  210.0280  154.3720 C   0  0  0  0  0  2  0  0  0  0  0  0
  162.7440  210.0030  155.7640 O   0  0  0  0  0  0  0  0  0  0  0  0
  162.0540  211.1400  156.1890 C   0  0  0  0  0  2  0  0  0  0  0  0
  160.8210  210.7340  156.9820 C   0  0  0  0  0  2  0  0  0  0  0  0
  158.6470  212.0170  156.7740 C   0  0  0  0  0  0  0  0  0  0  0  0
  158.1000  211.0700  156.1460 O   0  0  0  0  0  0  0  0  0  0  0  0
  159.9850  211.8950  157.2610 N   0  0  0  0  0  2  0  0  0  0  0  0
  157.8710  213.2520  157.0690 C   0  0  0  0  0  2  0  0  0  0  0  0
  156.9690  213.5340  155.9630 N   0  0  0  0  0  2  0  0  0  0  0  0
  157.4220  214.0980  154.7310 C   0  0  0  0  0  0  0  0  0  0  0  0
  158.6370  214.3920  154.5710 O   0  0  0  0  0  0  0  0  0  0  0  0
  155.0310  214.2250  154.1630 C   0  0  0  0  0  1  0  0  0  0  0  0
  156.4450  214.3680  153.6380 C   0  0  0  0  0  2  0  0  0  0  0  0
  161.6820  205.4230  152.7790 C   0  0  0  0  0  2  0  0  0  0  0  0
  162.2040  203.2940  151.8720 O   0  0  0  0  0  1  0  0  0  0  0  0
  161.1370  204.1570  152.1200 C   0  0  0  0  0  0  0  0  0  0  0  0
  160.2420  203.5240  152.9880 O   0  0  0  0  0  1  0  0  0  0  0  0
  160.5150  204.4870  150.8740 O   0  0  0  0  0  0  0  0  0  0  0  0
  160.9470  203.1950  148.7420 N   0  0  0  0  0  0  0  0  0  0  0  0
  160.7470  203.7850  149.7170 C   0  0  0  0  0  0  0  0  0  0  0  0
  2  1  1  0  0  0  0
  3 13  1  0  0  0  0
  4  3  2  0  0  0  0
  5 12  2  0  0  0  0
  6  5  1  0  0  0  0
  7  6  1  0  0  0  0
  7  8  2  0  0  0  0
  8  4  1  0  0  0  0
  9 11  2  0  0  0  0
  9  6  1  0  0  0  0
 10 48  1  1  0  0  0
 10  2  1  0  0  0  0
 12  3  1  0  0  0  0
 12 10  1  0  0  0  0
 13 35  1  6  0  0  0
 13  1  1  0  0  0  0
 14 20  1  0  0  0  0
 15 21  1  1  0  0  0
 15 16  1  0  0  0  0
 15 19  1  0  0  0  0
 16 17  1  0  0  0  0
 17 14  1  0  0  0  0
 18 20  2  0  0  0  0
 19 18  1  0  0  0  0
 20  9  1  0  0  0  0
 22  7  1  0  0  0  0
 23 22  1  1  0  0  0
 23 24  1  0  0  0  0
 25 24  1  0  0  0  0
 27 26  1  6  0  0  0
 27 23  1  0  0  0  0
 27 28  1  0  0  0  0
 28 32  1  0  0  0  0
 30 29  1  0  0  0  0
 31 29  2  0  0  0  0
 32 30  2  0  0  0  0
 33 31  1  0  0  0  0
 34 33  2  0  0  0  0
 34 32  1  0  0  0  0
 35 36  1  0  0  0  0
 36 37  1  0  0  0  0
 37 38  1  0  0  0  0
 38 41  1  0  0  0  0
 39 42  1  0  0  0  0
 39 41  1  0  0  0  0
 40 39  2  0  0  0  0
 43 42  1  0  0  0  0
 44 43  1  0  0  0  0
 45 44  2  0  0  0  0
 47 46  1  0  0  0  0
 47 44  1  0  0  0  0
 49 50  1  0  0  0  0
 50 48  1  0  0  0  0
 50 51  1  0  0  0  0
 52 50  1  0  0  0  0
 53 54  3  0  0  0  0
 54 52  1  0  0  0  0
M  END
>  <MODEL>
6

>  <REMARK>
 VINA RESULT:      -3.7      3.408     10.045
  Name = 
  19 active torsions:
  status: ('A' for Active; 'I' for Inactive)
    1  A    between atoms: C_3  and  N_4
    2  A    between atoms: C_3  and  C_10
    3  A    between atoms: C_6  and  O_16
    4  A    between atoms: C_6  and  C_32
    5  A    between atoms: C_6  and  C_54
    6  A    between atoms: C_8  and  C_39
    7  A    between atoms: C_12  and  O_19
    8  A    between atoms: C_12  and  C_45
    9  A    between atoms: C_18  and  C_32
   10  A    between atoms: C_18  and  C_36
   11  A    between atoms: O_19  and  C_33
   12  A    between atoms: C_22  and  C_54
   13  A    between atoms: C_24  and  C_30
   14  A    between atoms: C_24  and  C_48
   15  A    between atoms: C_29  and  C_44
   16  A    between atoms: C_33  and  C_50
   17  A    between atoms: C_38  and  O_51
   18  A    between atoms: N_42  and  C_45
   19  A    between atoms: C_48  and  O_51
                            x       y       z     vdW  Elec       q    Type
                         _______ _______ _______ _____ _____    ______ ____

>  <TORSDO>
F 19

$$$$
=
 OpenBabel11072410373D

 54 57  0  0  1  0  0  0  0  0999 V2000
  161.8290  204.7800  149.8220 O   0  0  0  0  0  0  0  0  0  0  0  0
  160.8560  205.0660  148.8520 C   0  0  0  0  0  2  0  0  0  0  0  0
  161.2150  206.8710  150.9020 C   0  0  0  0  0  0  0  0  0  0  0  0
  160.8140  207.5260  151.9980 C   0  0  0  0  0  3  0  0  0  0  0  0
  161.4270  208.7340  149.2410 C   0  0  0  0  0  3  0  0  0  0  0  0
  161.6470  209.7740  150.1990 N   0  0  0  0  0  0  0  0  0  0  0  0
  160.7930  209.9460  151.3430 C   0  0  0  0  0  0  0  0  0  0  0  0
  160.4530  208.9400  152.1450 C   0  0  0  0  0  3  0  0  0  0  0  0
  162.4690  210.8660  149.7690 C   0  0  0  0  0  0  0  0  0  0  0  0
  161.0550  206.5000  148.3540 C   0  0  1  0  0  3  0  0  0  0  0  0
  163.6340  210.9810  150.2450 O   0  0  0  0  0  0  0  0  0  0  0  0
  161.2070  207.4460  149.5260 C   0  0  0  0  0  0  0  0  0  0  0  0
  161.3860  205.3680  151.0250 C   0  0  2  0  0  3  0  0  0  0  0  0
  162.4960  213.0210  148.6530 C   0  0  0  0  0  2  0  0  0  0  0  0
  160.5980  213.8730  146.8140 C   0  0  2  0  0  3  0  0  0  0  0  0
  162.0630  214.3690  146.8080 C   0  0  0  0  0  2  0  0  0  0  0  0
  162.7180  214.1890  148.1510 C   0  0  0  0  0  2  0  0  0  0  0  0
  160.9760  211.4900  147.7450 C   0  0  0  0  0  3  0  0  0  0  0  0
  160.4180  212.3560  146.8640 C   0  0  0  0  0  2  0  0  0  0  0  0
  161.9670  211.8480  148.7860 C   0  0  0  0  0  0  0  0  0  0  0  0
  159.9060  214.4000  145.6520 N   0  0  0  0  0  1  0  0  0  0  0  0
  160.3360  211.3180  151.7330 C   0  0  0  0  0  2  0  0  0  0  0  0
  160.6750  211.6020  153.1990 C   0  0  2  0  0  3  0  0  0  0  0  0
  161.2950  210.5340  153.8900 O   0  0  0  0  0  0  0  0  0  0  0  0
  161.6320  210.9580  155.1840 C   0  0  0  0  0  1  0  0  0  0  0  0
  158.7780  211.4230  154.6540 O   0  0  0  0  0  1  0  0  0  0  0  0
  159.5850  212.3450  153.9890 C   0  0  2  0  0  3  0  0  0  0  0  0
  158.7170  213.2630  153.1330 C   0  0  0  0  0  2  0  0  0  0  0  0
  156.4130  214.4530  155.8920 C   0  0  0  0  0  3  0  0  0  0  0  0
  157.5660  214.0680  155.2040 C   0  0  0  0  0  3  0  0  0  0  0  0
  155.1770  214.4530  155.2400 C   0  0  0  0  0  3  0  0  0  0  0  0
  157.4850  213.6720  153.8640 C   0  0  0  0  0  0  0  0  0  0  0  0
  155.0970  214.0640  153.8990 C   0  0  0  0  0  3  0  0  0  0  0  0
  156.2480  213.6720  153.2110 C   0  0  0  0  0  3  0  0  0  0  0  0
  162.3610  205.0170  152.1480 C   0  0  0  0  0  2  0  0  0  0  0  0
  161.7880  204.0720  152.9990 O   0  0  0  0  0  0  0  0  0  0  0  0
  160.6510  203.6210  152.3260 C   0  0  0  0  0  2  0  0  0  0  0  0
  160.7100  202.1110  152.1590 C   0  0  0  0  0  2  0  0  0  0  0  0
  160.8040  201.3830  149.7350 C   0  0  0  0  0  0  0  0  0  0  0  0
  159.5480  201.4310  149.6290 O   0  0  0  0  0  0  0  0  0  0  0  0
  161.4490  201.7560  150.9540 N   0  0  0  0  0  2  0  0  0  0  0  0
  161.6300  200.9960  148.5590 C   0  0  0  0  0  2  0  0  0  0  0  0
  160.8850  201.2590  147.3370 N   0  0  0  0  0  2  0  0  0  0  0  0
  160.8530  200.3370  146.2470 C   0  0  0  0  0  0  0  0  0  0  0  0
  161.4980  199.2550  146.3040 O   0  0  0  0  0  0  0  0  0  0  0  0
  159.9820  202.1730  144.8590 C   0  0  0  0  0  1  0  0  0  0  0  0
  160.0750  200.6700  145.0190 C   0  0  0  0  0  2  0  0  0  0  0  0
  162.2760  206.5710  147.4280 C   0  0  0  0  0  2  0  0  0  0  0  0
  163.7760  205.0810  146.3540 O   0  0  0  0  0  1  0  0  0  0  0  0
  162.4180  205.3440  146.5300 C   0  0  0  0  0  0  0  0  0  0  0  0
  161.8260  204.2380  147.1490 O   0  0  0  0  0  1  0  0  0  0  0  0
  161.8320  205.6050  145.2520 O   0  0  0  0  0  0  0  0  0  0  0  0
  159.3460  205.9450  144.9290 N   0  0  0  0  0  0  0  0  0  0  0  0
  160.4830  205.7910  145.0750 C   0  0  0  0  0  0  0  0  0  0  0  0
  1 13  1  0  0  0  0
  2  1  1  0  0  0  0
  3 13  1  0  0  0  0
  3  4  2  0  0  0  0
  4  8  1  0  0  0  0
  5 12  2  0  0  0  0
  5  6  1  0  0  0  0
  6  7  1  0  0  0  0
  7 22  1  0  0  0  0
  7  8  2  0  0  0  0
  9  6  1  0  0  0  0
  9 11  2  0  0  0  0
 10 48  1  6  0  0  0
 10  2  1  0  0  0  0
 10 12  1  0  0  0  0
 12  3  1  0  0  0  0
 13 35  1  1  0  0  0
 14 20  1  0  0  0  0
 15 21  1  6  0  0  0
 15 19  1  0  0  0  0
 16 15  1  0  0  0  0
 16 17  1  0  0  0  0
 17 14  1  0  0  0  0
 18 20  2  0  0  0  0
 19 18  1  0  0  0  0
 20  9  1  0  0  0  0
 23 22  1  6  0  0  0
 23 24  1  0  0  0  0
 23 27  1  0  0  0  0
 24 25  1  0  0  0  0
 27 26  1  6  0  0  0
 28 32  1  0  0  0  0
 28 27  1  0  0  0  0
 30 29  2  0  0  0  0
 31 29  1  0  0  0  0
 32 30  1  0  0  0  0
 33 31  2  0  0  0  0
 34 32  2  0  0  0  0
 34 33  1  0  0  0  0
 35 36  1  0  0  0  0
 37 36  1  0  0  0  0
 38 37  1  0  0  0  0
 39 41  1  0  0  0  0
 40 39  2  0  0  0  0
 41 38  1  0  0  0  0
 42 39  1  0  0  0  0
 43 42  1  0  0  0  0
 44 45  2  0  0  0  0
 44 43  1  0  0  0  0
 46 47  1  0  0  0  0
 47 44  1  0  0  0  0
 49 50  1  0  0  0  0
 50 51  1  0  0  0  0
 50 48  1  0  0  0  0
 52 50  1  0  0  0  0
 53 54  3  0  0  0  0
 54 52  1  0  0  0  0
M  END
>  <MODEL>
7

>  <REMARK>
 VINA RESULT:      -2.9      3.636     10.331
  Name = 
  19 active torsions:
  status: ('A' for Active; 'I' for Inactive)
    1  A    between atoms: C_3  and  N_4
    2  A    between atoms: C_3  and  C_10
    3  A    between atoms: C_6  and  O_16
    4  A    between atoms: C_6  and  C_32
    5  A    between atoms: C_6  and  C_54
    6  A    between atoms: C_8  and  C_39
    7  A    between atoms: C_12  and  O_19
    8  A    between atoms: C_12  and  C_45
    9  A    between atoms: C_18  and  C_32
   10  A    between atoms: C_18  and  C_36
   11  A    between atoms: O_19  and  C_33
   12  A    between atoms: C_22  and  C_54
   13  A    between atoms: C_24  and  C_30
   14  A    between atoms: C_24  and  C_48
   15  A    between atoms: C_29  and  C_44
   16  A    between atoms: C_33  and  C_50
   17  A    between atoms: C_38  and  O_51
   18  A    between atoms: N_42  and  C_45
   19  A    between atoms: C_48  and  O_51
                            x       y       z     vdW  Elec       q    Type
                         _______ _______ _______ _____ _____    ______ ____

>  <TORSDO>
F 19

$$$$
