=
 OpenBabel11072412413D

 31 34  0  0  1  0  0  0  0  0999 V2000
  161.5940  205.6900  152.0250 C   0  0  0  0  0  3  0  0  0  0  0  0
  160.5660  203.2630  149.2950 C   0  0  2  0  0  3  0  0  0  0  0  0
  161.1540  201.9520  151.3730 C   0  0  0  0  0  3  0  0  0  0  0  0
  161.2070  206.5210  151.0550 C   0  0  0  0  0  0  0  0  0  0  0  0
  160.8680  204.4660  150.1510 C   0  0  0  0  0  0  0  0  0  0  0  0
  161.5270  203.1830  152.1060 C   0  0  0  0  0  3  0  0  0  0  0  0
  160.7490  205.7550  149.8750 C   0  0  0  0  0  0  0  0  0  0  0  0
  160.7020  201.9870  150.1060 C   0  0  0  0  0  3  0  0  0  0  0  0
  161.3840  204.3520  151.4920 C   0  0  0  0  0  0  0  0  0  0  0  0
  161.4930  203.1980  148.1760 N   0  0  0  0  0  2  0  0  0  0  0  0
  161.1910  203.2220  145.5460 S   0  0  0  0  0  0  0  0  0  0  0  0
  161.1700  202.4720  146.9950 C   0  0  0  0  0  3  0  0  0  0  0  0
  160.2370  206.2570  148.6340 N   0  0  0  0  0  2  0  0  0  0  0  0
  161.9710  207.7590  147.6960 C   0  0  0  0  0  2  0  0  0  0  0  0
  160.4040  206.6210  146.2270 O   0  0  0  0  0  1  0  0  0  0  0  0
  161.0350  206.6000  147.4690 C   0  0  0  0  0  0  0  0  0  0  0  0
  162.5200  206.3430  147.5210 C   0  0  0  0  0  2  0  0  0  0  0  0
  161.2420  208.3010  151.2490 S   0  0  0  0  0  0  0  0  0  0  0  0
  161.3280  208.1980  152.9650 O   0  0  0  0  0  0  0  0  0  0  0  0
  160.2170  211.9410  154.5180 C   0  0  0  0  0  3  0  0  0  0  0  0
  160.5790  210.9690  155.3710 C   0  0  0  0  0  3  0  0  0  0  0  0
  160.1630  210.2720  152.6310 C   0  0  0  0  0  2  0  0  0  0  0  0
  161.2270  209.5170  153.4240 C   0  0  1  0  0  3  0  0  0  0  0  0
  159.1080  212.4120  152.4710 O   0  0  0  0  0  1  0  0  0  0  0  0
  160.2000  211.7440  153.0240 C   0  0  1  0  0  3  0  0  0  0  0  0
  160.9040  209.5560  154.9310 C   0  0  1  0  0  0  0  0  0  0  0  0
  162.0220  209.1130  155.6390 O   0  0  0  0  0  1  0  0  0  0  0  0
  159.7080  208.6390  155.2320 C   0  0  0  0  0  2  0  0  0  0  0  0
  160.5640  206.2930  155.3060 O   0  0  0  0  0  0  0  0  0  0  0  0
  159.9980  207.3810  157.2430 O   0  0  0  0  0  1  0  0  0  0  0  0
  160.0880  207.4050  155.9880 C   0  0  0  0  0  0  0  0  0  0  0  0
  2 10  1  6  0  0  0
  2  8  1  0  0  0  0
  2  5  1  0  0  0  0
  3  6  1  0  0  0  0
  4 18  1  0  0  0  0
  4  1  2  0  0  0  0
  5  9  1  0  0  0  0
  7  5  2  0  0  0  0
  7  4  1  0  0  0  0
  8  3  2  0  0  0  0
  9  1  1  0  0  0  0
  9  6  2  0  0  0  0
 11 12  2  0  0  0  0
 12 10  1  0  0  0  0
 13  7  1  0  0  0  0
 15 16  1  0  0  0  0
 16 17  1  0  0  0  0
 16 14  1  0  0  0  0
 16 13  1  0  0  0  0
 17 14  1  0  0  0  0
 18 19  1  0  0  0  0
 20 21  2  0  0  0  0
 22 25  1  0  0  0  0
 22 23  1  0  0  0  0
 23 19  1  6  0  0  0
 23 26  1  0  0  0  0
 25 24  1  1  0  0  0
 25 20  1  0  0  0  0
 26 28  1  0  0  0  0
 26 21  1  0  0  0  0
 26 27  1  1  0  0  0
 28 31  1  0  0  0  0
 29 31  2  0  0  0  0
 31 30  1  0  0  0  0
M  END
>  <MODEL>
1

>  <REMARK>
 VINA RESULT:      -7.5      0.000      0.000
  Name = 
  9 active torsions:
  status: ('A' for Active; 'I' for Inactive)
    1  A    between atoms: C_3  and  N_17
    2  A    between atoms: C_9  and  N_19
    3  A    between atoms: C_12  and  S_21
    4  A    between atoms: O_15  and  C_18
    5  A    between atoms: O_15  and  S_21
    6  A    between atoms: C_16  and  N_19
    7  A    between atoms: N_17  and  C_23
    8  A    between atoms: C_25  and  C_31
    9  A    between atoms: C_30  and  C_31
                            x       y       z     vdW  Elec       q    Type
                         _______ _______ _______ _____ _____    ______ ____

>  <TORSDO>
F 9

$$$$
=
 OpenBabel11072412413D

 31 34  0  0  1  0  0  0  0  0999 V2000
  161.4620  205.4280  151.9740 C   0  0  0  0  0  3  0  0  0  0  0  0
  160.6650  203.1840  149.0200 C   0  0  2  0  0  3  0  0  0  0  0  0
  161.2120  201.7380  151.0190 C   0  0  0  0  0  3  0  0  0  0  0  0
  161.0850  206.3170  151.0520 C   0  0  0  0  0  0  0  0  0  0  0  0
  160.8750  204.3270  149.9790 C   0  0  0  0  0  0  0  0  0  0  0  0
  161.4990  202.9220  151.8600 C   0  0  0  0  0  3  0  0  0  0  0  0
  160.7140  205.6280  149.7960 C   0  0  0  0  0  0  0  0  0  0  0  0
  160.8180  201.8540  149.7370 C   0  0  0  0  0  3  0  0  0  0  0  0
  161.3340  204.1290  151.3310 C   0  0  0  0  0  0  0  0  0  0  0  0
  161.6440  203.2430  147.9460 N   0  0  0  0  0  2  0  0  0  0  0  0
  160.7020  201.7260  145.9910 S   0  0  0  0  0  0  0  0  0  0  0  0
  161.2460  203.1460  146.5820 C   0  0  0  0  0  3  0  0  0  0  0  0
  160.2390  206.2050  148.5740 N   0  0  0  0  0  2  0  0  0  0  0  0
  161.7780  207.9980  147.8280 C   0  0  0  0  0  2  0  0  0  0  0  0
  160.5690  206.6590  146.1990 O   0  0  0  0  0  1  0  0  0  0  0  0
  161.0750  206.7080  147.4970 C   0  0  0  0  0  0  0  0  0  0  0  0
  162.5700  206.6980  147.6910 C   0  0  0  0  0  2  0  0  0  0  0  0
  161.0340  208.0760  151.3820 S   0  0  0  0  0  0  0  0  0  0  0  0
  161.7910  207.8960  152.9170 O   0  0  0  0  0  0  0  0  0  0  0  0
  159.4210  208.8640  156.2510 C   0  0  0  0  0  3  0  0  0  0  0  0
  159.8060  209.8490  155.4230 C   0  0  0  0  0  3  0  0  0  0  0  0
  161.0000  207.2720  155.0980 C   0  0  0  0  0  2  0  0  0  0  0  0
  160.7840  208.1400  153.8600 C   0  0  1  0  0  3  0  0  0  0  0  0
  160.0630  206.8070  157.2490 O   0  0  0  0  0  1  0  0  0  0  0  0
  159.7990  207.4220  156.0260 C   0  0  1  0  0  3  0  0  0  0  0  0
  160.7380  209.6310  154.2500 C   0  0  1  0  0  0  0  0  0  0  0  0
  160.2640  210.3630  153.1600 O   0  0  0  0  0  1  0  0  0  0  0  0
  162.1490  210.1170  154.6210 C   0  0  0  0  0  2  0  0  0  0  0  0
  161.6760  211.7520  156.4500 O   0  0  0  0  0  0  0  0  0  0  0  0
  162.8730  209.8450  156.8810 O   0  0  0  0  0  1  0  0  0  0  0  0
  162.2630  210.5610  156.0450 C   0  0  0  0  0  0  0  0  0  0  0  0
  2 10  1  6  0  0  0
  2  8  1  0  0  0  0
  2  5  1  0  0  0  0
  3  6  1  0  0  0  0
  4 18  1  0  0  0  0
  4  1  2  0  0  0  0
  5  9  1  0  0  0  0
  7  5  2  0  0  0  0
  7  4  1  0  0  0  0
  8  3  2  0  0  0  0
  9  6  2  0  0  0  0
  9  1  1  0  0  0  0
 11 12  2  0  0  0  0
 12 10  1  0  0  0  0
 13  7  1  0  0  0  0
 15 16  1  0  0  0  0
 16 17  1  0  0  0  0
 16 14  1  0  0  0  0
 16 13  1  0  0  0  0
 17 14  1  0  0  0  0
 18 19  1  0  0  0  0
 21 20  2  0  0  0  0
 22 25  1  0  0  0  0
 23 19  1  6  0  0  0
 23 26  1  0  0  0  0
 23 22  1  0  0  0  0
 25 20  1  0  0  0  0
 25 24  1  1  0  0  0
 26 27  1  6  0  0  0
 26 28  1  0  0  0  0
 26 21  1  0  0  0  0
 28 31  1  0  0  0  0
 31 29  2  0  0  0  0
 31 30  1  0  0  0  0
M  END
>  <MODEL>
2

>  <REMARK>
 VINA RESULT:      -7.3      1.106      2.555
  Name = 
  9 active torsions:
  status: ('A' for Active; 'I' for Inactive)
    1  A    between atoms: C_3  and  N_17
    2  A    between atoms: C_9  and  N_19
    3  A    between atoms: C_12  and  S_21
    4  A    between atoms: O_15  and  C_18
    5  A    between atoms: O_15  and  S_21
    6  A    between atoms: C_16  and  N_19
    7  A    between atoms: N_17  and  C_23
    8  A    between atoms: C_25  and  C_31
    9  A    between atoms: C_30  and  C_31
                            x       y       z     vdW  Elec       q    Type
                         _______ _______ _______ _____ _____    ______ ____

>  <TORSDO>
F 9

$$$$
=
 OpenBabel11072412413D

 31 34  0  0  1  0  0  0  0  0999 V2000
  161.7430  206.5090  152.6850 C   0  0  0  0  0  3  0  0  0  0  0  0
  160.5450  204.2810  149.8560 C   0  0  2  0  0  3  0  0  0  0  0  0
  160.8100  202.8800  151.9420 C   0  0  0  0  0  3  0  0  0  0  0  0
  161.5390  207.3960  151.7080 C   0  0  0  0  0  0  0  0  0  0  0  0
  160.9640  205.4200  150.7490 C   0  0  0  0  0  0  0  0  0  0  0  0
  161.3110  204.0370  152.7170 C   0  0  0  0  0  3  0  0  0  0  0  0
  161.0490  206.7150  150.4890 C   0  0  0  0  0  0  0  0  0  0  0  0
  160.4460  202.9910  150.6510 C   0  0  0  0  0  3  0  0  0  0  0  0
  161.3760  205.2210  152.1160 C   0  0  0  0  0  0  0  0  0  0  0  0
  161.5190  204.0920  148.7930 N   0  0  0  0  0  2  0  0  0  0  0  0
  161.5380  203.4960  146.2130 S   0  0  0  0  0  0  0  0  0  0  0  0
  161.3250  203.1080  147.7840 C   0  0  0  0  0  3  0  0  0  0  0  0
  160.6910  207.2970  149.2300 N   0  0  0  0  0  2  0  0  0  0  0  0
  162.9160  207.1140  148.1560 C   0  0  0  0  0  2  0  0  0  0  0  0
  161.7750  209.2580  148.2630 O   0  0  0  0  0  1  0  0  0  0  0  0
  161.6200  207.8730  148.2730 C   0  0  0  0  0  0  0  0  0  0  0  0
  161.9070  207.1050  147.0070 C   0  0  0  0  0  2  0  0  0  0  0  0
  161.8180  209.1500  151.9350 S   0  0  0  0  0  0  0  0  0  0  0  0
  160.1910  209.4320  152.4210 O   0  0  0  0  0  0  0  0  0  0  0  0
  160.8790  211.6820  155.9040 C   0  0  0  0  0  3  0  0  0  0  0  0
  159.8480  212.0170  155.1100 C   0  0  0  0  0  3  0  0  0  0  0  0
  161.7360  210.1080  154.1320 C   0  0  0  0  0  2  0  0  0  0  0  0
  160.2750  209.9730  153.7100 C   0  0  1  0  0  3  0  0  0  0  0  0
  163.1050  210.8540  155.9450 O   0  0  0  0  0  1  0  0  0  0  0  0
  161.7950  210.5260  155.5970 C   0  0  1  0  0  3  0  0  0  0  0  0
  159.5650  211.3390  153.7860 C   0  0  1  0  0  0  0  0  0  0  0  0
  158.1890  211.1350  153.6730 O   0  0  0  0  0  1  0  0  0  0  0  0
  160.0470  212.2420  152.6370 C   0  0  0  0  0  2  0  0  0  0  0  0
  158.6960  214.3310  152.8710 O   0  0  0  0  0  1  0  0  0  0  0  0
  158.3900  212.9490  151.0680 O   0  0  0  0  0  0  0  0  0  0  0  0
  158.9930  213.1840  152.1480 C   0  0  0  0  0  0  0  0  0  0  0  0
  2 10  1  6  0  0  0
  2  8  1  0  0  0  0
  2  5  1  0  0  0  0
  3  6  1  0  0  0  0
  4 18  1  0  0  0  0
  4  1  2  0  0  0  0
  5  9  1  0  0  0  0
  7  5  2  0  0  0  0
  7  4  1  0  0  0  0
  8  3  2  0  0  0  0
  9  1  1  0  0  0  0
  9  6  2  0  0  0  0
 11 12  2  0  0  0  0
 12 10  1  0  0  0  0
 13  7  1  0  0  0  0
 14 16  1  0  0  0  0
 15 16  1  0  0  0  0
 16 13  1  0  0  0  0
 17 14  1  0  0  0  0
 17 16  1  0  0  0  0
 18 19  1  0  0  0  0
 21 20  2  0  0  0  0
 22 25  1  0  0  0  0
 23 19  1  6  0  0  0
 23 26  1  0  0  0  0
 23 22  1  0  0  0  0
 25 20  1  0  0  0  0
 25 24  1  6  0  0  0
 26 27  1  6  0  0  0
 26 21  1  0  0  0  0
 28 26  1  0  0  0  0
 30 31  2  0  0  0  0
 31 28  1  0  0  0  0
 31 29  1  0  0  0  0
M  END
>  <MODEL>
3

>  <REMARK>
 VINA RESULT:      -6.9      1.827      3.282
  Name = 
  9 active torsions:
  status: ('A' for Active; 'I' for Inactive)
    1  A    between atoms: C_3  and  N_17
    2  A    between atoms: C_9  and  N_19
    3  A    between atoms: C_12  and  S_21
    4  A    between atoms: O_15  and  C_18
    5  A    between atoms: O_15  and  S_21
    6  A    between atoms: C_16  and  N_19
    7  A    between atoms: N_17  and  C_23
    8  A    between atoms: C_25  and  C_31
    9  A    between atoms: C_30  and  C_31
                            x       y       z     vdW  Elec       q    Type
                         _______ _______ _______ _____ _____    ______ ____

>  <TORSDO>
F 9

$$$$
=
 OpenBabel11072412413D

 31 34  0  0  1  0  0  0  0  0999 V2000
  161.5370  207.6300  151.1240 C   0  0  0  0  0  3  0  0  0  0  0  0
  161.1980  210.8500  153.1030 C   0  0  0  0  0  0  0  0  0  0  0  0
  160.5990  208.9050  154.6000 C   0  0  0  0  0  3  0  0  0  0  0  0
  161.9940  208.5330  150.2530 C   0  0  0  0  0  0  0  0  0  0  0  0
  161.4690  209.7810  152.0750 C   0  0  0  0  0  0  0  0  0  0  0  0
  160.7890  207.9330  153.4990 C   0  0  0  0  0  3  0  0  0  0  0  0
  161.9530  209.8870  150.8490 C   0  0  0  0  0  0  0  0  0  0  0  0
  160.8000  210.2240  154.4280 C   0  0  0  0  0  3  0  0  0  0  0  0
  161.1960  208.3870  152.3180 C   0  0  2  0  0  3  0  0  0  0  0  0
  160.1160  211.7120  152.6560 N   0  0  0  0  0  2  0  0  0  0  0  0
  157.8370  212.5300  153.7290 S   0  0  0  0  0  0  0  0  0  0  0  0
  158.7600  211.4150  152.9750 C   0  0  0  0  0  3  0  0  0  0  0  0
  162.3690  211.1270  150.2630 N   0  0  0  0  0  2  0  0  0  0  0  0
  162.4150  212.5390  148.2270 C   0  0  0  0  0  2  0  0  0  0  0  0
  160.6120  212.7680  149.8420 O   0  0  0  0  0  1  0  0  0  0  0  0
  161.5910  211.9200  149.3260 C   0  0  0  0  0  0  0  0  0  0  0  0
  161.4340  211.4080  147.9170 C   0  0  0  0  0  2  0  0  0  0  0  0
  162.5820  208.0800  148.6230 S   0  0  0  0  0  0  0  0  0  0  0  0
  161.1630  207.1730  148.2700 O   0  0  0  0  0  0  0  0  0  0  0  0
  161.6000  203.0000  148.0350 C   0  0  0  0  0  3  0  0  0  0  0  0
  161.9530  203.7470  146.9770 C   0  0  0  0  0  3  0  0  0  0  0  0
  160.5240  205.0130  149.1040 C   0  0  0  0  0  2  0  0  0  0  0  0
  161.5540  205.8300  148.3280 C   0  0  1  0  0  3  0  0  0  0  0  0
  160.0570  202.7820  149.8280 O   0  0  0  0  0  1  0  0  0  0  0  0
  161.0590  203.6000  149.3080 C   0  0  1  0  0  3  0  0  0  0  0  0
  161.7490  205.2470  146.9140 C   0  0  1  0  0  0  0  0  0  0  0  0
  162.8820  205.8290  146.3430 O   0  0  0  0  0  1  0  0  0  0  0  0
  160.5180  205.5590  146.0470 C   0  0  0  0  0  2  0  0  0  0  0  0
  161.3320  205.7000  143.6890 O   0  0  0  0  0  0  0  0  0  0  0  0
  160.0810  203.9070  144.3770 O   0  0  0  0  0  1  0  0  0  0  0  0
  160.6200  205.0080  144.6600 C   0  0  0  0  0  0  0  0  0  0  0  0
  2  8  2  0  0  0  0
  4  7  1  0  0  0  0
  4  1  2  0  0  0  0
  5  9  1  0  0  0  0
  5  2  1  0  0  0  0
  6  3  2  0  0  0  0
  7  5  2  0  0  0  0
  8  3  1  0  0  0  0
  9  1  1  1  0  0  0
  9  6  1  0  0  0  0
 10 12  1  0  0  0  0
 10  2  1  0  0  0  0
 12 11  2  0  0  0  0
 13  7  1  0  0  0  0
 14 16  1  0  0  0  0
 16 15  1  0  0  0  0
 16 13  1  0  0  0  0
 17 14  1  0  0  0  0
 17 16  1  0  0  0  0
 18  4  1  0  0  0  0
 19 18  1  0  0  0  0
 20 25  1  0  0  0  0
 21 20  2  0  0  0  0
 22 25  1  0  0  0  0
 23 19  1  6  0  0  0
 23 22  1  0  0  0  0
 25 24  1  6  0  0  0
 26 27  1  6  0  0  0
 26 21  1  0  0  0  0
 26 23  1  0  0  0  0
 28 26  1  0  0  0  0
 29 31  2  0  0  0  0
 30 31  1  0  0  0  0
 31 28  1  0  0  0  0
M  END
>  <MODEL>
4

>  <REMARK>
 VINA RESULT:      -6.6      3.620      8.294
  Name = 
  9 active torsions:
  status: ('A' for Active; 'I' for Inactive)
    1  A    between atoms: C_3  and  N_17
    2  A    between atoms: C_9  and  N_19
    3  A    between atoms: C_12  and  S_21
    4  A    between atoms: O_15  and  C_18
    5  A    between atoms: O_15  and  S_21
    6  A    between atoms: C_16  and  N_19
    7  A    between atoms: N_17  and  C_23
    8  A    between atoms: C_25  and  C_31
    9  A    between atoms: C_30  and  C_31
                            x       y       z     vdW  Elec       q    Type
                         _______ _______ _______ _____ _____    ______ ____

>  <TORSDO>
F 9

$$$$
=
 OpenBabel11072412413D

 31 34  0  0  1  0  0  0  0  0999 V2000
  161.5770  208.4750  149.0390 C   0  0  0  0  0  3  0  0  0  0  0  0
  161.6510  204.6820  149.1260 C   0  0  0  0  0  0  0  0  0  0  0  0
  161.2140  205.4360  146.7540 C   0  0  0  0  0  3  0  0  0  0  0  0
  161.9300  208.2390  150.3050 C   0  0  1  0  0  3  0  0  0  0  0  0
  161.7280  206.1580  149.4210 C   0  0  0  0  0  0  0  0  0  0  0  0
  161.2040  206.8610  147.1550 C   0  0  0  0  0  3  0  0  0  0  0  0
  162.0260  206.7830  150.5490 C   0  0  0  0  0  0  0  0  0  0  0  0
  161.4330  204.4480  147.6420 C   0  0  0  0  0  3  0  0  0  0  0  0
  161.4450  207.1620  148.4260 C   0  0  0  0  0  0  0  0  0  0  0  0
  160.5450  204.0820  149.8540 N   0  0  0  0  0  2  0  0  0  0  0  0
  160.2960  201.5040  149.3020 S   0  0  0  0  0  0  0  0  0  0  0  0
  160.6150  202.7390  150.3210 C   0  0  0  0  0  3  0  0  0  0  0  0
  162.3930  206.1080  151.7580 N   0  0  0  0  0  2  0  0  0  0  0  0
  161.7960  206.5320  154.1250 C   0  0  0  0  0  2  0  0  0  0  0  0
  161.1500  204.4500  153.0480 O   0  0  0  0  0  1  0  0  0  0  0  0
  161.4920  205.7880  152.8520 C   0  0  0  0  0  0  0  0  0  0  0  0
  160.5360  206.8540  153.3230 C   0  0  0  0  0  2  0  0  0  0  0  0
  162.2520  209.5600  151.4710 S   0  0  0  0  0  0  0  0  0  0  0  0
  160.5760  209.8540  151.7310 O   0  0  0  0  0  0  0  0  0  0  0  0
  160.6500  211.5780  155.5630 C   0  0  0  0  0  3  0  0  0  0  0  0
  159.6890  211.9540  154.7030 C   0  0  0  0  0  3  0  0  0  0  0  0
  161.8470  210.3690  153.7040 C   0  0  0  0  0  2  0  0  0  0  0  0
  160.4620  210.1920  153.0850 C   0  0  1  0  0  3  0  0  0  0  0  0
  162.9250  210.9240  155.7650 O   0  0  0  0  0  1  0  0  0  0  0  0
  161.7000  210.5560  155.2090 C   0  0  1  0  0  3  0  0  0  0  0  0
  159.6240  211.4720  153.2690 C   0  0  1  0  0  0  0  0  0  0  0  0
  158.2940  211.1850  152.9540 O   0  0  0  0  0  1  0  0  0  0  0  0
  160.1460  212.5770  152.3350 C   0  0  0  0  0  2  0  0  0  0  0  0
  158.5230  213.2510  150.5580 O   0  0  0  0  0  0  0  0  0  0  0  0
  158.6270  214.4100  152.5330 O   0  0  0  0  0  1  0  0  0  0  0  0
  159.0640  213.4710  151.8180 C   0  0  0  0  0  0  0  0  0  0  0  0
  1  4  1  0  0  0  0
  2  5  1  0  0  0  0
  2 10  1  0  0  0  0
  3  6  2  0  0  0  0
  3  8  1  0  0  0  0
  4  7  1  0  0  0  0
  4 18  1  6  0  0  0
  5  7  2  0  0  0  0
  6  9  1  0  0  0  0
  7 13  1  0  0  0  0
  8  2  2  0  0  0  0
  9  1  2  0  0  0  0
  9  5  1  0  0  0  0
 10 12  1  0  0  0  0
 11 12  2  0  0  0  0
 13 16  1  0  0  0  0
 16 15  1  0  0  0  0
 16 17  1  0  0  0  0
 16 14  1  0  0  0  0
 17 14  1  0  0  0  0
 18 19  1  0  0  0  0
 21 20  2  0  0  0  0
 22 25  1  0  0  0  0
 23 19  1  6  0  0  0
 23 26  1  0  0  0  0
 23 22  1  0  0  0  0
 25 20  1  0  0  0  0
 25 24  1  6  0  0  0
 26 27  1  6  0  0  0
 26 21  1  0  0  0  0
 28 26  1  0  0  0  0
 29 31  2  0  0  0  0
 31 28  1  0  0  0  0
 31 30  1  0  0  0  0
M  END
>  <MODEL>
5

>  <REMARK>
 VINA RESULT:      -6.6      2.267      4.604
  Name = 
  9 active torsions:
  status: ('A' for Active; 'I' for Inactive)
    1  A    between atoms: C_3  and  N_17
    2  A    between atoms: C_9  and  N_19
    3  A    between atoms: C_12  and  S_21
    4  A    between atoms: O_15  and  C_18
    5  A    between atoms: O_15  and  S_21
    6  A    between atoms: C_16  and  N_19
    7  A    between atoms: N_17  and  C_23
    8  A    between atoms: C_25  and  C_31
    9  A    between atoms: C_30  and  C_31
                            x       y       z     vdW  Elec       q    Type
                         _______ _______ _______ _____ _____    ______ ____

>  <TORSDO>
F 9

$$$$
=
 OpenBabel11072412413D

 31 34  0  0  1  0  0  0  0  0999 V2000
  161.9700  210.2080  150.1730 C   0  0  0  0  0  3  0  0  0  0  0  0
  159.9760  209.5250  153.3280 C   0  0  0  0  0  0  0  0  0  0  0  0
  160.0620  212.0210  152.9400 C   0  0  0  0  0  3  0  0  0  0  0  0
  161.9130  208.8740  150.1750 C   0  0  0  0  0  0  0  0  0  0  0  0
  160.7580  209.4500  152.0420 C   0  0  0  0  0  0  0  0  0  0  0  0
  160.9170  211.8560  151.7430 C   0  0  0  0  0  3  0  0  0  0  0  0
  161.1510  208.3940  151.3480 C   0  0  0  0  0  0  0  0  0  0  0  0
  159.6200  210.9660  153.6500 C   0  0  0  0  0  3  0  0  0  0  0  0
  161.2300  210.6260  151.3530 C   0  0  2  0  0  3  0  0  0  0  0  0
  160.7640  208.9890  154.4260 N   0  0  0  0  0  2  0  0  0  0  0  0
  160.4390  208.2070  156.9350 S   0  0  0  0  0  0  0  0  0  0  0  0
  160.4890  209.3530  155.7750 C   0  0  0  0  0  3  0  0  0  0  0  0
  160.8410  207.0440  151.7140 N   0  0  0  0  0  2  0  0  0  0  0  0
  161.5310  205.8590  153.7780 C   0  0  0  0  0  2  0  0  0  0  0  0
  163.1150  206.1940  151.9640 O   0  0  0  0  0  1  0  0  0  0  0  0
  161.7680  206.0970  152.3090 C   0  0  0  0  0  0  0  0  0  0  0  0
  161.2320  204.7610  152.7580 C   0  0  0  0  0  2  0  0  0  0  0  0
  162.6580  207.8820  148.8820 S   0  0  0  0  0  0  0  0  0  0  0  0
  161.1970  207.0220  148.5840 O   0  0  0  0  0  0  0  0  0  0  0  0
  161.5660  202.8790  147.9800 C   0  0  0  0  0  3  0  0  0  0  0  0
  161.9570  203.7130  147.0020 C   0  0  0  0  0  3  0  0  0  0  0  0
  160.5010  204.8080  149.2050 C   0  0  0  0  0  2  0  0  0  0  0  0
  161.5630  205.6720  148.5280 C   0  0  1  0  0  3  0  0  0  0  0  0
  159.9790  202.5310  149.7130 O   0  0  0  0  0  1  0  0  0  0  0  0
  161.0070  203.3730  149.2900 C   0  0  1  0  0  3  0  0  0  0  0  0
  161.7800  205.2160  147.0720 C   0  0  1  0  0  0  0  0  0  0  0  0
  162.9360  205.8250  146.5800 O   0  0  0  0  0  1  0  0  0  0  0  0
  160.5750  205.6290  146.2100 C   0  0  0  0  0  2  0  0  0  0  0  0
  160.0660  203.9140  144.4650 O   0  0  0  0  0  1  0  0  0  0  0  0
  161.2390  205.8080  143.9230 O   0  0  0  0  0  0  0  0  0  0  0  0
  160.6560  205.1250  144.8040 C   0  0  0  0  0  0  0  0  0  0  0  0
  1  4  2  0  0  0  0
  2  8  2  0  0  0  0
  2 10  1  0  0  0  0
  3  8  1  0  0  0  0
  4  7  1  0  0  0  0
  5  2  1  0  0  0  0
  6  3  2  0  0  0  0
  7 13  1  0  0  0  0
  7  5  2  0  0  0  0
  9  1  1  6  0  0  0
  9  6  1  0  0  0  0
  9  5  1  0  0  0  0
 10 12  1  0  0  0  0
 12 11  2  0  0  0  0
 13 16  1  0  0  0  0
 15 16  1  0  0  0  0
 16 17  1  0  0  0  0
 16 14  1  0  0  0  0
 17 14  1  0  0  0  0
 18  4  1  0  0  0  0
 19 18  1  0  0  0  0
 20 25  1  0  0  0  0
 21 26  1  0  0  0  0
 21 20  2  0  0  0  0
 22 25  1  0  0  0  0
 23 19  1  6  0  0  0
 23 22  1  0  0  0  0
 25 24  1  6  0  0  0
 26 27  1  6  0  0  0
 26 23  1  0  0  0  0
 28 26  1  0  0  0  0
 29 31  1  0  0  0  0
 30 31  2  0  0  0  0
 31 28  1  0  0  0  0
M  END
>  <MODEL>
6

>  <REMARK>
 VINA RESULT:      -6.5      2.938      8.409
  Name = 
  9 active torsions:
  status: ('A' for Active; 'I' for Inactive)
    1  A    between atoms: C_3  and  N_17
    2  A    between atoms: C_9  and  N_19
    3  A    between atoms: C_12  and  S_21
    4  A    between atoms: O_15  and  C_18
    5  A    between atoms: O_15  and  S_21
    6  A    between atoms: C_16  and  N_19
    7  A    between atoms: N_17  and  C_23
    8  A    between atoms: C_25  and  C_31
    9  A    between atoms: C_30  and  C_31
                            x       y       z     vdW  Elec       q    Type
                         _______ _______ _______ _____ _____    ______ ____

>  <TORSDO>
F 9

$$$$
=
 OpenBabel11072412413D

 31 34  0  0  1  0  0  0  0  0999 V2000
  161.0200  207.4250  151.9490 C   0  0  0  0  0  3  0  0  0  0  0  0
  161.5650  210.7390  153.7150 C   0  0  0  0  0  0  0  0  0  0  0  0
  160.8470  209.0160  155.4170 C   0  0  0  0  0  3  0  0  0  0  0  0
  161.5010  208.1830  150.9610 C   0  0  0  0  0  0  0  0  0  0  0  0
  161.4840  209.5920  152.7410 C   0  0  0  0  0  0  0  0  0  0  0  0
  160.6950  207.9760  154.3750 C   0  0  0  0  0  3  0  0  0  0  0  0
  161.7950  209.5470  151.4550 C   0  0  0  0  0  0  0  0  0  0  0  0
  161.2580  210.2640  155.1230 C   0  0  0  0  0  3  0  0  0  0  0  0
  161.0000  208.2880  153.1200 C   0  0  2  0  0  3  0  0  0  0  0  0
  160.6040  211.7710  153.3560 N   0  0  0  0  0  2  0  0  0  0  0  0
  158.0650  212.2250  153.9530 S   0  0  0  0  0  0  0  0  0  0  0  0
  159.2370  211.4510  153.1220 C   0  0  0  0  0  3  0  0  0  0  0  0
  162.3390  210.6560  150.7300 N   0  0  0  0  0  2  0  0  0  0  0  0
  162.5730  211.9480  148.6290 C   0  0  0  0  0  2  0  0  0  0  0  0
  160.6440  212.2840  150.0710 O   0  0  0  0  0  1  0  0  0  0  0  0
  161.6520  211.4010  149.6880 C   0  0  0  0  0  0  0  0  0  0  0  0
  161.6070  210.8100  148.3020 C   0  0  0  0  0  2  0  0  0  0  0  0
  161.7520  207.5510  149.3040 S   0  0  0  0  0  0  0  0  0  0  0  0
  160.3840  206.5110  149.4020 O   0  0  0  0  0  0  0  0  0  0  0  0
  161.9280  203.3210  147.1420 C   0  0  0  0  0  3  0  0  0  0  0  0
  161.3590  203.0570  148.3300 C   0  0  0  0  0  3  0  0  0  0  0  0
  161.8710  205.7880  147.6590 C   0  0  0  0  0  2  0  0  0  0  0  0
  160.6480  205.4620  148.5140 C   0  0  1  0  0  3  0  0  0  0  0  0
  163.2460  204.8790  145.9270 O   0  0  0  0  0  1  0  0  0  0  0  0
  162.0270  204.7180  146.5850 C   0  0  1  0  0  3  0  0  0  0  0  0
  160.8580  204.1350  149.2690 C   0  0  1  0  0  0  0  0  0  0  0  0
  159.6360  203.7270  149.8060 O   0  0  0  0  0  1  0  0  0  0  0  0
  161.8760  204.3360  150.4040 C   0  0  0  0  0  2  0  0  0  0  0  0
  160.9370  204.2650  152.7190 O   0  0  0  0  0  1  0  0  0  0  0  0
  161.7300  202.3540  151.7310 O   0  0  0  0  0  0  0  0  0  0  0  0
  161.5210  203.5930  151.6530 C   0  0  0  0  0  0  0  0  0  0  0  0
  2  8  2  0  0  0  0
  4  7  1  0  0  0  0
  4  1  2  0  0  0  0
  5  9  1  0  0  0  0
  5  2  1  0  0  0  0
  6  3  2  0  0  0  0
  7  5  2  0  0  0  0
  8  3  1  0  0  0  0
  9  1  1  1  0  0  0
  9  6  1  0  0  0  0
 10  2  1  0  0  0  0
 12 10  1  0  0  0  0
 12 11  2  0  0  0  0
 13  7  1  0  0  0  0
 14 16  1  0  0  0  0
 16 15  1  0  0  0  0
 16 13  1  0  0  0  0
 17 14  1  0  0  0  0
 17 16  1  0  0  0  0
 18 19  1  0  0  0  0
 18  4  1  0  0  0  0
 20 21  2  0  0  0  0
 21 26  1  0  0  0  0
 22 23  1  0  0  0  0
 23 26  1  0  0  0  0
 23 19  1  1  0  0  0
 25 24  1  1  0  0  0
 25 20  1  0  0  0  0
 25 22  1  0  0  0  0
 26 27  1  1  0  0  0
 26 28  1  0  0  0  0
 28 31  1  0  0  0  0
 31 30  2  0  0  0  0
 31 29  1  0  0  0  0
M  END
>  <MODEL>
7

>  <REMARK>
 VINA RESULT:      -6.3      3.003      7.440
  Name = 
  9 active torsions:
  status: ('A' for Active; 'I' for Inactive)
    1  A    between atoms: C_3  and  N_17
    2  A    between atoms: C_9  and  N_19
    3  A    between atoms: C_12  and  S_21
    4  A    between atoms: O_15  and  C_18
    5  A    between atoms: O_15  and  S_21
    6  A    between atoms: C_16  and  N_19
    7  A    between atoms: N_17  and  C_23
    8  A    between atoms: C_25  and  C_31
    9  A    between atoms: C_30  and  C_31
                            x       y       z     vdW  Elec       q    Type
                         _______ _______ _______ _____ _____    ______ ____

>  <TORSDO>
F 9

$$$$
=
 OpenBabel11072412413D

 31 34  0  0  1  0  0  0  0  0999 V2000
  161.2440  207.6760  152.9790 C   0  0  0  0  0  3  0  0  0  0  0  0
  160.1640  209.7850  155.9430 C   0  0  0  0  0  0  0  0  0  0  0  0
  160.3090  207.3690  156.6690 C   0  0  0  0  0  3  0  0  0  0  0  0
  161.3300  208.9110  152.4790 C   0  0  0  0  0  0  0  0  0  0  0  0
  160.6380  209.2570  154.6130 C   0  0  0  0  0  0  0  0  0  0  0  0
  160.6700  206.9270  155.3040 C   0  0  0  0  0  3  0  0  0  0  0  0
  160.9500  209.9080  153.5050 C   0  0  0  0  0  0  0  0  0  0  0  0
  160.0950  208.6650  156.9660 C   0  0  0  0  0  3  0  0  0  0  0  0
  160.8110  207.8490  154.3570 C   0  0  2  0  0  3  0  0  0  0  0  0
  158.8380  210.3680  155.8080 N   0  0  0  0  0  0  0  0  0  0  0  0
  157.0250  212.1920  156.4340 S   0  0  0  0  0  1  0  0  0  0  0  0
  158.3360  211.2820  156.7760 C   0  0  0  0  0  3  0  0  0  0  0  0
  160.9250  211.3350  153.3880 N   0  0  0  0  0  2  0  0  0  0  0  0
  158.5630  211.6350  152.7010 C   0  0  0  0  0  2  0  0  0  0  0  0
  160.3670  212.4260  151.2770 O   0  0  0  0  0  1  0  0  0  0  0  0
  159.9900  212.0990  152.5790 C   0  0  0  0  0  0  0  0  0  0  0  0
  158.9910  212.9810  153.2840 C   0  0  0  0  0  2  0  0  0  0  0  0
  161.8670  209.2290  150.8000 S   0  0  0  0  0  0  0  0  0  0  0  0
  162.4480  207.6230  150.5920 O   0  0  0  0  0  0  0  0  0  0  0  0
  160.8610  205.4180  147.3840 C   0  0  0  0  0  3  0  0  0  0  0  0
  160.4370  205.1460  148.6290 C   0  0  0  0  0  3  0  0  0  0  0  0
  162.6940  206.8720  148.3230 C   0  0  0  0  0  2  0  0  0  0  0  0
  161.7440  207.1110  149.4940 C   0  0  1  0  0  3  0  0  0  0  0  0
  162.7320  206.0670  146.0710 O   0  0  0  0  0  1  0  0  0  0  0  0
  161.8810  206.4900  147.0920 C   0  0  1  0  0  3  0  0  0  0  0  0
  161.0090  205.8080  149.8650 C   0  0  1  0  0  0  0  0  0  0  0  0
  159.9590  206.1180  150.7320 O   0  0  0  0  0  1  0  0  0  0  0  0
  161.9800  204.8400  150.5600 C   0  0  0  0  0  2  0  0  0  0  0  0
  160.8510  202.6600  151.0250 O   0  0  0  0  0  0  0  0  0  0  0  0
  161.1480  204.1920  152.7040 O   0  0  0  0  0  1  0  0  0  0  0  0
  161.2980  203.8880  151.4910 C   0  0  0  0  0  0  0  0  0  0  0  0
  2  8  2  0  0  0  0
  3  8  1  0  0  0  0
  4  1  2  0  0  0  0
  4  7  1  0  0  0  0
  5  2  1  0  0  0  0
  6  3  2  0  0  0  0
  7  5  2  0  0  0  0
  9  1  1  1  0  0  0
  9  5  1  0  0  0  0
  9  6  1  0  0  0  0
 10  2  1  0  0  0  0
 10 12  2  0  0  0  0
 11 12  1  0  0  0  0
 13  7  1  0  0  0  0
 14 17  1  0  0  0  0
 15 16  1  0  0  0  0
 16 14  1  0  0  0  0
 16 17  1  0  0  0  0
 16 13  1  0  0  0  0
 18  4  1  0  0  0  0
 19 18  1  0  0  0  0
 20 21  2  0  0  0  0
 21 26  1  0  0  0  0
 22 23  1  0  0  0  0
 23 26  1  0  0  0  0
 23 19  1  1  0  0  0
 25 24  1  6  0  0  0
 25 20  1  0  0  0  0
 25 22  1  0  0  0  0
 26 28  1  0  0  0  0
 26 27  1  1  0  0  0
 28 31  1  0  0  0  0
 29 31  2  0  0  0  0
 31 30  1  0  0  0  0
M  END
>  <MODEL>
8

>  <REMARK>
 VINA RESULT:      -6.1      3.309      7.633
  Name = 
  9 active torsions:
  status: ('A' for Active; 'I' for Inactive)
    1  A    between atoms: C_3  and  N_17
    2  A    between atoms: C_9  and  N_19
    3  A    between atoms: C_12  and  S_21
    4  A    between atoms: O_15  and  C_18
    5  A    between atoms: O_15  and  S_21
    6  A    between atoms: C_16  and  N_19
    7  A    between atoms: N_17  and  C_23
    8  A    between atoms: C_25  and  C_31
    9  A    between atoms: C_30  and  C_31
                            x       y       z     vdW  Elec       q    Type
                         _______ _______ _______ _____ _____    ______ ____

>  <TORSDO>
F 9

$$$$
=
 OpenBabel11072412413D

 31 34  0  0  1  0  0  0  0  0999 V2000
  162.2180  210.1120  152.9980 C   0  0  0  0  0  3  0  0  0  0  0  0
  159.4130  211.6040  155.0720 C   0  0  0  0  0  0  0  0  0  0  0  0
  161.2400  210.8070  156.6240 C   0  0  0  0  0  3  0  0  0  0  0  0
  161.4040  210.5860  152.0520 C   0  0  0  0  0  0  0  0  0  0  0  0
  160.3420  211.1360  153.9820 C   0  0  0  0  0  0  0  0  0  0  0  0
  162.0410  210.2830  155.4950 C   0  0  0  0  0  3  0  0  0  0  0  0
  160.2230  211.2310  152.6670 C   0  0  0  0  0  0  0  0  0  0  0  0
  160.0570  211.4210  156.4340 C   0  0  0  0  0  3  0  0  0  0  0  0
  161.5800  210.4520  154.2600 C   0  0  2  0  0  3  0  0  0  0  0  0
  158.1770  210.8380  155.0410 N   0  0  0  0  0  2  0  0  0  0  0  0
  156.7560  213.0530  155.3310 S   0  0  0  0  0  0  0  0  0  0  0  0
  156.9150  211.4840  154.9120 C   0  0  0  0  0  3  0  0  0  0  0  0
  159.1250  211.8790  152.0140 N   0  0  0  0  0  2  0  0  0  0  0  0
  159.9980  213.7260  150.6110 C   0  0  0  0  0  2  0  0  0  0  0  0
  158.9560  214.1980  152.7570 O   0  0  0  0  0  1  0  0  0  0  0  0
  159.0480  213.2960  151.6980 C   0  0  0  0  0  0  0  0  0  0  0  0
  158.4920  213.6980  150.3560 C   0  0  0  0  0  2  0  0  0  0  0  0
  161.7790  210.4440  150.3070 S   0  0  0  0  0  0  0  0  0  0  0  0
  162.5490  208.9180  150.5100 O   0  0  0  0  0  0  0  0  0  0  0  0
  160.8940  205.6480  148.4510 C   0  0  0  0  0  3  0  0  0  0  0  0
  160.5800  205.8230  149.7450 C   0  0  0  0  0  3  0  0  0  0  0  0
  162.6830  207.4140  148.6410 C   0  0  0  0  0  2  0  0  0  0  0  0
  161.8060  208.0190  149.7340 C   0  0  1  0  0  3  0  0  0  0  0  0
  162.6150  205.8570  146.8270 O   0  0  0  0  0  1  0  0  0  0  0  0
  161.8120  206.5830  147.7060 C   0  0  1  0  0  3  0  0  0  0  0  0
  161.1920  206.9080  150.6090 C   0  0  1  0  0  0  0  0  0  0  0  0
  160.1890  207.4660  151.4030 O   0  0  0  0  0  1  0  0  0  0  0  0
  162.2770  206.2920  151.5080 C   0  0  0  0  0  2  0  0  0  0  0  0
  161.8400  206.6470  153.9430 O   0  0  0  0  0  1  0  0  0  0  0  0
  161.2080  204.6930  152.9250 O   0  0  0  0  0  0  0  0  0  0  0  0
  161.7510  205.8240  152.8280 C   0  0  0  0  0  0  0  0  0  0  0  0
  2  8  2  0  0  0  0
  4  7  1  0  0  0  0
  4  1  2  0  0  0  0
  5  9  1  0  0  0  0
  5  2  1  0  0  0  0
  6  3  2  0  0  0  0
  7  5  2  0  0  0  0
  8  3  1  0  0  0  0
  9  1  1  6  0  0  0
  9  6  1  0  0  0  0
 10  2  1  0  0  0  0
 12 10  1  0  0  0  0
 12 11  2  0  0  0  0
 13  7  1  0  0  0  0
 14 16  1  0  0  0  0
 16 13  1  0  0  0  0
 16 15  1  0  0  0  0
 17 14  1  0  0  0  0
 17 16  1  0  0  0  0
 18 19  1  0  0  0  0
 18  4  1  0  0  0  0
 20 21  2  0  0  0  0
 21 26  1  0  0  0  0
 22 23  1  0  0  0  0
 23 19  1  1  0  0  0
 23 26  1  0  0  0  0
 25 24  1  6  0  0  0
 25 20  1  0  0  0  0
 25 22  1  0  0  0  0
 26 27  1  1  0  0  0
 26 28  1  0  0  0  0
 28 31  1  0  0  0  0
 31 30  2  0  0  0  0
 31 29  1  0  0  0  0
M  END
>  <MODEL>
9

>  <REMARK>
 VINA RESULT:      -6.0      3.393      7.777
  Name = 
  9 active torsions:
  status: ('A' for Active; 'I' for Inactive)
    1  A    between atoms: C_3  and  N_17
    2  A    between atoms: C_9  and  N_19
    3  A    between atoms: C_12  and  S_21
    4  A    between atoms: O_15  and  C_18
    5  A    between atoms: O_15  and  S_21
    6  A    between atoms: C_16  and  N_19
    7  A    between atoms: N_17  and  C_23
    8  A    between atoms: C_25  and  C_31
    9  A    between atoms: C_30  and  C_31
                            x       y       z     vdW  Elec       q    Type
                         _______ _______ _______ _____ _____    ______ ____

>  <TORSDO>
F 9

$$$$
