=
 OpenBabel11072411393D

 53 58  0  0  1  0  0  0  0  0999 V2000
  161.3820  206.6800  152.7630 P   0  0  2  0  0  0  0  0  0  0  0  0
  161.5510  206.6460  154.5740 C   0  0  0  0  0  1  0  0  0  0  0  0
  162.6790  207.1500  152.1320 O   0  0  0  0  0  0  0  0  0  0  0  0
  160.1090  207.7240  152.3000 O   0  0  0  0  0  0  0  0  0  0  0  0
  160.6350  209.0210  152.3040 C   0  0  0  0  0  2  0  0  0  0  0  0
  160.0730  209.8270  153.4720 C   0  0  0  0  0  2  0  0  0  0  0  0
  156.0110  213.8810  150.0170 C   0  0  0  0  0  1  0  0  0  0  0  0
  156.2940  212.3760  155.3310 C   0  0  2  0  0  3  0  0  0  0  0  0
  157.0410  213.9800  151.1200 C   0  0  2  0  0  3  0  0  0  0  0  0
  160.1400  211.3570  153.3380 C   0  0  2  0  0  3  0  0  0  0  0  0
  160.7600  213.2900  151.0850 O   0  0  0  0  0  1  0  0  0  0  0  0
  154.2210  214.1180  156.3780 C   0  0  0  0  0  3  0  0  0  0  0  0
  159.4060  214.1510  152.6900 O   0  0  0  0  0  1  0  0  0  0  0  0
  155.7940  213.5940  154.6690 N   0  0  0  0  0  0  0  0  0  0  0  0
  159.6470  212.0800  154.6040 C   0  0  2  0  0  3  0  0  0  0  0  0
  156.5230  214.1520  153.5370 C   0  0  0  0  0  2  0  0  0  0  0  0
  160.7250  212.1940  155.6720 C   0  0  0  0  0  1  0  0  0  0  0  0
  158.8860  214.4510  149.6550 O   0  0  0  0  0  1  0  0  0  0  0  0
  159.2440  211.7850  152.1650 C   0  0  2  0  0  3  0  0  0  0  0  0
  158.4140  213.5170  150.5870 C   0  0  1  0  0  3  0  0  0  0  0  0
  155.4080  211.9470  156.4720 C   0  0  0  0  0  0  0  0  0  0  0  0
  155.6990  210.5460  157.2600 S   0  0  0  0  0  0  0  0  0  0  0  0
  159.3520  210.8880  151.0790 O   0  0  0  0  0  1  0  0  0  0  0  0
  157.6100  212.5640  155.7700 O   0  0  0  0  0  0  0  0  0  0  0  0
  158.3260  211.5410  155.1450 C   0  0  0  0  0  2  0  0  0  0  0  0
  156.5360  213.2050  152.3350 C   0  0  0  0  0  2  0  0  0  0  0  0
  159.4860  213.2170  151.6560 C   0  0  0  0  0  0  0  0  0  0  0  0
  154.4370  212.8500  156.9980 N   0  0  0  0  0  2  0  0  0  0  0  0
  154.8580  214.4440  155.2970 N   0  0  0  0  0  0  0  0  0  0  0  0
  161.0430  205.0960  152.1950 O   0  0  0  0  0  0  0  0  0  0  0  0
  160.8750  204.7290  149.6560 C   0  0  0  0  0  0  0  0  0  0  0  0
  160.9690  204.8770  150.8480 C   0  0  0  0  0  0  0  0  0  0  0  0
  161.0560  205.8740  147.4570 C   0  0  0  0  0  0  0  0  0  0  0  0
  161.2470  202.0600  148.3870 C   0  0  0  0  0  2  0  0  0  0  0  0
  161.3900  205.8400  146.1520 C   0  0  0  0  0  3  0  0  0  0  0  0
  161.5760  203.3910  147.6660 C   0  0  1  0  0  3  0  0  0  0  0  0
  161.1180  202.2770  145.5170 N   0  0  0  0  0  0  0  0  0  0  0  0
  160.8940  200.9090  147.4910 C   0  0  0  0  0  3  0  0  0  0  0  0
  161.4430  203.3550  146.1590 C   0  0  0  0  0  0  0  0  0  0  0  0
  160.7460  204.5800  148.1940 C   0  0  1  0  0  3  0  0  0  0  0  0
  161.5370  204.5950  145.4480 N   0  0  0  0  0  2  0  0  0  0  0  0
  160.8510  201.0340  146.1700 C   0  0  0  0  0  3  0  0  0  0  0  0
  160.8710  207.1970  148.1540 C   0  0  0  0  0  2  0  0  0  0  0  0
  161.6600  209.3200  148.6700 C   0  0  1  0  0  3  0  0  0  0  0  0
  161.9520  208.1420  147.8830 N   0  0  0  0  0  0  0  0  0  0  0  0
  162.5590  208.3900  149.1010 O   0  0  0  0  0  0  0  0  0  0  0  0
  162.4330  210.5460  148.2000 C   0  0  0  0  0  2  0  0  0  0  0  0
  159.5830  212.5720  147.0530 C   0  0  0  0  0  1  0  0  0  0  0  0
  162.4960  213.1050  148.0640 C   0  0  1  0  0  3  0  0  0  0  0  0
  161.9100  213.3170  146.6820 C   0  0  0  0  0  2  0  0  0  0  0  0
  161.0130  212.1060  146.8770 C   0  0  1  0  0  3  0  0  0  0  0  0
  161.6330  211.8580  148.2450 C   0  0  1  0  0  3  0  0  0  0  0  0
  163.8720  212.8210  147.9790 O   0  0  0  0  0  1  0  0  0  0  0  0
  1  2  1  1  0  0  0
  3  1  2  0  0  0  0
  4  5  1  0  0  0  0
  4  1  1  0  0  0  0
  5  6  1  0  0  0  0
  8 24  1  1  0  0  0
  8 21  1  0  0  0  0
  9  7  1  6  0  0  0
  9 26  1  0  0  0  0
 10  6  1  1  0  0  0
 10 15  1  0  0  0  0
 11 27  1  0  0  0  0
 12 28  1  0  0  0  0
 14 29  1  0  0  0  0
 14  8  1  0  0  0  0
 15 25  1  0  0  0  0
 15 17  1  1  0  0  0
 16 14  1  0  0  0  0
 19 23  1  6  0  0  0
 19 10  1  0  0  0  0
 20 18  1  6  0  0  0
 20  9  1  0  0  0  0
 20 27  1  0  0  0  0
 21 28  1  0  0  0  0
 21 22  2  0  0  0  0
 25 24  1  0  0  0  0
 26 16  1  0  0  0  0
 27 19  1  0  0  0  0
 27 13  1  0  0  0  0
 29 12  2  0  0  0  0
 30  1  1  0  0  0  0
 31 32  3  0  0  0  0
 32 30  1  0  0  0  0
 33 43  1  0  0  0  0
 33 40  1  0  0  0  0
 35 33  2  0  0  0  0
 36 40  1  0  0  0  0
 36 34  1  1  0  0  0
 37 39  2  0  0  0  0
 37 42  1  0  0  0  0
 38 34  1  0  0  0  0
 39 36  1  0  0  0  0
 40 31  1  1  0  0  0
 41 35  1  0  0  0  0
 41 39  1  0  0  0  0
 42 38  2  0  0  0  0
 44 47  1  6  0  0  0
 44 46  1  0  0  0  0
 45 43  1  0  0  0  0
 45 44  1  0  0  0  0
 45 46  1  0  0  0  0
 49 53  1  6  0  0  0
 49 52  1  0  0  0  0
 50 51  1  0  0  0  0
 50 49  1  0  0  0  0
 51 48  1  1  0  0  0
 51 52  1  0  0  0  0
 52 47  1  6  0  0  0
M  END
>  <MODEL>
1

>  <REMARK>
 VINA RESULT:      -4.4      0.000      0.000
  Name = 
  11 active torsions:
  status: ('A' for Active; 'I' for Inactive)
    1  A    between atoms: C_1  and  C_14
    2  A    between atoms: C_1  and  N_16
    3  A    between atoms: C_6  and  C_10
    4  A    between atoms: C_6  and  C_24
    5  A    between atoms: C_9  and  C_32
    6  A    between atoms: P_12  and  O_35
    7  A    between atoms: P_12  and  O_53
    8  A    between atoms: C_24  and  O_35
    9  A    between atoms: C_31  and  C_44
   10  A    between atoms: C_32  and  C_39
   11  A    between atoms: C_43  and  O_53
                            x       y       z     vdW  Elec       q    Type
                         _______ _______ _______ _____ _____    ______ ____

>  <TORSDO>
F 11

$$$$
=
 OpenBabel11072411393D

 53 58  0  0  1  0  0  0  0  0999 V2000
  160.3680  207.5470  155.8270 P   0  0  2  0  0  0  0  0  0  0  0  0
  159.3770  206.4450  156.8840 C   0  0  0  0  0  1  0  0  0  0  0  0
  161.0490  208.6020  156.6780 O   0  0  0  0  0  0  0  0  0  0  0  0
  159.3780  208.3050  154.6580 O   0  0  0  0  0  0  0  0  0  0  0  0
  159.5650  209.6840  154.8110 C   0  0  0  0  0  2  0  0  0  0  0  0
  160.4650  210.2310  153.7060 C   0  0  0  0  0  2  0  0  0  0  0  0
  156.2110  213.6310  149.8050 C   0  0  0  0  0  1  0  0  0  0  0  0
  156.3870  212.5330  155.2220 C   0  0  2  0  0  3  0  0  0  0  0  0
  157.1760  213.9040  150.9370 C   0  0  2  0  0  3  0  0  0  0  0  0
  160.3980  211.7480  153.4620 C   0  0  2  0  0  3  0  0  0  0  0  0
  160.9400  213.5700  151.0990 O   0  0  0  0  0  1  0  0  0  0  0  0
  154.1160  214.1390  156.0570 C   0  0  0  0  0  3  0  0  0  0  0  0
  159.4400  214.4070  152.5820 O   0  0  0  0  0  1  0  0  0  0  0  0
  155.8080  213.6490  154.4540 N   0  0  0  0  0  0  0  0  0  0  0  0
  159.7830  212.5070  154.6510 C   0  0  2  0  0  3  0  0  0  0  0  0
  156.5340  214.1940  153.3130 C   0  0  0  0  0  2  0  0  0  0  0  0
  160.7950  212.7970  155.7490 C   0  0  0  0  0  1  0  0  0  0  0  0
  159.0350  214.4440  149.5150 O   0  0  0  0  0  1  0  0  0  0  0  0
  159.5210  212.0060  152.2270 C   0  0  2  0  0  3  0  0  0  0  0  0
  158.6080  213.5370  150.4940 C   0  0  1  0  0  3  0  0  0  0  0  0
  155.4930  212.1020  156.3560 C   0  0  0  0  0  0  0  0  0  0  0  0
  155.8740  210.7940  157.2560 S   0  0  0  0  0  0  0  0  0  0  0  0
  159.7600  211.0500  151.2140 O   0  0  0  0  0  1  0  0  0  0  0  0
  157.6590  212.8760  155.6980 O   0  0  0  0  0  0  0  0  0  0  0  0
  158.4930  211.8840  155.1780 C   0  0  0  0  0  2  0  0  0  0  0  0
  156.6890  213.1710  152.1860 C   0  0  0  0  0  2  0  0  0  0  0  0
  159.6540  213.4160  151.6230 C   0  0  0  0  0  0  0  0  0  0  0  0
  154.4200  212.9440  156.7760 N   0  0  0  0  0  2  0  0  0  0  0  0
  154.7700  214.4480  154.9800 N   0  0  0  0  0  0  0  0  0  0  0  0
  161.5780  206.6280  155.0280 O   0  0  0  0  0  0  0  0  0  0  0  0
  161.7100  206.7820  152.4660 C   0  0  0  0  0  0  0  0  0  0  0  0
  161.6760  206.7030  153.6670 C   0  0  0  0  0  0  0  0  0  0  0  0
  160.9010  205.7940  150.3320 C   0  0  0  0  0  0  0  0  0  0  0  0
  162.1440  209.4280  151.1680 C   0  0  0  0  0  2  0  0  0  0  0  0
  160.4570  205.9560  149.0700 C   0  0  0  0  0  3  0  0  0  0  0  0
  161.2970  208.3010  150.5250 C   0  0  1  0  0  3  0  0  0  0  0  0
  161.8700  209.2110  148.3090 N   0  0  0  0  0  0  0  0  0  0  0  0
  162.7710  210.3950  150.2070 C   0  0  0  0  0  3  0  0  0  0  0  0
  161.2660  208.3050  149.0120 C   0  0  0  0  0  0  0  0  0  0  0  0
  161.7180  206.8930  150.9940 C   0  0  1  0  0  3  0  0  0  0  0  0
  160.6710  207.1820  148.3510 N   0  0  0  0  0  2  0  0  0  0  0  0
  162.6200  210.2770  148.8940 C   0  0  0  0  0  3  0  0  0  0  0  0
  160.6940  204.4820  151.0420 C   0  0  0  0  0  2  0  0  0  0  0  0
  161.4150  203.2280  149.2250 C   0  0  1  0  0  3  0  0  0  0  0  0
  160.3090  203.3980  150.1410 N   0  0  0  0  0  0  0  0  0  0  0  0
  161.2620  202.4080  150.3030 O   0  0  0  0  0  0  0  0  0  0  0  0
  161.0270  202.4490  147.9740 C   0  0  0  0  0  2  0  0  0  0  0  0
  162.9440  204.9300  146.0480 C   0  0  0  0  0  1  0  0  0  0  0  0
  161.1160  202.4710  145.4130 C   0  0  1  0  0  3  0  0  0  0  0  0
  160.8660  203.9430  145.1470 C   0  0  0  0  0  2  0  0  0  0  0  0
  161.6180  204.3000  146.4170 C   0  0  1  0  0  3  0  0  0  0  0  0
  161.8290  202.8220  146.7170 C   0  0  1  0  0  3  0  0  0  0  0  0
  159.9000  201.7910  145.6100 O   0  0  0  0  0  1  0  0  0  0  0  0
  1  3  2  0  0  0  0
  1  2  1  1  0  0  0
  4  5  1  0  0  0  0
  4  1  1  0  0  0  0
  6  5  1  0  0  0  0
  8 24  1  1  0  0  0
  8 21  1  0  0  0  0
  9  7  1  6  0  0  0
  9 26  1  0  0  0  0
 10  6  1  1  0  0  0
 10 15  1  0  0  0  0
 11 27  1  0  0  0  0
 12 28  1  0  0  0  0
 14 29  1  0  0  0  0
 14  8  1  0  0  0  0
 15 25  1  0  0  0  0
 15 17  1  1  0  0  0
 16 14  1  0  0  0  0
 19 23  1  6  0  0  0
 19 10  1  0  0  0  0
 20 18  1  6  0  0  0
 20  9  1  0  0  0  0
 20 27  1  0  0  0  0
 21 28  1  0  0  0  0
 21 22  2  0  0  0  0
 25 24  1  0  0  0  0
 26 16  1  0  0  0  0
 27 19  1  0  0  0  0
 27 13  1  0  0  0  0
 29 12  2  0  0  0  0
 30  1  1  0  0  0  0
 31 32  3  0  0  0  0
 32 30  1  0  0  0  0
 33 40  1  0  0  0  0
 33 43  1  0  0  0  0
 35 33  2  0  0  0  0
 36 40  1  0  0  0  0
 36 34  1  6  0  0  0
 37 42  1  0  0  0  0
 37 39  2  0  0  0  0
 38 34  1  0  0  0  0
 39 36  1  0  0  0  0
 40 31  1  1  0  0  0
 41 39  1  0  0  0  0
 41 35  1  0  0  0  0
 42 38  2  0  0  0  0
 44 47  1  6  0  0  0
 44 45  1  0  0  0  0
 44 46  1  0  0  0  0
 45 46  1  0  0  0  0
 45 43  1  0  0  0  0
 49 53  1  1  0  0  0
 49 52  1  0  0  0  0
 50 49  1  0  0  0  0
 50 51  1  0  0  0  0
 51 48  1  6  0  0  0
 51 52  1  0  0  0  0
 52 47  1  1  0  0  0
M  END
>  <MODEL>
2

>  <REMARK>
 VINA RESULT:      -1.4      1.927      4.935
  Name = 
  11 active torsions:
  status: ('A' for Active; 'I' for Inactive)
    1  A    between atoms: C_1  and  C_14
    2  A    between atoms: C_1  and  N_16
    3  A    between atoms: C_6  and  C_10
    4  A    between atoms: C_6  and  C_24
    5  A    between atoms: C_9  and  C_32
    6  A    between atoms: P_12  and  O_35
    7  A    between atoms: P_12  and  O_53
    8  A    between atoms: C_24  and  O_35
    9  A    between atoms: C_31  and  C_44
   10  A    between atoms: C_32  and  C_39
   11  A    between atoms: C_43  and  O_53
                            x       y       z     vdW  Elec       q    Type
                         _______ _______ _______ _____ _____    ______ ____

>  <TORSDO>
F 11

$$$$
