=
 OpenBabel11072412043D

 45 51  0  0  1  0  0  0  0  0999 V2000
  161.1560  211.7440  150.6520 C   0  0  0  0  0  2  0  0  0  0  0  0
  161.4450  211.0830  152.9800 C   0  0  0  0  0  3  0  0  0  0  0  0
  158.4360  210.7370  152.9860 N   0  0  0  0  0  0  0  0  0  0  0  0
  158.7080  211.2600  154.2990 C   0  0  0  0  0  0  0  0  0  0  0  0
  161.9850  209.1190  156.1180 N   0  0  0  0  0  2  0  0  0  0  0  0
  161.4090  209.8360  149.1460 C   0  0  2  0  0  3  0  0  0  0  0  0
  161.6200  206.6150  151.0950 C   0  0  2  0  0  3  0  0  0  0  0  0
  162.2500  210.1470  155.1160 C   0  0  0  0  0  2  0  0  0  0  0  0
  162.1250  208.6390  149.0560 O   0  0  0  0  0  0  0  0  0  0  0  0
  158.8700  211.6280  157.0600 N   0  0  0  0  0  0  0  0  0  0  0  0
  161.3220  205.2320  151.7040 C   0  0  0  0  0  2  0  0  0  0  0  0
  161.5430  206.9360  156.7740 O   0  0  0  0  0  0  0  0  0  0  0  0
  163.7240  211.0040  147.8580 O   0  0  0  0  0  0  0  0  0  0  0  0
  161.6420  207.7570  152.1160 C   0  0  0  0  0  2  0  0  0  0  0  0
  159.9100  211.1500  154.9050 C   0  0  0  0  0  0  0  0  0  0  0  0
  161.5730  207.7750  155.8340 C   0  0  0  0  0  0  0  0  0  0  0  0
  159.3520  206.8280  150.1330 C   0  0  0  0  0  2  0  0  0  0  0  0
  161.0760  207.3740  154.4770 C   0  0  1  0  0  3  0  0  0  0  0  0
  161.6260  212.4490  147.9170 O   0  0  0  0  0  0  0  0  0  0  0  0
  157.5750  211.9340  155.0300 C   0  0  0  0  0  2  0  0  0  0  0  0
  160.6250  211.1920  151.9340 C   0  0  0  0  0  0  0  0  0  0  0  0
  162.2730  211.1260  148.2240 S   0  0  0  0  0  0  0  0  0  0  0  0
  160.6720  206.9470  149.9670 C   0  0  0  0  0  0  0  0  0  0  0  0
  160.6910  205.3400  153.0860 C   0  0  0  0  0  2  0  0  0  0  0  0
  161.0300  210.4070  154.2390 C   0  0  1  0  0  3  0  0  0  0  0  0
  162.2170  207.3510  153.4760 C   0  0  1  0  0  3  0  0  0  0  0  0
  162.1290  210.7760  149.9920 C   0  0  1  0  0  3  0  0  0  0  0  0
  160.0840  211.7600  156.2780 C   0  0  0  0  0  2  0  0  0  0  0  0
  159.2320  210.6980  151.9530 C   0  0  0  0  0  3  0  0  0  0  0  0
  161.1630  207.6670  148.7410 C   0  0  2  0  0  3  0  0  0  0  0  0
  161.6560  206.0410  154.0420 C   0  0  1  0  0  3  0  0  0  0  0  0
  157.7040  211.7120  156.5140 C   0  0  0  0  0  3  0  0  0  0  0  0
  161.6390  206.7150  147.6360 C   0  0  1  0  0  3  0  0  0  0  0  0
  162.5920  203.8270  146.3810 C   0  0  0  0  0  2  0  0  0  0  0  0
  161.5910  204.5400  149.0620 C   0  0  0  0  0  2  0  0  0  0  0  0
  161.8580  202.8170  147.2620 C   0  0  1  0  0  3  0  0  0  0  0  0
  163.3480  204.8400  147.2410 C   0  0  0  0  0  2  0  0  0  0  0  0
  162.4240  205.5390  148.2440 C   0  0  1  0  0  3  0  0  0  0  0  0
  160.8650  203.5330  148.1730 C   0  0  0  0  0  2  0  0  0  0  0  0
  161.1450  201.8160  146.4170 C   0  0  0  0  0  0  0  0  0  0  0  0
  161.1680  200.4310  146.7570 N   0  0  0  0  0  1  0  0  0  0  0  0
  160.5350  202.1930  145.3830 O   0  0  0  0  0  0  0  0  0  0  0  0
  160.5130  206.2750  146.7000 C   0  0  0  0  0  2  0  0  0  0  0  0
  160.9250  206.6550  144.9710 S   0  0  0  0  0  0  0  0  0  0  0  0
  160.4270  205.0120  144.3810 C   0  0  0  0  0  1  0  0  0  0  0  0
  1 21  1  0  0  0  0
  3  4  1  0  0  0  0
  4 15  2  0  0  0  0
  4 20  1  0  0  0  0
  6  9  1  6  0  0  0
  6 27  1  0  0  0  0
  7 11  1  1  0  0  0
  7 14  1  0  0  0  0
  8  5  1  0  0  0  0
 11 24  1  0  0  0  0
 13 22  2  0  0  0  0
 15 28  1  0  0  0  0
 16  5  1  0  0  0  0
 16 12  2  0  0  0  0
 18 16  1  1  0  0  0
 19 22  2  0  0  0  0
 20 32  1  0  0  0  0
 21 29  1  0  0  0  0
 21  2  2  0  0  0  0
 22  6  1  0  0  0  0
 22 27  1  0  0  0  0
 23 17  2  0  0  0  0
 23  7  1  0  0  0  0
 25  2  1  6  0  0  0
 25 15  1  0  0  0  0
 25  8  1  0  0  0  0
 26 14  1  6  0  0  0
 26 31  1  0  0  0  0
 26 18  1  0  0  0  0
 27  1  1  1  0  0  0
 28 10  1  0  0  0  0
 29  3  2  0  0  0  0
 30 33  1  6  0  0  0
 30  9  1  0  0  0  0
 30 23  1  0  0  0  0
 31 24  1  6  0  0  0
 31 18  1  0  0  0  0
 32 10  2  0  0  0  0
 33 43  1  1  0  0  0
 34 37  1  0  0  0  0
 34 36  1  0  0  0  0
 36 40  1  6  0  0  0
 36 39  1  0  0  0  0
 37 38  1  0  0  0  0
 38 33  1  6  0  0  0
 38 35  1  0  0  0  0
 39 35  1  0  0  0  0
 40 41  1  0  0  0  0
 42 40  2  0  0  0  0
 44 43  1  0  0  0  0
 45 44  1  0  0  0  0
M  END
>  <MODEL>
1

>  <REMARK>
 VINA RESULT:      -0.1      0.000      0.000
  Name = 
  5 active torsions:
  status: ('A' for Active; 'I' for Inactive)
    1  A    between atoms: C_10  and  C_12
    2  A    between atoms: C_20  and  C_37
    3  A    between atoms: C_20  and  C_39
    4  A    between atoms: C_20  and  C_41
    5  A    between atoms: S_28  and  C_39
                            x       y       z     vdW  Elec       q    Type
                         _______ _______ _______ _____ _____    ______ ____

>  <TORSDO>
F 5

$$$$
=
 OpenBabel11072412043D

 45 51  0  0  1  0  0  0  0  0999 V2000
  162.2160  208.5450  150.7290 C   0  0  0  0  0  2  0  0  0  0  0  0
  160.6130  209.0610  152.4910 C   0  0  0  0  0  3  0  0  0  0  0  0
  162.8060  210.8230  153.6150 N   0  0  0  0  0  0  0  0  0  0  0  0
  162.1870  210.2780  154.7940 C   0  0  0  0  0  0  0  0  0  0  0  0
  157.8920  210.6230  154.5300 N   0  0  0  0  0  2  0  0  0  0  0  0
  161.9480  210.0390  148.8140 C   0  0  2  0  0  3  0  0  0  0  0  0
  159.5290  212.8190  149.6170 C   0  0  2  0  0  3  0  0  0  0  0  0
  158.5870  209.5610  153.8060 C   0  0  0  0  0  2  0  0  0  0  0  0
  160.9400  210.7360  148.1400 O   0  0  0  0  0  0  0  0  0  0  0  0
  160.9010  209.9710  157.2510 N   0  0  0  0  0  0  0  0  0  0  0  0
  158.9010  214.1920  149.9180 C   0  0  0  0  0  2  0  0  0  0  0  0
  157.0240  212.7670  154.7240 O   0  0  0  0  0  0  0  0  0  0  0  0
  161.2420  207.8530  147.0530 O   0  0  0  0  0  0  0  0  0  0  0  0
  159.4980  211.8440  150.7990 C   0  0  0  0  0  2  0  0  0  0  0  0
  160.9190  209.8120  154.8170 C   0  0  0  0  0  0  0  0  0  0  0  0
  157.7930  211.9870  154.1010 C   0  0  0  0  0  0  0  0  0  0  0  0
  161.8370  213.6990  149.7360 C   0  0  0  0  0  2  0  0  0  0  0  0
  158.6590  212.5330  153.0040 C   0  0  1  0  0  3  0  0  0  0  0  0
  163.4410  207.6090  148.3160 O   0  0  0  0  0  0  0  0  0  0  0  0
  162.9990  210.2620  156.0650 C   0  0  0  0  0  2  0  0  0  0  0  0
  161.7920  209.3290  151.9280 C   0  0  0  0  0  0  0  0  0  0  0  0
  162.2460  208.4610  147.9880 S   0  0  0  0  0  0  0  0  0  0  0  0
  160.9390  212.9500  149.0910 C   0  0  0  0  0  0  0  0  0  0  0  0
  158.7790  214.4500  151.4140 C   0  0  0  0  0  2  0  0  0  0  0  0
  160.0580  209.8950  153.5910 C   0  0  1  0  0  3  0  0  0  0  0  0
  158.2370  211.9660  151.6600 C   0  0  1  0  0  3  0  0  0  0  0  0
  161.3740  208.8970  149.5110 C   0  0  1  0  0  3  0  0  0  0  0  0
  160.3830  209.2410  156.1110 C   0  0  0  0  0  2  0  0  0  0  0  0
  162.6620  210.4350  152.3770 C   0  0  0  0  0  3  0  0  0  0  0  0
  161.4370  212.0400  148.0000 C   0  0  2  0  0  3  0  0  0  0  0  0
  157.8640  213.4030  152.0470 C   0  0  1  0  0  3  0  0  0  0  0  0
  162.1020  210.4430  157.2600 C   0  0  0  0  0  3  0  0  0  0  0  0
  161.1980  212.6040  146.5930 C   0  0  1  0  0  3  0  0  0  0  0  0
  159.5210  211.8730  143.8590 C   0  0  0  0  0  2  0  0  0  0  0  0
  159.1230  213.9950  145.8670 C   0  0  0  0  0  2  0  0  0  0  0  0
  158.8540  213.2010  143.5060 C   0  0  1  0  0  3  0  0  0  0  0  0
  159.2560  211.5100  145.3190 C   0  0  0  0  0  2  0  0  0  0  0  0
  159.6930  212.6270  146.2730 C   0  0  1  0  0  3  0  0  0  0  0  0
  159.3910  214.3170  144.3990 C   0  0  0  0  0  2  0  0  0  0  0  0
  159.0950  213.5360  142.0720 C   0  0  0  0  0  0  0  0  0  0  0  0
  160.1280  214.4480  141.7030 N   0  0  0  0  0  1  0  0  0  0  0  0
  158.3680  213.0250  141.1820 O   0  0  0  0  0  0  0  0  0  0  0  0
  161.8880  213.9490  146.3630 C   0  0  0  0  0  2  0  0  0  0  0  0
  163.5390  213.7140  145.6400 S   0  0  0  0  0  0  0  0  0  0  0  0
  163.0170  214.2850  143.9990 C   0  0  0  0  0  1  0  0  0  0  0  0
  1 21  1  0  0  0  0
  3  4  1  0  0  0  0
  4 15  2  0  0  0  0
  4 20  1  0  0  0  0
  6  9  1  6  0  0  0
  6 27  1  0  0  0  0
  7 11  1  1  0  0  0
  7 14  1  0  0  0  0
  8  5  1  0  0  0  0
 10 32  2  0  0  0  0
 11 24  1  0  0  0  0
 13 22  2  0  0  0  0
 15 28  1  0  0  0  0
 16  5  1  0  0  0  0
 16 12  2  0  0  0  0
 18 16  1  1  0  0  0
 20 32  1  0  0  0  0
 21 29  1  0  0  0  0
 21  2  2  0  0  0  0
 22 19  2  0  0  0  0
 22  6  1  0  0  0  0
 22 27  1  0  0  0  0
 23  7  1  0  0  0  0
 23 17  2  0  0  0  0
 25  2  1  6  0  0  0
 25  8  1  0  0  0  0
 25 15  1  0  0  0  0
 26 14  1  6  0  0  0
 26 31  1  0  0  0  0
 26 18  1  0  0  0  0
 27  1  1  1  0  0  0
 28 10  1  0  0  0  0
 29  3  2  0  0  0  0
 30 33  1  6  0  0  0
 30  9  1  0  0  0  0
 30 23  1  0  0  0  0
 31 24  1  6  0  0  0
 31 18  1  0  0  0  0
 33 43  1  1  0  0  0
 34 37  1  0  0  0  0
 35 38  1  0  0  0  0
 36 40  1  6  0  0  0
 36 34  1  0  0  0  0
 36 39  1  0  0  0  0
 37 38  1  0  0  0  0
 38 33  1  6  0  0  0
 39 35  1  0  0  0  0
 41 40  1  0  0  0  0
 42 40  2  0  0  0  0
 44 43  1  0  0  0  0
 45 44  1  0  0  0  0
M  END
>  <MODEL>
2

>  <REMARK>
 VINA RESULT:       0.4      4.112      6.964
  Name = 
  5 active torsions:
  status: ('A' for Active; 'I' for Inactive)
    1  A    between atoms: C_10  and  C_12
    2  A    between atoms: C_20  and  C_37
    3  A    between atoms: C_20  and  C_39
    4  A    between atoms: C_20  and  C_41
    5  A    between atoms: S_28  and  C_39
                            x       y       z     vdW  Elec       q    Type
                         _______ _______ _______ _____ _____    ______ ____

>  <TORSDO>
F 5

$$$$
=
 OpenBabel11072412043D

 45 51  0  0  1  0  0  0  0  0999 V2000
  161.8680  207.5680  153.5930 C   0  0  0  0  0  2  0  0  0  0  0  0
  162.4790  208.4300  151.3970 C   0  0  0  0  0  3  0  0  0  0  0  0
  159.8760  207.1870  150.4710 N   0  0  0  0  0  0  0  0  0  0  0  0
  160.7610  206.9620  149.3580 C   0  0  0  0  0  0  0  0  0  0  0  0
  162.8820  210.5890  148.3670 N   0  0  0  0  0  2  0  0  0  0  0  0
  160.6490  209.2360  154.8970 C   0  0  2  0  0  3  0  0  0  0  0  0
  159.7890  212.2280  152.7700 C   0  0  2  0  0  3  0  0  0  0  0  0
  163.3090  209.7790  149.5060 C   0  0  0  0  0  2  0  0  0  0  0  0
  160.5950  210.6230  155.0680 O   0  0  0  0  0  0  0  0  0  0  0  0
  161.9210  206.9050  146.8210 N   0  0  0  0  0  0  0  0  0  0  0  0
  159.0360  213.2990  151.9580 C   0  0  0  0  0  2  0  0  0  0  0  0
  161.6240  212.2740  147.3860 O   0  0  0  0  0  0  0  0  0  0  0  0
  162.7150  209.3380  156.9240 O   0  0  0  0  0  0  0  0  0  0  0  0
  160.6960  211.3250  151.9260 C   0  0  0  0  0  2  0  0  0  0  0  0
  161.8620  207.7100  149.1230 C   0  0  0  0  0  0  0  0  0  0  0  0
  161.7850  211.5110  148.3750 C   0  0  0  0  0  0  0  0  0  0  0  0
  157.7720  210.8240  153.0400 C   0  0  0  0  0  2  0  0  0  0  0  0
  160.7660  211.5140  149.4760 C   0  0  1  0  0  3  0  0  0  0  0  0
  161.7680  207.0310  156.4040 O   0  0  0  0  0  0  0  0  0  0  0  0
  160.4100  205.8510  148.4010 C   0  0  0  0  0  2  0  0  0  0  0  0
  161.5520  207.8510  152.1610 C   0  0  0  0  0  0  0  0  0  0  0  0
  161.7170  208.5140  156.1630 S   0  0  0  0  0  0  0  0  0  0  0  0
  158.8460  211.3870  153.5980 C   0  0  0  0  0  0  0  0  0  0  0  0
  159.0040  212.9710  150.4710 C   0  0  0  0  0  2  0  0  0  0  0  0
  162.1880  208.8770  150.0070 C   0  0  1  0  0  3  0  0  0  0  0  0
  161.3700  212.0550  150.7600 C   0  0  1  0  0  3  0  0  0  0  0  0
  161.9640  208.8520  154.4040 C   0  0  1  0  0  3  0  0  0  0  0  0
  162.7290  207.3630  147.9340 C   0  0  0  0  0  2  0  0  0  0  0  0
  160.1850  207.5620  151.6810 C   0  0  0  0  0  3  0  0  0  0  0  0
  159.2320  210.9430  154.9830 C   0  0  2  0  0  3  0  0  0  0  0  0
  160.4280  212.9260  149.9200 C   0  0  1  0  0  3  0  0  0  0  0  0
  160.8560  206.2010  147.0070 C   0  0  0  0  0  3  0  0  0  0  0  0
  158.7990  211.9320  156.0730 C   0  0  1  0  0  3  0  0  0  0  0  0
  155.9860  211.9340  154.3660 C   0  0  0  0  0  2  0  0  0  0  0  0
  156.5960  212.8620  157.0990 C   0  0  0  0  0  2  0  0  0  0  0  0
  155.1850  213.0500  155.0360 C   0  0  1  0  0  3  0  0  0  0  0  0
  156.5190  210.9550  155.4110 C   0  0  0  0  0  2  0  0  0  0  0  0
  157.3420  211.6640  156.4910 C   0  0  1  0  0  3  0  0  0  0  0  0
  156.0630  213.8100  156.0270 C   0  0  0  0  0  2  0  0  0  0  0  0
  154.6460  213.9880  154.0090 C   0  0  0  0  0  0  0  0  0  0  0  0
  155.4440  214.3800  152.8930 N   0  0  0  0  0  1  0  0  0  0  0  0
  153.4840  214.4530  154.1380 O   0  0  0  0  0  0  0  0  0  0  0  0
  159.7700  211.9840  157.2530 C   0  0  0  0  0  2  0  0  0  0  0  0
  160.9160  213.3840  157.0860 S   0  0  0  0  0  0  0  0  0  0  0  0
  159.6990  214.4130  156.2190 C   0  0  0  0  0  1  0  0  0  0  0  0
  2 21  2  0  0  0  0
  3 29  2  0  0  0  0
  4  3  1  0  0  0  0
  5 16  1  0  0  0  0
  5  8  1  0  0  0  0
  6  9  1  1  0  0  0
  6 22  1  0  0  0  0
  7 14  1  6  0  0  0
  7 23  1  0  0  0  0
 10 32  2  0  0  0  0
 10 28  1  0  0  0  0
 11  7  1  0  0  0  0
 12 16  2  0  0  0  0
 15  4  2  0  0  0  0
 15 25  1  0  0  0  0
 17 23  2  0  0  0  0
 18 16  1  6  0  0  0
 18 31  1  0  0  0  0
 18 26  1  0  0  0  0
 20  4  1  0  0  0  0
 21  1  1  0  0  0  0
 22 19  2  0  0  0  0
 22 13  2  0  0  0  0
 23 30  1  0  0  0  0
 24 11  1  0  0  0  0
 25  8  1  6  0  0  0
 25  2  1  0  0  0  0
 26 14  1  1  0  0  0
 27  1  1  6  0  0  0
 27  6  1  0  0  0  0
 27 22  1  0  0  0  0
 28 15  1  0  0  0  0
 29 21  1  0  0  0  0
 30  9  1  0  0  0  0
 30 33  1  1  0  0  0
 31 24  1  1  0  0  0
 31 26  1  0  0  0  0
 32 20  1  0  0  0  0
 33 43  1  1  0  0  0
 34 36  1  0  0  0  0
 34 37  1  0  0  0  0
 36 40  1  6  0  0  0
 36 39  1  0  0  0  0
 37 38  1  0  0  0  0
 38 33  1  6  0  0  0
 38 35  1  0  0  0  0
 39 35  1  0  0  0  0
 40 42  2  0  0  0  0
 41 40  1  0  0  0  0
 44 43  1  0  0  0  0
 45 44  1  0  0  0  0
M  END
>  <MODEL>
3

>  <REMARK>
 VINA RESULT:       1.8      3.609      9.673
  Name = 
  5 active torsions:
  status: ('A' for Active; 'I' for Inactive)
    1  A    between atoms: C_10  and  C_12
    2  A    between atoms: C_20  and  C_37
    3  A    between atoms: C_20  and  C_39
    4  A    between atoms: C_20  and  C_41
    5  A    between atoms: S_28  and  C_39
                            x       y       z     vdW  Elec       q    Type
                         _______ _______ _______ _____ _____    ______ ____

>  <TORSDO>
F 5

$$$$
