=
 OpenBabel11072415053D

 64 72  0  0  1  0  0  0  0  0999 V2000
  159.9310  210.5760  152.8830 C   0  0  2  0  0  0  0  0  0  0  0  0
  158.5130  210.6430  152.8640 O   0  0  0  0  0  1  0  0  0  0  0  0
  162.2570  211.2060  155.7180 O   0  0  0  0  0  0  0  0  0  0  0  0
  161.1100  211.7850  156.2060 C   0  0  0  0  0  0  0  0  0  0  0  0
  162.7350  209.9600  153.8280 O   0  0  0  0  0  0  0  0  0  0  0  0
  159.8220  211.3090  155.4980 C   0  0  2  0  0  3  0  0  0  0  0  0
  160.3700  210.3120  154.4070 C   0  0  2  0  0  3  0  0  0  0  0  0
  161.8670  210.3940  154.6470 C   0  0  0  0  0  0  0  0  0  0  0  0
  161.1250  212.4980  157.2610 O   0  0  0  0  0  0  0  0  0  0  0  0
  158.9910  212.4940  154.9070 C   0  0  0  0  0  2  0  0  0  0  0  0
  158.7180  213.3960  156.1280 C   0  0  0  0  0  2  0  0  0  0  0  0
  157.3490  213.6000  156.5110 O   0  0  0  0  0  0  0  0  0  0  0  0
  155.3970  213.7810  154.5450 C   0  0  0  0  0  2  0  0  0  0  0  0
  154.8690  214.3660  157.0950 C   0  0  0  0  0  1  0  0  0  0  0  0
  156.4350  213.0130  155.4960 C   0  0  2  0  0  0  0  0  0  0  0  0
  155.7380  214.4530  155.7740 C   0  0  1  0  0  3  0  0  0  0  0  0
  156.2730  210.2030  155.6880 C   0  0  0  0  0  2  0  0  0  0  0  0
  155.3130  210.7330  154.6230 C   0  0  0  0  0  2  0  0  0  0  0  0
  155.6020  211.6570  155.8800 C   0  0  0  0  0  3  0  0  0  0  0  0
  160.4590  211.9340  152.3740 C   0  0  0  0  0  2  0  0  0  0  0  0
  160.6600  212.1320  150.8580 C   0  0  0  0  0  2  0  0  0  0  0  0
  160.0410  213.4790  150.4380 C   0  0  2  0  0  3  0  0  0  0  0  0
  159.4780  214.1500  151.5750 O   0  0  0  0  0  1  0  0  0  0  0  0
  159.0510  213.3880  149.2890 C   0  0  1  0  0  3  0  0  0  0  0  0
  157.6160  213.6010  149.6930 C   0  0  0  0  0  1  0  0  0  0  0  0
  159.5400  214.2310  148.2850 O   0  0  0  0  0  0  0  0  0  0  0  0
  161.3290  213.1060  143.9180 C   0  0  0  0  0  2  0  0  0  0  0  0
  159.1440  212.9300  145.6910 C   0  0  0  0  0  3  0  0  0  0  0  0
  158.9930  212.3870  144.4850 C   0  0  0  0  0  3  0  0  0  0  0  0
  161.6390  213.0390  145.3940 C   0  0  1  0  0  3  0  0  0  0  0  0
  162.9260  213.8080  145.7720 C   0  0  0  0  0  1  0  0  0  0  0  0
  160.2440  212.1280  143.6540 C   0  0  1  0  0  3  0  0  0  0  0  0
  160.4660  213.2920  146.2710 C   0  0  0  0  0  0  0  0  0  0  0  0
  160.6150  213.8470  147.4550 C   0  0  0  0  0  3  0  0  0  0  0  0
  160.7760  211.0610  141.4800 O   0  0  0  0  0  0  0  0  0  0  0  0
  160.0810  211.9590  142.2070 C   0  0  0  0  0  0  0  0  0  0  0  0
  160.5810  211.2400  140.1430 N   0  0  0  0  0  2  0  0  0  0  0  0
  159.6220  212.3650  140.0770 C   0  0  1  0  0  3  0  0  0  0  0  0
  159.5580  212.8700  141.4460 N   0  0  0  0  0  0  0  0  0  0  0  0
  160.1800  213.4360  139.1440 C   0  0  0  0  0  1  0  0  0  0  0  0
  160.2810  209.4840  151.9960 O   0  0  0  0  0  0  0  0  0  0  0  0
  160.4260  208.1710  152.5270 C   0  0  0  0  0  2  0  0  0  0  0  0
  161.2120  202.2150  147.1600 O   0  0  0  0  0  0  0  0  0  0  0  0
  161.2610  207.8520  148.7690 C   0  0  0  0  0  2  0  0  0  0  0  0
  160.1850  201.8590  149.2660 C   0  0  0  0  0  3  0  0  0  0  0  0
  160.8480  203.7360  152.3960 C   0  0  0  0  0  3  0  0  0  0  0  0
  159.7290  205.3270  145.7390 O   0  0  0  0  0  1  0  0  0  0  0  0
  161.8610  206.6620  147.9020 C   0  0  2  0  0  0  0  0  0  0  0  0
  161.9940  205.7910  145.6830 C   0  0  0  0  0  2  0  0  0  0  0  0
  160.8690  202.7280  148.2550 C   0  0  0  0  0  0  0  0  0  0  0  0
  160.9550  205.3250  147.8220 C   0  0  2  0  0  3  0  0  0  0  0  0
  161.4180  204.1170  148.6420 C   0  0  1  0  0  3  0  0  0  0  0  0
  162.7300  208.5220  150.4720 O   0  0  0  0  0  0  0  0  0  0  0  0
  160.8910  207.2890  151.3810 C   0  0  1  0  0  3  0  0  0  0  0  0
  160.8490  203.3920  151.0330 C   0  0  0  0  0  0  0  0  0  0  0  0
  161.6900  207.9600  150.2040 C   0  0  0  0  0  0  0  0  0  0  0  0
  161.8990  205.4290  150.5330 C   0  0  0  0  0  3  0  0  0  0  0  0
  161.4260  204.2510  150.0960 C   0  0  0  0  0  0  0  0  0  0  0  0
  161.5160  205.9730  151.7280 C   0  0  0  0  0  0  0  0  0  0  0  0
  160.2770  202.1150  150.5650 C   0  0  0  0  0  3  0  0  0  0  0  0
  163.1670  206.3620  148.3130 F   0  0  0  0  0  0  0  0  0  0  0  0
  161.0630  205.1230  152.7100 C   0  0  0  0  0  3  0  0  0  0  0  0
  160.9430  204.9300  146.3320 C   0  0  1  0  0  3  0  0  0  0  0  0
  161.9820  207.0770  146.4760 C   0  0  0  0  0  2  0  0  0  0  0  0
  1  2  1  6  0  0  0
  3  4  1  0  0  0  0
  4  9  2  0  0  0  0
  5  8  2  0  0  0  0
  6 10  1  6  0  0  0
  6  4  1  0  0  0  0
  7  1  1  6  0  0  0
  7  8  1  0  0  0  0
  7  6  1  0  0  0  0
  8  3  1  0  0  0  0
 10 11  1  0  0  0  0
 11 12  1  0  0  0  0
 13 15  1  0  0  0  0
 13 16  1  0  0  0  0
 15 16  1  0  0  0  0
 15 19  1  0  0  0  0
 15 12  1  6  0  0  0
 16 14  1  1  0  0  0
 17 19  1  0  0  0  0
 18 17  1  0  0  0  0
 18 19  1  0  0  0  0
 20  1  1  0  0  0  0
 21 20  1  0  0  0  0
 22 21  1  0  0  0  0
 22 23  1  1  0  0  0
 24 25  1  1  0  0  0
 24 22  1  0  0  0  0
 26 24  1  0  0  0  0
 27 30  1  0  0  0  0
 28 33  1  0  0  0  0
 29 28  2  0  0  0  0
 30 31  1  1  0  0  0
 30 33  1  0  0  0  0
 32 36  1  6  0  0  0
 32 27  1  0  0  0  0
 32 29  1  0  0  0  0
 33 34  2  0  0  0  0
 34 26  1  0  0  0  0
 35 36  1  0  0  0  0
 37 35  1  0  0  0  0
 38 40  1  6  0  0  0
 38 37  1  0  0  0  0
 38 39  1  0  0  0  0
 39 36  2  0  0  0  0
 41 42  1  0  0  0  0
 41  1  1  0  0  0  0
 43 50  2  0  0  0  0
 44 56  1  0  0  0  0
 45 60  2  0  0  0  0
 46 62  1  0  0  0  0
 47 63  1  0  0  0  0
 48 61  1  1  0  0  0
 48 44  1  0  0  0  0
 49 63  1  0  0  0  0
 49 64  1  0  0  0  0
 50 52  1  0  0  0  0
 50 45  1  0  0  0  0
 51 48  1  0  0  0  0
 51 52  1  0  0  0  0
 52 58  1  0  0  0  0
 54 59  1  0  0  0  0
 54 42  1  0  0  0  0
 55 46  2  0  0  0  0
 56 53  2  0  0  0  0
 56 54  1  0  0  0  0
 57 59  1  0  0  0  0
 58 57  2  0  0  0  0
 58 55  1  0  0  0  0
 59 62  2  0  0  0  0
 60 55  1  0  0  0  0
 63 51  1  0  0  0  0
 64 48  1  0  0  0  0
M  END
>  <MODEL>
1

>  <REMARK>
 VINA RESULT:      -7.3      0.000      0.000
  Name = 
  16 active torsions:
  status: ('A' for Active; 'I' for Inactive)
    1  A    between atoms: O_9  and  C_38
    2  A    between atoms: O_9  and  C_64
    3  A    between atoms: C_10  and  C_16
    4  A    between atoms: C_10  and  C_41
    5  A    between atoms: O_11  and  C_22
    6  A    between atoms: O_11  and  C_46
    7  A    between atoms: C_13  and  C_38
    8  A    between atoms: C_13  and  C_41
    9  A    between atoms: C_16  and  C_36
   10  A    between atoms: C_16  and  O_49
   11  A    between atoms: C_18  and  C_20
   12  A    between atoms: C_18  and  C_22
   13  A    between atoms: C_19  and  C_57
   14  A    between atoms: C_23  and  C_31
   15  A    between atoms: C_23  and  O_49
   16  A    between atoms: C_46  and  C_47
                            x       y       z     vdW  Elec       q    Type
                         _______ _______ _______ _____ _____    ______ ____

>  <TORSDO>
F 16

$$$$
=
 OpenBabel11072415053D

 64 72  0  0  1  0  0  0  0  0999 V2000
  159.8760  209.6660  153.0030 C   0  0  2  0  0  0  0  0  0  0  0  0
  158.6320  210.3040  152.7520 O   0  0  0  0  0  1  0  0  0  0  0  0
  162.1000  209.7090  155.9850 O   0  0  0  0  0  0  0  0  0  0  0  0
  161.4310  210.8980  156.1590 C   0  0  0  0  0  0  0  0  0  0  0  0
  161.8830  207.9620  154.4840 O   0  0  0  0  0  0  0  0  0  0  0  0
  160.1070  210.9890  155.3660 C   0  0  2  0  0  3  0  0  0  0  0  0
  160.0630  209.6130  154.5990 C   0  0  2  0  0  3  0  0  0  0  0  0
  161.3630  208.9720  155.0520 C   0  0  0  0  0  0  0  0  0  0  0  0
  161.7980  211.7430  157.0370 O   0  0  0  0  0  0  0  0  0  0  0  0
  160.0590  212.2360  154.4240 C   0  0  0  0  0  2  0  0  0  0  0  0
  159.1310  213.2200  155.1660 C   0  0  0  0  0  2  0  0  0  0  0  0
  157.9120  212.6970  155.7170 O   0  0  0  0  0  0  0  0  0  0  0  0
  155.2450  213.4640  155.6970 C   0  0  0  0  0  2  0  0  0  0  0  0
  155.9630  210.9070  155.4450 C   0  0  0  0  0  1  0  0  0  0  0  0
  156.7380  213.3830  155.1180 C   0  0  2  0  0  0  0  0  0  0  0  0
  156.0250  212.3330  156.1310 C   0  0  1  0  0  3  0  0  0  0  0  0
  156.7480  214.4510  152.5070 C   0  0  0  0  0  2  0  0  0  0  0  0
  155.3200  214.1770  152.9780 C   0  0  0  0  0  2  0  0  0  0  0  0
  156.4680  213.2210  153.5110 C   0  0  0  0  0  3  0  0  0  0  0  0
  160.9710  210.5250  152.3370 C   0  0  0  0  0  2  0  0  0  0  0  0
  160.5500  211.7490  151.5000 C   0  0  0  0  0  2  0  0  0  0  0  0
  161.0720  211.5820  150.0600 C   0  0  2  0  0  3  0  0  0  0  0  0
  162.4600  211.2170  150.0680 O   0  0  0  0  0  1  0  0  0  0  0  0
  160.8060  212.7690  149.1500 C   0  0  1  0  0  3  0  0  0  0  0  0
  162.0500  213.4470  148.6410 C   0  0  0  0  0  1  0  0  0  0  0  0
  159.9050  212.3210  148.1780 O   0  0  0  0  0  0  0  0  0  0  0  0
  159.6830  213.7670  143.5520 C   0  0  0  0  0  2  0  0  0  0  0  0
  161.2940  212.7650  145.6380 C   0  0  0  0  0  3  0  0  0  0  0  0
  161.8750  212.9450  144.4540 C   0  0  0  0  0  3  0  0  0  0  0  0
  159.3370  214.1930  144.9590 C   0  0  1  0  0  3  0  0  0  0  0  0
  157.8240  214.4410  145.1560 C   0  0  0  0  0  1  0  0  0  0  0  0
  161.1620  213.8190  143.4300 C   0  0  1  0  0  3  0  0  0  0  0  0
  159.9900  213.3760  146.0160 C   0  0  0  0  0  0  0  0  0  0  0  0
  159.4050  213.1840  147.1790 C   0  0  0  0  0  3  0  0  0  0  0  0
  161.0530  214.4500  141.0350 O   0  0  0  0  0  0  0  0  0  0  0  0
  161.5400  213.6710  142.0220 C   0  0  0  0  0  0  0  0  0  0  0  0
  161.4100  213.9830  139.8060 N   0  0  0  0  0  2  0  0  0  0  0  0
  162.2420  212.7980  140.1100 C   0  0  1  0  0  3  0  0  0  0  0  0
  162.0610  212.5840  141.5430 N   0  0  0  0  0  0  0  0  0  0  0  0
  161.7060  211.6030  139.3260 C   0  0  0  0  0  1  0  0  0  0  0  0
  159.7670  208.3520  152.4010 O   0  0  0  0  0  0  0  0  0  0  0  0
  160.6920  207.3340  152.7720 C   0  0  0  0  0  2  0  0  0  0  0  0
  161.1760  202.3370  146.4740 O   0  0  0  0  0  0  0  0  0  0  0  0
  161.4850  207.6160  149.0030 C   0  0  0  0  0  2  0  0  0  0  0  0
  160.1500  201.6750  148.5050 C   0  0  0  0  0  3  0  0  0  0  0  0
  160.9170  202.9710  151.8950 C   0  0  0  0  0  3  0  0  0  0  0  0
  159.8220  205.7020  145.6150 O   0  0  0  0  0  1  0  0  0  0  0  0
  162.0260  206.5640  147.9400 C   0  0  2  0  0  0  0  0  0  0  0  0
  162.1040  206.0730  145.6050 C   0  0  0  0  0  2  0  0  0  0  0  0
  160.8650  202.6720  147.6440 C   0  0  0  0  0  0  0  0  0  0  0  0
  161.0610  205.2990  147.6510 C   0  0  2  0  0  3  0  0  0  0  0  0
  161.4770  203.9520  148.2500 C   0  0  1  0  0  3  0  0  0  0  0  0
  162.9940  207.9280  150.7720 O   0  0  0  0  0  0  0  0  0  0  0  0
  161.1090  206.6390  151.4880 C   0  0  1  0  0  3  0  0  0  0  0  0
  160.8940  202.8600  150.4940 C   0  0  0  0  0  0  0  0  0  0  0  0
  161.9290  207.4640  150.4290 C   0  0  0  0  0  0  0  0  0  0  0  0
  162.0290  204.9070  150.3270 C   0  0  0  0  0  3  0  0  0  0  0  0
  161.5010  203.8400  149.7060 C   0  0  0  0  0  0  0  0  0  0  0  0
  161.6790  205.2580  151.6010 C   0  0  0  0  0  0  0  0  0  0  0  0
  160.2630  201.7060  149.8270 C   0  0  0  0  0  3  0  0  0  0  0  0
  163.3200  206.1450  148.2760 F   0  0  0  0  0  0  0  0  0  0  0  0
  161.1960  204.2750  152.4340 C   0  0  0  0  0  3  0  0  0  0  0  0
  161.0220  205.1610  146.1160 C   0  0  1  0  0  3  0  0  0  0  0  0
  162.1550  207.2070  146.6020 C   0  0  0  0  0  2  0  0  0  0  0  0
  1  2  1  6  0  0  0
  3  4  1  0  0  0  0
  4  9  2  0  0  0  0
  5  8  2  0  0  0  0
  6 10  1  6  0  0  0
  6  4  1  0  0  0  0
  7  1  1  6  0  0  0
  7  8  1  0  0  0  0
  7  6  1  0  0  0  0
  8  3  1  0  0  0  0
 10 11  1  0  0  0  0
 11 12  1  0  0  0  0
 13 16  1  0  0  0  0
 15 13  1  0  0  0  0
 15 12  1  1  0  0  0
 15 16  1  0  0  0  0
 16 14  1  6  0  0  0
 17 18  1  0  0  0  0
 17 19  1  0  0  0  0
 18 19  1  0  0  0  0
 19 15  1  0  0  0  0
 20  1  1  0  0  0  0
 21 20  1  0  0  0  0
 22 23  1  1  0  0  0
 22 21  1  0  0  0  0
 24 25  1  6  0  0  0
 24 22  1  0  0  0  0
 26 24  1  0  0  0  0
 27 30  1  0  0  0  0
 28 33  1  0  0  0  0
 29 28  2  0  0  0  0
 30 31  1  6  0  0  0
 30 33  1  0  0  0  0
 32 36  1  6  0  0  0
 32 27  1  0  0  0  0
 32 29  1  0  0  0  0
 33 34  2  0  0  0  0
 34 26  1  0  0  0  0
 35 36  1  0  0  0  0
 37 38  1  0  0  0  0
 37 35  1  0  0  0  0
 38 40  1  6  0  0  0
 38 39  1  0  0  0  0
 39 36  2  0  0  0  0
 41 42  1  0  0  0  0
 41  1  1  0  0  0  0
 43 50  2  0  0  0  0
 44 56  1  0  0  0  0
 45 60  2  0  0  0  0
 46 62  1  0  0  0  0
 47 63  1  0  0  0  0
 48 61  1  1  0  0  0
 48 44  1  0  0  0  0
 49 63  1  0  0  0  0
 49 64  1  0  0  0  0
 50 52  1  0  0  0  0
 50 45  1  0  0  0  0
 51 48  1  0  0  0  0
 51 52  1  0  0  0  0
 52 58  1  0  0  0  0
 54 59  1  0  0  0  0
 54 42  1  0  0  0  0
 55 46  2  0  0  0  0
 56 53  2  0  0  0  0
 56 54  1  0  0  0  0
 57 59  1  0  0  0  0
 58 57  2  0  0  0  0
 58 55  1  0  0  0  0
 59 62  2  0  0  0  0
 60 55  1  0  0  0  0
 63 51  1  0  0  0  0
 64 48  1  0  0  0  0
M  END
>  <MODEL>
2

>  <REMARK>
 VINA RESULT:      -4.7      1.400      2.010
  Name = 
  16 active torsions:
  status: ('A' for Active; 'I' for Inactive)
    1  A    between atoms: O_9  and  C_38
    2  A    between atoms: O_9  and  C_64
    3  A    between atoms: C_10  and  C_16
    4  A    between atoms: C_10  and  C_41
    5  A    between atoms: O_11  and  C_22
    6  A    between atoms: O_11  and  C_46
    7  A    between atoms: C_13  and  C_38
    8  A    between atoms: C_13  and  C_41
    9  A    between atoms: C_16  and  C_36
   10  A    between atoms: C_16  and  O_49
   11  A    between atoms: C_18  and  C_20
   12  A    between atoms: C_18  and  C_22
   13  A    between atoms: C_19  and  C_57
   14  A    between atoms: C_23  and  C_31
   15  A    between atoms: C_23  and  O_49
   16  A    between atoms: C_46  and  C_47
                            x       y       z     vdW  Elec       q    Type
                         _______ _______ _______ _____ _____    ______ ____

>  <TORSDO>
F 16

$$$$
