=
 OpenBabel11072409503D

 49 54  0  0  1  0  0  0  0  0999 V2000
  158.9320  211.3750  154.2770 C   0  0  0  0  0  0  0  0  0  0  0  0
  163.1620  210.0530  149.2440 C   0  0  0  0  0  2  0  0  0  0  0  0
  157.5240  211.8780  154.2220 C   0  0  0  0  0  2  0  0  0  0  0  0
  163.6390  212.7030  148.1580 F   0  0  0  0  0  0  0  0  0  0  0  0
  159.6490  212.1550  151.9510 C   0  0  0  0  0  0  0  0  0  0  0  0
  162.0780  210.3050  150.3080 C   0  0  1  0  0  3  0  0  0  0  0  0
  159.4590  211.1980  155.3640 O   0  0  0  0  0  0  0  0  0  0  0  0
  161.4920  212.3470  148.9020 O   0  0  0  0  0  0  0  0  0  0  0  0
  159.4640  209.6860  152.4810 C   0  0  0  0  0  2  0  0  0  0  0  0
  160.7810  209.0150  152.0830 C   0  0  1  0  0  3  0  0  0  0  0  0
  161.3620  211.6170  150.0900 C   0  0  0  0  0  0  0  0  0  0  0  0
  160.7800  207.5910  152.6220 C   0  0  0  0  0  1  0  0  0  0  0  0
  157.5240  213.3420  153.9010 C   0  0  0  0  0  0  0  0  0  0  0  0
  162.4600  212.0250  147.9030 C   0  0  2  0  0  3  0  0  0  0  0  0
  161.0730  209.1430  150.5620 C   0  0  2  0  0  3  0  0  0  0  0  0
  162.7210  210.5240  147.8620 C   0  0  0  0  0  2  0  0  0  0  0  0
  159.7170  211.0940  153.0260 C   0  0  2  0  0  3  0  0  0  0  0  0
  157.9360  213.7860  152.7070 C   0  0  0  0  0  3  0  0  0  0  0  0
  158.3700  212.8610  151.6090 C   0  0  0  0  0  2  0  0  0  0  0  0
  160.5110  211.9970  150.9940 C   0  0  0  0  0  0  0  0  0  0  0  0
  160.5270  207.0460  149.3860 C   0  0  0  0  0  3  0  0  0  0  0  0
  161.4530  207.8420  149.9080 C   0  0  0  0  0  3  0  0  0  0  0  0
  162.2980  204.7610  144.8670 C   0  0  0  0  0  2  0  0  0  0  0  0
  161.6750  204.2140  147.1900 C   0  0  0  0  0  0  0  0  0  0  0  0
  161.8620  206.5780  146.5810 C   0  0  0  0  0  2  0  0  0  0  0  0
  161.2070  203.5340  148.2430 C   0  0  2  0  0  3  0  0  0  0  0  0
  162.4540  203.7400  146.0050 C   0  0  0  0  0  2  0  0  0  0  0  0
  160.7180  204.5220  149.2190 C   0  0  0  0  0  0  0  0  0  0  0  0
  162.7270  201.5670  148.3640 C   0  0  0  0  0  1  0  0  0  0  0  0
  161.2810  202.0350  148.5360 C   0  0  1  0  0  0  0  0  0  0  0  0
  160.8360  205.7630  148.7310 C   0  0  0  0  0  0  0  0  0  0  0  0
  162.6310  206.1900  145.3400 C   0  0  0  0  0  2  0  0  0  0  0  0
  160.8040  201.7570  150.0030 C   0  0  2  0  0  3  0  0  0  0  0  0
  160.2960  204.1320  150.5960 C   0  0  0  0  0  2  0  0  0  0  0  0
  161.4670  205.6280  147.4290 C   0  0  0  0  0  0  0  0  0  0  0  0
  161.0780  202.8890  151.0020 C   0  0  0  0  0  2  0  0  0  0  0  0
  160.3240  201.2300  147.6120 C   0  0  2  0  0  3  0  0  0  0  0  0
  159.3250  200.5800  148.3450 O   0  0  0  0  0  1  0  0  0  0  0  0
  161.8770  199.4780  147.0880 O   0  0  0  0  0  1  0  0  0  0  0  0
  160.9720  200.2550  146.6780 C   0  0  0  0  0  0  0  0  0  0  0  0
  160.5810  200.2190  145.3460 O   0  0  0  0  0  0  0  0  0  0  0  0
  161.2970  200.5440  150.5030 O   0  0  0  0  0  0  0  0  0  0  0  0
  163.2290  201.2190  151.7150 C   0  0  0  0  0  1  0  0  0  0  0  0
  161.7640  200.8390  151.7860 C   0  0  0  0  0  2  0  0  0  0  0  0
  157.1970  214.3170  154.9860 C   0  0  0  0  0  2  0  0  0  0  0  0
  154.3220  214.3940  155.0420 O   0  0  0  0  0  0  0  0  0  0  0  0
  155.7120  214.4500  157.2560 O   0  0  0  0  0  1  0  0  0  0  0  0
  155.6850  213.8350  155.8740 P   0  0  0  0  0  0  0  0  0  0  0  0
  155.6150  212.1500  156.0090 O   0  0  0  0  0  1  0  0  0  0  0  0
  1  7  2  0  0  0  0
  3  1  1  0  0  0  0
  5 17  1  0  0  0  0
  6  2  1  6  0  0  0
  6 15  1  0  0  0  0
  8 11  1  0  0  0  0
 10  9  1  0  0  0  0
 10 12  1  6  0  0  0
 11  6  1  0  0  0  0
 11 20  2  0  0  0  0
 13  3  1  0  0  0  0
 13 45  1  0  0  0  0
 14  4  1  1  0  0  0
 14  8  1  0  0  0  0
 15 22  1  1  0  0  0
 15 10  1  0  0  0  0
 16 14  1  0  0  0  0
 16  2  1  0  0  0  0
 17  9  1  6  0  0  0
 17  1  1  0  0  0  0
 18 13  2  0  0  0  0
 19  5  1  0  0  0  0
 19 18  1  0  0  0  0
 20  5  2  0  0  0  0
 21 22  2  0  0  0  0
 23 32  1  0  0  0  0
 23 27  1  0  0  0  0
 24 35  2  0  0  0  0
 25 35  1  0  0  0  0
 26 24  1  1  0  0  0
 26 30  1  0  0  0  0
 26 28  1  0  0  0  0
 27 24  1  0  0  0  0
 28 34  1  0  0  0  0
 30 29  1  6  0  0  0
 30 33  1  0  0  0  0
 31 28  2  0  0  0  0
 31 21  1  0  0  0  0
 32 25  1  0  0  0  0
 33 42  1  1  0  0  0
 33 36  1  0  0  0  0
 34 36  1  0  0  0  0
 35 31  1  0  0  0  0
 37 38  1  1  0  0  0
 37 30  1  0  0  0  0
 40 39  1  0  0  0  0
 40 37  1  0  0  0  0
 41 40  2  0  0  0  0
 42 44  1  0  0  0  0
 43 44  1  0  0  0  0
 45 48  1  0  0  0  0
 46 48  2  0  0  0  0
 48 49  1  0  0  0  0
 48 47  1  0  0  0  0
M  END
>  <MODEL>
1

>  <REMARK>
 VINA RESULT:       0.7      0.000      0.000
  Name = 
  8 active torsions:
  status: ('A' for Active; 'I' for Inactive)
    1  A    between atoms: C_2  and  C_35
    2  A    between atoms: C_2  and  P_41
    3  A    between atoms: C_10  and  C_24
    4  A    between atoms: C_10  and  C_30
    5  A    between atoms: O_13  and  C_16
    6  A    between atoms: O_13  and  C_40
    7  A    between atoms: C_21  and  C_31
    8  A    between atoms: C_37  and  C_49
                            x       y       z     vdW  Elec       q    Type
                         _______ _______ _______ _____ _____    ______ ____

>  <TORSDO>
F 8

$$$$
=
 OpenBabel11072409503D

 49 54  0  0  1  0  0  0  0  0999 V2000
  162.0430  205.0510  146.9420 C   0  0  0  0  0  0  0  0  0  0  0  0
  161.8930  206.5800  153.4690 C   0  0  0  0  0  2  0  0  0  0  0  0
  160.9840  204.4170  146.0940 C   0  0  0  0  0  2  0  0  0  0  0  0
  161.8030  203.9480  154.6930 F   0  0  0  0  0  0  0  0  0  0  0  0
  161.1620  204.2590  149.2070 C   0  0  0  0  0  0  0  0  0  0  0  0
  161.7770  206.2660  151.9660 C   0  0  1  0  0  3  0  0  0  0  0  0
  163.1260  205.3130  146.4440 O   0  0  0  0  0  0  0  0  0  0  0  0
  160.6190  204.1310  152.7310 O   0  0  0  0  0  0  0  0  0  0  0  0
  161.1320  206.7170  148.6020 C   0  0  0  0  0  2  0  0  0  0  0  0
  161.8140  207.4920  149.7320 C   0  0  1  0  0  3  0  0  0  0  0  0
  161.2160  204.8860  151.7150 C   0  0  0  0  0  0  0  0  0  0  0  0
  162.0270  208.9280  149.2730 C   0  0  0  0  0  1  0  0  0  0  0  0
  160.9140  202.9500  146.3870 C   0  0  0  0  0  0  0  0  0  0  0  0
  160.6800  204.5050  154.1080 C   0  0  2  0  0  3  0  0  0  0  0  0
  161.0690  207.3380  151.0870 C   0  0  2  0  0  3  0  0  0  0  0  0
  160.7120  206.0220  154.2580 C   0  0  0  0  0  2  0  0  0  0  0  0
  161.8070  205.3580  148.3940 C   0  0  2  0  0  3  0  0  0  0  0  0
  160.5000  202.5030  147.5800 C   0  0  0  0  0  3  0  0  0  0  0  0
  160.0370  203.4260  148.6690 C   0  0  0  0  0  2  0  0  0  0  0  0
  161.1870  204.4620  150.4890 C   0  0  0  0  0  0  0  0  0  0  0  0
  160.3630  208.6700  153.0380 C   0  0  0  0  0  3  0  0  0  0  0  0
  160.8150  208.6450  151.7890 C   0  0  0  0  0  3  0  0  0  0  0  0
  161.8270  211.6370  157.2610 C   0  0  0  0  0  2  0  0  0  0  0  0
  160.3640  211.6950  155.2760 C   0  0  0  0  0  0  0  0  0  0  0  0
  161.9740  209.8600  155.4580 C   0  0  0  0  0  3  0  0  0  0  0  0
  159.3190  211.9740  154.4870 C   0  0  0  0  0  0  0  0  0  0  0  0
  161.0630  212.5480  156.2860 C   0  0  0  0  0  2  0  0  0  0  0  0
  159.1890  210.8650  153.5280 C   0  0  0  0  0  0  0  0  0  0  0  0
  159.4100  214.4530  154.2860 C   0  0  0  0  0  1  0  0  0  0  0  0
  158.4770  213.2480  154.4130 C   0  0  1  0  0  0  0  0  0  0  0  0
  160.0980  209.9160  153.7800 C   0  0  0  0  0  0  0  0  0  0  0  0
  162.7290  210.6370  156.5110 C   0  0  0  0  0  2  0  0  0  0  0  0
  157.5240  213.1820  153.1700 C   0  0  2  0  0  3  0  0  0  0  0  0
  158.2440  210.9240  152.3740 C   0  0  0  0  0  2  0  0  0  0  0  0
  160.9000  210.4060  154.8870 C   0  0  0  0  0  0  0  0  0  0  0  0
  158.0660  212.3840  151.9760 C   0  0  0  0  0  2  0  0  0  0  0  0
  157.5540  213.3900  155.6560 C   0  0  2  0  0  3  0  0  0  0  0  0
  158.1520  214.1640  156.6560 O   0  0  0  0  0  1  0  0  0  0  0  0
  157.8040  211.3830  156.9470 O   0  0  0  0  0  1  0  0  0  0  0  0
  157.0460  212.1130  156.2520 C   0  0  0  0  0  0  0  0  0  0  0  0
  155.7320  211.7250  156.0210 O   0  0  0  0  0  0  0  0  0  0  0  0
  157.1070  214.4520  152.7500 O   0  0  0  0  0  0  0  0  0  0  0  0
  154.9510  213.6110  153.3020 C   0  0  0  0  0  1  0  0  0  0  0  0
  155.8180  214.2660  152.2450 C   0  0  0  0  0  2  0  0  0  0  0  0
  161.4550  201.9870  145.3790 C   0  0  0  0  0  2  0  0  0  0  0  0
  161.3320  199.6620  147.0700 O   0  0  0  0  0  1  0  0  0  0  0  0
  161.1970  199.4420  144.4670 O   0  0  0  0  0  0  0  0  0  0  0  0
  160.7640  200.3210  145.6190 P   0  0  0  0  0  0  0  0  0  0  0  0
  159.0750  200.4050  145.6590 O   0  0  0  0  0  1  0  0  0  0  0  0
  1 17  1  0  0  0  0
  2 16  1  0  0  0  0
  3 13  1  0  0  0  0
  3  1  1  0  0  0  0
  5 20  2  0  0  0  0
  6  2  1  1  0  0  0
  7  1  2  0  0  0  0
  8 14  1  0  0  0  0
  9 10  1  0  0  0  0
 10 12  1  6  0  0  0
 10 15  1  0  0  0  0
 11  6  1  0  0  0  0
 11  8  1  0  0  0  0
 13 18  2  0  0  0  0
 14 16  1  0  0  0  0
 14  4  1  6  0  0  0
 15 22  1  1  0  0  0
 15  6  1  0  0  0  0
 17  9  1  6  0  0  0
 17  5  1  0  0  0  0
 18 19  1  0  0  0  0
 19  5  1  0  0  0  0
 20 11  2  0  0  0  0
 21 31  1  0  0  0  0
 22 21  2  0  0  0  0
 24 27  1  0  0  0  0
 25 32  1  0  0  0  0
 26 24  2  0  0  0  0
 27 23  1  0  0  0  0
 28 31  2  0  0  0  0
 28 26  1  0  0  0  0
 30 29  1  6  0  0  0
 30 26  1  0  0  0  0
 30 37  1  0  0  0  0
 31 35  1  0  0  0  0
 32 23  1  0  0  0  0
 33 42  1  6  0  0  0
 33 30  1  0  0  0  0
 34 28  1  0  0  0  0
 35 24  1  0  0  0  0
 35 25  2  0  0  0  0
 36 34  1  0  0  0  0
 36 33  1  0  0  0  0
 37 40  1  0  0  0  0
 37 38  1  1  0  0  0
 40 39  1  0  0  0  0
 41 40  2  0  0  0  0
 44 42  1  0  0  0  0
 44 43  1  0  0  0  0
 45 48  1  0  0  0  0
 45 13  1  0  0  0  0
 47 48  2  0  0  0  0
 48 49  1  0  0  0  0
 48 46  1  0  0  0  0
M  END
>  <MODEL>
2

>  <REMARK>
 VINA RESULT:       1.7      3.681     11.732
  Name = 
  8 active torsions:
  status: ('A' for Active; 'I' for Inactive)
    1  A    between atoms: C_2  and  C_35
    2  A    between atoms: C_2  and  P_41
    3  A    between atoms: C_10  and  C_24
    4  A    between atoms: C_10  and  C_30
    5  A    between atoms: O_13  and  C_16
    6  A    between atoms: O_13  and  C_40
    7  A    between atoms: C_21  and  C_31
    8  A    between atoms: C_37  and  C_49
                            x       y       z     vdW  Elec       q    Type
                         _______ _______ _______ _____ _____    ______ ____

>  <TORSDO>
F 8

$$$$
=
 OpenBabel11072409503D

 49 54  0  0  1  0  0  0  0  0999 V2000
  160.6280  211.6490  142.7900 C   0  0  0  0  0  0  0  0  0  0  0  0
  157.0070  212.4190  148.3820 C   0  0  0  0  0  2  0  0  0  0  0  0
  161.2830  212.6900  141.9360 C   0  0  0  0  0  2  0  0  0  0  0  0
  154.6460  213.7770  147.3770 F   0  0  0  0  0  0  0  0  0  0  0  0
  158.9350  213.1860  143.9340 C   0  0  0  0  0  0  0  0  0  0  0  0
  157.9250  212.3620  147.1460 C   0  0  1  0  0  3  0  0  0  0  0  0
  160.6900  210.4780  142.4530 O   0  0  0  0  0  0  0  0  0  0  0  0
  156.6110  214.3950  146.3560 O   0  0  0  0  0  0  0  0  0  0  0  0
  160.8110  212.1220  145.2610 C   0  0  0  0  0  2  0  0  0  0  0  0
  160.1940  211.4170  146.4720 C   0  0  1  0  0  3  0  0  0  0  0  0
  157.5220  213.3660  146.0920 C   0  0  0  0  0  0  0  0  0  0  0  0
  161.2700  210.5680  147.1370 C   0  0  0  0  0  1  0  0  0  0  0  0
  160.2470  213.3910  141.1120 C   0  0  0  0  0  0  0  0  0  0  0  0
  155.8400  214.4530  147.5560 C   0  0  2  0  0  3  0  0  0  0  0  0
  159.4570  212.4050  147.4190 C   0  0  2  0  0  3  0  0  0  0  0  0
  156.6090  213.8510  148.7260 C   0  0  0  0  0  2  0  0  0  0  0  0
  159.8860  212.0150  144.0450 C   0  0  2  0  0  3  0  0  0  0  0  0
  159.3180  214.1670  141.6850 C   0  0  0  0  0  3  0  0  0  0  0  0
  159.2840  214.4240  143.1630 C   0  0  0  0  0  2  0  0  0  0  0  0
  158.1460  213.3270  144.9540 C   0  0  0  0  0  0  0  0  0  0  0  0
  158.9080  212.3010  149.8200 C   0  0  0  0  0  3  0  0  0  0  0  0
  159.8330  212.2480  148.8680 C   0  0  0  0  0  3  0  0  0  0  0  0
  158.0240  214.3230  154.7100 C   0  0  0  0  0  2  0  0  0  0  0  0
  159.0940  212.4110  153.5770 C   0  0  0  0  0  0  0  0  0  0  0  0
  157.6810  213.8920  152.2340 C   0  0  0  0  0  2  0  0  0  0  0  0
  159.9550  211.4200  153.3180 C   0  0  2  0  0  3  0  0  0  0  0  0
  158.5300  212.8820  154.8800 C   0  0  0  0  0  2  0  0  0  0  0  0
  159.9890  211.2430  151.8560 C   0  0  0  0  0  0  0  0  0  0  0  0
  159.6500  209.8870  155.2550 C   0  0  0  0  0  1  0  0  0  0  0  0
  160.6760  210.4870  154.2910 C   0  0  1  0  0  0  0  0  0  0  0  0
  159.2120  212.1510  151.2540 C   0  0  0  0  0  0  0  0  0  0  0  0
  157.0750  214.4510  153.5010 C   0  0  0  0  0  2  0  0  0  0  0  0
  161.3890  209.3390  153.4950 C   0  0  2  0  0  3  0  0  0  0  0  0
  160.7020  210.0990  151.2150 C   0  0  0  0  0  2  0  0  0  0  0  0
  158.5910  212.9220  152.3170 C   0  0  0  0  0  0  0  0  0  0  0  0
  160.6990  208.9270  152.1880 C   0  0  0  0  0  2  0  0  0  0  0  0
  161.7960  211.2340  155.0680 C   0  0  2  0  0  3  0  0  0  0  0  0
  163.0670  210.7680  154.7140 O   0  0  0  0  0  1  0  0  0  0  0  0
  161.9960  210.2410  157.2430 O   0  0  0  0  0  1  0  0  0  0  0  0
  161.6680  211.2490  156.5600 C   0  0  0  0  0  0  0  0  0  0  0  0
  161.1690  212.3810  157.1930 O   0  0  0  0  0  0  0  0  0  0  0  0
  161.6300  208.2100  154.2890 O   0  0  0  0  0  0  0  0  0  0  0  0
  161.4890  205.8420  154.1160 C   0  0  0  0  0  1  0  0  0  0  0  0
  160.9150  207.1760  153.6820 C   0  0  0  0  0  2  0  0  0  0  0  0
  160.1700  213.0950  139.6480 C   0  0  0  0  0  2  0  0  0  0  0  0
  163.0440  212.9760  139.6520 O   0  0  0  0  0  1  0  0  0  0  0  0
  161.6700  212.2170  137.5610 O   0  0  0  0  0  0  0  0  0  0  0  0
  161.6520  212.2100  139.0740 P   0  0  0  0  0  0  0  0  0  0  0  0
  161.6120  210.6120  139.6290 O   0  0  0  0  0  1  0  0  0  0  0  0
  1 17  1  0  0  0  0
  2 16  1  0  0  0  0
  3  1  1  0  0  0  0
  5 17  1  0  0  0  0
  5 20  2  0  0  0  0
  6 15  1  0  0  0  0
  6  2  1  1  0  0  0
  7  1  2  0  0  0  0
  8 14  1  0  0  0  0
  9 10  1  0  0  0  0
 10 12  1  1  0  0  0
 10 15  1  0  0  0  0
 11  8  1  0  0  0  0
 11  6  1  0  0  0  0
 13 18  2  0  0  0  0
 13  3  1  0  0  0  0
 14  4  1  6  0  0  0
 14 16  1  0  0  0  0
 15 22  1  1  0  0  0
 17  9  1  1  0  0  0
 18 19  1  0  0  0  0
 19  5  1  0  0  0  0
 20 11  2  0  0  0  0
 21 31  1  0  0  0  0
 22 21  2  0  0  0  0
 23 27  1  0  0  0  0
 24 27  1  0  0  0  0
 25 35  1  0  0  0  0
 25 32  1  0  0  0  0
 26 28  1  6  0  0  0
 26 24  1  0  0  0  0
 26 30  1  0  0  0  0
 30 37  1  0  0  0  0
 30 29  1  1  0  0  0
 31 28  2  0  0  0  0
 31 35  1  0  0  0  0
 32 23  1  0  0  0  0
 33 42  1  1  0  0  0
 33 30  1  0  0  0  0
 34 28  1  0  0  0  0
 34 36  1  0  0  0  0
 35 24  2  0  0  0  0
 36 33  1  0  0  0  0
 37 38  1  1  0  0  0
 37 40  1  0  0  0  0
 40 41  2  0  0  0  0
 40 39  1  0  0  0  0
 44 43  1  0  0  0  0
 44 42  1  0  0  0  0
 45 13  1  0  0  0  0
 47 48  2  0  0  0  0
 48 49  1  0  0  0  0
 48 45  1  0  0  0  0
 48 46  1  0  0  0  0
M  END
>  <MODEL>
3

>  <REMARK>
 VINA RESULT:       2.1      5.890     10.876
  Name = 
  8 active torsions:
  status: ('A' for Active; 'I' for Inactive)
    1  A    between atoms: C_2  and  C_35
    2  A    between atoms: C_2  and  P_41
    3  A    between atoms: C_10  and  C_24
    4  A    between atoms: C_10  and  C_30
    5  A    between atoms: O_13  and  C_16
    6  A    between atoms: O_13  and  C_40
    7  A    between atoms: C_21  and  C_31
    8  A    between atoms: C_37  and  C_49
                            x       y       z     vdW  Elec       q    Type
                         _______ _______ _______ _____ _____    ______ ____

>  <TORSDO>
F 8

$$$$
=
 OpenBabel11072409503D

 49 54  0  0  1  0  0  0  0  0999 V2000
  159.1080  210.3610  155.0170 C   0  0  0  0  0  0  0  0  0  0  0  0
  162.9570  209.7110  149.5640 C   0  0  0  0  0  2  0  0  0  0  0  0
  157.6690  210.7630  155.1170 C   0  0  0  0  0  2  0  0  0  0  0  0
  163.1590  212.4590  148.6490 F   0  0  0  0  0  0  0  0  0  0  0  0
  159.5630  211.3540  152.7050 C   0  0  0  0  0  0  0  0  0  0  0  0
  161.9560  209.8070  150.7300 C   0  0  1  0  0  3  0  0  0  0  0  0
  159.7390  210.1460  156.0390 O   0  0  0  0  0  0  0  0  0  0  0  0
  161.1150  211.8950  149.5390 O   0  0  0  0  0  0  0  0  0  0  0  0
  159.5900  208.8470  153.0580 C   0  0  0  0  0  2  0  0  0  0  0  0
  160.9080  208.3030  152.5020 C   0  0  1  0  0  3  0  0  0  0  0  0
  161.1380  211.0760  150.6740 C   0  0  0  0  0  0  0  0  0  0  0  0
  161.0490  206.8480  152.9270 C   0  0  0  0  0  1  0  0  0  0  0  0
  157.5440  212.2420  154.9110 C   0  0  0  0  0  0  0  0  0  0  0  0
  162.0100  211.7160  148.4410 C   0  0  2  0  0  3  0  0  0  0  0  0
  161.0560  208.5600  150.9760 C   0  0  2  0  0  3  0  0  0  0  0  0
  162.3660  210.2450  148.2630 C   0  0  0  0  0  2  0  0  0  0  0  0
  159.7960  210.2270  153.6870 C   0  0  2  0  0  3  0  0  0  0  0  0
  157.8190  212.7990  153.7240 C   0  0  0  0  0  3  0  0  0  0  0  0
  158.2150  211.9880  152.5260 C   0  0  0  0  0  2  0  0  0  0  0  0
  160.3470  211.3270  151.6710 C   0  0  0  0  0  0  0  0  0  0  0  0
  160.5570  206.6020  149.5640 C   0  0  0  0  0  3  0  0  0  0  0  0
  161.4630  207.3400  150.1950 C   0  0  0  0  0  3  0  0  0  0  0  0
  162.6130  204.8320  144.9360 C   0  0  0  0  0  2  0  0  0  0  0  0
  161.8160  204.0260  147.1260 C   0  0  0  0  0  0  0  0  0  0  0  0
  162.0820  206.4400  146.8230 C   0  0  0  0  0  2  0  0  0  0  0  0
  161.2630  203.2360  148.0540 C   0  0  2  0  0  3  0  0  0  0  0  0
  162.6710  203.6780  145.9490 C   0  0  0  0  0  2  0  0  0  0  0  0
  160.7210  204.1120  149.1060 C   0  0  0  0  0  0  0  0  0  0  0  0
  162.7410  201.2330  148.0420 C   0  0  0  0  0  1  0  0  0  0  0  0
  161.2930  201.7120  148.1680 C   0  0  1  0  0  0  0  0  0  0  0  0
  160.8920  205.3990  148.7810 C   0  0  0  0  0  0  0  0  0  0  0  0
  162.9330  206.1860  145.6000 C   0  0  0  0  0  2  0  0  0  0  0  0
  160.7080  201.2720  149.5540 C   0  0  2  0  0  3  0  0  0  0  0  0
  160.1950  203.5700  150.3940 C   0  0  0  0  0  2  0  0  0  0  0  0
  161.6130  205.4060  147.5200 C   0  0  0  0  0  0  0  0  0  0  0  0
  160.9270  202.2690  150.6990 C   0  0  0  0  0  2  0  0  0  0  0  0
  160.3920  201.0460  147.0890 C   0  0  2  0  0  3  0  0  0  0  0  0
  160.7680  199.7190  146.8520 O   0  0  0  0  0  1  0  0  0  0  0  0
  160.9230  201.3810  144.7740 O   0  0  0  0  0  0  0  0  0  0  0  0
  160.2770  201.7720  145.7840 C   0  0  0  0  0  0  0  0  0  0  0  0
  159.4630  202.8940  145.6940 O   0  0  0  0  0  1  0  0  0  0  0  0
  161.1450  199.9970  149.9370 O   0  0  0  0  0  0  0  0  0  0  0  0
  162.6190  201.0300  151.4910 C   0  0  0  0  0  1  0  0  0  0  0  0
  161.4370  200.1020  151.2980 C   0  0  0  0  0  2  0  0  0  0  0  0
  157.2500  213.1110  156.0910 C   0  0  0  0  0  2  0  0  0  0  0  0
  154.6460  213.4350  154.9100 O   0  0  0  0  0  0  0  0  0  0  0  0
  155.1960  214.4530  157.2550 O   0  0  0  0  0  1  0  0  0  0  0  0
  155.4590  213.2470  156.3820 P   0  0  0  0  0  0  0  0  0  0  0  0
  154.9020  211.8530  157.1630 O   0  0  0  0  0  1  0  0  0  0  0  0
  1  3  1  0  0  0  0
  1  7  2  0  0  0  0
  5 17  1  0  0  0  0
  6  2  1  6  0  0  0
  6 15  1  0  0  0  0
  8 11  1  0  0  0  0
 10 12  1  6  0  0  0
 10  9  1  0  0  0  0
 11  6  1  0  0  0  0
 11 20  2  0  0  0  0
 13  3  1  0  0  0  0
 13 45  1  0  0  0  0
 14  4  1  1  0  0  0
 14  8  1  0  0  0  0
 15 22  1  6  0  0  0
 15 10  1  0  0  0  0
 16 14  1  0  0  0  0
 16  2  1  0  0  0  0
 17  9  1  6  0  0  0
 17  1  1  0  0  0  0
 18 13  2  0  0  0  0
 19  5  1  0  0  0  0
 19 18  1  0  0  0  0
 20  5  2  0  0  0  0
 21 22  2  0  0  0  0
 23 32  1  0  0  0  0
 23 27  1  0  0  0  0
 24 35  2  0  0  0  0
 25 35  1  0  0  0  0
 26 24  1  1  0  0  0
 26 30  1  0  0  0  0
 26 28  1  0  0  0  0
 27 24  1  0  0  0  0
 28 34  1  0  0  0  0
 30 29  1  6  0  0  0
 30 33  1  0  0  0  0
 31 28  2  0  0  0  0
 31 21  1  0  0  0  0
 32 25  1  0  0  0  0
 33 42  1  1  0  0  0
 33 36  1  0  0  0  0
 34 36  1  0  0  0  0
 35 31  1  0  0  0  0
 37 38  1  6  0  0  0
 37 30  1  0  0  0  0
 39 40  2  0  0  0  0
 40 37  1  0  0  0  0
 41 40  1  0  0  0  0
 42 44  1  0  0  0  0
 44 43  1  0  0  0  0
 45 48  1  0  0  0  0
 46 48  2  0  0  0  0
 48 49  1  0  0  0  0
 48 47  1  0  0  0  0
M  END
>  <MODEL>
4

>  <REMARK>
 VINA RESULT:       2.7      0.950      1.111
  Name = 
  8 active torsions:
  status: ('A' for Active; 'I' for Inactive)
    1  A    between atoms: C_2  and  C_35
    2  A    between atoms: C_2  and  P_41
    3  A    between atoms: C_10  and  C_24
    4  A    between atoms: C_10  and  C_30
    5  A    between atoms: O_13  and  C_16
    6  A    between atoms: O_13  and  C_40
    7  A    between atoms: C_21  and  C_31
    8  A    between atoms: C_37  and  C_49
                            x       y       z     vdW  Elec       q    Type
                         _______ _______ _______ _____ _____    ______ ____

>  <TORSDO>
F 8

$$$$
