=
 OpenBabel11072413173D

 27 32  0  0  1  0  0  0  0  0999 V2000
  160.4690  211.8800  153.5160 C   0  0  1  0  0  3  0  0  0  0  0  0
  161.7030  209.4540  151.3340 C   0  0  0  0  0  0  0  0  0  0  0  0
  159.6320  211.8180  155.7400 C   0  0  0  0  0  3  0  0  0  0  0  0
  160.5120  211.5870  150.9580 C   0  0  0  0  0  2  0  0  0  0  0  0
  161.9310  208.6850  150.1470 N   0  0  0  0  0  2  0  0  0  0  0  0
  160.3980  209.3130  155.8790 C   0  0  0  0  0  0  0  0  0  0  0  0
  159.7300  211.7040  152.2250 C   0  0  0  0  0  0  0  0  0  0  0  0
  159.9570  208.7770  157.0850 C   0  0  0  0  0  3  0  0  0  0  0  0
  160.6320  206.5800  156.2340 C   0  0  0  0  0  3  0  0  0  0  0  0
  159.6740  212.6370  154.5100 N   0  0  0  0  0  0  0  0  0  0  0  0
  161.1420  209.3450  153.7710 C   0  0  0  0  0  0  0  0  0  0  0  0
  161.0410  207.1450  155.0130 C   0  0  0  0  0  3  0  0  0  0  0  0
  160.3330  210.5850  155.3640 C   0  0  0  0  0  0  0  0  0  0  0  0
  161.4250  208.8410  152.4520 N   0  0  0  0  0  0  0  0  0  0  0  0
  158.5120  211.6230  152.2010 O   0  0  0  0  0  0  0  0  0  0  0  0
  160.0940  207.3880  157.2610 C   0  0  0  0  0  3  0  0  0  0  0  0
  161.8610  210.9330  151.2290 C   0  0  0  0  0  2  0  0  0  0  0  0
  160.7690  210.6040  154.1230 N   0  0  0  0  0  0  0  0  0  0  0  0
  160.9200  208.5260  154.8700 C   0  0  0  0  0  0  0  0  0  0  0  0
  161.1790  205.2120  150.7840 C   0  0  0  0  0  0  0  0  0  0  0  0
  160.8010  205.4740  148.3150 C   0  0  0  0  0  3  0  0  0  0  0  0
  160.8020  203.8790  150.5630 C   0  0  0  0  0  2  0  0  0  0  0  0
  161.2890  207.6730  147.5440 F   0  0  0  0  0  0  0  0  0  0  0  0
  161.5420  207.3190  149.9530 C   0  0  0  0  0  0  0  0  0  0  0  0
  160.8190  204.7400  149.4560 C   0  0  0  0  0  0  0  0  0  0  0  0
  161.1930  206.8300  148.6010 C   0  0  0  0  0  0  0  0  0  0  0  0
  161.5580  206.4710  151.1160 C   0  0  0  0  0  3  0  0  0  0  0  0
  1  7  1  6  0  0  0
  1 18  1  0  0  0  0
  1 10  1  0  0  0  0
  2 14  2  0  0  0  0
  4 17  1  0  0  0  0
  4  7  1  0  0  0  0
  5  2  1  0  0  0  0
  6  8  1  0  0  0  0
  8 16  2  0  0  0  0
  9 16  1  0  0  0  0
 10  3  2  0  0  0  0
 11 18  1  0  0  0  0
 11 19  2  0  0  0  0
 12  9  2  0  0  0  0
 13  3  1  0  0  0  0
 13  6  2  0  0  0  0
 14 11  1  0  0  0  0
 15  7  2  0  0  0  0
 17  2  1  0  0  0  0
 18 13  1  0  0  0  0
 19 12  1  0  0  0  0
 19  6  1  0  0  0  0
 20 27  1  0  0  0  0
 21 26  2  0  0  0  0
 21 25  1  0  0  0  0
 22 20  1  0  0  0  0
 23 26  1  0  0  0  0
 24  5  1  0  0  0  0
 24 27  2  0  0  0  0
 25 22  1  0  0  0  0
 25 20  2  0  0  0  0
 26 24  1  0  0  0  0
M  END
>  <MODEL>
1

>  <REMARK>
 VINA RESULT:      -7.6      0.000      0.000
  Name = 
  1 active torsions:
  status: ('A' for Active; 'I' for Inactive)
    1  A    between atoms: N_9  and  C_19
                            x       y       z     vdW  Elec       q    Type
                         _______ _______ _______ _____ _____    ______ ____

>  <TORSDO>
F 1

$$$$
=
 OpenBabel11072413173D

 27 32  0  0  1  0  0  0  0  0999 V2000
  159.1310  211.3340  155.2160 C   0  0  1  0  0  3  0  0  0  0  0  0
  159.3180  213.1640  152.2520 C   0  0  0  0  0  0  0  0  0  0  0  0
  159.7240  209.1110  155.8160 C   0  0  0  0  0  3  0  0  0  0  0  0
  157.7710  213.2590  154.1780 C   0  0  0  0  0  2  0  0  0  0  0  0
  158.9650  214.0280  151.1660 N   0  0  0  0  0  2  0  0  0  0  0  0
  160.8580  208.8580  153.4640 C   0  0  0  0  0  0  0  0  0  0  0  0
  157.8370  211.8490  154.6660 C   0  0  0  0  0  0  0  0  0  0  0  0
  161.2770  207.5400  153.3100 C   0  0  0  0  0  3  0  0  0  0  0  0
  161.7260  208.0700  150.9590 C   0  0  0  0  0  3  0  0  0  0  0  0
  158.9200  210.2790  156.2340 N   0  0  0  0  0  0  0  0  0  0  0  0
  160.2610  210.9290  152.8700 C   0  0  0  0  0  0  0  0  0  0  0  0
  161.2660  209.3880  151.1360 C   0  0  0  0  0  3  0  0  0  0  0  0
  160.2930  209.5200  154.5260 C   0  0  0  0  0  0  0  0  0  0  0  0
  159.8320  211.9920  151.9980 N   0  0  0  0  0  0  0  0  0  0  0  0
  156.8560  211.1270  154.5820 O   0  0  0  0  0  0  0  0  0  0  0  0
  161.7300  207.1540  152.0350 C   0  0  0  0  0  3  0  0  0  0  0  0
  159.1270  213.6910  153.6330 C   0  0  0  0  0  2  0  0  0  0  0  0
  159.9390  210.7390  154.1770 N   0  0  0  0  0  0  0  0  0  0  0  0
  160.8470  209.7560  152.4130 C   0  0  0  0  0  0  0  0  0  0  0  0
  157.4170  212.9050  148.1040 C   0  0  0  0  0  0  0  0  0  0  0  0
  159.8480  213.1240  147.5130 C   0  0  0  0  0  3  0  0  0  0  0  0
  157.2670  212.5040  146.7680 C   0  0  0  0  0  2  0  0  0  0  0  0
  161.1830  213.7880  149.3690 F   0  0  0  0  0  0  0  0  0  0  0  0
  158.7800  213.6220  149.8040 C   0  0  0  0  0  0  0  0  0  0  0  0
  158.5580  212.8330  147.2050 C   0  0  0  0  0  0  0  0  0  0  0  0
  159.9410  213.5290  148.8910 C   0  0  0  0  0  0  0  0  0  0  0  0
  157.4390  213.2760  149.4090 C   0  0  0  0  0  3  0  0  0  0  0  0
  1  7  1  6  0  0  0
  1 10  1  0  0  0  0
  2 17  1  0  0  0  0
  3 10  2  0  0  0  0
  4  7  1  0  0  0  0
  5  2  1  0  0  0  0
  6 13  2  0  0  0  0
  8  6  1  0  0  0  0
  9 12  2  0  0  0  0
  9 16  1  0  0  0  0
 11 18  1  0  0  0  0
 12 19  1  0  0  0  0
 13  3  1  0  0  0  0
 14  2  2  0  0  0  0
 14 11  1  0  0  0  0
 15  7  2  0  0  0  0
 16  8  2  0  0  0  0
 17  4  1  0  0  0  0
 18 13  1  0  0  0  0
 18  1  1  0  0  0  0
 19 11  2  0  0  0  0
 19  6  1  0  0  0  0
 20 27  1  0  0  0  0
 21 26  2  0  0  0  0
 22 25  1  0  0  0  0
 22 20  1  0  0  0  0
 24  5  1  0  0  0  0
 25 21  1  0  0  0  0
 25 20  2  0  0  0  0
 26 23  1  0  0  0  0
 26 24  1  0  0  0  0
 27 24  2  0  0  0  0
M  END
>  <MODEL>
2

>  <REMARK>
 VINA RESULT:      -7.6      2.885      5.410
  Name = 
  1 active torsions:
  status: ('A' for Active; 'I' for Inactive)
    1  A    between atoms: N_9  and  C_19
                            x       y       z     vdW  Elec       q    Type
                         _______ _______ _______ _____ _____    ______ ____

>  <TORSDO>
F 1

$$$$
=
 OpenBabel11072413173D

 27 32  0  0  1  0  0  0  0  0999 V2000
  160.0320  209.7780  155.6810 C   0  0  1  0  0  3  0  0  0  0  0  0
  160.0570  212.2410  153.2110 C   0  0  0  0  0  0  0  0  0  0  0  0
  160.3430  207.4210  155.6570 C   0  0  0  0  0  3  0  0  0  0  0  0
  158.8580  212.0480  155.3640 C   0  0  0  0  0  2  0  0  0  0  0  0
  159.6860  213.3810  152.4270 N   0  0  0  0  0  2  0  0  0  0  0  0
  161.0490  207.6160  153.1370 C   0  0  0  0  0  0  0  0  0  0  0  0
  158.7690  210.5640  155.5090 C   0  0  0  0  0  0  0  0  0  0  0  0
  161.2230  206.3360  152.6220 C   0  0  0  0  0  3  0  0  0  0  0  0
  161.3860  207.3660  150.4030 C   0  0  0  0  0  3  0  0  0  0  0  0
  159.8110  208.5400  156.4630 N   0  0  0  0  0  0  0  0  0  0  0  0
  160.7100  209.8260  153.1360 C   0  0  0  0  0  0  0  0  0  0  0  0
  161.1780  208.6460  150.9490 C   0  0  0  0  0  3  0  0  0  0  0  0
  160.7670  208.0620  154.4050 C   0  0  0  0  0  0  0  0  0  0  0  0
  160.3300  211.1140  152.6140 N   0  0  0  0  0  0  0  0  0  0  0  0
  157.6830  210.0090  155.4530 O   0  0  0  0  0  0  0  0  0  0  0  0
  161.4070  206.2210  151.2320 C   0  0  0  0  0  3  0  0  0  0  0  0
  160.1660  212.4340  154.6850 C   0  0  0  0  0  2  0  0  0  0  0  0
  160.5660  209.3620  154.4050 N   0  0  0  0  0  0  0  0  0  0  0  0
  161.0230  208.7390  152.3310 C   0  0  0  0  0  0  0  0  0  0  0  0
  159.6790  213.3150  148.8180 C   0  0  0  0  0  0  0  0  0  0  0  0
  157.2430  213.3330  149.4310 C   0  0  0  0  0  3  0  0  0  0  0  0
  159.2070  213.2870  147.4960 C   0  0  0  0  0  2  0  0  0  0  0  0
  156.8940  213.4530  151.7830 F   0  0  0  0  0  0  0  0  0  0  0  0
  159.2330  213.3450  151.0680 C   0  0  0  0  0  0  0  0  0  0  0  0
  158.2540  213.3110  148.5250 C   0  0  0  0  0  0  0  0  0  0  0  0
  157.7850  213.3590  150.7650 C   0  0  0  0  0  0  0  0  0  0  0  0
  160.2490  213.3410  150.0480 C   0  0  0  0  0  3  0  0  0  0  0  0
  1  7  1  6  0  0  0
  1 10  1  0  0  0  0
  2 17  1  0  0  0  0
  3 10  2  0  0  0  0
  4  7  1  0  0  0  0
  5  2  1  0  0  0  0
  6 13  2  0  0  0  0
  8  6  1  0  0  0  0
  9 12  2  0  0  0  0
  9 16  1  0  0  0  0
 11 18  1  0  0  0  0
 12 19  1  0  0  0  0
 13  3  1  0  0  0  0
 14 11  1  0  0  0  0
 14  2  2  0  0  0  0
 15  7  2  0  0  0  0
 16  8  2  0  0  0  0
 17  4  1  0  0  0  0
 18 13  1  0  0  0  0
 18  1  1  0  0  0  0
 19 11  2  0  0  0  0
 19  6  1  0  0  0  0
 20 27  1  0  0  0  0
 21 26  2  0  0  0  0
 22 25  1  0  0  0  0
 22 20  1  0  0  0  0
 24  5  1  0  0  0  0
 25 20  2  0  0  0  0
 25 21  1  0  0  0  0
 26 24  1  0  0  0  0
 26 23  1  0  0  0  0
 27 24  2  0  0  0  0
M  END
>  <MODEL>
3

>  <REMARK>
 VINA RESULT:      -7.4      2.677      5.671
  Name = 
  1 active torsions:
  status: ('A' for Active; 'I' for Inactive)
    1  A    between atoms: N_9  and  C_19
                            x       y       z     vdW  Elec       q    Type
                         _______ _______ _______ _____ _____    ______ ____

>  <TORSDO>
F 1

$$$$
=
 OpenBabel11072413173D

 27 32  0  0  1  0  0  0  0  0999 V2000
  160.8830  201.2410  148.3470 C   0  0  1  0  0  3  0  0  0  0  0  0
  161.7690  203.5540  150.8020 C   0  0  0  0  0  0  0  0  0  0  0  0
  160.5360  201.3860  145.9990 C   0  0  0  0  0  3  0  0  0  0  0  0
  160.4040  201.4940  150.8640 C   0  0  0  0  0  2  0  0  0  0  0  0
  161.7860  204.2890  152.0310 N   0  0  0  0  0  2  0  0  0  0  0  0
  161.4570  203.8410  146.0910 C   0  0  0  0  0  0  0  0  0  0  0  0
  159.9010  201.4440  149.4590 C   0  0  0  0  0  0  0  0  0  0  0  0
  161.3110  204.4200  144.8340 C   0  0  0  0  0  3  0  0  0  0  0  0
  161.9190  206.5580  145.8660 C   0  0  0  0  0  3  0  0  0  0  0  0
  160.2720  200.5480  147.1880 N   0  0  0  0  0  0  0  0  0  0  0  0
  161.7390  203.7320  148.3060 C   0  0  0  0  0  0  0  0  0  0  0  0
  162.0290  205.9510  147.1300 C   0  0  0  0  0  3  0  0  0  0  0  0
  161.2130  202.5680  146.5460 C   0  0  0  0  0  0  0  0  0  0  0  0
  161.7680  204.1980  149.6680 N   0  0  0  0  0  0  0  0  0  0  0  0
  158.7110  201.6000  149.2300 O   0  0  0  0  0  0  0  0  0  0  0  0
  161.5630  205.8000  144.7280 C   0  0  0  0  0  3  0  0  0  0  0  0
  161.8150  202.0670  150.8980 C   0  0  0  0  0  2  0  0  0  0  0  0
  161.3770  202.5040  147.8500 N   0  0  0  0  0  0  0  0  0  0  0  0
  161.8010  204.5790  147.2070 C   0  0  0  0  0  0  0  0  0  0  0  0
  161.1940  207.7710  151.2800 C   0  0  0  0  0  0  0  0  0  0  0  0
  160.7210  207.5900  153.7400 C   0  0  0  0  0  3  0  0  0  0  0  0
  160.8620  209.1230  151.4530 C   0  0  0  0  0  2  0  0  0  0  0  0
  161.0960  205.3950  154.5830 F   0  0  0  0  0  0  0  0  0  0  0  0
  161.4450  205.6740  152.1770 C   0  0  0  0  0  0  0  0  0  0  0  0
  160.8080  208.2920  152.5820 C   0  0  0  0  0  0  0  0  0  0  0  0
  161.0690  206.2130  153.5020 C   0  0  0  0  0  0  0  0  0  0  0  0
  161.5350  206.4900  150.9930 C   0  0  0  0  0  3  0  0  0  0  0  0
  1 10  1  6  0  0  0
  1  7  1  0  0  0  0
  2 17  1  0  0  0  0
  2  5  1  0  0  0  0
  3 13  1  0  0  0  0
  3 10  2  0  0  0  0
  4 17  1  0  0  0  0
  5 24  1  0  0  0  0
  6 13  2  0  0  0  0
  6 19  1  0  0  0  0
  7  4  1  0  0  0  0
  8  6  1  0  0  0  0
  9 12  2  0  0  0  0
 11 14  1  0  0  0  0
 12 19  1  0  0  0  0
 13 18  1  0  0  0  0
 14  2  2  0  0  0  0
 15  7  2  0  0  0  0
 16  8  2  0  0  0  0
 16  9  1  0  0  0  0
 18 11  1  0  0  0  0
 18  1  1  0  0  0  0
 19 11  2  0  0  0  0
 20 22  1  0  0  0  0
 20 25  1  0  0  0  0
 22 25  1  0  0  0  0
 24 26  2  0  0  0  0
 25 21  2  0  0  0  0
 26 21  1  0  0  0  0
 26 23  1  0  0  0  0
 27 20  2  0  0  0  0
 27 24  1  0  0  0  0
M  END
>  <MODEL>
4

>  <REMARK>
 VINA RESULT:      -7.4      4.129      9.091
  Name = 
  1 active torsions:
  status: ('A' for Active; 'I' for Inactive)
    1  A    between atoms: N_9  and  C_19
                            x       y       z     vdW  Elec       q    Type
                         _______ _______ _______ _____ _____    ______ ____

>  <TORSDO>
F 1

$$$$
=
 OpenBabel11072413173D

 27 32  0  0  1  0  0  0  0  0999 V2000
  161.3700  203.5820  146.3230 C   0  0  1  0  0  3  0  0  0  0  0  0
  160.9090  206.8630  147.4140 C   0  0  0  0  0  0  0  0  0  0  0  0
  161.5700  201.4910  147.4380 C   0  0  0  0  0  3  0  0  0  0  0  0
  162.0440  205.9040  145.4380 C   0  0  0  0  0  2  0  0  0  0  0  0
  161.0550  208.2810  147.5500 N   0  0  0  0  0  2  0  0  0  0  0  0
  160.9290  202.7070  149.6730 C   0  0  0  0  0  0  0  0  0  0  0  0
  162.4420  204.5630  145.9610 C   0  0  0  0  0  0  0  0  0  0  0  0
  161.0510  201.8030  150.7240 C   0  0  0  0  0  3  0  0  0  0  0  0
  160.7500  203.6980  152.2490 C   0  0  0  0  0  3  0  0  0  0  0  0
  161.8230  202.1810  146.1550 N   0  0  0  0  0  0  0  0  0  0  0  0
  160.7880  204.6860  148.6430 C   0  0  0  0  0  0  0  0  0  0  0  0
  160.6610  204.5940  151.1670 C   0  0  0  0  0  3  0  0  0  0  0  0
  161.0640  202.5540  148.3140 C   0  0  0  0  0  0  0  0  0  0  0  0
  160.9030  206.1130  148.4800 N   0  0  0  0  0  0  0  0  0  0  0  0
  163.6230  204.2940  146.1180 O   0  0  0  0  0  0  0  0  0  0  0  0
  160.9440  202.3160  152.0290 C   0  0  0  0  0  3  0  0  0  0  0  0
  160.7090  206.3280  146.0360 C   0  0  0  0  0  2  0  0  0  0  0  0
  160.9830  203.7200  147.7080 N   0  0  0  0  0  0  0  0  0  0  0  0
  160.7430  204.0600  149.8820 C   0  0  0  0  0  0  0  0  0  0  0  0
  162.2000  208.9310  150.9120 C   0  0  0  0  0  0  0  0  0  0  0  0
  162.3050  211.1750  149.7880 C   0  0  0  0  0  3  0  0  0  0  0  0
  162.6820  209.6210  152.0340 C   0  0  0  0  0  2  0  0  0  0  0  0
  161.5310  211.1070  147.5380 F   0  0  0  0  0  0  0  0  0  0  0  0
  161.5530  208.9590  148.7100 C   0  0  0  0  0  0  0  0  0  0  0  0
  162.4710  210.3590  150.8600 C   0  0  0  0  0  0  0  0  0  0  0  0
  161.8130  210.4150  148.6690 C   0  0  0  0  0  0  0  0  0  0  0  0
  161.7350  208.1610  149.8960 C   0  0  0  0  0  3  0  0  0  0  0  0
  1  7  1  1  0  0  0
  1 18  1  0  0  0  0
  2  5  1  0  0  0  0
  2 14  2  0  0  0  0
  3 13  1  0  0  0  0
  4  7  1  0  0  0  0
  4 17  1  0  0  0  0
  5 24  1  0  0  0  0
  6 19  1  0  0  0  0
  6  8  1  0  0  0  0
  7 15  2  0  0  0  0
  8 16  2  0  0  0  0
 10  1  1  0  0  0  0
 10  3  2  0  0  0  0
 11 19  2  0  0  0  0
 12  9  2  0  0  0  0
 13  6  2  0  0  0  0
 14 11  1  0  0  0  0
 16  9  1  0  0  0  0
 17  2  1  0  0  0  0
 18 13  1  0  0  0  0
 18 11  1  0  0  0  0
 19 12  1  0  0  0  0
 20 22  1  0  0  0  0
 21 25  2  0  0  0  0
 23 26  1  0  0  0  0
 24 27  1  0  0  0  0
 25 20  1  0  0  0  0
 25 22  1  0  0  0  0
 26 24  2  0  0  0  0
 26 21  1  0  0  0  0
 27 20  2  0  0  0  0
M  END
>  <MODEL>
5

>  <REMARK>
 VINA RESULT:      -7.1      4.366      7.689
  Name = 
  1 active torsions:
  status: ('A' for Active; 'I' for Inactive)
    1  A    between atoms: N_9  and  C_19
                            x       y       z     vdW  Elec       q    Type
                         _______ _______ _______ _____ _____    ______ ____

>  <TORSDO>
F 1

$$$$
=
 OpenBabel11072413173D

 27 32  0  0  1  0  0  0  0  0999 V2000
  160.3420  209.5050  155.2400 C   0  0  1  0  0  3  0  0  0  0  0  0
  160.2270  212.0600  152.8690 C   0  0  0  0  0  0  0  0  0  0  0  0
  160.6070  207.1460  155.1050 C   0  0  0  0  0  3  0  0  0  0  0  0
  159.1890  211.8030  155.0980 C   0  0  0  0  0  2  0  0  0  0  0  0
  159.8190  213.2350  152.1590 N   0  0  0  0  0  2  0  0  0  0  0  0
  161.1260  207.4270  152.5480 C   0  0  0  0  0  0  0  0  0  0  0  0
  159.0840  210.3160  155.1930 C   0  0  0  0  0  0  0  0  0  0  0  0
  161.2370  206.1640  151.9740 C   0  0  0  0  0  3  0  0  0  0  0  0
  161.2530  207.2770  149.7900 C   0  0  0  0  0  3  0  0  0  0  0  0
  160.1570  208.2410  155.9910 N   0  0  0  0  0  0  0  0  0  0  0  0
  160.8290  209.6400  152.6550 C   0  0  0  0  0  0  0  0  0  0  0  0
  161.1100  208.5380  150.3970 C   0  0  0  0  0  3  0  0  0  0  0  0
  160.9480  207.8280  153.8500 C   0  0  0  0  0  0  0  0  0  0  0  0
  160.4340  210.9530  152.2120 N   0  0  0  0  0  0  0  0  0  0  0  0
  157.9870  209.7800  155.1980 O   0  0  0  0  0  0  0  0  0  0  0  0
  161.3150  206.1010  150.5710 C   0  0  0  0  0  3  0  0  0  0  0  0
  160.4490  212.1950  154.3370 C   0  0  0  0  0  2  0  0  0  0  0  0
  160.7710  209.1300  153.9130 N   0  0  0  0  0  0  0  0  0  0  0  0
  161.0600  208.5800  151.7890 C   0  0  0  0  0  0  0  0  0  0  0  0
  157.4610  213.1120  149.4280 C   0  0  0  0  0  0  0  0  0  0  0  0
  159.6800  213.4470  148.3010 C   0  0  0  0  0  3  0  0  0  0  0  0
  156.9470  213.1320  148.1230 C   0  0  0  0  0  2  0  0  0  0  0  0
  161.4910  213.4990  149.8460 F   0  0  0  0  0  0  0  0  0  0  0  0
  159.2660  213.2590  150.8370 C   0  0  0  0  0  0  0  0  0  0  0  0
  158.3320  213.2890  148.2770 C   0  0  0  0  0  0  0  0  0  0  0  0
  160.1500  213.4200  149.6610 C   0  0  0  0  0  0  0  0  0  0  0  0
  157.8410  213.0750  150.7290 C   0  0  0  0  0  3  0  0  0  0  0  0
  1  7  1  6  0  0  0
  1 10  1  0  0  0  0
  2 17  1  0  0  0  0
  3 10  2  0  0  0  0
  4  7  1  0  0  0  0
  5  2  1  0  0  0  0
  6 13  2  0  0  0  0
  7 15  2  0  0  0  0
  8  6  1  0  0  0  0
  9 12  2  0  0  0  0
  9 16  1  0  0  0  0
 11 18  1  0  0  0  0
 12 19  1  0  0  0  0
 13 18  1  0  0  0  0
 13  3  1  0  0  0  0
 14 11  1  0  0  0  0
 14  2  2  0  0  0  0
 16  8  2  0  0  0  0
 17  4  1  0  0  0  0
 18  1  1  0  0  0  0
 19  6  1  0  0  0  0
 19 11  2  0  0  0  0
 20 27  1  0  0  0  0
 21 26  2  0  0  0  0
 22 25  1  0  0  0  0
 22 20  1  0  0  0  0
 24  5  1  0  0  0  0
 25 21  1  0  0  0  0
 25 20  2  0  0  0  0
 26 23  1  0  0  0  0
 26 24  1  0  0  0  0
 27 24  2  0  0  0  0
M  END
>  <MODEL>
6

>  <REMARK>
 VINA RESULT:      -7.0      2.501      5.631
  Name = 
  1 active torsions:
  status: ('A' for Active; 'I' for Inactive)
    1  A    between atoms: N_9  and  C_19
                            x       y       z     vdW  Elec       q    Type
                         _______ _______ _______ _____ _____    ______ ____

>  <TORSDO>
F 1

$$$$
=
 OpenBabel11072413173D

 27 32  0  0  1  0  0  0  0  0999 V2000
  161.9560  207.6800  152.7310 C   0  0  1  0  0  3  0  0  0  0  0  0
  162.1490  210.4750  150.6530 C   0  0  0  0  0  0  0  0  0  0  0  0
  161.4420  205.3880  152.3610 C   0  0  0  0  0  3  0  0  0  0  0  0
  161.5700  210.2070  153.0420 C   0  0  0  0  0  2  0  0  0  0  0  0
  161.9870  211.8070  150.1520 N   0  0  0  0  0  2  0  0  0  0  0  0
  161.4790  205.8740  149.7830 C   0  0  0  0  0  0  0  0  0  0  0  0
  161.0310  208.8140  153.0490 C   0  0  0  0  0  0  0  0  0  0  0  0
  161.0700  204.7280  149.1070 C   0  0  0  0  0  3  0  0  0  0  0  0
  160.9760  206.0910  147.0720 C   0  0  0  0  0  3  0  0  0  0  0  0
  161.5490  206.4270  153.4080 N   0  0  0  0  0  0  0  0  0  0  0  0
  161.9120  208.0410  150.1210 C   0  0  0  0  0  0  0  0  0  0  0  0
  161.3600  207.2400  147.7870 C   0  0  0  0  0  3  0  0  0  0  0  0
  161.7090  206.1170  151.1150 C   0  0  0  0  0  0  0  0  0  0  0  0
  161.8610  209.4610  149.8850 N   0  0  0  0  0  0  0  0  0  0  0  0
  159.8480  208.6170  153.2800 O   0  0  0  0  0  0  0  0  0  0  0  0
  160.8310  204.8470  147.7260 C   0  0  0  0  0  3  0  0  0  0  0  0
  162.7020  210.3280  152.0300 C   0  0  0  0  0  2  0  0  0  0  0  0
  161.9610  207.3930  151.3150 N   0  0  0  0  0  0  0  0  0  0  0  0
  161.6170  207.0940  149.1490 C   0  0  0  0  0  0  0  0  0  0  0  0
  160.8900  212.2140  146.7360 C   0  0  0  0  0  0  0  0  0  0  0  0
  159.1180  213.3730  148.0870 C   0  0  0  0  0  3  0  0  0  0  0  0
  160.1090  212.5960  145.6350 C   0  0  0  0  0  2  0  0  0  0  0  0
  159.5870  213.3500  150.4210 F   0  0  0  0  0  0  0  0  0  0  0  0
  161.2060  212.1770  149.0080 C   0  0  0  0  0  0  0  0  0  0  0  0
  159.6550  212.9620  146.9100 C   0  0  0  0  0  0  0  0  0  0  0  0
  159.9580  212.9530  149.1790 C   0  0  0  0  0  0  0  0  0  0  0  0
  161.7240  211.7940  147.7200 C   0  0  0  0  0  3  0  0  0  0  0  0
  1  7  1  6  0  0  0
  1 10  1  0  0  0  0
  2 17  1  0  0  0  0
  3 10  2  0  0  0  0
  4  7  1  0  0  0  0
  5  2  1  0  0  0  0
  6 13  2  0  0  0  0
  7 15  2  0  0  0  0
  8  6  1  0  0  0  0
  9 16  1  0  0  0  0
  9 12  2  0  0  0  0
 11 18  1  0  0  0  0
 12 19  1  0  0  0  0
 13 18  1  0  0  0  0
 13  3  1  0  0  0  0
 14 11  1  0  0  0  0
 14  2  2  0  0  0  0
 16  8  2  0  0  0  0
 17  4  1  0  0  0  0
 18  1  1  0  0  0  0
 19  6  1  0  0  0  0
 19 11  2  0  0  0  0
 20 25  2  0  0  0  0
 20 27  1  0  0  0  0
 21 26  2  0  0  0  0
 22 20  1  0  0  0  0
 22 25  1  0  0  0  0
 24 26  1  0  0  0  0
 24  5  1  0  0  0  0
 25 21  1  0  0  0  0
 26 23  1  0  0  0  0
 27 24  2  0  0  0  0
M  END
>  <MODEL>
7

>  <REMARK>
 VINA RESULT:      -6.8      2.854      6.385
  Name = 
  1 active torsions:
  status: ('A' for Active; 'I' for Inactive)
    1  A    between atoms: N_9  and  C_19
                            x       y       z     vdW  Elec       q    Type
                         _______ _______ _______ _____ _____    ______ ____

>  <TORSDO>
F 1

$$$$
=
 OpenBabel11072413173D

 27 32  0  0  1  0  0  0  0  0999 V2000
  161.1730  203.0140  150.2840 C   0  0  1  0  0  3  0  0  0  0  0  0
  162.3570  206.2600  150.7630 C   0  0  0  0  0  0  0  0  0  0  0  0
  160.5080  201.7720  148.3690 C   0  0  0  0  0  3  0  0  0  0  0  0
  161.0390  204.7350  152.1950 C   0  0  0  0  0  2  0  0  0  0  0  0
  162.5320  207.5740  151.3040 N   0  0  0  0  0  2  0  0  0  0  0  0
  161.4020  203.7370  146.8780 C   0  0  0  0  0  0  0  0  0  0  0  0
  160.3500  203.9020  151.1650 C   0  0  0  0  0  0  0  0  0  0  0  0
  161.0790  203.4720  145.5500 C   0  0  0  0  0  3  0  0  0  0  0  0
  161.7950  205.7590  145.0320 C   0  0  0  0  0  3  0  0  0  0  0  0
  160.4190  201.8170  149.8440 N   0  0  0  0  0  0  0  0  0  0  0  0
  161.9850  204.9340  148.6740 C   0  0  0  0  0  0  0  0  0  0  0  0
  162.0840  206.0080  146.3860 C   0  0  0  0  0  3  0  0  0  0  0  0
  161.2390  202.9980  148.0240 C   0  0  0  0  0  0  0  0  0  0  0  0
  162.1930  206.1100  149.4780 N   0  0  0  0  0  0  0  0  0  0  0  0
  159.1380  203.9770  151.0290 O   0  0  0  0  0  0  0  0  0  0  0  0
  161.2960  204.5030  144.6180 C   0  0  0  0  0  3  0  0  0  0  0  0
  162.4350  205.1160  151.7170 C   0  0  0  0  0  2  0  0  0  0  0  0
  161.5790  203.7030  149.0810 N   0  0  0  0  0  0  0  0  0  0  0  0
  161.8860  204.9640  147.2890 C   0  0  0  0  0  0  0  0  0  0  0  0
  161.9380  210.0140  148.7090 C   0  0  0  0  0  0  0  0  0  0  0  0
  161.4980  211.2710  150.8390 C   0  0  0  0  0  3  0  0  0  0  0  0
  161.6120  211.2280  148.0850 C   0  0  0  0  0  2  0  0  0  0  0  0
  161.8800  209.9430  152.7790 F   0  0  0  0  0  0  0  0  0  0  0  0
  162.1970  208.7990  150.6380 C   0  0  0  0  0  0  0  0  0  0  0  0
  161.5710  211.1880  149.4870 C   0  0  0  0  0  0  0  0  0  0  0  0
  161.8400  210.0010  151.4250 C   0  0  0  0  0  0  0  0  0  0  0  0
  162.2720  208.7950  149.2000 C   0  0  0  0  0  3  0  0  0  0  0  0
  1 10  1  6  0  0  0
  1  7  1  0  0  0  0
  2  5  1  0  0  0  0
  2 17  1  0  0  0  0
  3 10  2  0  0  0  0
  6 19  1  0  0  0  0
  6 13  2  0  0  0  0
  7  4  1  0  0  0  0
  8  6  1  0  0  0  0
  9 12  2  0  0  0  0
 11 18  1  0  0  0  0
 11 14  1  0  0  0  0
 12 19  1  0  0  0  0
 13  3  1  0  0  0  0
 13 18  1  0  0  0  0
 14  2  2  0  0  0  0
 15  7  2  0  0  0  0
 16  9  1  0  0  0  0
 16  8  2  0  0  0  0
 17  4  1  0  0  0  0
 18  1  1  0  0  0  0
 19 11  2  0  0  0  0
 20 27  2  0  0  0  0
 20 25  1  0  0  0  0
 21 26  1  0  0  0  0
 22 20  1  0  0  0  0
 22 25  1  0  0  0  0
 24  5  1  0  0  0  0
 24 26  2  0  0  0  0
 25 21  2  0  0  0  0
 26 23  1  0  0  0  0
 27 24  1  0  0  0  0
M  END
>  <MODEL>
8

>  <REMARK>
 VINA RESULT:      -6.3      3.787      8.187
  Name = 
  1 active torsions:
  status: ('A' for Active; 'I' for Inactive)
    1  A    between atoms: N_9  and  C_19
                            x       y       z     vdW  Elec       q    Type
                         _______ _______ _______ _____ _____    ______ ____

>  <TORSDO>
F 1

$$$$
=
 OpenBabel11072413173D

 27 32  0  0  1  0  0  0  0  0999 V2000
  161.8610  205.5870  149.4890 C   0  0  1  0  0  3  0  0  0  0  0  0
  161.8910  206.5280  152.8470 C   0  0  0  0  0  0  0  0  0  0  0  0
  161.7690  206.7940  147.4430 C   0  0  0  0  0  3  0  0  0  0  0  0
  161.0430  204.5180  151.6840 C   0  0  0  0  0  2  0  0  0  0  0  0
  161.5910  206.5720  154.2470 N   0  0  0  0  0  2  0  0  0  0  0  0
  162.0790  209.0050  148.8220 C   0  0  0  0  0  0  0  0  0  0  0  0
  160.7350  205.0790  150.3350 C   0  0  0  0  0  0  0  0  0  0  0  0
  161.9510  210.0900  147.9600 C   0  0  0  0  0  3  0  0  0  0  0  0
  161.9200  211.5280  149.9450 C   0  0  0  0  0  3  0  0  0  0  0  0
  161.5680  205.4580  148.0420 N   0  0  0  0  0  0  0  0  0  0  0  0
  162.1150  207.8830  150.7550 C   0  0  0  0  0  0  0  0  0  0  0  0
  162.0180  210.4090  150.7940 C   0  0  0  0  0  3  0  0  0  0  0  0
  162.0850  207.6510  148.5930 C   0  0  0  0  0  0  0  0  0  0  0  0
  161.8730  207.6320  152.1530 N   0  0  0  0  0  0  0  0  0  0  0  0
  159.5770  205.1480  149.9520 O   0  0  0  0  0  0  0  0  0  0  0  0
  161.8860  211.3690  148.5410 C   0  0  0  0  0  3  0  0  0  0  0  0
  162.2690  205.2050  152.2730 C   0  0  0  0  0  2  0  0  0  0  0  0
  162.1030  206.9900  149.7310 N   0  0  0  0  0  0  0  0  0  0  0  0
  162.1080  209.1540  150.1950 C   0  0  0  0  0  0  0  0  0  0  0  0
  160.1310  209.7990  154.9480 C   0  0  0  0  0  0  0  0  0  0  0  0
  159.8010  208.5060  157.0760 C   0  0  0  0  0  3  0  0  0  0  0  0
  159.4810  210.8350  155.6360 C   0  0  0  0  0  2  0  0  0  0  0  0
  160.7360  206.3190  156.9700 F   0  0  0  0  0  0  0  0  0  0  0  0
  160.9240  207.6460  154.9220 C   0  0  0  0  0  0  0  0  0  0  0  0
  159.6720  209.6240  156.3180 C   0  0  0  0  0  0  0  0  0  0  0  0
  160.4710  207.4790  156.3210 C   0  0  0  0  0  0  0  0  0  0  0  0
  160.7690  208.8740  154.1870 C   0  0  0  0  0  3  0  0  0  0  0  0
  1 10  1  6  0  0  0
  1 18  1  0  0  0  0
  1  7  1  0  0  0  0
  2  5  1  0  0  0  0
  3 10  2  0  0  0  0
  3 13  1  0  0  0  0
  4 17  1  0  0  0  0
  5 24  1  0  0  0  0
  6 19  1  0  0  0  0
  7  4  1  0  0  0  0
  8 16  2  0  0  0  0
  8  6  1  0  0  0  0
  9 12  2  0  0  0  0
 11 14  1  0  0  0  0
 13  6  2  0  0  0  0
 13 18  1  0  0  0  0
 14  2  2  0  0  0  0
 15  7  2  0  0  0  0
 16  9  1  0  0  0  0
 17  2  1  0  0  0  0
 18 11  1  0  0  0  0
 19 11  2  0  0  0  0
 19 12  1  0  0  0  0
 20 22  1  0  0  0  0
 20 25  1  0  0  0  0
 22 25  1  0  0  0  0
 24 26  2  0  0  0  0
 25 21  2  0  0  0  0
 26 23  1  0  0  0  0
 26 21  1  0  0  0  0
 27 24  1  0  0  0  0
 27 20  2  0  0  0  0
M  END
>  <MODEL>
9

>  <REMARK>
 VINA RESULT:      -6.2      2.920      7.189
  Name = 
  1 active torsions:
  status: ('A' for Active; 'I' for Inactive)
    1  A    between atoms: N_9  and  C_19
                            x       y       z     vdW  Elec       q    Type
                         _______ _______ _______ _____ _____    ______ ____

>  <TORSDO>
F 1

$$$$
