=
 OpenBabel11072412573D

 48 54  0  0  1  0  0  0  0  0999 V2000
  162.7150  209.9530  152.1000 O   0  0  0  0  0  1  0  0  0  0  0  0
  162.1350  209.0900  149.9000 C   0  0  2  0  0  3  0  0  0  0  0  0
  161.7210  209.3160  151.3460 C   0  0  2  0  0  0  0  0  0  0  0  0
  161.0150  210.0820  150.2310 C   0  0  1  0  0  3  0  0  0  0  0  0
  161.3730  213.7040  148.1410 C   0  0  0  0  0  2  0  0  0  0  0  0
  160.7040  213.8480  149.5200 C   0  0  0  0  0  2  0  0  0  0  0  0
  162.4070  211.6940  148.8870 C   0  0  0  0  0  2  0  0  0  0  0  0
  161.5170  211.5210  150.1310 C   0  0  1  0  0  3  0  0  0  0  0  0
  161.6610  212.3110  147.7900 N   0  0  0  0  0  2  0  0  0  0  0  0
  160.3220  212.4920  150.1180 C   0  0  1  0  0  3  0  0  0  0  0  0
  158.3860  213.2650  153.0120 N   0  0  0  0  0  0  0  0  0  0  0  0
  159.6620  212.5530  154.7970 O   0  0  0  0  0  0  0  0  0  0  0  0
  159.7440  212.6760  151.4850 C   0  0  0  0  0  0  0  0  0  0  0  0
  159.4830  212.7040  153.5570 C   0  0  0  0  0  0  0  0  0  0  0  0
  160.3750  212.3130  152.6280 N   0  0  0  0  0  0  0  0  0  0  0  0
  158.5490  213.2630  151.7020 N   0  0  0  0  0  2  0  0  0  0  0  0
  156.2380  214.4500  152.6840 C   0  0  0  0  0  1  0  0  0  0  0  0
  157.2430  213.8900  153.6820 C   0  0  1  0  0  3  0  0  0  0  0  0
  155.4630  211.2260  156.5560 C   0  0  0  0  0  3  0  0  0  0  0  0
  156.6080  212.9520  154.6630 C   0  0  0  0  0  0  0  0  0  0  0  0
  156.4120  211.5940  154.3580 C   0  0  0  0  0  3  0  0  0  0  0  0
  155.6620  212.5750  156.8670 C   0  0  0  0  0  3  0  0  0  0  0  0
  156.2350  213.4350  155.9230 C   0  0  0  0  0  3  0  0  0  0  0  0
  155.8400  210.7360  155.3030 C   0  0  0  0  0  3  0  0  0  0  0  0
  162.4480  206.7820  149.4360 O   0  0  0  0  0  0  0  0  0  0  0  0
  162.3090  207.3530  148.1550 C   0  0  2  0  0  3  0  0  0  0  0  0
  161.5220  207.8300  149.3120 C   0  0  2  0  0  3  0  0  0  0  0  0
  161.4280  206.4700  147.2810 C   0  0  0  0  0  2  0  0  0  0  0  0
  162.1840  203.7190  145.2140 N   0  0  0  0  0  2  0  0  0  0  0  0
  162.0410  205.1620  147.0860 N   0  0  0  0  0  0  0  0  0  0  0  0
  163.3360  205.3860  146.4740 C   0  0  0  0  0  2  0  0  0  0  0  0
  163.4790  204.3580  145.3770 C   0  0  0  0  0  2  0  0  0  0  0  0
  161.2690  204.4700  146.0640 C   0  0  2  0  0  3  0  0  0  0  0  0
  160.2640  203.5330  146.7170 C   0  0  0  0  0  2  0  0  0  0  0  0
  160.8760  202.1930  146.9610 C   0  0  0  0  0  3  0  0  0  0  0  0
  161.2580  201.7360  148.1590 C   0  0  0  0  0  3  0  0  0  0  0  0
  161.1180  202.4110  149.4670 C   0  0  0  0  0  0  0  0  0  0  0  0
  161.3470  201.6560  150.6240 C   0  0  0  0  0  3  0  0  0  0  0  0
  160.7300  203.7540  149.5940 C   0  0  0  0  0  3  0  0  0  0  0  0
  160.8210  203.5740  152.0050 C   0  0  0  0  0  3  0  0  0  0  0  0
  160.5850  204.3340  150.8570 C   0  0  0  0  0  3  0  0  0  0  0  0
  161.2010  202.2340  151.8880 C   0  0  0  0  0  3  0  0  0  0  0  0
  161.0460  208.2420  151.9500 O   0  0  0  0  0  0  0  0  0  0  0  0
  160.8090  208.6180  153.2750 C   0  0  0  0  0  2  0  0  0  0  0  0
  161.3540  207.5580  154.2120 C   0  0  2  0  0  3  0  0  0  0  0  0
  161.7630  206.4430  153.4800 O   0  0  0  0  0  1  0  0  0  0  0  0
  160.2770  207.1520  155.1980 C   0  0  0  0  0  2  0  0  0  0  0  0
  160.5710  207.7490  156.5640 C   0  0  0  0  0  1  0  0  0  0  0  0
  2 27  1  6  0  0  0
  2  4  1  0  0  0  0
  2  3  1  0  0  0  0
  3 43  1  0  0  0  0
  3  1  1  1  0  0  0
  4  8  1  1  0  0  0
  4  3  1  0  0  0  0
  5  6  1  0  0  0  0
  6 10  1  0  0  0  0
  8  7  1  6  0  0  0
  9  5  1  0  0  0  0
  9  7  1  0  0  0  0
 10  8  1  0  0  0  0
 10 13  1  1  0  0  0
 11 14  1  0  0  0  0
 11 18  1  0  0  0  0
 13 16  1  0  0  0  0
 13 15  2  0  0  0  0
 14 12  2  0  0  0  0
 15 14  1  0  0  0  0
 16 11  1  0  0  0  0
 18 17  1  6  0  0  0
 18 20  1  0  0  0  0
 19 22  1  0  0  0  0
 20 23  1  0  0  0  0
 21 20  2  0  0  0  0
 21 24  1  0  0  0  0
 23 22  2  0  0  0  0
 24 19  2  0  0  0  0
 26 28  1  6  0  0  0
 26 27  1  0  0  0  0
 26 25  1  0  0  0  0
 27 25  1  1  0  0  0
 29 32  1  0  0  0  0
 29 33  1  0  0  0  0
 30 28  1  0  0  0  0
 31 30  1  0  0  0  0
 32 31  1  0  0  0  0
 33 34  1  1  0  0  0
 33 30  1  0  0  0  0
 34 35  1  0  0  0  0
 35 36  2  0  0  0  0
 36 37  1  0  0  0  0
 37 39  2  0  0  0  0
 37 38  1  0  0  0  0
 38 42  2  0  0  0  0
 39 41  1  0  0  0  0
 41 40  2  0  0  0  0
 42 40  1  0  0  0  0
 43 44  1  0  0  0  0
 44 45  1  0  0  0  0
 45 46  1  6  0  0  0
 45 47  1  0  0  0  0
 47 48  1  0  0  0  0
M  END
>  <MODEL>
1

>  <REMARK>
 VINA RESULT:      -5.8      0.000      0.000
  Name = 
  14 active torsions:
  status: ('A' for Active; 'I' for Inactive)
    1  A    between atoms: C_1  and  C_4
    2  A    between atoms: C_2  and  C_48
    3  A    between atoms: O_3  and  C_11
    4  A    between atoms: O_3  and  C_30
    5  A    between atoms: C_4  and  C_11
    6  A    between atoms: C_5  and  C_25
    7  A    between atoms: N_7  and  C_32
    8  A    between atoms: N_9  and  C_46
    9  A    between atoms: C_20  and  C_46
   10  A    between atoms: C_22  and  C_42
   11  A    between atoms: C_24  and  C_48
   12  A    between atoms: C_26  and  C_41
   13  A    between atoms: C_29  and  C_44
   14  A    between atoms: C_32  and  C_34
                            x       y       z     vdW  Elec       q    Type
                         _______ _______ _______ _____ _____    ______ ____

>  <TORSDO>
F 14

$$$$
=
 OpenBabel11072412573D

 48 54  0  0  1  0  0  0  0  0999 V2000
  162.9970  210.1690  150.9140 O   0  0  0  0  0  1  0  0  0  0  0  0
  161.2260  210.7700  152.4700 C   0  0  2  0  0  3  0  0  0  0  0  0
  161.6350  210.4720  151.0350 C   0  0  2  0  0  0  0  0  0  0  0  0
  160.7120  209.5060  151.7720 C   0  0  1  0  0  3  0  0  0  0  0  0
  160.9140  206.0160  154.0950 C   0  0  0  0  0  2  0  0  0  0  0  0
  161.1390  205.7740  152.5920 C   0  0  0  0  0  2  0  0  0  0  0  0
  161.5770  208.2830  153.7960 C   0  0  0  0  0  2  0  0  0  0  0  0
  161.4650  208.2700  152.2620 C   0  0  1  0  0  3  0  0  0  0  0  0
  160.5730  207.4080  154.4030 N   0  0  0  0  0  2  0  0  0  0  0  0
  160.7680  206.9960  151.7510 C   0  0  1  0  0  3  0  0  0  0  0  0
  161.3280  205.6800  148.4840 N   0  0  0  0  0  0  0  0  0  0  0  0
  162.0630  207.4710  147.2300 O   0  0  0  0  0  0  0  0  0  0  0  0
  161.0700  206.7410  150.3080 C   0  0  0  0  0  0  0  0  0  0  0  0
  161.6610  206.9740  148.3190 C   0  0  0  0  0  0  0  0  0  0  0  0
  161.5150  207.6900  149.4490 N   0  0  0  0  0  0  0  0  0  0  0  0
  160.9650  205.5210  149.7430 N   0  0  0  0  0  2  0  0  0  0  0  0
  162.7500  204.6090  146.7630 C   0  0  0  0  0  1  0  0  0  0  0  0
  161.4340  204.5730  147.5290 C   0  0  1  0  0  3  0  0  0  0  0  0
  160.8150  200.8030  149.5120 C   0  0  0  0  0  3  0  0  0  0  0  0
  161.2020  203.2520  148.1990 C   0  0  0  0  0  0  0  0  0  0  0  0
  161.2270  202.0480  147.4750 C   0  0  0  0  0  3  0  0  0  0  0  0
  160.7960  201.9980  150.2380 C   0  0  0  0  0  3  0  0  0  0  0  0
  160.9910  203.2200  149.5830 C   0  0  0  0  0  3  0  0  0  0  0  0
  161.0320  200.8280  148.1310 C   0  0  0  0  0  3  0  0  0  0  0  0
  160.2090  212.4810  153.7650 O   0  0  0  0  0  0  0  0  0  0  0  0
  159.2100  211.4900  153.6980 C   0  0  2  0  0  3  0  0  0  0  0  0
  160.0970  211.7830  152.5520 C   0  0  2  0  0  3  0  0  0  0  0  0
  157.8500  212.1320  153.4550 C   0  0  0  0  0  2  0  0  0  0  0  0
  156.3200  213.6540  156.2400 N   0  0  0  0  0  2  0  0  0  0  0  0
  157.0190  212.0450  154.6500 N   0  0  0  0  0  0  0  0  0  0  0  0
  155.6840  212.4660  154.2710 C   0  0  0  0  0  2  0  0  0  0  0  0
  155.1890  213.3750  155.3710 C   0  0  0  0  0  2  0  0  0  0  0  0
  157.4780  213.0730  155.5730 C   0  0  2  0  0  3  0  0  0  0  0  0
  158.4290  212.4680  156.5950 C   0  0  0  0  0  2  0  0  0  0  0  0
  159.5270  213.4260  156.9230 C   0  0  0  0  0  3  0  0  0  0  0  0
  160.7800  213.0730  157.2280 C   0  0  0  0  0  3  0  0  0  0  0  0
  161.3500  211.7090  157.2610 C   0  0  0  0  0  0  0  0  0  0  0  0
  162.7440  211.5790  157.2510 C   0  0  0  0  0  3  0  0  0  0  0  0
  160.5570  210.5510  157.2590 C   0  0  0  0  0  3  0  0  0  0  0  0
  162.5400  209.1660  157.2570 C   0  0  0  0  0  3  0  0  0  0  0  0
  161.1480  209.2850  157.2610 C   0  0  0  0  0  3  0  0  0  0  0  0
  163.3380  210.3140  157.2510 C   0  0  0  0  0  3  0  0  0  0  0  0
  161.0770  211.3220  150.0660 O   0  0  0  0  0  0  0  0  0  0  0  0
  162.0680  211.5280  149.1020 C   0  0  0  0  0  2  0  0  0  0  0  0
  161.5830  212.5370  148.0790 C   0  0  2  0  0  3  0  0  0  0  0  0
  160.8350  211.8910  147.0940 O   0  0  0  0  0  1  0  0  0  0  0  0
  162.7750  213.2250  147.4430 C   0  0  0  0  0  2  0  0  0  0  0  0
  162.3010  214.2810  146.4600 C   0  0  0  0  0  1  0  0  0  0  0  0
  2 27  1  6  0  0  0
  3  1  1  6  0  0  0
  3  4  1  0  0  0  0
  3  2  1  0  0  0  0
  4  8  1  1  0  0  0
  4  2  1  0  0  0  0
  5  9  1  0  0  0  0
  6  5  1  0  0  0  0
  7  9  1  0  0  0  0
  8  7  1  1  0  0  0
 10 13  1  6  0  0  0
 10  8  1  0  0  0  0
 10  6  1  0  0  0  0
 11 16  1  0  0  0  0
 12 14  2  0  0  0  0
 14 11  1  0  0  0  0
 14 15  1  0  0  0  0
 15 13  2  0  0  0  0
 16 13  1  0  0  0  0
 18 17  1  1  0  0  0
 18 20  1  0  0  0  0
 18 11  1  0  0  0  0
 19 22  1  0  0  0  0
 20 23  1  0  0  0  0
 21 24  1  0  0  0  0
 21 20  2  0  0  0  0
 23 22  2  0  0  0  0
 24 19  2  0  0  0  0
 26 28  1  6  0  0  0
 26 25  1  0  0  0  0
 27 26  1  0  0  0  0
 27 25  1  1  0  0  0
 28 30  1  0  0  0  0
 30 33  1  0  0  0  0
 31 30  1  0  0  0  0
 31 32  1  0  0  0  0
 32 29  1  0  0  0  0
 33 29  1  0  0  0  0
 33 34  1  1  0  0  0
 34 35  1  0  0  0  0
 35 36  2  0  0  0  0
 36 37  1  0  0  0  0
 38 42  1  0  0  0  0
 38 37  2  0  0  0  0
 39 37  1  0  0  0  0
 39 41  2  0  0  0  0
 40 41  1  0  0  0  0
 42 40  2  0  0  0  0
 43  3  1  0  0  0  0
 44 43  1  0  0  0  0
 45 46  1  6  0  0  0
 45 44  1  0  0  0  0
 47 45  1  0  0  0  0
 48 47  1  0  0  0  0
M  END
>  <MODEL>
2

>  <REMARK>
 VINA RESULT:      -5.8      2.401     10.148
  Name = 
  14 active torsions:
  status: ('A' for Active; 'I' for Inactive)
    1  A    between atoms: C_1  and  C_4
    2  A    between atoms: C_2  and  C_48
    3  A    between atoms: O_3  and  C_11
    4  A    between atoms: O_3  and  C_30
    5  A    between atoms: C_4  and  C_11
    6  A    between atoms: C_5  and  C_25
    7  A    between atoms: N_7  and  C_32
    8  A    between atoms: N_9  and  C_46
    9  A    between atoms: C_20  and  C_46
   10  A    between atoms: C_22  and  C_42
   11  A    between atoms: C_24  and  C_48
   12  A    between atoms: C_26  and  C_41
   13  A    between atoms: C_29  and  C_44
   14  A    between atoms: C_32  and  C_34
                            x       y       z     vdW  Elec       q    Type
                         _______ _______ _______ _____ _____    ______ ____

>  <TORSDO>
F 14

$$$$
=
 OpenBabel11072412573D

 48 54  0  0  1  0  0  0  0  0999 V2000
  163.4830  211.1690  148.2670 O   0  0  0  0  0  1  0  0  0  0  0  0
  161.6520  211.9760  149.6510 C   0  0  2  0  0  3  0  0  0  0  0  0
  162.1020  211.3910  148.3200 C   0  0  2  0  0  0  0  0  0  0  0  0
  161.2390  210.5540  149.2590 C   0  0  1  0  0  3  0  0  0  0  0  0
  161.9600  208.2030  152.6610 C   0  0  0  0  0  2  0  0  0  0  0  0
  161.8000  207.3870  151.3670 C   0  0  0  0  0  2  0  0  0  0  0  0
  162.5610  210.0990  151.3540 C   0  0  0  0  0  2  0  0  0  0  0  0
  162.0710  209.5190  150.0160 C   0  0  1  0  0  3  0  0  0  0  0  0
  161.7270  209.6360  152.4630 N   0  0  0  0  0  2  0  0  0  0  0  0
  161.2500  208.2330  150.2170 C   0  0  1  0  0  3  0  0  0  0  0  0
  161.3100  205.7350  147.6720 N   0  0  0  0  0  0  0  0  0  0  0  0
  160.7690  206.8460  145.7250 O   0  0  0  0  0  0  0  0  0  0  0  0
  161.1810  207.4190  148.9640 C   0  0  0  0  0  0  0  0  0  0  0  0
  160.9760  206.8340  146.9700 C   0  0  0  0  0  0  0  0  0  0  0  0
  160.8820  207.9300  147.7450 N   0  0  0  0  0  0  0  0  0  0  0  0
  161.4540  206.0980  148.9330 N   0  0  0  0  0  2  0  0  0  0  0  0
  163.0070  204.2660  146.6280 C   0  0  0  0  0  1  0  0  0  0  0  0
  161.5950  204.3820  147.1850 C   0  0  1  0  0  3  0  0  0  0  0  0
  160.7370  201.3940  150.1610 C   0  0  0  0  0  3  0  0  0  0  0  0
  161.3120  203.3540  148.2390 C   0  0  0  0  0  0  0  0  0  0  0  0
  161.0650  203.7210  149.5730 C   0  0  0  0  0  3  0  0  0  0  0  0
  160.9760  201.0250  148.8340 C   0  0  0  0  0  3  0  0  0  0  0  0
  161.2610  202.0030  147.8750 C   0  0  0  0  0  3  0  0  0  0  0  0
  160.7790  202.7410  150.5300 C   0  0  0  0  0  3  0  0  0  0  0  0
  160.8190  214.1810  149.9360 O   0  0  0  0  0  0  0  0  0  0  0  0
  160.0260  213.4210  150.8180 C   0  0  2  0  0  3  0  0  0  0  0  0
  160.4520  212.8970  149.5030 C   0  0  2  0  0  3  0  0  0  0  0  0
  158.5720  213.8650  150.7330 C   0  0  0  0  0  2  0  0  0  0  0  0
  157.0470  214.2300  153.8880 N   0  0  0  0  0  2  0  0  0  0  0  0
  157.7990  213.3120  151.8390 N   0  0  0  0  0  0  0  0  0  0  0  0
  156.4220  213.7220  151.6430 C   0  0  0  0  0  2  0  0  0  0  0  0
  155.9060  214.1640  152.9910 C   0  0  0  0  0  2  0  0  0  0  0  0
  158.2170  214.0060  153.0480 C   0  0  2  0  0  3  0  0  0  0  0  0
  159.2520  213.1760  153.7940 C   0  0  0  0  0  2  0  0  0  0  0  0
  159.3460  213.6090  155.2190 C   0  0  0  0  0  3  0  0  0  0  0  0
  159.7430  212.8270  156.2290 C   0  0  0  0  0  3  0  0  0  0  0  0
  160.2070  211.4250  156.1540 C   0  0  0  0  0  0  0  0  0  0  0  0
  161.5870  211.1880  156.1820 C   0  0  0  0  0  3  0  0  0  0  0  0
  159.3310  210.3370  156.0180 C   0  0  0  0  0  3  0  0  0  0  0  0
  161.2040  208.8070  155.9560 C   0  0  0  0  0  3  0  0  0  0  0  0
  159.8260  209.0340  155.9220 C   0  0  0  0  0  3  0  0  0  0  0  0
  162.0850  209.8850  156.0850 C   0  0  0  0  0  3  0  0  0  0  0  0
  161.4980  211.9560  147.1840 O   0  0  0  0  0  0  0  0  0  0  0  0
  162.3870  212.9200  146.7010 C   0  0  0  0  0  2  0  0  0  0  0  0
  161.6110  214.0460  146.0450 C   0  0  2  0  0  3  0  0  0  0  0  0
  160.2610  213.7050  145.9610 O   0  0  0  0  0  1  0  0  0  0  0  0
  162.1600  214.2930  144.6530 C   0  0  0  0  0  2  0  0  0  0  0  0
  163.1930  213.2340  144.3070 C   0  0  0  0  0  1  0  0  0  0  0  0
  2 27  1  6  0  0  0
  3  1  1  6  0  0  0
  3  4  1  0  0  0  0
  3  2  1  0  0  0  0
  4  2  1  0  0  0  0
  4  8  1  1  0  0  0
  6  5  1  0  0  0  0
  7  9  1  0  0  0  0
  8 10  1  0  0  0  0
  8  7  1  1  0  0  0
  9  5  1  0  0  0  0
 10 13  1  6  0  0  0
 10  6  1  0  0  0  0
 11 16  1  0  0  0  0
 12 14  2  0  0  0  0
 14 11  1  0  0  0  0
 14 15  1  0  0  0  0
 15 13  2  0  0  0  0
 16 13  1  0  0  0  0
 18 17  1  1  0  0  0
 18 11  1  0  0  0  0
 18 20  1  0  0  0  0
 19 24  1  0  0  0  0
 20 21  1  0  0  0  0
 21 24  2  0  0  0  0
 22 19  2  0  0  0  0
 23 20  2  0  0  0  0
 23 22  1  0  0  0  0
 25 26  1  0  0  0  0
 26 28  1  6  0  0  0
 27 25  1  6  0  0  0
 27 26  1  0  0  0  0
 28 30  1  0  0  0  0
 30 33  1  0  0  0  0
 31 30  1  0  0  0  0
 31 32  1  0  0  0  0
 32 29  1  0  0  0  0
 33 34  1  1  0  0  0
 33 29  1  0  0  0  0
 34 35  1  0  0  0  0
 35 36  2  0  0  0  0
 37 38  1  0  0  0  0
 37 36  1  0  0  0  0
 39 37  2  0  0  0  0
 40 42  1  0  0  0  0
 41 40  2  0  0  0  0
 41 39  1  0  0  0  0
 42 38  2  0  0  0  0
 43  3  1  0  0  0  0
 44 43  1  0  0  0  0
 45 46  1  6  0  0  0
 45 44  1  0  0  0  0
 47 45  1  0  0  0  0
 48 47  1  0  0  0  0
M  END
>  <MODEL>
3

>  <REMARK>
 VINA RESULT:      -5.6      2.484      9.899
  Name = 
  14 active torsions:
  status: ('A' for Active; 'I' for Inactive)
    1  A    between atoms: C_1  and  C_4
    2  A    between atoms: C_2  and  C_48
    3  A    between atoms: O_3  and  C_11
    4  A    between atoms: O_3  and  C_30
    5  A    between atoms: C_4  and  C_11
    6  A    between atoms: C_5  and  C_25
    7  A    between atoms: N_7  and  C_32
    8  A    between atoms: N_9  and  C_46
    9  A    between atoms: C_20  and  C_46
   10  A    between atoms: C_22  and  C_42
   11  A    between atoms: C_24  and  C_48
   12  A    between atoms: C_26  and  C_41
   13  A    between atoms: C_29  and  C_44
   14  A    between atoms: C_32  and  C_34
                            x       y       z     vdW  Elec       q    Type
                         _______ _______ _______ _____ _____    ______ ____

>  <TORSDO>
F 14

$$$$
=
 OpenBabel11072412573D

 48 54  0  0  1  0  0  0  0  0999 V2000
  162.3470  207.5850  154.1010 O   0  0  0  0  0  1  0  0  0  0  0  0
  161.6070  205.9490  152.4580 C   0  0  2  0  0  3  0  0  0  0  0  0
  161.2300  206.9680  153.5230 C   0  0  2  0  0  0  0  0  0  0  0  0
  160.8900  207.2440  152.0620 C   0  0  1  0  0  3  0  0  0  0  0  0
  162.1900  209.5460  148.8020 C   0  0  0  0  0  2  0  0  0  0  0  0
  161.8880  210.3740  150.0630 C   0  0  0  0  0  2  0  0  0  0  0  0
  162.5130  207.6290  150.1750 C   0  0  0  0  0  2  0  0  0  0  0  0
  161.8670  208.2360  151.4330 C   0  0  1  0  0  3  0  0  0  0  0  0
  161.8660  208.1260  148.9610 N   0  0  0  0  0  2  0  0  0  0  0  0
  161.1430  209.5580  151.1210 C   0  0  1  0  0  3  0  0  0  0  0  0
  160.1030  211.8330  153.6640 N   0  0  0  0  0  0  0  0  0  0  0  0
  161.5760  211.5010  155.4080 O   0  0  0  0  0  0  0  0  0  0  0  0
  160.9360  210.3790  152.3550 C   0  0  0  0  0  0  0  0  0  0  0  0
  161.1570  211.2320  154.2480 C   0  0  0  0  0  0  0  0  0  0  0  0
  161.7210  210.3010  153.4560 N   0  0  0  0  0  0  0  0  0  0  0  0
  159.9640  211.3090  152.4610 N   0  0  0  0  0  2  0  0  0  0  0  0
  158.7810  213.8250  153.0220 C   0  0  0  0  0  1  0  0  0  0  0  0
  159.2900  212.9480  154.1580 C   0  0  1  0  0  3  0  0  0  0  0  0
  156.0570  211.5710  156.6430 C   0  0  0  0  0  3  0  0  0  0  0  0
  158.1820  212.4620  155.0420 C   0  0  0  0  0  0  0  0  0  0  0  0
  158.1350  212.7930  156.4080 C   0  0  0  0  0  3  0  0  0  0  0  0
  156.0960  211.2440  155.2840 C   0  0  0  0  0  3  0  0  0  0  0  0
  157.1550  211.6910  154.4860 C   0  0  0  0  0  3  0  0  0  0  0  0
  157.0760  212.3470  157.2040 C   0  0  0  0  0  3  0  0  0  0  0  0
  161.2060  203.6690  152.9840 O   0  0  0  0  0  0  0  0  0  0  0  0
  161.1680  203.6870  151.5750 C   0  0  2  0  0  3  0  0  0  0  0  0
  160.6210  204.7960  152.3860 C   0  0  2  0  0  3  0  0  0  0  0  0
  160.0210  202.8220  151.0700 C   0  0  0  0  0  2  0  0  0  0  0  0
  162.1300  202.1520  148.3290 N   0  0  0  0  0  2  0  0  0  0  0  0
  160.2020  202.4970  149.6610 N   0  0  0  0  0  0  0  0  0  0  0  0
  160.4130  201.0640  149.5780 C   0  0  0  0  0  2  0  0  0  0  0  0
  161.5490  200.8500  148.6060 C   0  0  0  0  0  2  0  0  0  0  0  0
  161.4710  203.0760  149.2430 C   0  0  2  0  0  3  0  0  0  0  0  0
  161.2330  204.4150  148.5610 C   0  0  0  0  0  2  0  0  0  0  0  0
  162.3300  204.7150  147.5940 C   0  0  0  0  0  3  0  0  0  0  0  0
  162.3100  204.3950  146.2950 C   0  0  0  0  0  3  0  0  0  0  0  0
  161.2160  203.7410  145.5440 C   0  0  0  0  0  0  0  0  0  0  0  0
  160.3710  204.5520  144.7770 C   0  0  0  0  0  3  0  0  0  0  0  0
  160.9710  202.3610  145.6040 C   0  0  0  0  0  3  0  0  0  0  0  0
  159.0700  202.6150  144.1280 C   0  0  0  0  0  3  0  0  0  0  0  0
  159.9040  201.7990  144.8970 C   0  0  0  0  0  3  0  0  0  0  0  0
  159.3030  203.9920  144.0700 C   0  0  0  0  0  3  0  0  0  0  0  0
  160.1940  206.5750  154.3870 O   0  0  0  0  0  0  0  0  0  0  0  0
  160.7290  206.5900  155.6790 C   0  0  0  0  0  2  0  0  0  0  0  0
  159.7700  207.2940  156.6190 C   0  0  2  0  0  3  0  0  0  0  0  0
  158.5120  207.3970  156.0250 O   0  0  0  0  0  1  0  0  0  0  0  0
  160.2980  208.6800  156.9340 C   0  0  0  0  0  2  0  0  0  0  0  0
  161.7860  208.6130  157.2340 C   0  0  0  0  0  1  0  0  0  0  0  0
  2 27  1  1  0  0  0
  2  3  1  0  0  0  0
  3  1  1  1  0  0  0
  3 43  1  0  0  0  0
  4  8  1  6  0  0  0
  4  2  1  0  0  0  0
  4  3  1  0  0  0  0
  5  9  1  0  0  0  0
  5  6  1  0  0  0  0
  6 10  1  0  0  0  0
  8  7  1  6  0  0  0
  9  7  1  0  0  0  0
 10  8  1  0  0  0  0
 10 13  1  1  0  0  0
 11 18  1  0  0  0  0
 11 14  1  0  0  0  0
 13 16  1  0  0  0  0
 13 15  2  0  0  0  0
 14 12  2  0  0  0  0
 15 14  1  0  0  0  0
 16 11  1  0  0  0  0
 18 17  1  6  0  0  0
 18 20  1  0  0  0  0
 19 24  1  0  0  0  0
 20 21  1  0  0  0  0
 21 24  2  0  0  0  0
 22 19  2  0  0  0  0
 23 20  2  0  0  0  0
 23 22  1  0  0  0  0
 26 28  1  1  0  0  0
 26 27  1  0  0  0  0
 26 25  1  0  0  0  0
 27 25  1  1  0  0  0
 29 32  1  0  0  0  0
 29 33  1  0  0  0  0
 30 28  1  0  0  0  0
 31 30  1  0  0  0  0
 32 31  1  0  0  0  0
 33 34  1  6  0  0  0
 33 30  1  0  0  0  0
 35 34  1  0  0  0  0
 36 35  2  0  0  0  0
 37 39  1  0  0  0  0
 37 36  1  0  0  0  0
 38 37  2  0  0  0  0
 40 41  1  0  0  0  0
 41 39  2  0  0  0  0
 42 40  2  0  0  0  0
 42 38  1  0  0  0  0
 43 44  1  0  0  0  0
 44 45  1  0  0  0  0
 45 46  1  6  0  0  0
 45 47  1  0  0  0  0
 47 48  1  0  0  0  0
M  END
>  <MODEL>
4

>  <REMARK>
 VINA RESULT:      -4.9      2.045      3.973
  Name = 
  14 active torsions:
  status: ('A' for Active; 'I' for Inactive)
    1  A    between atoms: C_1  and  C_4
    2  A    between atoms: C_2  and  C_48
    3  A    between atoms: O_3  and  C_11
    4  A    between atoms: O_3  and  C_30
    5  A    between atoms: C_4  and  C_11
    6  A    between atoms: C_5  and  C_25
    7  A    between atoms: N_7  and  C_32
    8  A    between atoms: N_9  and  C_46
    9  A    between atoms: C_20  and  C_46
   10  A    between atoms: C_22  and  C_42
   11  A    between atoms: C_24  and  C_48
   12  A    between atoms: C_26  and  C_41
   13  A    between atoms: C_29  and  C_44
   14  A    between atoms: C_32  and  C_34
                            x       y       z     vdW  Elec       q    Type
                         _______ _______ _______ _____ _____    ______ ____

>  <TORSDO>
F 14

$$$$
=
 OpenBabel11072412573D

 48 54  0  0  1  0  0  0  0  0999 V2000
  162.4440  205.4290  148.6280 O   0  0  0  0  0  1  0  0  0  0  0  0
  161.7810  207.6750  149.2880 C   0  0  2  0  0  3  0  0  0  0  0  0
  161.6260  206.5200  148.3100 C   0  0  2  0  0  0  0  0  0  0  0  0
  160.4680  206.8870  149.2330 C   0  0  1  0  0  3  0  0  0  0  0  0
  161.8080  203.5210  151.3540 C   0  0  0  0  0  2  0  0  0  0  0  0
  161.8100  204.8170  152.1830 C   0  0  0  0  0  2  0  0  0  0  0  0
  160.1710  204.4810  149.9170 C   0  0  0  0  0  2  0  0  0  0  0  0
  160.3630  205.9250  150.4150 C   0  0  1  0  0  3  0  0  0  0  0  0
  161.4320  203.7420  149.9540 N   0  0  0  0  0  2  0  0  0  0  0  0
  161.6070  206.0580  151.3120 C   0  0  1  0  0  3  0  0  0  0  0  0
  160.8840  208.6280  153.6770 N   0  0  0  0  0  0  0  0  0  0  0  0
  162.3450  210.3390  153.1730 O   0  0  0  0  0  0  0  0  0  0  0  0
  161.5430  207.2840  152.1670 C   0  0  0  0  0  0  0  0  0  0  0  0
  161.8790  209.1860  152.9620 C   0  0  0  0  0  0  0  0  0  0  0  0
  162.3320  208.3710  151.9910 N   0  0  0  0  0  0  0  0  0  0  0  0
  160.6550  207.4300  153.1730 N   0  0  0  0  0  2  0  0  0  0  0  0
  160.8040  209.2000  156.0850 C   0  0  0  0  0  1  0  0  0  0  0  0
  160.0760  209.2200  154.7480 C   0  0  1  0  0  3  0  0  0  0  0  0
  158.6960  213.1740  153.7550 C   0  0  0  0  0  3  0  0  0  0  0  0
  159.6050  210.5940  154.3770 C   0  0  0  0  0  0  0  0  0  0  0  0
  158.9430  210.8390  153.1610 C   0  0  0  0  0  3  0  0  0  0  0  0
  159.3480  212.9340  154.9680 C   0  0  0  0  0  3  0  0  0  0  0  0
  159.8000  211.6460  155.2790 C   0  0  0  0  0  3  0  0  0  0  0  0
  158.4920  212.1260  152.8530 C   0  0  0  0  0  3  0  0  0  0  0  0
  162.8280  209.5430  148.2630 O   0  0  0  0  0  0  0  0  0  0  0  0
  162.2240  210.1000  149.4070 C   0  0  2  0  0  3  0  0  0  0  0  0
  161.5740  209.0260  148.6250 C   0  0  2  0  0  3  0  0  0  0  0  0
  161.5750  211.4340  149.0610 C   0  0  0  0  0  2  0  0  0  0  0  0
  161.6300  213.9000  146.5460 N   0  0  0  0  0  2  0  0  0  0  0  0
  162.1350  211.9750  147.8290 N   0  0  0  0  0  0  0  0  0  0  0  0
  163.0860  213.0020  148.2080 C   0  0  0  0  0  2  0  0  0  0  0  0
  162.8540  214.1700  147.2810 C   0  0  0  0  0  2  0  0  0  0  0  0
  161.0690  212.6980  147.1500 C   0  0  2  0  0  3  0  0  0  0  0  0
  160.4380  211.8150  146.0830 C   0  0  0  0  0  2  0  0  0  0  0  0
  159.3400  212.5430  145.3810 C   0  0  0  0  0  3  0  0  0  0  0  0
  159.3330  212.8390  144.0770 C   0  0  0  0  0  3  0  0  0  0  0  0
  160.3530  212.4810  143.0660 C   0  0  0  0  0  0  0  0  0  0  0  0
  161.5400  213.2230  143.0400 C   0  0  0  0  0  3  0  0  0  0  0  0
  160.1620  211.4650  142.1170 C   0  0  0  0  0  3  0  0  0  0  0  0
  162.3300  211.9310  141.1510 C   0  0  0  0  0  3  0  0  0  0  0  0
  161.1460  211.1880  141.1660 C   0  0  0  0  0  3  0  0  0  0  0  0
  162.5260  212.9490  142.0880 C   0  0  0  0  0  3  0  0  0  0  0  0
  161.5440  206.8880  146.9570 O   0  0  0  0  0  0  0  0  0  0  0  0
  161.9920  205.7890  146.2190 C   0  0  0  0  0  2  0  0  0  0  0  0
  161.0640  205.5500  145.0440 C   0  0  2  0  0  3  0  0  0  0  0  0
  159.8470  206.1970  145.2610 O   0  0  0  0  0  1  0  0  0  0  0  0
  160.8270  204.0620  144.8820 C   0  0  0  0  0  2  0  0  0  0  0  0
  161.5250  203.3010  145.9960 C   0  0  0  0  0  1  0  0  0  0  0  0
  2 27  1  6  0  0  0
  3  1  1  1  0  0  0
  3  4  1  0  0  0  0
  3  2  1  0  0  0  0
  4  2  1  0  0  0  0
  4  8  1  1  0  0  0
  5  6  1  0  0  0  0
  7  9  1  0  0  0  0
  8  7  1  6  0  0  0
  8 10  1  0  0  0  0
  9  5  1  0  0  0  0
 10 13  1  1  0  0  0
 10  6  1  0  0  0  0
 11 18  1  0  0  0  0
 13 16  1  0  0  0  0
 14 12  2  0  0  0  0
 14 11  1  0  0  0  0
 15 13  2  0  0  0  0
 15 14  1  0  0  0  0
 16 11  1  0  0  0  0
 18 17  1  1  0  0  0
 19 22  1  0  0  0  0
 20 18  1  0  0  0  0
 20 23  1  0  0  0  0
 21 20  2  0  0  0  0
 22 23  2  0  0  0  0
 24 21  1  0  0  0  0
 24 19  2  0  0  0  0
 25 26  1  0  0  0  0
 26 28  1  6  0  0  0
 27 25  1  6  0  0  0
 27 26  1  0  0  0  0
 29 33  1  0  0  0  0
 29 32  1  0  0  0  0
 30 31  1  0  0  0  0
 30 28  1  0  0  0  0
 32 31  1  0  0  0  0
 33 34  1  6  0  0  0
 33 30  1  0  0  0  0
 35 34  1  0  0  0  0
 36 35  2  0  0  0  0
 37 36  1  0  0  0  0
 38 37  1  0  0  0  0
 39 37  2  0  0  0  0
 40 41  2  0  0  0  0
 40 42  1  0  0  0  0
 41 39  1  0  0  0  0
 42 38  2  0  0  0  0
 43  3  1  0  0  0  0
 44 43  1  0  0  0  0
 45 46  1  1  0  0  0
 45 44  1  0  0  0  0
 47 45  1  0  0  0  0
 47 48  1  0  0  0  0
M  END
>  <MODEL>
5

>  <REMARK>
 VINA RESULT:      -4.8      3.124      7.990
  Name = 
  14 active torsions:
  status: ('A' for Active; 'I' for Inactive)
    1  A    between atoms: C_1  and  C_4
    2  A    between atoms: C_2  and  C_48
    3  A    between atoms: O_3  and  C_11
    4  A    between atoms: O_3  and  C_30
    5  A    between atoms: C_4  and  C_11
    6  A    between atoms: C_5  and  C_25
    7  A    between atoms: N_7  and  C_32
    8  A    between atoms: N_9  and  C_46
    9  A    between atoms: C_20  and  C_46
   10  A    between atoms: C_22  and  C_42
   11  A    between atoms: C_24  and  C_48
   12  A    between atoms: C_26  and  C_41
   13  A    between atoms: C_29  and  C_44
   14  A    between atoms: C_32  and  C_34
                            x       y       z     vdW  Elec       q    Type
                         _______ _______ _______ _____ _____    ______ ____

>  <TORSDO>
F 14

$$$$
=
 OpenBabel11072412573D

 48 54  0  0  1  0  0  0  0  0999 V2000
  159.3520  213.1190  155.3450 O   0  0  0  0  0  1  0  0  0  0  0  0
  160.0820  211.7810  153.4480 C   0  0  2  0  0  3  0  0  0  0  0  0
  159.8030  211.8560  154.9420 C   0  0  2  0  0  0  0  0  0  0  0  0
  158.9180  210.9880  154.0530 C   0  0  1  0  0  3  0  0  0  0  0  0
  155.8410  213.6500  155.0860 C   0  0  0  0  0  2  0  0  0  0  0  0
  156.5080  213.9670  153.7360 C   0  0  0  0  0  2  0  0  0  0  0  0
  156.5750  211.3940  154.8820 C   0  0  0  0  0  2  0  0  0  0  0  0
  157.5840  211.6670  153.7520 C   0  0  1  0  0  3  0  0  0  0  0  0
  156.4850  212.5370  155.7910 N   0  0  0  0  0  2  0  0  0  0  0  0
  157.8010  213.1750  153.5320 C   0  0  1  0  0  3  0  0  0  0  0  0
  158.5330  213.5450  150.0620 N   0  0  0  0  0  0  0  0  0  0  0  0
  160.6520  214.4530  149.9860 O   0  0  0  0  0  0  0  0  0  0  0  0
  158.3730  213.4610  152.1800 C   0  0  0  0  0  0  0  0  0  0  0  0
  159.6570  214.0200  150.6310 C   0  0  0  0  0  0  0  0  0  0  0  0
  159.6050  213.9880  151.9760 N   0  0  0  0  0  0  0  0  0  0  0  0
  157.7200  213.1770  151.0340 N   0  0  0  0  0  2  0  0  0  0  0  0
  157.3720  214.4470  148.0690 C   0  0  0  0  0  1  0  0  0  0  0  0
  158.2390  213.3330  148.6410 C   0  0  1  0  0  3  0  0  0  0  0  0
  161.8080  212.7510  146.3070 C   0  0  0  0  0  3  0  0  0  0  0  0
  159.4960  213.1280  147.8510 C   0  0  0  0  0  0  0  0  0  0  0  0
  160.4190  212.1240  148.1900 C   0  0  0  0  0  3  0  0  0  0  0  0
  160.8900  213.7470  145.9620 C   0  0  0  0  0  3  0  0  0  0  0  0
  159.7360  213.9330  146.7320 C   0  0  0  0  0  3  0  0  0  0  0  0
  161.5720  211.9380  147.4200 C   0  0  0  0  0  3  0  0  0  0  0  0
  161.2970  210.6930  151.7220 O   0  0  0  0  0  0  0  0  0  0  0  0
  160.7000  209.6240  152.4200 C   0  0  2  0  0  3  0  0  0  0  0  0
  161.2140  210.8230  153.1170 C   0  0  2  0  0  3  0  0  0  0  0  0
  161.6970  208.4850  152.5840 C   0  0  0  0  0  2  0  0  0  0  0  0
  162.1660  205.1910  151.4240 N   0  0  0  0  0  2  0  0  0  0  0  0
  161.1600  207.2470  152.0320 N   0  0  0  0  0  0  0  0  0  0  0  0
  160.9680  206.3330  153.1410 C   0  0  0  0  0  2  0  0  0  0  0  0
  161.4760  204.9870  152.6860 C   0  0  0  0  0  2  0  0  0  0  0  0
  162.2140  206.6360  151.2350 C   0  0  2  0  0  3  0  0  0  0  0  0
  162.0240  206.9830  149.7660 C   0  0  0  0  0  2  0  0  0  0  0  0
  160.5920  206.8290  149.3700 C   0  0  0  0  0  3  0  0  0  0  0  0
  160.1670  206.1610  148.2930 C   0  0  0  0  0  3  0  0  0  0  0  0
  160.9860  205.4110  147.3160 C   0  0  0  0  0  0  0  0  0  0  0  0
  161.1990  205.9880  146.0580 C   0  0  0  0  0  3  0  0  0  0  0  0
  161.5170  204.1400  147.5820 C   0  0  0  0  0  3  0  0  0  0  0  0
  162.4720  204.0490  145.3610 C   0  0  0  0  0  3  0  0  0  0  0  0
  162.2590  203.4630  146.6120 C   0  0  0  0  0  3  0  0  0  0  0  0
  161.9410  205.3120  145.0850 C   0  0  0  0  0  3  0  0  0  0  0  0
  160.7540  211.2230  155.7600 O   0  0  0  0  0  0  0  0  0  0  0  0
  160.0610  210.7430  156.8750 C   0  0  0  0  0  2  0  0  0  0  0  0
  160.5950  209.3770  157.2590 C   0  0  2  0  0  3  0  0  0  0  0  0
  161.9530  209.2950  156.9490 O   0  0  0  0  0  1  0  0  0  0  0  0
  159.8350  208.3060  156.5030 C   0  0  0  0  0  2  0  0  0  0  0  0
  160.4890  206.9520  156.7230 C   0  0  0  0  0  1  0  0  0  0  0  0
  2 27  1  1  0  0  0
  2  4  1  0  0  0  0
  2  3  1  0  0  0  0
  3  1  1  1  0  0  0
  3 43  1  0  0  0  0
  4  8  1  6  0  0  0
  4  3  1  0  0  0  0
  5  9  1  0  0  0  0
  6  5  1  0  0  0  0
  7  9  1  0  0  0  0
  8  7  1  1  0  0  0
 10 13  1  6  0  0  0
 10  6  1  0  0  0  0
 10  8  1  0  0  0  0
 11 14  1  0  0  0  0
 11 16  1  0  0  0  0
 12 14  2  0  0  0  0
 14 15  1  0  0  0  0
 15 13  2  0  0  0  0
 16 13  1  0  0  0  0
 18 17  1  6  0  0  0
 18 11  1  0  0  0  0
 19 24  1  0  0  0  0
 20 21  1  0  0  0  0
 20 18  1  0  0  0  0
 22 19  2  0  0  0  0
 22 23  1  0  0  0  0
 23 20  2  0  0  0  0
 24 21  2  0  0  0  0
 25 26  1  0  0  0  0
 26 28  1  1  0  0  0
 26 27  1  0  0  0  0
 27 25  1  6  0  0  0
 29 32  1  0  0  0  0
 30 28  1  0  0  0  0
 30 31  1  0  0  0  0
 32 31  1  0  0  0  0
 33 34  1  6  0  0  0
 33 29  1  0  0  0  0
 33 30  1  0  0  0  0
 35 34  1  0  0  0  0
 36 35  2  0  0  0  0
 37 39  1  0  0  0  0
 37 36  1  0  0  0  0
 38 37  2  0  0  0  0
 40 41  1  0  0  0  0
 41 39  2  0  0  0  0
 42 40  2  0  0  0  0
 42 38  1  0  0  0  0
 43 44  1  0  0  0  0
 44 45  1  0  0  0  0
 45 46  1  6  0  0  0
 47 48  1  0  0  0  0
 47 45  1  0  0  0  0
M  END
>  <MODEL>
6

>  <REMARK>
 VINA RESULT:      -4.4      2.313      6.076
  Name = 
  14 active torsions:
  status: ('A' for Active; 'I' for Inactive)
    1  A    between atoms: C_1  and  C_4
    2  A    between atoms: C_2  and  C_48
    3  A    between atoms: O_3  and  C_11
    4  A    between atoms: O_3  and  C_30
    5  A    between atoms: C_4  and  C_11
    6  A    between atoms: C_5  and  C_25
    7  A    between atoms: N_7  and  C_32
    8  A    between atoms: N_9  and  C_46
    9  A    between atoms: C_20  and  C_46
   10  A    between atoms: C_22  and  C_42
   11  A    between atoms: C_24  and  C_48
   12  A    between atoms: C_26  and  C_41
   13  A    between atoms: C_29  and  C_44
   14  A    between atoms: C_32  and  C_34
                            x       y       z     vdW  Elec       q    Type
                         _______ _______ _______ _____ _____    ______ ____

>  <TORSDO>
F 14

$$$$
=
 OpenBabel11072412573D

 48 54  0  0  1  0  0  0  0  0999 V2000
  160.4540  207.8400  152.2810 O   0  0  0  0  0  1  0  0  0  0  0  0
  161.7360  208.3730  150.2820 C   0  0  2  0  0  3  0  0  0  0  0  0
  161.6040  208.4750  151.7950 C   0  0  2  0  0  0  0  0  0  0  0  0
  162.7280  207.6400  151.1910 C   0  0  1  0  0  3  0  0  0  0  0  0
  160.4770  204.4180  152.6660 C   0  0  0  0  0  2  0  0  0  0  0  0
  160.4430  204.5480  151.1330 C   0  0  0  0  0  2  0  0  0  0  0  0
  162.5280  205.6260  152.6900 C   0  0  0  0  0  2  0  0  0  0  0  0
  162.4120  206.1460  151.2460 C   0  0  1  0  0  3  0  0  0  0  0  0
  161.2100  205.5110  153.3130 N   0  0  0  0  0  2  0  0  0  0  0  0
  161.0160  205.8830  150.6550 C   0  0  1  0  0  3  0  0  0  0  0  0
  161.4480  205.3760  147.1510 N   0  0  0  0  0  0  0  0  0  0  0  0
  160.4560  207.2030  146.1520 O   0  0  0  0  0  0  0  0  0  0  0  0
  161.0290  205.9340  149.1600 C   0  0  0  0  0  0  0  0  0  0  0  0
  160.7810  206.5460  147.1790 C   0  0  0  0  0  0  0  0  0  0  0  0
  160.4920  206.9430  148.4330 N   0  0  0  0  0  0  0  0  0  0  0  0
  161.6210  204.9880  148.4010 N   0  0  0  0  0  2  0  0  0  0  0  0
  163.5170  204.4660  146.1410 C   0  0  0  0  0  1  0  0  0  0  0  0
  162.0140  204.6660  146.0010 C   0  0  1  0  0  3  0  0  0  0  0  0
  159.8680  201.0080  145.2660 C   0  0  0  0  0  3  0  0  0  0  0  0
  161.2890  203.3790  145.7470 C   0  0  0  0  0  0  0  0  0  0  0  0
  161.5430  202.2310  146.5180 C   0  0  0  0  0  3  0  0  0  0  0  0
  159.6080  202.1490  144.5000 C   0  0  0  0  0  3  0  0  0  0  0  0
  160.3160  203.3320  144.7430 C   0  0  0  0  0  3  0  0  0  0  0  0
  160.8340  201.0500  146.2760 C   0  0  0  0  0  3  0  0  0  0  0  0
  161.8400  210.7440  150.2170 O   0  0  0  0  0  0  0  0  0  0  0  0
  161.4620  210.4020  148.9040 C   0  0  2  0  0  3  0  0  0  0  0  0
  162.4220  209.5860  149.6780 C   0  0  2  0  0  3  0  0  0  0  0  0
  162.2250  211.2540  147.8990 C   0  0  0  0  0  2  0  0  0  0  0  0
  159.2560  213.1500  147.8330 N   0  0  0  0  0  2  0  0  0  0  0  0
  161.5310  212.5130  147.6590 N   0  0  0  0  0  0  0  0  0  0  0  0
  161.3660  213.1610  148.9460 C   0  0  0  0  0  2  0  0  0  0  0  0
  159.9550  213.6970  148.9840 C   0  0  0  0  0  2  0  0  0  0  0  0
  160.1750  212.1870  147.2400 C   0  0  2  0  0  3  0  0  0  0  0  0
  160.0750  212.2260  145.7220 C   0  0  0  0  0  2  0  0  0  0  0  0
  160.3490  213.6030  145.2140 C   0  0  0  0  0  3  0  0  0  0  0  0
  160.7330  213.8930  143.9650 C   0  0  0  0  0  3  0  0  0  0  0  0
  160.9180  212.9530  142.8390 C   0  0  0  0  0  0  0  0  0  0  0  0
  162.2260  212.5950  142.4900 C   0  0  0  0  0  3  0  0  0  0  0  0
  159.8480  212.4420  142.0880 C   0  0  0  0  0  3  0  0  0  0  0  0
  161.3910  211.2250  140.6770 C   0  0  0  0  0  3  0  0  0  0  0  0
  160.0820  211.5800  141.0130 C   0  0  0  0  0  3  0  0  0  0  0  0
  162.4630  211.7340  141.4150 C   0  0  0  0  0  3  0  0  0  0  0  0
  161.9220  209.7300  152.3390 O   0  0  0  0  0  0  0  0  0  0  0  0
  161.4540  209.7220  153.6560 C   0  0  0  0  0  2  0  0  0  0  0  0
  161.0010  211.1160  154.0460 C   0  0  2  0  0  3  0  0  0  0  0  0
  160.2860  211.0650  155.2420 O   0  0  0  0  0  1  0  0  0  0  0  0
  160.1220  211.6860  152.9510 C   0  0  0  0  0  2  0  0  0  0  0  0
  158.6890  211.2190  153.1400 C   0  0  0  0  0  1  0  0  0  0  0  0
  2 27  1  6  0  0  0
  2  4  1  0  0  0  0
  2  3  1  0  0  0  0
  3  1  1  1  0  0  0
  3 43  1  0  0  0  0
  4  8  1  1  0  0  0
  4  3  1  0  0  0  0
  5  9  1  0  0  0  0
  6  5  1  0  0  0  0
  7  9  1  0  0  0  0
  8  7  1  1  0  0  0
 10 13  1  6  0  0  0
 10  6  1  0  0  0  0
 10  8  1  0  0  0  0
 11 14  1  0  0  0  0
 11 16  1  0  0  0  0
 12 14  2  0  0  0  0
 14 15  1  0  0  0  0
 15 13  2  0  0  0  0
 16 13  1  0  0  0  0
 18 17  1  1  0  0  0
 18 11  1  0  0  0  0
 19 24  1  0  0  0  0
 20 18  1  0  0  0  0
 20 21  1  0  0  0  0
 22 23  1  0  0  0  0
 22 19  2  0  0  0  0
 23 20  2  0  0  0  0
 24 21  2  0  0  0  0
 26 28  1  6  0  0  0
 26 27  1  0  0  0  0
 26 25  1  0  0  0  0
 27 25  1  1  0  0  0
 29 32  1  0  0  0  0
 30 28  1  0  0  0  0
 30 31  1  0  0  0  0
 31 32  1  0  0  0  0
 33 34  1  6  0  0  0
 33 30  1  0  0  0  0
 33 29  1  0  0  0  0
 35 34  1  0  0  0  0
 36 35  2  0  0  0  0
 37 36  1  0  0  0  0
 38 37  1  0  0  0  0
 39 37  2  0  0  0  0
 40 41  2  0  0  0  0
 40 42  1  0  0  0  0
 41 39  1  0  0  0  0
 42 38  2  0  0  0  0
 43 44  1  0  0  0  0
 44 45  1  0  0  0  0
 45 46  1  1  0  0  0
 47 48  1  0  0  0  0
 47 45  1  0  0  0  0
M  END
>  <MODEL>
7

>  <REMARK>
 VINA RESULT:      -4.3      3.098      9.734
  Name = 
  14 active torsions:
  status: ('A' for Active; 'I' for Inactive)
    1  A    between atoms: C_1  and  C_4
    2  A    between atoms: C_2  and  C_48
    3  A    between atoms: O_3  and  C_11
    4  A    between atoms: O_3  and  C_30
    5  A    between atoms: C_4  and  C_11
    6  A    between atoms: C_5  and  C_25
    7  A    between atoms: N_7  and  C_32
    8  A    between atoms: N_9  and  C_46
    9  A    between atoms: C_20  and  C_46
   10  A    between atoms: C_22  and  C_42
   11  A    between atoms: C_24  and  C_48
   12  A    between atoms: C_26  and  C_41
   13  A    between atoms: C_29  and  C_44
   14  A    between atoms: C_32  and  C_34
                            x       y       z     vdW  Elec       q    Type
                         _______ _______ _______ _____ _____    ______ ____

>  <TORSDO>
F 14

$$$$
=
 OpenBabel11072412573D

 48 54  0  0  1  0  0  0  0  0999 V2000
  161.1090  214.3570  140.7020 O   0  0  0  0  0  1  0  0  0  0  0  0
  161.9190  212.8310  142.4150 C   0  0  2  0  0  3  0  0  0  0  0  0
  160.7560  213.6280  141.8440 C   0  0  2  0  0  0  0  0  0  0  0  0
  160.7270  212.1040  141.7850 C   0  0  1  0  0  3  0  0  0  0  0  0
  161.4220  208.9420  139.1130 C   0  0  0  0  0  2  0  0  0  0  0  0
  160.2990  209.8950  138.6670 C   0  0  0  0  0  2  0  0  0  0  0  0
  162.3280  210.6890  140.4530 C   0  0  0  0  0  2  0  0  0  0  0  0
  161.0800  211.5870  140.3920 C   0  0  1  0  0  3  0  0  0  0  0  0
  161.9580  209.2740  140.4360 N   0  0  0  0  0  2  0  0  0  0  0  0
  159.8730  210.8470  139.7860 C   0  0  1  0  0  3  0  0  0  0  0  0
  156.9650  212.7980  139.1110 N   0  0  0  0  0  0  0  0  0  0  0  0
  157.5380  214.1320  137.3190 O   0  0  0  0  0  0  0  0  0  0  0  0
  158.8340  211.8000  139.2860 C   0  0  0  0  0  0  0  0  0  0  0  0
  157.8200  213.2450  138.1710 C   0  0  0  0  0  0  0  0  0  0  0  0
  159.0210  212.6410  138.2400 N   0  0  0  0  0  0  0  0  0  0  0  0
  157.5950  211.8740  139.8130 N   0  0  0  0  0  2  0  0  0  0  0  0
  155.0290  214.0450  138.2020 C   0  0  0  0  0  1  0  0  0  0  0  0
  155.5530  213.1370  139.3070 C   0  0  1  0  0  3  0  0  0  0  0  0
  153.1390  209.6170  139.8610 C   0  0  0  0  0  3  0  0  0  0  0  0
  154.7170  211.9040  139.4740 C   0  0  0  0  0  0  0  0  0  0  0  0
  155.1350  210.6600  138.9710 C   0  0  0  0  0  3  0  0  0  0  0  0
  152.7210  210.8500  140.3690 C   0  0  0  0  0  3  0  0  0  0  0  0
  153.5100  211.9910  140.1780 C   0  0  0  0  0  3  0  0  0  0  0  0
  154.3470  209.5210  139.1630 C   0  0  0  0  0  3  0  0  0  0  0  0
  161.8320  213.9780  144.4930 O   0  0  0  0  0  0  0  0  0  0  0  0
  163.0440  213.2620  144.5700 C   0  0  2  0  0  3  0  0  0  0  0  0
  161.8400  212.6930  143.9260 C   0  0  2  0  0  3  0  0  0  0  0  0
  163.2060  212.6520  145.9560 C   0  0  0  0  0  2  0  0  0  0  0  0
  161.5180  213.2640  148.9870 N   0  0  0  0  0  2  0  0  0  0  0  0
  161.9670  212.7660  146.7160 N   0  0  0  0  0  0  0  0  0  0  0  0
  161.6380  214.1770  146.7870 C   0  0  0  0  0  2  0  0  0  0  0  0
  161.2070  214.4500  148.2070 C   0  0  0  0  0  2  0  0  0  0  0  0
  162.2680  212.3930  148.0910 C   0  0  2  0  0  3  0  0  0  0  0  0
  161.8910  210.9380  148.3300 C   0  0  0  0  0  2  0  0  0  0  0  0
  162.3350  210.4960  149.6850 C   0  0  0  0  0  3  0  0  0  0  0  0
  162.3240  209.2290  150.1150 C   0  0  0  0  0  3  0  0  0  0  0  0
  161.9310  208.0230  149.3560 C   0  0  0  0  0  0  0  0  0  0  0  0
  162.6920  207.6760  148.2320 C   0  0  0  0  0  3  0  0  0  0  0  0
  160.8130  207.2430  149.6890 C   0  0  0  0  0  3  0  0  0  0  0  0
  161.2380  205.7880  147.8030 C   0  0  0  0  0  3  0  0  0  0  0  0
  160.4680  206.1290  148.9190 C   0  0  0  0  0  3  0  0  0  0  0  0
  162.3490  206.5630  147.4600 C   0  0  0  0  0  3  0  0  0  0  0  0
  159.9500  214.2750  142.7950 O   0  0  0  0  0  0  0  0  0  0  0  0
  158.9050  213.3960  143.0930 C   0  0  0  0  0  2  0  0  0  0  0  0
  158.5780  213.4740  144.5720 C   0  0  2  0  0  3  0  0  0  0  0  0
  158.5590  212.1920  145.1220 O   0  0  0  0  0  1  0  0  0  0  0  0
  157.2210  214.1260  144.7560 C   0  0  0  0  0  2  0  0  0  0  0  0
  156.9400  214.3300  146.2350 C   0  0  0  0  0  1  0  0  0  0  0  0
  2 27  1  1  0  0  0
  3  1  1  6  0  0  0
  3  2  1  0  0  0  0
  3 43  1  0  0  0  0
  4  8  1  6  0  0  0
  4  3  1  0  0  0  0
  4  2  1  0  0  0  0
  5  9  1  0  0  0  0
  6  5  1  0  0  0  0
  6 10  1  0  0  0  0
  8  7  1  1  0  0  0
  9  7  1  0  0  0  0
 10 13  1  6  0  0  0
 10  8  1  0  0  0  0
 11 18  1  0  0  0  0
 11 16  1  0  0  0  0
 12 14  2  0  0  0  0
 13 16  1  0  0  0  0
 14 15  1  0  0  0  0
 14 11  1  0  0  0  0
 15 13  2  0  0  0  0
 18 17  1  6  0  0  0
 18 20  1  0  0  0  0
 19 22  1  0  0  0  0
 20 23  1  0  0  0  0
 21 24  1  0  0  0  0
 21 20  2  0  0  0  0
 23 22  2  0  0  0  0
 24 19  2  0  0  0  0
 25 26  1  0  0  0  0
 26 28  1  1  0  0  0
 27 25  1  1  0  0  0
 27 26  1  0  0  0  0
 28 30  1  0  0  0  0
 30 31  1  0  0  0  0
 30 33  1  0  0  0  0
 31 32  1  0  0  0  0
 32 29  1  0  0  0  0
 33 34  1  6  0  0  0
 33 29  1  0  0  0  0
 34 35  1  0  0  0  0
 35 36  2  0  0  0  0
 37 39  1  0  0  0  0
 37 36  1  0  0  0  0
 38 37  2  0  0  0  0
 40 41  1  0  0  0  0
 41 39  2  0  0  0  0
 42 40  2  0  0  0  0
 42 38  1  0  0  0  0
 43 44  1  0  0  0  0
 44 45  1  0  0  0  0
 45 47  1  0  0  0  0
 45 46  1  6  0  0  0
 47 48  1  0  0  0  0
M  END
>  <MODEL>
8

>  <REMARK>
 VINA RESULT:      -3.6      7.637     11.236
  Name = 
  14 active torsions:
  status: ('A' for Active; 'I' for Inactive)
    1  A    between atoms: C_1  and  C_4
    2  A    between atoms: C_2  and  C_48
    3  A    between atoms: O_3  and  C_11
    4  A    between atoms: O_3  and  C_30
    5  A    between atoms: C_4  and  C_11
    6  A    between atoms: C_5  and  C_25
    7  A    between atoms: N_7  and  C_32
    8  A    between atoms: N_9  and  C_46
    9  A    between atoms: C_20  and  C_46
   10  A    between atoms: C_22  and  C_42
   11  A    between atoms: C_24  and  C_48
   12  A    between atoms: C_26  and  C_41
   13  A    between atoms: C_29  and  C_44
   14  A    between atoms: C_32  and  C_34
                            x       y       z     vdW  Elec       q    Type
                         _______ _______ _______ _____ _____    ______ ____

>  <TORSDO>
F 14

$$$$
=
 OpenBabel11072412573D

 48 54  0  0  1  0  0  0  0  0999 V2000
  160.0170  205.1040  149.6750 O   0  0  0  0  0  1  0  0  0  0  0  0
  161.2440  206.6130  151.1370 C   0  0  2  0  0  3  0  0  0  0  0  0
  160.9690  205.1820  150.6990 C   0  0  2  0  0  0  0  0  0  0  0  0
  162.3310  205.8090  150.4150 C   0  0  1  0  0  3  0  0  0  0  0  0
  160.8240  206.0130  146.5030 C   0  0  0  0  0  2  0  0  0  0  0  0
  161.1140  207.3890  147.1280 C   0  0  0  0  0  2  0  0  0  0  0  0
  162.3750  205.0330  148.0200 C   0  0  0  0  0  2  0  0  0  0  0  0
  162.4550  206.2500  148.9580 C   0  0  1  0  0  3  0  0  0  0  0  0
  161.0380  204.9060  147.4390 N   0  0  0  0  0  2  0  0  0  0  0  0
  161.3730  207.2950  148.6330 C   0  0  1  0  0  3  0  0  0  0  0  0
  162.0900  210.7350  149.2410 N   0  0  0  0  0  0  0  0  0  0  0  0
  162.7160  210.8370  151.4580 O   0  0  0  0  0  0  0  0  0  0  0  0
  161.7210  208.6420  149.1820 C   0  0  0  0  0  0  0  0  0  0  0  0
  162.3300  210.1870  150.4470 C   0  0  0  0  0  0  0  0  0  0  0  0
  162.1110  208.8590  150.4610 N   0  0  0  0  0  0  0  0  0  0  0  0
  161.7160  209.7630  148.4310 N   0  0  0  0  0  2  0  0  0  0  0  0
  163.2340  212.1980  147.6040 C   0  0  0  0  0  1  0  0  0  0  0  0
  162.2950  212.1180  148.8010 C   0  0  1  0  0  3  0  0  0  0  0  0
  158.5740  214.1310  148.0090 C   0  0  0  0  0  3  0  0  0  0  0  0
  160.9890  212.8070  148.5460 C   0  0  0  0  0  0  0  0  0  0  0  0
  160.2560  213.3980  149.5910 C   0  0  0  0  0  3  0  0  0  0  0  0
  159.3020  213.5500  146.9660 C   0  0  0  0  0  3  0  0  0  0  0  0
  160.5080  212.8920  147.2350 C   0  0  0  0  0  3  0  0  0  0  0  0
  159.0520  214.0560  149.3210 C   0  0  0  0  0  3  0  0  0  0  0  0
  160.4450  206.4390  153.3660 O   0  0  0  0  0  0  0  0  0  0  0  0
  160.8300  207.7900  153.2660 C   0  0  2  0  0  3  0  0  0  0  0  0
  161.5980  206.7090  152.6120 C   0  0  2  0  0  3  0  0  0  0  0  0
  161.5570  208.2240  154.5330 C   0  0  0  0  0  2  0  0  0  0  0  0
  160.2490  211.1760  155.9420 N   0  0  0  0  0  2  0  0  0  0  0  0
  161.5550  209.6760  154.6560 N   0  0  0  0  0  0  0  0  0  0  0  0
  162.3250  210.0040  155.8400 C   0  0  0  0  0  2  0  0  0  0  0  0
  161.5530  211.0740  156.5750 C   0  0  0  0  0  2  0  0  0  0  0  0
  160.1950  210.0810  154.9820 C   0  0  2  0  0  3  0  0  0  0  0  0
  159.4660  210.5200  153.7200 C   0  0  0  0  0  2  0  0  0  0  0  0
  160.0330  211.8010  153.2050 C   0  0  0  0  0  3  0  0  0  0  0  0
  159.3350  212.9310  153.0380 C   0  0  0  0  0  3  0  0  0  0  0  0
  157.9120  213.1670  153.3620 C   0  0  0  0  0  0  0  0  0  0  0  0
  157.1150  213.7950  152.3970 C   0  0  0  0  0  3  0  0  0  0  0  0
  157.3450  212.8270  154.6000 C   0  0  0  0  0  3  0  0  0  0  0  0
  155.2110  213.7220  153.8920 C   0  0  0  0  0  3  0  0  0  0  0  0
  156.0000  213.1010  154.8630 C   0  0  0  0  0  3  0  0  0  0  0  0
  155.7700  214.0700  152.6590 C   0  0  0  0  0  3  0  0  0  0  0  0
  160.8690  204.2460  151.7420 O   0  0  0  0  0  0  0  0  0  0  0  0
  160.1280  203.1720  151.2410 C   0  0  0  0  0  2  0  0  0  0  0  0
  161.0140  201.9470  151.1290 C   0  0  2  0  0  3  0  0  0  0  0  0
  162.2540  202.2040  151.7150 O   0  0  0  0  0  1  0  0  0  0  0  0
  161.2060  201.5940  149.6680 C   0  0  0  0  0  2  0  0  0  0  0  0
  159.8840  201.7050  148.9290 C   0  0  0  0  0  1  0  0  0  0  0  0
  2 27  1  1  0  0  0
  3  1  1  6  0  0  0
  3  2  1  0  0  0  0
  3 43  1  0  0  0  0
  4  8  1  6  0  0  0
  4  3  1  0  0  0  0
  4  2  1  0  0  0  0
  5  6  1  0  0  0  0
  5  9  1  0  0  0  0
  6 10  1  0  0  0  0
  8  7  1  6  0  0  0
  9  7  1  0  0  0  0
 10  8  1  0  0  0  0
 10 13  1  6  0  0  0
 11 14  1  0  0  0  0
 13 15  2  0  0  0  0
 14 15  1  0  0  0  0
 14 12  2  0  0  0  0
 16 13  1  0  0  0  0
 16 11  1  0  0  0  0
 18 17  1  6  0  0  0
 18 11  1  0  0  0  0
 19 24  1  0  0  0  0
 20 18  1  0  0  0  0
 20 21  1  0  0  0  0
 22 23  1  0  0  0  0
 22 19  2  0  0  0  0
 23 20  2  0  0  0  0
 24 21  2  0  0  0  0
 26 25  1  0  0  0  0
 26 28  1  1  0  0  0
 27 26  1  0  0  0  0
 27 25  1  1  0  0  0
 28 30  1  0  0  0  0
 29 32  1  0  0  0  0
 30 33  1  0  0  0  0
 30 31  1  0  0  0  0
 31 32  1  0  0  0  0
 33 34  1  6  0  0  0
 33 29  1  0  0  0  0
 35 34  1  0  0  0  0
 36 35  2  0  0  0  0
 36 37  1  0  0  0  0
 37 39  1  0  0  0  0
 38 42  1  0  0  0  0
 38 37  2  0  0  0  0
 39 41  2  0  0  0  0
 40 41  1  0  0  0  0
 42 40  2  0  0  0  0
 44 43  1  0  0  0  0
 45 44  1  0  0  0  0
 45 46  1  6  0  0  0
 47 45  1  0  0  0  0
 48 47  1  0  0  0  0
M  END
>  <MODEL>
9

>  <REMARK>
 VINA RESULT:      -3.3      2.001      8.375
  Name = 
  14 active torsions:
  status: ('A' for Active; 'I' for Inactive)
    1  A    between atoms: C_1  and  C_4
    2  A    between atoms: C_2  and  C_48
    3  A    between atoms: O_3  and  C_11
    4  A    between atoms: O_3  and  C_30
    5  A    between atoms: C_4  and  C_11
    6  A    between atoms: C_5  and  C_25
    7  A    between atoms: N_7  and  C_32
    8  A    between atoms: N_9  and  C_46
    9  A    between atoms: C_20  and  C_46
   10  A    between atoms: C_22  and  C_42
   11  A    between atoms: C_24  and  C_48
   12  A    between atoms: C_26  and  C_41
   13  A    between atoms: C_29  and  C_44
   14  A    between atoms: C_32  and  C_34
                            x       y       z     vdW  Elec       q    Type
                         _______ _______ _______ _____ _____    ______ ____

>  <TORSDO>
F 14

$$$$
