=
 OpenBabel11072413513D

 67 77  0  0  1  0  0  0  0  0999 V2000
  154.9880  213.5600  154.1890 C   0  0  0  0  0  2  0  0  0  0  0  0
  160.1270  211.0700  152.6800 C   0  0  2  0  0  3  0  0  0  0  0  0
  158.3970  210.5260  152.4630 S   0  0  0  0  0  0  0  0  0  0  0  0
  160.6060  208.3740  153.7220 C   0  0  2  0  0  3  0  0  0  0  0  0
  162.1080  206.5030  154.1050 O   0  0  0  0  0  1  0  0  0  0  0  0
  157.8210  212.2230  152.1150 C   0  0  0  0  0  2  0  0  0  0  0  0
  155.8610  212.4180  153.6790 C   0  0  0  0  0  2  0  0  0  0  0  0
  161.1350  210.1410  152.0530 C   0  0  0  0  0  0  0  0  0  0  0  0
  161.8850  208.7910  149.4440 C   0  0  0  0  0  0  0  0  0  0  0  0
  161.4190  208.4970  156.0120 O   0  0  0  0  0  0  0  0  0  0  0  0
  160.1040  206.5290  155.3720 C   0  0  0  0  0  2  0  0  0  0  0  0
  155.3340  213.9820  155.6140 C   0  0  0  0  0  2  0  0  0  0  0  0
  160.7090  212.9270  154.1270 C   0  0  2  0  0  3  0  0  0  0  0  0
  158.1970  212.9440  154.5680 C   0  0  2  0  0  3  0  0  0  0  0  0
  160.7570  206.8630  154.0310 C   0  0  1  0  0  3  0  0  0  0  0  0
  161.9730  210.7320  150.9710 C   0  0  0  0  0  2  0  0  0  0  0  0
  157.2500  212.9440  153.3400 C   0  0  1  0  0  3  0  0  0  0  0  0
  162.4300  207.9170  150.4440 N   0  0  0  0  0  0  0  0  0  0  0  0
  162.2110  207.9340  151.7290 C   0  0  0  0  0  3  0  0  0  0  0  0
  161.3240  208.8730  152.4720 C   0  0  0  0  0  0  0  0  0  0  0  0
  157.5660  213.1550  155.8170 O   0  0  0  0  0  0  0  0  0  0  0  0
  160.7650  209.2340  155.0090 C   0  0  1  0  0  3  0  0  0  0  0  0
  160.0320  213.6720  153.1350 O   0  0  0  0  0  0  0  0  0  0  0  0
  160.4820  207.5460  156.4650 C   0  0  0  0  0  2  0  0  0  0  0  0
  161.3550  210.6480  154.8020 C   0  0  1  0  0  3  0  0  0  0  0  0
  160.3760  211.4870  154.0740 N   0  0  2  0  0  0  0  0  0  0  0  0
  161.6740  210.0870  149.6680 C   0  0  0  0  0  3  0  0  0  0  0  0
  156.8100  214.3380  155.7580 C   0  0  0  0  0  2  0  0  0  0  0  0
  159.4970  213.7660  154.4340 C   0  0  2  0  0  3  0  0  0  0  0  0
  161.6940  208.1800  147.8140 S   0  0  0  0  0  0  0  0  0  0  0  0
  161.0190  209.2220  146.9720 O   0  0  0  0  0  0  0  0  0  0  0  0
  163.0440  207.8750  147.2260 O   0  0  0  0  0  0  0  0  0  0  0  0
  161.3610  205.5350  147.7400 C   0  0  0  0  0  3  0  0  0  0  0  0
  160.7440  206.7070  147.8220 C   0  0  0  0  0  3  0  0  0  0  0  0
  160.6340  204.3540  147.6940 O   0  0  0  0  0  0  0  0  0  0  0  0
  161.1560  203.1620  148.2810 C   0  0  1  0  0  3  0  0  0  0  0  0
  161.1410  202.3230  152.0210 C   0  0  0  0  0  3  0  0  0  0  0  0
  160.8170  203.7420  153.9460 O   0  0  0  0  0  1  0  0  0  0  0  0
  160.7980  204.5240  150.3370 C   0  0  0  0  0  3  0  0  0  0  0  0
  161.2200  202.1530  150.6350 C   0  0  0  0  0  0  0  0  0  0  0  0
  160.7190  204.6870  151.7230 C   0  0  0  0  0  3  0  0  0  0  0  0
  161.0530  203.2640  149.7800 C   0  0  0  0  0  0  0  0  0  0  0  0
  160.8930  203.5860  152.5660 C   0  0  0  0  0  0  0  0  0  0  0  0
  161.4860  200.7830  150.1090 C   0  0  0  0  0  1  0  0  0  0  0  0
  160.4970  201.9330  147.7860 N   0  0  0  0  0  0  0  0  0  0  0  0
  158.2590  200.9780  147.1150 C   0  0  0  0  0  2  0  0  0  0  0  0
  159.0870  202.2140  147.4740 C   0  0  0  0  0  3  0  0  0  0  0  0
  158.2230  201.5300  148.5280 C   0  0  0  0  0  2  0  0  0  0  0  0
  161.2060  201.5660  146.5520 C   0  0  0  0  0  2  0  0  0  0  0  0
  161.5440  205.0250  144.1820 N   0  0  0  0  0  0  0  0  0  0  0  0
  160.2890  204.3390  144.2590 C   0  0  0  0  0  3  0  0  0  0  0  0
  161.3340  202.7320  145.6930 N   0  0  0  0  0  0  0  0  0  0  0  0
  162.5910  203.4210  145.6160 C   0  0  0  0  0  3  0  0  0  0  0  0
  162.6940  204.5310  144.8840 C   0  0  0  0  0  3  0  0  0  0  0  0
  160.1860  203.2310  144.9910 C   0  0  0  0  0  3  0  0  0  0  0  0
  161.6560  206.2210  143.3740 C   0  0  0  0  0  1  0  0  0  0  0  0
  161.8200  211.3190  156.1210 C   0  0  1  0  0  3  0  0  0  0  0  0
  159.4950  211.4470  156.7730 O   0  0  0  0  0  1  0  0  0  0  0  0
  160.7940  211.3060  157.2580 C   0  0  0  0  0  2  0  0  0  0  0  0
  163.2230  210.9130  156.5570 C   0  0  0  0  0  2  0  0  0  0  0  0
  163.9270  212.0700  157.2600 C   0  0  0  0  0  2  0  0  0  0  0  0
  165.3350  212.2750  156.7250 C   0  0  0  0  0  2  0  0  0  0  0  0
  165.3550  212.0870  155.3440 O   0  0  0  0  0  0  0  0  0  0  0  0
  167.6240  212.0740  156.0650 C   0  0  1  0  0  3  0  0  0  0  0  0
  167.3900  212.9740  157.2600 C   0  0  0  0  0  2  0  0  0  0  0  0
  166.6530  212.4250  154.9510 C   0  0  2  0  0  3  0  0  0  0  0  0
  167.2170  213.5130  155.8530 C   0  0  2  0  0  3  0  0  0  0  0  0
  1 12  1  0  0  0  0
  2  8  1  1  0  0  0
  2 26  1  0  0  0  0
  3  2  1  0  0  0  0
  4 20  1  6  0  0  0
  4 15  1  0  0  0  0
  4 22  1  0  0  0  0
  6  3  1  0  0  0  0
  7  1  1  0  0  0  0
  8 20  2  0  0  0  0
  9 27  2  0  0  0  0
  9 18  1  0  0  0  0
 10 24  1  0  0  0  0
 11 24  1  0  0  0  0
 12 28  1  0  0  0  0
 13 23  1  6  0  0  0
 13 29  1  0  0  0  0
 14 21  1  1  0  0  0
 15  5  1  1  0  0  0
 15 11  1  0  0  0  0
 16  8  1  0  0  0  0
 17  6  1  6  0  0  0
 17  7  1  0  0  0  0
 17 14  1  0  0  0  0
 18 19  2  0  0  0  0
 19 20  1  0  0  0  0
 22 10  1  1  0  0  0
 23 29  1  0  0  0  0
 25 22  1  0  0  0  0
 25 57  1  1  0  0  0
 26 13  1  0  0  0  0
 26 25  1  0  0  0  0
 27 16  1  0  0  0  0
 28 21  1  0  0  0  0
 29 14  1  0  0  0  0
 30 34  1  0  0  0  0
 30  9  1  0  0  0  0
 31 30  2  0  0  0  0
 32 30  2  0  0  0  0
 33 34  2  0  0  0  0
 35 33  1  0  0  0  0
 35 36  1  0  0  0  0
 36 42  1  0  0  0  0
 37 43  1  0  0  0  0
 39 41  1  0  0  0  0
 40 37  2  0  0  0  0
 41 43  2  0  0  0  0
 42 39  2  0  0  0  0
 42 40  1  0  0  0  0
 43 38  1  0  0  0  0
 44 40  1  0  0  0  0
 45 36  1  0  0  0  0
 46 47  1  0  0  0  0
 46 48  1  0  0  0  0
 47 45  1  0  0  0  0
 47 48  1  0  0  0  0
 49 45  1  0  0  0  0
 50 51  1  0  0  0  0
 50 54  1  0  0  0  0
 51 55  2  0  0  0  0
 52 49  1  0  0  0  0
 53 52  1  0  0  0  0
 54 53  2  0  0  0  0
 55 52  1  0  0  0  0
 56 50  1  0  0  0  0
 57 60  1  0  0  0  0
 57 59  1  0  0  0  0
 58 59  1  0  0  0  0
 60 61  1  0  0  0  0
 62 61  1  0  0  0  0
 63 62  1  0  0  0  0
 64 65  1  0  0  0  0
 66 63  1  0  0  0  0
 66 67  1  0  0  0  0
 66 64  1  0  0  0  0
 67 64  1  0  0  0  0
 67 65  1  0  0  0  0
M  END
>  <MODEL>
1

>  <REMARK>
 VINA RESULT:       4.8      0.000      0.000
  Name = 
  16 active torsions:
  status: ('A' for Active; 'I' for Inactive)
    1  A    between atoms: C_4  and  O_6
    2  A    between atoms: O_6  and  C_30
    3  A    between atoms: C_8  and  N_9
    4  A    between atoms: C_8  and  N_48
    5  A    between atoms: C_18  and  O_42
    6  A    between atoms: C_20  and  O_42
    7  A    between atoms: C_20  and  C_43
    8  A    between atoms: C_26  and  S_29
    9  A    between atoms: S_29  and  C_46
   10  A    between atoms: C_30  and  N_48
   11  A    between atoms: C_30  and  C_58
   12  A    between atoms: C_31  and  C_41
   13  A    between atoms: C_35  and  N_48
   14  A    between atoms: C_41  and  C_59
   15  A    between atoms: C_41  and  C_67
   16  A    between atoms: C_43  and  C_67
                            x       y       z     vdW  Elec       q    Type
                         _______ _______ _______ _____ _____    ______ ____

>  <TORSDO>
F 16

$$$$
=
 OpenBabel11072413513D

 67 77  0  0  1  0  0  0  0  0999 V2000
  162.2590  206.1260  139.1720 C   0  0  0  0  0  2  0  0  0  0  0  0
  161.8030  211.4710  141.6430 C   0  0  2  0  0  3  0  0  0  0  0  0
  161.0230  209.8700  142.0450 S   0  0  0  0  0  0  0  0  0  0  0  0
  159.0970  212.5790  141.8230 C   0  0  2  0  0  3  0  0  0  0  0  0
  157.6160  214.4530  142.2730 O   0  0  0  0  0  1  0  0  0  0  0  0
  162.5400  208.9380  141.6490 C   0  0  0  0  0  2  0  0  0  0  0  0
  161.6460  207.1500  140.1230 C   0  0  0  0  0  2  0  0  0  0  0  0
  161.4560  212.5740  142.6110 C   0  0  0  0  0  0  0  0  0  0  0  0
  161.4770  213.3020  145.5550 C   0  0  0  0  0  0  0  0  0  0  0  0
  158.4630  213.5850  139.7010 O   0  0  0  0  0  0  0  0  0  0  0  0
  156.6810  212.6250  141.0860 C   0  0  0  0  0  2  0  0  0  0  0  0
  162.1360  206.5280  137.7050 C   0  0  0  0  0  2  0  0  0  0  0  0
  162.9970  211.8220  139.5610 C   0  0  2  0  0  3  0  0  0  0  0  0
  162.2750  209.4160  139.1220 C   0  0  2  0  0  3  0  0  0  0  0  0
  157.6640  213.0580  142.1740 C   0  0  1  0  0  3  0  0  0  0  0  0
  162.6040  213.1610  143.3590 C   0  0  0  0  0  2  0  0  0  0  0  0
  162.5590  208.3660  140.2280 C   0  0  1  0  0  3  0  0  0  0  0  0
  160.4200  214.1090  145.0150 N   0  0  0  0  0  0  0  0  0  0  0  0
  159.8680  214.0250  143.8370 C   0  0  0  0  0  3  0  0  0  0  0  0
  160.2040  213.0520  142.7610 C   0  0  0  0  0  0  0  0  0  0  0  0
  161.8180  208.8880  137.8920 O   0  0  0  0  0  0  0  0  0  0  0  0
  159.3760  212.6970  140.2980 C   0  0  1  0  0  3  0  0  0  0  0  0
  163.9070  210.9120  140.1450 O   0  0  0  0  0  0  0  0  0  0  0  0
  157.2280  212.9060  139.6730 C   0  0  0  0  0  2  0  0  0  0  0  0
  160.8460  212.9710  139.9030 C   0  0  1  0  0  3  0  0  0  0  0  0
  161.6660  211.7760  140.2040 N   0  0  2  0  0  0  0  0  0  0  0  0
  162.4900  212.8630  144.8080 C   0  0  0  0  0  3  0  0  0  0  0  0
  162.7230  207.9100  137.4440 C   0  0  0  0  0  2  0  0  0  0  0  0
  163.3480  210.5070  138.9180 C   0  0  2  0  0  3  0  0  0  0  0  0
  161.5500  213.0680  147.2890 S   0  0  0  0  0  0  0  0  0  0  0  0
  162.4510  214.1060  147.8900 O   0  0  0  0  0  0  0  0  0  0  0  0
  160.1740  213.2150  147.8770 O   0  0  0  0  0  0  0  0  0  0  0  0
  161.2840  210.4870  147.9010 C   0  0  0  0  0  3  0  0  0  0  0  0
  162.1490  211.4640  147.6630 C   0  0  0  0  0  3  0  0  0  0  0  0
  161.7270  209.2190  148.2490 O   0  0  0  0  0  0  0  0  0  0  0  0
  160.9950  208.4300  149.1870 C   0  0  1  0  0  3  0  0  0  0  0  0
  161.2820  205.2290  147.0990 C   0  0  0  0  0  3  0  0  0  0  0  0
  161.2530  202.9110  147.7690 O   0  0  0  0  0  1  0  0  0  0  0  0
  160.9400  206.0060  149.7600 C   0  0  0  0  0  3  0  0  0  0  0  0
  161.2130  206.5890  147.4200 C   0  0  0  0  0  0  0  0  0  0  0  0
  161.0090  204.6490  149.4320 C   0  0  0  0  0  3  0  0  0  0  0  0
  161.0460  206.9860  148.7640 C   0  0  0  0  0  0  0  0  0  0  0  0
  161.1820  204.2600  148.1010 C   0  0  0  0  0  0  0  0  0  0  0  0
  161.3240  207.5800  146.3100 C   0  0  0  0  0  1  0  0  0  0  0  0
  161.4690  208.5930  150.5790 N   0  0  0  0  0  0  0  0  0  0  0  0
  162.7090  210.4230  151.7970 C   0  0  0  0  0  2  0  0  0  0  0  0
  161.5180  210.0230  150.9250 C   0  0  0  0  0  3  0  0  0  0  0  0
  162.7700  210.6210  150.2940 C   0  0  0  0  0  2  0  0  0  0  0  0
  160.4740  207.9200  151.4250 C   0  0  0  0  0  2  0  0  0  0  0  0
  161.4270  208.7250  155.4430 N   0  0  0  0  0  0  0  0  0  0  0  0
  161.4250  207.3720  154.9730 C   0  0  0  0  0  3  0  0  0  0  0  0
  160.7540  208.1920  152.8250 N   0  0  0  0  0  0  0  0  0  0  0  0
  160.7580  209.5470  153.2980 C   0  0  0  0  0  3  0  0  0  0  0  0
  161.0830  209.8070  154.5650 C   0  0  0  0  0  3  0  0  0  0  0  0
  161.1010  207.1140  153.7070 C   0  0  0  0  0  3  0  0  0  0  0  0
  161.7650  209.0010  156.8230 C   0  0  0  0  0  1  0  0  0  0  0  0
  161.0130  213.4290  138.4310 C   0  0  1  0  0  3  0  0  0  0  0  0
  162.8450  214.1530  137.0280 O   0  0  0  0  0  1  0  0  0  0  0  0
  162.1280  214.4490  138.1870 C   0  0  0  0  0  2  0  0  0  0  0  0
  160.9980  212.2840  137.4240 C   0  0  0  0  0  2  0  0  0  0  0  0
  159.9210  211.2640  137.7820 C   0  0  0  0  0  2  0  0  0  0  0  0
  158.5360  211.7500  137.3810 C   0  0  0  0  0  2  0  0  0  0  0  0
  157.7360  210.6690  137.0170 O   0  0  0  0  0  0  0  0  0  0  0  0
  157.1560  208.5720  137.9860 C   0  0  1  0  0  3  0  0  0  0  0  0
  156.1570  209.1500  138.9670 C   0  0  0  0  0  2  0  0  0  0  0  0
  158.2620  209.5790  137.7170 C   0  0  2  0  0  3  0  0  0  0  0  0
  157.6320  209.4780  139.0980 C   0  0  2  0  0  3  0  0  0  0  0  0
  1  7  1  0  0  0  0
  2  3  1  1  0  0  0
  2  8  1  0  0  0  0
  4 15  1  0  0  0  0
  4 20  1  1  0  0  0
  6  3  1  0  0  0  0
  8 20  2  0  0  0  0
  8 16  1  0  0  0  0
  9 30  1  0  0  0  0
 11 15  1  0  0  0  0
 12  1  1  0  0  0  0
 13 23  1  1  0  0  0
 13 26  1  0  0  0  0
 14 21  1  6  0  0  0
 14 17  1  0  0  0  0
 15  5  1  6  0  0  0
 16 27  1  0  0  0  0
 17  7  1  1  0  0  0
 17  6  1  0  0  0  0
 18  9  1  0  0  0  0
 19 18  2  0  0  0  0
 20 19  1  0  0  0  0
 22 10  1  1  0  0  0
 22  4  1  0  0  0  0
 24 10  1  0  0  0  0
 24 11  1  0  0  0  0
 25 57  1  6  0  0  0
 25 26  1  0  0  0  0
 25 22  1  0  0  0  0
 26  2  1  0  0  0  0
 27  9  2  0  0  0  0
 28 12  1  0  0  0  0
 28 21  1  0  0  0  0
 29 14  1  0  0  0  0
 29 13  1  0  0  0  0
 29 23  1  0  0  0  0
 30 34  1  0  0  0  0
 30 32  2  0  0  0  0
 30 31  2  0  0  0  0
 33 35  1  0  0  0  0
 34 33  2  0  0  0  0
 35 36  1  0  0  0  0
 36 45  1  0  0  0  0
 37 40  2  0  0  0  0
 37 43  1  0  0  0  0
 38 43  1  0  0  0  0
 40 42  1  0  0  0  0
 41 39  1  0  0  0  0
 42 36  1  0  0  0  0
 42 39  2  0  0  0  0
 43 41  2  0  0  0  0
 44 40  1  0  0  0  0
 45 47  1  0  0  0  0
 45 49  1  0  0  0  0
 47 46  1  0  0  0  0
 48 47  1  0  0  0  0
 48 46  1  0  0  0  0
 49 52  1  0  0  0  0
 50 56  1  0  0  0  0
 51 50  1  0  0  0  0
 52 53  1  0  0  0  0
 52 55  1  0  0  0  0
 53 54  2  0  0  0  0
 54 50  1  0  0  0  0
 55 51  2  0  0  0  0
 58 59  1  0  0  0  0
 59 57  1  0  0  0  0
 60 61  1  0  0  0  0
 60 57  1  0  0  0  0
 62 61  1  0  0  0  0
 63 62  1  0  0  0  0
 63 66  1  0  0  0  0
 64 65  1  0  0  0  0
 64 67  1  0  0  0  0
 65 67  1  0  0  0  0
 66 64  1  0  0  0  0
 66 67  1  0  0  0  0
M  END
>  <MODEL>
2

>  <REMARK>
 VINA RESULT:       4.8      5.877     13.380
  Name = 
  16 active torsions:
  status: ('A' for Active; 'I' for Inactive)
    1  A    between atoms: C_4  and  O_6
    2  A    between atoms: O_6  and  C_30
    3  A    between atoms: C_8  and  N_9
    4  A    between atoms: C_8  and  N_48
    5  A    between atoms: C_18  and  O_42
    6  A    between atoms: C_20  and  O_42
    7  A    between atoms: C_20  and  C_43
    8  A    between atoms: C_26  and  S_29
    9  A    between atoms: S_29  and  C_46
   10  A    between atoms: C_30  and  N_48
   11  A    between atoms: C_30  and  C_58
   12  A    between atoms: C_31  and  C_41
   13  A    between atoms: C_35  and  N_48
   14  A    between atoms: C_41  and  C_59
   15  A    between atoms: C_41  and  C_67
   16  A    between atoms: C_43  and  C_67
                            x       y       z     vdW  Elec       q    Type
                         _______ _______ _______ _____ _____    ______ ____

>  <TORSDO>
F 16

$$$$
=
 OpenBabel11072413513D

 67 77  0  0  1  0  0  0  0  0999 V2000
  155.0830  213.6200  154.2670 C   0  0  0  0  0  2  0  0  0  0  0  0
  160.2660  211.2010  152.7930 C   0  0  2  0  0  3  0  0  0  0  0  0
  158.5440  210.6660  152.5070 S   0  0  0  0  0  0  0  0  0  0  0  0
  160.7220  208.4640  153.7330 C   0  0  2  0  0  3  0  0  0  0  0  0
  162.2170  206.5790  154.0760 O   0  0  0  0  0  1  0  0  0  0  0  0
  157.9740  212.3750  152.2160 C   0  0  0  0  0  2  0  0  0  0  0  0
  155.9720  212.5010  153.7320 C   0  0  0  0  0  2  0  0  0  0  0  0
  161.2930  210.3010  152.1560 C   0  0  0  0  0  0  0  0  0  0  0  0
  162.1170  209.0630  149.5120 C   0  0  0  0  0  0  0  0  0  0  0  0
  161.4730  208.4890  156.0470 O   0  0  0  0  0  0  0  0  0  0  0  0
  160.1790  206.5490  155.2880 C   0  0  0  0  0  2  0  0  0  0  0  0
  155.3900  213.9810  155.7170 C   0  0  0  0  0  2  0  0  0  0  0  0
  160.8060  212.9950  154.3340 C   0  0  2  0  0  3  0  0  0  0  0  0
  158.2830  212.9920  154.7070 C   0  0  2  0  0  3  0  0  0  0  0  0
  160.8680  206.9410  153.9810 C   0  0  1  0  0  3  0  0  0  0  0  0
  162.1590  210.9380  151.1230 C   0  0  0  0  0  2  0  0  0  0  0  0
  157.3690  213.0430  153.4540 C   0  0  1  0  0  3  0  0  0  0  0  0
  162.6360  208.1480  150.4890 N   0  0  0  0  0  0  0  0  0  0  0  0
  162.3820  208.1100  151.7680 C   0  0  0  0  0  3  0  0  0  0  0  0
  161.4730  209.0160  152.5250 C   0  0  0  0  0  0  0  0  0  0  0  0
  157.6170  213.1490  155.9450 O   0  0  0  0  0  0  0  0  0  0  0  0
  160.8440  209.2680  155.0590 C   0  0  1  0  0  3  0  0  0  0  0  0
  160.1540  213.7810  153.3560 O   0  0  0  0  0  0  0  0  0  0  0  0
  160.5260  207.5200  156.4340 C   0  0  0  0  0  2  0  0  0  0  0  0
  161.4370  210.6900  154.9290 C   0  0  1  0  0  3  0  0  0  0  0  0
  160.4760  211.5590  154.2100 N   0  0  2  0  0  0  0  0  0  0  0  0
  161.8970  210.3490  149.7860 C   0  0  0  0  0  3  0  0  0  0  0  0
  156.8600  214.3330  155.9160 C   0  0  0  0  0  2  0  0  0  0  0  0
  159.5840  213.8200  154.6430 C   0  0  2  0  0  3  0  0  0  0  0  0
  161.9710  208.5220  147.8540 S   0  0  0  0  0  0  0  0  0  0  0  0
  161.3690  209.6190  147.0270 O   0  0  0  0  0  0  0  0  0  0  0  0
  163.3320  208.1890  147.3080 O   0  0  0  0  0  0  0  0  0  0  0  0
  161.5230  205.9270  147.4330 C   0  0  0  0  0  3  0  0  0  0  0  0
  160.9700  207.0860  147.7660 C   0  0  0  0  0  3  0  0  0  0  0  0
  160.7480  204.7830  147.3070 O   0  0  0  0  0  0  0  0  0  0  0  0
  161.2100  203.5370  147.8290 C   0  0  1  0  0  3  0  0  0  0  0  0
  160.7740  202.3940  151.4600 C   0  0  0  0  0  3  0  0  0  0  0  0
  160.5650  203.6750  153.4940 O   0  0  0  0  0  1  0  0  0  0  0  0
  160.9470  204.7580  149.9850 C   0  0  0  0  0  3  0  0  0  0  0  0
  160.9240  202.3330  150.0710 C   0  0  0  0  0  0  0  0  0  0  0  0
  160.7980  204.8110  151.3740 C   0  0  0  0  0  3  0  0  0  0  0  0
  161.0170  203.5260  149.3210 C   0  0  0  0  0  0  0  0  0  0  0  0
  160.7130  203.6280  152.1120 C   0  0  0  0  0  0  0  0  0  0  0  0
  160.9820  200.9880  149.4280 C   0  0  0  0  0  1  0  0  0  0  0  0
  160.5590  202.3660  147.1990 N   0  0  0  0  0  0  0  0  0  0  0  0
  158.8780  202.2190  145.3230 C   0  0  0  0  0  2  0  0  0  0  0  0
  159.2180  202.7370  146.7220 C   0  0  0  0  0  3  0  0  0  0  0  0
  158.4050  201.4590  146.5480 C   0  0  0  0  0  2  0  0  0  0  0  0
  161.4040  202.0040  146.0530 C   0  0  0  0  0  2  0  0  0  0  0  0
  161.1080  197.9100  145.1320 N   0  0  0  0  0  0  0  0  0  0  0  0
  160.3400  198.8610  144.3850 C   0  0  0  0  0  3  0  0  0  0  0  0
  161.2620  200.5860  145.7670 N   0  0  0  0  0  0  0  0  0  0  0  0
  162.0310  199.6320  146.5130 C   0  0  0  0  0  3  0  0  0  0  0  0
  161.9570  198.3360  146.2080 C   0  0  0  0  0  3  0  0  0  0  0  0
  160.4160  200.1550  144.6900 C   0  0  0  0  0  3  0  0  0  0  0  0
  161.0120  196.5020  144.8070 C   0  0  0  0  0  1  0  0  0  0  0  0
  161.8650  211.3050  156.2870 C   0  0  1  0  0  3  0  0  0  0  0  0
  159.7170  210.6540  157.1890 O   0  0  0  0  0  1  0  0  0  0  0  0
  160.7170  211.6240  157.2500 C   0  0  0  0  0  2  0  0  0  0  0  0
  163.0360  210.5860  156.9460 C   0  0  0  0  0  2  0  0  0  0  0  0
  164.1640  211.5660  157.2590 C   0  0  0  0  0  2  0  0  0  0  0  0
  165.0810  211.7620  156.0610 C   0  0  0  0  0  2  0  0  0  0  0  0
  166.4140  211.6580  156.4560 O   0  0  0  0  0  0  0  0  0  0  0  0
  168.5950  212.3990  155.8540 C   0  0  1  0  0  3  0  0  0  0  0  0
  168.9930  212.8010  157.2590 C   0  0  0  0  0  2  0  0  0  0  0  0
  167.0990  212.5840  155.6640 C   0  0  2  0  0  3  0  0  0  0  0  0
  167.8890  213.5490  156.5350 C   0  0  2  0  0  3  0  0  0  0  0  0
  1 12  1  0  0  0  0
  2  8  1  1  0  0  0
  2 26  1  0  0  0  0
  3  2  1  0  0  0  0
  4 20  1  6  0  0  0
  4 15  1  0  0  0  0
  4 22  1  0  0  0  0
  6  3  1  0  0  0  0
  7  1  1  0  0  0  0
  8 20  2  0  0  0  0
  9 27  2  0  0  0  0
  9 18  1  0  0  0  0
 10 24  1  0  0  0  0
 11 24  1  0  0  0  0
 12 28  1  0  0  0  0
 13 23  1  6  0  0  0
 13 29  1  0  0  0  0
 14 21  1  1  0  0  0
 15  5  1  1  0  0  0
 15 11  1  0  0  0  0
 16  8  1  0  0  0  0
 17  6  1  6  0  0  0
 17  7  1  0  0  0  0
 17 14  1  0  0  0  0
 18 19  2  0  0  0  0
 19 20  1  0  0  0  0
 22 10  1  1  0  0  0
 23 29  1  0  0  0  0
 25 22  1  0  0  0  0
 25 57  1  1  0  0  0
 26 13  1  0  0  0  0
 26 25  1  0  0  0  0
 27 16  1  0  0  0  0
 28 21  1  0  0  0  0
 29 14  1  0  0  0  0
 30  9  1  0  0  0  0
 31 30  2  0  0  0  0
 32 30  2  0  0  0  0
 33 34  2  0  0  0  0
 34 30  1  0  0  0  0
 35 33  1  0  0  0  0
 35 36  1  0  0  0  0
 36 42  1  0  0  0  0
 37 43  1  0  0  0  0
 39 41  1  0  0  0  0
 40 37  2  0  0  0  0
 41 43  2  0  0  0  0
 42 39  2  0  0  0  0
 42 40  1  0  0  0  0
 43 38  1  0  0  0  0
 44 40  1  0  0  0  0
 45 36  1  0  0  0  0
 46 48  1  0  0  0  0
 46 47  1  0  0  0  0
 47 45  1  0  0  0  0
 48 47  1  0  0  0  0
 49 45  1  0  0  0  0
 50 54  1  0  0  0  0
 51 55  2  0  0  0  0
 51 50  1  0  0  0  0
 52 49  1  0  0  0  0
 52 53  1  0  0  0  0
 54 53  2  0  0  0  0
 55 52  1  0  0  0  0
 56 50  1  0  0  0  0
 57 60  1  0  0  0  0
 57 59  1  0  0  0  0
 58 59  1  0  0  0  0
 60 61  1  0  0  0  0
 62 63  1  0  0  0  0
 62 61  1  0  0  0  0
 64 67  1  0  0  0  0
 64 65  1  0  0  0  0
 66 64  1  0  0  0  0
 66 63  1  0  0  0  0
 66 67  1  0  0  0  0
 67 65  1  0  0  0  0
M  END
>  <MODEL>
3

>  <REMARK>
 VINA RESULT:       7.3      1.297      2.030
  Name = 
  16 active torsions:
  status: ('A' for Active; 'I' for Inactive)
    1  A    between atoms: C_4  and  O_6
    2  A    between atoms: O_6  and  C_30
    3  A    between atoms: C_8  and  N_9
    4  A    between atoms: C_8  and  N_48
    5  A    between atoms: C_18  and  O_42
    6  A    between atoms: C_20  and  O_42
    7  A    between atoms: C_20  and  C_43
    8  A    between atoms: C_26  and  S_29
    9  A    between atoms: S_29  and  C_46
   10  A    between atoms: C_30  and  N_48
   11  A    between atoms: C_30  and  C_58
   12  A    between atoms: C_31  and  C_41
   13  A    between atoms: C_35  and  N_48
   14  A    between atoms: C_41  and  C_59
   15  A    between atoms: C_41  and  C_67
   16  A    between atoms: C_43  and  C_67
                            x       y       z     vdW  Elec       q    Type
                         _______ _______ _______ _____ _____    ______ ____

>  <TORSDO>
F 16

$$$$
