=
 OpenBabel11072410313D

 32 36  0  0  1  0  0  0  0  0999 V2000
  160.8420  207.0860  154.5000 C   0  0  0  0  0  3  0  0  0  0  0  0
  161.2440  206.7470  153.2060 C   0  0  0  0  0  3  0  0  0  0  0  0
  161.5370  209.0930  152.7240 C   0  0  0  0  0  3  0  0  0  0  0  0
  161.1080  209.4010  154.0180 C   0  0  0  0  0  0  0  0  0  0  0  0
  160.7890  208.3930  154.8780 N   0  0  0  0  0  0  0  0  0  0  0  0
  161.5990  207.7590  152.3130 C   0  0  0  0  0  0  0  0  0  0  0  0
  159.7710  211.1870  154.8360 N   0  0  0  0  0  0  0  0  0  0  0  0
  161.3280  210.8480  157.0180 O   0  0  0  0  0  0  0  0  0  0  0  0
  161.0700  210.8340  154.4610 C   0  0  1  0  0  3  0  0  0  0  0  0
  160.9000  210.9360  155.8380 C   0  0  0  0  0  0  0  0  0  0  0  0
  155.9680  212.8910  154.8190 N   0  0  0  0  0  0  0  0  0  0  0  0
  158.3630  211.4100  154.5460 C   0  0  1  0  0  3  0  0  0  0  0  0
  156.4360  212.0970  155.9190 C   0  0  0  0  0  3  0  0  0  0  0  0
  157.1110  214.3820  151.6480 C   0  0  0  0  0  2  0  0  0  0  0  0
  158.5980  212.5240  152.3190 C   0  0  0  0  0  3  0  0  0  0  0  0
  158.1080  213.2980  151.3370 C   0  0  0  0  0  3  0  0  0  0  0  0
  157.5830  211.4200  155.8300 C   0  0  0  0  0  3  0  0  0  0  0  0
  156.2120  213.9490  152.7160 N   0  0  0  0  0  2  0  0  0  0  0  0
  158.1700  212.7100  153.7530 C   0  0  1  0  0  3  0  0  0  0  0  0
  156.7240  213.1640  153.7970 C   0  0  0  0  0  0  0  0  0  0  0  0
  162.0120  207.4230  150.9880 N   0  0  0  0  0  2  0  0  0  0  0  0
  161.1880  207.6840  149.8840 N   0  0  0  0  0  2  0  0  0  0  0  0
  160.6060  206.4160  149.4750 C   0  0  0  0  0  2  0  0  0  0  0  0
  161.6140  205.6110  148.6710 C   0  0  1  0  0  3  0  0  0  0  0  0
  161.1230  204.2000  148.4450 C   0  0  0  0  0  2  0  0  0  0  0  0
  161.7410  203.7690  147.1330 C   0  0  0  0  0  2  0  0  0  0  0  0
  161.7710  206.2070  147.2910 C   0  0  0  0  0  2  0  0  0  0  0  0
  162.0230  205.0410  146.3520 C   0  0  2  0  0  3  0  0  0  0  0  0
  159.8480  206.1450  145.2020 O   0  0  0  0  0  0  0  0  0  0  0  0
  160.9440  205.1510  144.9360 S   0  0  0  0  0  0  0  0  0  0  0  0
  161.7330  205.5900  143.7350 O   0  0  0  0  0  0  0  0  0  0  0  0
  160.2470  203.6020  144.6240 N   0  0  0  0  0  1  0  0  0  0  0  0
  1  5  1  0  0  0  0
  2  1  2  0  0  0  0
  3  4  1  0  0  0  0
  4  5  2  0  0  0  0
  6  3  2  0  0  0  0
  6  2  1  0  0  0  0
  7 10  1  0  0  0  0
  9  4  1  1  0  0  0
  9  7  1  0  0  0  0
  9 10  1  0  0  0  0
 10  8  2  0  0  0  0
 11 13  1  0  0  0  0
 12  7  1  1  0  0  0
 12 17  1  0  0  0  0
 14 18  1  0  0  0  0
 16 14  1  0  0  0  0
 16 15  2  0  0  0  0
 17 13  2  0  0  0  0
 18 20  1  0  0  0  0
 19 15  1  6  0  0  0
 19 20  1  0  0  0  0
 19 12  1  0  0  0  0
 20 11  2  0  0  0  0
 21  6  1  0  0  0  0
 22 21  1  0  0  0  0
 23 22  1  0  0  0  0
 24 23  1  1  0  0  0
 25 24  1  0  0  0  0
 26 25  1  0  0  0  0
 27 24  1  0  0  0  0
 28 30  1  6  0  0  0
 28 26  1  0  0  0  0
 28 27  1  0  0  0  0
 30 29  2  0  0  0  0
 31 30  2  0  0  0  0
 32 30  1  0  0  0  0
M  END
>  <MODEL>
1

>  <REMARK>
 VINA RESULT:      -7.9      0.000      0.000
  Name = 
  7 active torsions:
  status: ('A' for Active; 'I' for Inactive)
    1  A    between atoms: C_1  and  N_8
    2  A    between atoms: C_1  and  C_12
    3  A    between atoms: N_3  and  C_9
    4  A    between atoms: CA_7  and  C_13
    5  A    between atoms: N_8  and  N_32
    6  A    between atoms: S_16  and  C_29
    7  A    between atoms: C_18  and  N_32
                            x       y       z     vdW  Elec       q    Type
                         _______ _______ _______ _____ _____    ______ ____

>  <TORSDO>
F 7

$$$$
=
 OpenBabel11072410313D

 32 36  0  0  1  0  0  0  0  0999 V2000
  161.9450  206.2650  152.9250 C   0  0  0  0  0  3  0  0  0  0  0  0
  161.0940  207.2610  153.4100 C   0  0  0  0  0  3  0  0  0  0  0  0
  161.3680  208.4530  151.3290 C   0  0  0  0  0  3  0  0  0  0  0  0
  162.2350  207.4510  150.8830 C   0  0  0  0  0  0  0  0  0  0  0  0
  162.4880  206.3760  151.6820 N   0  0  0  0  0  0  0  0  0  0  0  0
  160.7990  208.3610  152.6030 C   0  0  0  0  0  0  0  0  0  0  0  0
  161.9640  206.9380  148.5790 N   0  0  0  0  0  0  0  0  0  0  0  0
  161.8140  209.6290  148.3890 O   0  0  0  0  0  0  0  0  0  0  0  0
  162.8190  207.5430  149.5040 C   0  0  1  0  0  3  0  0  0  0  0  0
  162.1220  208.4540  148.7170 C   0  0  0  0  0  0  0  0  0  0  0  0
  161.2600  203.2250  146.8240 N   0  0  0  0  0  0  0  0  0  0  0  0
  161.2690  205.7840  148.0310 C   0  0  1  0  0  3  0  0  0  0  0  0
  161.6300  204.3710  146.0450 C   0  0  0  0  0  3  0  0  0  0  0  0
  160.8520  202.1230  150.3170 C   0  0  0  0  0  2  0  0  0  0  0  0
  160.7590  204.5890  150.1690 C   0  0  0  0  0  3  0  0  0  0  0  0
  160.4360  203.4720  150.8410 C   0  0  0  0  0  3  0  0  0  0  0  0
  161.6810  205.5830  146.6000 C   0  0  0  0  0  3  0  0  0  0  0  0
  160.7920  202.1070  148.8580 N   0  0  0  0  0  2  0  0  0  0  0  0
  161.5400  204.5330  148.8800 C   0  0  1  0  0  3  0  0  0  0  0  0
  161.1770  203.2720  148.1210 C   0  0  0  0  0  0  0  0  0  0  0  0
  159.9300  209.3850  153.0880 N   0  0  0  0  0  2  0  0  0  0  0  0
  160.0080  210.6950  152.5960 N   0  0  0  0  0  2  0  0  0  0  0  0
  159.9580  211.5870  153.7430 C   0  0  0  0  0  2  0  0  0  0  0  0
  159.3300  212.9140  153.3480 C   0  0  1  0  0  3  0  0  0  0  0  0
  158.5030  212.7680  152.0910 C   0  0  0  0  0  2  0  0  0  0  0  0
  157.4160  213.8140  152.2060 C   0  0  0  0  0  2  0  0  0  0  0  0
  158.3610  213.3660  154.4140 C   0  0  0  0  0  2  0  0  0  0  0  0
  157.2380  214.0880  153.6900 C   0  0  2  0  0  3  0  0  0  0  0  0
  154.6230  213.6760  153.1750 O   0  0  0  0  0  0  0  0  0  0  0  0
  155.6580  213.4770  154.2470 S   0  0  0  0  0  0  0  0  0  0  0  0
  155.7690  212.0140  154.5670 O   0  0  0  0  0  0  0  0  0  0  0  0
  155.1800  214.3350  155.6680 N   0  0  0  0  0  1  0  0  0  0  0  0
  1  2  1  0  0  0  0
  3  6  1  0  0  0  0
  4  3  2  0  0  0  0
  4  5  1  0  0  0  0
  5  1  2  0  0  0  0
  6 21  1  0  0  0  0
  6  2  2  0  0  0  0
  7 10  1  0  0  0  0
  7  9  1  0  0  0  0
  8 10  2  0  0  0  0
  9  4  1  1  0  0  0
 10  9  1  0  0  0  0
 11 20  2  0  0  0  0
 12 17  1  6  0  0  0
 12  7  1  0  0  0  0
 12 19  1  0  0  0  0
 13 17  2  0  0  0  0
 13 11  1  0  0  0  0
 14 16  1  0  0  0  0
 15 16  2  0  0  0  0
 18 14  1  0  0  0  0
 19 15  1  1  0  0  0
 20 18  1  0  0  0  0
 20 19  1  0  0  0  0
 22 21  1  0  0  0  0
 22 23  1  0  0  0  0
 24 23  1  1  0  0  0
 24 27  1  0  0  0  0
 25 26  1  0  0  0  0
 25 24  1  0  0  0  0
 26 28  1  0  0  0  0
 28 30  1  1  0  0  0
 28 27  1  0  0  0  0
 29 30  2  0  0  0  0
 30 31  2  0  0  0  0
 30 32  1  0  0  0  0
M  END
>  <MODEL>
2

>  <REMARK>
 VINA RESULT:      -7.8      3.570      9.823
  Name = 
  7 active torsions:
  status: ('A' for Active; 'I' for Inactive)
    1  A    between atoms: C_1  and  N_8
    2  A    between atoms: C_1  and  C_12
    3  A    between atoms: N_3  and  C_9
    4  A    between atoms: CA_7  and  C_13
    5  A    between atoms: N_8  and  N_32
    6  A    between atoms: S_16  and  C_29
    7  A    between atoms: C_18  and  N_32
                            x       y       z     vdW  Elec       q    Type
                         _______ _______ _______ _____ _____    ______ ____

>  <TORSDO>
F 7

$$$$
=
 OpenBabel11072410313D

 32 36  0  0  1  0  0  0  0  0999 V2000
  162.3360  209.7260  150.2830 C   0  0  0  0  0  3  0  0  0  0  0  0
  161.6850  210.7800  150.9270 C   0  0  0  0  0  3  0  0  0  0  0  0
  160.5270  209.1710  152.3040 C   0  0  0  0  0  3  0  0  0  0  0  0
  161.1780  208.1380  151.6240 C   0  0  0  0  0  0  0  0  0  0  0  0
  162.0770  208.4390  150.6450 N   0  0  0  0  0  0  0  0  0  0  0  0
  160.7760  210.5000  151.9490 C   0  0  0  0  0  0  0  0  0  0  0  0
  161.0620  205.8700  150.9250 N   0  0  0  0  0  0  0  0  0  0  0  0
  163.2090  205.6570  152.5520 O   0  0  0  0  0  0  0  0  0  0  0  0
  160.9260  206.7150  152.0290 C   0  0  1  0  0  3  0  0  0  0  0  0
  162.1030  205.9740  152.0420 C   0  0  0  0  0  0  0  0  0  0  0  0
  161.2560  204.6060  146.9590 N   0  0  0  0  0  0  0  0  0  0  0  0
  160.6610  205.3950  149.6100 C   0  0  1  0  0  3  0  0  0  0  0  0
  161.3240  205.9950  147.3140 C   0  0  0  0  0  3  0  0  0  0  0  0
  161.1820  201.2440  148.4680 C   0  0  0  0  0  2  0  0  0  0  0  0
  160.4900  202.9510  150.1170 C   0  0  0  0  0  3  0  0  0  0  0  0
  160.4590  201.6690  149.7180 C   0  0  0  0  0  3  0  0  0  0  0  0
  161.0870  206.3890  148.5670 C   0  0  0  0  0  3  0  0  0  0  0  0
  161.1060  202.2970  147.4580 N   0  0  0  0  0  2  0  0  0  0  0  0
  161.2410  204.0000  149.3350 C   0  0  1  0  0  3  0  0  0  0  0  0
  161.1840  203.6690  147.8570 C   0  0  0  0  0  0  0  0  0  0  0  0
  160.1040  211.5700  152.6150 N   0  0  0  0  0  2  0  0  0  0  0  0
  158.8800  211.3640  153.2660 N   0  0  0  0  0  2  0  0  0  0  0  0
  158.6750  212.4910  154.1610 C   0  0  0  0  0  2  0  0  0  0  0  0
  158.8910  212.0610  155.6020 C   0  0  1  0  0  3  0  0  0  0  0  0
  158.7030  210.5690  155.7560 C   0  0  0  0  0  2  0  0  0  0  0  0
  159.6010  210.1710  156.9070 C   0  0  0  0  0  2  0  0  0  0  0  0
  160.3200  212.3290  156.0150 C   0  0  0  0  0  2  0  0  0  0  0  0
  160.7000  211.2180  156.9780 C   0  0  2  0  0  3  0  0  0  0  0  0
  162.4860  210.6870  155.0280 O   0  0  0  0  0  0  0  0  0  0  0  0
  162.2650  210.5060  156.5040 S   0  0  0  0  0  0  0  0  0  0  0  0
  163.3730  211.1810  157.2600 O   0  0  0  0  0  0  0  0  0  0  0  0
  162.2660  208.8200  156.8800 N   0  0  0  0  0  1  0  0  0  0  0  0
  1  5  2  0  0  0  0
  1  2  1  0  0  0  0
  2  6  2  0  0  0  0
  4  3  2  0  0  0  0
  5  4  1  0  0  0  0
  6  3  1  0  0  0  0
  6 21  1  0  0  0  0
  7  9  1  0  0  0  0
  7 10  1  0  0  0  0
  9  4  1  6  0  0  0
  9 10  1  0  0  0  0
 10  8  2  0  0  0  0
 11 13  1  0  0  0  0
 11 20  2  0  0  0  0
 12 17  1  6  0  0  0
 12  7  1  0  0  0  0
 13 17  2  0  0  0  0
 14 16  1  0  0  0  0
 16 15  2  0  0  0  0
 18 20  1  0  0  0  0
 18 14  1  0  0  0  0
 19 12  1  0  0  0  0
 19 15  1  1  0  0  0
 20 19  1  0  0  0  0
 21 22  1  0  0  0  0
 22 23  1  0  0  0  0
 24 23  1  6  0  0  0
 24 25  1  0  0  0  0
 24 27  1  0  0  0  0
 25 26  1  0  0  0  0
 26 28  1  0  0  0  0
 27 28  1  0  0  0  0
 28 30  1  6  0  0  0
 29 30  2  0  0  0  0
 30 32  1  0  0  0  0
 30 31  2  0  0  0  0
M  END
>  <MODEL>
3

>  <REMARK>
 VINA RESULT:      -7.8      3.650      9.656
  Name = 
  7 active torsions:
  status: ('A' for Active; 'I' for Inactive)
    1  A    between atoms: C_1  and  N_8
    2  A    between atoms: C_1  and  C_12
    3  A    between atoms: N_3  and  C_9
    4  A    between atoms: CA_7  and  C_13
    5  A    between atoms: N_8  and  N_32
    6  A    between atoms: S_16  and  C_29
    7  A    between atoms: C_18  and  N_32
                            x       y       z     vdW  Elec       q    Type
                         _______ _______ _______ _____ _____    ______ ____

>  <TORSDO>
F 7

$$$$
=
 OpenBabel11072410313D

 32 36  0  0  1  0  0  0  0  0999 V2000
  161.9930  209.3590  150.4360 C   0  0  0  0  0  3  0  0  0  0  0  0
  161.6320  208.0520  150.1000 C   0  0  0  0  0  3  0  0  0  0  0  0
  161.2390  207.6030  152.4390 C   0  0  0  0  0  3  0  0  0  0  0  0
  161.6300  208.9090  152.7440 C   0  0  0  0  0  0  0  0  0  0  0  0
  161.9800  209.7590  151.7370 N   0  0  0  0  0  0  0  0  0  0  0  0
  161.2470  207.1680  151.1100 C   0  0  0  0  0  0  0  0  0  0  0  0
  160.5100  210.2380  154.3650 N   0  0  0  0  0  0  0  0  0  0  0  0
  159.9960  207.8130  155.4400 O   0  0  0  0  0  0  0  0  0  0  0  0
  161.5930  209.3760  154.1700 C   0  0  1  0  0  3  0  0  0  0  0  0
  160.5400  208.7930  154.8680 C   0  0  0  0  0  0  0  0  0  0  0  0
  157.7590  212.9510  152.8040 N   0  0  0  0  0  0  0  0  0  0  0  0
  159.7870  211.4740  154.1120 C   0  0  1  0  0  3  0  0  0  0  0  0
  158.9250  212.5490  152.0700 C   0  0  0  0  0  3  0  0  0  0  0  0
  155.9090  212.2150  155.9060 C   0  0  0  0  0  2  0  0  0  0  0  0
  158.2480  211.4330  156.0840 C   0  0  0  0  0  3  0  0  0  0  0  0
  157.1260  211.8310  156.7050 C   0  0  0  0  0  3  0  0  0  0  0  0
  159.8770  211.8180  152.6520 C   0  0  0  0  0  3  0  0  0  0  0  0
  156.3080  212.8900  154.6730 N   0  0  0  0  0  2  0  0  0  0  0  0
  158.3290  211.3580  154.5790 C   0  0  1  0  0  3  0  0  0  0  0  0
  157.4740  212.4510  153.9690 C   0  0  0  0  0  0  0  0  0  0  0  0
  160.8750  205.8300  150.7780 N   0  0  0  0  0  2  0  0  0  0  0  0
  160.7940  205.4100  149.4440 N   0  0  0  0  0  2  0  0  0  0  0  0
  160.7540  203.9570  149.4540 C   0  0  0  0  0  2  0  0  0  0  0  0
  161.5420  203.4020  148.2800 C   0  0  1  0  0  3  0  0  0  0  0  0
  160.7160  202.4110  147.4920 C   0  0  0  0  0  2  0  0  0  0  0  0
  161.2320  202.5020  146.0730 C   0  0  0  0  0  2  0  0  0  0  0  0
  161.8720  204.5110  147.3070 C   0  0  0  0  0  2  0  0  0  0  0  0
  161.8420  203.8850  145.9240 C   0  0  2  0  0  3  0  0  0  0  0  0
  161.7000  205.3830  143.6860 O   0  0  0  0  0  0  0  0  0  0  0  0
  160.8540  204.8820  144.8230 S   0  0  0  0  0  0  0  0  0  0  0  0
  159.7230  204.0590  144.2770 O   0  0  0  0  0  0  0  0  0  0  0  0
  160.2100  206.2290  145.6910 N   0  0  0  0  0  1  0  0  0  0  0  0
  1  5  1  0  0  0  0
  2  1  2  0  0  0  0
  2  6  1  0  0  0  0
  3  4  1  0  0  0  0
  5  4  2  0  0  0  0
  6  3  2  0  0  0  0
  7 10  1  0  0  0  0
  9  4  1  6  0  0  0
  9  7  1  0  0  0  0
  9 10  1  0  0  0  0
 10  8  2  0  0  0  0
 11 20  2  0  0  0  0
 12 17  1  6  0  0  0
 12  7  1  0  0  0  0
 12 19  1  0  0  0  0
 13 17  2  0  0  0  0
 13 11  1  0  0  0  0
 14 16  1  0  0  0  0
 15 16  2  0  0  0  0
 18 14  1  0  0  0  0
 19 15  1  1  0  0  0
 20 19  1  0  0  0  0
 20 18  1  0  0  0  0
 21  6  1  0  0  0  0
 22 23  1  0  0  0  0
 22 21  1  0  0  0  0
 24 23  1  1  0  0  0
 25 24  1  0  0  0  0
 26 25  1  0  0  0  0
 27 24  1  0  0  0  0
 28 30  1  6  0  0  0
 28 26  1  0  0  0  0
 28 27  1  0  0  0  0
 29 30  2  0  0  0  0
 30 32  1  0  0  0  0
 31 30  2  0  0  0  0
M  END
>  <MODEL>
4

>  <REMARK>
 VINA RESULT:      -7.6      1.574      2.835
  Name = 
  7 active torsions:
  status: ('A' for Active; 'I' for Inactive)
    1  A    between atoms: C_1  and  N_8
    2  A    between atoms: C_1  and  C_12
    3  A    between atoms: N_3  and  C_9
    4  A    between atoms: CA_7  and  C_13
    5  A    between atoms: N_8  and  N_32
    6  A    between atoms: S_16  and  C_29
    7  A    between atoms: C_18  and  N_32
                            x       y       z     vdW  Elec       q    Type
                         _______ _______ _______ _____ _____    ______ ____

>  <TORSDO>
F 7

$$$$
=
 OpenBabel11072410313D

 32 36  0  0  1  0  0  0  0  0999 V2000
  161.9600  206.2090  152.9850 C   0  0  0  0  0  3  0  0  0  0  0  0
  161.1580  207.2260  153.5080 C   0  0  0  0  0  3  0  0  0  0  0  0
  161.4560  208.4600  151.4550 C   0  0  0  0  0  3  0  0  0  0  0  0
  162.2740  207.4350  150.9710 C   0  0  0  0  0  0  0  0  0  0  0  0
  162.4910  206.3300  151.7380 N   0  0  0  0  0  0  0  0  0  0  0  0
  160.9000  208.3590  152.7340 C   0  0  0  0  0  0  0  0  0  0  0  0
  161.9720  206.9550  148.6640 N   0  0  0  0  0  0  0  0  0  0  0  0
  161.8470  209.6500  148.5110 O   0  0  0  0  0  0  0  0  0  0  0  0
  162.8440  207.5390  149.5870 C   0  0  1  0  0  3  0  0  0  0  0  0
  162.1470  208.4670  148.8190 C   0  0  0  0  0  0  0  0  0  0  0  0
  161.2110  203.2760  146.8610 N   0  0  0  0  0  0  0  0  0  0  0  0
  161.2600  205.8150  148.1090 C   0  0  1  0  0  3  0  0  0  0  0  0
  161.5770  204.4320  146.0940 C   0  0  0  0  0  3  0  0  0  0  0  0
  160.8520  202.1200  150.3420 C   0  0  0  0  0  2  0  0  0  0  0  0
  160.7750  204.5890  150.2350 C   0  0  0  0  0  3  0  0  0  0  0  0
  160.4550  203.4640  150.8940 C   0  0  0  0  0  3  0  0  0  0  0  0
  161.6460  205.6350  146.6680 C   0  0  0  0  0  3  0  0  0  0  0  0
  160.7680  202.1290  148.8840 N   0  0  0  0  0  2  0  0  0  0  0  0
  161.5350  204.5480  148.9330 C   0  0  1  0  0  3  0  0  0  0  0  0
  161.1500  203.3030  148.1590 C   0  0  0  0  0  0  0  0  0  0  0  0
  160.0810  209.4050  153.2580 N   0  0  0  0  0  2  0  0  0  0  0  0
  160.0450  209.6780  154.6320 N   0  0  0  0  0  2  0  0  0  0  0  0
  160.7200  210.9500  154.8330 C   0  0  0  0  0  2  0  0  0  0  0  0
  160.0520  211.7260  155.9560 C   0  0  1  0  0  3  0  0  0  0  0  0
  159.7060  213.1290  155.5140 C   0  0  0  0  0  2  0  0  0  0  0  0
  158.4900  213.5140  156.3260 C   0  0  0  0  0  2  0  0  0  0  0  0
  158.7330  211.0830  156.3170 C   0  0  0  0  0  2  0  0  0  0  0  0
  157.8040  212.2160  156.7160 C   0  0  2  0  0  3  0  0  0  0  0  0
  156.4740  211.5710  154.4600 O   0  0  0  0  0  0  0  0  0  0  0  0
  156.2450  212.0580  155.8640 S   0  0  0  0  0  0  0  0  0  0  0  0
  155.3700  211.0800  156.5940 O   0  0  0  0  0  0  0  0  0  0  0  0
  155.4600  213.5960  155.8130 N   0  0  0  0  0  1  0  0  0  0  0  0
  1  2  1  0  0  0  0
  3  6  1  0  0  0  0
  4  3  2  0  0  0  0
  4  5  1  0  0  0  0
  5  1  2  0  0  0  0
  6 21  1  0  0  0  0
  6  2  2  0  0  0  0
  7 10  1  0  0  0  0
  7  9  1  0  0  0  0
  8 10  2  0  0  0  0
  9  4  1  1  0  0  0
 10  9  1  0  0  0  0
 11 20  2  0  0  0  0
 12 17  1  6  0  0  0
 12  7  1  0  0  0  0
 12 19  1  0  0  0  0
 13 17  2  0  0  0  0
 13 11  1  0  0  0  0
 14 16  1  0  0  0  0
 15 16  2  0  0  0  0
 18 14  1  0  0  0  0
 19 15  1  1  0  0  0
 20 18  1  0  0  0  0
 20 19  1  0  0  0  0
 21 22  1  0  0  0  0
 22 23  1  0  0  0  0
 24 23  1  6  0  0  0
 24 27  1  0  0  0  0
 25 24  1  0  0  0  0
 25 26  1  0  0  0  0
 26 28  1  0  0  0  0
 27 28  1  0  0  0  0
 28 30  1  6  0  0  0
 29 30  2  0  0  0  0
 30 31  2  0  0  0  0
 32 30  1  0  0  0  0
M  END
>  <MODEL>
5

>  <REMARK>
 VINA RESULT:      -7.6      3.560     10.015
  Name = 
  7 active torsions:
  status: ('A' for Active; 'I' for Inactive)
    1  A    between atoms: C_1  and  N_8
    2  A    between atoms: C_1  and  C_12
    3  A    between atoms: N_3  and  C_9
    4  A    between atoms: CA_7  and  C_13
    5  A    between atoms: N_8  and  N_32
    6  A    between atoms: S_16  and  C_29
    7  A    between atoms: C_18  and  N_32
                            x       y       z     vdW  Elec       q    Type
                         _______ _______ _______ _____ _____    ______ ____

>  <TORSDO>
F 7

$$$$
=
 OpenBabel11072410313D

 32 36  0  0  1  0  0  0  0  0999 V2000
  161.1800  210.5930  152.5890 C   0  0  0  0  0  3  0  0  0  0  0  0
  161.0930  209.4670  151.7660 C   0  0  0  0  0  3  0  0  0  0  0  0
  161.0870  208.0760  153.7380 C   0  0  0  0  0  3  0  0  0  0  0  0
  161.1980  209.2210  154.5330 C   0  0  0  0  0  0  0  0  0  0  0  0
  161.2240  210.4480  153.9420 N   0  0  0  0  0  0  0  0  0  0  0  0
  161.0410  208.1990  152.3460 C   0  0  0  0  0  0  0  0  0  0  0  0
  160.1860  209.8340  156.5930 N   0  0  0  0  0  0  0  0  0  0  0  0
  159.5790  207.2010  156.6390 O   0  0  0  0  0  0  0  0  0  0  0  0
  161.2190  209.0820  156.0270 C   0  0  1  0  0  3  0  0  0  0  0  0
  160.1560  208.3070  156.4800 C   0  0  0  0  0  0  0  0  0  0  0  0
  159.0940  213.8510  156.4110 N   0  0  0  0  0  0  0  0  0  0  0  0
  159.5200  211.0940  156.8820 C   0  0  1  0  0  3  0  0  0  0  0  0
  160.3000  213.4240  157.0600 C   0  0  0  0  0  3  0  0  0  0  0  0
  156.3110  212.5660  154.3650 C   0  0  0  0  0  2  0  0  0  0  0  0
  157.4100  210.7220  155.5910 C   0  0  0  0  0  3  0  0  0  0  0  0
  156.3110  211.1910  154.9780 C   0  0  0  0  0  3  0  0  0  0  0  0
  160.5440  212.1270  157.2590 C   0  0  0  0  0  3  0  0  0  0  0  0
  157.1070  213.4820  155.1790 N   0  0  0  0  0  2  0  0  0  0  0  0
  158.6690  211.5460  155.6870 C   0  0  1  0  0  3  0  0  0  0  0  0
  158.3080  213.0140  155.8020 C   0  0  0  0  0  0  0  0  0  0  0  0
  160.9510  207.0410  151.5160 N   0  0  0  0  0  2  0  0  0  0  0  0
  161.1340  207.1280  150.1290 N   0  0  0  0  0  2  0  0  0  0  0  0
  160.5550  205.9300  149.5440 C   0  0  0  0  0  2  0  0  0  0  0  0
  161.5750  205.2320  148.6600 C   0  0  1  0  0  3  0  0  0  0  0  0
  161.1120  203.8400  148.2950 C   0  0  0  0  0  2  0  0  0  0  0  0
  161.7310  203.5560  146.9440 C   0  0  0  0  0  2  0  0  0  0  0  0
  161.7110  205.9660  147.3460 C   0  0  0  0  0  2  0  0  0  0  0  0
  161.9820  204.9050  146.2930 C   0  0  2  0  0  3  0  0  0  0  0  0
  159.8410  206.1550  145.2320 O   0  0  0  0  0  0  0  0  0  0  0  0
  160.8930  205.1330  144.9000 S   0  0  0  0  0  0  0  0  0  0  0  0
  161.6860  205.6020  143.7130 O   0  0  0  0  0  0  0  0  0  0  0  0
  160.1300  203.6320  144.5170 N   0  0  0  0  0  1  0  0  0  0  0  0
  1  5  1  0  0  0  0
  2  6  1  0  0  0  0
  2  1  2  0  0  0  0
  3  4  1  0  0  0  0
  5  4  2  0  0  0  0
  6  3  2  0  0  0  0
  9  4  1  6  0  0  0
  9 10  1  0  0  0  0
  9  7  1  0  0  0  0
 10  7  1  0  0  0  0
 10  8  2  0  0  0  0
 11 13  1  0  0  0  0
 12  7  1  6  0  0  0
 12 17  1  0  0  0  0
 13 17  2  0  0  0  0
 14 16  1  0  0  0  0
 14 18  1  0  0  0  0
 16 15  2  0  0  0  0
 18 20  1  0  0  0  0
 19 15  1  1  0  0  0
 19 20  1  0  0  0  0
 19 12  1  0  0  0  0
 20 11  2  0  0  0  0
 21  6  1  0  0  0  0
 22 21  1  0  0  0  0
 23 22  1  0  0  0  0
 24 23  1  1  0  0  0
 25 24  1  0  0  0  0
 26 25  1  0  0  0  0
 27 24  1  0  0  0  0
 28 30  1  6  0  0  0
 28 26  1  0  0  0  0
 28 27  1  0  0  0  0
 30 29  2  0  0  0  0
 31 30  2  0  0  0  0
 32 30  1  0  0  0  0
M  END
>  <MODEL>
6

>  <REMARK>
 VINA RESULT:      -7.5      1.679      2.421
  Name = 
  7 active torsions:
  status: ('A' for Active; 'I' for Inactive)
    1  A    between atoms: C_1  and  N_8
    2  A    between atoms: C_1  and  C_12
    3  A    between atoms: N_3  and  C_9
    4  A    between atoms: CA_7  and  C_13
    5  A    between atoms: N_8  and  N_32
    6  A    between atoms: S_16  and  C_29
    7  A    between atoms: C_18  and  N_32
                            x       y       z     vdW  Elec       q    Type
                         _______ _______ _______ _____ _____    ______ ____

>  <TORSDO>
F 7

$$$$
=
 OpenBabel11072410313D

 32 36  0  0  1  0  0  0  0  0999 V2000
  160.9350  206.9820  154.1630 C   0  0  0  0  0  3  0  0  0  0  0  0
  161.2110  206.5480  152.8640 C   0  0  0  0  0  3  0  0  0  0  0  0
  161.5400  208.8470  152.2080 C   0  0  0  0  0  3  0  0  0  0  0  0
  161.2360  209.2510  153.5110 C   0  0  0  0  0  0  0  0  0  0  0  0
  160.9590  208.3110  154.4580 N   0  0  0  0  0  0  0  0  0  0  0  0
  161.5210  207.4880  151.8800 C   0  0  0  0  0  0  0  0  0  0  0  0
  160.0450  211.1280  154.3480 N   0  0  0  0  0  0  0  0  0  0  0  0
  161.8190  210.8710  156.3700 O   0  0  0  0  0  0  0  0  0  0  0  0
  161.2860  210.7090  153.8610 C   0  0  1  0  0  3  0  0  0  0  0  0
  161.2690  210.9010  155.2390 C   0  0  0  0  0  0  0  0  0  0  0  0
  156.2890  212.8920  154.7270 N   0  0  0  0  0  0  0  0  0  0  0  0
  158.6210  211.3810  154.1950 C   0  0  1  0  0  3  0  0  0  0  0  0
  156.8410  212.0600  155.7580 C   0  0  0  0  0  3  0  0  0  0  0  0
  157.1620  214.4530  151.5050 C   0  0  0  0  0  2  0  0  0  0  0  0
  158.6710  212.5540  151.9860 C   0  0  0  0  0  3  0  0  0  0  0  0
  158.1070  213.3620  151.0740 C   0  0  0  0  0  3  0  0  0  0  0  0
  157.9620  211.3680  155.5460 C   0  0  0  0  0  3  0  0  0  0  0  0
  156.3580  214.0040  152.6390 N   0  0  0  0  0  2  0  0  0  0  0  0
  158.3790  212.7060  153.4580 C   0  0  1  0  0  3  0  0  0  0  0  0
  156.9520  213.1810  153.6470 C   0  0  0  0  0  0  0  0  0  0  0  0
  161.8050  207.0560  150.5490 N   0  0  0  0  0  2  0  0  0  0  0  0
  160.9330  207.3460  149.4910 N   0  0  0  0  0  2  0  0  0  0  0  0
  160.3930  206.0800  149.0210 C   0  0  0  0  0  2  0  0  0  0  0  0
  161.2000  204.9240  149.5870 C   0  0  1  0  0  3  0  0  0  0  0  0
  160.3430  204.0460  150.4700 C   0  0  0  0  0  2  0  0  0  0  0  0
  160.9450  202.6620  150.3600 C   0  0  0  0  0  2  0  0  0  0  0  0
  161.6730  204.0260  148.4670 C   0  0  0  0  0  2  0  0  0  0  0  0
  161.6720  202.6140  149.0260 C   0  0  2  0  0  3  0  0  0  0  0  0
  161.5230  200.1770  147.8800 O   0  0  0  0  0  0  0  0  0  0  0  0
  160.8320  201.5120  147.9030 S   0  0  0  0  0  0  0  0  0  0  0  0
  159.4090  201.3290  148.3470 O   0  0  0  0  0  0  0  0  0  0  0  0
  160.8490  202.1900  146.3140 N   0  0  0  0  0  1  0  0  0  0  0  0
  1  5  1  0  0  0  0
  2  1  2  0  0  0  0
  3  4  1  0  0  0  0
  4  5  2  0  0  0  0
  6  3  2  0  0  0  0
  6  2  1  0  0  0  0
  7 10  1  0  0  0  0
  9  4  1  1  0  0  0
  9  7  1  0  0  0  0
  9 10  1  0  0  0  0
 10  8  2  0  0  0  0
 11 13  1  0  0  0  0
 12  7  1  1  0  0  0
 12 17  1  0  0  0  0
 14 18  1  0  0  0  0
 16 14  1  0  0  0  0
 16 15  2  0  0  0  0
 17 13  2  0  0  0  0
 18 20  1  0  0  0  0
 19 15  1  6  0  0  0
 19 20  1  0  0  0  0
 19 12  1  0  0  0  0
 20 11  2  0  0  0  0
 21  6  1  0  0  0  0
 22 21  1  0  0  0  0
 23 22  1  0  0  0  0
 24 23  1  6  0  0  0
 24 25  1  0  0  0  0
 26 25  1  0  0  0  0
 27 28  1  0  0  0  0
 27 24  1  0  0  0  0
 28 30  1  6  0  0  0
 28 26  1  0  0  0  0
 29 30  2  0  0  0  0
 30 31  2  0  0  0  0
 32 30  1  0  0  0  0
M  END
>  <MODEL>
7

>  <REMARK>
 VINA RESULT:      -7.4      1.995      2.243
  Name = 
  7 active torsions:
  status: ('A' for Active; 'I' for Inactive)
    1  A    between atoms: C_1  and  N_8
    2  A    between atoms: C_1  and  C_12
    3  A    between atoms: N_3  and  C_9
    4  A    between atoms: CA_7  and  C_13
    5  A    between atoms: N_8  and  N_32
    6  A    between atoms: S_16  and  C_29
    7  A    between atoms: C_18  and  N_32
                            x       y       z     vdW  Elec       q    Type
                         _______ _______ _______ _____ _____    ______ ____

>  <TORSDO>
F 7

$$$$
=
 OpenBabel11072410313D

 32 36  0  0  1  0  0  0  0  0999 V2000
  159.9930  207.6940  156.1560 C   0  0  0  0  0  3  0  0  0  0  0  0
  160.4760  206.7530  155.2440 C   0  0  0  0  0  3  0  0  0  0  0  0
  161.4340  208.5540  153.9550 C   0  0  0  0  0  3  0  0  0  0  0  0
  160.9180  209.4720  154.8730 C   0  0  0  0  0  0  0  0  0  0  0  0
  160.2270  209.0200  155.9580 N   0  0  0  0  0  0  0  0  0  0  0  0
  161.2060  207.1870  154.1360 C   0  0  0  0  0  0  0  0  0  0  0  0
  159.9890  211.6300  154.5200 N   0  0  0  0  0  0  0  0  0  0  0  0
  160.9920  212.0480  156.9940 O   0  0  0  0  0  0  0  0  0  0  0  0
  161.1910  210.9350  154.6860 C   0  0  1  0  0  3  0  0  0  0  0  0
  160.8170  211.6700  155.8070 C   0  0  0  0  0  0  0  0  0  0  0  0
  156.6300  213.6600  153.1220 N   0  0  0  0  0  0  0  0  0  0  0  0
  158.7660  211.9310  153.7930 C   0  0  1  0  0  3  0  0  0  0  0  0
  156.6510  213.0330  154.4120 C   0  0  0  0  0  3  0  0  0  0  0  0
  158.8160  214.4460  150.2610 C   0  0  0  0  0  2  0  0  0  0  0  0
  159.7730  212.6040  151.6040 C   0  0  0  0  0  3  0  0  0  0  0  0
  159.6950  213.2340  150.4200 C   0  0  0  0  0  3  0  0  0  0  0  0
  157.6670  212.2450  154.7680 C   0  0  0  0  0  3  0  0  0  0  0  0
  157.6020  214.2990  151.0600 N   0  0  0  0  0  2  0  0  0  0  0  0
  158.9920  213.0830  152.8020 C   0  0  1  0  0  3  0  0  0  0  0  0
  157.6720  213.6730  152.3460 C   0  0  0  0  0  0  0  0  0  0  0  0
  161.7050  206.2340  153.1970 N   0  0  0  0  0  2  0  0  0  0  0  0
  161.9950  206.6020  151.8760 N   0  0  0  0  0  2  0  0  0  0  0  0
  160.9050  206.1170  151.0460 C   0  0  0  0  0  2  0  0  0  0  0  0
  160.9250  206.8130  149.6960 C   0  0  1  0  0  3  0  0  0  0  0  0
  162.3330  207.1990  149.3060 C   0  0  0  0  0  2  0  0  0  0  0  0
  162.3490  207.1710  147.7930 C   0  0  0  0  0  2  0  0  0  0  0  0
  160.4560  205.8650  148.6170 C   0  0  0  0  0  2  0  0  0  0  0  0
  161.2450  206.2190  147.3680 C   0  0  2  0  0  3  0  0  0  0  0  0
  163.4140  204.9340  146.4100 O   0  0  0  0  0  0  0  0  0  0  0  0
  161.9410  204.7450  146.6460 S   0  0  0  0  0  0  0  0  0  0  0  0
  161.7320  203.5830  147.5750 O   0  0  0  0  0  0  0  0  0  0  0  0
  161.1590  204.4180  145.1410 N   0  0  0  0  0  1  0  0  0  0  0  0
  2  1  2  0  0  0  0
  3  6  2  0  0  0  0
  3  4  1  0  0  0  0
  4  5  2  0  0  0  0
  5  1  1  0  0  0  0
  6  2  1  0  0  0  0
  7  9  1  0  0  0  0
  7 10  1  0  0  0  0
  9  4  1  1  0  0  0
  9 10  1  0  0  0  0
 10  8  2  0  0  0  0
 11 13  1  0  0  0  0
 12  7  1  1  0  0  0
 12 17  1  0  0  0  0
 13 17  2  0  0  0  0
 14 16  1  0  0  0  0
 14 18  1  0  0  0  0
 16 15  2  0  0  0  0
 18 20  1  0  0  0  0
 19 15  1  6  0  0  0
 19 12  1  0  0  0  0
 20 19  1  0  0  0  0
 20 11  2  0  0  0  0
 21  6  1  0  0  0  0
 22 21  1  0  0  0  0
 23 22  1  0  0  0  0
 24 23  1  1  0  0  0
 25 24  1  0  0  0  0
 26 25  1  0  0  0  0
 27 24  1  0  0  0  0
 28 30  1  1  0  0  0
 28 26  1  0  0  0  0
 28 27  1  0  0  0  0
 29 30  2  0  0  0  0
 30 31  2  0  0  0  0
 32 30  1  0  0  0  0
M  END
>  <MODEL>
8

>  <REMARK>
 VINA RESULT:      -7.4      1.582      2.072
  Name = 
  7 active torsions:
  status: ('A' for Active; 'I' for Inactive)
    1  A    between atoms: C_1  and  N_8
    2  A    between atoms: C_1  and  C_12
    3  A    between atoms: N_3  and  C_9
    4  A    between atoms: CA_7  and  C_13
    5  A    between atoms: N_8  and  N_32
    6  A    between atoms: S_16  and  C_29
    7  A    between atoms: C_18  and  N_32
                            x       y       z     vdW  Elec       q    Type
                         _______ _______ _______ _____ _____    ______ ____

>  <TORSDO>
F 7

$$$$
=
 OpenBabel11072410313D

 32 36  0  0  1  0  0  0  0  0999 V2000
  162.7830  204.9290  152.0270 C   0  0  0  0  0  3  0  0  0  0  0  0
  162.0530  203.7650  151.7750 C   0  0  0  0  0  3  0  0  0  0  0  0
  160.4870  205.0740  150.4870 C   0  0  0  0  0  3  0  0  0  0  0  0
  161.2260  206.2240  150.7770 C   0  0  0  0  0  0  0  0  0  0  0  0
  162.3620  206.1210  151.5230 N   0  0  0  0  0  0  0  0  0  0  0  0
  160.8980  203.8370  150.9940 C   0  0  0  0  0  0  0  0  0  0  0  0
  161.2790  208.5890  150.9940 N   0  0  0  0  0  0  0  0  0  0  0  0
  162.7030  208.3850  148.7070 O   0  0  0  0  0  0  0  0  0  0  0  0
  160.7940  207.5420  150.2060 C   0  0  1  0  0  3  0  0  0  0  0  0
  161.8620  208.2200  149.6280 C   0  0  0  0  0  0  0  0  0  0  0  0
  160.1740  210.9430  154.2510 N   0  0  0  0  0  0  0  0  0  0  0  0
  161.3500  209.3370  152.2390 C   0  0  1  0  0  3  0  0  0  0  0  0
  160.4550  211.5150  152.9650 C   0  0  0  0  0  3  0  0  0  0  0  0
  159.8020  207.6880  155.9390 C   0  0  0  0  0  2  0  0  0  0  0  0
  161.0940  207.4370  153.8470 C   0  0  0  0  0  3  0  0  0  0  0  0
  160.7940  206.9650  155.0670 C   0  0  0  0  0  3  0  0  0  0  0  0
  160.9720  210.7690  151.9870 C   0  0  0  0  0  3  0  0  0  0  0  0
  159.9260  209.1320  155.7540 N   0  0  0  0  0  2  0  0  0  0  0  0
  160.4570  208.6950  153.3120 C   0  0  1  0  0  3  0  0  0  0  0  0
  160.1990  209.6590  154.4520 C   0  0  0  0  0  0  0  0  0  0  0  0
  160.1440  202.6540  150.7290 N   0  0  0  0  0  2  0  0  0  0  0  0
  160.6490  201.6440  149.8990 N   0  0  0  0  0  2  0  0  0  0  0  0
  159.9020  201.6990  148.6530 C   0  0  0  0  0  2  0  0  0  0  0  0
  160.8540  201.8440  147.4780 C   0  0  1  0  0  3  0  0  0  0  0  0
  160.0950  201.9320  146.1740 C   0  0  0  0  0  2  0  0  0  0  0  0
  160.9670  202.7660  145.2610 C   0  0  0  0  0  2  0  0  0  0  0  0
  161.6170  203.1450  147.5860 C   0  0  0  0  0  2  0  0  0  0  0  0
  161.8320  203.6300  146.1630 C   0  0  2  0  0  3  0  0  0  0  0  0
  160.5090  205.7390  147.1980 O   0  0  0  0  0  0  0  0  0  0  0  0
  161.3570  205.3430  146.0220 S   0  0  0  0  0  0  0  0  0  0  0  0
  162.5860  206.2050  145.9820 O   0  0  0  0  0  0  0  0  0  0  0  0
  160.4560  205.5710  144.5660 N   0  0  0  0  0  1  0  0  0  0  0  0
  2  1  1  0  0  0  0
  3  4  2  0  0  0  0
  3  6  1  0  0  0  0
  4  5  1  0  0  0  0
  5  1  2  0  0  0  0
  6  2  2  0  0  0  0
  8 10  2  0  0  0  0
  9  4  1  1  0  0  0
  9  7  1  0  0  0  0
 10  9  1  0  0  0  0
 10  7  1  0  0  0  0
 11 20  2  0  0  0  0
 12  7  1  6  0  0  0
 12 19  1  0  0  0  0
 13 11  1  0  0  0  0
 15 16  2  0  0  0  0
 16 14  1  0  0  0  0
 17 12  1  0  0  0  0
 17 13  2  0  0  0  0
 18 14  1  0  0  0  0
 19 15  1  1  0  0  0
 19 20  1  0  0  0  0
 20 18  1  0  0  0  0
 21  6  1  0  0  0  0
 22 21  1  0  0  0  0
 23 22  1  0  0  0  0
 24 27  1  0  0  0  0
 24 23  1  1  0  0  0
 25 24  1  0  0  0  0
 26 28  1  0  0  0  0
 26 25  1  0  0  0  0
 28 30  1  1  0  0  0
 28 27  1  0  0  0  0
 30 29  2  0  0  0  0
 31 30  2  0  0  0  0
 32 30  1  0  0  0  0
M  END
>  <MODEL>
9

>  <REMARK>
 VINA RESULT:      -7.4      2.968      4.937
  Name = 
  7 active torsions:
  status: ('A' for Active; 'I' for Inactive)
    1  A    between atoms: C_1  and  N_8
    2  A    between atoms: C_1  and  C_12
    3  A    between atoms: N_3  and  C_9
    4  A    between atoms: CA_7  and  C_13
    5  A    between atoms: N_8  and  N_32
    6  A    between atoms: S_16  and  C_29
    7  A    between atoms: C_18  and  N_32
                            x       y       z     vdW  Elec       q    Type
                         _______ _______ _______ _____ _____    ______ ____

>  <TORSDO>
F 7

$$$$
