=
 OpenBabel11072411573D

 60 64  0  0  1  0  0  0  0  0999 V2000
  162.0350  211.4630  148.5850 C   0  0  2  0  0  3  0  0  0  0  0  0
  160.1690  212.5020  147.1280 C   0  0  0  0  0  0  0  0  0  0  0  0
  159.0440  213.0700  147.1070 O   0  0  0  0  0  0  0  0  0  0  0  0
  162.9650  210.5570  150.7940 O   0  0  0  0  0  1  0  0  0  0  0  0
  160.7870  212.1950  148.3830 N   0  0  0  0  0  0  0  0  0  0  0  0
  160.1540  212.3640  149.5880 O   0  0  0  0  0  0  0  0  0  0  0  0
  160.9100  211.7850  150.5860 C   0  0  0  0  0  0  0  0  0  0  0  0
  162.0010  211.2440  150.0660 C   0  0  0  0  0  0  0  0  0  0  0  0
  163.2190  212.3470  148.2320 C   0  0  0  0  0  1  0  0  0  0  0  0
  160.5220  211.7510  152.0270 C   0  0  0  0  0  2  0  0  0  0  0  0
  160.8150  207.7070  153.4690 C   0  0  0  0  0  0  0  0  0  0  0  0
  161.1090  208.0120  152.1330 C   0  0  0  0  0  0  0  0  0  0  0  0
  161.0120  209.3340  151.6870 C   0  0  0  0  0  3  0  0  0  0  0  0
  160.4520  208.7260  154.3530 C   0  0  0  0  0  3  0  0  0  0  0  0
  160.6380  210.3580  152.5660 C   0  0  0  0  0  0  0  0  0  0  0  0
  160.8820  206.3970  153.9300 O   0  0  0  0  0  1  0  0  0  0  0  0
  160.3640  210.0530  153.9180 C   0  0  0  0  0  0  0  0  0  0  0  0
  160.4290  210.6880  156.2750 N   0  0  0  0  0  0  0  0  0  0  0  0
  161.6380  211.4280  156.5890 C   0  0  0  0  0  1  0  0  0  0  0  0
  158.5740  211.3590  154.9380 N   0  0  0  0  0  0  0  0  0  0  0  0
  159.3970  211.1710  157.1720 C   0  0  0  0  0  2  0  0  0  0  0  0
  160.0080  211.0950  154.9420 C   0  0  2  0  0  3  0  0  0  0  0  0
  158.2250  211.6070  156.3230 C   0  0  0  0  0  2  0  0  0  0  0  0
  158.3200  212.8750  154.0650 S   0  0  0  0  0  0  0  0  0  0  0  0
  157.0700  213.4610  155.2530 C   0  0  0  0  0  2  0  0  0  0  0  0
  155.6770  213.2310  154.7010 C   0  0  0  0  0  1  0  0  0  0  0  0
  161.5270  206.9420  151.1740 C   0  0  0  0  0  2  0  0  0  0  0  0
  161.7370  207.4980  149.7700 C   0  0  0  0  0  2  0  0  0  0  0  0
  159.8680  206.5180  148.0550 O   0  0  0  0  0  0  0  0  0  0  0  0
  161.4130  204.7290  149.1820 O   0  0  0  0  0  1  0  0  0  0  0  0
  161.2930  206.2710  148.5010 P   0  0  2  0  0  0  0  0  0  0  0  0
  162.3670  206.4420  147.1910 O   0  0  0  0  0  0  0  0  0  0  0  0
  161.4380  205.4330  144.8060 O   0  0  0  0  0  0  0  0  0  0  0  0
  162.2530  205.0370  146.2300 P   0  0  0  0  0  0  0  0  0  0  0  0
  163.7930  204.4620  145.8230 O   0  0  0  0  0  1  0  0  0  0  0  0
  161.4780  203.9500  146.9450 O   0  0  0  0  0  1  0  0  0  0  0  0
  160.8450  212.1780  145.8400 C   0  0  0  0  0  2  0  0  0  0  0  0
  159.8620  212.3200  144.6930 C   0  0  0  0  0  2  0  0  0  0  0  0
  162.0200  212.7660  141.8800 N   0  0  0  0  0  0  0  0  0  0  0  0
  160.6760  212.4410  142.3680 C   0  0  1  0  0  3  0  0  0  0  0  0
  162.7600  213.1410  143.0200 N   0  0  0  0  0  2  0  0  0  0  0  0
  161.8240  213.6710  144.0110 C   0  0  0  0  0  2  0  0  0  0  0  0
  160.4330  213.2320  143.6240 C   0  0  2  0  0  3  0  0  0  0  0  0
  158.5860  213.5000  141.4470 C   0  0  0  0  0  3  0  0  0  0  0  0
  158.5350  211.7890  139.2500 C   0  0  0  0  0  3  0  0  0  0  0  0
  157.5860  213.6320  140.4840 C   0  0  0  0  0  3  0  0  0  0  0  0
  157.5620  212.7780  139.3830 C   0  0  0  0  0  3  0  0  0  0  0  0
  159.5490  211.6310  140.2110 C   0  0  0  0  0  0  0  0  0  0  0  0
  159.5720  212.5050  141.3310 C   0  0  0  0  0  0  0  0  0  0  0  0
  161.3200  210.1910  140.9270 O   0  0  0  0  0  0  0  0  0  0  0  0
  160.5400  210.5460  140.0010 C   0  0  0  0  0  0  0  0  0  0  0  0
  160.5980  209.8780  138.7350 N   0  0  0  0  0  2  0  0  0  0  0  0
  161.5080  208.7740  138.4680 C   0  0  0  0  0  2  0  0  0  0  0  0
  161.4620  207.7760  139.6110 C   0  0  0  0  0  1  0  0  0  0  0  0
  162.0180  213.9160  140.9730 C   0  0  0  0  0  2  0  0  0  0  0  0
  163.1040  213.7740  139.9590 C   0  0  0  0  0  0  0  0  0  0  0  0
  164.1760  214.3330  140.1310 O   0  0  0  0  0  0  0  0  0  0  0  0
  163.1800  213.7270  137.4830 C   0  0  0  0  0  1  0  0  0  0  0  0
  163.6990  211.6700  138.7840 C   0  0  0  0  0  1  0  0  0  0  0  0
  162.8630  212.9380  138.7410 C   0  0  0  0  0  3  0  0  0  0  0  0
  1  9  1  1  0  0  0
  1  8  1  0  0  0  0
  2  5  1  0  0  0  0
  3  2  2  0  0  0  0
  5  1  1  0  0  0  0
  5  6  1  0  0  0  0
  6  7  1  0  0  0  0
  7 10  1  0  0  0  0
  8  7  2  0  0  0  0
  8  4  1  0  0  0  0
 10 15  1  0  0  0  0
 11 16  1  0  0  0  0
 11 14  1  0  0  0  0
 12 11  2  0  0  0  0
 13 12  1  0  0  0  0
 13 15  2  0  0  0  0
 15 17  1  0  0  0  0
 17 14  2  0  0  0  0
 18 19  1  0  0  0  0
 18 21  1  0  0  0  0
 20 22  1  0  0  0  0
 20 23  1  0  0  0  0
 22 17  1  6  0  0  0
 22 18  1  0  0  0  0
 23 21  1  0  0  0  0
 24 20  1  0  0  0  0
 24 25  1  0  0  0  0
 26 25  1  0  0  0  0
 27 12  1  0  0  0  0
 28 27  1  0  0  0  0
 31 29  2  6  0  0  0
 31 30  1  0  0  0  0
 31 28  1  0  0  0  0
 32 31  1  0  0  0  0
 33 34  2  0  0  0  0
 34 36  1  0  0  0  0
 34 32  1  0  0  0  0
 35 34  1  0  0  0  0
 37  2  1  0  0  0  0
 38 37  1  0  0  0  0
 39 40  1  0  0  0  0
 39 41  1  0  0  0  0
 40 49  1  6  0  0  0
 40 43  1  0  0  0  0
 41 42  1  0  0  0  0
 43 42  1  0  0  0  0
 43 38  1  1  0  0  0
 45 47  2  0  0  0  0
 45 48  1  0  0  0  0
 46 44  2  0  0  0  0
 47 46  1  0  0  0  0
 48 49  2  0  0  0  0
 49 44  1  0  0  0  0
 51 48  1  0  0  0  0
 51 50  2  0  0  0  0
 52 51  1  0  0  0  0
 53 52  1  0  0  0  0
 53 54  1  0  0  0  0
 55 39  1  0  0  0  0
 56 57  2  0  0  0  0
 56 55  1  0  0  0  0
 58 60  1  0  0  0  0
 60 59  1  0  0  0  0
 60 56  1  0  0  0  0
M  END
>  <MODEL>
1

>  <REMARK>
 VINA RESULT:      -6.4      0.000      0.000
  Name = 
  19 active torsions:
  status: ('A' for Active; 'I' for Inactive)
    1  A    between atoms: S_2  and  C_24
    2  A    between atoms: S_2  and  N_31
    3  A    between atoms: P_4  and  O_56
    4  A    between atoms: C_8  and  C_33
    5  A    between atoms: C_10  and  C_46
    6  A    between atoms: N_14  and  C_27
    7  A    between atoms: C_16  and  C_41
    8  A    between atoms: C_16  and  C_54
    9  A    between atoms: C_19  and  C_34
   10  A    between atoms: C_21  and  C_27
   11  A    between atoms: C_21  and  C_29
   12  A    between atoms: C_22  and  N_43
   13  A    between atoms: C_28  and  C_32
   14  A    between atoms: C_33  and  C_51
   15  A    between atoms: C_40  and  C_58
   16  A    between atoms: C_46  and  C_55
   17  A    between atoms: C_47  and  C_55
   18  A    between atoms: C_51  and  P_59
   19  A    between atoms: O_56  and  P_59
                            x       y       z     vdW  Elec       q    Type
                         _______ _______ _______ _____ _____    ______ ____

>  <TORSDO>
F 19

$$$$
=
 OpenBabel11072411573D

 60 64  0  0  1  0  0  0  0  0999 V2000
  162.4300  212.9450  146.1420 C   0  0  2  0  0  3  0  0  0  0  0  0
  160.1800  212.5420  144.9350 C   0  0  0  0  0  0  0  0  0  0  0  0
  158.9620  212.2420  145.0530 O   0  0  0  0  0  0  0  0  0  0  0  0
  163.9760  212.8280  148.1830 O   0  0  0  0  0  1  0  0  0  0  0  0
  160.9920  212.6920  146.1050 N   0  0  0  0  0  0  0  0  0  0  0  0
  160.5460  212.3900  147.3660 O   0  0  0  0  0  0  0  0  0  0  0  0
  161.6080  212.4270  148.2470 C   0  0  0  0  0  0  0  0  0  0  0  0
  162.7200  212.7340  147.5960 C   0  0  0  0  0  0  0  0  0  0  0  0
  162.7130  214.3920  145.7760 C   0  0  0  0  0  1  0  0  0  0  0  0
  161.5060  212.1260  149.7050 C   0  0  0  0  0  2  0  0  0  0  0  0
  161.6840  207.8630  150.2650 C   0  0  0  0  0  0  0  0  0  0  0  0
  162.0580  208.4390  149.0430 C   0  0  0  0  0  0  0  0  0  0  0  0
  161.9980  209.8280  148.8850 C   0  0  0  0  0  3  0  0  0  0  0  0
  161.2780  208.6780  151.3250 C   0  0  0  0  0  3  0  0  0  0  0  0
  161.5800  210.6490  149.9400 C   0  0  0  0  0  0  0  0  0  0  0  0
  161.7150  206.4840  150.4390 O   0  0  0  0  0  1  0  0  0  0  0  0
  161.2250  210.0680  151.1790 C   0  0  0  0  0  0  0  0  0  0  0  0
  160.9370  210.0950  153.6030 N   0  0  0  0  0  0  0  0  0  0  0  0
  162.1490  210.5310  154.2740 C   0  0  0  0  0  1  0  0  0  0  0  0
  159.4510  211.3630  152.2390 N   0  0  0  0  0  0  0  0  0  0  0  0
  159.8260  210.5090  154.4370 C   0  0  0  0  0  2  0  0  0  0  0  0
  160.8180  210.8750  152.3800 C   0  0  2  0  0  3  0  0  0  0  0  0
  158.8880  211.3230  153.5740 C   0  0  0  0  0  2  0  0  0  0  0  0
  159.5430  213.0650  151.7730 S   0  0  0  0  0  0  0  0  0  0  0  0
  157.7630  213.1600  151.4020 C   0  0  0  0  0  2  0  0  0  0  0  0
  157.0960  214.1830  152.3000 C   0  0  0  0  0  1  0  0  0  0  0  0
  162.5240  207.5900  147.9030 C   0  0  0  0  0  2  0  0  0  0  0  0
  161.3620  207.1590  147.0150 C   0  0  0  0  0  2  0  0  0  0  0  0
  162.8080  205.2710  145.6960 O   0  0  0  0  0  1  0  0  0  0  0  0
  160.2070  205.0180  145.5320 O   0  0  0  0  0  0  0  0  0  0  0  0
  161.5330  205.4220  146.4980 P   0  0  2  0  0  0  0  0  0  0  0  0
  161.5870  204.4500  147.8950 O   0  0  0  0  0  0  0  0  0  0  0  0
  161.6260  202.6550  145.8100 O   0  0  0  0  0  0  0  0  0  0  0  0
  161.2170  202.8490  147.4360 P   0  0  0  0  0  0  0  0  0  0  0  0
  162.1140  201.7410  148.3490 O   0  0  0  0  0  1  0  0  0  0  0  0
  159.7380  202.5640  147.6000 O   0  0  0  0  0  1  0  0  0  0  0  0
  160.7490  212.7570  143.5730 C   0  0  0  0  0  2  0  0  0  0  0  0
  160.9890  211.4180  142.9000 C   0  0  0  0  0  2  0  0  0  0  0  0
  159.7140  213.3230  140.1590 N   0  0  0  0  0  0  0  0  0  0  0  0
  160.8920  212.8250  140.8780 C   0  0  1  0  0  3  0  0  0  0  0  0
  158.6030  212.7180  140.7810 N   0  0  0  0  0  2  0  0  0  0  0  0
  159.0460  211.4510  141.3620 C   0  0  0  0  0  2  0  0  0  0  0  0
  160.5520  211.4760  141.4490 C   0  0  2  0  0  3  0  0  0  0  0  0
  162.9850  214.0650  140.2280 C   0  0  0  0  0  3  0  0  0  0  0  0
  163.9410  211.9200  138.7290 C   0  0  0  0  0  3  0  0  0  0  0  0
  164.2230  214.1560  139.5930 C   0  0  0  0  0  3  0  0  0  0  0  0
  164.7030  213.0820  138.8450 C   0  0  0  0  0  3  0  0  0  0  0  0
  162.6870  211.8070  139.3540 C   0  0  0  0  0  0  0  0  0  0  0  0
  162.2010  212.9030  140.1170 C   0  0  0  0  0  0  0  0  0  0  0  0
  161.0320  210.4430  138.2940 O   0  0  0  0  0  0  0  0  0  0  0  0
  161.9330  210.5410  139.1710 C   0  0  0  0  0  0  0  0  0  0  0  0
  162.2480  209.4080  139.9890 N   0  0  0  0  0  2  0  0  0  0  0  0
  161.5870  208.1200  139.8370 C   0  0  0  0  0  2  0  0  0  0  0  0
  162.4080  207.0340  140.5100 C   0  0  0  0  0  1  0  0  0  0  0  0
  159.7010  212.9010  138.7560 C   0  0  0  0  0  2  0  0  0  0  0  0
  158.4080  213.2820  138.1150 C   0  0  0  0  0  0  0  0  0  0  0  0
  158.0640  214.4530  138.0860 O   0  0  0  0  0  0  0  0  0  0  0  0
  158.1120  210.8410  137.8190 C   0  0  0  0  0  1  0  0  0  0  0  0
  156.1210  212.3200  138.0180 C   0  0  0  0  0  1  0  0  0  0  0  0
  157.5490  212.2160  137.5090 C   0  0  0  0  0  3  0  0  0  0  0  0
  1  9  1  1  0  0  0
  1  8  1  0  0  0  0
  2  3  2  0  0  0  0
  2  5  1  0  0  0  0
  5  1  1  0  0  0  0
  5  6  1  0  0  0  0
  6  7  1  0  0  0  0
  7 10  1  0  0  0  0
  8  4  1  0  0  0  0
  8  7  2  0  0  0  0
 10 15  1  0  0  0  0
 11 16  1  0  0  0  0
 11 14  1  0  0  0  0
 12 11  2  0  0  0  0
 13 12  1  0  0  0  0
 13 15  2  0  0  0  0
 15 17  1  0  0  0  0
 17 14  2  0  0  0  0
 18 19  1  0  0  0  0
 18 21  1  0  0  0  0
 20 22  1  0  0  0  0
 20 23  1  0  0  0  0
 22 17  1  6  0  0  0
 22 18  1  0  0  0  0
 23 21  1  0  0  0  0
 24 20  1  0  0  0  0
 25 24  1  0  0  0  0
 25 26  1  0  0  0  0
 27 12  1  0  0  0  0
 28 27  1  0  0  0  0
 29 31  1  0  0  0  0
 31 30  2  6  0  0  0
 31 28  1  0  0  0  0
 31 32  1  0  0  0  0
 33 34  2  0  0  0  0
 34 36  1  0  0  0  0
 34 32  1  0  0  0  0
 34 35  1  0  0  0  0
 37  2  1  0  0  0  0
 38 37  1  0  0  0  0
 39 41  1  0  0  0  0
 39 40  1  0  0  0  0
 40 49  1  6  0  0  0
 40 43  1  0  0  0  0
 41 42  1  0  0  0  0
 42 43  1  0  0  0  0
 43 38  1  1  0  0  0
 45 47  2  0  0  0  0
 45 48  1  0  0  0  0
 46 44  2  0  0  0  0
 47 46  1  0  0  0  0
 48 49  2  0  0  0  0
 49 44  1  0  0  0  0
 50 51  2  0  0  0  0
 51 48  1  0  0  0  0
 51 52  1  0  0  0  0
 53 52  1  0  0  0  0
 53 54  1  0  0  0  0
 55 39  1  0  0  0  0
 56 55  1  0  0  0  0
 57 56  2  0  0  0  0
 60 58  1  0  0  0  0
 60 59  1  0  0  0  0
 60 56  1  0  0  0  0
M  END
>  <MODEL>
2

>  <REMARK>
 VINA RESULT:      -5.6      2.031      3.598
  Name = 
  19 active torsions:
  status: ('A' for Active; 'I' for Inactive)
    1  A    between atoms: S_2  and  C_24
    2  A    between atoms: S_2  and  N_31
    3  A    between atoms: P_4  and  O_56
    4  A    between atoms: C_8  and  C_33
    5  A    between atoms: C_10  and  C_46
    6  A    between atoms: N_14  and  C_27
    7  A    between atoms: C_16  and  C_41
    8  A    between atoms: C_16  and  C_54
    9  A    between atoms: C_19  and  C_34
   10  A    between atoms: C_21  and  C_27
   11  A    between atoms: C_21  and  C_29
   12  A    between atoms: C_22  and  N_43
   13  A    between atoms: C_28  and  C_32
   14  A    between atoms: C_33  and  C_51
   15  A    between atoms: C_40  and  C_58
   16  A    between atoms: C_46  and  C_55
   17  A    between atoms: C_47  and  C_55
   18  A    between atoms: C_51  and  P_59
   19  A    between atoms: O_56  and  P_59
                            x       y       z     vdW  Elec       q    Type
                         _______ _______ _______ _____ _____    ______ ____

>  <TORSDO>
F 19

$$$$
=
 OpenBabel11072411573D

 60 64  0  0  1  0  0  0  0  0999 V2000
  161.2270  210.3630  151.7740 C   0  0  2  0  0  3  0  0  0  0  0  0
  162.1100  209.0800  149.7110 C   0  0  0  0  0  0  0  0  0  0  0  0
  162.4120  209.1350  148.4890 O   0  0  0  0  0  0  0  0  0  0  0  0
  160.1150  212.3780  152.9030 O   0  0  0  0  0  1  0  0  0  0  0  0
  161.6960  210.2690  150.3940 N   0  0  0  0  0  0  0  0  0  0  0  0
  161.4760  211.4610  149.7520 O   0  0  0  0  0  0  0  0  0  0  0  0
  160.8840  212.3490  150.6270 C   0  0  0  0  0  0  0  0  0  0  0  0
  160.7090  211.7690  151.8050 C   0  0  0  0  0  0  0  0  0  0  0  0
  162.3990  210.2360  152.7320 C   0  0  0  0  0  1  0  0  0  0  0  0
  160.4750  213.7390  150.2710 C   0  0  0  0  0  2  0  0  0  0  0  0
  156.3320  214.2970  151.2920 C   0  0  0  0  0  0  0  0  0  0  0  0
  157.3180  214.2810  152.2890 C   0  0  0  0  0  0  0  0  0  0  0  0
  158.6590  214.1040  151.9340 C   0  0  0  0  0  3  0  0  0  0  0  0
  156.6960  214.1610  149.9500 C   0  0  0  0  0  3  0  0  0  0  0  0
  159.0290  213.9560  150.5910 C   0  0  0  0  0  0  0  0  0  0  0  0
  154.9900  214.4490  151.6230 O   0  0  0  0  0  1  0  0  0  0  0  0
  158.0360  213.9940  149.5850 C   0  0  0  0  0  0  0  0  0  0  0  0
  157.2220  213.3450  147.3770 N   0  0  0  0  0  0  0  0  0  0  0  0
  156.5600  214.4530  146.7120 C   0  0  0  0  0  1  0  0  0  0  0  0
  159.5340  213.0820  147.8910 N   0  0  0  0  0  0  0  0  0  0  0  0
  157.8090  212.5230  146.3360 C   0  0  0  0  0  2  0  0  0  0  0  0
  158.3470  213.8980  148.1180 C   0  0  2  0  0  3  0  0  0  0  0  0
  159.2780  212.3650  146.6570 C   0  0  0  0  0  2  0  0  0  0  0  0
  160.8790  214.1840  147.5740 S   0  0  0  0  0  0  0  0  0  0  0  0
  161.0550  213.6280  145.8490 C   0  0  0  0  0  2  0  0  0  0  0  0
  162.1140  214.4490  145.1410 C   0  0  0  0  0  1  0  0  0  0  0  0
  156.9560  214.4530  153.7300 C   0  0  0  0  0  2  0  0  0  0  0  0
  157.7280  213.4850  154.6210 C   0  0  0  0  0  2  0  0  0  0  0  0
  155.7740  211.7060  155.2620 O   0  0  0  0  0  0  0  0  0  0  0  0
  155.6830  213.9900  156.5400 O   0  0  0  0  0  1  0  0  0  0  0  0
  156.6520  212.7620  155.8980 P   0  0  2  0  0  0  0  0  0  0  0  0
  157.6370  212.0730  157.1030 O   0  0  0  0  0  0  0  0  0  0  0  0
  158.5480  210.6470  154.9340 O   0  0  0  0  0  0  0  0  0  0  0  0
  159.0280  211.4380  156.3460 P   0  0  0  0  0  0  0  0  0  0  0  0
  160.1030  212.6770  155.9270 O   0  0  0  0  0  1  0  0  0  0  0  0
  159.7290  210.4390  157.2450 O   0  0  0  0  0  1  0  0  0  0  0  0
  162.2080  207.7780  150.4290 C   0  0  0  0  0  2  0  0  0  0  0  0
  160.8500  207.1010  150.4540 C   0  0  0  0  0  2  0  0  0  0  0  0
  162.2460  205.1860  147.7800 N   0  0  0  0  0  0  0  0  0  0  0  0
  161.6610  205.1890  149.1250 C   0  0  1  0  0  3  0  0  0  0  0  0
  162.1340  206.5110  147.3120 N   0  0  0  0  0  2  0  0  0  0  0  0
  160.9910  207.1310  147.9810 C   0  0  0  0  0  2  0  0  0  0  0  0
  160.6430  206.2940  149.1870 C   0  0  2  0  0  3  0  0  0  0  0  0
  160.7560  202.8760  148.7120 C   0  0  0  0  0  3  0  0  0  0  0  0
  160.8720  202.2110  151.4140 C   0  0  0  0  0  3  0  0  0  0  0  0
  160.3730  201.6030  149.1330 C   0  0  0  0  0  3  0  0  0  0  0  0
  160.4330  201.2690  150.4850 C   0  0  0  0  0  3  0  0  0  0  0  0
  161.2560  203.5030  151.0150 C   0  0  0  0  0  0  0  0  0  0  0  0
  161.1950  203.8400  149.6370 C   0  0  0  0  0  0  0  0  0  0  0  0
  162.8850  204.8790  152.1010 O   0  0  0  0  0  0  0  0  0  0  0  0
  161.6990  204.4510  152.0690 C   0  0  0  0  0  0  0  0  0  0  0  0
  160.7600  204.9020  153.0520 N   0  0  0  0  0  2  0  0  0  0  0  0
  161.1050  205.8660  154.0870 C   0  0  0  0  0  2  0  0  0  0  0  0
  160.6320  207.2510  153.6840 C   0  0  0  0  0  1  0  0  0  0  0  0
  161.4950  204.3390  146.8500 C   0  0  0  0  0  2  0  0  0  0  0  0
  162.1400  204.3530  145.5040 C   0  0  0  0  0  0  0  0  0  0  0  0
  163.3340  204.1230  145.3990 O   0  0  0  0  0  0  0  0  0  0  0  0
  160.1240  203.6940  144.2240 C   0  0  0  0  0  1  0  0  0  0  0  0
  160.8170  206.0830  144.3120 C   0  0  0  0  0  1  0  0  0  0  0  0
  161.3060  204.6440  144.2960 C   0  0  0  0  0  3  0  0  0  0  0  0
  1  8  1  0  0  0  0
  1  9  1  1  0  0  0
  2  5  1  0  0  0  0
  2 37  1  0  0  0  0
  3  2  2  0  0  0  0
  5  1  1  0  0  0  0
  6  5  1  0  0  0  0
  6  7  1  0  0  0  0
  7  8  2  0  0  0  0
  8  4  1  0  0  0  0
 10 15  1  0  0  0  0
 10  7  1  0  0  0  0
 11 16  1  0  0  0  0
 11 12  1  0  0  0  0
 12 27  1  0  0  0  0
 13 12  2  0  0  0  0
 14 11  2  0  0  0  0
 15 13  1  0  0  0  0
 17 14  1  0  0  0  0
 17 15  2  0  0  0  0
 18 22  1  0  0  0  0
 19 18  1  0  0  0  0
 20 22  1  0  0  0  0
 21 23  1  0  0  0  0
 21 18  1  0  0  0  0
 22 17  1  1  0  0  0
 23 20  1  0  0  0  0
 24 20  1  0  0  0  0
 25 24  1  0  0  0  0
 26 25  1  0  0  0  0
 27 28  1  0  0  0  0
 28 31  1  0  0  0  0
 31 29  2  6  0  0  0
 31 30  1  0  0  0  0
 31 32  1  0  0  0  0
 33 34  2  0  0  0  0
 34 32  1  0  0  0  0
 34 36  1  0  0  0  0
 35 34  1  0  0  0  0
 37 38  1  0  0  0  0
 39 40  1  0  0  0  0
 40 43  1  0  0  0  0
 40 49  1  6  0  0  0
 41 39  1  0  0  0  0
 41 42  1  0  0  0  0
 42 43  1  0  0  0  0
 43 38  1  1  0  0  0
 44 46  2  0  0  0  0
 44 49  1  0  0  0  0
 46 47  1  0  0  0  0
 47 45  2  0  0  0  0
 48 45  1  0  0  0  0
 48 51  1  0  0  0  0
 49 48  2  0  0  0  0
 51 50  2  0  0  0  0
 51 52  1  0  0  0  0
 52 53  1  0  0  0  0
 54 53  1  0  0  0  0
 55 39  1  0  0  0  0
 56 55  1  0  0  0  0
 57 56  2  0  0  0  0
 58 60  1  0  0  0  0
 60 59  1  0  0  0  0
 60 56  1  0  0  0  0
M  END
>  <MODEL>
3

>  <REMARK>
 VINA RESULT:      -5.0      4.858     10.115
  Name = 
  19 active torsions:
  status: ('A' for Active; 'I' for Inactive)
    1  A    between atoms: S_2  and  C_24
    2  A    between atoms: S_2  and  N_31
    3  A    between atoms: P_4  and  O_56
    4  A    between atoms: C_8  and  C_33
    5  A    between atoms: C_10  and  C_46
    6  A    between atoms: N_14  and  C_27
    7  A    between atoms: C_16  and  C_41
    8  A    between atoms: C_16  and  C_54
    9  A    between atoms: C_19  and  C_34
   10  A    between atoms: C_21  and  C_27
   11  A    between atoms: C_21  and  C_29
   12  A    between atoms: C_22  and  N_43
   13  A    between atoms: C_28  and  C_32
   14  A    between atoms: C_33  and  C_51
   15  A    between atoms: C_40  and  C_58
   16  A    between atoms: C_46  and  C_55
   17  A    between atoms: C_47  and  C_55
   18  A    between atoms: C_51  and  P_59
   19  A    between atoms: O_56  and  P_59
                            x       y       z     vdW  Elec       q    Type
                         _______ _______ _______ _____ _____    ______ ____

>  <TORSDO>
F 19

$$$$
=
 OpenBabel11072411573D

 60 64  0  0  1  0  0  0  0  0999 V2000
  162.5560  212.8900  146.7420 C   0  0  2  0  0  3  0  0  0  0  0  0
  160.3010  212.5950  145.5120 C   0  0  0  0  0  0  0  0  0  0  0  0
  159.1270  212.1420  145.5630 O   0  0  0  0  0  0  0  0  0  0  0  0
  164.2030  212.3790  148.6380 O   0  0  0  0  0  1  0  0  0  0  0  0
  161.1500  212.5010  146.6610 N   0  0  0  0  0  0  0  0  0  0  0  0
  160.7990  211.8120  147.7940 O   0  0  0  0  0  0  0  0  0  0  0  0
  161.8920  211.7180  148.6300 C   0  0  0  0  0  0  0  0  0  0  0  0
  162.9360  212.3150  148.0720 C   0  0  0  0  0  0  0  0  0  0  0  0
  162.6740  214.4040  146.7940 C   0  0  0  0  0  1  0  0  0  0  0  0
  161.8920  211.0130  149.9460 C   0  0  0  0  0  2  0  0  0  0  0  0
  161.4220  206.7910  149.2590 C   0  0  0  0  0  0  0  0  0  0  0  0
  161.9770  207.6180  148.2720 C   0  0  0  0  0  0  0  0  0  0  0  0
  162.1260  208.9870  148.5190 C   0  0  0  0  0  3  0  0  0  0  0  0
  161.0440  207.3330  150.4900 C   0  0  0  0  0  3  0  0  0  0  0  0
  161.7380  209.5370  149.7470 C   0  0  0  0  0  0  0  0  0  0  0  0
  161.2440  205.4320  149.0290 O   0  0  0  0  0  1  0  0  0  0  0  0
  161.1990  208.6990  150.7490 C   0  0  0  0  0  0  0  0  0  0  0  0
  160.7920  210.6480  152.1610 N   0  0  0  0  0  0  0  0  0  0  0  0
  159.4030  211.0660  152.0960 C   0  0  0  0  0  1  0  0  0  0  0  0
  161.7120  208.6780  153.1330 N   0  0  0  0  0  0  0  0  0  0  0  0
  161.2730  210.9980  153.4840 C   0  0  0  0  0  2  0  0  0  0  0  0
  160.8070  209.1940  152.1140 C   0  0  2  0  0  3  0  0  0  0  0  0
  161.8470  209.7450  154.1050 C   0  0  0  0  0  2  0  0  0  0  0  0
  160.8840  207.3450  153.9480 S   0  0  0  0  0  0  0  0  0  0  0  0
  161.6430  206.0880  152.8720 C   0  0  0  0  0  2  0  0  0  0  0  0
  161.2480  204.6990  153.3330 C   0  0  0  0  0  1  0  0  0  0  0  0
  162.4160  207.0570  146.9570 C   0  0  0  0  0  2  0  0  0  0  0  0
  162.6980  205.5620  147.0510 C   0  0  0  0  0  2  0  0  0  0  0  0
  161.8800  205.1810  144.4860 O   0  0  0  0  0  0  0  0  0  0  0  0
  160.0520  204.7960  146.3210 O   0  0  0  0  0  1  0  0  0  0  0  0
  161.6730  204.6210  145.8770 P   0  0  2  0  0  0  0  0  0  0  0  0
  162.1480  202.9870  145.9400 O   0  0  0  0  0  0  0  0  0  0  0  0
  161.2000  200.4120  146.1300 O   0  0  0  0  0  1  0  0  0  0  0  0
  160.7390  202.0350  146.0830 P   0  0  0  0  0  0  0  0  0  0  0  0
  159.9120  202.3980  147.5150 O   0  0  0  0  0  1  0  0  0  0  0  0
  159.8190  202.2430  144.8970 O   0  0  0  0  0  0  0  0  0  0  0  0
  160.7790  213.2410  144.2560 C   0  0  0  0  0  2  0  0  0  0  0  0
  161.6610  212.2760  143.4850 C   0  0  0  0  0  2  0  0  0  0  0  0
  160.0390  213.5440  140.5640 N   0  0  0  0  0  0  0  0  0  0  0  0
  161.3030  213.2310  141.2400 C   0  0  1  0  0  3  0  0  0  0  0  0
  159.0230  213.0590  141.4110 N   0  0  0  0  0  2  0  0  0  0  0  0
  159.5750  211.9490  142.1890 C   0  0  0  0  0  2  0  0  0  0  0  0
  161.0790  212.0240  142.1070 C   0  0  2  0  0  3  0  0  0  0  0  0
  163.3030  214.3370  140.1830 C   0  0  0  0  0  3  0  0  0  0  0  0
  164.1230  211.9720  138.9600 C   0  0  0  0  0  3  0  0  0  0  0  0
  164.4680  214.3160  139.4160 C   0  0  0  0  0  3  0  0  0  0  0  0
  164.8790  213.1330  138.8060 C   0  0  0  0  0  3  0  0  0  0  0  0
  162.9410  211.9690  139.7230 C   0  0  0  0  0  0  0  0  0  0  0  0
  162.5260  213.1770  140.3440 C   0  0  0  0  0  0  0  0  0  0  0  0
  162.3090  209.9490  140.8370 O   0  0  0  0  0  0  0  0  0  0  0  0
  162.1870  210.6940  139.8270 C   0  0  0  0  0  0  0  0  0  0  0  0
  161.2920  210.3160  138.7750 N   0  0  0  0  0  2  0  0  0  0  0  0
  160.4830  209.1070  138.8260 C   0  0  0  0  0  2  0  0  0  0  0  0
  161.3800  207.8880  138.9440 C   0  0  0  0  0  1  0  0  0  0  0  0
  159.9040  212.8410  139.2860 C   0  0  0  0  0  2  0  0  0  0  0  0
  158.7870  213.4290  138.4890 C   0  0  0  0  0  0  0  0  0  0  0  0
  159.0300  214.0410  137.4610 O   0  0  0  0  0  0  0  0  0  0  0  0
  156.9420  214.4520  139.7870 C   0  0  0  0  0  1  0  0  0  0  0  0
  156.4350  213.0600  137.7870 C   0  0  0  0  0  1  0  0  0  0  0  0
  157.3790  213.2540  138.9630 C   0  0  0  0  0  3  0  0  0  0  0  0
  1  9  1  1  0  0  0
  1  8  1  0  0  0  0
  2  3  2  0  0  0  0
  2  5  1  0  0  0  0
  5  1  1  0  0  0  0
  5  6  1  0  0  0  0
  6  7  1  0  0  0  0
  7 10  1  0  0  0  0
  8  7  2  0  0  0  0
  8  4  1  0  0  0  0
 11 14  1  0  0  0  0
 12 13  1  0  0  0  0
 12 11  2  0  0  0  0
 13 15  2  0  0  0  0
 14 17  2  0  0  0  0
 15 10  1  0  0  0  0
 15 17  1  0  0  0  0
 16 11  1  0  0  0  0
 18 21  1  0  0  0  0
 19 18  1  0  0  0  0
 20 24  1  0  0  0  0
 20 23  1  0  0  0  0
 21 23  1  0  0  0  0
 22 17  1  6  0  0  0
 22 18  1  0  0  0  0
 22 20  1  0  0  0  0
 25 26  1  0  0  0  0
 25 24  1  0  0  0  0
 27 28  1  0  0  0  0
 27 12  1  0  0  0  0
 31 29  2  6  0  0  0
 31 32  1  0  0  0  0
 31 30  1  0  0  0  0
 31 28  1  0  0  0  0
 32 34  1  0  0  0  0
 34 33  1  0  0  0  0
 34 35  1  0  0  0  0
 36 34  2  0  0  0  0
 37  2  1  0  0  0  0
 38 37  1  0  0  0  0
 39 40  1  0  0  0  0
 39 41  1  0  0  0  0
 40 49  1  6  0  0  0
 40 43  1  0  0  0  0
 41 42  1  0  0  0  0
 43 42  1  0  0  0  0
 43 38  1  1  0  0  0
 44 49  1  0  0  0  0
 45 48  1  0  0  0  0
 46 44  2  0  0  0  0
 47 45  2  0  0  0  0
 47 46  1  0  0  0  0
 48 51  1  0  0  0  0
 48 49  2  0  0  0  0
 51 50  2  0  0  0  0
 52 53  1  0  0  0  0
 52 51  1  0  0  0  0
 53 54  1  0  0  0  0
 55 39  1  0  0  0  0
 56 60  1  0  0  0  0
 56 55  1  0  0  0  0
 57 56  2  0  0  0  0
 59 60  1  0  0  0  0
 60 58  1  0  0  0  0
M  END
>  <MODEL>
4

>  <REMARK>
 VINA RESULT:      -3.5      2.336      4.249
  Name = 
  19 active torsions:
  status: ('A' for Active; 'I' for Inactive)
    1  A    between atoms: S_2  and  C_24
    2  A    between atoms: S_2  and  N_31
    3  A    between atoms: P_4  and  O_56
    4  A    between atoms: C_8  and  C_33
    5  A    between atoms: C_10  and  C_46
    6  A    between atoms: N_14  and  C_27
    7  A    between atoms: C_16  and  C_41
    8  A    between atoms: C_16  and  C_54
    9  A    between atoms: C_19  and  C_34
   10  A    between atoms: C_21  and  C_27
   11  A    between atoms: C_21  and  C_29
   12  A    between atoms: C_22  and  N_43
   13  A    between atoms: C_28  and  C_32
   14  A    between atoms: C_33  and  C_51
   15  A    between atoms: C_40  and  C_58
   16  A    between atoms: C_46  and  C_55
   17  A    between atoms: C_47  and  C_55
   18  A    between atoms: C_51  and  P_59
   19  A    between atoms: O_56  and  P_59
                            x       y       z     vdW  Elec       q    Type
                         _______ _______ _______ _____ _____    ______ ____

>  <TORSDO>
F 19

$$$$
