=
 OpenBabel11072409593D

 54 60  0  0  1  0  0  0  0  0999 V2000
  160.4310  205.9120  149.4200 C   0  0  0  0  0  3  0  0  0  0  0  0
  159.9850  206.9130  150.2770 C   0  0  0  0  0  3  0  0  0  0  0  0
  161.7030  206.3050  151.8820 C   0  0  0  0  0  0  0  0  0  0  0  0
  160.2950  206.7790  156.9290 O   0  0  0  0  0  0  0  0  0  0  0  0
  162.1500  205.3060  151.0090 C   0  0  0  0  0  3  0  0  0  0  0  0
  160.3460  207.6640  156.0250 C   0  0  0  0  0  0  0  0  0  0  0  0
  160.6050  207.1220  151.5100 C   0  0  0  0  0  0  0  0  0  0  0  0
  162.4500  206.4920  153.1630 C   0  0  0  0  0  2  0  0  0  0  0  0
  161.5100  205.0940  149.7850 C   0  0  0  0  0  0  0  0  0  0  0  0
  160.0820  211.3580  155.9830 N   0  0  0  0  0  2  0  0  0  0  0  0
  160.5440  208.4690  153.6260 C   0  0  2  0  0  3  0  0  0  0  0  0
  160.4160  207.2510  154.5740 C   0  0  1  0  0  3  0  0  0  0  0  0
  160.1050  209.9990  155.5350 C   0  0  0  0  0  0  0  0  0  0  0  0
  159.7410  209.6600  154.1160 C   0  0  0  0  0  2  0  0  0  0  0  0
  160.0810  208.1350  152.3230 O   0  0  0  0  0  0  0  0  0  0  0  0
  161.5570  206.2350  154.3800 C   0  0  0  0  0  2  0  0  0  0  0  0
  160.3080  209.0490  156.3990 N   0  0  0  0  0  0  0  0  0  0  0  0
  159.9160  212.4650  155.0870 C   0  0  0  0  0  0  0  0  0  0  0  0
  160.0400  212.2430  153.7730 C   0  0  0  0  0  3  0  0  0  0  0  0
  159.5600  213.8120  155.6580 C   0  0  0  0  0  2  0  0  0  0  0  0
  158.4920  213.5940  156.7590 C   0  0  0  0  0  2  0  0  0  0  0  0
  156.8440  213.9790  154.9340 C   0  0  0  0  0  2  0  0  0  0  0  0
  156.1540  212.9320  154.2770 O   0  0  0  0  0  0  0  0  0  0  0  0
  156.6430  212.1600  156.4390 C   0  0  0  0  0  2  0  0  0  0  0  0
  157.0750  213.5560  156.3360 N   0  0  0  0  0  0  0  0  0  0  0  0
  155.5200  210.7660  154.8210 O   0  0  0  0  0  0  0  0  0  0  0  0
  156.0430  211.8690  155.1310 C   0  0  0  0  0  0  0  0  0  0  0  0
  159.9740  213.3090  152.7220 C   0  0  0  0  0  2  0  0  0  0  0  0
  159.2750  212.8100  151.4640 C   0  0  0  0  0  2  0  0  0  0  0  0
  158.6680  213.9580  150.6670 C   0  0  0  0  0  2  0  0  0  0  0  0
  159.5990  214.4440  146.4180 O   0  0  0  0  0  1  0  0  0  0  0  0
  160.6800  212.4330  147.1610 C   0  0  0  0  0  2  0  0  0  0  0  0
  158.5580  213.2360  148.2240 C   0  0  0  0  0  2  0  0  0  0  0  0
  159.3580  213.1650  146.9300 C   0  0  1  0  0  3  0  0  0  0  0  0
  160.8110  213.9580  149.3090 C   0  0  0  0  0  2  0  0  0  0  0  0
  159.2830  214.0840  149.2770 C   0  0  2  0  0  3  0  0  0  0  0  0
  161.4260  212.8430  148.4480 C   0  0  1  0  0  3  0  0  0  0  0  0
  161.8710  211.6530  149.2880 C   0  0  0  0  0  2  0  0  0  0  0  0
  162.0200  210.5060  148.5140 O   0  0  0  0  0  1  0  0  0  0  0  0
  162.0750  204.0850  148.8220 C   0  0  1  0  0  3  0  0  0  0  0  0
  160.1340  200.9910  148.4990 N   0  0  0  0  0  2  0  0  0  0  0  0
  160.4910  202.1680  149.2640 C   0  0  0  0  0  2  0  0  0  0  0  0
  161.4930  202.3060  147.2010 N   0  0  0  0  0  2  0  0  0  0  0  0
  160.6760  201.1590  147.2010 N   0  0  0  0  0  0  0  0  0  0  0  0
  161.5410  200.0140  146.9530 C   0  0  0  0  0  1  0  0  0  0  0  0
  160.9860  203.1510  148.2580 C   0  0  2  0  0  3  0  0  0  0  0  0
  162.9460  204.8380  147.7960 C   0  0  0  0  0  2  0  0  0  0  0  0
  162.3380  206.0820  147.1450 C   0  0  0  0  0  2  0  0  0  0  0  0
  161.3540  205.5560  143.2440 S   0  0  0  0  0  0  0  0  0  0  0  0
  159.6510  203.6510  144.2410 C   0  0  0  0  0  1  0  0  0  0  0  0
  161.6980  205.7900  145.8230 C   0  0  0  0  0  0  0  0  0  0  0  0
  160.4910  205.3480  145.7580 N   0  0  0  0  0  0  0  0  0  0  0  0
  160.0030  205.1150  144.4030 C   0  0  1  0  0  3  0  0  0  0  0  0
  162.3560  205.9310  144.6150 O   0  0  0  0  0  0  0  0  0  0  0  0
  1  9  2  0  0  0  0
  1  2  1  0  0  0  0
  2  7  2  0  0  0  0
  3  8  1  0  0  0  0
  5  3  2  0  0  0  0
  6 17  1  0  0  0  0
  6  4  2  0  0  0  0
  7  3  1  0  0  0  0
  7 15  1  0  0  0  0
  8 16  1  0  0  0  0
  9  5  1  0  0  0  0
 11 14  1  1  0  0  0
 11 12  1  0  0  0  0
 12 16  1  1  0  0  0
 12  6  1  0  0  0  0
 13 10  1  0  0  0  0
 13 17  2  0  0  0  0
 14 13  1  0  0  0  0
 15 11  1  0  0  0  0
 18 20  1  0  0  0  0
 18 10  1  0  0  0  0
 19 18  2  0  0  0  0
 20 21  1  0  0  0  0
 22 25  1  0  0  0  0
 23 22  1  0  0  0  0
 23 27  1  0  0  0  0
 25 24  1  0  0  0  0
 25 21  1  0  0  0  0
 26 27  2  0  0  0  0
 27 24  1  0  0  0  0
 28 19  1  0  0  0  0
 29 28  1  0  0  0  0
 30 29  1  0  0  0  0
 32 37  1  0  0  0  0
 33 36  1  0  0  0  0
 34 31  1  1  0  0  0
 34 32  1  0  0  0  0
 34 33  1  0  0  0  0
 36 35  1  0  0  0  0
 36 30  1  1  0  0  0
 37 38  1  1  0  0  0
 37 35  1  0  0  0  0
 39 38  1  0  0  0  0
 40 47  1  6  0  0  0
 40  9  1  0  0  0  0
 41 42  1  0  0  0  0
 43 46  1  0  0  0  0
 44 43  1  0  0  0  0
 44 41  1  0  0  0  0
 45 44  1  0  0  0  0
 46 40  1  1  0  0  0
 46 42  1  0  0  0  0
 48 47  1  0  0  0  0
 49 53  1  0  0  0  0
 49 54  1  0  0  0  0
 51 48  1  0  0  0  0
 52 51  2  0  0  0  0
 53 50  1  1  0  0  0
 53 52  1  0  0  0  0
 54 51  1  0  0  0  0
M  END
>  <MODEL>
1

>  <REMARK>
 VINA RESULT:      -3.9      0.000      0.000
  Name = 
  14 active torsions:
  status: ('A' for Active; 'I' for Inactive)
    1  A    between atoms: C_3  and  C_17
    2  A    between atoms: C_3  and  C_18
    3  A    between atoms: C_4  and  C_10
    4  A    between atoms: C_4  and  C_26
    5  A    between atoms: C_4  and  C_42
    6  A    between atoms: C_9  and  C_20
    7  A    between atoms: C_9  and  C_47
    8  A    between atoms: C_10  and  C_48
    9  A    between atoms: C_11  and  C_54
   10  A    between atoms: C_17  and  N_30
   11  A    between atoms: C_18  and  N_27
   12  A    between atoms: C_20  and  C_32
   13  A    between atoms: C_32  and  C_49
   14  A    between atoms: C_35  and  C_48
                            x       y       z     vdW  Elec       q    Type
                         _______ _______ _______ _____ _____    ______ ____

>  <TORSDO>
F 14

$$$$
=
 OpenBabel11072409593D

 54 60  0  0  1  0  0  0  0  0999 V2000
  159.9240  205.5400  149.1130 C   0  0  0  0  0  3  0  0  0  0  0  0
  159.5870  206.5480  150.0090 C   0  0  0  0  0  3  0  0  0  0  0  0
  161.6670  206.1830  151.2070 C   0  0  0  0  0  0  0  0  0  0  0  0
  161.3770  206.8330  156.4190 O   0  0  0  0  0  0  0  0  0  0  0  0
  162.0030  205.1750  150.2950 C   0  0  0  0  0  3  0  0  0  0  0  0
  161.1420  207.6650  155.4940 C   0  0  0  0  0  0  0  0  0  0  0  0
  160.4420  206.8810  151.0620 C   0  0  0  0  0  0  0  0  0  0  0  0
  162.6590  206.5070  152.2770 C   0  0  0  0  0  2  0  0  0  0  0  0
  161.1290  204.8380  149.2560 C   0  0  0  0  0  0  0  0  0  0  0  0
  160.5250  211.3140  155.3700 N   0  0  0  0  0  2  0  0  0  0  0  0
  160.7250  208.3400  153.0820 C   0  0  2  0  0  3  0  0  0  0  0  0
  160.9260  207.1740  154.0820 C   0  0  1  0  0  3  0  0  0  0  0  0
  160.5770  209.9390  154.9810 C   0  0  0  0  0  0  0  0  0  0  0  0
  159.9410  209.4870  153.6950 C   0  0  0  0  0  2  0  0  0  0  0  0
  160.0170  207.8930  151.9320 O   0  0  0  0  0  0  0  0  0  0  0  0
  162.0870  206.2480  153.6740 C   0  0  0  0  0  2  0  0  0  0  0  0
  161.0560  209.0620  155.8130 N   0  0  0  0  0  0  0  0  0  0  0  0
  160.0600  212.3490  154.4930 C   0  0  0  0  0  0  0  0  0  0  0  0
  159.9170  212.0640  153.1940 C   0  0  0  0  0  3  0  0  0  0  0  0
  159.7050  213.6900  155.0790 C   0  0  0  0  0  2  0  0  0  0  0  0
  158.8140  213.4450  156.3220 C   0  0  0  0  0  2  0  0  0  0  0  0
  156.9110  213.8720  154.7760 C   0  0  0  0  0  2  0  0  0  0  0  0
  156.1340  212.8400  154.1960 O   0  0  0  0  0  0  0  0  0  0  0  0
  156.9420  212.0070  156.2370 C   0  0  0  0  0  2  0  0  0  0  0  0
  157.3500  213.4090  156.1130 N   0  0  0  0  0  0  0  0  0  0  0  0
  155.5950  210.6530  154.7620 O   0  0  0  0  0  0  0  0  0  0  0  0
  156.1550  211.7510  155.0240 C   0  0  0  0  0  0  0  0  0  0  0  0
  159.5190  213.0570  152.1440 C   0  0  0  0  0  2  0  0  0  0  0  0
  160.5130  213.0770  150.9890 C   0  0  0  0  0  2  0  0  0  0  0  0
  160.5860  214.4520  150.3370 C   0  0  0  0  0  2  0  0  0  0  0  0
  159.5300  214.3460  146.0910 O   0  0  0  0  0  1  0  0  0  0  0  0
  160.8780  212.4110  146.5420 C   0  0  0  0  0  2  0  0  0  0  0  0
  159.4250  213.4220  148.3130 C   0  0  0  0  0  2  0  0  0  0  0  0
  159.5720  213.1540  146.8220 C   0  0  1  0  0  3  0  0  0  0  0  0
  161.9070  214.1980  148.1860 C   0  0  0  0  0  2  0  0  0  0  0  0
  160.5200  214.3740  148.8160 C   0  0  2  0  0  3  0  0  0  0  0  0
  162.1050  212.9580  147.2990 C   0  0  1  0  0  3  0  0  0  0  0  0
  162.9060  211.8720  148.0060 C   0  0  0  0  0  2  0  0  0  0  0  0
  162.1020  210.7970  148.3720 O   0  0  0  0  0  1  0  0  0  0  0  0
  161.5600  203.8250  148.2300 C   0  0  1  0  0  3  0  0  0  0  0  0
  162.5480  206.3410  145.7540 N   0  0  0  0  0  2  0  0  0  0  0  0
  162.3890  205.9460  147.1380 C   0  0  0  0  0  2  0  0  0  0  0  0
  161.9410  204.1300  145.8030 N   0  0  0  0  0  2  0  0  0  0  0  0
  162.3730  205.1780  144.9660 N   0  0  0  0  0  0  0  0  0  0  0  0
  161.2890  205.4580  144.0340 C   0  0  0  0  0  1  0  0  0  0  0  0
  162.4290  204.4550  147.1240 C   0  0  2  0  0  3  0  0  0  0  0  0
  162.1540  202.6110  148.9760 C   0  0  0  0  0  2  0  0  0  0  0  0
  161.3490  201.3120  148.9460 C   0  0  0  0  0  2  0  0  0  0  0  0
  161.2550  199.0770  145.5600 S   0  0  0  0  0  0  0  0  0  0  0  0
  159.2460  200.7980  144.8370 C   0  0  0  0  0  1  0  0  0  0  0  0
  161.2030  200.7520  147.5640 C   0  0  0  0  0  0  0  0  0  0  0  0
  160.7670  201.4840  146.5990 N   0  0  0  0  0  0  0  0  0  0  0  0
  160.6840  200.8030  145.3110 C   0  0  1  0  0  3  0  0  0  0  0  0
  161.4790  199.4350  147.2470 O   0  0  0  0  0  0  0  0  0  0  0  0
  1  9  2  0  0  0  0
  1  2  1  0  0  0  0
  2  7  2  0  0  0  0
  3  8  1  0  0  0  0
  5  3  2  0  0  0  0
  6 17  1  0  0  0  0
  6  4  2  0  0  0  0
  7  3  1  0  0  0  0
  7 15  1  0  0  0  0
  8 16  1  0  0  0  0
  9  5  1  0  0  0  0
 11 14  1  1  0  0  0
 11 12  1  0  0  0  0
 12 16  1  6  0  0  0
 12  6  1  0  0  0  0
 13 10  1  0  0  0  0
 13 17  2  0  0  0  0
 14 13  1  0  0  0  0
 15 11  1  0  0  0  0
 18 20  1  0  0  0  0
 18 10  1  0  0  0  0
 19 18  2  0  0  0  0
 20 21  1  0  0  0  0
 22 25  1  0  0  0  0
 23 22  1  0  0  0  0
 23 27  1  0  0  0  0
 25 24  1  0  0  0  0
 25 21  1  0  0  0  0
 26 27  2  0  0  0  0
 27 24  1  0  0  0  0
 28 19  1  0  0  0  0
 29 28  1  0  0  0  0
 30 29  1  0  0  0  0
 32 34  1  0  0  0  0
 32 37  1  0  0  0  0
 33 36  1  0  0  0  0
 34 31  1  6  0  0  0
 34 33  1  0  0  0  0
 35 36  1  0  0  0  0
 36 30  1  1  0  0  0
 37 38  1  1  0  0  0
 37 35  1  0  0  0  0
 38 39  1  0  0  0  0
 40 47  1  1  0  0  0
 40  9  1  0  0  0  0
 41 42  1  0  0  0  0
 43 46  1  0  0  0  0
 44 41  1  0  0  0  0
 44 43  1  0  0  0  0
 45 44  1  0  0  0  0
 46 42  1  0  0  0  0
 46 40  1  1  0  0  0
 48 47  1  0  0  0  0
 49 54  1  0  0  0  0
 51 48  1  0  0  0  0
 52 51  2  0  0  0  0
 53 50  1  1  0  0  0
 53 49  1  0  0  0  0
 53 52  1  0  0  0  0
 54 51  1  0  0  0  0
M  END
>  <MODEL>
2

>  <REMARK>
 VINA RESULT:      -3.1      1.697      2.620
  Name = 
  14 active torsions:
  status: ('A' for Active; 'I' for Inactive)
    1  A    between atoms: C_3  and  C_17
    2  A    between atoms: C_3  and  C_18
    3  A    between atoms: C_4  and  C_10
    4  A    between atoms: C_4  and  C_26
    5  A    between atoms: C_4  and  C_42
    6  A    between atoms: C_9  and  C_20
    7  A    between atoms: C_9  and  C_47
    8  A    between atoms: C_10  and  C_48
    9  A    between atoms: C_11  and  C_54
   10  A    between atoms: C_17  and  N_30
   11  A    between atoms: C_18  and  N_27
   12  A    between atoms: C_20  and  C_32
   13  A    between atoms: C_32  and  C_49
   14  A    between atoms: C_35  and  C_48
                            x       y       z     vdW  Elec       q    Type
                         _______ _______ _______ _____ _____    ______ ____

>  <TORSDO>
F 14

$$$$
=
 OpenBabel11072409593D

 54 60  0  0  1  0  0  0  0  0999 V2000
  161.3170  207.4200  149.5650 C   0  0  0  0  0  3  0  0  0  0  0  0
  161.0850  208.1610  148.4110 C   0  0  0  0  0  3  0  0  0  0  0  0
  161.6580  210.1980  149.6030 C   0  0  0  0  0  0  0  0  0  0  0  0
  158.9060  214.4510  148.1850 O   0  0  0  0  0  0  0  0  0  0  0  0
  161.8970  209.4430  150.7570 C   0  0  0  0  0  3  0  0  0  0  0  0
  159.6610  213.7160  147.4840 C   0  0  0  0  0  0  0  0  0  0  0  0
  161.2480  209.5480  148.4120 C   0  0  0  0  0  0  0  0  0  0  0  0
  161.8980  211.6710  149.6770 C   0  0  0  0  0  2  0  0  0  0  0  0
  161.7130  208.0570  150.7490 C   0  0  0  0  0  0  0  0  0  0  0  0
  161.0880  213.9510  144.0750 N   0  0  0  0  0  2  0  0  0  0  0  0
  161.0360  211.6310  147.0290 C   0  0  2  0  0  3  0  0  0  0  0  0
  160.0540  212.3470  147.9890 C   0  0  1  0  0  3  0  0  0  0  0  0
  160.6680  213.4070  145.3290 C   0  0  0  0  0  0  0  0  0  0  0  0
  160.7260  211.9240  145.5730 C   0  0  0  0  0  2  0  0  0  0  0  0
  160.9720  210.2210  147.2150 O   0  0  0  0  0  0  0  0  0  0  0  0
  160.6150  212.4660  149.4190 C   0  0  0  0  0  2  0  0  0  0  0  0
  160.1070  214.1880  146.2040 N   0  0  0  0  0  0  0  0  0  0  0  0
  161.7600  213.1690  143.0790 C   0  0  0  0  0  0  0  0  0  0  0  0
  161.0390  212.3050  142.3560 C   0  0  0  0  0  3  0  0  0  0  0  0
  163.2340  213.3900  142.8560 C   0  0  0  0  0  2  0  0  0  0  0  0
  163.3970  214.2510  141.5790 C   0  0  0  0  0  2  0  0  0  0  0  0
  162.6430  214.2500  139.2070 C   0  0  0  0  0  2  0  0  0  0  0  0
  163.5230  214.4250  138.1120 O   0  0  0  0  0  0  0  0  0  0  0  0
  164.7860  213.4600  139.8400 C   0  0  0  0  0  2  0  0  0  0  0  0
  163.3900  213.5480  140.2770 N   0  0  0  0  0  0  0  0  0  0  0  0
  165.7820  214.0530  137.7240 O   0  0  0  0  0  0  0  0  0  0  0  0
  164.7680  213.9850  138.4690 C   0  0  0  0  0  0  0  0  0  0  0  0
  161.6090  211.3650  141.3370 C   0  0  0  0  0  2  0  0  0  0  0  0
  160.6420  211.1380  140.1820 C   0  0  0  0  0  2  0  0  0  0  0  0
  160.4670  212.3970  139.3420 C   0  0  0  0  0  2  0  0  0  0  0  0
  156.2670  213.5600  138.9470 O   0  0  0  0  0  1  0  0  0  0  0  0
  156.3730  211.1730  138.7140 C   0  0  0  0  0  2  0  0  0  0  0  0
  158.0370  212.4160  140.1130 C   0  0  0  0  0  2  0  0  0  0  0  0
  156.5950  212.3810  139.6230 C   0  0  1  0  0  3  0  0  0  0  0  0
  158.6530  211.9370  137.6300 C   0  0  0  0  0  2  0  0  0  0  0  0
  159.0130  212.6310  138.9490 C   0  0  2  0  0  3  0  0  0  0  0  0
  157.4910  210.9310  137.6790 C   0  0  1  0  0  3  0  0  0  0  0  0
  157.9830  209.4900  137.6540 C   0  0  0  0  0  2  0  0  0  0  0  0
  159.3560  209.4200  137.4380 O   0  0  0  0  0  1  0  0  0  0  0  0
  162.0770  207.2580  151.9720 C   0  0  1  0  0  3  0  0  0  0  0  0
  160.4580  208.9920  154.7670 N   0  0  0  0  0  2  0  0  0  0  0  0
  160.7300  208.8920  153.3480 C   0  0  0  0  0  2  0  0  0  0  0  0
  161.5980  207.0380  154.3910 N   0  0  0  0  0  2  0  0  0  0  0  0
  160.9070  207.7890  155.3630 N   0  0  0  0  0  0  0  0  0  0  0  0
  161.8730  208.1580  156.3880 C   0  0  0  0  0  1  0  0  0  0  0  0
  161.0630  207.4570  153.1150 C   0  0  2  0  0  3  0  0  0  0  0  0
  162.3510  205.8050  151.5300 C   0  0  0  0  0  2  0  0  0  0  0  0
  161.3070  204.7540  151.9070 C   0  0  0  0  0  2  0  0  0  0  0  0
  160.7660  201.2760  149.8860 S   0  0  0  0  0  0  0  0  0  0  0  0
  160.6240  202.9200  147.6950 C   0  0  0  0  0  1  0  0  0  0  0  0
  161.2340  203.6300  150.9190 C   0  0  0  0  0  0  0  0  0  0  0  0
  161.6580  203.7830  149.7130 N   0  0  0  0  0  0  0  0  0  0  0  0
  161.5260  202.6010  148.8690 C   0  0  1  0  0  3  0  0  0  0  0  0
  160.6810  202.3970  151.2130 O   0  0  0  0  0  0  0  0  0  0  0  0
  1  9  1  0  0  0  0
  2  7  1  0  0  0  0
  2  1  2  0  0  0  0
  3  8  1  0  0  0  0
  3  5  1  0  0  0  0
  6 12  1  0  0  0  0
  6  4  2  0  0  0  0
  7  3  2  0  0  0  0
  9  5  2  0  0  0  0
  9 40  1  0  0  0  0
 10 13  1  0  0  0  0
 11 14  1  6  0  0  0
 11 15  1  0  0  0  0
 11 12  1  0  0  0  0
 12 16  1  1  0  0  0
 13 14  1  0  0  0  0
 13 17  2  0  0  0  0
 15  7  1  0  0  0  0
 16  8  1  0  0  0  0
 17  6  1  0  0  0  0
 18 10  1  0  0  0  0
 19 18  2  0  0  0  0
 20 18  1  0  0  0  0
 21 20  1  0  0  0  0
 22 25  1  0  0  0  0
 23 27  1  0  0  0  0
 23 22  1  0  0  0  0
 24 25  1  0  0  0  0
 25 21  1  0  0  0  0
 26 27  2  0  0  0  0
 27 24  1  0  0  0  0
 28 19  1  0  0  0  0
 29 28  1  0  0  0  0
 30 29  1  0  0  0  0
 32 34  1  0  0  0  0
 34 31  1  6  0  0  0
 34 33  1  0  0  0  0
 35 37  1  0  0  0  0
 35 36  1  0  0  0  0
 36 30  1  1  0  0  0
 36 33  1  0  0  0  0
 37 38  1  1  0  0  0
 37 32  1  0  0  0  0
 39 38  1  0  0  0  0
 40 47  1  6  0  0  0
 41 44  1  0  0  0  0
 42 41  1  0  0  0  0
 43 44  1  0  0  0  0
 44 45  1  0  0  0  0
 46 40  1  6  0  0  0
 46 42  1  0  0  0  0
 46 43  1  0  0  0  0
 47 48  1  0  0  0  0
 49 54  1  0  0  0  0
 51 54  1  0  0  0  0
 51 48  1  0  0  0  0
 52 51  2  0  0  0  0
 53 50  1  6  0  0  0
 53 52  1  0  0  0  0
 53 49  1  0  0  0  0
M  END
>  <MODEL>
3

>  <REMARK>
 VINA RESULT:      -3.0      5.722     10.505
  Name = 
  14 active torsions:
  status: ('A' for Active; 'I' for Inactive)
    1  A    between atoms: C_3  and  C_17
    2  A    between atoms: C_3  and  C_18
    3  A    between atoms: C_4  and  C_10
    4  A    between atoms: C_4  and  C_26
    5  A    between atoms: C_4  and  C_42
    6  A    between atoms: C_9  and  C_20
    7  A    between atoms: C_9  and  C_47
    8  A    between atoms: C_10  and  C_48
    9  A    between atoms: C_11  and  C_54
   10  A    between atoms: C_17  and  N_30
   11  A    between atoms: C_18  and  N_27
   12  A    between atoms: C_20  and  C_32
   13  A    between atoms: C_32  and  C_49
   14  A    between atoms: C_35  and  C_48
                            x       y       z     vdW  Elec       q    Type
                         _______ _______ _______ _____ _____    ______ ____

>  <TORSDO>
F 14

$$$$
=
 OpenBabel11072409593D

 54 60  0  0  1  0  0  0  0  0999 V2000
  161.8190  209.3280  148.8500 C   0  0  0  0  0  3  0  0  0  0  0  0
  161.2100  209.7550  147.6740 C   0  0  0  0  0  3  0  0  0  0  0  0
  160.8900  211.9600  148.6390 C   0  0  0  0  0  0  0  0  0  0  0  0
  156.4520  214.3930  147.2050 O   0  0  0  0  0  0  0  0  0  0  0  0
  161.5120  211.5240  149.8160 C   0  0  0  0  0  3  0  0  0  0  0  0
  157.4100  213.9850  146.4850 C   0  0  0  0  0  0  0  0  0  0  0  0
  160.7380  211.0640  147.5520 C   0  0  0  0  0  0  0  0  0  0  0  0
  160.4560  213.3890  148.5740 C   0  0  0  0  0  2  0  0  0  0  0  0
  161.9640  210.2060  149.9330 C   0  0  0  0  0  0  0  0  0  0  0  0
  158.3670  214.4220  142.9350 N   0  0  0  0  0  2  0  0  0  0  0  0
  159.5370  212.6700  146.0460 C   0  0  2  0  0  3  0  0  0  0  0  0
  158.4010  212.9930  147.0480 C   0  0  1  0  0  3  0  0  0  0  0  0
  158.3120  213.8980  144.2650 C   0  0  0  0  0  0  0  0  0  0  0  0
  159.0380  212.6280  144.6130 C   0  0  0  0  0  2  0  0  0  0  0  0
  160.1180  211.4060  146.3440 O   0  0  0  0  0  0  0  0  0  0  0  0
  158.9390  213.5090  148.3960 C   0  0  0  0  0  2  0  0  0  0  0  0
  157.5190  214.4530  145.1330 N   0  0  0  0  0  0  0  0  0  0  0  0
  159.2530  213.9010  141.9350 C   0  0  0  0  0  0  0  0  0  0  0  0
  158.7600  213.0460  141.0320 C   0  0  0  0  0  3  0  0  0  0  0  0
  160.6820  214.3780  141.9130 C   0  0  0  0  0  2  0  0  0  0  0  0
  161.1700  214.3490  140.4430 C   0  0  0  0  0  2  0  0  0  0  0  0
  162.7920  212.5210  140.9170 C   0  0  0  0  0  2  0  0  0  0  0  0
  163.1540  211.5370  139.9650 O   0  0  0  0  0  0  0  0  0  0  0  0
  162.5580  213.4570  138.7520 C   0  0  0  0  0  2  0  0  0  0  0  0
  162.5090  213.7770  140.1810 N   0  0  0  0  0  0  0  0  0  0  0  0
  163.2090  211.4130  137.6470 O   0  0  0  0  0  0  0  0  0  0  0  0
  163.0100  212.0610  138.7090 C   0  0  0  0  0  0  0  0  0  0  0  0
  159.5750  212.3580  139.9790 C   0  0  0  0  0  2  0  0  0  0  0  0
  158.7240  211.9760  138.7750 C   0  0  0  0  0  2  0  0  0  0  0  0
  157.9980  213.1840  138.1960 C   0  0  0  0  0  2  0  0  0  0  0  0
  153.6230  213.2170  138.0910 O   0  0  0  0  0  1  0  0  0  0  0  0
  154.3020  211.0800  138.9480 C   0  0  0  0  0  2  0  0  0  0  0  0
  155.7030  213.1250  139.3040 C   0  0  0  0  0  2  0  0  0  0  0  0
  154.2830  212.5940  139.1550 C   0  0  1  0  0  3  0  0  0  0  0  0
  156.2350  211.6300  137.2400 C   0  0  0  0  0  2  0  0  0  0  0  0
  156.5060  212.9280  138.0120 C   0  0  2  0  0  3  0  0  0  0  0  0
  155.3660  210.5790  137.9500 C   0  0  1  0  0  3  0  0  0  0  0  0
  156.1980  209.4230  138.4900 C   0  0  0  0  0  2  0  0  0  0  0  0
  155.6050  208.8420  139.6070 O   0  0  0  0  0  1  0  0  0  0  0  0
  162.7200  209.7930  151.1670 C   0  0  1  0  0  3  0  0  0  0  0  0
  161.1760  210.3440  154.4460 N   0  0  0  0  0  2  0  0  0  0  0  0
  162.2360  209.7670  153.6450 C   0  0  0  0  0  2  0  0  0  0  0  0
  160.9290  211.0830  152.2890 N   0  0  0  0  0  2  0  0  0  0  0  0
  160.4580  211.2310  153.6080 N   0  0  0  0  0  0  0  0  0  0  0  0
  159.0690  210.7930  153.6190 C   0  0  0  0  0  1  0  0  0  0  0  0
  162.2860  210.5970  152.4070 C   0  0  2  0  0  3  0  0  0  0  0  0
  162.6550  208.2550  151.2760 C   0  0  0  0  0  2  0  0  0  0  0  0
  161.2870  207.6340  151.5580 C   0  0  0  0  0  2  0  0  0  0  0  0
  161.1710  204.2990  149.2500 S   0  0  0  0  0  0  0  0  0  0  0  0
  161.5270  202.9970  151.6380 C   0  0  0  0  0  1  0  0  0  0  0  0
  161.1400  206.2640  150.9710 C   0  0  0  0  0  0  0  0  0  0  0  0
  160.7130  205.2830  151.6860 N   0  0  0  0  0  0  0  0  0  0  0  0
  160.6190  204.0120  150.9760 C   0  0  1  0  0  3  0  0  0  0  0  0
  161.4830  205.9580  149.6660 O   0  0  0  0  0  0  0  0  0  0  0  0
  1  9  1  0  0  0  0
  2  1  2  0  0  0  0
  3  5  1  0  0  0  0
  5  9  2  0  0  0  0
  6 12  1  0  0  0  0
  6  4  2  0  0  0  0
  7  2  1  0  0  0  0
  7  3  2  0  0  0  0
  8  3  1  0  0  0  0
  9 40  1  0  0  0  0
 10 13  1  0  0  0  0
 11 14  1  6  0  0  0
 11 15  1  0  0  0  0
 11 12  1  0  0  0  0
 12 16  1  1  0  0  0
 13 14  1  0  0  0  0
 13 17  2  0  0  0  0
 15  7  1  0  0  0  0
 16  8  1  0  0  0  0
 17  6  1  0  0  0  0
 18 10  1  0  0  0  0
 19 18  2  0  0  0  0
 20 18  1  0  0  0  0
 21 20  1  0  0  0  0
 23 22  1  0  0  0  0
 24 25  1  0  0  0  0
 25 21  1  0  0  0  0
 25 22  1  0  0  0  0
 26 27  2  0  0  0  0
 27 24  1  0  0  0  0
 27 23  1  0  0  0  0
 28 19  1  0  0  0  0
 29 28  1  0  0  0  0
 30 29  1  0  0  0  0
 32 34  1  0  0  0  0
 34 31  1  6  0  0  0
 34 33  1  0  0  0  0
 35 37  1  0  0  0  0
 35 36  1  0  0  0  0
 36 30  1  1  0  0  0
 36 33  1  0  0  0  0
 37 38  1  1  0  0  0
 37 32  1  0  0  0  0
 38 39  1  0  0  0  0
 40 47  1  1  0  0  0
 42 41  1  0  0  0  0
 43 46  1  0  0  0  0
 43 44  1  0  0  0  0
 44 45  1  0  0  0  0
 44 41  1  0  0  0  0
 46 40  1  6  0  0  0
 46 42  1  0  0  0  0
 47 48  1  0  0  0  0
 49 54  1  0  0  0  0
 49 53  1  0  0  0  0
 51 48  1  0  0  0  0
 51 52  2  0  0  0  0
 53 50  1  1  0  0  0
 53 52  1  0  0  0  0
 54 51  1  0  0  0  0
M  END
>  <MODEL>
4

>  <REMARK>
 VINA RESULT:      -2.2      6.010     11.120
  Name = 
  14 active torsions:
  status: ('A' for Active; 'I' for Inactive)
    1  A    between atoms: C_3  and  C_17
    2  A    between atoms: C_3  and  C_18
    3  A    between atoms: C_4  and  C_10
    4  A    between atoms: C_4  and  C_26
    5  A    between atoms: C_4  and  C_42
    6  A    between atoms: C_9  and  C_20
    7  A    between atoms: C_9  and  C_47
    8  A    between atoms: C_10  and  C_48
    9  A    between atoms: C_11  and  C_54
   10  A    between atoms: C_17  and  N_30
   11  A    between atoms: C_18  and  N_27
   12  A    between atoms: C_20  and  C_32
   13  A    between atoms: C_32  and  C_49
   14  A    between atoms: C_35  and  C_48
                            x       y       z     vdW  Elec       q    Type
                         _______ _______ _______ _____ _____    ______ ____

>  <TORSDO>
F 14

$$$$
=
 OpenBabel11072409593D

 54 60  0  0  1  0  0  0  0  0999 V2000
  161.7340  205.1480  151.9340 C   0  0  0  0  0  3  0  0  0  0  0  0
  161.5070  206.4880  152.2340 C   0  0  0  0  0  3  0  0  0  0  0  0
  161.2730  206.9800  149.8670 C   0  0  0  0  0  0  0  0  0  0  0  0
  163.1160  211.6770  148.3790 O   0  0  0  0  0  0  0  0  0  0  0  0
  161.4930  205.6280  149.5750 C   0  0  0  0  0  3  0  0  0  0  0  0
  162.2060  211.4020  149.2160 C   0  0  0  0  0  0  0  0  0  0  0  0
  161.2780  207.4160  151.2160 C   0  0  0  0  0  0  0  0  0  0  0  0
  160.9900  207.8980  148.7230 C   0  0  0  0  0  2  0  0  0  0  0  0
  161.7400  204.7110  150.6020 C   0  0  0  0  0  0  0  0  0  0  0  0
  159.6700  213.3830  151.0480 N   0  0  0  0  0  2  0  0  0  0  0  0
  160.8780  209.8410  150.7140 C   0  0  2  0  0  3  0  0  0  0  0  0
  162.0910  209.9990  149.7640 C   0  0  1  0  0  3  0  0  0  0  0  0
  160.5310  212.3030  150.6760 C   0  0  0  0  0  0  0  0  0  0  0  0
  160.6450  211.0850  151.5520 C   0  0  0  0  0  2  0  0  0  0  0  0
  161.0810  208.7480  151.6020 O   0  0  0  0  0  0  0  0  0  0  0  0
  162.0580  208.9910  148.6000 C   0  0  0  0  0  2  0  0  0  0  0  0
  161.3160  212.4410  149.6500 N   0  0  0  0  0  0  0  0  0  0  0  0
  158.7380  213.2910  152.1340 C   0  0  0  0  0  0  0  0  0  0  0  0
  159.1740  212.8190  153.3070 C   0  0  0  0  0  3  0  0  0  0  0  0
  157.3280  213.7770  151.9220 C   0  0  0  0  0  2  0  0  0  0  0  0
  157.2620  214.4470  150.5260 C   0  0  0  0  0  2  0  0  0  0  0  0
  155.6400  214.4520  148.6390 C   0  0  0  0  0  2  0  0  0  0  0  0
  156.0300  214.3770  147.2790 O   0  0  0  0  0  0  0  0  0  0  0  0
  157.6990  213.2850  148.5170 C   0  0  0  0  0  2  0  0  0  0  0  0
  156.6260  213.6810  149.4330 N   0  0  0  0  0  0  0  0  0  0  0  0
  157.8570  213.5330  146.1220 O   0  0  0  0  0  0  0  0  0  0  0  0
  157.2250  213.7170  147.1970 C   0  0  0  0  0  0  0  0  0  0  0  0
  158.3060  212.5900  154.5070 C   0  0  0  0  0  2  0  0  0  0  0  0
  159.0890  211.9600  155.6520 C   0  0  0  0  0  2  0  0  0  0  0  0
  158.4700  210.6410  156.0950 C   0  0  0  0  0  2  0  0  0  0  0  0
  160.5420  206.7940  155.8460 O   0  0  0  0  0  1  0  0  0  0  0  0
  162.1730  208.4460  156.4550 C   0  0  0  0  0  2  0  0  0  0  0  0
  159.7690  208.6940  157.1080 C   0  0  0  0  0  2  0  0  0  0  0  0
  160.8960  207.7040  156.8460 C   0  0  1  0  0  3  0  0  0  0  0  0
  160.5490  209.8200  154.8950 C   0  0  0  0  0  2  0  0  0  0  0  0
  159.3900  209.4540  155.8300 C   0  0  2  0  0  3  0  0  0  0  0  0
  161.9680  209.5900  155.4400 C   0  0  1  0  0  3  0  0  0  0  0  0
  162.6360  210.8920  155.8610 C   0  0  0  0  0  2  0  0  0  0  0  0
  162.4590  211.1450  157.2180 O   0  0  0  0  0  1  0  0  0  0  0  0
  161.8700  203.2490  150.2690 C   0  0  1  0  0  3  0  0  0  0  0  0
  159.5480  200.4120  150.2810 N   0  0  0  0  0  2  0  0  0  0  0  0
  160.8340  200.9750  150.6360 C   0  0  0  0  0  2  0  0  0  0  0  0
  159.5280  202.6420  149.7430 N   0  0  0  0  0  2  0  0  0  0  0  0
  158.7340  201.4820  149.8370 N   0  0  0  0  0  0  0  0  0  0  0  0
  158.2960  201.1500  148.4880 C   0  0  0  0  0  1  0  0  0  0  0  0
  160.6170  202.4500  150.6750 C   0  0  2  0  0  3  0  0  0  0  0  0
  162.3250  203.1320  148.7990 C   0  0  0  0  0  2  0  0  0  0  0  0
  161.2950  202.6230  147.7900 C   0  0  0  0  0  2  0  0  0  0  0  0
  160.7590  204.2670  144.1190 S   0  0  0  0  0  0  0  0  0  0  0  0
  160.3130  206.5680  145.5440 C   0  0  0  0  0  1  0  0  0  0  0  0
  161.1910  203.4960  146.5770 C   0  0  0  0  0  0  0  0  0  0  0  0
  161.4870  204.7470  146.6380 N   0  0  0  0  0  0  0  0  0  0  0  0
  161.3410  205.4670  145.3780 C   0  0  1  0  0  3  0  0  0  0  0  0
  160.7400  203.0410  145.3520 O   0  0  0  0  0  0  0  0  0  0  0  0
  1  2  1  0  0  0  0
  3  7  1  0  0  0  0
  4  6  2  0  0  0  0
  5  3  2  0  0  0  0
  5  9  1  0  0  0  0
  6 17  1  0  0  0  0
  6 12  1  0  0  0  0
  7 15  1  0  0  0  0
  7  2  2  0  0  0  0
  8  3  1  0  0  0  0
  9  1  2  0  0  0  0
 10 18  1  0  0  0  0
 11 14  1  1  0  0  0
 11 15  1  0  0  0  0
 12 16  1  6  0  0  0
 12 11  1  0  0  0  0
 13 10  1  0  0  0  0
 13 14  1  0  0  0  0
 16  8  1  0  0  0  0
 17 13  2  0  0  0  0
 18 19  2  0  0  0  0
 19 28  1  0  0  0  0
 20 18  1  0  0  0  0
 21 20  1  0  0  0  0
 22 25  1  0  0  0  0
 23 22  1  0  0  0  0
 24 25  1  0  0  0  0
 25 21  1  0  0  0  0
 26 27  2  0  0  0  0
 27 23  1  0  0  0  0
 27 24  1  0  0  0  0
 28 29  1  0  0  0  0
 29 30  1  0  0  0  0
 32 34  1  0  0  0  0
 34 31  1  6  0  0  0
 34 33  1  0  0  0  0
 35 37  1  0  0  0  0
 35 36  1  0  0  0  0
 36 30  1  1  0  0  0
 36 33  1  0  0  0  0
 37 38  1  1  0  0  0
 37 32  1  0  0  0  0
 38 39  1  0  0  0  0
 40 47  1  6  0  0  0
 40  9  1  0  0  0  0
 41 42  1  0  0  0  0
 42 46  1  0  0  0  0
 43 44  1  0  0  0  0
 43 46  1  0  0  0  0
 44 41  1  0  0  0  0
 45 44  1  0  0  0  0
 46 40  1  6  0  0  0
 48 47  1  0  0  0  0
 49 54  1  0  0  0  0
 49 53  1  0  0  0  0
 51 52  2  0  0  0  0
 51 48  1  0  0  0  0
 53 50  1  1  0  0  0
 53 52  1  0  0  0  0
 54 51  1  0  0  0  0
M  END
>  <MODEL>
5

>  <REMARK>
 VINA RESULT:      -2.0      2.577      5.792
  Name = 
  14 active torsions:
  status: ('A' for Active; 'I' for Inactive)
    1  A    between atoms: C_3  and  C_17
    2  A    between atoms: C_3  and  C_18
    3  A    between atoms: C_4  and  C_10
    4  A    between atoms: C_4  and  C_26
    5  A    between atoms: C_4  and  C_42
    6  A    between atoms: C_9  and  C_20
    7  A    between atoms: C_9  and  C_47
    8  A    between atoms: C_10  and  C_48
    9  A    between atoms: C_11  and  C_54
   10  A    between atoms: C_17  and  N_30
   11  A    between atoms: C_18  and  N_27
   12  A    between atoms: C_20  and  C_32
   13  A    between atoms: C_32  and  C_49
   14  A    between atoms: C_35  and  C_48
                            x       y       z     vdW  Elec       q    Type
                         _______ _______ _______ _____ _____    ______ ____

>  <TORSDO>
F 14

$$$$
=
 OpenBabel11072409593D

 54 60  0  0  1  0  0  0  0  0999 V2000
  160.2390  205.2320  149.0140 C   0  0  0  0  0  3  0  0  0  0  0  0
  159.8330  206.2950  149.8140 C   0  0  0  0  0  3  0  0  0  0  0  0
  161.6310  205.8090  151.3730 C   0  0  0  0  0  0  0  0  0  0  0  0
  160.4760  206.6630  156.4340 O   0  0  0  0  0  0  0  0  0  0  0  0
  162.0370  204.7460  150.5570 C   0  0  0  0  0  3  0  0  0  0  0  0
  160.4790  207.4780  155.4650 C   0  0  0  0  0  0  0  0  0  0  0  0
  160.5140  206.5960  150.9960 C   0  0  0  0  0  0  0  0  0  0  0  0
  162.4410  206.0920  152.5970 C   0  0  0  0  0  2  0  0  0  0  0  0
  161.3370  204.4430  149.3860 C   0  0  0  0  0  0  0  0  0  0  0  0
  160.2010  211.1580  155.1560 N   0  0  0  0  0  2  0  0  0  0  0  0
  160.5540  208.0990  153.0040 C   0  0  2  0  0  3  0  0  0  0  0  0
  160.4770  206.9560  154.0470 C   0  0  1  0  0  3  0  0  0  0  0  0
  160.2060  209.7700  154.8120 C   0  0  0  0  0  0  0  0  0  0  0  0
  159.7730  209.3240  153.4420 C   0  0  0  0  0  2  0  0  0  0  0  0
  160.0270  207.6680  151.7550 O   0  0  0  0  0  0  0  0  0  0  0  0
  161.6100  205.9280  153.8730 C   0  0  0  0  0  2  0  0  0  0  0  0
  160.4550  208.8880  155.7340 N   0  0  0  0  0  0  0  0  0  0  0  0
  159.9870  212.1940  154.1890 C   0  0  0  0  0  0  0  0  0  0  0  0
  160.3280  211.9570  152.9170 C   0  0  0  0  0  3  0  0  0  0  0  0
  159.3440  213.4810  154.6350 C   0  0  0  0  0  2  0  0  0  0  0  0
  158.6300  213.2120  155.9840 C   0  0  0  0  0  2  0  0  0  0  0  0
  156.5340  213.5930  154.6970 C   0  0  0  0  0  2  0  0  0  0  0  0
  155.6940  212.5440  154.2530 O   0  0  0  0  0  0  0  0  0  0  0  0
  156.7740  211.7660  156.1870 C   0  0  0  0  0  2  0  0  0  0  0  0
  157.1520  213.1650  155.9750 N   0  0  0  0  0  0  0  0  0  0  0  0
  155.2500  210.3710  154.9400 O   0  0  0  0  0  0  0  0  0  0  0  0
  155.8330  211.4770  155.0970 C   0  0  0  0  0  0  0  0  0  0  0  0
  160.2400  212.9640  151.8110 C   0  0  0  0  0  2  0  0  0  0  0  0
  158.8540  212.9780  151.1770 C   0  0  0  0  0  2  0  0  0  0  0  0
  158.8660  213.6680  149.8190 C   0  0  0  0  0  2  0  0  0  0  0  0
  162.8860  212.9630  148.2390 O   0  0  0  0  0  1  0  0  0  0  0  0
  161.7110  214.3040  146.6320 C   0  0  0  0  0  2  0  0  0  0  0  0
  161.1790  214.4430  149.0750 C   0  0  0  0  0  2  0  0  0  0  0  0
  162.2780  214.2080  148.0470 C   0  0  1  0  0  3  0  0  0  0  0  0
  159.7800  212.8020  147.6170 C   0  0  0  0  0  2  0  0  0  0  0  0
  160.1180  213.3360  149.0140 C   0  0  2  0  0  3  0  0  0  0  0  0
  160.3660  213.5780  146.4260 C   0  0  1  0  0  3  0  0  0  0  0  0
  159.3170  214.4410  145.7360 C   0  0  0  0  0  2  0  0  0  0  0  0
  158.0830  214.3560  146.3730 O   0  0  0  0  0  1  0  0  0  0  0  0
  161.8560  203.3630  148.4750 C   0  0  1  0  0  3  0  0  0  0  0  0
  159.2580  200.9520  149.4110 N   0  0  0  0  0  2  0  0  0  0  0  0
  159.8370  201.8470  148.4310 C   0  0  0  0  0  2  0  0  0  0  0  0
  161.2370  201.7520  150.2500 N   0  0  0  0  0  2  0  0  0  0  0  0
  160.1940  200.8310  150.4670 N   0  0  0  0  0  0  0  0  0  0  0  0
  159.5090  201.2360  151.6870 C   0  0  0  0  0  1  0  0  0  0  0  0
  161.2690  201.9820  148.8230 C   0  0  2  0  0  3  0  0  0  0  0  0
  161.6880  203.8440  147.0180 C   0  0  0  0  0  2  0  0  0  0  0  0
  162.6810  204.8910  146.5120 C   0  0  0  0  0  2  0  0  0  0  0  0
  161.0130  208.5340  147.1550 S   0  0  0  0  0  0  0  0  0  0  0  0
  162.3890  208.4130  149.5250 C   0  0  0  0  0  1  0  0  0  0  0  0
  162.3200  206.2830  146.9310 C   0  0  0  0  0  0  0  0  0  0  0  0
  163.0880  206.9560  147.7150 N   0  0  0  0  0  0  0  0  0  0  0  0
  162.6070  208.2960  148.0310 C   0  0  1  0  0  3  0  0  0  0  0  0
  161.1480  206.9100  146.5490 O   0  0  0  0  0  0  0  0  0  0  0  0
  1  9  2  0  0  0  0
  1  2  1  0  0  0  0
  2  7  2  0  0  0  0
  3  8  1  0  0  0  0
  5  3  2  0  0  0  0
  6 17  1  0  0  0  0
  6  4  2  0  0  0  0
  7  3  1  0  0  0  0
  7 15  1  0  0  0  0
  8 16  1  0  0  0  0
  9  5  1  0  0  0  0
 11 14  1  1  0  0  0
 11 12  1  0  0  0  0
 12 16  1  1  0  0  0
 12  6  1  0  0  0  0
 13 10  1  0  0  0  0
 13 17  2  0  0  0  0
 14 13  1  0  0  0  0
 15 11  1  0  0  0  0
 18 20  1  0  0  0  0
 18 10  1  0  0  0  0
 19 18  2  0  0  0  0
 20 21  1  0  0  0  0
 22 25  1  0  0  0  0
 23 22  1  0  0  0  0
 23 27  1  0  0  0  0
 25 21  1  0  0  0  0
 25 24  1  0  0  0  0
 26 27  2  0  0  0  0
 27 24  1  0  0  0  0
 28 19  1  0  0  0  0
 29 28  1  0  0  0  0
 30 29  1  0  0  0  0
 32 34  1  0  0  0  0
 34 31  1  1  0  0  0
 34 33  1  0  0  0  0
 35 36  1  0  0  0  0
 36 33  1  0  0  0  0
 36 30  1  6  0  0  0
 37 38  1  1  0  0  0
 37 32  1  0  0  0  0
 37 35  1  0  0  0  0
 38 39  1  0  0  0  0
 40 47  1  6  0  0  0
 40  9  1  0  0  0  0
 41 44  1  0  0  0  0
 42 46  1  0  0  0  0
 42 41  1  0  0  0  0
 43 44  1  0  0  0  0
 44 45  1  0  0  0  0
 46 40  1  1  0  0  0
 46 43  1  0  0  0  0
 48 51  1  0  0  0  0
 48 47  1  0  0  0  0
 49 53  1  0  0  0  0
 51 52  2  0  0  0  0
 52 53  1  0  0  0  0
 53 50  1  1  0  0  0
 54 51  1  0  0  0  0
 54 49  1  0  0  0  0
M  END
>  <MODEL>
6

>  <REMARK>
 VINA RESULT:      -1.1      1.590      2.451
  Name = 
  14 active torsions:
  status: ('A' for Active; 'I' for Inactive)
    1  A    between atoms: C_3  and  C_17
    2  A    between atoms: C_3  and  C_18
    3  A    between atoms: C_4  and  C_10
    4  A    between atoms: C_4  and  C_26
    5  A    between atoms: C_4  and  C_42
    6  A    between atoms: C_9  and  C_20
    7  A    between atoms: C_9  and  C_47
    8  A    between atoms: C_10  and  C_48
    9  A    between atoms: C_11  and  C_54
   10  A    between atoms: C_17  and  N_30
   11  A    between atoms: C_18  and  N_27
   12  A    between atoms: C_20  and  C_32
   13  A    between atoms: C_32  and  C_49
   14  A    between atoms: C_35  and  C_48
                            x       y       z     vdW  Elec       q    Type
                         _______ _______ _______ _____ _____    ______ ____

>  <TORSDO>
F 14

$$$$
