=
 OpenBabel11072410353D

 54 60  0  0  1  0  0  0  0  0999 V2000
  162.2250  206.2530  148.1870 C   0  0  2  0  0  3  0  0  0  0  0  0
  160.8600  208.2820  154.3540 C   0  0  0  0  0  0  0  0  0  0  0  0
  162.2470  208.2350  150.1530 C   0  0  2  0  0  3  0  0  0  0  0  0
  162.0320  207.0010  151.0800 C   0  0  1  0  0  3  0  0  0  0  0  0
  159.5800  208.0830  154.8490 F   0  0  0  0  0  0  0  0  0  0  0  0
  162.3180  205.3120  147.0480 C   0  0  0  0  0  0  0  0  0  0  0  0
  160.9430  209.5030  153.4260 C   0  0  1  0  0  3  0  0  0  0  0  0
  161.2280  207.1500  153.4570 C   0  0  2  0  0  3  0  0  0  0  0  0
  162.9600  205.5360  145.9900 O   0  0  0  0  0  0  0  0  0  0  0  0
  160.8080  208.9360  152.0180 C   0  0  1  0  0  3  0  0  0  0  0  0
  161.9430  205.9280  153.9410 C   0  0  0  0  0  1  0  0  0  0  0  0
  161.6780  204.0780  147.3120 N   0  0  0  0  0  0  0  0  0  0  0  0
  161.2010  205.5510  149.0800 C   0  0  1  0  0  3  0  0  0  0  0  0
  161.9130  209.4180  151.0860 C   0  0  2  0  0  3  0  0  0  0  0  0
  159.8580  210.5330  153.6980 C   0  0  0  0  0  1  0  0  0  0  0  0
  160.8560  204.8680  151.3480 O   0  0  0  0  0  1  0  0  0  0  0  0
  161.3100  208.2470  148.9220 C   0  0  0  0  0  2  0  0  0  0  0  0
  161.1040  204.1840  148.4650 C   0  0  0  0  0  0  0  0  0  0  0  0
  161.1490  207.5110  152.1780 C   0  0  1  0  0  3  0  0  0  0  0  0
  161.7600  208.4130  155.3960 F   0  0  0  0  0  0  0  0  0  0  0  0
  161.7210  205.5780  150.5120 C   0  0  2  0  0  3  0  0  0  0  0  0
  160.3140  203.1320  149.0320 N   0  0  0  0  0  2  0  0  0  0  0  0
  161.8110  207.5430  147.7970 O   0  0  0  0  0  0  0  0  0  0  0  0
  159.8890  201.8880  146.9590 C   0  0  0  0  0  2  0  0  0  0  0  0
  160.1420  201.8020  148.4520 C   0  0  1  0  0  0  0  0  0  0  0  0
  161.9170  199.0080  147.3820 F   0  0  0  0  0  0  0  0  0  0  0  0
  161.3910  200.9570  148.6380 C   0  0  0  0  0  2  0  0  0  0  0  0
  160.5640  200.6720  146.3670 C   0  0  0  0  0  2  0  0  0  0  0  0
  161.7360  200.3760  147.2780 C   0  0  2  0  0  3  0  0  0  0  0  0
  159.0630  201.1670  149.0660 O   0  0  0  0  0  1  0  0  0  0  0  0
  161.6520  210.7550  150.4390 C   0  0  0  0  0  0  0  0  0  0  0  0
  161.1330  211.7750  151.1270 C   0  0  0  0  0  2  0  0  0  0  0  0
  162.2070  211.0010  149.0740 C   0  0  0  0  0  2  0  0  0  0  0  0
  160.1950  212.0600  148.0370 C   0  0  0  0  0  1  0  0  0  0  0  0
  161.6360  212.2790  148.4640 C   0  0  2  0  0  3  0  0  0  0  0  0
  162.4640  212.7680  147.2740 C   0  0  2  0  0  3  0  0  0  0  0  0
  163.1870  213.9240  147.5880 O   0  0  0  0  0  1  0  0  0  0  0  0
  162.4800  213.1420  144.8270 C   0  0  0  0  0  3  0  0  0  0  0  0
  160.7350  214.1270  146.1630 N   0  0  0  0  0  0  0  0  0  0  0  0
  159.6090  213.7160  144.0320 C   0  0  0  0  0  2  0  0  0  0  0  0
  159.8290  214.4520  145.2930 C   0  0  0  0  0  3  0  0  0  0  0  0
  160.5370  213.1070  143.2800 C   0  0  0  0  0  0  0  0  0  0  0  0
  162.6190  213.1790  141.1090 C   0  0  0  0  0  2  0  0  0  0  0  0
  160.0360  212.3280  142.1830 N   0  0  0  0  0  0  0  0  0  0  0  0
  162.2410  211.7140  141.0160 C   0  0  1  0  0  3  0  0  0  0  0  0
  162.0040  213.1980  143.5820 C   0  0  0  0  0  0  0  0  0  0  0  0
  160.1410  210.6640  140.5770 O   0  0  0  0  0  0  0  0  0  0  0  0
  160.7650  211.5410  141.2320 C   0  0  0  0  0  0  0  0  0  0  0  0
  163.0230  213.5260  142.5290 C   0  0  0  0  0  2  0  0  0  0  0  0
  161.6070  212.9660  146.0220 C   0  0  2  0  0  3  0  0  0  0  0  0
  161.4600  212.6060  138.3520 O   0  0  0  0  0  0  0  0  0  0  0  0
  162.2520  211.6320  138.4510 C   0  0  0  0  0  0  0  0  0  0  0  0
  162.6750  211.1570  139.7330 N   0  0  0  0  0  2  0  0  0  0  0  0
  162.7600  210.9700  137.2210 C   0  0  0  0  0  1  0  0  0  0  0  0
  1  6  1  6  0  0  0
  1 13  1  0  0  0  0
  2  5  1  0  0  0  0
  2 20  1  0  0  0  0
  3 17  1  6  0  0  0
  3  4  1  0  0  0  0
  3 14  1  0  0  0  0
  4 19  1  0  0  0  0
  6 12  1  0  0  0  0
  7 15  1  0  0  0  0
  7  2  1  0  0  0  0
  8 11  1  0  0  0  0
  8  2  1  0  0  0  0
  9  6  2  0  0  0  0
 10 19  1  0  0  0  0
 10  7  1  0  0  0  0
 12 18  2  0  0  0  0
 13 21  1  0  0  0  0
 14 10  1  0  0  0  0
 18 22  1  0  0  0  0
 18 13  1  0  0  0  0
 19  8  1  0  0  0  0
 21  4  1  0  0  0  0
 21 16  1  0  0  0  0
 23  1  1  0  0  0  0
 23 17  1  0  0  0  0
 24 25  1  0  0  0  0
 25 27  1  0  0  0  0
 25 22  1  0  0  0  0
 25 30  1  0  0  0  0
 28 24  1  0  0  0  0
 28 29  1  0  0  0  0
 29 26  1  0  0  0  0
 29 27  1  0  0  0  0
 31 14  1  0  0  0  0
 31 32  2  0  0  0  0
 33 31  1  0  0  0  0
 34 35  1  0  0  0  0
 35 33  1  0  0  0  0
 36 37  1  0  0  0  0
 36 35  1  0  0  0  0
 38 50  1  0  0  0  0
 40 41  1  0  0  0  0
 41 39  2  0  0  0  0
 42 46  1  0  0  0  0
 42 40  1  0  0  0  0
 43 49  1  0  0  0  0
 44 42  2  0  0  0  0
 45 43  1  0  0  0  0
 45 48  1  0  0  0  0
 46 38  2  0  0  0  0
 47 48  2  0  0  0  0
 48 44  1  0  0  0  0
 49 46  1  0  0  0  0
 50 39  1  0  0  0  0
 50 36  1  0  0  0  0
 51 52  2  0  0  0  0
 52 53  1  0  0  0  0
 53 45  1  0  0  0  0
 54 52  1  0  0  0  0
M  END
>  <MODEL>
1

>  <REMARK>
 VINA RESULT:      -9.4      0.000      0.000
  Name = 
  7 active torsions:
  status: ('A' for Active; 'I' for Inactive)
    1  A    between atoms: C_5  and  C_33
    2  A    between atoms: C_5  and  C_52
    3  A    between atoms: C_6  and  N_53
    4  A    between atoms: C_26  and  N_49
    5  A    between atoms: C_37  and  C_44
    6  A    between atoms: C_37  and  C_48
    7  A    between atoms: C_44  and  C_52
                            x       y       z     vdW  Elec       q    Type
                         _______ _______ _______ _____ _____    ______ ____

>  <TORSDO>
F 7

$$$$
