=
 OpenBabel11072410153D

 37 43  0  0  1  0  0  0  0  0999 V2000
  161.4940  210.1260  154.8620 C   0  0  1  0  0  3  0  0  0  0  0  0
  160.8660  210.3570  156.2680 C   0  0  0  0  0  2  0  0  0  0  0  0
  158.9040  211.6570  157.2610 N   0  0  0  0  0  2  0  0  0  0  0  0
  160.8390  208.1660  150.6460 O   0  0  0  0  0  0  0  0  0  0  0  0
  161.6220  206.6010  152.1900 N   0  0  0  0  0  2  0  0  0  0  0  0
  159.3340  210.5440  156.4000 C   0  0  1  0  0  3  0  0  0  0  0  0
  157.8460  213.2910  151.6830 N   0  0  0  0  0  0  0  0  0  0  0  0
  160.0850  212.0880  154.0140 C   0  0  1  0  0  3  0  0  0  0  0  0
  159.2590  213.2620  156.5690 S   0  0  0  0  0  0  0  0  0  0  0  0
  159.9400  213.0870  152.8820 C   0  0  2  0  0  3  0  0  0  0  0  0
  161.2410  207.9290  151.8180 C   0  0  0  0  0  0  0  0  0  0  0  0
  158.4670  213.5320  152.9930 C   0  0  2  0  0  3  0  0  0  0  0  0
  158.6970  211.4740  154.1220 C   0  0  2  0  0  3  0  0  0  0  0  0
  158.6690  212.3130  150.9710 C   0  0  0  0  0  2  0  0  0  0  0  0
  160.6980  210.2860  152.6030 C   0  0  1  0  0  3  0  0  0  0  0  0
  161.4740  208.7380  154.2150 C   0  0  0  0  0  2  0  0  0  0  0  0
  157.7390  213.3470  155.5200 C   0  0  0  0  0  2  0  0  0  0  0  0
  161.3220  208.9890  152.7770 N   0  0  0  0  0  0  0  0  0  0  0  0
  157.9150  214.4530  150.9890 O   0  0  0  0  0  1  0  0  0  0  0  0
  161.1720  211.1050  153.7510 C   0  0  2  0  0  3  0  0  0  0  0  0
  160.9080  211.1180  151.3450 C   0  0  0  0  0  2  0  0  0  0  0  0
  157.7820  212.6630  154.1090 C   0  0  1  0  0  0  0  0  0  0  0  0
  160.0880  212.4530  151.4690 C   0  0  2  0  0  3  0  0  0  0  0  0
  158.4710  210.3840  155.1630 C   0  0  0  0  0  2  0  0  0  0  0  0
  160.2930  204.6660  151.5930 C   0  0  0  0  0  1  0  0  0  0  0  0
  161.5350  205.4760  151.2720 C   0  0  1  0  0  3  0  0  0  0  0  0
  160.8700  203.7470  149.0620 C   0  0  0  0  0  2  0  0  0  0  0  0
  161.6060  202.9260  148.0090 C   0  0  0  0  0  2  0  0  0  0  0  0
  161.2940  203.4570  146.6130 C   0  0  0  0  0  2  0  0  0  0  0  0
  161.0860  205.8070  147.5160 C   0  0  2  0  0  3  0  0  0  0  0  0
  161.4690  205.3940  145.0790 C   0  0  0  0  0  1  0  0  0  0  0  0
  161.7680  204.9030  146.4820 C   0  0  2  0  0  3  0  0  0  0  0  0
  161.4650  205.9630  149.9130 N   0  0  0  0  0  0  0  0  0  0  0  0
  161.6620  207.0810  147.4810 O   0  0  0  0  0  1  0  0  0  0  0  0
  161.1960  205.2100  148.8990 C   0  0  0  0  0  0  0  0  0  0  0  0
  155.5180  213.0870  154.2610 C   0  0  0  0  0  1  0  0  0  0  0  0
  156.4890  212.2170  153.7340 O   0  0  0  0  0  0  0  0  0  0  0  0
  1 16  1  6  0  0  0
  1  2  1  0  0  0  0
  2  6  1  0  0  0  0
  4 11  2  0  0  0  0
  6 24  1  6  0  0  0
  6  3  1  0  0  0  0
  7 12  1  0  0  0  0
  8 13  1  0  0  0  0
  9  3  1  0  0  0  0
 10 12  1  0  0  0  0
 10  8  1  0  0  0  0
 11  5  1  0  0  0  0
 11 18  1  0  0  0  0
 12 22  1  0  0  0  0
 13 24  1  0  0  0  0
 14 23  1  0  0  0  0
 14  7  1  0  0  0  0
 15 18  1  0  0  0  0
 15 20  1  0  0  0  0
 17  9  1  0  0  0  0
 18 16  1  0  0  0  0
 19  7  1  0  0  0  0
 20  8  1  0  0  0  0
 20  1  1  0  0  0  0
 21 23  1  0  0  0  0
 21 15  1  0  0  0  0
 22 13  1  0  0  0  0
 22 17  1  0  0  0  0
 23 10  1  0  0  0  0
 26 25  1  0  0  0  0
 26  5  1  0  0  0  0
 28 27  1  0  0  0  0
 29 28  1  0  0  0  0
 30 35  1  0  0  0  0
 31 32  1  0  0  0  0
 32 29  1  0  0  0  0
 32 30  1  0  0  0  0
 33 26  1  0  0  0  0
 34 30  1  0  0  0  0
 35 27  1  0  0  0  0
 35 33  2  0  0  0  0
 37 22  1  0  0  0  0
 37 36  1  0  0  0  0
M  END
>  <MODEL>
1

>  <REMARK>
 VINA RESULT:      -7.3      0.000      0.000
  Name = 
  3 active torsions:
  status: ('A' for Active; 'I' for Inactive)
    1  A    between atoms: N_11  and  C_24
    2  A    between atoms: O_16  and  C_34
    3  A    between atoms: N_22  and  C_24
                            x       y       z     vdW  Elec       q    Type
                         _______ _______ _______ _____ _____    ______ ____

>  <TORSDO>
F 3

$$$$
=
 OpenBabel11072410153D

 37 43  0  0  1  0  0  0  0  0999 V2000
  160.6860  210.8150  153.7300 C   0  0  1  0  0  3  0  0  0  0  0  0
  159.5540  211.3960  154.6250 C   0  0  0  0  0  2  0  0  0  0  0  0
  157.6060  213.0300  154.3720 N   0  0  0  0  0  2  0  0  0  0  0  0
  161.6290  208.0360  150.0640 O   0  0  0  0  0  0  0  0  0  0  0  0
  161.3770  206.7920  152.0220 N   0  0  0  0  0  2  0  0  0  0  0  0
  158.1750  211.7260  153.9990 C   0  0  1  0  0  3  0  0  0  0  0  0
  159.4010  213.4800  148.7610 N   0  0  0  0  0  0  0  0  0  0  0  0
  160.1470  212.6460  152.0230 C   0  0  1  0  0  3  0  0  0  0  0  0
  158.4940  214.4120  153.6790 S   0  0  0  0  0  0  0  0  0  0  0  0
  160.6870  213.3820  150.8110 C   0  0  2  0  0  3  0  0  0  0  0  0
  161.4280  208.0310  151.3090 C   0  0  0  0  0  0  0  0  0  0  0  0
  159.4140  213.9540  150.1530 C   0  0  2  0  0  3  0  0  0  0  0  0
  158.7720  212.1810  151.5710 C   0  0  2  0  0  3  0  0  0  0  0  0
  160.2740  212.3090  148.6790 C   0  0  0  0  0  2  0  0  0  0  0  0
  161.0030  210.5370  151.3660 C   0  0  1  0  0  3  0  0  0  0  0  0
  160.7180  209.3250  153.3770 C   0  0  0  0  0  2  0  0  0  0  0  0
  157.6290  214.3830  152.0450 C   0  0  0  0  0  2  0  0  0  0  0  0
  161.2580  209.2660  152.0130 N   0  0  0  0  0  0  0  0  0  0  0  0
  159.9630  214.4530  148.0040 O   0  0  0  0  0  1  0  0  0  0  0  0
  161.0560  211.5490  152.4560 C   0  0  2  0  0  3  0  0  0  0  0  0
  161.8820  211.0550  150.2350 C   0  0  0  0  0  2  0  0  0  0  0  0
  158.1710  213.4060  150.9450 C   0  0  1  0  0  0  0  0  0  0  0  0
  161.3310  212.4440  149.7500 C   0  0  2  0  0  3  0  0  0  0  0  0
  157.9310  211.3660  152.5450 C   0  0  0  0  0  2  0  0  0  0  0  0
  160.4300  204.5680  151.8640 C   0  0  0  0  0  1  0  0  0  0  0  0
  161.5120  205.5030  151.3600 C   0  0  1  0  0  3  0  0  0  0  0  0
  160.8100  203.3180  149.6140 C   0  0  0  0  0  2  0  0  0  0  0  0
  161.5270  202.2950  148.7410 C   0  0  0  0  0  2  0  0  0  0  0  0
  161.1560  202.4980  147.2750 C   0  0  0  0  0  2  0  0  0  0  0  0
  160.9280  204.9870  147.6440 C   0  0  2  0  0  3  0  0  0  0  0  0
  161.2360  204.0500  145.3450 C   0  0  0  0  0  1  0  0  0  0  0  0
  161.5940  203.8860  146.8100 C   0  0  2  0  0  3  0  0  0  0  0  0
  161.3850  205.6750  149.9310 N   0  0  0  0  0  0  0  0  0  0  0  0
  161.4740  206.2290  147.3060 O   0  0  0  0  0  1  0  0  0  0  0  0
  161.0980  204.7120  149.1190 C   0  0  0  0  0  0  0  0  0  0  0  0
  156.1180  213.9760  150.0580 C   0  0  0  0  0  1  0  0  0  0  0  0
  157.1200  212.9900  150.0890 O   0  0  0  0  0  0  0  0  0  0  0  0
  1 16  1  6  0  0  0
  1  2  1  0  0  0  0
  4 11  2  0  0  0  0
  6 24  1  6  0  0  0
  6  3  1  0  0  0  0
  6  2  1  0  0  0  0
  7 12  1  0  0  0  0
  8 20  1  0  0  0  0
  9  3  1  0  0  0  0
 10  8  1  0  0  0  0
 11 18  1  0  0  0  0
 11  5  1  0  0  0  0
 12 10  1  0  0  0  0
 12 22  1  0  0  0  0
 13  8  1  0  0  0  0
 13 24  1  0  0  0  0
 14  7  1  0  0  0  0
 14 23  1  0  0  0  0
 15 18  1  0  0  0  0
 15 20  1  0  0  0  0
 17  9  1  0  0  0  0
 18 16  1  0  0  0  0
 19  7  1  0  0  0  0
 20  1  1  0  0  0  0
 21 15  1  0  0  0  0
 22 13  1  0  0  0  0
 22 17  1  0  0  0  0
 23 21  1  0  0  0  0
 23 10  1  0  0  0  0
 26 25  1  0  0  0  0
 26  5  1  0  0  0  0
 28 27  1  0  0  0  0
 29 28  1  0  0  0  0
 30 35  1  0  0  0  0
 31 32  1  0  0  0  0
 32 29  1  0  0  0  0
 32 30  1  0  0  0  0
 33 26  1  0  0  0  0
 34 30  1  0  0  0  0
 35 27  1  0  0  0  0
 35 33  2  0  0  0  0
 36 37  1  0  0  0  0
 37 22  1  0  0  0  0
M  END
>  <MODEL>
2

>  <REMARK>
 VINA RESULT:      -6.0      1.617      2.223
  Name = 
  3 active torsions:
  status: ('A' for Active; 'I' for Inactive)
    1  A    between atoms: N_11  and  C_24
    2  A    between atoms: O_16  and  C_34
    3  A    between atoms: N_22  and  C_24
                            x       y       z     vdW  Elec       q    Type
                         _______ _______ _______ _____ _____    ______ ____

>  <TORSDO>
F 3

$$$$
=
 OpenBabel11072410153D

 37 43  0  0  1  0  0  0  0  0999 V2000
  161.9660  207.6700  154.0690 C   0  0  1  0  0  3  0  0  0  0  0  0
  161.4340  207.3260  155.4900 C   0  0  0  0  0  2  0  0  0  0  0  0
  159.8140  208.3340  157.1890 N   0  0  0  0  0  2  0  0  0  0  0  0
  160.8130  208.0550  149.5330 O   0  0  0  0  0  0  0  0  0  0  0  0
  161.2840  205.8410  150.0980 N   0  0  0  0  0  2  0  0  0  0  0  0
  159.9790  207.6960  155.8740 C   0  0  1  0  0  3  0  0  0  0  0  0
  158.9950  212.5400  153.1220 N   0  0  0  0  0  0  0  0  0  0  0  0
  160.9830  210.0150  154.3730 C   0  0  1  0  0  3  0  0  0  0  0  0
  160.4840  209.9860  157.2610 S   0  0  0  0  0  0  0  0  0  0  0  0
  161.0270  211.4350  153.8400 C   0  0  2  0  0  3  0  0  0  0  0  0
  161.1830  207.2320  150.4140 C   0  0  0  0  0  0  0  0  0  0  0  0
  159.6840  212.0290  154.3150 C   0  0  2  0  0  3  0  0  0  0  0  0
  159.5010  209.6770  154.3560 C   0  0  2  0  0  3  0  0  0  0  0  0
  159.5760  211.8800  151.9530 C   0  0  0  0  0  2  0  0  0  0  0  0
  161.1690  209.0040  152.2380 C   0  0  1  0  0  3  0  0  0  0  0  0
  161.6380  206.7740  152.8710 C   0  0  0  0  0  2  0  0  0  0  0  0
  158.9920  210.8170  156.5520 C   0  0  0  0  0  2  0  0  0  0  0  0
  161.5080  207.6890  151.7320 N   0  0  0  0  0  0  0  0  0  0  0  0
  159.2920  213.8590  153.0260 O   0  0  0  0  0  1  0  0  0  0  0  0
  161.8320  209.0950  153.5670 C   0  0  2  0  0  3  0  0  0  0  0  0
  161.5200  210.2750  151.4780 C   0  0  0  0  0  2  0  0  0  0  0  0
  158.8570  210.8750  154.9910 C   0  0  1  0  0  0  0  0  0  0  0  0
  161.0040  211.5190  152.2880 C   0  0  2  0  0  3  0  0  0  0  0  0
  159.0730  208.2870  154.8100 C   0  0  0  0  0  2  0  0  0  0  0  0
  161.8090  205.9710  147.7370 C   0  0  0  0  0  1  0  0  0  0  0  0
  160.9390  205.3090  148.7880 C   0  0  1  0  0  3  0  0  0  0  0  0
  161.3180  203.8470  146.3310 C   0  0  0  0  0  2  0  0  0  0  0  0
  160.4680  203.0440  145.3530 C   0  0  0  0  0  2  0  0  0  0  0  0
  160.9300  201.5900  145.3230 C   0  0  0  0  0  2  0  0  0  0  0  0
  161.5790  201.7090  147.7610 C   0  0  2  0  0  3  0  0  0  0  0  0
  161.2060  199.5070  146.6350 C   0  0  0  0  0  1  0  0  0  0  0  0
  160.7640  200.9560  146.7030 C   0  0  2  0  0  3  0  0  0  0  0  0
  161.1550  203.8800  148.7730 N   0  0  0  0  0  0  0  0  0  0  0  0
  161.2740  201.2110  149.0320 O   0  0  0  0  0  1  0  0  0  0  0  0
  161.3010  203.1920  147.6890 C   0  0  0  0  0  0  0  0  0  0  0  0
  156.6820  210.9570  155.7600 C   0  0  0  0  0  1  0  0  0  0  0  0
  157.4900  210.8910  154.6120 O   0  0  0  0  0  0  0  0  0  0  0  0
  1 16  1  6  0  0  0
  1  2  1  0  0  0  0
  2  6  1  0  0  0  0
  3  9  1  0  0  0  0
  4 11  2  0  0  0  0
  5 11  1  0  0  0  0
  6 24  1  6  0  0  0
  6  3  1  0  0  0  0
  7 12  1  0  0  0  0
 10 12  1  0  0  0  0
 10  8  1  0  0  0  0
 11 18  1  0  0  0  0
 12 22  1  0  0  0  0
 13  8  1  0  0  0  0
 13 24  1  0  0  0  0
 13 22  1  0  0  0  0
 14 23  1  0  0  0  0
 14  7  1  0  0  0  0
 15 20  1  0  0  0  0
 17  9  1  0  0  0  0
 18 15  1  0  0  0  0
 18 16  1  0  0  0  0
 19  7  1  0  0  0  0
 20  1  1  0  0  0  0
 20  8  1  0  0  0  0
 21 15  1  0  0  0  0
 21 23  1  0  0  0  0
 22 17  1  0  0  0  0
 23 10  1  0  0  0  0
 25 26  1  0  0  0  0
 26  5  1  0  0  0  0
 27 35  1  0  0  0  0
 28 27  1  0  0  0  0
 29 28  1  0  0  0  0
 29 32  1  0  0  0  0
 30 34  1  0  0  0  0
 31 32  1  0  0  0  0
 32 30  1  0  0  0  0
 33 26  1  0  0  0  0
 35 30  1  0  0  0  0
 35 33  2  0  0  0  0
 37 22  1  0  0  0  0
 37 36  1  0  0  0  0
M  END
>  <MODEL>
3

>  <REMARK>
 VINA RESULT:      -4.9      2.001      2.876
  Name = 
  3 active torsions:
  status: ('A' for Active; 'I' for Inactive)
    1  A    between atoms: N_11  and  C_24
    2  A    between atoms: O_16  and  C_34
    3  A    between atoms: N_22  and  C_24
                            x       y       z     vdW  Elec       q    Type
                         _______ _______ _______ _____ _____    ______ ____

>  <TORSDO>
F 3

$$$$
=
 OpenBabel11072410153D

 37 43  0  0  1  0  0  0  0  0999 V2000
  158.6240  214.4530  140.8890 C   0  0  1  0  0  3  0  0  0  0  0  0
  157.3230  214.2350  140.0640 C   0  0  0  0  0  2  0  0  0  0  0  0
  156.5250  212.7120  138.1740 N   0  0  0  0  0  2  0  0  0  0  0  0
  161.5030  212.5620  144.0810 O   0  0  0  0  0  0  0  0  0  0  0  0
  159.6740  213.5920  145.1000 N   0  0  0  0  0  2  0  0  0  0  0  0
  156.9540  212.8100  139.5780 C   0  0  1  0  0  3  0  0  0  0  0  0
  161.9410  210.3710  138.4860 N   0  0  0  0  0  0  0  0  0  0  0  0
  159.8530  213.0350  139.1470 C   0  0  1  0  0  3  0  0  0  0  0  0
  157.8460  213.0030  137.0110 S   0  0  0  0  0  0  0  0  0  0  0  0
  161.2270  212.6820  138.6100 C   0  0  2  0  0  3  0  0  0  0  0  0
  160.4450  213.2360  143.9490 C   0  0  0  0  0  0  0  0  0  0  0  0
  160.9910  211.3300  137.9040 C   0  0  2  0  0  3  0  0  0  0  0  0
  159.2250  211.6790  139.4290 C   0  0  2  0  0  3  0  0  0  0  0  0
  162.3710  210.8970  139.7810 C   0  0  0  0  0  2  0  0  0  0  0  0
  160.5450  213.1100  141.4110 C   0  0  1  0  0  3  0  0  0  0  0  0
  158.6600  214.1520  142.3900 C   0  0  0  0  0  2  0  0  0  0  0  0
  158.5000  211.2740  137.0430 C   0  0  0  0  0  2  0  0  0  0  0  0
  160.0150  213.6500  142.6470 N   0  0  0  0  0  0  0  0  0  0  0  0
  163.0300  210.3510  137.6800 O   0  0  0  0  0  1  0  0  0  0  0  0
  159.9350  213.9330  140.3320 C   0  0  2  0  0  3  0  0  0  0  0  0
  162.0410  213.0510  141.1340 C   0  0  0  0  0  2  0  0  0  0  0  0
  159.5070  210.8920  138.1820 C   0  0  1  0  0  0  0  0  0  0  0  0
  162.2770  212.4040  139.7220 C   0  0  2  0  0  3  0  0  0  0  0  0
  157.8200  211.6450  140.0160 C   0  0  0  0  0  2  0  0  0  0  0  0
  161.3220  213.8770  146.8530 C   0  0  0  0  0  1  0  0  0  0  0  0
  160.0400  213.1770  146.4460 C   0  0  1  0  0  3  0  0  0  0  0  0
  160.5350  213.6200  149.2520 C   0  0  0  0  0  2  0  0  0  0  0  0
  160.4750  212.8220  150.5490 C   0  0  0  0  0  2  0  0  0  0  0  0
  159.4280  213.4140  151.4860 C   0  0  0  0  0  2  0  0  0  0  0  0
  158.0120  214.1170  149.5160 C   0  0  2  0  0  3  0  0  0  0  0  0
  157.0220  213.9170  151.8050 C   0  0  0  0  0  1  0  0  0  0  0  0
  158.0450  213.3460  150.8410 C   0  0  2  0  0  3  0  0  0  0  0  0
  158.9790  213.5220  147.3650 N   0  0  0  0  0  0  0  0  0  0  0  0
  156.7900  213.8950  148.8730 O   0  0  0  0  0  1  0  0  0  0  0  0
  159.1630  213.7010  148.6310 C   0  0  0  0  0  0  0  0  0  0  0  0
  158.8940  208.8120  137.3900 C   0  0  0  0  0  1  0  0  0  0  0  0
  159.3970  209.5140  138.5000 O   0  0  0  0  0  0  0  0  0  0  0  0
  1  2  1  6  0  0  0
  1 16  1  0  0  0  0
  3  6  1  0  0  0  0
  5 26  1  0  0  0  0
  6 24  1  6  0  0  0
  6  2  1  0  0  0  0
  7 14  1  0  0  0  0
  8 13  1  0  0  0  0
  8 20  1  0  0  0  0
  9 17  1  0  0  0  0
  9  3  1  0  0  0  0
 10  8  1  0  0  0  0
 10 23  1  0  0  0  0
 11  4  2  0  0  0  0
 11  5  1  0  0  0  0
 12 22  1  0  0  0  0
 12  7  1  0  0  0  0
 12 10  1  0  0  0  0
 13 24  1  0  0  0  0
 15 18  1  0  0  0  0
 16 18  1  0  0  0  0
 17 22  1  0  0  0  0
 18 11  1  0  0  0  0
 19  7  1  0  0  0  0
 20  1  1  0  0  0  0
 20 15  1  0  0  0  0
 21 15  1  0  0  0  0
 22 37  1  0  0  0  0
 22 13  1  0  0  0  0
 23 14  1  0  0  0  0
 23 21  1  0  0  0  0
 26 25  1  0  0  0  0
 26 33  1  0  0  0  0
 27 28  1  0  0  0  0
 28 29  1  0  0  0  0
 30 32  1  0  0  0  0
 32 29  1  0  0  0  0
 32 31  1  0  0  0  0
 33 35  2  0  0  0  0
 34 30  1  0  0  0  0
 35 27  1  0  0  0  0
 35 30  1  0  0  0  0
 36 37  1  0  0  0  0
M  END
>  <MODEL>
4

>  <REMARK>
 VINA RESULT:      -4.9      8.609     13.360
  Name = 
  3 active torsions:
  status: ('A' for Active; 'I' for Inactive)
    1  A    between atoms: N_11  and  C_24
    2  A    between atoms: O_16  and  C_34
    3  A    between atoms: N_22  and  C_24
                            x       y       z     vdW  Elec       q    Type
                         _______ _______ _______ _____ _____    ______ ____

>  <TORSDO>
F 3

$$$$
