=
 OpenBabel11072414483D

 45 50  0  0  1  0  0  0  0  0999 V2000
  159.6690  206.5940  154.2720 C   0  0  0  0  0  2  0  0  0  0  0  0
  161.1030  209.2180  154.2800 C   0  0  2  0  0  3  0  0  0  0  0  0
  161.6320  208.7620  149.4010 O   0  0  0  0  0  0  0  0  0  0  0  0
  161.6110  207.0190  151.0940 C   0  0  1  0  0  3  0  0  0  0  0  0
  161.1770  205.6150  151.5650 C   0  0  2  0  0  0  0  0  0  0  0  0
  161.5830  209.5070  150.9230 P   0  0  1  0  0  0  0  0  0  0  0  0
  160.1640  208.3820  156.4890 C   0  0  0  0  0  2  0  0  0  0  0  0
  163.1310  210.0480  151.3370 O   0  0  0  0  0  1  0  0  0  0  0  0
  159.4420  206.2430  155.7430 C   0  0  0  0  0  2  0  0  0  0  0  0
  161.8530  210.4920  153.9390 C   0  0  0  0  0  2  0  0  0  0  0  0
  160.5840  210.6420  150.9420 O   0  0  0  0  0  0  0  0  0  0  0  0
  163.1350  210.1960  157.0860 C   0  0  0  0  0  1  0  0  0  0  0  0
  161.3700  209.0020  155.7750 C   0  0  2  0  0  3  0  0  0  0  0  0
  161.1590  206.6650  153.9440 C   0  0  1  0  0  3  0  0  0  0  0  0
  159.6660  205.4290  151.4100 C   0  0  0  0  0  1  0  0  0  0  0  0
  161.8120  210.3530  156.3610 C   0  0  1  0  0  0  0  0  0  0  0  0
  161.5830  205.4880  153.0510 C   0  0  0  0  0  2  0  0  0  0  0  0
  160.8050  211.0250  157.2610 C   0  0  0  0  0  2  0  0  0  0  0  0
  160.5620  212.3600  156.5980 C   0  0  1  0  0  3  0  0  0  0  0  0
  160.3640  206.9480  156.6320 N   0  0  0  0  0  2  0  0  0  0  0  0
  161.3070  207.4050  149.6400 C   0  0  0  0  0  2  0  0  0  0  0  0
  160.9150  212.2490  155.2460 O   0  0  0  0  0  0  0  0  0  0  0  0
  161.5780  208.0440  153.3770 C   0  0  1  0  0  3  0  0  0  0  0  0
  161.9620  211.3140  155.2040 C   0  0  2  0  0  3  0  0  0  0  0  0
  161.0430  208.1330  151.9330 C   0  0  2  0  0  3  0  0  0  0  0  0
  161.9330  204.5220  150.7690 C   0  0  1  0  0  3  0  0  0  0  0  0
  162.2720  203.3030  151.6220 C   0  0  0  0  0  1  0  0  0  0  0  0
  161.1820  204.0910  149.5940 N   0  0  0  0  0  2  0  0  0  0  0  0
  160.8420  203.8700  147.1630 N   0  0  0  0  0  2  0  0  0  0  0  0
  162.7050  204.9630  148.0540 O   0  0  0  0  0  0  0  0  0  0  0  0
  161.6280  204.3370  148.2610 C   0  0  0  0  0  0  0  0  0  0  0  0
  161.2080  204.1100  145.7720 C   0  0  2  0  0  3  0  0  0  0  0  0
  160.6150  205.4220  145.2820 C   0  0  0  0  0  1  0  0  0  0  0  0
  160.4060  201.7080  145.7040 C   0  0  0  0  0  1  0  0  0  0  0  0
  160.7640  202.9450  144.8920 C   0  0  0  0  0  2  0  0  0  0  0  0
  159.1570  212.7230  156.7080 N   0  0  0  0  0  2  0  0  0  0  0  0
  156.4820  211.5900  154.1750 C   0  0  2  0  0  3  0  0  0  0  0  0
  157.1290  211.6970  155.5530 C   0  0  0  0  0  2  0  0  0  0  0  0
  156.1750  212.9840  153.6450 C   0  0  0  0  0  2  0  0  0  0  0  0
  158.2530  212.7080  155.6000 C   0  0  0  0  0  0  0  0  0  0  0  0
  157.4770  213.7660  153.4650 C   0  0  1  0  0  3  0  0  0  0  0  0
  158.3540  213.6810  154.6860 C   0  0  0  0  0  3  0  0  0  0  0  0
  155.3140  210.8590  154.2690 F   0  0  0  0  0  0  0  0  0  0  0  0
  157.4750  213.7750  151.2510 C   0  0  0  0  0  1  0  0  0  0  0  0
  158.1720  213.2790  152.3540 O   0  0  0  0  0  0  0  0  0  0  0  0
  1  9  1  0  0  0  0
  2 10  1  6  0  0  0
  2 13  1  0  0  0  0
  3 21  1  0  0  0  0
  3  6  1  0  0  0  0
  4 21  1  6  0  0  0
  4  5  1  0  0  0  0
  4 25  1  0  0  0  0
  5 15  1  6  0  0  0
  5 17  1  0  0  0  0
  6 11  2  1  0  0  0
  6  8  1  0  0  0  0
  6 25  1  0  0  0  0
  7 20  1  0  0  0  0
  9 20  1  0  0  0  0
 10 24  1  0  0  0  0
 13 16  1  0  0  0  0
 13  7  1  1  0  0  0
 14 17  1  6  0  0  0
 14  1  1  0  0  0  0
 16 12  1  1  0  0  0
 16 18  1  0  0  0  0
 19 36  1  6  0  0  0
 19 18  1  0  0  0  0
 22 19  1  0  0  0  0
 23 14  1  0  0  0  0
 23  2  1  0  0  0  0
 24 22  1  0  0  0  0
 24 16  1  0  0  0  0
 25 23  1  0  0  0  0
 26  5  1  0  0  0  0
 26 27  1  0  0  0  0
 28 26  1  0  0  0  0
 29 31  1  0  0  0  0
 30 31  2  0  0  0  0
 31 28  1  0  0  0  0
 32 29  1  0  0  0  0
 33 32  1  0  0  0  0
 35 34  1  0  0  0  0
 35 32  1  0  0  0  0
 37 43  1  0  0  0  0
 37 38  1  0  0  0  0
 38 40  1  0  0  0  0
 39 37  1  0  0  0  0
 40 36  1  0  0  0  0
 41 39  1  0  0  0  0
 41 42  1  0  0  0  0
 42 40  2  0  0  0  0
 44 45  1  0  0  0  0
 45 41  1  0  0  0  0
M  END
>  <MODEL>
1

>  <REMARK>
 VINA RESULT:      -2.5      0.000      0.000
  Name = 
  7 active torsions:
  status: ('A' for Active; 'I' for Inactive)
    1  A    between atoms: N_1  and  C_11
    2  A    between atoms: N_6  and  C_19
    3  A    between atoms: N_6  and  C_33
    4  A    between atoms: C_9  and  C_11
    5  A    between atoms: C_18  and  N_22
    6  A    between atoms: C_18  and  C_27
    7  A    between atoms: O_36  and  C_38
                            x       y       z     vdW  Elec       q    Type
                         _______ _______ _______ _____ _____    ______ ____

>  <TORSDO>
F 7

$$$$
