=
 OpenBabel11072410053D

 55 61  0  0  1  0  0  0  0  0999 V2000
  160.5060  205.7180  149.9350 C   0  0  1  0  0  3  0  0  0  0  0  0
  161.5960  206.1130  147.8060 N   0  0  0  0  0  0  0  0  0  0  0  0
  160.5850  207.2100  149.7490 C   0  0  0  0  0  2  0  0  0  0  0  0
  161.3390  207.4100  148.4410 C   0  0  1  0  0  3  0  0  0  0  0  0
  160.7790  205.1470  148.5380 C   0  0  1  0  0  3  0  0  0  0  0  0
  162.1870  203.0680  146.3960 O   0  0  0  0  0  1  0  0  0  0  0  0
  160.9480  201.5490  147.7280 C   0  0  0  0  0  2  0  0  0  0  0  0
  160.4710  201.6680  149.1580 C   0  0  0  0  0  2  0  0  0  0  0  0
  161.4080  203.7420  148.5490 C   0  0  1  0  0  3  0  0  0  0  0  0
  160.8920  202.9660  149.6740 N   0  0  0  0  0  2  0  0  0  0  0  0
  161.1110  202.9720  147.2790 C   0  0  1  0  0  3  0  0  0  0  0  0
  159.6690  206.3370  146.5120 O   0  0  0  0  0  1  0  0  0  0  0  0
  161.0570  206.2020  146.4570 C   0  0  0  0  0  2  0  0  0  0  0  0
  161.5580  205.3100  150.9640 C   0  0  0  0  0  2  0  0  0  0  0  0
  163.1530  207.0210  151.4350 O   0  0  0  0  0  1  0  0  0  0  0  0
  161.9160  206.5020  151.8290 C   0  0  2  0  0  3  0  0  0  0  0  0
  161.9800  206.0680  153.2810 C   0  0  0  0  0  2  0  0  0  0  0  0
  160.7410  206.5330  154.0310 C   0  0  0  0  0  2  0  0  0  0  0  0
  160.8920  210.0560  153.6030 N   0  0  0  0  0  0  0  0  0  0  0  0
  160.3520  208.7280  155.2970 C   0  0  0  0  0  3  0  0  0  0  0  0
  160.7210  208.0190  154.1430 C   0  0  0  0  0  0  0  0  0  0  0  0
  160.9670  208.8440  153.0960 N   0  0  0  0  0  0  0  0  0  0  0  0
  159.0950  213.3460  153.9660 C   0  0  0  0  0  1  0  0  0  0  0  0
  160.4920  211.5710  151.8200 O   0  0  0  0  0  0  0  0  0  0  0  0
  159.7830  212.0330  154.1140 C   0  0  0  0  0  0  0  0  0  0  0  0
  159.8240  211.2800  155.2270 C   0  0  0  0  0  0  0  0  0  0  0  0
  160.4270  211.2660  153.0400 C   0  0  0  0  0  0  0  0  0  0  0  0
  160.5060  210.0290  154.8640 C   0  0  0  0  0  0  0  0  0  0  0  0
  157.6490  211.4470  156.4060 C   0  0  0  0  0  1  0  0  0  0  0  0
  159.1540  211.6000  156.5270 C   0  0  2  0  0  3  0  0  0  0  0  0
  159.4820  212.9520  156.9410 N   0  0  0  0  0  1  0  0  0  0  0  0
  162.5140  208.1840  148.5910 O   0  0  0  0  0  0  0  0  0  0  0  0
  162.1910  209.4010  149.2170 C   0  0  0  0  0  2  0  0  0  0  0  0
  162.5150  210.5660  148.2960 C   0  0  0  0  0  2  0  0  0  0  0  0
  161.5020  211.6890  148.4500 C   0  0  0  0  0  2  0  0  0  0  0  0
  160.5940  211.6610  147.3870 O   0  0  0  0  0  0  0  0  0  0  0  0
  160.2270  212.9940  147.1790 C   0  0  2  0  0  3  0  0  0  0  0  0
  159.3410  213.4510  148.2990 C   0  0  0  0  0  0  0  0  0  0  0  0
  159.8980  213.9560  149.4060 C   0  0  0  0  0  3  0  0  0  0  0  0
  157.1260  213.3270  149.4660 C   0  0  1  0  0  3  0  0  0  0  0  0
  159.0560  214.4480  150.5120 C   0  0  0  0  0  3  0  0  0  0  0  0
  157.8420  213.4900  148.1210 C   0  0  0  0  0  2  0  0  0  0  0  0
  157.7440  214.1960  150.5260 C   0  0  0  0  0  3  0  0  0  0  0  0
  155.7830  213.6220  149.3320 F   0  0  0  0  0  0  0  0  0  0  0  0
  159.5270  213.1300  145.8200 C   0  0  2  0  0  3  0  0  0  0  0  0
  158.4260  212.2720  145.7530 O   0  0  0  0  0  1  0  0  0  0  0  0
  162.1370  212.4210  142.5490 C   0  0  0  0  0  0  0  0  0  0  0  0
  161.7690  213.3870  144.6560 C   0  0  0  0  0  3  0  0  0  0  0  0
  162.5940  213.1570  143.5940 N   0  0  0  0  0  0  0  0  0  0  0  0
  162.0570  211.4150  140.6310 C   0  0  0  0  0  3  0  0  0  0  0  0
  159.9990  212.1100  143.5790 C   0  0  0  0  0  3  0  0  0  0  0  0
  160.4540  212.8650  144.6720 C   0  0  0  0  0  0  0  0  0  0  0  0
  162.8590  212.1120  141.3770 N   0  0  0  0  0  0  0  0  0  0  0  0
  160.6950  211.1870  141.2460 C   0  0  0  0  0  2  0  0  0  0  0  0
  160.8790  211.9070  142.5240 C   0  0  0  0  0  0  0  0  0  0  0  0
  1 14  1  1  0  0  0
  2  4  1  0  0  0  0
  3  1  1  0  0  0  0
  4 32  1  1  0  0  0
  4  3  1  0  0  0  0
  5  2  1  1  0  0  0
  5  9  1  0  0  0  0
  5  1  1  0  0  0  0
  7  8  1  0  0  0  0
  8 10  1  0  0  0  0
  9 10  1  1  0  0  0
 11  6  1  6  0  0  0
 11  7  1  0  0  0  0
 11  9  1  0  0  0  0
 13 12  1  0  0  0  0
 13  2  1  0  0  0  0
 14 16  1  0  0  0  0
 16 15  1  6  0  0  0
 16 17  1  0  0  0  0
 17 18  1  0  0  0  0
 18 21  1  0  0  0  0
 19 28  1  0  0  0  0
 21 20  1  0  0  0  0
 22 19  1  0  0  0  0
 22 21  2  0  0  0  0
 23 25  1  0  0  0  0
 24 27  2  0  0  0  0
 25 26  2  0  0  0  0
 26 30  1  0  0  0  0
 27 19  1  0  0  0  0
 27 25  1  0  0  0  0
 28 26  1  0  0  0  0
 28 20  2  0  0  0  0
 30 29  1  6  0  0  0
 30 31  1  0  0  0  0
 32 33  1  0  0  0  0
 34 35  1  0  0  0  0
 34 33  1  0  0  0  0
 36 35  1  0  0  0  0
 37 36  1  1  0  0  0
 37 38  1  0  0  0  0
 38 39  2  0  0  0  0
 39 41  1  0  0  0  0
 40 44  1  6  0  0  0
 40 43  1  0  0  0  0
 41 43  2  0  0  0  0
 42 38  1  0  0  0  0
 42 40  1  0  0  0  0
 45 46  1  1  0  0  0
 45 37  1  0  0  0  0
 47 49  2  0  0  0  0
 48 52  2  0  0  0  0
 49 48  1  0  0  0  0
 50 54  1  0  0  0  0
 50 53  2  0  0  0  0
 51 52  1  0  0  0  0
 52 45  1  0  0  0  0
 53 47  1  0  0  0  0
 54 55  1  0  0  0  0
 55 47  1  0  0  0  0
 55 51  2  0  0  0  0
M  END
>  <MODEL>
1

>  <REMARK>
 VINA RESULT:      -7.8      0.000      0.000
  Name = 
  17 active torsions:
  status: ('A' for Active; 'I' for Inactive)
    1  A    between atoms: C_3  and  C_39
    2  A    between atoms: C_3  and  C_42
    3  A    between atoms: C_4  and  C_18
    4  A    between atoms: N_7  and  C_51
    5  A    between atoms: C_8  and  C_39
    6  A    between atoms: C_10  and  C_18
    7  A    between atoms: C_10  and  C_53
    8  A    between atoms: C_11  and  O_34
    9  A    between atoms: C_11  and  C_35
   10  A    between atoms: C_20  and  O_34
   11  A    between atoms: C_21  and  C_48
   12  A    between atoms: O_22  and  C_36
   13  A    between atoms: O_22  and  C_39
   14  A    between atoms: C_24  and  C_44
   15  A    between atoms: C_33  and  C_54
   16  A    between atoms: C_35  and  C_36
   17  A    between atoms: C_48  and  C_53
                            x       y       z     vdW  Elec       q    Type
                         _______ _______ _______ _____ _____    ______ ____

>  <TORSDO>
F 17

$$$$
=
 OpenBabel11072410053D

 55 61  0  0  1  0  0  0  0  0999 V2000
  158.8080  211.4760  153.5770 C   0  0  1  0  0  3  0  0  0  0  0  0
  160.6250  210.2150  154.5690 N   0  0  0  0  0  0  0  0  0  0  0  0
  159.5040  210.7480  152.4570 C   0  0  0  0  0  2  0  0  0  0  0  0
  160.6770  210.0330  153.1150 C   0  0  1  0  0  3  0  0  0  0  0  0
  159.3050  210.7800  154.8490 C   0  0  1  0  0  3  0  0  0  0  0  0
  157.1880  211.7700  157.1790 O   0  0  0  0  0  1  0  0  0  0  0  0
  158.4080  213.7690  156.8200 C   0  0  0  0  0  2  0  0  0  0  0  0
  159.8120  213.9760  156.2990 C   0  0  0  0  0  2  0  0  0  0  0  0
  159.3120  211.6830  156.0950 C   0  0  1  0  0  3  0  0  0  0  0  0
  160.3860  212.6700  155.9980 N   0  0  0  0  0  2  0  0  0  0  0  0
  158.0070  212.4330  156.2650 C   0  0  1  0  0  3  0  0  0  0  0  0
  159.4520  208.6220  155.8030 O   0  0  0  0  0  1  0  0  0  0  0  0
  160.6580  208.8820  155.1510 C   0  0  0  0  0  2  0  0  0  0  0  0
  159.2050  212.9490  153.5070 C   0  0  0  0  0  2  0  0  0  0  0  0
  156.8540  212.9990  153.1040 O   0  0  0  0  0  1  0  0  0  0  0  0
  158.0120  213.7810  153.0780 C   0  0  2  0  0  3  0  0  0  0  0  0
  158.2460  214.3090  151.6750 C   0  0  0  0  0  2  0  0  0  0  0  0
  159.7100  214.1650  151.2900 C   0  0  0  0  0  2  0  0  0  0  0  0
  160.7960  214.4040  147.9170 N   0  0  0  0  0  0  0  0  0  0  0  0
  158.8360  214.0250  148.8850 C   0  0  0  0  0  3  0  0  0  0  0  0
  159.8730  214.2190  149.8090 C   0  0  0  0  0  0  0  0  0  0  0  0
  161.0750  214.3660  149.2010 N   0  0  0  0  0  0  0  0  0  0  0  0
  160.8440  212.8000  144.5090 C   0  0  0  0  0  1  0  0  0  0  0  0
  162.7710  213.8470  146.7220 O   0  0  0  0  0  0  0  0  0  0  0  0
  160.5350  213.4480  145.8140 C   0  0  0  0  0  0  0  0  0  0  0  0
  159.3140  213.5960  146.3580 C   0  0  0  0  0  0  0  0  0  0  0  0
  161.5160  213.9220  146.7990 C   0  0  0  0  0  0  0  0  0  0  0  0
  159.5160  214.1760  147.6930 C   0  0  0  0  0  0  0  0  0  0  0  0
  157.2490  214.2550  145.1560 C   0  0  0  0  0  1  0  0  0  0  0  0
  158.0280  213.1060  145.7690 C   0  0  2  0  0  3  0  0  0  0  0  0
  157.2270  212.4530  146.7890 N   0  0  0  0  0  1  0  0  0  0  0  0
  161.9280  210.3990  152.5650 O   0  0  0  0  0  0  0  0  0  0  0  0
  162.4150  209.3420  151.7760 C   0  0  0  0  0  2  0  0  0  0  0  0
  162.0000  209.5360  150.3270 C   0  0  0  0  0  2  0  0  0  0  0  0
  161.9440  208.2090  149.5880 C   0  0  0  0  0  2  0  0  0  0  0  0
  161.1030  207.3200  150.2660 O   0  0  0  0  0  0  0  0  0  0  0  0
  161.4890  206.0460  149.8400 C   0  0  2  0  0  3  0  0  0  0  0  0
  161.4860  205.9970  148.3410 C   0  0  0  0  0  0  0  0  0  0  0  0
  160.3720  206.3310  147.6800 C   0  0  0  0  0  3  0  0  0  0  0  0
  162.4710  205.0810  146.2260 C   0  0  1  0  0  3  0  0  0  0  0  0
  160.3450  206.3280  146.2050 C   0  0  0  0  0  3  0  0  0  0  0  0
  162.7640  205.7290  147.5830 C   0  0  0  0  0  2  0  0  0  0  0  0
  161.3490  205.7830  145.5130 C   0  0  0  0  0  3  0  0  0  0  0  0
  163.6080  205.0790  145.4400 F   0  0  0  0  0  0  0  0  0  0  0  0
  160.5450  204.9940  150.4380 C   0  0  2  0  0  3  0  0  0  0  0  0
  160.6750  204.9610  151.8290 O   0  0  0  0  0  1  0  0  0  0  0  0
  161.2580  201.1360  148.8200 C   0  0  0  0  0  0  0  0  0  0  0  0
  161.1300  202.5380  150.6980 C   0  0  0  0  0  3  0  0  0  0  0  0
  161.3630  201.3040  150.1620 N   0  0  0  0  0  0  0  0  0  0  0  0
  161.3000  200.2080  146.8620 C   0  0  0  0  0  3  0  0  0  0  0  0
  160.6810  203.4340  148.4800 C   0  0  0  0  0  3  0  0  0  0  0  0
  160.7800  203.6280  149.8670 C   0  0  0  0  0  0  0  0  0  0  0  0
  161.4840  199.9330  148.1170 N   0  0  0  0  0  0  0  0  0  0  0  0
  160.9260  201.6490  146.6000 C   0  0  0  0  0  2  0  0  0  0  0  0
  160.9300  202.1590  147.9870 C   0  0  0  0  0  0  0  0  0  0  0  0
  1 14  1  1  0  0  0
  1  5  1  0  0  0  0
  2 13  1  0  0  0  0
  3  4  1  0  0  0  0
  3  1  1  0  0  0  0
  4 32  1  6  0  0  0
  4  2  1  0  0  0  0
  5  2  1  6  0  0  0
  5  9  1  0  0  0  0
  8  7  1  0  0  0  0
  9 10  1  6  0  0  0
  9 11  1  0  0  0  0
 10  8  1  0  0  0  0
 11  7  1  0  0  0  0
 11  6  1  1  0  0  0
 13 12  1  0  0  0  0
 16 15  1  6  0  0  0
 16 14  1  0  0  0  0
 17 16  1  0  0  0  0
 18 17  1  0  0  0  0
 19 22  1  0  0  0  0
 20 21  1  0  0  0  0
 21 18  1  0  0  0  0
 22 21  2  0  0  0  0
 23 25  1  0  0  0  0
 24 27  2  0  0  0  0
 25 26  2  0  0  0  0
 25 27  1  0  0  0  0
 26 28  1  0  0  0  0
 27 19  1  0  0  0  0
 28 19  1  0  0  0  0
 28 20  2  0  0  0  0
 30 29  1  1  0  0  0
 30 26  1  0  0  0  0
 30 31  1  0  0  0  0
 33 32  1  0  0  0  0
 34 33  1  0  0  0  0
 35 36  1  0  0  0  0
 35 34  1  0  0  0  0
 37 36  1  6  0  0  0
 37 45  1  0  0  0  0
 38 37  1  0  0  0  0
 39 38  2  0  0  0  0
 40 44  1  6  0  0  0
 40 42  1  0  0  0  0
 41 39  1  0  0  0  0
 42 38  1  0  0  0  0
 43 41  2  0  0  0  0
 43 40  1  0  0  0  0
 45 46  1  1  0  0  0
 47 49  2  0  0  0  0
 49 48  1  0  0  0  0
 50 53  2  0  0  0  0
 51 52  1  0  0  0  0
 52 45  1  0  0  0  0
 52 48  2  0  0  0  0
 53 47  1  0  0  0  0
 54 50  1  0  0  0  0
 54 55  1  0  0  0  0
 55 51  2  0  0  0  0
 55 47  1  0  0  0  0
M  END
>  <MODEL>
2

>  <REMARK>
 VINA RESULT:      -7.2      2.946      9.691
  Name = 
  17 active torsions:
  status: ('A' for Active; 'I' for Inactive)
    1  A    between atoms: C_3  and  C_39
    2  A    between atoms: C_3  and  C_42
    3  A    between atoms: C_4  and  C_18
    4  A    between atoms: N_7  and  C_51
    5  A    between atoms: C_8  and  C_39
    6  A    between atoms: C_10  and  C_18
    7  A    between atoms: C_10  and  C_53
    8  A    between atoms: C_11  and  O_34
    9  A    between atoms: C_11  and  C_35
   10  A    between atoms: C_20  and  O_34
   11  A    between atoms: C_21  and  C_48
   12  A    between atoms: O_22  and  C_36
   13  A    between atoms: O_22  and  C_39
   14  A    between atoms: C_24  and  C_44
   15  A    between atoms: C_33  and  C_54
   16  A    between atoms: C_35  and  C_36
   17  A    between atoms: C_48  and  C_53
                            x       y       z     vdW  Elec       q    Type
                         _______ _______ _______ _____ _____    ______ ____

>  <TORSDO>
F 17

$$$$
=
 OpenBabel11072410053D

 55 61  0  0  1  0  0  0  0  0999 V2000
  160.5370  212.3250  146.5970 C   0  0  1  0  0  3  0  0  0  0  0  0
  158.8160  213.8490  145.8280 N   0  0  0  0  0  0  0  0  0  0  0  0
  159.4580  212.3400  147.6480 C   0  0  0  0  0  2  0  0  0  0  0  0
  158.4400  213.3620  147.1590 C   0  0  1  0  0  3  0  0  0  0  0  0
  159.8750  212.9530  145.3650 C   0  0  1  0  0  3  0  0  0  0  0  0
  161.0480  212.5660  142.3040 O   0  0  0  0  0  1  0  0  0  0  0  0
  163.0030  213.2880  143.4330 C   0  0  0  0  0  2  0  0  0  0  0  0
  163.1560  214.1170  144.6880 C   0  0  0  0  0  2  0  0  0  0  0  0
  160.8610  213.6590  144.4170 C   0  0  1  0  0  3  0  0  0  0  0  0
  161.8250  214.4450  145.1850 N   0  0  0  0  0  2  0  0  0  0  0  0
  161.6370  212.6780  143.5640 C   0  0  1  0  0  3  0  0  0  0  0  0
  156.4890  213.8970  145.6790 O   0  0  0  0  0  1  0  0  0  0  0  0
  157.6600  213.6320  144.9700 C   0  0  0  0  0  2  0  0  0  0  0  0
  161.7210  213.1350  147.1190 C   0  0  0  0  0  2  0  0  0  0  0  0
  163.5860  212.8370  148.5770 O   0  0  0  0  0  1  0  0  0  0  0  0
  162.2370  212.5180  148.4040 C   0  0  2  0  0  3  0  0  0  0  0  0
  162.0670  211.0120  148.3410 C   0  0  0  0  0  2  0  0  0  0  0  0
  162.1710  210.4050  149.7320 C   0  0  0  0  0  2  0  0  0  0  0  0
  162.0830  206.8980  150.2840 N   0  0  0  0  0  0  0  0  0  0  0  0
  162.1620  208.1740  148.4710 C   0  0  0  0  0  3  0  0  0  0  0  0
  162.1500  208.9170  149.6600 C   0  0  0  0  0  0  0  0  0  0  0  0
  162.0180  208.1250  150.7530 N   0  0  0  0  0  0  0  0  0  0  0  0
  160.4190  203.6250  149.4440 C   0  0  0  0  0  1  0  0  0  0  0  0
  161.0820  205.4520  151.8790 O   0  0  0  0  0  0  0  0  0  0  0  0
  161.1510  204.9210  149.4930 C   0  0  0  0  0  0  0  0  0  0  0  0
  161.5740  205.6340  148.4340 C   0  0  0  0  0  0  0  0  0  0  0  0
  161.4280  205.7150  150.6960 C   0  0  0  0  0  0  0  0  0  0  0  0
  162.1310  206.8860  148.9660 C   0  0  0  0  0  0  0  0  0  0  0  0
  162.6840  205.1950  146.2610 C   0  0  0  0  0  1  0  0  0  0  0  0
  161.3590  205.2790  146.9950 C   0  0  2  0  0  3  0  0  0  0  0  0
  160.5020  206.2630  146.3600 N   0  0  0  0  0  1  0  0  0  0  0  0
  158.2220  214.4120  148.0810 O   0  0  0  0  0  0  0  0  0  0  0  0
  156.9290  214.2950  148.6210 C   0  0  0  0  0  2  0  0  0  0  0  0
  156.9770  214.4530  150.1330 C   0  0  0  0  0  2  0  0  0  0  0  0
  157.6170  213.2420  150.7920 C   0  0  0  0  0  2  0  0  0  0  0  0
  158.3770  213.6460  151.8950 O   0  0  0  0  0  0  0  0  0  0  0  0
  158.4570  212.5210  152.7210 C   0  0  2  0  0  3  0  0  0  0  0  0
  157.5080  212.6750  153.8720 C   0  0  0  0  0  0  0  0  0  0  0  0
  157.3310  213.8850  154.4130 C   0  0  0  0  0  3  0  0  0  0  0  0
  156.2860  211.6310  155.7950 C   0  0  1  0  0  3  0  0  0  0  0  0
  156.3780  214.0790  155.5220 C   0  0  0  0  0  3  0  0  0  0  0  0
  156.6450  211.5160  154.3110 C   0  0  0  0  0  2  0  0  0  0  0  0
  155.8470  213.0240  156.1480 C   0  0  0  0  0  3  0  0  0  0  0  0
  155.2970  210.7220  156.1210 F   0  0  0  0  0  0  0  0  0  0  0  0
  159.9010  212.3390  153.2070 C   0  0  2  0  0  3  0  0  0  0  0  0
  160.7970  212.5390  152.1510 O   0  0  0  0  0  1  0  0  0  0  0  0
  160.5010  208.5230  154.9640 C   0  0  0  0  0  0  0  0  0  0  0  0
  160.0980  209.8140  153.0450 C   0  0  0  0  0  3  0  0  0  0  0  0
  160.2860  208.5930  153.6260 N   0  0  0  0  0  0  0  0  0  0  0  0
  160.8430  207.7130  156.9450 C   0  0  0  0  0  3  0  0  0  0  0  0
  160.3510  210.8990  155.2090 C   0  0  0  0  0  3  0  0  0  0  0  0
  160.1300  210.9930  153.8250 C   0  0  0  0  0  0  0  0  0  0  0  0
  160.6950  207.3420  155.7100 N   0  0  0  0  0  0  0  0  0  0  0  0
  160.7630  209.2090  157.1460 C   0  0  0  0  0  2  0  0  0  0  0  0
  160.5340  209.6330  155.7490 C   0  0  0  0  0  0  0  0  0  0  0  0
  1 14  1  1  0  0  0
  1  3  1  0  0  0  0
  2  4  1  0  0  0  0
  4  3  1  0  0  0  0
  4 32  1  1  0  0  0
  5  2  1  1  0  0  0
  5  1  1  0  0  0  0
  7 11  1  0  0  0  0
  7  8  1  0  0  0  0
  8 10  1  0  0  0  0
  9 10  1  1  0  0  0
  9  5  1  0  0  0  0
 11  6  1  6  0  0  0
 11  9  1  0  0  0  0
 13 12  1  0  0  0  0
 13  2  1  0  0  0  0
 14 16  1  0  0  0  0
 16 15  1  6  0  0  0
 17 16  1  0  0  0  0
 17 18  1  0  0  0  0
 19 27  1  0  0  0  0
 19 22  1  0  0  0  0
 20 28  2  0  0  0  0
 20 21  1  0  0  0  0
 21 18  1  0  0  0  0
 21 22  2  0  0  0  0
 23 25  1  0  0  0  0
 25 27  1  0  0  0  0
 26 28  1  0  0  0  0
 26 25  2  0  0  0  0
 27 24  2  0  0  0  0
 28 19  1  0  0  0  0
 30 29  1  6  0  0  0
 30 26  1  0  0  0  0
 31 30  1  0  0  0  0
 32 33  1  0  0  0  0
 33 34  1  0  0  0  0
 34 35  1  0  0  0  0
 35 36  1  0  0  0  0
 37 36  1  6  0  0  0
 37 45  1  0  0  0  0
 37 38  1  0  0  0  0
 38 42  1  0  0  0  0
 38 39  2  0  0  0  0
 39 41  1  0  0  0  0
 40 44  1  6  0  0  0
 40 43  1  0  0  0  0
 41 43  2  0  0  0  0
 42 40  1  0  0  0  0
 45 46  1  6  0  0  0
 45 52  1  0  0  0  0
 47 53  1  0  0  0  0
 47 55  1  0  0  0  0
 48 49  1  0  0  0  0
 48 52  2  0  0  0  0
 49 47  2  0  0  0  0
 50 54  1  0  0  0  0
 51 55  2  0  0  0  0
 52 51  1  0  0  0  0
 53 50  2  0  0  0  0
 55 54  1  0  0  0  0
M  END
>  <MODEL>
3

>  <REMARK>
 VINA RESULT:      -6.9      2.517      9.178
  Name = 
  17 active torsions:
  status: ('A' for Active; 'I' for Inactive)
    1  A    between atoms: C_3  and  C_39
    2  A    between atoms: C_3  and  C_42
    3  A    between atoms: C_4  and  C_18
    4  A    between atoms: N_7  and  C_51
    5  A    between atoms: C_8  and  C_39
    6  A    between atoms: C_10  and  C_18
    7  A    between atoms: C_10  and  C_53
    8  A    between atoms: C_11  and  O_34
    9  A    between atoms: C_11  and  C_35
   10  A    between atoms: C_20  and  O_34
   11  A    between atoms: C_21  and  C_48
   12  A    between atoms: O_22  and  C_36
   13  A    between atoms: O_22  and  C_39
   14  A    between atoms: C_24  and  C_44
   15  A    between atoms: C_33  and  C_54
   16  A    between atoms: C_35  and  C_36
   17  A    between atoms: C_48  and  C_53
                            x       y       z     vdW  Elec       q    Type
                         _______ _______ _______ _____ _____    ______ ____

>  <TORSDO>
F 17

$$$$
=
 OpenBabel11072410053D

 55 61  0  0  1  0  0  0  0  0999 V2000
  162.0550  206.6660  153.1360 C   0  0  1  0  0  3  0  0  0  0  0  0
  161.4250  208.9950  152.8970 N   0  0  0  0  0  0  0  0  0  0  0  0
  162.6880  207.1680  151.8650 C   0  0  0  0  0  2  0  0  0  0  0  0
  162.2060  208.6050  151.7190 C   0  0  1  0  0  3  0  0  0  0  0  0
  161.6490  207.9410  153.8860 C   0  0  1  0  0  3  0  0  0  0  0  0
  159.2540  209.7910  155.2010 O   0  0  0  0  0  1  0  0  0  0  0  0
  159.7580  208.3680  157.0270 C   0  0  0  0  0  2  0  0  0  0  0  0
  160.3600  206.9820  157.0480 C   0  0  0  0  0  2  0  0  0  0  0  0
  160.4430  207.7570  154.8250 C   0  0  1  0  0  3  0  0  0  0  0  0
  160.6370  206.5830  155.6720 N   0  0  0  0  0  2  0  0  0  0  0  0
  160.2360  208.9540  155.7300 C   0  0  1  0  0  3  0  0  0  0  0  0
  161.1640  211.2850  153.2540 O   0  0  0  0  0  1  0  0  0  0  0  0
  162.0390  210.2100  153.4140 C   0  0  0  0  0  2  0  0  0  0  0  0
  160.8640  205.7880  152.7610 C   0  0  0  0  0  2  0  0  0  0  0  0
  159.9630  205.0850  150.6660 O   0  0  0  0  0  1  0  0  0  0  0  0
  161.1300  205.1050  151.4340 C   0  0  2  0  0  3  0  0  0  0  0  0
  161.6030  203.6850  151.6870 C   0  0  0  0  0  2  0  0  0  0  0  0
  160.7970  202.6990  150.8560 C   0  0  0  0  0  2  0  0  0  0  0  0
  161.2500  202.4500  147.3420 N   0  0  0  0  0  0  0  0  0  0  0  0
  161.4890  204.0900  148.8170 C   0  0  0  0  0  3  0  0  0  0  0  0
  161.0730  202.8850  149.4030 C   0  0  0  0  0  0  0  0  0  0  0  0
  160.8530  201.9190  148.4780 N   0  0  0  0  0  0  0  0  0  0  0  0
  160.4610  203.9090  143.9600 C   0  0  0  0  0  1  0  0  0  0  0  0
  160.2090  201.2560  145.5730 O   0  0  0  0  0  0  0  0  0  0  0  0
  160.9070  203.5880  145.3450 C   0  0  0  0  0  0  0  0  0  0  0  0
  161.4130  204.4580  146.2370 C   0  0  0  0  0  0  0  0  0  0  0  0
  160.7540  202.2970  146.0270 C   0  0  0  0  0  0  0  0  0  0  0  0
  161.5920  203.7150  147.4930 C   0  0  0  0  0  0  0  0  0  0  0  0
  161.8070  206.6400  147.3450 C   0  0  0  0  0  1  0  0  0  0  0  0
  161.5940  205.9280  146.0220 C   0  0  2  0  0  3  0  0  0  0  0  0
  160.4380  206.4820  145.3420 N   0  0  0  0  0  1  0  0  0  0  0  0
  161.5150  208.8380  150.5070 O   0  0  0  0  0  0  0  0  0  0  0  0
  161.7850  210.1440  150.0620 C   0  0  0  0  0  2  0  0  0  0  0  0
  161.9780  210.1530  148.5540 C   0  0  0  0  0  2  0  0  0  0  0  0
  161.8670  211.5610  147.9930 C   0  0  0  0  0  2  0  0  0  0  0  0
  160.7370  211.6620  147.1760 O   0  0  0  0  0  0  0  0  0  0  0  0
  160.4470  213.0280  147.1110 C   0  0  2  0  0  3  0  0  0  0  0  0
  159.5590  213.4070  148.2590 C   0  0  0  0  0  0  0  0  0  0  0  0
  160.1150  213.8080  149.4070 C   0  0  0  0  0  3  0  0  0  0  0  0
  157.3320  213.2290  149.3930 C   0  0  1  0  0  3  0  0  0  0  0  0
  159.2720  214.2230  150.5440 C   0  0  0  0  0  3  0  0  0  0  0  0
  158.0630  213.4890  148.0730 C   0  0  0  0  0  2  0  0  0  0  0  0
  157.9560  213.9950  150.5270 C   0  0  0  0  0  3  0  0  0  0  0  0
  155.9950  213.5590  149.2740 F   0  0  0  0  0  0  0  0  0  0  0  0
  159.7900  213.3520  145.7630 C   0  0  2  0  0  3  0  0  0  0  0  0
  158.9450  212.3090  145.3710 O   0  0  0  0  0  1  0  0  0  0  0  0
  162.6370  214.1750  142.7240 C   0  0  0  0  0  0  0  0  0  0  0  0
  162.1520  213.8870  145.0030 C   0  0  0  0  0  3  0  0  0  0  0  0
  163.0550  214.1570  144.0150 N   0  0  0  0  0  0  0  0  0  0  0  0
  162.6540  214.3900  140.5680 C   0  0  0  0  0  3  0  0  0  0  0  0
  160.3850  213.6530  143.3460 C   0  0  0  0  0  3  0  0  0  0  0  0
  160.7980  213.6260  144.6880 C   0  0  0  0  0  0  0  0  0  0  0  0
  163.4400  214.4530  141.5980 N   0  0  0  0  0  0  0  0  0  0  0  0
  161.2210  214.0550  140.9130 C   0  0  0  0  0  2  0  0  0  0  0  0
  161.3430  213.9350  142.3810 C   0  0  0  0  0  0  0  0  0  0  0  0
  1 14  1  6  0  0  0
  1  5  1  0  0  0  0
  2 13  1  0  0  0  0
  3  1  1  0  0  0  0
  4 32  1  6  0  0  0
  4  3  1  0  0  0  0
  4  2  1  0  0  0  0
  5  2  1  6  0  0  0
  5  9  1  0  0  0  0
  7  8  1  0  0  0  0
  9 10  1  1  0  0  0
  9 11  1  0  0  0  0
 10  8  1  0  0  0  0
 11  6  1  6  0  0  0
 11  7  1  0  0  0  0
 12 13  1  0  0  0  0
 16 15  1  6  0  0  0
 16 17  1  0  0  0  0
 16 14  1  0  0  0  0
 18 17  1  0  0  0  0
 19 28  1  0  0  0  0
 19 22  1  0  0  0  0
 20 21  1  0  0  0  0
 21 18  1  0  0  0  0
 22 21  2  0  0  0  0
 23 25  1  0  0  0  0
 24 27  2  0  0  0  0
 25 27  1  0  0  0  0
 25 26  2  0  0  0  0
 26 28  1  0  0  0  0
 27 19  1  0  0  0  0
 28 20  2  0  0  0  0
 30 26  1  0  0  0  0
 30 29  1  1  0  0  0
 31 30  1  0  0  0  0
 33 32  1  0  0  0  0
 34 33  1  0  0  0  0
 35 34  1  0  0  0  0
 36 35  1  0  0  0  0
 37 36  1  6  0  0  0
 37 38  1  0  0  0  0
 38 39  2  0  0  0  0
 39 41  1  0  0  0  0
 40 44  1  6  0  0  0
 40 43  1  0  0  0  0
 42 38  1  0  0  0  0
 42 40  1  0  0  0  0
 43 41  2  0  0  0  0
 45 46  1  6  0  0  0
 45 37  1  0  0  0  0
 47 49  2  0  0  0  0
 49 48  1  0  0  0  0
 50 54  1  0  0  0  0
 50 53  2  0  0  0  0
 51 52  1  0  0  0  0
 52 48  2  0  0  0  0
 52 45  1  0  0  0  0
 53 47  1  0  0  0  0
 54 55  1  0  0  0  0
 55 47  1  0  0  0  0
 55 51  2  0  0  0  0
M  END
>  <MODEL>
4

>  <REMARK>
 VINA RESULT:      -6.2      1.946      6.719
  Name = 
  17 active torsions:
  status: ('A' for Active; 'I' for Inactive)
    1  A    between atoms: C_3  and  C_39
    2  A    between atoms: C_3  and  C_42
    3  A    between atoms: C_4  and  C_18
    4  A    between atoms: N_7  and  C_51
    5  A    between atoms: C_8  and  C_39
    6  A    between atoms: C_10  and  C_18
    7  A    between atoms: C_10  and  C_53
    8  A    between atoms: C_11  and  O_34
    9  A    between atoms: C_11  and  C_35
   10  A    between atoms: C_20  and  O_34
   11  A    between atoms: C_21  and  C_48
   12  A    between atoms: O_22  and  C_36
   13  A    between atoms: O_22  and  C_39
   14  A    between atoms: C_24  and  C_44
   15  A    between atoms: C_33  and  C_54
   16  A    between atoms: C_35  and  C_36
   17  A    between atoms: C_48  and  C_53
                            x       y       z     vdW  Elec       q    Type
                         _______ _______ _______ _____ _____    ______ ____

>  <TORSDO>
F 17

$$$$
=
 OpenBabel11072410053D

 55 61  0  0  1  0  0  0  0  0999 V2000
  162.2830  204.3230  146.0390 C   0  0  1  0  0  3  0  0  0  0  0  0
  161.2680  204.6100  148.2210 N   0  0  0  0  0  0  0  0  0  0  0  0
  162.6100  205.7190  146.4980 C   0  0  0  0  0  2  0  0  0  0  0  0
  161.8930  205.8780  147.8320 C   0  0  1  0  0  3  0  0  0  0  0  0
  161.8150  203.6050  147.3100 C   0  0  1  0  0  3  0  0  0  0  0  0
  160.4790  201.0890  148.9770 O   0  0  0  0  0  1  0  0  0  0  0  0
  160.8290  200.0760  146.8630 C   0  0  0  0  0  2  0  0  0  0  0  0
  160.9270  200.6960  145.4880 C   0  0  0  0  0  2  0  0  0  0  0  0
  160.8260  202.4550  147.0510 C   0  0  1  0  0  3  0  0  0  0  0  0
  160.7800  202.1400  145.6250 N   0  0  0  0  0  2  0  0  0  0  0  0
  161.2100  201.1920  147.7930 C   0  0  1  0  0  3  0  0  0  0  0  0
  160.6880  204.0870  150.4190 O   0  0  0  0  0  1  0  0  0  0  0  0
  161.7620  204.3000  149.5550 C   0  0  0  0  0  2  0  0  0  0  0  0
  161.1980  204.4150  144.9690 C   0  0  0  0  0  2  0  0  0  0  0  0
  160.1970  206.5790  144.8950 O   0  0  0  0  0  1  0  0  0  0  0  0
  161.2130  205.7950  144.3420 C   0  0  2  0  0  3  0  0  0  0  0  0
  161.0090  205.6680  142.8450 C   0  0  0  0  0  2  0  0  0  0  0  0
  162.3310  205.8280  142.1110 C   0  0  0  0  0  2  0  0  0  0  0  0
  161.9590  207.6380  139.0780 N   0  0  0  0  0  0  0  0  0  0  0  0
  162.2370  208.2220  141.2000 C   0  0  0  0  0  3  0  0  0  0  0  0
  162.2080  206.8320  141.0160 C   0  0  0  0  0  0  0  0  0  0  0  0
  161.9550  206.4950  139.7280 N   0  0  0  0  0  0  0  0  0  0  0  0
  160.1180  210.3720  137.2540 C   0  0  0  0  0  1  0  0  0  0  0  0
  160.7650  207.3310  137.0490 O   0  0  0  0  0  0  0  0  0  0  0  0
  160.9370  209.5080  138.1500 C   0  0  0  0  0  0  0  0  0  0  0  0
  161.4720  209.8690  139.3290 C   0  0  0  0  0  0  0  0  0  0  0  0
  161.1980  208.0740  137.9690 C   0  0  0  0  0  0  0  0  0  0  0  0
  162.0850  208.6610  139.9010 C   0  0  0  0  0  0  0  0  0  0  0  0
  162.6580  211.7130  140.4860 C   0  0  0  0  0  1  0  0  0  0  0  0
  161.3180  211.2040  139.9900 C   0  0  2  0  0  3  0  0  0  0  0  0
  160.3830  211.1100  141.0960 N   0  0  0  0  0  1  0  0  0  0  0  0
  160.9810  206.9600  147.8460 O   0  0  0  0  0  0  0  0  0  0  0  0
  161.4670  207.9660  148.7000 C   0  0  0  0  0  2  0  0  0  0  0  0
  161.2060  207.5930  150.1500 C   0  0  0  0  0  2  0  0  0  0  0  0
  161.7100  208.6700  151.0960 C   0  0  0  0  0  2  0  0  0  0  0  0
  160.6380  209.2290  151.7980 O   0  0  0  0  0  0  0  0  0  0  0  0
  161.1930  210.2590  152.5640 C   0  0  2  0  0  3  0  0  0  0  0  0
  161.3160  209.8110  153.9910 C   0  0  0  0  0  0  0  0  0  0  0  0
  161.9900  210.5760  154.8580 C   0  0  0  0  0  3  0  0  0  0  0  0
  161.2810  207.9430  155.6600 C   0  0  1  0  0  3  0  0  0  0  0  0
  162.1000  210.1840  156.2750 C   0  0  0  0  0  3  0  0  0  0  0  0
  160.5590  208.6000  154.4800 C   0  0  0  0  0  2  0  0  0  0  0  0
  161.7270  208.9640  156.6690 C   0  0  0  0  0  3  0  0  0  0  0  0
  160.4610  207.0060  156.2610 F   0  0  0  0  0  0  0  0  0  0  0  0
  160.3240  211.5170  152.4450 C   0  0  2  0  0  3  0  0  0  0  0  0
  158.9840  211.2080  152.7010 O   0  0  0  0  0  1  0  0  0  0  0  0
  160.6560  213.3400  148.6260 C   0  0  0  0  0  0  0  0  0  0  0  0
  159.5180  213.1430  150.6700 C   0  0  0  0  0  3  0  0  0  0  0  0
  159.6340  213.7150  149.4360 N   0  0  0  0  0  0  0  0  0  0  0  0
  161.9520  213.1960  146.8950 C   0  0  0  0  0  3  0  0  0  0  0  0
  161.5000  211.7950  150.2480 C   0  0  0  0  0  3  0  0  0  0  0  0
  160.4510  212.1730  151.1030 C   0  0  0  0  0  0  0  0  0  0  0  0
  160.9000  213.8230  147.3240 N   0  0  0  0  0  0  0  0  0  0  0  0
  162.5250  212.2140  147.8920 C   0  0  0  0  0  2  0  0  0  0  0  0
  161.5700  212.4070  149.0030 C   0  0  0  0  0  0  0  0  0  0  0  0
  1 14  1  6  0  0  0
  1  3  1  0  0  0  0
  1  5  1  0  0  0  0
  2 13  1  0  0  0  0
  3  4  1  0  0  0  0
  4 32  1  6  0  0  0
  4  2  1  0  0  0  0
  5  2  1  1  0  0  0
  7 11  1  0  0  0  0
  8 10  1  0  0  0  0
  8  7  1  0  0  0  0
  9 10  1  6  0  0  0
  9  5  1  0  0  0  0
  9 11  1  0  0  0  0
 11  6  1  1  0  0  0
 13 12  1  0  0  0  0
 16 15  1  1  0  0  0
 16 14  1  0  0  0  0
 17 16  1  0  0  0  0
 18 17  1  0  0  0  0
 19 22  1  0  0  0  0
 19 28  1  0  0  0  0
 21 20  1  0  0  0  0
 21 18  1  0  0  0  0
 22 21  2  0  0  0  0
 23 25  1  0  0  0  0
 24 27  2  0  0  0  0
 25 26  2  0  0  0  0
 26 28  1  0  0  0  0
 26 30  1  0  0  0  0
 27 25  1  0  0  0  0
 27 19  1  0  0  0  0
 28 20  2  0  0  0  0
 30 29  1  1  0  0  0
 30 31  1  0  0  0  0
 32 33  1  0  0  0  0
 33 34  1  0  0  0  0
 34 35  1  0  0  0  0
 35 36  1  0  0  0  0
 37 36  1  6  0  0  0
 37 38  1  0  0  0  0
 38 42  1  0  0  0  0
 38 39  2  0  0  0  0
 39 41  1  0  0  0  0
 40 44  1  1  0  0  0
 40 43  1  0  0  0  0
 41 43  2  0  0  0  0
 42 40  1  0  0  0  0
 45 37  1  0  0  0  0
 45 46  1  6  0  0  0
 47 55  1  0  0  0  0
 47 49  2  0  0  0  0
 48 52  2  0  0  0  0
 49 48  1  0  0  0  0
 50 53  2  0  0  0  0
 50 54  1  0  0  0  0
 51 52  1  0  0  0  0
 52 45  1  0  0  0  0
 53 47  1  0  0  0  0
 54 55  1  0  0  0  0
 55 51  2  0  0  0  0
M  END
>  <MODEL>
5

>  <REMARK>
 VINA RESULT:      -5.5      3.259      9.281
  Name = 
  17 active torsions:
  status: ('A' for Active; 'I' for Inactive)
    1  A    between atoms: C_3  and  C_39
    2  A    between atoms: C_3  and  C_42
    3  A    between atoms: C_4  and  C_18
    4  A    between atoms: N_7  and  C_51
    5  A    between atoms: C_8  and  C_39
    6  A    between atoms: C_10  and  C_18
    7  A    between atoms: C_10  and  C_53
    8  A    between atoms: C_11  and  O_34
    9  A    between atoms: C_11  and  C_35
   10  A    between atoms: C_20  and  O_34
   11  A    between atoms: C_21  and  C_48
   12  A    between atoms: O_22  and  C_36
   13  A    between atoms: O_22  and  C_39
   14  A    between atoms: C_24  and  C_44
   15  A    between atoms: C_33  and  C_54
   16  A    between atoms: C_35  and  C_36
   17  A    between atoms: C_48  and  C_53
                            x       y       z     vdW  Elec       q    Type
                         _______ _______ _______ _____ _____    ______ ____

>  <TORSDO>
F 17

$$$$
=
 OpenBabel11072410053D

 55 61  0  0  1  0  0  0  0  0999 V2000
  162.3310  204.3690  146.0610 C   0  0  1  0  0  3  0  0  0  0  0  0
  161.1910  204.7010  148.1740 N   0  0  0  0  0  0  0  0  0  0  0  0
  162.6600  205.7630  146.5270 C   0  0  0  0  0  2  0  0  0  0  0  0
  161.8660  205.9510  147.8120 C   0  0  1  0  0  3  0  0  0  0  0  0
  161.7700  203.6750  147.3070 C   0  0  1  0  0  3  0  0  0  0  0  0
  160.5450  201.0000  148.8040 O   0  0  0  0  0  1  0  0  0  0  0  0
  160.7770  200.1930  146.5880 C   0  0  0  0  0  2  0  0  0  0  0  0
  160.7920  200.9390  145.2730 C   0  0  0  0  0  2  0  0  0  0  0  0
  160.7730  202.5440  146.9980 C   0  0  1  0  0  3  0  0  0  0  0  0
  160.6460  202.3630  145.5540 N   0  0  0  0  0  2  0  0  0  0  0  0
  161.2060  201.2210  147.5950 C   0  0  1  0  0  3  0  0  0  0  0  0
  160.4920  204.4760  150.3870 O   0  0  0  0  0  1  0  0  0  0  0  0
  161.5950  204.3940  149.5380 C   0  0  0  0  0  2  0  0  0  0  0  0
  161.3160  204.4730  144.9260 C   0  0  0  0  0  2  0  0  0  0  0  0
  160.4570  206.6960  144.8040 O   0  0  0  0  0  1  0  0  0  0  0  0
  161.4200  205.8360  144.2700 C   0  0  2  0  0  3  0  0  0  0  0  0
  161.2070  205.6910  142.7750 C   0  0  0  0  0  2  0  0  0  0  0  0
  162.4870  206.0140  142.0200 C   0  0  0  0  0  2  0  0  0  0  0  0
  161.6950  207.6910  138.9920 N   0  0  0  0  0  0  0  0  0  0  0  0
  162.2940  208.3650  141.0190 C   0  0  0  0  0  3  0  0  0  0  0  0
  162.2170  206.9690  140.9090 C   0  0  0  0  0  0  0  0  0  0  0  0
  161.7710  206.5790  139.6900 N   0  0  0  0  0  0  0  0  0  0  0  0
  159.6430  210.3790  137.3310 C   0  0  0  0  0  1  0  0  0  0  0  0
  160.2070  207.3190  137.1790 O   0  0  0  0  0  0  0  0  0  0  0  0
  160.5730  209.5390  138.1360 C   0  0  0  0  0  0  0  0  0  0  0  0
  161.2830  209.9420  139.2050 C   0  0  0  0  0  0  0  0  0  0  0  0
  160.7830  208.0940  137.9890 C   0  0  0  0  0  0  0  0  0  0  0  0
  161.9560  208.7480  139.7370 C   0  0  0  0  0  0  0  0  0  0  0  0
  162.5950  211.6580  140.4200 C   0  0  0  0  0  1  0  0  0  0  0  0
  161.2480  211.3080  139.8160 C   0  0  2  0  0  3  0  0  0  0  0  0
  160.2160  211.3760  140.8340 N   0  0  0  0  0  1  0  0  0  0  0  0
  160.9800  207.0530  147.7610 O   0  0  0  0  0  0  0  0  0  0  0  0
  161.6330  208.1970  148.2520 C   0  0  0  0  0  2  0  0  0  0  0  0
  162.1960  207.9240  149.6380 C   0  0  0  0  0  2  0  0  0  0  0  0
  161.4840  208.7510  150.6950 C   0  0  0  0  0  2  0  0  0  0  0  0
  162.4210  209.4010  151.5040 O   0  0  0  0  0  0  0  0  0  0  0  0
  161.6860  209.9380  152.5650 C   0  0  2  0  0  3  0  0  0  0  0  0
  161.2920  208.8410  153.5080 C   0  0  0  0  0  0  0  0  0  0  0  0
  161.1370  207.5990  153.0350 C   0  0  0  0  0  3  0  0  0  0  0  0
  160.2250  208.1540  155.6690 C   0  0  1  0  0  3  0  0  0  0  0  0
  160.7850  206.4890  153.9400 C   0  0  0  0  0  3  0  0  0  0  0  0
  161.2250  209.0970  154.9940 C   0  0  0  0  0  2  0  0  0  0  0  0
  160.3980  206.7380  155.1940 C   0  0  0  0  0  3  0  0  0  0  0  0
  160.3600  208.2160  157.0430 F   0  0  0  0  0  0  0  0  0  0  0  0
  160.4570  210.6770  152.0190 C   0  0  2  0  0  3  0  0  0  0  0  0
  160.8490  211.6710  151.1170 O   0  0  0  0  0  1  0  0  0  0  0  0
  158.0810  212.4110  155.0790 C   0  0  0  0  0  0  0  0  0  0  0  0
  158.2240  211.0610  153.1640 C   0  0  0  0  0  3  0  0  0  0  0  0
  157.4720  211.6310  154.1500 N   0  0  0  0  0  0  0  0  0  0  0  0
  158.3740  213.7260  156.7760 C   0  0  0  0  0  3  0  0  0  0  0  0
  160.2320  212.0890  154.0780 C   0  0  0  0  0  3  0  0  0  0  0  0
  159.6210  211.2760  153.1100 C   0  0  0  0  0  0  0  0  0  0  0  0
  157.4430  213.0800  156.1440 N   0  0  0  0  0  0  0  0  0  0  0  0
  159.7520  213.5460  156.1830 C   0  0  0  0  0  2  0  0  0  0  0  0
  159.4200  212.6460  155.0580 C   0  0  0  0  0  0  0  0  0  0  0  0
  1 14  1  6  0  0  0
  1  3  1  0  0  0  0
  1  5  1  0  0  0  0
  2 13  1  0  0  0  0
  3  4  1  0  0  0  0
  4 32  1  6  0  0  0
  4  2  1  0  0  0  0
  5  2  1  1  0  0  0
  7 11  1  0  0  0  0
  8 10  1  0  0  0  0
  8  7  1  0  0  0  0
  9 10  1  6  0  0  0
  9  5  1  0  0  0  0
  9 11  1  0  0  0  0
 11  6  1  1  0  0  0
 13 12  1  0  0  0  0
 16 15  1  1  0  0  0
 16 14  1  0  0  0  0
 17 16  1  0  0  0  0
 18 17  1  0  0  0  0
 19 22  1  0  0  0  0
 19 28  1  0  0  0  0
 21 20  1  0  0  0  0
 21 18  1  0  0  0  0
 22 21  2  0  0  0  0
 23 25  1  0  0  0  0
 24 27  2  0  0  0  0
 25 26  2  0  0  0  0
 26 28  1  0  0  0  0
 26 30  1  0  0  0  0
 27 25  1  0  0  0  0
 27 19  1  0  0  0  0
 28 20  2  0  0  0  0
 30 29  1  1  0  0  0
 30 31  1  0  0  0  0
 32 33  1  0  0  0  0
 33 34  1  0  0  0  0
 34 35  1  0  0  0  0
 35 36  1  0  0  0  0
 37 36  1  6  0  0  0
 37 38  1  0  0  0  0
 38 42  1  0  0  0  0
 39 38  2  0  0  0  0
 39 41  1  0  0  0  0
 40 44  1  1  0  0  0
 41 43  2  0  0  0  0
 42 40  1  0  0  0  0
 43 40  1  0  0  0  0
 45 46  1  6  0  0  0
 45 37  1  0  0  0  0
 45 52  1  0  0  0  0
 47 53  1  0  0  0  0
 48 49  1  0  0  0  0
 49 47  2  0  0  0  0
 51 55  2  0  0  0  0
 52 48  2  0  0  0  0
 52 51  1  0  0  0  0
 53 50  2  0  0  0  0
 54 50  1  0  0  0  0
 55 47  1  0  0  0  0
 55 54  1  0  0  0  0
M  END
>  <MODEL>
6

>  <REMARK>
 VINA RESULT:      -4.8      3.253     10.342
  Name = 
  17 active torsions:
  status: ('A' for Active; 'I' for Inactive)
    1  A    between atoms: C_3  and  C_39
    2  A    between atoms: C_3  and  C_42
    3  A    between atoms: C_4  and  C_18
    4  A    between atoms: N_7  and  C_51
    5  A    between atoms: C_8  and  C_39
    6  A    between atoms: C_10  and  C_18
    7  A    between atoms: C_10  and  C_53
    8  A    between atoms: C_11  and  O_34
    9  A    between atoms: C_11  and  C_35
   10  A    between atoms: C_20  and  O_34
   11  A    between atoms: C_21  and  C_48
   12  A    between atoms: O_22  and  C_36
   13  A    between atoms: O_22  and  C_39
   14  A    between atoms: C_24  and  C_44
   15  A    between atoms: C_33  and  C_54
   16  A    between atoms: C_35  and  C_36
   17  A    between atoms: C_48  and  C_53
                            x       y       z     vdW  Elec       q    Type
                         _______ _______ _______ _____ _____    ______ ____

>  <TORSDO>
F 17

$$$$
