=
 OpenBabel11072413323D

 36 41  0  0  1  0  0  0  0  0999 V2000
  161.2420  209.2110  151.4990 C   0  0  0  0  0  0  0  0  0  0  0  0
  161.6470  208.1290  150.7460 C   0  0  0  0  0  0  0  0  0  0  0  0
  161.2360  208.2660  153.7860 C   0  0  0  0  0  3  0  0  0  0  0  0
  161.4090  210.3510  150.7900 N   0  0  0  0  0  0  0  0  0  0  0  0
  160.3460  210.4000  153.3460 O   0  0  0  0  0  1  0  0  0  0  0  0
  162.0760  208.5890  149.5600 N   0  0  0  0  0  0  0  0  0  0  0  0
  161.5370  206.7070  151.1010 C   0  0  0  0  0  3  0  0  0  0  0  0
  161.9360  209.9260  149.6220 C   0  0  0  0  0  0  0  0  0  0  0  0
  160.5140  209.1260  152.7990 C   0  0  1  0  0  3  0  0  0  0  0  0
  161.4580  206.2040  152.3400 C   0  0  0  0  0  0  0  0  0  0  0  0
  162.5880  207.8120  148.4430 C   0  0  0  0  0  1  0  0  0  0  0  0
  161.5980  206.9960  153.5860 C   0  0  0  0  0  3  0  0  0  0  0  0
  162.2880  210.8040  148.5510 N   0  0  0  0  0  2  0  0  0  0  0  0
  162.1030  212.2400  148.6510 C   0  0  2  0  0  3  0  0  0  0  0  0
  161.4570  213.7270  145.5400 C   0  0  0  0  0  3  0  0  0  0  0  0
  160.0880  213.5490  146.0610 C   0  0  0  0  0  3  0  0  0  0  0  0
  160.9380  212.6190  147.9600 C   0  0  0  0  0  0  0  0  0  0  0  0
  162.2570  212.8240  147.3890 C   0  0  0  0  0  0  0  0  0  0  0  0
  159.7760  212.9590  147.3440 C   0  0  0  0  0  3  0  0  0  0  0  0
  162.6100  213.3480  146.2230 N   0  0  0  0  0  0  0  0  0  0  0  0
  161.3960  204.7180  152.4620 C   0  0  0  0  0  2  0  0  0  0  0  0
  161.7310  202.6290  151.4470 C   0  0  0  0  0  2  0  0  0  0  0  0
  160.3790  202.0890  150.9970 C   0  0  1  0  0  3  0  0  0  0  0  0
  160.7470  204.3470  150.2150 C   0  0  0  0  0  2  0  0  0  0  0  0
  159.7380  203.2100  150.1950 C   0  0  1  0  0  3  0  0  0  0  0  0
  161.7760  204.0660  151.2090 N   0  0  0  0  0  0  0  0  0  0  0  0
  159.1240  201.0050  149.0690 C   0  0  0  0  0  1  0  0  0  0  0  0
  160.2280  201.9550  149.4870 C   0  0  2  0  0  0  0  0  0  0  0  0
  161.4870  202.0170  148.6160 C   0  0  0  0  0  2  0  0  0  0  0  0
  162.3100  204.3940  147.2820 O   0  0  0  0  0  0  0  0  0  0  0  0
  161.1310  202.3770  147.2530 N   0  0  0  0  0  2  0  0  0  0  0  0
  161.5810  203.5890  146.6410 C   0  0  0  0  0  0  0  0  0  0  0  0
  161.2140  203.8860  145.2250 C   0  0  0  0  0  2  0  0  0  0  0  0
  160.2680  206.2170  145.3550 C   0  0  0  0  0  1  0  0  0  0  0  0
  161.4130  205.3510  144.8570 C   0  0  2  0  0  3  0  0  0  0  0  0
  161.5650  205.4950  143.4790 O   0  0  0  0  0  1  0  0  0  0  0  0
  1  9  1  0  0  0  0
  2  7  1  0  0  0  0
  2  1  2  0  0  0  0
  4  1  1  0  0  0  0
  6  8  1  0  0  0  0
  6  2  1  0  0  0  0
  7 10  2  0  0  0  0
  8  4  2  0  0  0  0
  9  5  1  1  0  0  0
  9  3  1  0  0  0  0
 10 21  1  0  0  0  0
 10 12  1  0  0  0  0
 11  6  1  0  0  0  0
 12  3  2  0  0  0  0
 13  8  1  0  0  0  0
 14 13  1  6  0  0  0
 15 16  2  0  0  0  0
 15 20  1  0  0  0  0
 16 19  1  0  0  0  0
 17 14  1  0  0  0  0
 18 17  1  0  0  0  0
 18 14  1  0  0  0  0
 19 17  2  0  0  0  0
 20 18  2  0  0  0  0
 23 22  1  6  0  0  0
 24 26  1  0  0  0  0
 25 24  1  6  0  0  0
 25 23  1  0  0  0  0
 26 22  1  0  0  0  0
 26 21  1  0  0  0  0
 28 27  1  6  0  0  0
 28 25  1  0  0  0  0
 28 23  1  0  0  0  0
 29 28  1  0  0  0  0
 31 29  1  0  0  0  0
 32 31  1  0  0  0  0
 32 30  2  0  0  0  0
 33 32  1  0  0  0  0
 35 33  1  0  0  0  0
 35 34  1  6  0  0  0
 36 35  1  0  0  0  0
M  END
>  <MODEL>
1

>  <REMARK>
 VINA RESULT:      -8.4      0.000      0.000
  Name = 
  7 active torsions:
  status: ('A' for Active; 'I' for Inactive)
    1  A    between atoms: C_3  and  N_34
    2  A    between atoms: C_7  and  N_14
    3  A    between atoms: C_7  and  C_30
    4  A    between atoms: C_12  and  N_13
    5  A    between atoms: C_12  and  C_29
    6  A    between atoms: C_19  and  C_20
    7  A    between atoms: C_19  and  C_25
                            x       y       z     vdW  Elec       q    Type
                         _______ _______ _______ _____ _____    ______ ____

>  <TORSDO>
F 7

$$$$
=
 OpenBabel11072413323D

 36 41  0  0  1  0  0  0  0  0999 V2000
  161.5170  208.1100  151.5690 C   0  0  0  0  0  0  0  0  0  0  0  0
  161.1600  207.0210  152.3360 C   0  0  0  0  0  0  0  0  0  0  0  0
  161.0430  207.2980  149.2810 C   0  0  0  0  0  3  0  0  0  0  0  0
  161.5750  209.2160  152.3440 N   0  0  0  0  0  0  0  0  0  0  0  0
  162.1740  209.3300  149.6440 O   0  0  0  0  0  1  0  0  0  0  0  0
  160.9850  207.4440  153.5980 N   0  0  0  0  0  0  0  0  0  0  0  0
  161.0840  205.6160  151.9080 C   0  0  0  0  0  3  0  0  0  0  0  0
  161.2250  208.7680  153.5690 C   0  0  0  0  0  0  0  0  0  0  0  0
  161.9960  208.0430  150.1580 C   0  0  1  0  0  3  0  0  0  0  0  0
  160.9030  205.1800  150.6550 C   0  0  0  0  0  0  0  0  0  0  0  0
  160.6120  206.6450  154.7560 C   0  0  0  0  0  1  0  0  0  0  0  0
  160.6140  206.0500  149.4880 C   0  0  0  0  0  3  0  0  0  0  0  0
  161.1420  209.6080  154.7220 N   0  0  0  0  0  2  0  0  0  0  0  0
  161.4290  211.0290  154.6510 C   0  0  2  0  0  3  0  0  0  0  0  0
  158.5160  212.9710  154.4140 C   0  0  0  0  0  3  0  0  0  0  0  0
  158.7780  213.0250  155.8650 C   0  0  0  0  0  3  0  0  0  0  0  0
  160.6250  211.7220  155.5740 C   0  0  0  0  0  0  0  0  0  0  0  0
  160.3100  211.7100  154.1570 C   0  0  0  0  0  0  0  0  0  0  0  0
  159.8910  212.3690  156.5160 C   0  0  0  0  0  3  0  0  0  0  0  0
  159.3090  212.2800  153.5000 N   0  0  0  0  0  0  0  0  0  0  0  0
  160.8150  203.7030  150.4600 C   0  0  0  0  0  2  0  0  0  0  0  0
  161.6380  203.1900  148.3230 C   0  0  0  0  0  2  0  0  0  0  0  0
  161.9940  201.7080  148.2860 C   0  0  1  0  0  3  0  0  0  0  0  0
  159.7510  202.0720  149.1130 C   0  0  0  0  0  2  0  0  0  0  0  0
  160.7630  200.9810  148.8020 C   0  0  1  0  0  3  0  0  0  0  0  0
  160.4150  203.3700  149.0930 N   0  0  0  0  0  0  0  0  0  0  0  0
  161.7740  199.5640  146.9370 C   0  0  0  0  0  1  0  0  0  0  0  0
  161.1400  200.8830  147.3300 C   0  0  2  0  0  0  0  0  0  0  0  0
  160.2990  201.6150  146.2800 C   0  0  0  0  0  2  0  0  0  0  0  0
  159.3220  203.4490  144.3330 O   0  0  0  0  0  0  0  0  0  0  0  0
  161.0550  202.7240  145.7220 N   0  0  0  0  0  2  0  0  0  0  0  0
  160.5020  203.6120  144.7460 C   0  0  0  0  0  0  0  0  0  0  0  0
  161.3140  204.7560  144.2390 C   0  0  0  0  0  2  0  0  0  0  0  0
  162.5340  205.6740  146.2430 C   0  0  0  0  0  1  0  0  0  0  0  0
  161.4150  205.9000  145.2400 C   0  0  2  0  0  3  0  0  0  0  0  0
  160.2020  206.0820  145.9030 O   0  0  0  0  0  1  0  0  0  0  0  0
  1  2  2  0  0  0  0
  1  4  1  0  0  0  0
  2  6  1  0  0  0  0
  3 12  2  0  0  0  0
  3  9  1  0  0  0  0
  4  8  2  0  0  0  0
  6 11  1  0  0  0  0
  7  2  1  0  0  0  0
  8  6  1  0  0  0  0
  8 13  1  0  0  0  0
  9  5  1  6  0  0  0
  9  1  1  0  0  0  0
 10  7  2  0  0  0  0
 12 10  1  0  0  0  0
 14 13  1  1  0  0  0
 14 17  1  0  0  0  0
 15 16  1  0  0  0  0
 16 19  2  0  0  0  0
 17 19  1  0  0  0  0
 18 14  1  0  0  0  0
 18 17  2  0  0  0  0
 20 18  1  0  0  0  0
 20 15  2  0  0  0  0
 21 10  1  0  0  0  0
 22 26  1  0  0  0  0
 23 22  1  6  0  0  0
 23 25  1  0  0  0  0
 25 24  1  6  0  0  0
 26 24  1  0  0  0  0
 26 21  1  0  0  0  0
 28 27  1  6  0  0  0
 28 23  1  0  0  0  0
 28 25  1  0  0  0  0
 29 28  1  0  0  0  0
 30 32  2  0  0  0  0
 31 29  1  0  0  0  0
 32 31  1  0  0  0  0
 33 32  1  0  0  0  0
 33 35  1  0  0  0  0
 35 36  1  0  0  0  0
 35 34  1  1  0  0  0
M  END
>  <MODEL>
2

>  <REMARK>
 VINA RESULT:      -8.0      3.251      4.733
  Name = 
  7 active torsions:
  status: ('A' for Active; 'I' for Inactive)
    1  A    between atoms: C_3  and  N_34
    2  A    between atoms: C_7  and  N_14
    3  A    between atoms: C_7  and  C_30
    4  A    between atoms: C_12  and  N_13
    5  A    between atoms: C_12  and  C_29
    6  A    between atoms: C_19  and  C_20
    7  A    between atoms: C_19  and  C_25
                            x       y       z     vdW  Elec       q    Type
                         _______ _______ _______ _____ _____    ______ ____

>  <TORSDO>
F 7

$$$$
=
 OpenBabel11072413323D

 36 41  0  0  1  0  0  0  0  0999 V2000
  161.1370  209.6800  152.9910 C   0  0  0  0  0  0  0  0  0  0  0  0
  160.7960  208.6700  153.8670 C   0  0  0  0  0  0  0  0  0  0  0  0
  161.4340  208.4380  150.8720 C   0  0  0  0  0  3  0  0  0  0  0  0
  160.7880  210.8770  153.5140 N   0  0  0  0  0  0  0  0  0  0  0  0
  162.0410  210.7050  151.0520 O   0  0  0  0  0  1  0  0  0  0  0  0
  160.2240  209.2330  154.9430 N   0  0  0  0  0  0  0  0  0  0  0  0
  161.0920  207.2370  153.7310 C   0  0  0  0  0  3  0  0  0  0  0  0
  160.2180  210.5560  154.6960 C   0  0  0  0  0  0  0  0  0  0  0  0
  161.9730  209.5070  151.7680 C   0  0  1  0  0  3  0  0  0  0  0  0
  161.3270  206.5830  152.5860 C   0  0  0  0  0  0  0  0  0  0  0  0
  159.7130  208.5600  156.1270 C   0  0  0  0  0  1  0  0  0  0  0  0
  161.2000  207.1730  151.2310 C   0  0  0  0  0  3  0  0  0  0  0  0
  159.6850  211.5230  155.6020 N   0  0  0  0  0  2  0  0  0  0  0  0
  159.7170  212.9440  155.3060 C   0  0  2  0  0  3  0  0  0  0  0  0
  156.8020  214.0380  153.6890 C   0  0  0  0  0  3  0  0  0  0  0  0
  156.4930  214.3720  155.0920 C   0  0  0  0  0  3  0  0  0  0  0  0
  158.5170  213.5440  155.7300 C   0  0  0  0  0  0  0  0  0  0  0  0
  158.7590  213.2420  154.3310 C   0  0  0  0  0  0  0  0  0  0  0  0
  157.3830  214.1200  156.2040 C   0  0  0  0  0  3  0  0  0  0  0  0
  157.9880  213.4390  153.2700 N   0  0  0  0  0  0  0  0  0  0  0  0
  161.5640  205.1120  152.6860 C   0  0  0  0  0  2  0  0  0  0  0  0
  162.0320  203.1040  151.5660 C   0  0  0  0  0  2  0  0  0  0  0  0
  160.7120  202.4690  151.1420 C   0  0  1  0  0  3  0  0  0  0  0  0
  160.8590  204.7810  150.4490 C   0  0  0  0  0  2  0  0  0  0  0  0
  159.9480  203.5640  150.4150 C   0  0  1  0  0  3  0  0  0  0  0  0
  161.9470  204.5470  151.3920 N   0  0  0  0  0  0  0  0  0  0  0  0
  159.4770  201.3640  149.2140 C   0  0  0  0  0  1  0  0  0  0  0  0
  160.5130  202.3860  149.6330 C   0  0  2  0  0  0  0  0  0  0  0  0
  161.7260  202.5910  148.7210 C   0  0  0  0  0  2  0  0  0  0  0  0
  162.6800  204.6730  147.0280 O   0  0  0  0  0  0  0  0  0  0  0  0
  161.2870  202.8260  147.3550 N   0  0  0  0  0  2  0  0  0  0  0  0
  161.8100  203.8920  146.5570 C   0  0  0  0  0  0  0  0  0  0  0  0
  161.3470  204.0590  145.1480 C   0  0  0  0  0  2  0  0  0  0  0  0
  160.2120  206.3070  145.2480 C   0  0  0  0  0  1  0  0  0  0  0  0
  161.3770  205.5110  144.6840 C   0  0  2  0  0  3  0  0  0  0  0  0
  161.3820  205.5810  143.2910 O   0  0  0  0  0  1  0  0  0  0  0  0
  1  4  1  0  0  0  0
  1  2  2  0  0  0  0
  2  6  1  0  0  0  0
  3 12  2  0  0  0  0
  3  9  1  0  0  0  0
  4  8  2  0  0  0  0
  6 11  1  0  0  0  0
  7  2  1  0  0  0  0
  8  6  1  0  0  0  0
  8 13  1  0  0  0  0
  9  5  1  6  0  0  0
  9  1  1  0  0  0  0
 10 21  1  0  0  0  0
 10  7  2  0  0  0  0
 12 10  1  0  0  0  0
 14 13  1  1  0  0  0
 14 17  1  0  0  0  0
 15 16  1  0  0  0  0
 16 19  2  0  0  0  0
 17 19  1  0  0  0  0
 18 14  1  0  0  0  0
 18 17  2  0  0  0  0
 20 15  2  0  0  0  0
 20 18  1  0  0  0  0
 23 22  1  6  0  0  0
 24 26  1  0  0  0  0
 25 24  1  6  0  0  0
 25 23  1  0  0  0  0
 26 22  1  0  0  0  0
 26 21  1  0  0  0  0
 28 27  1  6  0  0  0
 28 25  1  0  0  0  0
 28 23  1  0  0  0  0
 29 28  1  0  0  0  0
 31 29  1  0  0  0  0
 32 30  2  0  0  0  0
 32 31  1  0  0  0  0
 33 32  1  0  0  0  0
 35 33  1  0  0  0  0
 35 34  1  6  0  0  0
 36 35  1  0  0  0  0
M  END
>  <MODEL>
3

>  <REMARK>
 VINA RESULT:      -7.8      3.159      4.604
  Name = 
  7 active torsions:
  status: ('A' for Active; 'I' for Inactive)
    1  A    between atoms: C_3  and  N_34
    2  A    between atoms: C_7  and  N_14
    3  A    between atoms: C_7  and  C_30
    4  A    between atoms: C_12  and  N_13
    5  A    between atoms: C_12  and  C_29
    6  A    between atoms: C_19  and  C_20
    7  A    between atoms: C_19  and  C_25
                            x       y       z     vdW  Elec       q    Type
                         _______ _______ _______ _____ _____    ______ ____

>  <TORSDO>
F 7

$$$$
=
 OpenBabel11072413323D

 36 41  0  0  1  0  0  0  0  0999 V2000
  160.8970  208.5740  153.1810 C   0  0  0  0  0  0  0  0  0  0  0  0
  161.0090  209.4050  152.0870 C   0  0  0  0  0  0  0  0  0  0  0  0
  162.1290  206.5670  152.4250 C   0  0  0  0  0  3  0  0  0  0  0  0
  160.5530  209.2960  154.2720 N   0  0  0  0  0  0  0  0  0  0  0  0
  160.8840  206.5520  154.4220 O   0  0  0  0  0  1  0  0  0  0  0  0
  160.7410  210.6570  152.4900 N   0  0  0  0  0  0  0  0  0  0  0  0
  161.2640  209.0130  150.6930 C   0  0  0  0  0  3  0  0  0  0  0  0
  160.4870  210.5630  153.8080 C   0  0  0  0  0  0  0  0  0  0  0  0
  160.9170  207.0830  153.1300 C   0  0  1  0  0  3  0  0  0  0  0  0
  161.8650  207.8870  150.2850 C   0  0  0  0  0  0  0  0  0  0  0  0
  160.7300  211.8640  151.6790 C   0  0  0  0  0  1  0  0  0  0  0  0
  162.5000  206.8920  151.1840 C   0  0  0  0  0  3  0  0  0  0  0  0
  160.1570  211.6860  154.6280 N   0  0  0  0  0  2  0  0  0  0  0  0
  159.8700  211.5380  156.0430 C   0  0  2  0  0  3  0  0  0  0  0  0
  157.7890  214.0870  157.2610 C   0  0  0  0  0  3  0  0  0  0  0  0
  156.8060  213.0220  156.9850 C   0  0  0  0  0  3  0  0  0  0  0  0
  158.4870  211.6630  156.2630 C   0  0  0  0  0  0  0  0  0  0  0  0
  159.4010  212.7520  156.5570 C   0  0  0  0  0  0  0  0  0  0  0  0
  157.1430  211.7210  156.4500 C   0  0  0  0  0  3  0  0  0  0  0  0
  159.1590  213.9640  157.0380 N   0  0  0  0  0  0  0  0  0  0  0  0
  162.0540  207.7180  148.8140 C   0  0  0  0  0  2  0  0  0  0  0  0
  160.8160  205.8330  148.1670 C   0  0  0  0  0  2  0  0  0  0  0  0
  160.5630  205.9140  146.6660 C   0  0  1  0  0  3  0  0  0  0  0  0
  162.9030  206.2080  147.1990 C   0  0  0  0  0  2  0  0  0  0  0  0
  161.9250  206.1590  146.0360 C   0  0  1  0  0  3  0  0  0  0  0  0
  162.1640  206.3050  148.4530 N   0  0  0  0  0  0  0  0  0  0  0  0
  160.6260  204.6050  144.4870 C   0  0  0  0  0  1  0  0  0  0  0  0
  161.2380  204.8130  145.8570 C   0  0  2  0  0  0  0  0  0  0  0  0
  161.7740  203.5830  146.5960 C   0  0  0  0  0  2  0  0  0  0  0  0
  161.5330  200.9810  147.7280 O   0  0  0  0  0  0  0  0  0  0  0  0
  160.8730  203.2210  147.6780 N   0  0  0  0  0  2  0  0  0  0  0  0
  160.8030  201.8930  148.2030 C   0  0  0  0  0  0  0  0  0  0  0  0
  159.8850  201.5920  149.3400 C   0  0  0  0  0  2  0  0  0  0  0  0
  160.6410  203.4130  150.9090 C   0  0  0  0  0  1  0  0  0  0  0  0
  160.4990  201.9150  150.6970 C   0  0  2  0  0  3  0  0  0  0  0  0
  161.7360  201.2870  150.8400 O   0  0  0  0  0  1  0  0  0  0  0  0
  1  4  1  0  0  0  0
  2  6  1  0  0  0  0
  2  1  2  0  0  0  0
  3  9  1  0  0  0  0
  6  8  1  0  0  0  0
  7  2  1  0  0  0  0
  8  4  2  0  0  0  0
  8 13  1  0  0  0  0
  9  1  1  0  0  0  0
  9  5  1  1  0  0  0
 10  7  2  0  0  0  0
 10 12  1  0  0  0  0
 11  6  1  0  0  0  0
 12  3  2  0  0  0  0
 14 13  1  6  0  0  0
 14 17  1  0  0  0  0
 14 18  1  0  0  0  0
 16 15  2  0  0  0  0
 17 19  2  0  0  0  0
 17 18  1  0  0  0  0
 18 20  2  0  0  0  0
 19 16  1  0  0  0  0
 20 15  1  0  0  0  0
 21 10  1  0  0  0  0
 22 26  1  0  0  0  0
 23 22  1  1  0  0  0
 24 26  1  0  0  0  0
 25 23  1  0  0  0  0
 25 24  1  1  0  0  0
 26 21  1  0  0  0  0
 28 27  1  6  0  0  0
 28 25  1  0  0  0  0
 28 29  1  0  0  0  0
 28 23  1  0  0  0  0
 29 31  1  0  0  0  0
 30 32  2  0  0  0  0
 31 32  1  0  0  0  0
 32 33  1  0  0  0  0
 33 35  1  0  0  0  0
 35 36  1  0  0  0  0
 35 34  1  6  0  0  0
M  END
>  <MODEL>
4

>  <REMARK>
 VINA RESULT:      -6.9      3.266      6.030
  Name = 
  7 active torsions:
  status: ('A' for Active; 'I' for Inactive)
    1  A    between atoms: C_3  and  N_34
    2  A    between atoms: C_7  and  N_14
    3  A    between atoms: C_7  and  C_30
    4  A    between atoms: C_12  and  N_13
    5  A    between atoms: C_12  and  C_29
    6  A    between atoms: C_19  and  C_20
    7  A    between atoms: C_19  and  C_25
                            x       y       z     vdW  Elec       q    Type
                         _______ _______ _______ _____ _____    ______ ____

>  <TORSDO>
F 7

$$$$
=
 OpenBabel11072413323D

 36 41  0  0  1  0  0  0  0  0999 V2000
  161.3310  205.5210  149.1800 C   0  0  0  0  0  0  0  0  0  0  0  0
  161.2060  204.6610  150.2510 C   0  0  0  0  0  0  0  0  0  0  0  0
  162.2790  207.5370  150.2550 C   0  0  0  0  0  3  0  0  0  0  0  0
  161.2820  204.8220  148.0230 N   0  0  0  0  0  0  0  0  0  0  0  0
  161.5480  207.5780  148.0190 O   0  0  0  0  0  1  0  0  0  0  0  0
  161.0840  203.4140  149.7670 N   0  0  0  0  0  0  0  0  0  0  0  0
  161.1060  205.0180  151.6730 C   0  0  0  0  0  3  0  0  0  0  0  0
  161.1490  203.5410  148.4290 C   0  0  0  0  0  0  0  0  0  0  0  0
  161.2890  207.0090  149.2680 C   0  0  1  0  0  3  0  0  0  0  0  0
  161.5550  206.1470  152.2380 C   0  0  0  0  0  0  0  0  0  0  0  0
  160.9190  202.1840  150.5250 C   0  0  0  0  0  1  0  0  0  0  0  0
  162.3530  207.1850  151.5420 C   0  0  0  0  0  3  0  0  0  0  0  0
  161.0620  202.4350  147.5290 N   0  0  0  0  0  2  0  0  0  0  0  0
  161.1170  202.6170  146.0900 C   0  0  2  0  0  3  0  0  0  0  0  0
  160.9860  205.9980  145.1630 C   0  0  0  0  0  3  0  0  0  0  0  0
  162.4410  205.7560  145.1540 C   0  0  0  0  0  3  0  0  0  0  0  0
  162.0790  203.5920  145.7710 C   0  0  0  0  0  0  0  0  0  0  0  0
  160.6600  203.8980  145.7600 C   0  0  0  0  0  0  0  0  0  0  0  0
  163.0570  204.4870  145.4760 C   0  0  0  0  0  3  0  0  0  0  0  0
  160.0330  205.0340  145.4840 N   0  0  0  0  0  0  0  0  0  0  0  0
  161.3810  206.2770  153.7150 C   0  0  0  0  0  2  0  0  0  0  0  0
  160.1120  207.1780  155.4710 C   0  0  0  0  0  2  0  0  0  0  0  0
  160.9780  208.1790  156.2290 C   0  0  1  0  0  3  0  0  0  0  0  0
  160.9830  208.6080  153.8490 C   0  0  0  0  0  2  0  0  0  0  0  0
  161.5460  209.1090  155.1700 C   0  0  1  0  0  3  0  0  0  0  0  0
  160.3820  207.2940  154.0450 N   0  0  0  0  0  0  0  0  0  0  0  0
  161.0370  210.5110  157.2390 C   0  0  0  0  0  1  0  0  0  0  0  0
  160.4920  209.6200  156.1420 C   0  0  2  0  0  0  0  0  0  0  0  0
  159.0670  209.8850  155.6460 C   0  0  0  0  0  2  0  0  0  0  0  0
  158.8400  211.3660  153.2240 O   0  0  0  0  0  0  0  0  0  0  0  0
  158.8290  211.3170  155.5600 N   0  0  0  0  0  2  0  0  0  0  0  0
  158.7230  211.9990  154.3080 C   0  0  0  0  0  0  0  0  0  0  0  0
  158.4400  213.4640  154.2830 C   0  0  0  0  0  2  0  0  0  0  0  0
  156.0260  212.7610  154.4470 C   0  0  0  0  0  1  0  0  0  0  0  0
  157.0030  213.7830  153.8890 C   0  0  2  0  0  3  0  0  0  0  0  0
  156.8800  213.8630  152.5020 O   0  0  0  0  0  1  0  0  0  0  0  0
  1  9  1  0  0  0  0
  1  2  2  0  0  0  0
  2  7  1  0  0  0  0
  3 12  2  0  0  0  0
  4  8  2  0  0  0  0
  4  1  1  0  0  0  0
  6  2  1  0  0  0  0
  6 11  1  0  0  0  0
  7 10  2  0  0  0  0
  8  6  1  0  0  0  0
  9  5  1  6  0  0  0
  9  3  1  0  0  0  0
 10 21  1  0  0  0  0
 12 10  1  0  0  0  0
 13  8  1  0  0  0  0
 14 13  1  1  0  0  0
 15 20  1  0  0  0  0
 16 15  2  0  0  0  0
 16 19  1  0  0  0  0
 17 14  1  0  0  0  0
 18 17  1  0  0  0  0
 18 14  1  0  0  0  0
 19 17  2  0  0  0  0
 20 18  2  0  0  0  0
 21 26  1  0  0  0  0
 23 22  1  6  0  0  0
 24 26  1  0  0  0  0
 25 24  1  6  0  0  0
 25 28  1  0  0  0  0
 25 23  1  0  0  0  0
 26 22  1  0  0  0  0
 28 23  1  0  0  0  0
 28 27  1  1  0  0  0
 29 28  1  0  0  0  0
 30 32  2  0  0  0  0
 31 29  1  0  0  0  0
 32 31  1  0  0  0  0
 33 32  1  0  0  0  0
 35 33  1  0  0  0  0
 35 34  1  6  0  0  0
 36 35  1  0  0  0  0
M  END
>  <MODEL>
5

>  <REMARK>
 VINA RESULT:      -6.5      3.657      8.423
  Name = 
  7 active torsions:
  status: ('A' for Active; 'I' for Inactive)
    1  A    between atoms: C_3  and  N_34
    2  A    between atoms: C_7  and  N_14
    3  A    between atoms: C_7  and  C_30
    4  A    between atoms: C_12  and  N_13
    5  A    between atoms: C_12  and  C_29
    6  A    between atoms: C_19  and  C_20
    7  A    between atoms: C_19  and  C_25
                            x       y       z     vdW  Elec       q    Type
                         _______ _______ _______ _____ _____    ______ ____

>  <TORSDO>
F 7

$$$$
=
 OpenBabel11072413323D

 36 41  0  0  1  0  0  0  0  0999 V2000
  161.1580  205.9840  151.7760 C   0  0  0  0  0  0  0  0  0  0  0  0
  161.4590  207.3280  151.7110 C   0  0  0  0  0  0  0  0  0  0  0  0
  160.2360  205.7800  154.0630 C   0  0  0  0  0  3  0  0  0  0  0  0
  161.1060  205.4650  150.5290 N   0  0  0  0  0  0  0  0  0  0  0  0
  160.6880  203.8760  152.7560 O   0  0  0  0  0  1  0  0  0  0  0  0
  161.5910  207.6590  150.4160 N   0  0  0  0  0  0  0  0  0  0  0  0
  161.7100  208.2410  152.8360 C   0  0  0  0  0  3  0  0  0  0  0  0
  161.3580  206.5250  149.7310 C   0  0  0  0  0  0  0  0  0  0  0  0
  161.1280  205.1740  153.0280 C   0  0  1  0  0  3  0  0  0  0  0  0
  161.2710  208.0870  154.0920 C   0  0  0  0  0  0  0  0  0  0  0  0
  161.9140  208.9660  149.8660 C   0  0  0  0  0  1  0  0  0  0  0  0
  160.3380  207.0240  154.5400 C   0  0  0  0  0  3  0  0  0  0  0  0
  161.3970  206.4460  148.3050 N   0  0  0  0  0  2  0  0  0  0  0  0
  161.1580  205.1970  147.6040 C   0  0  2  0  0  3  0  0  0  0  0  0
  160.9590  205.6280  144.1280 C   0  0  0  0  0  3  0  0  0  0  0  0
  162.3700  205.2310  144.2860 C   0  0  0  0  0  3  0  0  0  0  0  0
  162.0670  205.0680  146.5390 C   0  0  0  0  0  0  0  0  0  0  0  0
  160.6890  205.4640  146.3130 C   0  0  0  0  0  0  0  0  0  0  0  0
  162.9940  204.9290  145.5560 C   0  0  0  0  0  3  0  0  0  0  0  0
  160.0600  205.7610  145.1840 N   0  0  0  0  0  0  0  0  0  0  0  0
  161.6140  209.1670  155.0640 C   0  0  0  0  0  2  0  0  0  0  0  0
  160.7070  210.2300  156.9480 C   0  0  0  0  0  2  0  0  0  0  0  0
  161.1550  211.6870  156.9430 C   0  0  1  0  0  3  0  0  0  0  0  0
  160.1830  211.0390  154.8250 C   0  0  0  0  0  2  0  0  0  0  0  0
  160.8140  212.2130  155.5570 C   0  0  1  0  0  3  0  0  0  0  0  0
  160.4100  209.8140  155.5840 N   0  0  0  0  0  0  0  0  0  0  0  0
  160.3730  214.0900  157.2270 C   0  0  0  0  0  1  0  0  0  0  0  0
  160.0210  212.6900  156.7660 C   0  0  2  0  0  0  0  0  0  0  0  0
  158.5810  212.2120  156.9670 C   0  0  0  0  0  2  0  0  0  0  0  0
  155.8370  211.6510  156.4450 O   0  0  0  0  0  0  0  0  0  0  0  0
  157.6600  213.1040  156.2820 N   0  0  0  0  0  2  0  0  0  0  0  0
  156.2900  212.7600  156.0530 C   0  0  0  0  0  0  0  0  0  0  0  0
  155.3840  213.7340  155.3770 C   0  0  0  0  0  2  0  0  0  0  0  0
  156.4800  213.7450  153.1080 C   0  0  0  0  0  1  0  0  0  0  0  0
  155.2110  213.4480  153.8910 C   0  0  2  0  0  3  0  0  0  0  0  0
  154.1410  214.1760  153.3710 O   0  0  0  0  0  1  0  0  0  0  0  0
  1  9  1  0  0  0  0
  2  1  2  0  0  0  0
  2  7  1  0  0  0  0
  3 12  2  0  0  0  0
  4  1  1  0  0  0  0
  6  2  1  0  0  0  0
  7 10  2  0  0  0  0
  8  6  1  0  0  0  0
  8  4  2  0  0  0  0
  9  5  1  6  0  0  0
  9  3  1  0  0  0  0
 10 12  1  0  0  0  0
 10 21  1  0  0  0  0
 11  6  1  0  0  0  0
 13  8  1  0  0  0  0
 14 13  1  1  0  0  0
 15 16  2  0  0  0  0
 15 20  1  0  0  0  0
 16 19  1  0  0  0  0
 17 14  1  0  0  0  0
 18 17  1  0  0  0  0
 18 14  1  0  0  0  0
 19 17  2  0  0  0  0
 20 18  2  0  0  0  0
 21 26  1  0  0  0  0
 23 22  1  6  0  0  0
 24 26  1  0  0  0  0
 25 24  1  6  0  0  0
 25 28  1  0  0  0  0
 25 23  1  0  0  0  0
 26 22  1  0  0  0  0
 28 23  1  0  0  0  0
 28 29  1  0  0  0  0
 28 27  1  1  0  0  0
 31 29  1  0  0  0  0
 32 31  1  0  0  0  0
 32 30  2  0  0  0  0
 33 32  1  0  0  0  0
 35 34  1  6  0  0  0
 35 33  1  0  0  0  0
 36 35  1  0  0  0  0
M  END
>  <MODEL>
6

>  <REMARK>
 VINA RESULT:      -6.4      4.066      9.196
  Name = 
  7 active torsions:
  status: ('A' for Active; 'I' for Inactive)
    1  A    between atoms: C_3  and  N_34
    2  A    between atoms: C_7  and  N_14
    3  A    between atoms: C_7  and  C_30
    4  A    between atoms: C_12  and  N_13
    5  A    between atoms: C_12  and  C_29
    6  A    between atoms: C_19  and  C_20
    7  A    between atoms: C_19  and  C_25
                            x       y       z     vdW  Elec       q    Type
                         _______ _______ _______ _____ _____    ______ ____

>  <TORSDO>
F 7

$$$$
=
 OpenBabel11072413323D

 36 41  0  0  1  0  0  0  0  0999 V2000
  159.8510  210.1600  154.8630 C   0  0  0  0  0  0  0  0  0  0  0  0
  160.3740  209.7220  153.6650 C   0  0  0  0  0  0  0  0  0  0  0  0
  160.8150  208.5370  156.4620 C   0  0  0  0  0  3  0  0  0  0  0  0
  159.4070  211.4300  154.7320 N   0  0  0  0  0  0  0  0  0  0  0  0
  159.1580  210.0690  157.1300 O   0  0  0  0  0  1  0  0  0  0  0  0
  160.2660  210.7230  152.7770 N   0  0  0  0  0  0  0  0  0  0  0  0
  160.8670  208.3740  153.3470 C   0  0  0  0  0  3  0  0  0  0  0  0
  159.6970  211.7400  153.4500 C   0  0  0  0  0  0  0  0  0  0  0  0
  159.5940  209.2960  156.0520 C   0  0  1  0  0  3  0  0  0  0  0  0
  161.3180  207.4700  154.2260 C   0  0  0  0  0  0  0  0  0  0  0  0
  160.6780  210.7170  151.3820 C   0  0  0  0  0  1  0  0  0  0  0  0
  161.5220  207.7220  155.6740 C   0  0  0  0  0  3  0  0  0  0  0  0
  159.4070  213.0090  152.8620 N   0  0  0  0  0  2  0  0  0  0  0  0
  158.7730  214.0730  153.6190 C   0  0  2  0  0  3  0  0  0  0  0  0
  155.2710  213.9260  153.4640 C   0  0  0  0  0  3  0  0  0  0  0  0
  155.5310  213.2230  154.7340 C   0  0  0  0  0  3  0  0  0  0  0  0
  157.7690  213.5370  154.4450 C   0  0  0  0  0  0  0  0  0  0  0  0
  157.4450  214.2190  153.2050 C   0  0  0  0  0  0  0  0  0  0  0  0
  156.8500  212.9950  155.2850 C   0  0  0  0  0  3  0  0  0  0  0  0
  156.2660  214.4530  152.6430 N   0  0  0  0  0  0  0  0  0  0  0  0
  161.8100  206.1750  153.6700 C   0  0  0  0  0  2  0  0  0  0  0  0
  162.2550  205.3270  151.5270 C   0  0  0  0  0  2  0  0  0  0  0  0
  162.1750  203.8060  151.5840 C   0  0  1  0  0  3  0  0  0  0  0  0
  160.2110  204.8440  152.5390 C   0  0  0  0  0  2  0  0  0  0  0  0
  160.8430  203.4920  152.2450 C   0  0  1  0  0  3  0  0  0  0  0  0
  161.2080  205.8940  152.3660 N   0  0  0  0  0  0  0  0  0  0  0  0
  161.2380  201.7420  150.4320 C   0  0  0  0  0  1  0  0  0  0  0  0
  161.0400  203.2070  150.7630 C   0  0  2  0  0  0  0  0  0  0  0  0
  160.3450  204.0880  149.7200 C   0  0  0  0  0  2  0  0  0  0  0  0
  161.5020  206.2020  148.2040 O   0  0  0  0  0  0  0  0  0  0  0  0
  160.9910  203.9330  148.4280 N   0  0  0  0  0  2  0  0  0  0  0  0
  161.5550  205.0400  147.7180 C   0  0  0  0  0  0  0  0  0  0  0  0
  162.2400  204.8120  146.4120 C   0  0  0  0  0  2  0  0  0  0  0  0
  160.8290  203.3040  144.9700 C   0  0  0  0  0  1  0  0  0  0  0  0
  161.2690  204.7330  145.2410 C   0  0  2  0  0  3  0  0  0  0  0  0
  161.8340  205.2900  144.0950 O   0  0  0  0  0  1  0  0  0  0  0  0
  1  9  1  0  0  0  0
  2  1  2  0  0  0  0
  4  1  1  0  0  0  0
  6  8  1  0  0  0  0
  6  2  1  0  0  0  0
  7  2  1  0  0  0  0
  7 10  2  0  0  0  0
  8  4  2  0  0  0  0
  9  3  1  0  0  0  0
  9  5  1  1  0  0  0
 10 12  1  0  0  0  0
 11  6  1  0  0  0  0
 12  3  2  0  0  0  0
 13  8  1  0  0  0  0
 14 13  1  6  0  0  0
 14 17  1  0  0  0  0
 15 16  1  0  0  0  0
 16 19  2  0  0  0  0
 17 19  1  0  0  0  0
 18 14  1  0  0  0  0
 18 17  2  0  0  0  0
 20 18  1  0  0  0  0
 20 15  2  0  0  0  0
 21 10  1  0  0  0  0
 22 26  1  0  0  0  0
 23 22  1  6  0  0  0
 23 25  1  0  0  0  0
 25 24  1  6  0  0  0
 26 24  1  0  0  0  0
 26 21  1  0  0  0  0
 28 27  1  6  0  0  0
 28 23  1  0  0  0  0
 28 25  1  0  0  0  0
 29 28  1  0  0  0  0
 31 29  1  0  0  0  0
 32 30  2  0  0  0  0
 32 31  1  0  0  0  0
 33 32  1  0  0  0  0
 35 34  1  6  0  0  0
 35 33  1  0  0  0  0
 36 35  1  0  0  0  0
M  END
>  <MODEL>
7

>  <REMARK>
 VINA RESULT:      -6.1      3.325      4.636
  Name = 
  7 active torsions:
  status: ('A' for Active; 'I' for Inactive)
    1  A    between atoms: C_3  and  N_34
    2  A    between atoms: C_7  and  N_14
    3  A    between atoms: C_7  and  C_30
    4  A    between atoms: C_12  and  N_13
    5  A    between atoms: C_12  and  C_29
    6  A    between atoms: C_19  and  C_20
    7  A    between atoms: C_19  and  C_25
                            x       y       z     vdW  Elec       q    Type
                         _______ _______ _______ _____ _____    ______ ____

>  <TORSDO>
F 7

$$$$
=
 OpenBabel11072413323D

 36 41  0  0  1  0  0  0  0  0999 V2000
  162.1270  206.4260  150.9550 C   0  0  0  0  0  0  0  0  0  0  0  0
  161.7810  207.7560  150.8390 C   0  0  0  0  0  0  0  0  0  0  0  0
  161.1990  205.8490  153.1740 C   0  0  0  0  0  3  0  0  0  0  0  0
  162.4340  205.9250  149.7370 N   0  0  0  0  0  0  0  0  0  0  0  0
  162.5930  204.3530  152.0100 O   0  0  0  0  0  1  0  0  0  0  0  0
  161.8640  208.0920  149.5420 N   0  0  0  0  0  0  0  0  0  0  0  0
  161.4800  208.6960  151.9290 C   0  0  0  0  0  3  0  0  0  0  0  0
  162.2420  206.9700  148.9040 C   0  0  0  0  0  0  0  0  0  0  0  0
  162.3600  205.7110  152.2430 C   0  0  1  0  0  3  0  0  0  0  0  0
  161.0490  208.3730  153.1550 C   0  0  0  0  0  0  0  0  0  0  0  0
  161.5980  209.3930  148.9470 C   0  0  0  0  0  1  0  0  0  0  0  0
  160.6730  207.0050  153.5890 C   0  0  0  0  0  3  0  0  0  0  0  0
  162.4430  206.8980  147.4910 N   0  0  0  0  0  2  0  0  0  0  0  0
  162.8700  205.6710  146.8430 C   0  0  2  0  0  3  0  0  0  0  0  0
  160.1660  203.7250  145.7440 C   0  0  0  0  0  3  0  0  0  0  0  0
  160.5110  204.4570  144.5110 C   0  0  0  0  0  3  0  0  0  0  0  0
  162.1950  205.5200  145.6190 C   0  0  0  0  0  0  0  0  0  0  0  0
  161.8030  204.7670  146.7970 C   0  0  0  0  0  0  0  0  0  0  0  0
  161.5840  205.4220  144.4100 C   0  0  0  0  0  3  0  0  0  0  0  0
  160.8320  203.8790  146.9580 N   0  0  0  0  0  0  0  0  0  0  0  0
  160.7670  209.5020  154.0900 C   0  0  0  0  0  2  0  0  0  0  0  0
  159.6300  210.7500  152.4600 C   0  0  0  0  0  2  0  0  0  0  0  0
  158.4220  211.4110  153.1150 C   0  0  1  0  0  3  0  0  0  0  0  0
  160.4560  211.8360  154.3510 C   0  0  0  0  0  2  0  0  0  0  0  0
  158.9620  212.1170  154.3480 C   0  0  1  0  0  3  0  0  0  0  0  0
  160.7540  210.7840  153.3850 N   0  0  0  0  0  0  0  0  0  0  0  0
  157.1350  213.5910  153.3500 C   0  0  0  0  0  1  0  0  0  0  0  0
  158.4850  212.9330  153.1540 C   0  0  2  0  0  0  0  0  0  0  0  0
  159.5080  213.6480  152.2660 C   0  0  0  0  0  2  0  0  0  0  0  0
  160.4540  212.9830  149.6630 O   0  0  0  0  0  0  0  0  0  0  0  0
  158.8830  214.0570  151.0180 N   0  0  0  0  0  2  0  0  0  0  0  0
  159.4100  213.6850  149.7420 C   0  0  0  0  0  0  0  0  0  0  0  0
  158.7030  214.1040  148.4970 C   0  0  0  0  0  2  0  0  0  0  0  0
  159.2940  213.1510  146.2400 C   0  0  0  0  0  1  0  0  0  0  0  0
  158.4960  212.9540  147.5180 C   0  0  2  0  0  3  0  0  0  0  0  0
  157.1430  212.7960  147.2240 O   0  0  0  0  0  1  0  0  0  0  0  0
  1  9  1  0  0  0  0
  2  1  2  0  0  0  0
  2  7  1  0  0  0  0
  3 12  2  0  0  0  0
  4  1  1  0  0  0  0
  6  2  1  0  0  0  0
  7 10  2  0  0  0  0
  8  6  1  0  0  0  0
  8  4  2  0  0  0  0
  9  5  1  6  0  0  0
  9  3  1  0  0  0  0
 10 12  1  0  0  0  0
 10 21  1  0  0  0  0
 11  6  1  0  0  0  0
 13  8  1  0  0  0  0
 14 13  1  1  0  0  0
 15 20  1  0  0  0  0
 16 15  2  0  0  0  0
 17 18  1  0  0  0  0
 17 14  1  0  0  0  0
 18 14  1  0  0  0  0
 18 20  2  0  0  0  0
 19 16  1  0  0  0  0
 19 17  2  0  0  0  0
 22 26  1  0  0  0  0
 23 22  1  6  0  0  0
 23 28  1  0  0  0  0
 23 25  1  0  0  0  0
 25 24  1  6  0  0  0
 26 21  1  0  0  0  0
 26 24  1  0  0  0  0
 28 27  1  1  0  0  0
 28 25  1  0  0  0  0
 29 28  1  0  0  0  0
 30 32  2  0  0  0  0
 31 29  1  0  0  0  0
 32 31  1  0  0  0  0
 33 32  1  0  0  0  0
 35 34  1  6  0  0  0
 35 33  1  0  0  0  0
 36 35  1  0  0  0  0
M  END
>  <MODEL>
8

>  <REMARK>
 VINA RESULT:      -5.7      3.011      7.863
  Name = 
  7 active torsions:
  status: ('A' for Active; 'I' for Inactive)
    1  A    between atoms: C_3  and  N_34
    2  A    between atoms: C_7  and  N_14
    3  A    between atoms: C_7  and  C_30
    4  A    between atoms: C_12  and  N_13
    5  A    between atoms: C_12  and  C_29
    6  A    between atoms: C_19  and  C_20
    7  A    between atoms: C_19  and  C_25
                            x       y       z     vdW  Elec       q    Type
                         _______ _______ _______ _____ _____    ______ ____

>  <TORSDO>
F 7

$$$$
=
 OpenBabel11072413323D

 36 41  0  0  1  0  0  0  0  0999 V2000
  161.2600  206.7270  152.2970 C   0  0  0  0  0  0  0  0  0  0  0  0
  161.5020  208.0750  152.1350 C   0  0  0  0  0  0  0  0  0  0  0  0
  160.7270  206.5930  154.7090 C   0  0  0  0  0  3  0  0  0  0  0  0
  161.0250  206.1550  151.0950 N   0  0  0  0  0  0  0  0  0  0  0  0
  161.0250  204.6490  153.4170 O   0  0  0  0  0  1  0  0  0  0  0  0
  161.4120  208.3550  150.8250 N   0  0  0  0  0  0  0  0  0  0  0  0
  161.9000  209.0400  153.1700 C   0  0  0  0  0  3  0  0  0  0  0  0
  161.1090  207.1880  150.2280 C   0  0  0  0  0  0  0  0  0  0  0  0
  161.4590  205.9690  153.5660 C   0  0  1  0  0  3  0  0  0  0  0  0
  161.6750  208.9260  154.4850 C   0  0  0  0  0  0  0  0  0  0  0  0
  161.5980  209.6470  150.1810 C   0  0  0  0  0  1  0  0  0  0  0  0
  160.8620  207.8580  155.1170 C   0  0  0  0  0  3  0  0  0  0  0  0
  160.9200  207.0510  148.8190 N   0  0  0  0  0  2  0  0  0  0  0  0
  160.6130  205.7680  148.2120 C   0  0  2  0  0  3  0  0  0  0  0  0
  161.2550  205.7290  144.7630 C   0  0  0  0  0  3  0  0  0  0  0  0
  162.5010  205.1430  145.2930 C   0  0  0  0  0  3  0  0  0  0  0  0
  161.6920  205.3500  147.4130 C   0  0  0  0  0  0  0  0  0  0  0  0
  160.4920  205.9190  146.8260 C   0  0  0  0  0  0  0  0  0  0  0  0
  162.7680  204.9300  146.6980 C   0  0  0  0  0  3  0  0  0  0  0  0
  160.1890  206.1480  145.5560 N   0  0  0  0  0  0  0  0  0  0  0  0
  162.1350  210.0540  155.3480 C   0  0  0  0  0  2  0  0  0  0  0  0
  160.9200  212.0470  155.5890 C   0  0  0  0  0  2  0  0  0  0  0  0
  159.8950  212.1270  154.4630 C   0  0  1  0  0  3  0  0  0  0  0  0
  159.7830  210.0120  155.6310 C   0  0  0  0  0  2  0  0  0  0  0  0
  159.1550  210.7990  154.4910 C   0  0  1  0  0  3  0  0  0  0  0  0
  161.0130  210.6710  156.0570 N   0  0  0  0  0  0  0  0  0  0  0  0
  157.4610  212.6160  153.9170 C   0  0  0  0  0  1  0  0  0  0  0  0
  158.4460  212.0720  154.9310 C   0  0  2  0  0  0  0  0  0  0  0  0
  158.1450  212.3000  156.4150 C   0  0  0  0  0  2  0  0  0  0  0  0
  155.5900  213.5240  156.7050 O   0  0  0  0  0  0  0  0  0  0  0  0
  156.9220  211.6060  156.7870 N   0  0  0  0  0  2  0  0  0  0  0  0
  155.6680  212.2830  156.9130 C   0  0  0  0  0  0  0  0  0  0  0  0
  154.4400  211.5100  157.2610 C   0  0  0  0  0  2  0  0  0  0  0  0
  154.7350  209.9480  155.3050 C   0  0  0  0  0  1  0  0  0  0  0  0
  154.5060  210.0580  156.8040 C   0  0  2  0  0  3  0  0  0  0  0  0
  153.3460  209.3750  157.1660 O   0  0  0  0  0  1  0  0  0  0  0  0
  1  9  1  0  0  0  0
  2  1  2  0  0  0  0
  2  7  1  0  0  0  0
  3 12  2  0  0  0  0
  4  1  1  0  0  0  0
  6  2  1  0  0  0  0
  7 10  2  0  0  0  0
  8  6  1  0  0  0  0
  8  4  2  0  0  0  0
  9  5  1  6  0  0  0
  9  3  1  0  0  0  0
 10 12  1  0  0  0  0
 10 21  1  0  0  0  0
 11  6  1  0  0  0  0
 13  8  1  0  0  0  0
 14 13  1  1  0  0  0
 15 16  2  0  0  0  0
 15 20  1  0  0  0  0
 16 19  1  0  0  0  0
 17 14  1  0  0  0  0
 18 17  1  0  0  0  0
 18 14  1  0  0  0  0
 19 17  2  0  0  0  0
 20 18  2  0  0  0  0
 21 26  1  0  0  0  0
 22 26  1  0  0  0  0
 23 25  1  0  0  0  0
 23 28  1  0  0  0  0
 23 22  1  1  0  0  0
 24 26  1  0  0  0  0
 25 28  1  0  0  0  0
 25 24  1  1  0  0  0
 28 27  1  6  0  0  0
 28 29  1  0  0  0  0
 29 31  1  0  0  0  0
 30 32  2  0  0  0  0
 31 32  1  0  0  0  0
 32 33  1  0  0  0  0
 35 34  1  6  0  0  0
 35 36  1  0  0  0  0
 35 33  1  0  0  0  0
M  END
>  <MODEL>
9

>  <REMARK>
 VINA RESULT:      -5.6      4.122      9.125
  Name = 
  7 active torsions:
  status: ('A' for Active; 'I' for Inactive)
    1  A    between atoms: C_3  and  N_34
    2  A    between atoms: C_7  and  N_14
    3  A    between atoms: C_7  and  C_30
    4  A    between atoms: C_12  and  N_13
    5  A    between atoms: C_12  and  C_29
    6  A    between atoms: C_19  and  C_20
    7  A    between atoms: C_19  and  C_25
                            x       y       z     vdW  Elec       q    Type
                         _______ _______ _______ _____ _____    ______ ____

>  <TORSDO>
F 7

$$$$
