=
 OpenBabel11072415173D

 40 43  0  0  1  0  0  0  0  0999 V2000
  161.4750  207.7610  151.2320 C   0  0  2  0  0  0  0  0  0  0  0  0
  161.9840  205.8470  152.5300 C   0  0  1  0  0  3  0  0  0  0  0  0
  161.1330  207.8210  153.7680 C   0  0  0  0  0  2  0  0  0  0  0  0
  160.7550  208.4410  152.4100 C   0  0  0  0  0  2  0  0  0  0  0  0
  160.3480  206.5450  150.4790 S   0  0  0  0  0  0  0  0  0  0  0  0
  160.9830  205.2220  151.5720 C   0  0  1  0  0  3  0  0  0  0  0  0
  162.6540  206.9620  151.7380 C   0  0  0  0  0  2  0  0  0  0  0  0
  161.2440  206.3520  153.7060 N   0  0  0  0  0  2  0  0  0  0  0  0
  161.8180  210.0290  150.4520 N   0  0  0  0  0  0  0  0  0  0  0  0
  161.9290  208.7700  150.2250 C   0  0  0  0  0  3  0  0  0  0  0  0
  162.5850  210.2810  148.1740 C   0  0  0  0  0  1  0  0  0  0  0  0
  162.2560  210.9960  149.4760 C   0  0  1  0  0  3  0  0  0  0  0  0
  160.7050  212.5410  150.4550 F   0  0  0  0  0  0  0  0  0  0  0  0
  161.1630  212.0490  149.2420 C   0  0  1  0  0  3  0  0  0  0  0  0
  161.6470  213.2270  148.3800 C   0  0  0  0  0  0  0  0  0  0  0  0
  163.0320  213.2860  148.4190 F   0  0  0  0  0  0  0  0  0  0  0  0
  161.1590  214.4060  148.9170 F   0  0  0  0  0  0  0  0  0  0  0  0
  159.7870  212.9760  146.6650 C   0  0  0  0  0  0  0  0  0  0  0  0
  159.3720  212.8590  145.3750 N   0  0  0  0  0  0  0  0  0  0  0  0
  161.6190  212.9990  144.5760 C   0  0  0  0  0  0  0  0  0  0  0  0
  159.7500  212.7390  143.0020 N   0  0  0  0  0  1  0  0  0  0  0  0
  158.8670  212.9550  147.6620 F   0  0  0  0  0  0  0  0  0  0  0  0
  162.6100  213.0110  143.4630 C   0  0  0  0  0  1  0  0  0  0  0  0
  162.0660  213.1190  145.8910 C   0  0  0  0  0  3  0  0  0  0  0  0
  160.2450  212.8660  144.3330 C   0  0  0  0  0  0  0  0  0  0  0  0
  161.1570  213.1120  146.9560 C   0  0  0  0  0  0  0  0  0  0  0  0
  161.6410  204.2010  150.7730 N   0  0  0  0  0  2  0  0  0  0  0  0
  160.7140  203.0880  150.6540 C   0  0  0  0  0  2  0  0  0  0  0  0
  161.1410  201.0180  149.3830 N   0  0  0  0  0  0  0  0  0  0  0  0
  161.3470  200.3220  148.2320 C   0  0  0  0  0  3  0  0  0  0  0  0
  160.9600  202.3660  149.3770 C   0  0  0  0  0  0  0  0  0  0  0  0
  161.1830  202.3770  146.9690 C   0  0  0  0  0  0  0  0  0  0  0  0
  161.3730  200.9900  147.0060 C   0  0  0  0  0  3  0  0  0  0  0  0
  160.9710  203.0680  148.1690 C   0  0  0  0  0  3  0  0  0  0  0  0
  161.2040  203.1000  145.6840 C   0  0  0  0  0  0  0  0  0  0  0  0
  160.3320  202.8400  144.8100 O   0  0  0  0  0  0  0  0  0  0  0  0
  162.0630  205.3860  145.4150 C   0  0  0  0  0  3  0  0  0  0  0  0
  162.2170  204.0930  145.4460 N   0  0  0  0  0  0  0  0  0  0  0  0
  160.6970  206.6150  147.0430 C   0  0  0  0  0  1  0  0  0  0  0  0
  160.7560  206.0750  145.6290 C   0  0  0  0  0  2  0  0  0  0  0  0
  1 10  1  6  0  0  0
  1  7  1  0  0  0  0
  1  4  1  0  0  0  0
  2  7  1  6  0  0  0
  2  8  1  0  0  0  0
  4  3  1  0  0  0  0
  5  1  1  0  0  0  0
  5  6  1  0  0  0  0
  6 27  1  6  0  0  0
  6  2  1  0  0  0  0
  8  3  1  0  0  0  0
 10  9  2  0  0  0  0
 12 11  1  6  0  0  0
 12  9  1  0  0  0  0
 14 12  1  0  0  0  0
 14 13  1  1  0  0  0
 15 16  1  0  0  0  0
 15 17  1  0  0  0  0
 15 14  1  0  0  0  0
 18 26  1  0  0  0  0
 18 22  1  0  0  0  0
 19 18  2  0  0  0  0
 20 24  1  0  0  0  0
 21 25  1  0  0  0  0
 23 20  1  0  0  0  0
 24 26  2  0  0  0  0
 25 20  2  0  0  0  0
 25 19  1  0  0  0  0
 26 15  1  0  0  0  0
 28 27  1  0  0  0  0
 30 29  2  0  0  0  0
 31 29  1  0  0  0  0
 31 28  1  0  0  0  0
 32 33  2  0  0  0  0
 32 34  1  0  0  0  0
 33 30  1  0  0  0  0
 34 31  2  0  0  0  0
 35 32  1  0  0  0  0
 36 35  2  0  0  0  0
 37 38  2  0  0  0  0
 37 40  1  0  0  0  0
 38 35  1  0  0  0  0
 40 39  1  0  0  0  0
M  END
>  <MODEL>
1

>  <REMARK>
 VINA RESULT:      -7.5      0.000      0.000
  Name = 
  11 active torsions:
  status: ('A' for Active; 'I' for Inactive)
    1  A    between atoms: N_1  and  C_11
    2  A    between atoms: C_2  and  C_17
    3  A    between atoms: C_6  and  C_38
    4  A    between atoms: C_8  and  C_23
    5  A    between atoms: C_9  and  C_35
    6  A    between atoms: C_9  and  C_40
    7  A    between atoms: C_11  and  C_35
    8  A    between atoms: C_20  and  C_29
    9  A    between atoms: C_23  and  N_31
   10  A    between atoms: C_27  and  N_39
   11  A    between atoms: C_38  and  N_39
                            x       y       z     vdW  Elec       q    Type
                         _______ _______ _______ _____ _____    ______ ____

>  <TORSDO>
F 11

$$$$
=
 OpenBabel11072415173D

 40 43  0  0  1  0  0  0  0  0999 V2000
  160.8450  210.0640  154.2750 C   0  0  2  0  0  0  0  0  0  0  0  0
  159.2940  211.8160  154.6400 C   0  0  1  0  0  3  0  0  0  0  0  0
  161.1500  211.6320  156.2760 C   0  0  0  0  0  2  0  0  0  0  0  0
  161.8250  210.6370  155.3140 C   0  0  0  0  0  2  0  0  0  0  0  0
  161.0280  210.9940  152.7210 S   0  0  0  0  0  0  0  0  0  0  0  0
  159.7280  212.1780  153.2300 C   0  0  1  0  0  3  0  0  0  0  0  0
  159.4210  210.3010  154.7240 C   0  0  0  0  0  2  0  0  0  0  0  0
  160.1870  212.5130  155.5910 N   0  0  0  0  0  2  0  0  0  0  0  0
  161.4870  208.1580  152.9240 N   0  0  0  0  0  0  0  0  0  0  0  0
  161.0830  208.6030  154.0590 C   0  0  0  0  0  3  0  0  0  0  0  0
  160.9100  205.9600  153.7470 C   0  0  0  0  0  1  0  0  0  0  0  0
  161.7120  206.7490  152.7230 C   0  0  1  0  0  3  0  0  0  0  0  0
  162.2000  206.8590  150.3780 F   0  0  0  0  0  0  0  0  0  0  0  0
  161.3030  206.3410  151.3000 C   0  0  1  0  0  3  0  0  0  0  0  0
  161.2270  204.8170  151.1160 C   0  0  0  0  0  0  0  0  0  0  0  0
  160.0870  204.3360  151.7430 F   0  0  0  0  0  0  0  0  0  0  0  0
  162.3240  204.2360  151.7290 F   0  0  0  0  0  0  0  0  0  0  0  0
  161.1750  203.0840  149.2570 C   0  0  0  0  0  0  0  0  0  0  0  0
  161.2000  202.7610  147.9360 N   0  0  0  0  0  0  0  0  0  0  0  0
  161.3500  205.0630  147.3160 C   0  0  0  0  0  0  0  0  0  0  0  0
  161.3090  203.3100  145.5960 N   0  0  0  0  0  1  0  0  0  0  0  0
  161.0950  202.0920  150.1790 F   0  0  0  0  0  0  0  0  0  0  0  0
  161.4460  206.1330  146.2820 C   0  0  0  0  0  1  0  0  0  0  0  0
  161.3270  205.4160  148.6640 C   0  0  0  0  0  3  0  0  0  0  0  0
  161.2860  203.7080  146.9640 C   0  0  0  0  0  0  0  0  0  0  0  0
  161.2370  204.4310  149.6560 C   0  0  0  0  0  0  0  0  0  0  0  0
  158.5930  212.0760  152.3270 N   0  0  0  0  0  2  0  0  0  0  0  0
  158.2890  213.4210  151.8700 C   0  0  0  0  0  2  0  0  0  0  0  0
  160.1590  214.1350  150.4280 N   0  0  0  0  0  0  0  0  0  0  0  0
  160.7530  214.3300  149.2200 C   0  0  0  0  0  3  0  0  0  0  0  0
  158.8950  213.6440  150.5300 C   0  0  0  0  0  0  0  0  0  0  0  0
  158.7640  213.5080  148.1180 C   0  0  0  0  0  0  0  0  0  0  0  0
  160.0650  214.0220  148.0450 C   0  0  0  0  0  3  0  0  0  0  0  0
  158.1780  213.3160  149.3760 C   0  0  0  0  0  3  0  0  0  0  0  0
  158.0230  213.1740  146.8890 C   0  0  0  0  0  0  0  0  0  0  0  0
  157.1680  212.2460  146.9110 O   0  0  0  0  0  0  0  0  0  0  0  0
  158.9560  213.5130  144.6420 C   0  0  0  0  0  3  0  0  0  0  0  0
  158.2820  213.9130  145.6820 N   0  0  0  0  0  0  0  0  0  0  0  0
  160.3060  212.0600  143.1950 C   0  0  0  0  0  1  0  0  0  0  0  0
  159.5960  212.1700  144.5280 C   0  0  0  0  0  2  0  0  0  0  0  0
  1 10  1  6  0  0  0
  1  7  1  0  0  0  0
  1  4  1  0  0  0  0
  2  7  1  6  0  0  0
  2  8  1  0  0  0  0
  4  3  1  0  0  0  0
  5  6  1  0  0  0  0
  5  1  1  0  0  0  0
  6 27  1  6  0  0  0
  6  2  1  0  0  0  0
  8  3  1  0  0  0  0
  9 10  2  0  0  0  0
 12  9  1  0  0  0  0
 12 11  1  1  0  0  0
 14 13  1  6  0  0  0
 14 12  1  0  0  0  0
 15 14  1  0  0  0  0
 15 17  1  0  0  0  0
 15 16  1  0  0  0  0
 18 26  1  0  0  0  0
 18 22  1  0  0  0  0
 19 18  2  0  0  0  0
 20 24  1  0  0  0  0
 21 25  1  0  0  0  0
 23 20  1  0  0  0  0
 24 26  2  0  0  0  0
 25 20  2  0  0  0  0
 25 19  1  0  0  0  0
 26 15  1  0  0  0  0
 28 27  1  0  0  0  0
 29 31  1  0  0  0  0
 30 29  2  0  0  0  0
 31 28  1  0  0  0  0
 32 34  1  0  0  0  0
 33 32  2  0  0  0  0
 33 30  1  0  0  0  0
 34 31  2  0  0  0  0
 35 36  2  0  0  0  0
 35 32  1  0  0  0  0
 37 38  2  0  0  0  0
 38 35  1  0  0  0  0
 39 40  1  0  0  0  0
 40 37  1  0  0  0  0
M  END
>  <MODEL>
2

>  <REMARK>
 VINA RESULT:      -7.2      4.048      8.848
  Name = 
  11 active torsions:
  status: ('A' for Active; 'I' for Inactive)
    1  A    between atoms: N_1  and  C_11
    2  A    between atoms: C_2  and  C_17
    3  A    between atoms: C_6  and  C_38
    4  A    between atoms: C_8  and  C_23
    5  A    between atoms: C_9  and  C_35
    6  A    between atoms: C_9  and  C_40
    7  A    between atoms: C_11  and  C_35
    8  A    between atoms: C_20  and  C_29
    9  A    between atoms: C_23  and  N_31
   10  A    between atoms: C_27  and  N_39
   11  A    between atoms: C_38  and  N_39
                            x       y       z     vdW  Elec       q    Type
                         _______ _______ _______ _____ _____    ______ ____

>  <TORSDO>
F 11

$$$$
=
 OpenBabel11072415173D

 40 43  0  0  1  0  0  0  0  0999 V2000
  161.1850  208.9450  154.7960 C   0  0  2  0  0  0  0  0  0  0  0  0
  159.2140  209.9310  155.6630 C   0  0  1  0  0  3  0  0  0  0  0  0
  160.5300  208.5370  157.2370 C   0  0  0  0  0  2  0  0  0  0  0  0
  161.6680  208.5370  156.1990 C   0  0  0  0  0  2  0  0  0  0  0  0
  161.5580  210.7080  154.5370 S   0  0  0  0  0  0  0  0  0  0  0  0
  159.9200  211.1920  155.1930 C   0  0  1  0  0  3  0  0  0  0  0  0
  159.6800  208.8340  154.7150 C   0  0  0  0  0  2  0  0  0  0  0  0
  159.6100  209.6750  157.0640 N   0  0  0  0  0  2  0  0  0  0  0  0
  161.3150  208.0100  152.5650 N   0  0  0  0  0  0  0  0  0  0  0  0
  161.8240  208.0990  153.7410 C   0  0  0  0  0  3  0  0  0  0  0  0
  162.3330  205.8560  152.1620 C   0  0  0  0  0  1  0  0  0  0  0  0
  161.9350  207.1920  151.5530 C   0  0  1  0  0  3  0  0  0  0  0  0
  160.1110  208.0550  150.2570 F   0  0  0  0  0  0  0  0  0  0  0  0
  160.9690  206.9730  150.3790 C   0  0  1  0  0  3  0  0  0  0  0  0
  161.6970  206.7630  149.0410 C   0  0  0  0  0  0  0  0  0  0  0  0
  163.0430  207.0560  149.2000 F   0  0  0  0  0  0  0  0  0  0  0  0
  161.1800  207.6440  148.1060 F   0  0  0  0  0  0  0  0  0  0  0  0
  161.8430  205.0180  147.1980 C   0  0  0  0  0  0  0  0  0  0  0  0
  161.6550  203.7470  146.7500 N   0  0  0  0  0  0  0  0  0  0  0  0
  160.8070  203.0610  148.8760 C   0  0  0  0  0  0  0  0  0  0  0  0
  160.9740  201.4560  147.0230 N   0  0  0  0  0  1  0  0  0  0  0  0
  162.3450  205.9510  146.3500 F   0  0  0  0  0  0  0  0  0  0  0  0
  160.2490  202.0190  149.7830 C   0  0  0  0  0  1  0  0  0  0  0  0
  160.9910  204.3570  149.3540 C   0  0  0  0  0  3  0  0  0  0  0  0
  161.1490  202.7690  147.5480 C   0  0  0  0  0  0  0  0  0  0  0  0
  161.5140  205.3550  148.5230 C   0  0  0  0  0  0  0  0  0  0  0  0
  159.1410  211.8270  154.1430 N   0  0  0  0  0  2  0  0  0  0  0  0
  160.0570  212.1290  153.0550 C   0  0  0  0  0  2  0  0  0  0  0  0
  158.0500  213.2640  152.1770 N   0  0  0  0  0  0  0  0  0  0  0  0
  157.3650  213.9510  151.2250 C   0  0  0  0  0  3  0  0  0  0  0  0
  159.3330  212.8580  151.9790 C   0  0  0  0  0  0  0  0  0  0  0  0
  159.3010  213.8610  149.7790 C   0  0  0  0  0  0  0  0  0  0  0  0
  157.9780  214.2610  150.0080 C   0  0  0  0  0  3  0  0  0  0  0  0
  159.9830  213.1560  150.7780 C   0  0  0  0  0  3  0  0  0  0  0  0
  159.9660  214.1800  148.5020 C   0  0  0  0  0  0  0  0  0  0  0  0
  159.2670  214.4520  147.4880 O   0  0  0  0  0  0  0  0  0  0  0  0
  162.1740  213.1970  148.0660 C   0  0  0  0  0  3  0  0  0  0  0  0
  161.4030  214.1800  148.4320 N   0  0  0  0  0  0  0  0  0  0  0  0
  162.0400  210.8260  148.6890 C   0  0  0  0  0  1  0  0  0  0  0  0
  161.6740  211.8570  147.6410 C   0  0  0  0  0  2  0  0  0  0  0  0
  1 10  1  6  0  0  0
  1  4  1  0  0  0  0
  2  7  1  6  0  0  0
  2  8  1  0  0  0  0
  4  3  1  0  0  0  0
  5  1  1  0  0  0  0
  5  6  1  0  0  0  0
  6 27  1  6  0  0  0
  6  2  1  0  0  0  0
  7  1  1  0  0  0  0
  8  3  1  0  0  0  0
  9 10  2  0  0  0  0
 12 11  1  1  0  0  0
 12  9  1  0  0  0  0
 14 13  1  6  0  0  0
 14 12  1  0  0  0  0
 15 16  1  0  0  0  0
 15 14  1  0  0  0  0
 17 15  1  0  0  0  0
 18 26  1  0  0  0  0
 19 18  2  0  0  0  0
 19 25  1  0  0  0  0
 20 24  1  0  0  0  0
 20 23  1  0  0  0  0
 21 25  1  0  0  0  0
 22 18  1  0  0  0  0
 25 20  2  0  0  0  0
 26 15  1  0  0  0  0
 26 24  2  0  0  0  0
 28 27  1  0  0  0  0
 30 29  2  0  0  0  0
 31 29  1  0  0  0  0
 31 28  1  0  0  0  0
 32 33  2  0  0  0  0
 32 34  1  0  0  0  0
 33 30  1  0  0  0  0
 34 31  2  0  0  0  0
 35 32  1  0  0  0  0
 36 35  2  0  0  0  0
 37 38  2  0  0  0  0
 38 35  1  0  0  0  0
 40 37  1  0  0  0  0
 40 39  1  0  0  0  0
M  END
>  <MODEL>
3

>  <REMARK>
 VINA RESULT:      -7.1      3.822      8.662
  Name = 
  11 active torsions:
  status: ('A' for Active; 'I' for Inactive)
    1  A    between atoms: N_1  and  C_11
    2  A    between atoms: C_2  and  C_17
    3  A    between atoms: C_6  and  C_38
    4  A    between atoms: C_8  and  C_23
    5  A    between atoms: C_9  and  C_35
    6  A    between atoms: C_9  and  C_40
    7  A    between atoms: C_11  and  C_35
    8  A    between atoms: C_20  and  C_29
    9  A    between atoms: C_23  and  N_31
   10  A    between atoms: C_27  and  N_39
   11  A    between atoms: C_38  and  N_39
                            x       y       z     vdW  Elec       q    Type
                         _______ _______ _______ _____ _____    ______ ____

>  <TORSDO>
F 11

$$$$
=
 OpenBabel11072415173D

 40 43  0  0  1  0  0  0  0  0999 V2000
  160.0240  210.0360  154.5210 C   0  0  2  0  0  0  0  0  0  0  0  0
  158.4340  211.5290  153.5980 C   0  0  1  0  0  3  0  0  0  0  0  0
  157.8700  210.5490  155.8060 C   0  0  0  0  0  2  0  0  0  0  0  0
  159.3220  210.0430  155.8910 C   0  0  0  0  0  2  0  0  0  0  0  0
  161.0350  211.5430  154.3720 S   0  0  0  0  0  0  0  0  0  0  0  0
  159.6430  212.4490  153.6040 C   0  0  1  0  0  3  0  0  0  0  0  0
  158.9980  210.1260  153.4150 C   0  0  0  0  0  2  0  0  0  0  0  0
  157.7240  211.6900  154.8850 N   0  0  0  0  0  2  0  0  0  0  0  0
  161.1980  208.3910  153.1850 N   0  0  0  0  0  0  0  0  0  0  0  0
  160.8610  208.8080  154.3520 C   0  0  0  0  0  3  0  0  0  0  0  0
  161.2280  206.0020  153.5460 C   0  0  0  0  0  1  0  0  0  0  0  0
  162.0020  207.2050  153.0290 C   0  0  1  0  0  3  0  0  0  0  0  0
  163.1740  205.8790  151.4110 F   0  0  0  0  0  0  0  0  0  0  0  0
  162.3750  207.0040  151.5530 C   0  0  1  0  0  3  0  0  0  0  0  0
  161.1440  206.8570  150.6430 C   0  0  0  0  0  0  0  0  0  0  0  0
  160.6240  208.1120  150.3690 F   0  0  0  0  0  0  0  0  0  0  0  0
  160.1730  206.1350  151.3160 F   0  0  0  0  0  0  0  0  0  0  0  0
  162.1100  206.7860  148.2920 C   0  0  0  0  0  0  0  0  0  0  0  0
  162.3900  206.1100  147.1460 N   0  0  0  0  0  0  0  0  0  0  0  0
  161.4530  204.0990  148.0320 C   0  0  0  0  0  0  0  0  0  0  0  0
  162.3980  204.1410  145.7640 N   0  0  0  0  0  1  0  0  0  0  0  0
  162.4380  208.0990  148.3840 F   0  0  0  0  0  0  0  0  0  0  0  0
  161.0950  202.6580  147.9010 C   0  0  0  0  0  1  0  0  0  0  0  0
  161.1560  204.7730  149.2150 C   0  0  0  0  0  3  0  0  0  0  0  0
  162.0800  204.7950  146.9890 C   0  0  0  0  0  0  0  0  0  0  0  0
  161.4820  206.1270  149.3650 C   0  0  0  0  0  0  0  0  0  0  0  0
  159.9900  212.8130  152.2400 N   0  0  0  0  0  2  0  0  0  0  0  0
  159.0070  213.7870  151.7950 C   0  0  0  0  0  2  0  0  0  0  0  0
  157.4450  213.3500  149.9370 N   0  0  0  0  0  0  0  0  0  0  0  0
  157.1420  213.1810  148.6220 C   0  0  0  0  0  3  0  0  0  0  0  0
  158.7200  213.5830  150.3500 C   0  0  0  0  0  0  0  0  0  0  0  0
  159.4710  213.4940  148.0530 C   0  0  0  0  0  0  0  0  0  0  0  0
  158.1500  213.2490  147.6580 C   0  0  0  0  0  3  0  0  0  0  0  0
  159.7540  213.6660  149.4140 C   0  0  0  0  0  3  0  0  0  0  0  0
  160.5480  213.5710  147.0500 C   0  0  0  0  0  0  0  0  0  0  0  0
  160.2600  213.5210  145.8220 O   0  0  0  0  0  0  0  0  0  0  0  0
  162.6810  212.7730  147.9700 C   0  0  0  0  0  3  0  0  0  0  0  0
  161.9130  213.7050  147.4840 N   0  0  0  0  0  0  0  0  0  0  0  0
  162.1680  211.0520  149.6450 C   0  0  0  0  0  1  0  0  0  0  0  0
  162.2530  211.3560  148.1630 C   0  0  0  0  0  2  0  0  0  0  0  0
  1 10  1  6  0  0  0
  1  4  1  0  0  0  0
  2  7  1  1  0  0  0
  2  6  1  0  0  0  0
  2  8  1  0  0  0  0
  3  4  1  0  0  0  0
  5  1  1  0  0  0  0
  6 27  1  6  0  0  0
  6  5  1  0  0  0  0
  7  1  1  0  0  0  0
  8  3  1  0  0  0  0
  9 10  2  0  0  0  0
 12  9  1  0  0  0  0
 12 11  1  6  0  0  0
 14 13  1  1  0  0  0
 14 12  1  0  0  0  0
 15 17  1  0  0  0  0
 15 14  1  0  0  0  0
 16 15  1  0  0  0  0
 18 22  1  0  0  0  0
 18 26  1  0  0  0  0
 19 18  2  0  0  0  0
 20 24  1  0  0  0  0
 21 25  1  0  0  0  0
 23 20  1  0  0  0  0
 24 26  2  0  0  0  0
 25 19  1  0  0  0  0
 25 20  2  0  0  0  0
 26 15  1  0  0  0  0
 28 27  1  0  0  0  0
 29 31  1  0  0  0  0
 30 29  2  0  0  0  0
 31 28  1  0  0  0  0
 32 34  1  0  0  0  0
 33 32  2  0  0  0  0
 33 30  1  0  0  0  0
 34 31  2  0  0  0  0
 35 38  1  0  0  0  0
 35 32  1  0  0  0  0
 36 35  2  0  0  0  0
 37 40  1  0  0  0  0
 38 37  2  0  0  0  0
 40 39  1  0  0  0  0
M  END
>  <MODEL>
4

>  <REMARK>
 VINA RESULT:      -7.1      3.720      8.383
  Name = 
  11 active torsions:
  status: ('A' for Active; 'I' for Inactive)
    1  A    between atoms: N_1  and  C_11
    2  A    between atoms: C_2  and  C_17
    3  A    between atoms: C_6  and  C_38
    4  A    between atoms: C_8  and  C_23
    5  A    between atoms: C_9  and  C_35
    6  A    between atoms: C_9  and  C_40
    7  A    between atoms: C_11  and  C_35
    8  A    between atoms: C_20  and  C_29
    9  A    between atoms: C_23  and  N_31
   10  A    between atoms: C_27  and  N_39
   11  A    between atoms: C_38  and  N_39
                            x       y       z     vdW  Elec       q    Type
                         _______ _______ _______ _____ _____    ______ ____

>  <TORSDO>
F 11

$$$$
=
 OpenBabel11072415173D

 40 43  0  0  1  0  0  0  0  0999 V2000
  160.7660  210.0040  154.3700 C   0  0  2  0  0  0  0  0  0  0  0  0
  159.1670  211.7510  154.4310 C   0  0  1  0  0  3  0  0  0  0  0  0
  160.7550  211.6450  156.3340 C   0  0  0  0  0  2  0  0  0  0  0  0
  161.5740  210.6240  155.5230 C   0  0  0  0  0  2  0  0  0  0  0  0
  161.1770  210.8800  152.8270 S   0  0  0  0  0  0  0  0  0  0  0  0
  159.8080  212.0670  153.0900 C   0  0  1  0  0  3  0  0  0  0  0  0
  159.2890  210.2410  154.5880 C   0  0  0  0  0  2  0  0  0  0  0  0
  159.9020  212.4900  155.4800 N   0  0  0  0  0  2  0  0  0  0  0  0
  161.5620  208.0500  153.1780 N   0  0  0  0  0  0  0  0  0  0  0  0
  161.0420  208.5390  154.2460 C   0  0  0  0  0  3  0  0  0  0  0  0
  161.1280  205.9050  154.2030 C   0  0  0  0  0  1  0  0  0  0  0  0
  161.8240  206.6370  153.0650 C   0  0  1  0  0  3  0  0  0  0  0  0
  159.9680  205.8420  151.7720 F   0  0  0  0  0  0  0  0  0  0  0  0
  161.3270  206.1100  151.7120 C   0  0  1  0  0  3  0  0  0  0  0  0
  161.5890  207.0920  150.5580 C   0  0  0  0  0  0  0  0  0  0  0  0
  162.7490  207.8060  150.8170 F   0  0  0  0  0  0  0  0  0  0  0  0
  160.5420  207.9950  150.4920 F   0  0  0  0  0  0  0  0  0  0  0  0
  162.0360  207.0660  148.0550 C   0  0  0  0  0  0  0  0  0  0  0  0
  162.1030  206.4030  146.8690 N   0  0  0  0  0  0  0  0  0  0  0  0
  161.4880  204.3460  147.9170 C   0  0  0  0  0  0  0  0  0  0  0  0
  161.9250  204.4320  145.5010 N   0  0  0  0  0  1  0  0  0  0  0  0
  162.3030  208.3960  148.0860 F   0  0  0  0  0  0  0  0  0  0  0  0
  161.1910  202.8870  147.8530 C   0  0  0  0  0  1  0  0  0  0  0  0
  161.4120  205.0060  149.1420 C   0  0  0  0  0  3  0  0  0  0  0  0
  161.8390  205.0730  146.7710 C   0  0  0  0  0  0  0  0  0  0  0  0
  161.6870  206.3770  149.2300 C   0  0  0  0  0  0  0  0  0  0  0  0
  158.8240  211.9200  152.0300 N   0  0  0  0  0  2  0  0  0  0  0  0
  158.6340  213.2340  151.4400 C   0  0  0  0  0  2  0  0  0  0  0  0
  160.5920  213.2290  149.9400 N   0  0  0  0  0  0  0  0  0  0  0  0
  161.1800  213.2330  148.7130 C   0  0  0  0  0  3  0  0  0  0  0  0
  159.2400  213.2650  150.0810 C   0  0  0  0  0  0  0  0  0  0  0  0
  158.9980  213.3040  147.6750 C   0  0  0  0  0  0  0  0  0  0  0  0
  160.3930  213.2720  147.5600 C   0  0  0  0  0  3  0  0  0  0  0  0
  158.4190  213.2960  148.9510 C   0  0  0  0  0  3  0  0  0  0  0  0
  158.1500  213.3430  146.4700 C   0  0  0  0  0  0  0  0  0  0  0  0
  157.0430  212.7360  146.4680 O   0  0  0  0  0  0  0  0  0  0  0  0
  159.2740  213.6130  144.3020 C   0  0  0  0  0  3  0  0  0  0  0  0
  158.5950  214.0740  145.3130 N   0  0  0  0  0  0  0  0  0  0  0  0
  160.5080  212.0280  142.8910 C   0  0  0  0  0  1  0  0  0  0  0  0
  159.7190  212.1950  144.1730 C   0  0  0  0  0  2  0  0  0  0  0  0
  1 10  1  6  0  0  0
  1  7  1  0  0  0  0
  1  4  1  0  0  0  0
  2  7  1  1  0  0  0
  2  8  1  0  0  0  0
  4  3  1  0  0  0  0
  5  6  1  0  0  0  0
  5  1  1  0  0  0  0
  6 27  1  6  0  0  0
  6  2  1  0  0  0  0
  8  3  1  0  0  0  0
  9 10  2  0  0  0  0
 12  9  1  0  0  0  0
 12 11  1  1  0  0  0
 14 13  1  1  0  0  0
 14 12  1  0  0  0  0
 15 16  1  0  0  0  0
 15 14  1  0  0  0  0
 17 15  1  0  0  0  0
 18 22  1  0  0  0  0
 18 26  1  0  0  0  0
 19 18  2  0  0  0  0
 20 24  1  0  0  0  0
 21 25  1  0  0  0  0
 23 20  1  0  0  0  0
 24 26  2  0  0  0  0
 25 19  1  0  0  0  0
 25 20  2  0  0  0  0
 26 15  1  0  0  0  0
 28 27  1  0  0  0  0
 29 31  1  0  0  0  0
 30 29  2  0  0  0  0
 31 28  1  0  0  0  0
 32 34  1  0  0  0  0
 33 32  2  0  0  0  0
 33 30  1  0  0  0  0
 34 31  2  0  0  0  0
 35 32  1  0  0  0  0
 36 35  2  0  0  0  0
 37 38  2  0  0  0  0
 38 35  1  0  0  0  0
 39 40  1  0  0  0  0
 40 37  1  0  0  0  0
M  END
>  <MODEL>
5

>  <REMARK>
 VINA RESULT:      -6.8      3.435      8.209
  Name = 
  11 active torsions:
  status: ('A' for Active; 'I' for Inactive)
    1  A    between atoms: N_1  and  C_11
    2  A    between atoms: C_2  and  C_17
    3  A    between atoms: C_6  and  C_38
    4  A    between atoms: C_8  and  C_23
    5  A    between atoms: C_9  and  C_35
    6  A    between atoms: C_9  and  C_40
    7  A    between atoms: C_11  and  C_35
    8  A    between atoms: C_20  and  C_29
    9  A    between atoms: C_23  and  N_31
   10  A    between atoms: C_27  and  N_39
   11  A    between atoms: C_38  and  N_39
                            x       y       z     vdW  Elec       q    Type
                         _______ _______ _______ _____ _____    ______ ____

>  <TORSDO>
F 11

$$$$
=
 OpenBabel11072415173D

 40 43  0  0  1  0  0  0  0  0999 V2000
  161.5920  210.0750  151.0480 C   0  0  2  0  0  0  0  0  0  0  0  0
  161.8780  208.8350  153.0460 C   0  0  1  0  0  3  0  0  0  0  0  0
  160.5430  210.9180  153.2250 C   0  0  0  0  0  2  0  0  0  0  0  0
  160.5120  210.9660  151.6860 C   0  0  0  0  0  2  0  0  0  0  0  0
  160.8350  208.4910  150.5630 S   0  0  0  0  0  0  0  0  0  0  0  0
  161.2470  207.7520  152.1860 C   0  0  1  0  0  3  0  0  0  0  0  0
  162.6440  209.7230  152.0750 C   0  0  0  0  0  2  0  0  0  0  0  0
  160.7940  209.5610  153.7420 N   0  0  0  0  0  2  0  0  0  0  0  0
  161.6880  211.7920  149.3410 N   0  0  0  0  0  0  0  0  0  0  0  0
  162.2230  210.7520  149.8730 C   0  0  0  0  0  3  0  0  0  0  0  0
  163.6590  211.8080  147.9430 C   0  0  0  0  0  1  0  0  0  0  0  0
  162.3000  212.4380  148.2070 C   0  0  1  0  0  3  0  0  0  0  0  0
  160.1060  211.9910  147.3490 F   0  0  0  0  0  0  0  0  0  0  0  0
  161.4020  212.3040  146.9690 C   0  0  1  0  0  3  0  0  0  0  0  0
  161.3740  213.5820  146.1130 C   0  0  0  0  0  0  0  0  0  0  0  0
  162.4260  214.4050  146.4840 F   0  0  0  0  0  0  0  0  0  0  0  0
  160.1950  214.2630  146.3630 F   0  0  0  0  0  0  0  0  0  0  0  0
  162.6620  212.9720  144.0070 C   0  0  0  0  0  0  0  0  0  0  0  0
  162.6950  212.7030  142.6740 N   0  0  0  0  0  0  0  0  0  0  0  0
  160.3310  212.9950  142.4950 C   0  0  0  0  0  0  0  0  0  0  0  0
  161.6690  212.4210  140.5170 N   0  0  0  0  0  1  0  0  0  0  0  0
  163.8190  212.9580  144.7150 F   0  0  0  0  0  0  0  0  0  0  0  0
  159.0750  213.0120  141.6930 C   0  0  0  0  0  1  0  0  0  0  0  0
  160.2740  213.2740  143.8600 C   0  0  0  0  0  3  0  0  0  0  0  0
  161.5710  212.7090  141.9090 C   0  0  0  0  0  0  0  0  0  0  0  0
  161.4390  213.2640  144.6370 C   0  0  0  0  0  0  0  0  0  0  0  0
  162.1910  206.6620  152.0010 N   0  0  0  0  0  2  0  0  0  0  0  0
  161.5890  205.4740  152.5830 C   0  0  0  0  0  2  0  0  0  0  0  0
  161.0380  203.1790  151.8660 N   0  0  0  0  0  0  0  0  0  0  0  0
  160.8170  202.2230  150.9250 C   0  0  0  0  0  3  0  0  0  0  0  0
  161.3790  204.4500  151.5240 C   0  0  0  0  0  0  0  0  0  0  0  0
  161.2770  203.8390  149.1860 C   0  0  0  0  0  0  0  0  0  0  0  0
  160.9340  202.5360  149.5690 C   0  0  0  0  0  3  0  0  0  0  0  0
  161.4980  204.8040  150.1770 C   0  0  0  0  0  3  0  0  0  0  0  0
  161.4040  204.1900  147.7600 C   0  0  0  0  0  0  0  0  0  0  0  0
  160.9670  203.3940  146.8830 O   0  0  0  0  0  0  0  0  0  0  0  0
  161.7020  206.2050  146.3880 C   0  0  0  0  0  3  0  0  0  0  0  0
  162.0200  205.4350  147.3880 N   0  0  0  0  0  0  0  0  0  0  0  0
  161.1910  205.3550  144.1420 C   0  0  0  0  0  1  0  0  0  0  0  0
  160.6020  205.9080  145.4240 C   0  0  0  0  0  2  0  0  0  0  0  0
  1 10  1  6  0  0  0
  1  4  1  0  0  0  0
  1  7  1  0  0  0  0
  2  7  1  6  0  0  0
  2  8  1  0  0  0  0
  3  8  1  0  0  0  0
  4  3  1  0  0  0  0
  5  1  1  0  0  0  0
  5  6  1  0  0  0  0
  6 27  1  6  0  0  0
  6  2  1  0  0  0  0
  9 10  2  0  0  0  0
 12 11  1  6  0  0  0
 12  9  1  0  0  0  0
 14 13  1  1  0  0  0
 14 12  1  0  0  0  0
 15 17  1  0  0  0  0
 15 16  1  0  0  0  0
 15 14  1  0  0  0  0
 18 26  1  0  0  0  0
 18 22  1  0  0  0  0
 19 18  2  0  0  0  0
 20 24  1  0  0  0  0
 21 25  1  0  0  0  0
 23 20  1  0  0  0  0
 24 26  2  0  0  0  0
 25 20  2  0  0  0  0
 25 19  1  0  0  0  0
 26 15  1  0  0  0  0
 27 28  1  0  0  0  0
 30 29  2  0  0  0  0
 31 29  1  0  0  0  0
 31 28  1  0  0  0  0
 32 33  2  0  0  0  0
 32 34  1  0  0  0  0
 33 30  1  0  0  0  0
 34 31  2  0  0  0  0
 35 32  1  0  0  0  0
 36 35  2  0  0  0  0
 37 38  2  0  0  0  0
 38 35  1  0  0  0  0
 39 40  1  0  0  0  0
 40 37  1  0  0  0  0
M  END
>  <MODEL>
6

>  <REMARK>
 VINA RESULT:      -6.7      1.893      2.874
  Name = 
  11 active torsions:
  status: ('A' for Active; 'I' for Inactive)
    1  A    between atoms: N_1  and  C_11
    2  A    between atoms: C_2  and  C_17
    3  A    between atoms: C_6  and  C_38
    4  A    between atoms: C_8  and  C_23
    5  A    between atoms: C_9  and  C_35
    6  A    between atoms: C_9  and  C_40
    7  A    between atoms: C_11  and  C_35
    8  A    between atoms: C_20  and  C_29
    9  A    between atoms: C_23  and  N_31
   10  A    between atoms: C_27  and  N_39
   11  A    between atoms: C_38  and  N_39
                            x       y       z     vdW  Elec       q    Type
                         _______ _______ _______ _____ _____    ______ ____

>  <TORSDO>
F 11

$$$$
=
 OpenBabel11072415173D

 40 43  0  0  1  0  0  0  0  0999 V2000
  160.7810  208.9310  154.6230 C   0  0  2  0  0  0  0  0  0  0  0  0
  159.6060  209.3090  156.6440 C   0  0  1  0  0  3  0  0  0  0  0  0
  160.4470  207.0050  156.2750 C   0  0  0  0  0  2  0  0  0  0  0  0
  161.2770  207.5550  155.1000 C   0  0  0  0  0  2  0  0  0  0  0  0
  161.8240  210.2220  155.3720 S   0  0  0  0  0  0  0  0  0  0  0  0
  160.6920  210.3610  156.8040 C   0  0  1  0  0  3  0  0  0  0  0  0
  159.3850  209.1860  155.1420 C   0  0  0  0  0  2  0  0  0  0  0  0
  160.0900  208.0510  157.2510 N   0  0  0  0  0  2  0  0  0  0  0  0
  161.3120  208.0840  152.4160 N   0  0  0  0  0  0  0  0  0  0  0  0
  160.8020  209.0220  153.1300 C   0  0  0  0  0  3  0  0  0  0  0  0
  161.9030  209.5290  150.5710 C   0  0  0  0  0  1  0  0  0  0  0  0
  161.3310  208.1790  150.9770 C   0  0  1  0  0  3  0  0  0  0  0  0
  163.2300  206.7360  151.2220 F   0  0  0  0  0  0  0  0  0  0  0  0
  162.1730  207.0440  150.3790 C   0  0  1  0  0  3  0  0  0  0  0  0
  161.3540  205.7680  150.1220 C   0  0  0  0  0  0  0  0  0  0  0  0
  160.0650  205.9450  150.6010 F   0  0  0  0  0  0  0  0  0  0  0  0
  161.9260  204.7200  150.8240 F   0  0  0  0  0  0  0  0  0  0  0  0
  161.3550  206.3980  147.6590 C   0  0  0  0  0  0  0  0  0  0  0  0
  161.3220  206.0460  146.3450 N   0  0  0  0  0  0  0  0  0  0  0  0
  161.2420  203.7260  146.9060 C   0  0  0  0  0  0  0  0  0  0  0  0
  161.2320  204.4410  144.5560 N   0  0  0  0  0  1  0  0  0  0  0  0
  161.4040  207.7120  147.9920 F   0  0  0  0  0  0  0  0  0  0  0  0
  161.1800  202.2900  146.5130 C   0  0  0  0  0  1  0  0  0  0  0  0
  161.2750  204.0640  148.2580 C   0  0  0  0  0  3  0  0  0  0  0  0
  161.2650  204.7480  145.9470 C   0  0  0  0  0  0  0  0  0  0  0  0
  161.3340  205.4050  148.6550 C   0  0  0  0  0  0  0  0  0  0  0  0
  160.0920  211.6840  156.8260 N   0  0  0  0  0  2  0  0  0  0  0  0
  160.4780  212.3490  155.5930 C   0  0  0  0  0  2  0  0  0  0  0  0
  158.0460  212.7030  155.3880 N   0  0  0  0  0  0  0  0  0  0  0  0
  156.9190  213.0010  154.6880 C   0  0  0  0  0  3  0  0  0  0  0  0
  159.2650  212.6550  154.7880 C   0  0  0  0  0  0  0  0  0  0  0  0
  158.2390  213.2340  152.6760 C   0  0  0  0  0  0  0  0  0  0  0  0
  156.9950  213.2700  153.3200 C   0  0  0  0  0  3  0  0  0  0  0  0
  159.3830  212.9260  153.4220 C   0  0  0  0  0  3  0  0  0  0  0  0
  158.3410  213.5170  151.2330 C   0  0  0  0  0  0  0  0  0  0  0  0
  157.3680  213.2470  150.4760 O   0  0  0  0  0  0  0  0  0  0  0  0
  160.0060  214.0050  149.4940 C   0  0  0  0  0  3  0  0  0  0  0  0
  159.5470  214.1000  150.7090 N   0  0  0  0  0  0  0  0  0  0  0  0
  160.2890  213.0530  147.2480 C   0  0  0  0  0  1  0  0  0  0  0  0
  159.3280  213.2440  148.4030 C   0  0  0  0  0  2  0  0  0  0  0  0
  1 10  1  6  0  0  0
  1  4  1  0  0  0  0
  1  7  1  0  0  0  0
  1  5  1  0  0  0  0
  2  7  1  6  0  0  0
  2  6  1  0  0  0  0
  2  8  1  0  0  0  0
  3  8  1  0  0  0  0
  4  3  1  0  0  0  0
  5  6  1  0  0  0  0
  6 27  1  6  0  0  0
  9 10  2  0  0  0  0
 12 11  1  1  0  0  0
 12  9  1  0  0  0  0
 14 12  1  0  0  0  0
 14 13  1  1  0  0  0
 15 14  1  0  0  0  0
 15 16  1  0  0  0  0
 15 17  1  0  0  0  0
 18 22  1  0  0  0  0
 18 26  1  0  0  0  0
 19 18  2  0  0  0  0
 20 24  1  0  0  0  0
 21 25  1  0  0  0  0
 23 20  1  0  0  0  0
 24 26  2  0  0  0  0
 25 19  1  0  0  0  0
 25 20  2  0  0  0  0
 26 15  1  0  0  0  0
 28 27  1  0  0  0  0
 30 29  2  0  0  0  0
 31 29  1  0  0  0  0
 31 28  1  0  0  0  0
 32 33  2  0  0  0  0
 32 34  1  0  0  0  0
 33 30  1  0  0  0  0
 34 31  2  0  0  0  0
 35 32  1  0  0  0  0
 36 35  2  0  0  0  0
 37 38  2  0  0  0  0
 38 35  1  0  0  0  0
 39 40  1  0  0  0  0
 40 37  1  0  0  0  0
M  END
>  <MODEL>
7

>  <REMARK>
 VINA RESULT:      -6.6      4.349      8.726
  Name = 
  11 active torsions:
  status: ('A' for Active; 'I' for Inactive)
    1  A    between atoms: N_1  and  C_11
    2  A    between atoms: C_2  and  C_17
    3  A    between atoms: C_6  and  C_38
    4  A    between atoms: C_8  and  C_23
    5  A    between atoms: C_9  and  C_35
    6  A    between atoms: C_9  and  C_40
    7  A    between atoms: C_11  and  C_35
    8  A    between atoms: C_20  and  C_29
    9  A    between atoms: C_23  and  N_31
   10  A    between atoms: C_27  and  N_39
   11  A    between atoms: C_38  and  N_39
                            x       y       z     vdW  Elec       q    Type
                         _______ _______ _______ _____ _____    ______ ____

>  <TORSDO>
F 11

$$$$
=
 OpenBabel11072415173D

 40 43  0  0  1  0  0  0  0  0999 V2000
  161.8650  207.5210  149.0910 C   0  0  2  0  0  0  0  0  0  0  0  0
  162.3360  208.1520  151.3240 C   0  0  1  0  0  3  0  0  0  0  0  0
  162.3310  209.9770  149.6430 C   0  0  0  0  0  2  0  0  0  0  0  0
  161.6950  208.9860  148.6510 C   0  0  0  0  0  2  0  0  0  0  0  0
  160.3370  206.9750  149.9160 S   0  0  0  0  0  0  0  0  0  0  0  0
  160.9850  207.4930  151.5470 C   0  0  1  0  0  3  0  0  0  0  0  0
  162.9500  207.4190  150.1390 C   0  0  0  0  0  2  0  0  0  0  0  0
  162.1110  209.5870  151.0480 N   0  0  0  0  0  2  0  0  0  0  0  0
  161.3980  206.5610  146.9160 N   0  0  0  0  0  0  0  0  0  0  0  0
  162.1900  206.6430  147.9240 C   0  0  0  0  0  3  0  0  0  0  0  0
  163.0810  205.0780  146.0170 C   0  0  0  0  0  1  0  0  0  0  0  0
  161.7160  205.7110  145.7950 C   0  0  1  0  0  3  0  0  0  0  0  0
  159.9350  204.8250  144.4570 F   0  0  0  0  0  0  0  0  0  0  0  0
  160.6450  204.6230  145.6300 C   0  0  1  0  0  3  0  0  0  0  0  0
  161.2370  203.2040  145.6160 C   0  0  0  0  0  0  0  0  0  0  0  0
  162.5560  203.2610  145.1900 F   0  0  0  0  0  0  0  0  0  0  0  0
  160.5320  202.4340  144.7070 F   0  0  0  0  0  0  0  0  0  0  0  0
  161.1340  201.1470  147.1070 C   0  0  0  0  0  0  0  0  0  0  0  0
  161.0330  200.5800  148.3380 N   0  0  0  0  0  0  0  0  0  0  0  0
  160.9380  202.7250  149.3840 C   0  0  0  0  0  0  0  0  0  0  0  0
  160.8300  200.6750  150.7340 N   0  0  0  0  0  1  0  0  0  0  0  0
  161.2220  200.3470  146.0140 F   0  0  0  0  0  0  0  0  0  0  0  0
  160.8320  203.5810  150.6000 C   0  0  0  0  0  1  0  0  0  0  0  0
  161.0400  203.3280  148.1310 C   0  0  0  0  0  3  0  0  0  0  0  0
  160.9340  201.3260  149.4710 C   0  0  0  0  0  0  0  0  0  0  0  0
  161.1420  202.5470  146.9730 C   0  0  0  0  0  0  0  0  0  0  0  0
  161.1430  206.3290  152.4030 N   0  0  0  0  0  2  0  0  0  0  0  0
  162.0010  206.7240  153.5070 C   0  0  0  0  0  2  0  0  0  0  0  0
  160.2640  206.7390  155.2580 N   0  0  0  0  0  0  0  0  0  0  0  0
  159.5240  207.3430  156.2270 C   0  0  0  0  0  3  0  0  0  0  0  0
  161.1950  207.4250  154.5420 C   0  0  0  0  0  0  0  0  0  0  0  0
  160.6680  209.4280  155.7920 C   0  0  0  0  0  0  0  0  0  0  0  0
  159.7120  208.6970  156.5090 C   0  0  0  0  0  3  0  0  0  0  0  0
  161.4170  208.7810  154.8010 C   0  0  0  0  0  3  0  0  0  0  0  0
  160.8830  210.8580  156.0770 C   0  0  0  0  0  0  0  0  0  0  0  0
  162.0270  211.2570  156.4300 O   0  0  0  0  0  0  0  0  0  0  0  0
  159.3600  212.3480  154.8550 C   0  0  0  0  0  3  0  0  0  0  0  0
  159.7860  211.7800  155.9460 N   0  0  0  0  0  0  0  0  0  0  0  0
  159.1670  211.0760  152.7630 C   0  0  0  0  0  1  0  0  0  0  0  0
  159.9640  212.1270  153.5080 C   0  0  0  0  0  2  0  0  0  0  0  0
  1 10  1  6  0  0  0
  1  5  1  0  0  0  0
  1  7  1  0  0  0  0
  2  7  1  6  0  0  0
  2  6  1  0  0  0  0
  3  8  1  0  0  0  0
  4  1  1  0  0  0  0
  4  3  1  0  0  0  0
  5  6  1  0  0  0  0
  6 27  1  1  0  0  0
  8  2  1  0  0  0  0
  9 10  2  0  0  0  0
 12 11  1  1  0  0  0
 12  9  1  0  0  0  0
 14 13  1  6  0  0  0
 14 12  1  0  0  0  0
 15 14  1  0  0  0  0
 15 26  1  0  0  0  0
 16 15  1  0  0  0  0
 17 15  1  0  0  0  0
 18 19  1  0  0  0  0
 19 25  2  0  0  0  0
 20 25  1  0  0  0  0
 20 23  1  0  0  0  0
 22 18  1  0  0  0  0
 24 20  2  0  0  0  0
 25 21  1  0  0  0  0
 26 18  2  0  0  0  0
 26 24  1  0  0  0  0
 27 28  1  0  0  0  0
 28 31  1  0  0  0  0
 29 30  1  0  0  0  0
 30 33  2  0  0  0  0
 31 34  1  0  0  0  0
 31 29  2  0  0  0  0
 32 35  1  0  0  0  0
 32 33  1  0  0  0  0
 34 32  2  0  0  0  0
 35 36  2  0  0  0  0
 37 38  2  0  0  0  0
 38 35  1  0  0  0  0
 39 40  1  0  0  0  0
 40 37  1  0  0  0  0
M  END
>  <MODEL>
8

>  <REMARK>
 VINA RESULT:      -6.6      4.833      9.394
  Name = 
  11 active torsions:
  status: ('A' for Active; 'I' for Inactive)
    1  A    between atoms: N_1  and  C_11
    2  A    between atoms: C_2  and  C_17
    3  A    between atoms: C_6  and  C_38
    4  A    between atoms: C_8  and  C_23
    5  A    between atoms: C_9  and  C_35
    6  A    between atoms: C_9  and  C_40
    7  A    between atoms: C_11  and  C_35
    8  A    between atoms: C_20  and  C_29
    9  A    between atoms: C_23  and  N_31
   10  A    between atoms: C_27  and  N_39
   11  A    between atoms: C_38  and  N_39
                            x       y       z     vdW  Elec       q    Type
                         _______ _______ _______ _____ _____    ______ ____

>  <TORSDO>
F 11

$$$$
=
 OpenBabel11072415173D

 40 43  0  0  1  0  0  0  0  0999 V2000
  161.4960  206.5520  150.8030 C   0  0  2  0  0  0  0  0  0  0  0  0
  162.3910  208.7440  150.8430 C   0  0  1  0  0  3  0  0  0  0  0  0
  161.4420  207.9830  148.6810 C   0  0  0  0  0  2  0  0  0  0  0  0
  160.8350  206.7840  149.4330 C   0  0  0  0  0  2  0  0  0  0  0  0
  160.4560  207.3080  152.0920 S   0  0  0  0  0  0  0  0  0  0  0  0
  161.3760  208.8850  151.9650 C   0  0  1  0  0  3  0  0  0  0  0  0
  162.8180  207.2820  150.8690 C   0  0  0  0  0  2  0  0  0  0  0  0
  161.7320  209.1190  149.5730 N   0  0  0  0  0  2  0  0  0  0  0  0
  161.1820  204.2050  150.2900 N   0  0  0  0  0  0  0  0  0  0  0  0
  161.6980  205.0930  151.0620 C   0  0  0  0  0  3  0  0  0  0  0  0
  161.0770  202.5100  152.0100 C   0  0  0  0  0  1  0  0  0  0  0  0
  161.3790  202.8000  150.5480 C   0  0  1  0  0  3  0  0  0  0  0  0
  159.3910  202.7170  149.2090 F   0  0  0  0  0  0  0  0  0  0  0  0
  160.4690  201.9590  149.6400 C   0  0  1  0  0  3  0  0  0  0  0  0
  161.2070  201.4000  148.4120 C   0  0  0  0  0  0  0  0  0  0  0  0
  160.6210  200.2030  148.0300 F   0  0  0  0  0  0  0  0  0  0  0  0
  162.5210  201.1370  148.7600 F   0  0  0  0  0  0  0  0  0  0  0  0
  160.5150  202.1130  146.0710 C   0  0  0  0  0  0  0  0  0  0  0  0
  160.5410  203.0090  145.0490 N   0  0  0  0  0  0  0  0  0  0  0  0
  161.9240  204.4950  146.3070 C   0  0  0  0  0  0  0  0  0  0  0  0
  161.2130  205.0820  144.0300 N   0  0  0  0  0  1  0  0  0  0  0  0
  159.8220  200.9560  145.9210 F   0  0  0  0  0  0  0  0  0  0  0  0
  162.6840  205.7700  146.4430 C   0  0  0  0  0  1  0  0  0  0  0  0
  161.9120  203.5900  147.3680 C   0  0  0  0  0  3  0  0  0  0  0  0
  161.2220  204.1820  145.1350 C   0  0  0  0  0  0  0  0  0  0  0  0
  161.2050  202.3850  147.2660 C   0  0  0  0  0  0  0  0  0  0  0  0
  162.0630  209.1520  153.2170 N   0  0  0  0  0  2  0  0  0  0  0  0
  161.1470  208.8020  154.2900 C   0  0  0  0  0  2  0  0  0  0  0  0
  161.2920  210.6940  155.8660 N   0  0  0  0  0  0  0  0  0  0  0  0
  160.8260  211.8410  156.4290 C   0  0  0  0  0  3  0  0  0  0  0  0
  160.5930  210.0410  154.8990 C   0  0  0  0  0  0  0  0  0  0  0  0
  158.8670  211.7320  155.0170 C   0  0  0  0  0  0  0  0  0  0  0  0
  159.6060  212.3790  156.0150 C   0  0  0  0  0  3  0  0  0  0  0  0
  159.3720  210.5530  154.4530 C   0  0  0  0  0  3  0  0  0  0  0  0
  157.5780  212.2850  154.5650 C   0  0  0  0  0  0  0  0  0  0  0  0
  156.5330  211.5840  154.6600 O   0  0  0  0  0  0  0  0  0  0  0  0
  157.7890  213.9820  152.8010 C   0  0  0  0  0  3  0  0  0  0  0  0
  157.5290  213.6170  154.0230 N   0  0  0  0  0  0  0  0  0  0  0  0
  159.7090  213.0370  151.5970 C   0  0  0  0  0  1  0  0  0  0  0  0
  158.1990  213.0400  151.7190 C   0  0  0  0  0  2  0  0  0  0  0  0
  1  7  1  0  0  0  0
  1 10  1  1  0  0  0
  1  5  1  0  0  0  0
  2  7  1  6  0  0  0
  2  6  1  0  0  0  0
  3  4  1  0  0  0  0
  3  8  1  0  0  0  0
  4  1  1  0  0  0  0
  6  5  1  0  0  0  0
  6 27  1  1  0  0  0
  8  2  1  0  0  0  0
  9 12  1  0  0  0  0
  9 10  2  0  0  0  0
 12 11  1  1  0  0  0
 14 13  1  6  0  0  0
 14 12  1  0  0  0  0
 15 17  1  0  0  0  0
 15 14  1  0  0  0  0
 16 15  1  0  0  0  0
 18 26  1  0  0  0  0
 19 25  1  0  0  0  0
 19 18  2  0  0  0  0
 20 23  1  0  0  0  0
 20 24  1  0  0  0  0
 21 25  1  0  0  0  0
 22 18  1  0  0  0  0
 25 20  2  0  0  0  0
 26 24  2  0  0  0  0
 26 15  1  0  0  0  0
 27 28  1  0  0  0  0
 28 31  1  0  0  0  0
 29 30  1  0  0  0  0
 31 29  2  0  0  0  0
 32 33  1  0  0  0  0
 33 30  2  0  0  0  0
 34 31  1  0  0  0  0
 34 32  2  0  0  0  0
 35 36  2  0  0  0  0
 35 32  1  0  0  0  0
 37 38  2  0  0  0  0
 38 35  1  0  0  0  0
 39 40  1  0  0  0  0
 40 37  1  0  0  0  0
M  END
>  <MODEL>
9

>  <REMARK>
 VINA RESULT:      -6.6      5.179      9.564
  Name = 
  11 active torsions:
  status: ('A' for Active; 'I' for Inactive)
    1  A    between atoms: N_1  and  C_11
    2  A    between atoms: C_2  and  C_17
    3  A    between atoms: C_6  and  C_38
    4  A    between atoms: C_8  and  C_23
    5  A    between atoms: C_9  and  C_35
    6  A    between atoms: C_9  and  C_40
    7  A    between atoms: C_11  and  C_35
    8  A    between atoms: C_20  and  C_29
    9  A    between atoms: C_23  and  N_31
   10  A    between atoms: C_27  and  N_39
   11  A    between atoms: C_38  and  N_39
                            x       y       z     vdW  Elec       q    Type
                         _______ _______ _______ _____ _____    ______ ____

>  <TORSDO>
F 11

$$$$
