=
 OpenBabel11072414403D

 26 27  0  0  1  0  0  0  0  0999 V2000
  161.0230  207.7650  150.8450 O   0  0  0  0  0  0  0  0  0  0  0  0
  160.5750  203.9380  148.8030 C   0  0  1  0  0  3  0  0  0  0  0  0
  161.0580  205.4330  150.6410 N   0  0  0  0  0  0  0  0  0  0  0  0
  161.2530  206.6490  151.3810 C   0  0  0  0  0  0  0  0  0  0  0  0
  160.2920  206.3330  148.6040 O   0  0  0  0  0  0  0  0  0  0  0  0
  160.8810  203.1250  150.0700 C   0  0  0  0  0  3  0  0  0  0  0  0
  160.6270  205.3350  149.2970 C   0  0  0  0  0  0  0  0  0  0  0  0
  161.3050  204.1070  151.1700 C   0  0  0  0  0  3  0  0  0  0  0  0
  161.7610  206.6110  152.7860 C   0  0  0  0  0  2  0  0  0  0  0  0
  159.9950  209.7480  157.2610 C   0  0  0  0  0  1  0  0  0  0  0  0
  160.4930  206.9040  154.9270 C   0  0  0  0  0  2  0  0  0  0  0  0
  161.6340  209.3910  155.3820 C   0  0  2  0  0  3  0  0  0  0  0  0
  160.9970  207.5890  153.6620 C   0  0  1  0  0  3  0  0  0  0  0  0
  161.8920  208.7860  153.9940 C   0  0  0  0  0  2  0  0  0  0  0  0
  160.1470  209.3010  155.8180 C   0  0  0  0  0  0  0  0  0  0  0  0
  159.6110  207.8610  155.7300 C   0  0  0  0  0  2  0  0  0  0  0  0
  159.2710  210.1900  154.9470 C   0  0  0  0  0  1  0  0  0  0  0  0
  162.2060  210.8050  155.4210 C   0  0  0  0  0  2  0  0  0  0  0  0
  163.4260  210.8140  156.0960 O   0  0  0  0  0  1  0  0  0  0  0  0
  161.6500  203.6860  147.7380 C   0  0  1  0  0  3  0  0  0  0  0  0
  160.8800  201.6730  146.4080 C   0  0  0  0  0  0  0  0  0  0  0  0
  161.0580  203.0830  146.5480 N   0  0  0  0  0  2  0  0  0  0  0  0
  161.2040  200.8880  147.3390 O   0  0  0  0  0  0  0  0  0  0  0  0
  160.3290  201.1490  145.2060 N   0  0  0  0  0  1  0  0  0  0  0  0
  162.3800  204.9730  147.3570 C   0  0  0  0  0  2  0  0  0  0  0  0
  163.2400  204.7530  146.2790 O   0  0  0  0  0  1  0  0  0  0  0  0
  1  4  2  0  0  0  0
  2 20  1  6  0  0  0
  2  7  1  0  0  0  0
  2  6  1  0  0  0  0
  3  8  1  0  0  0  0
  3  4  1  0  0  0  0
  4  9  1  0  0  0  0
  5  7  2  0  0  0  0
  6  8  2  0  0  0  0
  7  3  1  0  0  0  0
 11 16  1  0  0  0  0
 12 18  1  6  0  0  0
 12 15  1  0  0  0  0
 13  9  1  6  0  0  0
 13 14  1  0  0  0  0
 13 11  1  0  0  0  0
 14 12  1  0  0  0  0
 15 10  1  0  0  0  0
 16 15  1  0  0  0  0
 17 15  1  0  0  0  0
 18 19  1  0  0  0  0
 20 25  1  6  0  0  0
 21 22  1  0  0  0  0
 21 23  2  0  0  0  0
 22 20  1  0  0  0  0
 24 21  1  0  0  0  0
 26 25  1  0  0  0  0
M  END
>  <MODEL>
1

>  <REMARK>
 VINA RESULT:      -7.4      0.000      0.000
  Name = 
  6 active torsions:
  status: ('A' for Active; 'I' for Inactive)
    1  A    between atoms: C_2  and  CA_22
    2  A    between atoms: C_4  and  CA_22
    3  A    between atoms: C_8  and  C_17
    4  A    between atoms: C_10  and  C_16
    5  A    between atoms: N_11  and  CA_22
    6  A    between atoms: C_15  and  C_17
                            x       y       z     vdW  Elec       q    Type
                         _______ _______ _______ _____ _____    ______ ____

>  <TORSDO>
F 6

$$$$
=
 OpenBabel11072414403D

 26 27  0  0  1  0  0  0  0  0999 V2000
  160.2140  204.9090  150.9030 O   0  0  0  0  0  0  0  0  0  0  0  0
  162.0590  203.7440  147.1260 C   0  0  1  0  0  3  0  0  0  0  0  0
  161.4670  205.2190  148.9490 N   0  0  0  0  0  0  0  0  0  0  0  0
  160.8720  205.6920  150.1690 C   0  0  0  0  0  0  0  0  0  0  0  0
  160.8150  202.9580  149.0480 O   0  0  0  0  0  0  0  0  0  0  0  0
  162.7360  205.1100  146.9340 C   0  0  0  0  0  3  0  0  0  0  0  0
  161.3810  203.9030  148.4360 C   0  0  0  0  0  0  0  0  0  0  0  0
  162.2310  206.0460  148.0390 C   0  0  0  0  0  3  0  0  0  0  0  0
  160.9990  207.1260  150.5700 C   0  0  0  0  0  2  0  0  0  0  0  0
  161.7370  208.2870  156.1460 C   0  0  0  0  0  1  0  0  0  0  0  0
  161.8340  206.5560  152.8630 C   0  0  0  0  0  2  0  0  0  0  0  0
  161.2850  209.1060  153.8080 C   0  0  2  0  0  3  0  0  0  0  0  0
  160.7650  207.2900  152.0620 C   0  0  1  0  0  3  0  0  0  0  0  0
  160.7300  208.7810  152.4130 C   0  0  0  0  0  2  0  0  0  0  0  0
  161.0110  207.9860  154.8480 C   0  0  0  0  0  0  0  0  0  0  0  0
  161.5070  206.6150  154.3570 C   0  0  0  0  0  2  0  0  0  0  0  0
  159.5220  207.8750  155.1460 C   0  0  0  0  0  1  0  0  0  0  0  0
  160.7820  210.4820  154.2340 C   0  0  0  0  0  2  0  0  0  0  0  0
  160.7790  211.3540  153.1450 O   0  0  0  0  0  1  0  0  0  0  0  0
  161.0440  203.4920  146.0050 C   0  0  1  0  0  3  0  0  0  0  0  0
  160.9650  205.3680  144.3050 C   0  0  0  0  0  0  0  0  0  0  0  0
  161.4870  204.1210  144.7640 N   0  0  0  0  0  2  0  0  0  0  0  0
  160.1100  205.9970  144.9850 O   0  0  0  0  0  0  0  0  0  0  0  0
  161.4160  205.9080  143.0680 N   0  0  0  0  0  1  0  0  0  0  0  0
  160.8140  201.9990  145.7740 C   0  0  0  0  0  2  0  0  0  0  0  0
  159.7560  201.7930  144.8860 O   0  0  0  0  0  1  0  0  0  0  0  0
  2 20  1  6  0  0  0
  2  7  1  0  0  0  0
  3  4  1  0  0  0  0
  4  9  1  0  0  0  0
  4  1  2  0  0  0  0
  6  2  1  0  0  0  0
  6  8  2  0  0  0  0
  7  3  1  0  0  0  0
  7  5  2  0  0  0  0
  8  3  1  0  0  0  0
 11 16  1  0  0  0  0
 12 18  1  1  0  0  0
 12 15  1  0  0  0  0
 13  9  1  6  0  0  0
 13 14  1  0  0  0  0
 13 11  1  0  0  0  0
 14 12  1  0  0  0  0
 15 17  1  0  0  0  0
 15 10  1  0  0  0  0
 16 15  1  0  0  0  0
 19 18  1  0  0  0  0
 20 25  1  6  0  0  0
 21 22  1  0  0  0  0
 21 23  2  0  0  0  0
 22 20  1  0  0  0  0
 24 21  1  0  0  0  0
 26 25  1  0  0  0  0
M  END
>  <MODEL>
2

>  <REMARK>
 VINA RESULT:      -7.2      2.088      3.121
  Name = 
  6 active torsions:
  status: ('A' for Active; 'I' for Inactive)
    1  A    between atoms: C_2  and  CA_22
    2  A    between atoms: C_4  and  CA_22
    3  A    between atoms: C_8  and  C_17
    4  A    between atoms: C_10  and  C_16
    5  A    between atoms: N_11  and  CA_22
    6  A    between atoms: C_15  and  C_17
                            x       y       z     vdW  Elec       q    Type
                         _______ _______ _______ _____ _____    ______ ____

>  <TORSDO>
F 6

$$$$
=
 OpenBabel11072414403D

 26 27  0  0  1  0  0  0  0  0999 V2000
  161.6220  207.9930  150.1390 O   0  0  0  0  0  0  0  0  0  0  0  0
  161.4990  209.2580  154.3120 C   0  0  1  0  0  3  0  0  0  0  0  0
  161.2230  207.7580  152.4340 N   0  0  0  0  0  0  0  0  0  0  0  0
  161.2090  207.2700  151.0830 C   0  0  0  0  0  0  0  0  0  0  0  0
  162.1600  209.8880  152.0700 O   0  0  0  0  0  0  0  0  0  0  0  0
  161.0430  207.8770  154.8090 C   0  0  0  0  0  3  0  0  0  0  0  0
  161.6580  209.0380  152.8540 C   0  0  0  0  0  0  0  0  0  0  0  0
  160.7600  207.0030  153.5800 C   0  0  0  0  0  3  0  0  0  0  0  0
  160.6740  205.9100  150.7720 C   0  0  0  0  0  2  0  0  0  0  0  0
  161.4160  203.3570  145.6810 C   0  0  0  0  0  1  0  0  0  0  0  0
  160.9800  203.8830  149.3300 C   0  0  0  0  0  2  0  0  0  0  0  0
  160.6670  205.3640  147.0060 C   0  0  2  0  0  3  0  0  0  0  0  0
  161.2980  205.3640  149.4980 C   0  0  1  0  0  3  0  0  0  0  0  0
  160.8070  206.1800  148.2990 C   0  0  0  0  0  2  0  0  0  0  0  0
  161.7220  204.2310  146.8830 C   0  0  0  0  0  0  0  0  0  0  0  0
  161.7270  203.3170  148.1200 C   0  0  0  0  0  2  0  0  0  0  0  0
  163.1200  204.8090  146.7110 C   0  0  0  0  0  1  0  0  0  0  0  0
  160.6430  206.3190  145.8150 C   0  0  0  0  0  2  0  0  0  0  0  0
  159.5920  205.9950  144.9570 O   0  0  0  0  0  1  0  0  0  0  0  0
  160.4180  210.3070  154.5980 C   0  0  1  0  0  3  0  0  0  0  0  0
  159.2060  211.9760  153.1290 C   0  0  0  0  0  0  0  0  0  0  0  0
  159.7140  210.6640  153.3700 N   0  0  0  0  0  2  0  0  0  0  0  0
  159.3810  212.8980  153.9700 O   0  0  0  0  0  0  0  0  0  0  0  0
  158.4990  212.2460  151.9240 N   0  0  0  0  0  1  0  0  0  0  0  0
  159.4170  209.8170  155.6440 C   0  0  0  0  0  2  0  0  0  0  0  0
  159.5260  210.5620  156.8200 O   0  0  0  0  0  1  0  0  0  0  0  0
  1  4  2  0  0  0  0
  2 20  1  6  0  0  0
  2  6  1  0  0  0  0
  3  7  1  0  0  0  0
  3  8  1  0  0  0  0
  4  3  1  0  0  0  0
  5  7  2  0  0  0  0
  7  2  1  0  0  0  0
  8  6  2  0  0  0  0
  9  4  1  0  0  0  0
 10 15  1  0  0  0  0
 11 13  1  0  0  0  0
 12 18  1  6  0  0  0
 12 14  1  0  0  0  0
 13  9  1  1  0  0  0
 14 13  1  0  0  0  0
 15 12  1  0  0  0  0
 15 16  1  0  0  0  0
 16 11  1  0  0  0  0
 17 15  1  0  0  0  0
 19 18  1  0  0  0  0
 20 25  1  1  0  0  0
 21 22  1  0  0  0  0
 21 23  2  0  0  0  0
 22 20  1  0  0  0  0
 24 21  1  0  0  0  0
 25 26  1  0  0  0  0
M  END
>  <MODEL>
3

>  <REMARK>
 VINA RESULT:      -7.1      3.187      9.014
  Name = 
  6 active torsions:
  status: ('A' for Active; 'I' for Inactive)
    1  A    between atoms: C_2  and  CA_22
    2  A    between atoms: C_4  and  CA_22
    3  A    between atoms: C_8  and  C_17
    4  A    between atoms: C_10  and  C_16
    5  A    between atoms: N_11  and  CA_22
    6  A    between atoms: C_15  and  C_17
                            x       y       z     vdW  Elec       q    Type
                         _______ _______ _______ _____ _____    ______ ____

>  <TORSDO>
F 6

$$$$
=
 OpenBabel11072414403D

 26 27  0  0  1  0  0  0  0  0999 V2000
  162.5380  208.0300  150.4420 O   0  0  0  0  0  0  0  0  0  0  0  0
  160.8540  204.7890  148.0580 C   0  0  1  0  0  3  0  0  0  0  0  0
  161.5290  205.9510  150.0690 N   0  0  0  0  0  0  0  0  0  0  0  0
  162.0880  206.9590  150.9270 C   0  0  0  0  0  0  0  0  0  0  0  0
  161.7770  207.0260  147.9880 O   0  0  0  0  0  0  0  0  0  0  0  0
  160.4370  203.9780  149.2940 C   0  0  0  0  0  3  0  0  0  0  0  0
  161.4340  206.0150  148.6590 C   0  0  0  0  0  0  0  0  0  0  0  0
  160.9960  204.6870  150.5340 C   0  0  0  0  0  3  0  0  0  0  0  0
  162.1720  206.7410  152.4030 C   0  0  0  0  0  2  0  0  0  0  0  0
  158.9940  210.6750  155.1250 C   0  0  0  0  0  1  0  0  0  0  0  0
  160.5960  208.6890  152.4280 C   0  0  0  0  0  2  0  0  0  0  0  0
  160.2000  208.4640  155.1640 C   0  0  2  0  0  3  0  0  0  0  0  0
  161.7340  207.9850  153.1570 C   0  0  1  0  0  3  0  0  0  0  0  0
  161.3310  207.6020  154.5840 C   0  0  0  0  0  2  0  0  0  0  0  0
  160.2340  209.9320  154.6600 C   0  0  0  0  0  0  0  0  0  0  0  0
  160.2600  210.0100  153.1240 C   0  0  0  0  0  2  0  0  0  0  0  0
  161.4580  210.6620  155.1960 C   0  0  0  0  0  1  0  0  0  0  0  0
  160.2050  208.3320  156.6850 C   0  0  0  0  0  2  0  0  0  0  0  0
  160.2000  206.9870  157.0520 O   0  0  0  0  0  1  0  0  0  0  0  0
  161.9050  204.0200  147.2480 C   0  0  1  0  0  3  0  0  0  0  0  0
  160.8590  201.9310  146.2690 C   0  0  0  0  0  0  0  0  0  0  0  0
  161.2720  203.2930  146.1520 N   0  0  0  0  0  2  0  0  0  0  0  0
  161.0000  201.3080  147.3550 O   0  0  0  0  0  0  0  0  0  0  0  0
  160.2810  201.2720  145.1490 N   0  0  0  0  0  1  0  0  0  0  0  0
  162.9860  204.9490  146.6970 C   0  0  0  0  0  2  0  0  0  0  0  0
  162.6910  205.3260  145.3840 O   0  0  0  0  0  1  0  0  0  0  0  0
  1  4  2  0  0  0  0
  2 20  1  1  0  0  0
  2  7  1  0  0  0  0
  2  6  1  0  0  0  0
  3  8  1  0  0  0  0
  3  4  1  0  0  0  0
  4  9  1  0  0  0  0
  5  7  2  0  0  0  0
  6  8  2  0  0  0  0
  7  3  1  0  0  0  0
 11 16  1  0  0  0  0
 11 13  1  0  0  0  0
 12 18  1  1  0  0  0
 13  9  1  6  0  0  0
 13 14  1  0  0  0  0
 14 12  1  0  0  0  0
 15 10  1  0  0  0  0
 15 12  1  0  0  0  0
 15 17  1  0  0  0  0
 16 15  1  0  0  0  0
 18 19  1  0  0  0  0
 20 25  1  6  0  0  0
 21 23  2  0  0  0  0
 22 21  1  0  0  0  0
 22 20  1  0  0  0  0
 24 21  1  0  0  0  0
 26 25  1  0  0  0  0
M  END
>  <MODEL>
4

>  <REMARK>
 VINA RESULT:      -7.1      1.449      1.905
  Name = 
  6 active torsions:
  status: ('A' for Active; 'I' for Inactive)
    1  A    between atoms: C_2  and  CA_22
    2  A    between atoms: C_4  and  CA_22
    3  A    between atoms: C_8  and  C_17
    4  A    between atoms: C_10  and  C_16
    5  A    between atoms: N_11  and  CA_22
    6  A    between atoms: C_15  and  C_17
                            x       y       z     vdW  Elec       q    Type
                         _______ _______ _______ _____ _____    ______ ____

>  <TORSDO>
F 6

$$$$
=
 OpenBabel11072414403D

 26 27  0  0  1  0  0  0  0  0999 V2000
  161.9070  207.6300  149.9260 O   0  0  0  0  0  0  0  0  0  0  0  0
  161.2540  209.5120  153.8060 C   0  0  1  0  0  3  0  0  0  0  0  0
  161.2840  207.7210  152.1810 N   0  0  0  0  0  0  0  0  0  0  0  0
  161.4460  207.0300  150.9320 C   0  0  0  0  0  0  0  0  0  0  0  0
  162.1050  209.8410  151.5640 O   0  0  0  0  0  0  0  0  0  0  0  0
  160.8450  208.1910  154.4770 C   0  0  0  0  0  3  0  0  0  0  0  0
  161.5820  209.0820  152.4250 C   0  0  0  0  0  0  0  0  0  0  0  0
  160.7540  207.1170  153.3860 C   0  0  0  0  0  3  0  0  0  0  0  0
  161.0420  205.5970  150.7970 C   0  0  0  0  0  2  0  0  0  0  0  0
  161.1880  203.1980  145.5820 C   0  0  0  0  0  1  0  0  0  0  0  0
  160.9780  203.6160  149.2650 C   0  0  0  0  0  2  0  0  0  0  0  0
  160.8060  205.2320  147.0170 C   0  0  2  0  0  3  0  0  0  0  0  0
  161.5260  205.0230  149.4770 C   0  0  1  0  0  3  0  0  0  0  0  0
  161.1200  205.9580  148.3340 C   0  0  0  0  0  2  0  0  0  0  0  0
  161.6710  203.9600  146.8030 C   0  0  0  0  0  0  0  0  0  0  0  0
  161.5830  203.0000  148.0010 C   0  0  0  0  0  2  0  0  0  0  0  0
  163.1330  204.3260  146.5900 C   0  0  0  0  0  1  0  0  0  0  0  0
  160.8840  206.2330  145.8680 C   0  0  0  0  0  2  0  0  0  0  0  0
  159.7060  206.2020  145.1210 O   0  0  0  0  0  1  0  0  0  0  0  0
  160.0800  210.4980  153.8150 C   0  0  1  0  0  3  0  0  0  0  0  0
  158.3090  211.2160  155.4770 C   0  0  0  0  0  0  0  0  0  0  0  0
  159.6180  210.7280  155.1800 N   0  0  0  0  0  2  0  0  0  0  0  0
  157.4800  211.4370  154.5540 O   0  0  0  0  0  0  0  0  0  0  0  0
  157.9360  211.4530  156.8290 N   0  0  0  0  0  1  0  0  0  0  0  0
  160.4540  211.8290  153.1640 C   0  0  0  0  0  2  0  0  0  0  0  0
  159.6400  212.0840  152.0580 O   0  0  0  0  0  1  0  0  0  0  0  0
  1  4  2  0  0  0  0
  2 20  1  6  0  0  0
  2  6  1  0  0  0  0
  3  7  1  0  0  0  0
  3  8  1  0  0  0  0
  4  3  1  0  0  0  0
  5  7  2  0  0  0  0
  7  2  1  0  0  0  0
  8  6  2  0  0  0  0
  9  4  1  0  0  0  0
 10 15  1  0  0  0  0
 11 13  1  0  0  0  0
 12 18  1  6  0  0  0
 12 14  1  0  0  0  0
 13  9  1  1  0  0  0
 14 13  1  0  0  0  0
 15 12  1  0  0  0  0
 15 16  1  0  0  0  0
 16 11  1  0  0  0  0
 17 15  1  0  0  0  0
 19 18  1  0  0  0  0
 20 25  1  1  0  0  0
 20 22  1  0  0  0  0
 21 24  1  0  0  0  0
 22 21  1  0  0  0  0
 23 21  2  0  0  0  0
 26 25  1  0  0  0  0
M  END
>  <MODEL>
5

>  <REMARK>
 VINA RESULT:      -6.8      3.258      9.103
  Name = 
  6 active torsions:
  status: ('A' for Active; 'I' for Inactive)
    1  A    between atoms: C_2  and  CA_22
    2  A    between atoms: C_4  and  CA_22
    3  A    between atoms: C_8  and  C_17
    4  A    between atoms: C_10  and  C_16
    5  A    between atoms: N_11  and  CA_22
    6  A    between atoms: C_15  and  C_17
                            x       y       z     vdW  Elec       q    Type
                         _______ _______ _______ _____ _____    ______ ____

>  <TORSDO>
F 6

$$$$
=
 OpenBabel11072414403D

 26 27  0  0  1  0  0  0  0  0999 V2000
  160.8310  207.4380  152.8400 O   0  0  0  0  0  0  0  0  0  0  0  0
  162.2580  206.0260  148.9680 C   0  0  1  0  0  3  0  0  0  0  0  0
  161.5330  207.6410  150.6160 N   0  0  0  0  0  0  0  0  0  0  0  0
  161.0400  208.1870  151.8500 C   0  0  0  0  0  0  0  0  0  0  0  0
  161.7220  205.3780  151.2380 O   0  0  0  0  0  0  0  0  0  0  0  0
  162.3820  207.4470  148.3970 C   0  0  0  0  0  3  0  0  0  0  0  0
  161.8120  206.2780  150.3600 C   0  0  0  0  0  0  0  0  0  0  0  0
  161.7940  208.4220  149.4240 C   0  0  0  0  0  3  0  0  0  0  0  0
  160.7390  209.6460  151.9700 C   0  0  0  0  0  2  0  0  0  0  0  0
  160.4530  212.5900  156.8930 C   0  0  0  0  0  1  0  0  0  0  0  0
  161.7660  210.6000  154.0470 C   0  0  0  0  0  2  0  0  0  0  0  0
  159.4780  212.0540  154.6330 C   0  0  2  0  0  3  0  0  0  0  0  0
  160.4990  210.0300  153.4200 C   0  0  1  0  0  3  0  0  0  0  0  0
  159.3400  211.0270  153.4990 C   0  0  0  0  0  2  0  0  0  0  0  0
  160.1890  211.4820  155.8890 C   0  0  0  0  0  0  0  0  0  0  0  0
  161.5490  210.8520  155.5400 C   0  0  0  0  0  2  0  0  0  0  0  0
  159.3300  210.4210  156.5630 C   0  0  0  0  0  1  0  0  0  0  0  0
  158.1090  212.6640  154.9210 C   0  0  0  0  0  2  0  0  0  0  0  0
  157.1110  211.9400  154.2700 O   0  0  0  0  0  1  0  0  0  0  0  0
  161.2070  205.2290  148.1860 C   0  0  1  0  0  3  0  0  0  0  0  0
  161.0690  205.4420  145.6660 C   0  0  0  0  0  0  0  0  0  0  0  0
  161.6920  204.9260  146.8430 N   0  0  0  0  0  2  0  0  0  0  0  0
  160.0800  206.2190  145.7500 O   0  0  0  0  0  0  0  0  0  0  0  0
  161.5720  205.0780  144.3860 N   0  0  0  0  0  1  0  0  0  0  0  0
  160.8300  203.9330  148.9040 C   0  0  0  0  0  2  0  0  0  0  0  0
  161.3950  202.8300  148.2610 O   0  0  0  0  0  1  0  0  0  0  0  0
  2 20  1  6  0  0  0
  2  7  1  0  0  0  0
  3  4  1  0  0  0  0
  4  9  1  0  0  0  0
  4  1  2  0  0  0  0
  6  2  1  0  0  0  0
  6  8  2  0  0  0  0
  7  3  1  0  0  0  0
  7  5  2  0  0  0  0
  8  3  1  0  0  0  0
 11 16  1  0  0  0  0
 12 18  1  1  0  0  0
 12 15  1  0  0  0  0
 13  9  1  6  0  0  0
 13 14  1  0  0  0  0
 13 11  1  0  0  0  0
 14 12  1  0  0  0  0
 15 17  1  0  0  0  0
 15 10  1  0  0  0  0
 16 15  1  0  0  0  0
 19 18  1  0  0  0  0
 20 25  1  1  0  0  0
 21 23  2  0  0  0  0
 21 22  1  0  0  0  0
 22 20  1  0  0  0  0
 24 21  1  0  0  0  0
 26 25  1  0  0  0  0
M  END
>  <MODEL>
6

>  <REMARK>
 VINA RESULT:      -6.5      2.431      3.493
  Name = 
  6 active torsions:
  status: ('A' for Active; 'I' for Inactive)
    1  A    between atoms: C_2  and  CA_22
    2  A    between atoms: C_4  and  CA_22
    3  A    between atoms: C_8  and  C_17
    4  A    between atoms: C_10  and  C_16
    5  A    between atoms: N_11  and  CA_22
    6  A    between atoms: C_15  and  C_17
                            x       y       z     vdW  Elec       q    Type
                         _______ _______ _______ _____ _____    ______ ____

>  <TORSDO>
F 6

$$$$
=
 OpenBabel11072414403D

 26 27  0  0  1  0  0  0  0  0999 V2000
  160.4190  208.5970  154.6530 O   0  0  0  0  0  0  0  0  0  0  0  0
  162.1450  205.9360  151.6580 C   0  0  1  0  0  3  0  0  0  0  0  0
  161.4500  208.0410  152.6250 N   0  0  0  0  0  0  0  0  0  0  0  0
  160.8780  208.9840  153.5460 C   0  0  0  0  0  0  0  0  0  0  0  0
  161.2020  206.0660  153.8830 O   0  0  0  0  0  0  0  0  0  0  0  0
  162.5640  207.0960  150.7410 C   0  0  0  0  0  3  0  0  0  0  0  0
  161.5510  206.6430  152.8190 C   0  0  0  0  0  0  0  0  0  0  0  0
  161.9930  208.3920  151.3290 C   0  0  0  0  0  3  0  0  0  0  0  0
  160.7890  210.4340  153.1930 C   0  0  0  0  0  2  0  0  0  0  0  0
  157.0300  214.2060  155.3420 C   0  0  0  0  0  1  0  0  0  0  0  0
  159.8770  211.8410  155.0550 C   0  0  0  0  0  2  0  0  0  0  0  0
  158.1580  213.1790  153.3380 C   0  0  2  0  0  3  0  0  0  0  0  0
  159.5400  211.0580  153.7910 C   0  0  1  0  0  3  0  0  0  0  0  0
  158.8650  211.9510  152.7460 C   0  0  0  0  0  2  0  0  0  0  0  0
  157.5500  212.9130  154.7420 C   0  0  0  0  0  0  0  0  0  0  0  0
  158.5950  212.3470  155.7200 C   0  0  0  0  0  2  0  0  0  0  0  0
  156.3940  211.9260  154.6550 C   0  0  0  0  0  1  0  0  0  0  0  0
  157.1530  213.7130  152.3210 C   0  0  0  0  0  2  0  0  0  0  0  0
  157.7270  213.7530  151.0510 O   0  0  0  0  0  1  0  0  0  0  0  0
  161.1060  205.0540  150.9560 C   0  0  1  0  0  3  0  0  0  0  0  0
  160.9770  205.3280  148.4420 C   0  0  0  0  0  0  0  0  0  0  0  0
  161.5460  204.7250  149.6040 N   0  0  0  0  0  2  0  0  0  0  0  0
  160.0800  206.2070  148.5480 O   0  0  0  0  0  0  0  0  0  0  0  0
  161.4280  204.9350  147.1520 N   0  0  0  0  0  1  0  0  0  0  0  0
  160.8340  203.7690  151.7390 C   0  0  0  0  0  2  0  0  0  0  0  0
  160.8240  202.6640  150.8860 O   0  0  0  0  0  1  0  0  0  0  0  0
  2 20  1  6  0  0  0
  2  7  1  0  0  0  0
  3  7  1  0  0  0  0
  3  4  1  0  0  0  0
  4  1  2  0  0  0  0
  6  8  2  0  0  0  0
  6  2  1  0  0  0  0
  7  5  2  0  0  0  0
  8  3  1  0  0  0  0
  9  4  1  0  0  0  0
 11 16  1  0  0  0  0
 12 18  1  6  0  0  0
 12 15  1  0  0  0  0
 13  9  1  6  0  0  0
 13 11  1  0  0  0  0
 14 12  1  0  0  0  0
 14 13  1  0  0  0  0
 15 10  1  0  0  0  0
 15 16  1  0  0  0  0
 17 15  1  0  0  0  0
 19 18  1  0  0  0  0
 20 25  1  1  0  0  0
 21 23  2  0  0  0  0
 21 22  1  0  0  0  0
 22 20  1  0  0  0  0
 24 21  1  0  0  0  0
 26 25  1  0  0  0  0
M  END
>  <MODEL>
7

>  <REMARK>
 VINA RESULT:      -6.5      2.918      4.732
  Name = 
  6 active torsions:
  status: ('A' for Active; 'I' for Inactive)
    1  A    between atoms: C_2  and  CA_22
    2  A    between atoms: C_4  and  CA_22
    3  A    between atoms: C_8  and  C_17
    4  A    between atoms: C_10  and  C_16
    5  A    between atoms: N_11  and  CA_22
    6  A    between atoms: C_15  and  C_17
                            x       y       z     vdW  Elec       q    Type
                         _______ _______ _______ _____ _____    ______ ____

>  <TORSDO>
F 6

$$$$
=
 OpenBabel11072414403D

 26 27  0  0  1  0  0  0  0  0999 V2000
  161.7160  209.0720  149.0870 O   0  0  0  0  0  0  0  0  0  0  0  0
  160.8010  204.8610  148.4170 C   0  0  1  0  0  3  0  0  0  0  0  0
  161.4270  206.8260  149.6800 N   0  0  0  0  0  0  0  0  0  0  0  0
  161.7670  208.1890  149.9820 C   0  0  0  0  0  0  0  0  0  0  0  0
  160.8670  207.0580  147.4040 O   0  0  0  0  0  0  0  0  0  0  0  0
  160.9460  204.5010  149.9040 C   0  0  0  0  0  3  0  0  0  0  0  0
  161.0340  206.3250  148.4160 C   0  0  0  0  0  0  0  0  0  0  0  0
  161.4660  205.7420  150.6400 C   0  0  0  0  0  3  0  0  0  0  0  0
  162.2160  208.5740  151.3540 C   0  0  0  0  0  2  0  0  0  0  0  0
  159.3940  212.2890  154.7030 C   0  0  0  0  0  1  0  0  0  0  0  0
  161.4130  209.3800  153.5860 C   0  0  0  0  0  2  0  0  0  0  0  0
  160.5390  211.7860  152.5170 C   0  0  2  0  0  3  0  0  0  0  0  0
  161.1150  209.3160  152.0930 C   0  0  1  0  0  3  0  0  0  0  0  0
  160.9540  210.7160  151.4950 C   0  0  0  0  0  2  0  0  0  0  0  0
  159.6160  211.2320  153.6370 C   0  0  0  0  0  0  0  0  0  0  0  0
  160.2330  210.0070  154.3330 C   0  0  0  0  0  2  0  0  0  0  0  0
  158.2610  210.8290  153.0730 C   0  0  0  0  0  1  0  0  0  0  0  0
  159.9580  212.9850  151.7730 C   0  0  0  0  0  2  0  0  0  0  0  0
  160.3080  212.9320  150.4240 O   0  0  0  0  0  1  0  0  0  0  0  0
  161.8650  204.1300  147.5890 C   0  0  1  0  0  3  0  0  0  0  0  0
  160.8670  202.0570  146.5310 C   0  0  0  0  0  0  0  0  0  0  0  0
  161.2470  203.4320  146.4660 N   0  0  0  0  0  2  0  0  0  0  0  0
  161.0250  201.3960  147.5930 O   0  0  0  0  0  0  0  0  0  0  0  0
  160.3020  201.4280  145.3880 N   0  0  0  0  0  1  0  0  0  0  0  0
  162.9370  205.0910  147.0740 C   0  0  0  0  0  2  0  0  0  0  0  0
  162.9960  205.0630  145.6780 O   0  0  0  0  0  1  0  0  0  0  0  0
  1  4  2  0  0  0  0
  2 20  1  6  0  0  0
  2  6  1  0  0  0  0
  3  4  1  0  0  0  0
  3  8  1  0  0  0  0
  4  9  1  0  0  0  0
  5  7  2  0  0  0  0
  6  8  2  0  0  0  0
  7  2  1  0  0  0  0
  7  3  1  0  0  0  0
 11 16  1  0  0  0  0
 12 18  1  6  0  0  0
 12 15  1  0  0  0  0
 13  9  1  6  0  0  0
 13 11  1  0  0  0  0
 14 13  1  0  0  0  0
 14 12  1  0  0  0  0
 15 16  1  0  0  0  0
 15 10  1  0  0  0  0
 17 15  1  0  0  0  0
 19 18  1  0  0  0  0
 20 25  1  6  0  0  0
 21 23  2  0  0  0  0
 22 21  1  0  0  0  0
 22 20  1  0  0  0  0
 24 21  1  0  0  0  0
 26 25  1  0  0  0  0
M  END
>  <MODEL>
8

>  <REMARK>
 VINA RESULT:      -6.4      2.087      2.594
  Name = 
  6 active torsions:
  status: ('A' for Active; 'I' for Inactive)
    1  A    between atoms: C_2  and  CA_22
    2  A    between atoms: C_4  and  CA_22
    3  A    between atoms: C_8  and  C_17
    4  A    between atoms: C_10  and  C_16
    5  A    between atoms: N_11  and  CA_22
    6  A    between atoms: C_15  and  C_17
                            x       y       z     vdW  Elec       q    Type
                         _______ _______ _______ _____ _____    ______ ____

>  <TORSDO>
F 6

$$$$
=
 OpenBabel11072414403D

 26 27  0  0  1  0  0  0  0  0999 V2000
  161.5710  208.3410  149.7640 O   0  0  0  0  0  0  0  0  0  0  0  0
  161.2720  209.6440  153.9150 C   0  0  1  0  0  3  0  0  0  0  0  0
  161.1970  208.0930  152.0620 N   0  0  0  0  0  0  0  0  0  0  0  0
  161.2490  207.5850  150.7180 C   0  0  0  0  0  0  0  0  0  0  0  0
  161.8560  210.3180  151.6650 O   0  0  0  0  0  0  0  0  0  0  0  0
  160.9940  208.2250  154.4330 C   0  0  0  0  0  3  0  0  0  0  0  0
  161.4630  209.4230  152.4610 C   0  0  0  0  0  0  0  0  0  0  0  0
  160.8290  207.3030  153.2190 C   0  0  0  0  0  3  0  0  0  0  0  0
  160.8940  206.1630  150.4280 C   0  0  0  0  0  2  0  0  0  0  0  0
  162.7560  204.3440  145.3080 C   0  0  0  0  0  1  0  0  0  0  0  0
  162.3230  206.3820  148.3810 C   0  0  0  0  0  2  0  0  0  0  0  0
  161.6470  203.8360  147.5120 C   0  0  2  0  0  3  0  0  0  0  0  0
  160.9990  205.8740  148.9400 C   0  0  1  0  0  3  0  0  0  0  0  0
  160.8310  204.3720  148.6980 C   0  0  0  0  0  2  0  0  0  0  0  0
  161.7950  204.8670  146.3600 C   0  0  0  0  0  0  0  0  0  0  0  0
  162.3550  206.2090  146.8610 C   0  0  0  0  0  2  0  0  0  0  0  0
  160.4520  205.1300  145.6920 C   0  0  0  0  0  1  0  0  0  0  0  0
  161.0650  202.4960  147.0720 C   0  0  0  0  0  2  0  0  0  0  0  0
  160.8870  201.6620  148.1750 O   0  0  0  0  0  1  0  0  0  0  0  0
  160.0650  210.5520  154.1830 C   0  0  1  0  0  3  0  0  0  0  0  0
  160.2540  211.6640  156.4510 C   0  0  0  0  0  0  0  0  0  0  0  0
  160.4480  211.6720  155.0360 N   0  0  0  0  0  2  0  0  0  0  0  0
  159.7650  210.6550  157.0260 O   0  0  0  0  0  0  0  0  0  0  0  0
  160.6180  212.8050  157.2180 N   0  0  0  0  0  1  0  0  0  0  0  0
  159.4530  211.0760  152.8840 C   0  0  0  0  0  2  0  0  0  0  0  0
  159.5610  212.4670  152.8130 O   0  0  0  0  0  1  0  0  0  0  0  0
  1  4  2  0  0  0  0
  2 20  1  6  0  0  0
  2  6  1  0  0  0  0
  3  7  1  0  0  0  0
  3  8  1  0  0  0  0
  4  3  1  0  0  0  0
  5  7  2  0  0  0  0
  7  2  1  0  0  0  0
  8  6  2  0  0  0  0
  9  4  1  0  0  0  0
 10 15  1  0  0  0  0
 11 13  1  0  0  0  0
 12 18  1  6  0  0  0
 12 14  1  0  0  0  0
 13  9  1  1  0  0  0
 14 13  1  0  0  0  0
 15 16  1  0  0  0  0
 15 12  1  0  0  0  0
 16 11  1  0  0  0  0
 17 15  1  0  0  0  0
 18 19  1  0  0  0  0
 20 25  1  6  0  0  0
 20 22  1  0  0  0  0
 21 23  2  0  0  0  0
 21 24  1  0  0  0  0
 22 21  1  0  0  0  0
 26 25  1  0  0  0  0
M  END
>  <MODEL>
9

>  <REMARK>
 VINA RESULT:      -6.4      3.145      9.393
  Name = 
  6 active torsions:
  status: ('A' for Active; 'I' for Inactive)
    1  A    between atoms: C_2  and  CA_22
    2  A    between atoms: C_4  and  CA_22
    3  A    between atoms: C_8  and  C_17
    4  A    between atoms: C_10  and  C_16
    5  A    between atoms: N_11  and  CA_22
    6  A    between atoms: C_15  and  C_17
                            x       y       z     vdW  Elec       q    Type
                         _______ _______ _______ _____ _____    ______ ____

>  <TORSDO>
F 6

$$$$
