=
 OpenBabel11072413413D

 44 46  0  0  1  0  0  0  0  0999 V2000
  162.1010  210.6770  149.0120 C   0  0  0  0  0  2  0  0  0  0  0  0
  163.7230  212.2980  148.1860 O   0  0  0  0  0  1  0  0  0  0  0  0
  162.5100  211.6600  147.9130 C   0  0  2  0  0  3  0  0  0  0  0  0
  161.2250  212.8580  147.5850 S   0  0  0  0  0  0  0  0  0  0  0  0
  160.9190  213.6070  148.8530 O   0  0  0  0  0  0  0  0  0  0  0  0
  159.9780  212.1620  147.1160 O   0  0  0  0  0  0  0  0  0  0  0  0
  161.7280  214.0270  146.3250 C   0  0  0  0  0  2  0  0  0  0  0  0
  161.2000  213.0750  144.0560 N   0  0  0  0  0  2  0  0  0  0  0  0
  163.3990  213.1430  144.8340 O   0  0  0  0  0  0  0  0  0  0  0  0
  162.1790  213.3870  145.0470 C   0  0  0  0  0  0  0  0  0  0  0  0
  161.5460  212.3890  142.8210 C   0  0  0  0  0  2  0  0  0  0  0  0
  160.0360  211.9380  141.9100 S   0  0  0  0  0  0  0  0  0  0  0  0
  160.5620  212.7970  140.3880 C   0  0  0  0  0  2  0  0  0  0  0  0
  161.1000  212.2540  138.0190 C   0  0  0  0  0  1  0  0  0  0  0  0
  158.8800  212.7960  138.6850 O   0  0  0  0  0  1  0  0  0  0  0  0
  160.0400  212.1420  139.1060 C   0  0  2  0  0  0  0  0  0  0  0  0
  159.7370  210.6550  139.3890 C   0  0  1  0  0  3  0  0  0  0  0  0
  158.3300  210.2410  138.9670 C   0  0  0  0  0  1  0  0  0  0  0  0
  160.7220  209.2920  137.5830 C   0  0  0  0  0  2  0  0  0  0  0  0
  160.7720  209.6950  138.8510 C   0  0  0  0  0  0  0  0  0  0  0  0
  161.9700  207.8570  140.0910 N   0  0  0  0  0  1  0  0  0  0  0  0
  161.8620  209.2330  139.7290 C   0  0  0  0  0  0  0  0  0  0  0  0
  162.7120  210.0520  140.1680 O   0  0  0  0  0  0  0  0  0  0  0  0
  161.8240  209.2470  148.5560 C   0  0  0  0  0  2  0  0  0  0  0  0
  162.1470  206.8220  149.3410 N   0  0  0  0  0  2  0  0  0  0  0  0
  162.1770  208.2340  149.5980 C   0  0  0  0  0  0  0  0  0  0  0  0
  162.5450  208.6360  150.7320 O   0  0  0  0  0  0  0  0  0  0  0  0
  161.6580  206.1250  148.1460 C   0  0  2  0  0  0  0  0  0  0  0  0
  160.5330  205.1740  150.7430 O   0  0  0  0  0  1  0  0  0  0  0  0
  160.2210  205.8740  145.4950 C   0  0  0  0  0  2  0  0  0  0  0  0
  160.5590  204.5150  145.3060 O   0  0  0  0  0  0  0  0  0  0  0  0
  162.9010  205.1390  146.0190 C   0  0  1  0  0  0  0  0  0  0  0  0
  164.1770  204.3600  146.2570 C   0  0  0  0  0  1  0  0  0  0  0  0
  160.4300  202.9190  149.9430 C   0  0  0  0  0  3  0  0  0  0  0  0
  162.7930  206.2390  147.0930 C   0  0  0  0  0  2  0  0  0  0  0  0
  160.5680  201.9770  148.9240 C   0  0  0  0  0  3  0  0  0  0  0  0
  159.6430  206.1170  146.8810 C   0  0  0  0  0  2  0  0  0  0  0  0
  160.5350  206.8720  147.6770 O   0  0  0  0  0  0  0  0  0  0  0  0
  161.3050  204.6610  148.4780 C   0  0  0  0  0  0  0  0  0  0  0  0
  162.9940  205.7390  144.7640 O   0  0  0  0  0  1  0  0  0  0  0  0
  161.3730  203.7090  147.4380 C   0  0  0  0  0  0  0  0  0  0  0  0
  161.7180  204.1500  146.0470 C   0  0  1  0  0  3  0  0  0  0  0  0
  161.0200  202.3760  147.6670 C   0  0  0  0  0  3  0  0  0  0  0  0
  160.7640  204.2580  149.7230 C   0  0  0  0  0  0  0  0  0  0  0  0
  3  2  1  1  0  0  0
  3  1  1  0  0  0  0
  4  3  1  0  0  0  0
  4  5  2  0  0  0  0
  6  4  2  0  0  0  0
  7  4  1  0  0  0  0
  8 10  1  0  0  0  0
  9 10  2  0  0  0  0
 10  7  1  0  0  0  0
 11  8  1  0  0  0  0
 12 11  1  0  0  0  0
 13 12  1  0  0  0  0
 15 16  1  0  0  0  0
 16 14  1  6  0  0  0
 16 17  1  0  0  0  0
 16 13  1  0  0  0  0
 17 18  1  6  0  0  0
 19 20  2  0  0  0  0
 20 17  1  0  0  0  0
 20 22  1  0  0  0  0
 22 21  1  0  0  0  0
 22 23  2  0  0  0  0
 24  1  1  0  0  0  0
 24 26  1  0  0  0  0
 25 26  1  0  0  0  0
 26 27  2  0  0  0  0
 28 39  1  0  0  0  0
 28 25  1  1  0  0  0
 30 37  1  0  0  0  0
 31 30  1  0  0  0  0
 32 42  1  0  0  0  0
 32 33  1  1  0  0  0
 32 35  1  0  0  0  0
 35 28  1  0  0  0  0
 36 34  2  0  0  0  0
 37 38  1  0  0  0  0
 38 28  1  0  0  0  0
 39 44  2  0  0  0  0
 40 32  1  0  0  0  0
 41 43  2  0  0  0  0
 41 39  1  0  0  0  0
 42 31  1  1  0  0  0
 42 41  1  0  0  0  0
 43 36  1  0  0  0  0
 44 34  1  0  0  0  0
 44 29  1  0  0  0  0
M  END
>  <MODEL>
1

>  <REMARK>
 VINA RESULT:      -6.6      0.000      0.000
  Name = 
  14 active torsions:
  status: ('A' for Active; 'I' for Inactive)
    1  A    between atoms: C_1  and  S_20
    2  A    between atoms: C_1  and  C_28
    3  A    between atoms: S_3  and  C_12
    4  A    between atoms: S_3  and  C_41
    5  A    between atoms: C_5  and  N_13
    6  A    between atoms: C_6  and  C_23
    7  A    between atoms: C_10  and  N_15
    8  A    between atoms: C_10  and  S_20
    9  A    between atoms: C_12  and  C_32
   10  A    between atoms: C_23  and  C_26
   11  A    between atoms: C_24  and  C_41
   12  A    between atoms: C_24  and  C_43
   13  A    between atoms: C_26  and  C_28
   14  A    between atoms: C_37  and  C_43
                            x       y       z     vdW  Elec       q    Type
                         _______ _______ _______ _____ _____    ______ ____

>  <TORSDO>
F 14

$$$$
=
 OpenBabel11072413413D

 44 46  0  0  1  0  0  0  0  0999 V2000
  160.4580  212.0180  144.0210 C   0  0  0  0  0  2  0  0  0  0  0  0
  162.7200  212.9090  144.1910 O   0  0  0  0  0  1  0  0  0  0  0  0
  161.3770  213.1440  144.4980 C   0  0  2  0  0  3  0  0  0  0  0  0
  161.1750  213.4690  146.2440 S   0  0  0  0  0  0  0  0  0  0  0  0
  160.0540  214.4530  146.4330 O   0  0  0  0  0  0  0  0  0  0  0  0
  162.4390  214.0550  146.8090 O   0  0  0  0  0  0  0  0  0  0  0  0
  160.7950  211.9700  147.1480 C   0  0  0  0  0  2  0  0  0  0  0  0
  161.6010  210.4530  148.9870 N   0  0  0  0  0  2  0  0  0  0  0  0
  162.6750  212.4790  148.5620 O   0  0  0  0  0  0  0  0  0  0  0  0
  161.7470  211.6770  148.2670 C   0  0  0  0  0  0  0  0  0  0  0  0
  162.4390  210.1270  150.1310 C   0  0  0  0  0  2  0  0  0  0  0  0
  161.5020  209.1270  151.3290 S   0  0  0  0  0  0  0  0  0  0  0  0
  162.2490  207.5570  150.7740 C   0  0  0  0  0  2  0  0  0  0  0  0
  161.0470  206.8090  152.8220 C   0  0  0  0  0  1  0  0  0  0  0  0
  162.8610  205.5510  151.9290 O   0  0  0  0  0  1  0  0  0  0  0  0
  161.7650  206.3380  151.5650 C   0  0  2  0  0  0  0  0  0  0  0  0
  160.7960  205.5200  150.6840 C   0  0  1  0  0  3  0  0  0  0  0  0
  160.6250  206.1040  149.2840 C   0  0  0  0  0  1  0  0  0  0  0  0
  161.5330  203.4000  151.7090 C   0  0  0  0  0  2  0  0  0  0  0  0
  161.1060  204.0430  150.6240 C   0  0  0  0  0  0  0  0  0  0  0  0
  160.0090  202.1930  149.3100 N   0  0  0  0  0  1  0  0  0  0  0  0
  160.8990  203.3060  149.3640 C   0  0  0  0  0  0  0  0  0  0  0  0
  161.5090  203.6560  148.3190 O   0  0  0  0  0  0  0  0  0  0  0  0
  160.2130  211.9520  142.5160 C   0  0  0  0  0  2  0  0  0  0  0  0
  159.4360  213.5150  140.6320 N   0  0  0  0  0  2  0  0  0  0  0  0
  159.4250  213.1170  142.0110 C   0  0  0  0  0  0  0  0  0  0  0  0
  158.7000  213.7530  142.8200 O   0  0  0  0  0  0  0  0  0  0  0  0
  160.2710  212.9980  139.5430 C   0  0  2  0  0  0  0  0  0  0  0  0
  157.4130  212.1380  139.4930 O   0  0  0  0  0  1  0  0  0  0  0  0
  162.0170  213.1880  137.0770 C   0  0  0  0  0  2  0  0  0  0  0  0
  162.2870  211.8030  137.0180 O   0  0  0  0  0  0  0  0  0  0  0  0
  162.6920  211.9120  139.5080 C   0  0  1  0  0  0  0  0  0  0  0  0
  163.0100  210.8850  140.5750 C   0  0  0  0  0  1  0  0  0  0  0  0
  158.0090  209.9970  138.5980 C   0  0  0  0  0  3  0  0  0  0  0  0
  161.7180  212.9470  140.1030 C   0  0  0  0  0  2  0  0  0  0  0  0
  158.9520  209.1070  138.0860 C   0  0  0  0  0  3  0  0  0  0  0  0
  160.5270  213.4600  137.2220 C   0  0  0  0  0  2  0  0  0  0  0  0
  160.2280  213.9770  138.5030 O   0  0  0  0  0  0  0  0  0  0  0  0
  159.7680  211.6150  139.0810 C   0  0  0  0  0  0  0  0  0  0  0  0
  163.8820  212.5540  139.1650 O   0  0  0  0  0  1  0  0  0  0  0  0
  160.6990  210.7300  138.4960 C   0  0  0  0  0  0  0  0  0  0  0  0
  162.1150  211.1750  138.2830 C   0  0  1  0  0  3  0  0  0  0  0  0
  160.2930  209.4820  138.0170 C   0  0  0  0  0  3  0  0  0  0  0  0
  158.3990  211.2550  139.0660 C   0  0  0  0  0  0  0  0  0  0  0  0
  1  3  1  0  0  0  0
  3  2  1  1  0  0  0
  3  4  1  0  0  0  0
  4  5  2  0  0  0  0
  4  6  2  0  0  0  0
  4  7  1  0  0  0  0
  7 10  1  0  0  0  0
  8 11  1  0  0  0  0
 10  9  2  0  0  0  0
 10  8  1  0  0  0  0
 11 12  1  0  0  0  0
 13 12  1  0  0  0  0
 13 16  1  0  0  0  0
 16 15  1  0  0  0  0
 16 14  1  1  0  0  0
 17 18  1  6  0  0  0
 17 16  1  0  0  0  0
 20 17  1  0  0  0  0
 20 19  2  0  0  0  0
 21 22  1  0  0  0  0
 22 20  1  0  0  0  0
 23 22  2  0  0  0  0
 24  1  1  0  0  0  0
 25 26  1  0  0  0  0
 26 24  1  0  0  0  0
 26 27  2  0  0  0  0
 28 35  1  0  0  0  0
 28 25  1  1  0  0  0
 30 37  1  0  0  0  0
 31 30  1  0  0  0  0
 32 35  1  0  0  0  0
 32 33  1  1  0  0  0
 34 44  1  0  0  0  0
 36 34  2  0  0  0  0
 37 38  1  0  0  0  0
 38 28  1  0  0  0  0
 39 28  1  0  0  0  0
 40 32  1  0  0  0  0
 41 39  1  0  0  0  0
 42 31  1  6  0  0  0
 42 41  1  0  0  0  0
 42 32  1  0  0  0  0
 43 36  1  0  0  0  0
 43 41  2  0  0  0  0
 44 39  2  0  0  0  0
 44 29  1  0  0  0  0
M  END
>  <MODEL>
2

>  <REMARK>
 VINA RESULT:      -5.4      2.612     10.412
  Name = 
  14 active torsions:
  status: ('A' for Active; 'I' for Inactive)
    1  A    between atoms: C_1  and  S_20
    2  A    between atoms: C_1  and  C_28
    3  A    between atoms: S_3  and  C_12
    4  A    between atoms: S_3  and  C_41
    5  A    between atoms: C_5  and  N_13
    6  A    between atoms: C_6  and  C_23
    7  A    between atoms: C_10  and  N_15
    8  A    between atoms: C_10  and  S_20
    9  A    between atoms: C_12  and  C_32
   10  A    between atoms: C_23  and  C_26
   11  A    between atoms: C_24  and  C_41
   12  A    between atoms: C_24  and  C_43
   13  A    between atoms: C_26  and  C_28
   14  A    between atoms: C_37  and  C_43
                            x       y       z     vdW  Elec       q    Type
                         _______ _______ _______ _____ _____    ______ ____

>  <TORSDO>
F 14

$$$$
=
 OpenBabel11072413413D

 44 46  0  0  1  0  0  0  0  0999 V2000
  161.4600  211.8110  149.4340 C   0  0  0  0  0  2  0  0  0  0  0  0
  163.3170  212.5430  148.0340 O   0  0  0  0  0  1  0  0  0  0  0  0
  162.0400  211.9740  148.0270 C   0  0  2  0  0  3  0  0  0  0  0  0
  160.9420  212.8990  146.9630 S   0  0  0  0  0  0  0  0  0  0  0  0
  159.9490  213.6440  147.8110 O   0  0  0  0  0  0  0  0  0  0  0  0
  160.1990  211.9630  146.0500 O   0  0  0  0  0  0  0  0  0  0  0  0
  161.8450  214.0730  145.9540 C   0  0  0  0  0  2  0  0  0  0  0  0
  161.7150  213.4140  143.5290 N   0  0  0  0  0  2  0  0  0  0  0  0
  163.6600  213.0350  144.7620 O   0  0  0  0  0  0  0  0  0  0  0  0
  162.4750  213.4690  144.7370 C   0  0  0  0  0  0  0  0  0  0  0  0
  162.2290  212.7800  142.3250 C   0  0  0  0  0  2  0  0  0  0  0  0
  160.9820  211.6490  141.6320 S   0  0  0  0  0  0  0  0  0  0  0  0
  162.0270  211.1880  140.2080 C   0  0  0  0  0  2  0  0  0  0  0  0
  162.1990  210.6210  137.7900 C   0  0  0  0  0  1  0  0  0  0  0  0
  160.5000  212.0810  138.5960 O   0  0  0  0  0  1  0  0  0  0  0  0
  161.2330  210.9370  138.9230 C   0  0  2  0  0  0  0  0  0  0  0  0
  160.2800  209.7440  139.1470 C   0  0  1  0  0  3  0  0  0  0  0  0
  158.8230  210.0750  138.8320 C   0  0  0  0  0  1  0  0  0  0  0  0
  160.2650  208.1780  137.2390 C   0  0  0  0  0  2  0  0  0  0  0  0
  160.7090  208.4680  138.4600 C   0  0  0  0  0  0  0  0  0  0  0  0
  162.3000  206.5150  138.4130 N   0  0  0  0  0  1  0  0  0  0  0  0
  161.6530  207.5600  139.1360 C   0  0  0  0  0  0  0  0  0  0  0  0
  161.8980  207.7000  140.3630 O   0  0  0  0  0  0  0  0  0  0  0  0
  162.2700  210.9370  150.3890 C   0  0  0  0  0  2  0  0  0  0  0  0
  161.1340  209.0380  151.6940 N   0  0  0  0  0  2  0  0  0  0  0  0
  161.7300  209.5470  150.4900 C   0  0  0  0  0  0  0  0  0  0  0  0
  161.7710  208.8070  149.4740 O   0  0  0  0  0  0  0  0  0  0  0  0
  161.0700  209.6710  153.0150 C   0  0  2  0  0  0  0  0  0  0  0  0
  161.6550  206.7430  153.0160 O   0  0  0  0  0  1  0  0  0  0  0  0
  161.9370  211.5640  155.2110 C   0  0  0  0  0  2  0  0  0  0  0  0
  160.8900  211.2110  156.0920 O   0  0  0  0  0  0  0  0  0  0  0  0
  159.3450  211.3700  154.1010 C   0  0  1  0  0  0  0  0  0  0  0  0
  157.8700  211.1020  153.8810 C   0  0  0  0  0  1  0  0  0  0  0  0
  160.4340  206.4380  155.0540 C   0  0  0  0  0  3  0  0  0  0  0  0
  160.1190  210.8880  152.8590 C   0  0  0  0  0  2  0  0  0  0  0  0
  159.7260  206.9480  156.1420 C   0  0  0  0  0  3  0  0  0  0  0  0
  162.6480  210.3330  154.6680 C   0  0  0  0  0  2  0  0  0  0  0  0
  162.3830  210.1610  153.2910 O   0  0  0  0  0  0  0  0  0  0  0  0
  160.5740  208.6670  154.0750 C   0  0  0  0  0  0  0  0  0  0  0  0
  159.5130  212.7490  154.2320 O   0  0  0  0  0  1  0  0  0  0  0  0
  159.9170  209.1750  155.2160 C   0  0  0  0  0  0  0  0  0  0  0  0
  159.7780  210.6570  155.3970 C   0  0  1  0  0  3  0  0  0  0  0  0
  159.4860  208.3180  156.2320 C   0  0  0  0  0  3  0  0  0  0  0  0
  160.8850  207.2860  154.0390 C   0  0  0  0  0  0  0  0  0  0  0  0
  1 24  1  0  0  0  0
  3  2  1  1  0  0  0
  3  1  1  0  0  0  0
  4  5  2  0  0  0  0
  4  3  1  0  0  0  0
  6  4  2  0  0  0  0
  7  4  1  0  0  0  0
  8 10  1  0  0  0  0
 10  9  2  0  0  0  0
 10  7  1  0  0  0  0
 11  8  1  0  0  0  0
 12 11  1  0  0  0  0
 13 12  1  0  0  0  0
 15 16  1  0  0  0  0
 16 14  1  6  0  0  0
 16 17  1  0  0  0  0
 16 13  1  0  0  0  0
 17 18  1  6  0  0  0
 19 20  2  0  0  0  0
 20 22  1  0  0  0  0
 20 17  1  0  0  0  0
 21 22  1  0  0  0  0
 22 23  2  0  0  0  0
 24 26  1  0  0  0  0
 26 25  1  0  0  0  0
 27 26  2  0  0  0  0
 28 25  1  6  0  0  0
 28 38  1  0  0  0  0
 28 39  1  0  0  0  0
 29 44  1  0  0  0  0
 30 31  1  0  0  0  0
 32 33  1  6  0  0  0
 32 40  1  0  0  0  0
 32 42  1  0  0  0  0
 34 36  1  0  0  0  0
 35 28  1  0  0  0  0
 35 32  1  0  0  0  0
 36 43  2  0  0  0  0
 37 30  1  0  0  0  0
 38 37  1  0  0  0  0
 39 41  2  0  0  0  0
 41 43  1  0  0  0  0
 42 41  1  6  0  0  0
 42 31  1  0  0  0  0
 44 39  1  0  0  0  0
 44 34  2  0  0  0  0
M  END
>  <MODEL>
3

>  <REMARK>
 VINA RESULT:      -5.4      3.812      5.911
  Name = 
  14 active torsions:
  status: ('A' for Active; 'I' for Inactive)
    1  A    between atoms: C_1  and  S_20
    2  A    between atoms: C_1  and  C_28
    3  A    between atoms: S_3  and  C_12
    4  A    between atoms: S_3  and  C_41
    5  A    between atoms: C_5  and  N_13
    6  A    between atoms: C_6  and  C_23
    7  A    between atoms: C_10  and  N_15
    8  A    between atoms: C_10  and  S_20
    9  A    between atoms: C_12  and  C_32
   10  A    between atoms: C_23  and  C_26
   11  A    between atoms: C_24  and  C_41
   12  A    between atoms: C_24  and  C_43
   13  A    between atoms: C_26  and  C_28
   14  A    between atoms: C_37  and  C_43
                            x       y       z     vdW  Elec       q    Type
                         _______ _______ _______ _____ _____    ______ ____

>  <TORSDO>
F 14

$$$$
=
 OpenBabel11072413413D

 44 46  0  0  1  0  0  0  0  0999 V2000
  160.4330  212.3980  144.6140 C   0  0  0  0  0  2  0  0  0  0  0  0
  162.6630  213.3500  144.8660 O   0  0  0  0  0  1  0  0  0  0  0  0
  161.3600  213.3510  145.3710 C   0  0  2  0  0  3  0  0  0  0  0  0
  161.3630  213.0160  147.1270 S   0  0  0  0  0  0  0  0  0  0  0  0
  159.9780  213.2360  147.6700 O   0  0  0  0  0  0  0  0  0  0  0  0
  162.3150  213.9450  147.8270 O   0  0  0  0  0  0  0  0  0  0  0  0
  161.8630  211.3310  147.4700 C   0  0  0  0  0  2  0  0  0  0  0  0
  161.9390  209.6000  149.2950 N   0  0  0  0  0  2  0  0  0  0  0  0
  161.7630  211.8670  149.8140 O   0  0  0  0  0  0  0  0  0  0  0  0
  161.8430  210.9750  148.9250 C   0  0  0  0  0  0  0  0  0  0  0  0
  161.8550  209.1670  150.6810 C   0  0  0  0  0  2  0  0  0  0  0  0
  161.5930  207.3680  150.7610 S   0  0  0  0  0  0  0  0  0  0  0  0
  162.3130  207.0760  149.1090 C   0  0  0  0  0  2  0  0  0  0  0  0
  161.3520  206.9860  146.8140 C   0  0  0  0  0  1  0  0  0  0  0  0
  160.1000  206.2600  148.7050 O   0  0  0  0  0  1  0  0  0  0  0  0
  161.3900  206.2950  148.1700 C   0  0  2  0  0  0  0  0  0  0  0  0
  161.9350  204.8590  148.0090 C   0  0  1  0  0  3  0  0  0  0  0  0
  161.0550  203.8070  148.6790 C   0  0  0  0  0  1  0  0  0  0  0  0
  163.5010  204.5840  146.1220 C   0  0  0  0  0  2  0  0  0  0  0  0
  162.2580  204.4720  146.5850 C   0  0  0  0  0  0  0  0  0  0  0  0
  161.0660  202.5300  145.5090 N   0  0  0  0  0  1  0  0  0  0  0  0
  161.1940  203.9350  145.7180 C   0  0  0  0  0  0  0  0  0  0  0  0
  160.3840  204.7160  145.1520 O   0  0  0  0  0  0  0  0  0  0  0  0
  160.4090  212.5610  143.0960 C   0  0  0  0  0  2  0  0  0  0  0  0
  159.0850  213.7540  141.2460 N   0  0  0  0  0  2  0  0  0  0  0  0
  159.3150  213.4690  142.6350 C   0  0  0  0  0  0  0  0  0  0  0  0
  158.5470  213.9770  143.4930 O   0  0  0  0  0  0  0  0  0  0  0  0
  159.9010  213.3670  140.0910 C   0  0  2  0  0  0  0  0  0  0  0  0
  157.0470  212.4930  140.0040 O   0  0  0  0  0  1  0  0  0  0  0  0
  161.5940  213.8410  137.6270 C   0  0  0  0  0  2  0  0  0  0  0  0
  161.8710  212.4730  137.4110 O   0  0  0  0  0  0  0  0  0  0  0  0
  162.3270  212.3110  139.8900 C   0  0  1  0  0  0  0  0  0  0  0  0
  162.6730  211.1760  140.8300 C   0  0  0  0  0  1  0  0  0  0  0  0
  157.6380  210.4690  138.8680 C   0  0  0  0  0  3  0  0  0  0  0  0
  161.3590  213.2670  140.6130 C   0  0  0  0  0  2  0  0  0  0  0  0
  158.5760  209.6480  138.2430 C   0  0  0  0  0  3  0  0  0  0  0  0
  160.1050  214.0830  137.8310 C   0  0  0  0  0  2  0  0  0  0  0  0
  159.8300  214.4530  139.1660 O   0  0  0  0  0  0  0  0  0  0  0  0
  159.3970  212.0390  139.4900 C   0  0  0  0  0  0  0  0  0  0  0  0
  163.5060  212.9970  139.5960 O   0  0  0  0  0  1  0  0  0  0  0  0
  160.3210  211.2310  138.7940 C   0  0  0  0  0  0  0  0  0  0  0  0
  161.7300  211.7080  138.6020 C   0  0  1  0  0  3  0  0  0  0  0  0
  159.9130  210.0400  138.1880 C   0  0  0  0  0  3  0  0  0  0  0  0
  158.0290  211.6710  139.4630 C   0  0  0  0  0  0  0  0  0  0  0  0
  1  3  1  0  0  0  0
  3  2  1  6  0  0  0
  3  4  1  0  0  0  0
  4  7  1  0  0  0  0
  4  5  2  0  0  0  0
  4  6  2  0  0  0  0
  7 10  1  0  0  0  0
  8 11  1  0  0  0  0
 10  8  1  0  0  0  0
 10  9  2  0  0  0  0
 11 12  1  0  0  0  0
 13 12  1  0  0  0  0
 16 14  1  6  0  0  0
 16 15  1  0  0  0  0
 16 13  1  0  0  0  0
 17 16  1  0  0  0  0
 17 18  1  6  0  0  0
 19 20  2  0  0  0  0
 20 17  1  0  0  0  0
 21 22  1  0  0  0  0
 22 20  1  0  0  0  0
 23 22  2  0  0  0  0
 24  1  1  0  0  0  0
 25 26  1  0  0  0  0
 26 24  1  0  0  0  0
 26 27  2  0  0  0  0
 28 35  1  0  0  0  0
 28 25  1  1  0  0  0
 30 37  1  0  0  0  0
 31 30  1  0  0  0  0
 32 35  1  0  0  0  0
 32 33  1  1  0  0  0
 34 44  1  0  0  0  0
 36 34  2  0  0  0  0
 37 38  1  0  0  0  0
 38 28  1  0  0  0  0
 39 28  1  0  0  0  0
 40 32  1  0  0  0  0
 41 39  1  0  0  0  0
 42 31  1  6  0  0  0
 42 41  1  0  0  0  0
 42 32  1  0  0  0  0
 43 36  1  0  0  0  0
 43 41  2  0  0  0  0
 44 39  2  0  0  0  0
 44 29  1  0  0  0  0
M  END
>  <MODEL>
4

>  <REMARK>
 VINA RESULT:      -5.2      2.153      9.568
  Name = 
  14 active torsions:
  status: ('A' for Active; 'I' for Inactive)
    1  A    between atoms: C_1  and  S_20
    2  A    between atoms: C_1  and  C_28
    3  A    between atoms: S_3  and  C_12
    4  A    between atoms: S_3  and  C_41
    5  A    between atoms: C_5  and  N_13
    6  A    between atoms: C_6  and  C_23
    7  A    between atoms: C_10  and  N_15
    8  A    between atoms: C_10  and  S_20
    9  A    between atoms: C_12  and  C_32
   10  A    between atoms: C_23  and  C_26
   11  A    between atoms: C_24  and  C_41
   12  A    between atoms: C_24  and  C_43
   13  A    between atoms: C_26  and  C_28
   14  A    between atoms: C_37  and  C_43
                            x       y       z     vdW  Elec       q    Type
                         _______ _______ _______ _____ _____    ______ ____

>  <TORSDO>
F 14

$$$$
=
 OpenBabel11072413413D

 44 46  0  0  1  0  0  0  0  0999 V2000
  161.9480  209.2960  150.0870 C   0  0  0  0  0  2  0  0  0  0  0  0
  162.9860  209.2770  147.8820 O   0  0  0  0  0  1  0  0  0  0  0  0
  161.9280  209.7880  148.6390 C   0  0  2  0  0  3  0  0  0  0  0  0
  161.8910  211.5730  148.5470 S   0  0  0  0  0  0  0  0  0  0  0  0
  163.1500  212.0550  147.8790 O   0  0  0  0  0  0  0  0  0  0  0  0
  161.8180  212.1590  149.9290 O   0  0  0  0  0  0  0  0  0  0  0  0
  160.4770  212.1510  147.6120 C   0  0  0  0  0  2  0  0  0  0  0  0
  161.6450  213.8390  146.1570 N   0  0  0  0  0  2  0  0  0  0  0  0
  160.4130  212.1000  145.2060 O   0  0  0  0  0  0  0  0  0  0  0  0
  160.8210  212.6770  146.2520 C   0  0  0  0  0  0  0  0  0  0  0  0
  161.9660  214.4530  144.8770 C   0  0  0  0  0  2  0  0  0  0  0  0
  163.3440  213.5660  144.0850 S   0  0  0  0  0  0  0  0  0  0  0  0
  162.9690  214.2320  142.4280 C   0  0  0  0  0  2  0  0  0  0  0  0
  160.6040  213.8150  141.7720 C   0  0  0  0  0  1  0  0  0  0  0  0
  162.1400  212.0170  142.0570 O   0  0  0  0  0  1  0  0  0  0  0  0
  162.0390  213.3350  141.6050 C   0  0  2  0  0  0  0  0  0  0  0  0
  162.4480  213.4170  140.1190 C   0  0  1  0  0  3  0  0  0  0  0  0
  163.7140  214.2400  139.8910 C   0  0  0  0  0  1  0  0  0  0  0  0
  163.7220  211.5520  139.1250 C   0  0  0  0  0  2  0  0  0  0  0  0
  162.5360  212.0790  139.4230 C   0  0  0  0  0  0  0  0  0  0  0  0
  161.1640  209.9660  139.4620 N   0  0  0  0  0  1  0  0  0  0  0  0
  161.3000  211.3410  139.1070 C   0  0  0  0  0  0  0  0  0  0  0  0
  160.3500  211.9200  138.5180 O   0  0  0  0  0  0  0  0  0  0  0  0
  161.1510  208.0240  150.3680 C   0  0  0  0  0  2  0  0  0  0  0  0
  162.3100  205.7780  149.9100 N   0  0  0  0  0  2  0  0  0  0  0  0
  162.0220  206.8820  150.7820 C   0  0  0  0  0  0  0  0  0  0  0  0
  162.5480  206.9050  151.9250 O   0  0  0  0  0  0  0  0  0  0  0  0
  161.7370  205.4860  148.5920 C   0  0  2  0  0  0  0  0  0  0  0  0
  160.6390  203.8810  150.8580 O   0  0  0  0  0  1  0  0  0  0  0  0
  160.1980  206.0950  146.0580 C   0  0  0  0  0  2  0  0  0  0  0  0
  160.4390  204.8340  145.4680 O   0  0  0  0  0  0  0  0  0  0  0  0
  162.8390  205.0980  146.2100 C   0  0  1  0  0  0  0  0  0  0  0  0
  164.0700  204.2170  146.1470 C   0  0  0  0  0  1  0  0  0  0  0  0
  160.3610  201.9650  149.4460 C   0  0  0  0  0  3  0  0  0  0  0  0
  162.8400  205.8410  147.5600 C   0  0  0  0  0  2  0  0  0  0  0  0
  160.4030  201.3560  148.1930 C   0  0  0  0  0  3  0  0  0  0  0  0
  159.6840  205.9550  147.4830 C   0  0  0  0  0  2  0  0  0  0  0  0
  160.6500  206.3960  148.4160 O   0  0  0  0  0  0  0  0  0  0  0  0
  161.2990  204.0100  148.5040 C   0  0  0  0  0  0  0  0  0  0  0  0
  162.9300  206.0330  145.1780 O   0  0  0  0  0  1  0  0  0  0  0  0
  161.2690  203.4000  147.2320 C   0  0  0  0  0  0  0  0  0  0  0  0
  161.5960  204.2080  146.0120 C   0  0  1  0  0  3  0  0  0  0  0  0
  160.8380  202.0790  147.0840 C   0  0  0  0  0  3  0  0  0  0  0  0
  160.7750  203.2910  149.6060 C   0  0  0  0  0  0  0  0  0  0  0  0
  1 24  1  0  0  0  0
  3  2  1  6  0  0  0
  3  1  1  0  0  0  0
  4  3  1  0  0  0  0
  4  6  2  0  0  0  0
  5  4  2  0  0  0  0
  7  4  1  0  0  0  0
  8 10  1  0  0  0  0
  9 10  2  0  0  0  0
 10  7  1  0  0  0  0
 11  8  1  0  0  0  0
 12 11  1  0  0  0  0
 13 12  1  0  0  0  0
 16 14  1  1  0  0  0
 16 15  1  0  0  0  0
 16 13  1  0  0  0  0
 17 18  1  1  0  0  0
 17 16  1  0  0  0  0
 19 20  2  0  0  0  0
 20 17  1  0  0  0  0
 22 20  1  0  0  0  0
 22 21  1  0  0  0  0
 23 22  2  0  0  0  0
 24 26  1  0  0  0  0
 25 26  1  0  0  0  0
 26 27  2  0  0  0  0
 28 25  1  1  0  0  0
 30 37  1  0  0  0  0
 31 30  1  0  0  0  0
 32 33  1  6  0  0  0
 32 35  1  0  0  0  0
 34 44  1  0  0  0  0
 35 28  1  0  0  0  0
 36 34  2  0  0  0  0
 37 38  1  0  0  0  0
 38 28  1  0  0  0  0
 39 28  1  0  0  0  0
 39 44  2  0  0  0  0
 40 32  1  0  0  0  0
 41 39  1  0  0  0  0
 42 31  1  1  0  0  0
 42 32  1  0  0  0  0
 42 41  1  0  0  0  0
 43 41  2  0  0  0  0
 43 36  1  0  0  0  0
 44 29  1  0  0  0  0
M  END
>  <MODEL>
5

>  <REMARK>
 VINA RESULT:      -5.0      1.714      2.560
  Name = 
  14 active torsions:
  status: ('A' for Active; 'I' for Inactive)
    1  A    between atoms: C_1  and  S_20
    2  A    between atoms: C_1  and  C_28
    3  A    between atoms: S_3  and  C_12
    4  A    between atoms: S_3  and  C_41
    5  A    between atoms: C_5  and  N_13
    6  A    between atoms: C_6  and  C_23
    7  A    between atoms: C_10  and  N_15
    8  A    between atoms: C_10  and  S_20
    9  A    between atoms: C_12  and  C_32
   10  A    between atoms: C_23  and  C_26
   11  A    between atoms: C_24  and  C_41
   12  A    between atoms: C_24  and  C_43
   13  A    between atoms: C_26  and  C_28
   14  A    between atoms: C_37  and  C_43
                            x       y       z     vdW  Elec       q    Type
                         _______ _______ _______ _____ _____    ______ ____

>  <TORSDO>
F 14

$$$$
=
 OpenBabel11072413413D

 44 46  0  0  1  0  0  0  0  0999 V2000
  161.7980  207.7900  151.4340 C   0  0  0  0  0  2  0  0  0  0  0  0
  163.6070  206.1670  151.2610 O   0  0  0  0  0  1  0  0  0  0  0  0
  162.4340  206.4960  151.9450 C   0  0  2  0  0  3  0  0  0  0  0  0
  161.2790  205.1320  151.9090 S   0  0  0  0  0  0  0  0  0  0  0  0
  160.0920  205.5170  151.0700 O   0  0  0  0  0  0  0  0  0  0  0  0
  160.8110  204.8170  153.3020 O   0  0  0  0  0  0  0  0  0  0  0  0
  162.0280  203.6590  151.2180 C   0  0  0  0  0  2  0  0  0  0  0  0
  161.2500  202.3440  149.2180 N   0  0  0  0  0  2  0  0  0  0  0  0
  160.0750  202.2520  151.2320 O   0  0  0  0  0  0  0  0  0  0  0  0
  161.0490  202.7210  150.5810 C   0  0  0  0  0  0  0  0  0  0  0  0
  160.3060  201.4950  148.5070 C   0  0  0  0  0  2  0  0  0  0  0  0
  160.4670  201.7480  146.7120 S   0  0  0  0  0  0  0  0  0  0  0  0
  161.3240  203.3490  146.9000 C   0  0  0  0  0  2  0  0  0  0  0  0
  160.4540  203.6820  144.5910 C   0  0  0  0  0  1  0  0  0  0  0  0
  162.7900  203.7320  145.0470 O   0  0  0  0  0  1  0  0  0  0  0  0
  161.5450  204.0830  145.5740 C   0  0  2  0  0  0  0  0  0  0  0  0
  161.4880  205.6050  145.8270 C   0  0  1  0  0  3  0  0  0  0  0  0
  160.1200  206.2100  145.5250 C   0  0  0  0  0  1  0  0  0  0  0  0
  163.1520  205.5920  147.6490 C   0  0  0  0  0  2  0  0  0  0  0  0
  161.9810  206.0270  147.1910 C   0  0  0  0  0  0  0  0  0  0  0  0
  161.6080  208.2960  148.2250 N   0  0  0  0  0  1  0  0  0  0  0  0
  161.1720  206.9560  148.0020 C   0  0  0  0  0  0  0  0  0  0  0  0
  160.0830  206.5720  148.5060 O   0  0  0  0  0  0  0  0  0  0  0  0
  162.4990  209.0830  151.8450 C   0  0  0  0  0  2  0  0  0  0  0  0
  160.8230  210.7660  152.8230 N   0  0  0  0  0  2  0  0  0  0  0  0
  161.6110  210.2800  151.7260 C   0  0  0  0  0  0  0  0  0  0  0  0
  161.5790  210.9030  150.6330 O   0  0  0  0  0  0  0  0  0  0  0  0
  160.6220  210.1530  154.1410 C   0  0  2  0  0  0  0  0  0  0  0  0
  158.1520  211.1560  152.7950 O   0  0  0  0  0  1  0  0  0  0  0  0
  160.6420  207.9080  156.1700 C   0  0  0  0  0  2  0  0  0  0  0  0
  160.2140  208.7180  157.2450 O   0  0  0  0  0  0  0  0  0  0  0  0
  161.8960  210.4260  156.4520 C   0  0  1  0  0  0  0  0  0  0  0  0
  162.2630  211.8300  156.8840 C   0  0  0  0  0  1  0  0  0  0  0  0
  157.1880  211.7830  154.8970 C   0  0  0  0  0  3  0  0  0  0  0  0
  161.9520  210.3580  154.9130 C   0  0  0  0  0  2  0  0  0  0  0  0
  157.2170  211.8220  156.2900 C   0  0  0  0  0  3  0  0  0  0  0  0
  159.7540  208.0890  154.9470 C   0  0  0  0  0  2  0  0  0  0  0  0
  160.4480  208.7540  153.9110 O   0  0  0  0  0  0  0  0  0  0  0  0
  159.4170  210.7930  154.8600 C   0  0  0  0  0  0  0  0  0  0  0  0
  162.8500  209.5540  156.9780 O   0  0  0  0  0  1  0  0  0  0  0  0
  159.3990  210.7780  156.2700 C   0  0  0  0  0  0  0  0  0  0  0  0
  160.5020  210.0930  157.0200 C   0  0  1  0  0  3  0  0  0  0  0  0
  158.3130  211.3010  156.9760 C   0  0  0  0  0  3  0  0  0  0  0  0
  158.2610  211.2470  154.1790 C   0  0  0  0  0  0  0  0  0  0  0  0
  1 24  1  0  0  0  0
  1  3  1  0  0  0  0
  3  2  1  6  0  0  0
  4  3  1  0  0  0  0
  4  6  2  0  0  0  0
  5  4  2  0  0  0  0
  7  4  1  0  0  0  0
  8 10  1  0  0  0  0
 10  7  1  0  0  0  0
 10  9  2  0  0  0  0
 11  8  1  0  0  0  0
 12 13  1  0  0  0  0
 12 11  1  0  0  0  0
 15 16  1  0  0  0  0
 16 14  1  6  0  0  0
 16 17  1  0  0  0  0
 16 13  1  0  0  0  0
 17 18  1  1  0  0  0
 17 20  1  0  0  0  0
 20 19  2  0  0  0  0
 20 22  1  0  0  0  0
 22 21  1  0  0  0  0
 22 23  2  0  0  0  0
 26 24  1  0  0  0  0
 26 25  1  0  0  0  0
 27 26  2  0  0  0  0
 28 25  1  6  0  0  0
 28 39  1  0  0  0  0
 28 35  1  0  0  0  0
 29 44  1  0  0  0  0
 30 31  1  0  0  0  0
 32 33  1  1  0  0  0
 32 40  1  0  0  0  0
 32 42  1  0  0  0  0
 34 36  1  0  0  0  0
 35 32  1  0  0  0  0
 36 43  2  0  0  0  0
 37 30  1  0  0  0  0
 38 28  1  0  0  0  0
 38 37  1  0  0  0  0
 39 41  2  0  0  0  0
 41 43  1  0  0  0  0
 42 41  1  6  0  0  0
 42 31  1  0  0  0  0
 44 39  1  0  0  0  0
 44 34  2  0  0  0  0
M  END
>  <MODEL>
6

>  <REMARK>
 VINA RESULT:      -4.3      5.538      9.854
  Name = 
  14 active torsions:
  status: ('A' for Active; 'I' for Inactive)
    1  A    between atoms: C_1  and  S_20
    2  A    between atoms: C_1  and  C_28
    3  A    between atoms: S_3  and  C_12
    4  A    between atoms: S_3  and  C_41
    5  A    between atoms: C_5  and  N_13
    6  A    between atoms: C_6  and  C_23
    7  A    between atoms: C_10  and  N_15
    8  A    between atoms: C_10  and  S_20
    9  A    between atoms: C_12  and  C_32
   10  A    between atoms: C_23  and  C_26
   11  A    between atoms: C_24  and  C_41
   12  A    between atoms: C_24  and  C_43
   13  A    between atoms: C_26  and  C_28
   14  A    between atoms: C_37  and  C_43
                            x       y       z     vdW  Elec       q    Type
                         _______ _______ _______ _____ _____    ______ ____

>  <TORSDO>
F 14

$$$$
=
 OpenBabel11072413413D

 44 46  0  0  1  0  0  0  0  0999 V2000
  160.7750  206.8650  151.7810 C   0  0  0  0  0  2  0  0  0  0  0  0
  162.5130  208.1570  150.6620 O   0  0  0  0  0  1  0  0  0  0  0  0
  161.2690  208.2290  151.2940 C   0  0  2  0  0  3  0  0  0  0  0  0
  161.3000  209.4320  152.6150 S   0  0  0  0  0  0  0  0  0  0  0  0
  160.0790  210.3040  152.5120 O   0  0  0  0  0  0  0  0  0  0  0  0
  162.5270  210.2940  152.4980 O   0  0  0  0  0  0  0  0  0  0  0  0
  161.3180  208.6400  154.2210 C   0  0  0  0  0  2  0  0  0  0  0  0
  160.0990  209.6640  156.1710 N   0  0  0  0  0  2  0  0  0  0  0  0
  162.2770  210.3220  155.6510 O   0  0  0  0  0  0  0  0  0  0  0  0
  161.2810  209.5980  155.3720 C   0  0  0  0  0  0  0  0  0  0  0  0
  159.9580  210.6170  157.2600 C   0  0  0  0  0  2  0  0  0  0  0  0
  159.3970  212.2250  156.6170 S   0  0  0  0  0  0  0  0  0  0  0  0
  157.7020  212.0180  157.2610 C   0  0  0  0  0  2  0  0  0  0  0  0
  156.9930  214.2770  156.4900 C   0  0  0  0  0  1  0  0  0  0  0  0
  155.3910  212.6050  157.0450 O   0  0  0  0  0  1  0  0  0  0  0  0
  156.6480  212.7940  156.4660 C   0  0  2  0  0  0  0  0  0  0  0  0
  156.6410  212.2820  155.0090 C   0  0  1  0  0  3  0  0  0  0  0  0
  155.7860  211.0330  154.8180 C   0  0  0  0  0  1  0  0  0  0  0  0
  155.0750  213.8490  153.9210 C   0  0  0  0  0  2  0  0  0  0  0  0
  156.3020  213.3370  153.9810 C   0  0  0  0  0  0  0  0  0  0  0  0
  157.0810  213.9820  151.6730 N   0  0  0  0  0  1  0  0  0  0  0  0
  157.3490  213.8230  153.0650 C   0  0  0  0  0  0  0  0  0  0  0  0
  158.4950  214.1040  153.5050 O   0  0  0  0  0  0  0  0  0  0  0  0
  160.5100  205.8270  150.6940 C   0  0  0  0  0  2  0  0  0  0  0  0
  162.0830  204.2650  149.3950 N   0  0  0  0  0  2  0  0  0  0  0  0
  161.5700  204.7740  150.6360 C   0  0  0  0  0  0  0  0  0  0  0  0
  162.0530  204.3420  151.7140 O   0  0  0  0  0  0  0  0  0  0  0  0
  161.6080  204.5380  148.0340 C   0  0  2  0  0  0  0  0  0  0  0  0
  160.2370  202.2960  149.4520 O   0  0  0  0  0  1  0  0  0  0  0  0
  160.3260  206.1780  145.8380 C   0  0  0  0  0  2  0  0  0  0  0  0
  160.5470  205.2160  144.8280 O   0  0  0  0  0  0  0  0  0  0  0  0
  162.8860  204.9820  145.7510 C   0  0  1  0  0  0  0  0  0  0  0  0
  164.0670  204.0910  145.4290 C   0  0  0  0  0  1  0  0  0  0  0  0
  159.9760  201.0800  147.4040 C   0  0  0  0  0  3  0  0  0  0  0  0
  162.8130  205.1620  147.2800 C   0  0  0  0  0  2  0  0  0  0  0  0
  160.0900  200.9840  146.0180 C   0  0  0  0  0  3  0  0  0  0  0  0
  159.6860  205.5560  147.0710 C   0  0  0  0  0  2  0  0  0  0  0  0
  160.5910  205.5330  148.1550 O   0  0  0  0  0  0  0  0  0  0  0  0
  161.1000  203.2440  147.3660 C   0  0  0  0  0  0  0  0  0  0  0  0
  163.1150  206.2250  145.1600 O   0  0  0  0  0  1  0  0  0  0  0  0
  161.1450  203.1610  145.9580 C   0  0  0  0  0  0  0  0  0  0  0  0
  161.6170  204.3380  145.1580 C   0  0  1  0  0  3  0  0  0  0  0  0
  160.6560  202.0330  145.2940 C   0  0  0  0  0  3  0  0  0  0  0  0
  160.4460  202.2100  148.0790 C   0  0  0  0  0  0  0  0  0  0  0  0
  3  2  1  1  0  0  0
  3  1  1  0  0  0  0
  3  4  1  0  0  0  0
  4  7  1  0  0  0  0
  5  4  2  0  0  0  0
  6  4  2  0  0  0  0
  7 10  1  0  0  0  0
  8 11  1  0  0  0  0
 10  9  2  0  0  0  0
 10  8  1  0  0  0  0
 12 11  1  0  0  0  0
 12 13  1  0  0  0  0
 16 14  1  1  0  0  0
 16 15  1  0  0  0  0
 16 13  1  0  0  0  0
 17 18  1  1  0  0  0
 17 16  1  0  0  0  0
 19 20  2  0  0  0  0
 20 17  1  0  0  0  0
 21 22  1  0  0  0  0
 22 23  2  0  0  0  0
 22 20  1  0  0  0  0
 24  1  1  0  0  0  0
 25 26  1  0  0  0  0
 26 24  1  0  0  0  0
 26 27  2  0  0  0  0
 28 38  1  0  0  0  0
 28 25  1  1  0  0  0
 30 37  1  0  0  0  0
 31 30  1  0  0  0  0
 32 33  1  6  0  0  0
 32 35  1  0  0  0  0
 34 44  1  0  0  0  0
 35 28  1  0  0  0  0
 36 34  2  0  0  0  0
 37 38  1  0  0  0  0
 39 28  1  0  0  0  0
 39 44  2  0  0  0  0
 40 32  1  0  0  0  0
 41 39  1  0  0  0  0
 42 31  1  1  0  0  0
 42 32  1  0  0  0  0
 42 41  1  0  0  0  0
 43 41  2  0  0  0  0
 43 36  1  0  0  0  0
 44 29  1  0  0  0  0
M  END
>  <MODEL>
7

>  <REMARK>
 VINA RESULT:      -3.8      5.669      9.841
  Name = 
  14 active torsions:
  status: ('A' for Active; 'I' for Inactive)
    1  A    between atoms: C_1  and  S_20
    2  A    between atoms: C_1  and  C_28
    3  A    between atoms: S_3  and  C_12
    4  A    between atoms: S_3  and  C_41
    5  A    between atoms: C_5  and  N_13
    6  A    between atoms: C_6  and  C_23
    7  A    between atoms: C_10  and  N_15
    8  A    between atoms: C_10  and  S_20
    9  A    between atoms: C_12  and  C_32
   10  A    between atoms: C_23  and  C_26
   11  A    between atoms: C_24  and  C_41
   12  A    between atoms: C_24  and  C_43
   13  A    between atoms: C_26  and  C_28
   14  A    between atoms: C_37  and  C_43
                            x       y       z     vdW  Elec       q    Type
                         _______ _______ _______ _____ _____    ______ ____

>  <TORSDO>
F 14

$$$$
=
 OpenBabel11072413413D

 44 46  0  0  1  0  0  0  0  0999 V2000
  161.9610  208.6760  150.2570 C   0  0  0  0  0  2  0  0  0  0  0  0
  162.6840  208.7340  147.9300 O   0  0  0  0  0  1  0  0  0  0  0  0
  161.8710  209.3490  148.8870 C   0  0  2  0  0  3  0  0  0  0  0  0
  162.2250  211.0980  148.9840 S   0  0  0  0  0  0  0  0  0  0  0  0
  163.4040  211.4090  148.1040 O   0  0  0  0  0  0  0  0  0  0  0  0
  162.5590  211.4790  150.4000 O   0  0  0  0  0  0  0  0  0  0  0  0
  160.8240  212.0790  148.4510 C   0  0  0  0  0  2  0  0  0  0  0  0
  159.7540  213.2520  150.4040 N   0  0  0  0  0  2  0  0  0  0  0  0
  161.1800  214.4050  148.9610 O   0  0  0  0  0  0  0  0  0  0  0  0
  160.6080  213.3210  149.2610 C   0  0  0  0  0  0  0  0  0  0  0  0
  159.4370  214.4270  151.2000 C   0  0  0  0  0  2  0  0  0  0  0  0
  157.7170  214.3400  151.7890 S   0  0  0  0  0  0  0  0  0  0  0  0
  158.2050  213.9770  153.5100 C   0  0  0  0  0  2  0  0  0  0  0  0
  157.9340  211.5040  153.4100 C   0  0  0  0  0  1  0  0  0  0  0  0
  156.0960  212.9260  153.9300 O   0  0  0  0  0  1  0  0  0  0  0  0
  157.4730  212.7740  154.1120 C   0  0  2  0  0  0  0  0  0  0  0  0
  157.8020  212.6880  155.6180 C   0  0  1  0  0  3  0  0  0  0  0  0
  157.1720  211.4760  156.2990 C   0  0  0  0  0  1  0  0  0  0  0  0
  159.7760  213.9080  156.4570 C   0  0  0  0  0  2  0  0  0  0  0  0
  159.2750  212.7890  155.9390 C   0  0  0  0  0  0  0  0  0  0  0  0
  160.8340  211.4660  154.4670 N   0  0  0  0  0  1  0  0  0  0  0  0
  160.1510  211.6260  155.7090 C   0  0  0  0  0  0  0  0  0  0  0  0
  160.3070  210.7620  156.6120 O   0  0  0  0  0  0  0  0  0  0  0  0
  161.0550  207.4640  150.4630 C   0  0  0  0  0  2  0  0  0  0  0  0
  162.0960  205.2020  149.8320 N   0  0  0  0  0  2  0  0  0  0  0  0
  161.8210  206.2260  150.8010 C   0  0  0  0  0  0  0  0  0  0  0  0
  162.2700  206.0910  151.9690 O   0  0  0  0  0  0  0  0  0  0  0  0
  161.5950  205.0920  148.4580 C   0  0  2  0  0  0  0  0  0  0  0  0
  160.4460  203.1440  150.4080 O   0  0  0  0  0  1  0  0  0  0  0  0
  160.1570  206.0270  145.9640 C   0  0  0  0  0  2  0  0  0  0  0  0
  160.4670  204.8720  145.2100 O   0  0  0  0  0  0  0  0  0  0  0  0
  162.8200  205.0860  146.1040 C   0  0  1  0  0  0  0  0  0  0  0  0
  164.0800  204.2560  145.9770 C   0  0  0  0  0  1  0  0  0  0  0  0
  160.2980  201.4500  148.7210 C   0  0  0  0  0  3  0  0  0  0  0  0
  162.7330  205.6230  147.5450 C   0  0  0  0  0  2  0  0  0  0  0  0
  160.4180  201.0320  147.3960 C   0  0  0  0  0  3  0  0  0  0  0  0
  159.5820  205.6650  147.3260 C   0  0  0  0  0  2  0  0  0  0  0  0
  160.4880  205.9900  148.3610 O   0  0  0  0  0  0  0  0  0  0  0  0
  161.2100  203.6340  148.1340 C   0  0  0  0  0  0  0  0  0  0  0  0
  162.9280  206.1640  145.2250 O   0  0  0  0  0  1  0  0  0  0  0  0
  161.2610  203.2170  146.7870 C   0  0  0  0  0  0  0  0  0  0  0  0
  161.6170  204.2030  145.7160 C   0  0  1  0  0  3  0  0  0  0  0  0
  160.8800  201.9220  146.4270 C   0  0  0  0  0  3  0  0  0  0  0  0
  160.6600  202.7480  149.0920 C   0  0  0  0  0  0  0  0  0  0  0  0
  1 24  1  0  0  0  0
  3  2  1  6  0  0  0
  3  4  1  0  0  0  0
  3  1  1  0  0  0  0
  4  6  2  0  0  0  0
  5  4  2  0  0  0  0
  7  4  1  0  0  0  0
  7 10  1  0  0  0  0
  8 11  1  0  0  0  0
  9 10  2  0  0  0  0
 10  8  1  0  0  0  0
 11 12  1  0  0  0  0
 12 13  1  0  0  0  0
 13 16  1  0  0  0  0
 15 16  1  0  0  0  0
 16 14  1  6  0  0  0
 16 17  1  0  0  0  0
 17 20  1  0  0  0  0
 17 18  1  6  0  0  0
 20 19  2  0  0  0  0
 21 22  1  0  0  0  0
 22 20  1  0  0  0  0
 22 23  2  0  0  0  0
 24 26  1  0  0  0  0
 25 26  1  0  0  0  0
 26 27  2  0  0  0  0
 28 25  1  1  0  0  0
 30 37  1  0  0  0  0
 31 30  1  0  0  0  0
 32 33  1  6  0  0  0
 32 35  1  0  0  0  0
 34 44  1  0  0  0  0
 35 28  1  0  0  0  0
 36 34  2  0  0  0  0
 37 38  1  0  0  0  0
 38 28  1  0  0  0  0
 39 28  1  0  0  0  0
 39 44  2  0  0  0  0
 40 32  1  0  0  0  0
 41 39  1  0  0  0  0
 42 31  1  1  0  0  0
 42 32  1  0  0  0  0
 42 41  1  0  0  0  0
 43 41  2  0  0  0  0
 43 36  1  0  0  0  0
 44 29  1  0  0  0  0
M  END
>  <MODEL>
8

>  <REMARK>
 VINA RESULT:      -3.8      4.882      8.671
  Name = 
  14 active torsions:
  status: ('A' for Active; 'I' for Inactive)
    1  A    between atoms: C_1  and  S_20
    2  A    between atoms: C_1  and  C_28
    3  A    between atoms: S_3  and  C_12
    4  A    between atoms: S_3  and  C_41
    5  A    between atoms: C_5  and  N_13
    6  A    between atoms: C_6  and  C_23
    7  A    between atoms: C_10  and  N_15
    8  A    between atoms: C_10  and  S_20
    9  A    between atoms: C_12  and  C_32
   10  A    between atoms: C_23  and  C_26
   11  A    between atoms: C_24  and  C_41
   12  A    between atoms: C_24  and  C_43
   13  A    between atoms: C_26  and  C_28
   14  A    between atoms: C_37  and  C_43
                            x       y       z     vdW  Elec       q    Type
                         _______ _______ _______ _____ _____    ______ ____

>  <TORSDO>
F 14

$$$$
=
 OpenBabel11072413413D

 44 46  0  0  1  0  0  0  0  0999 V2000
  161.6950  208.5650  150.9440 C   0  0  0  0  0  2  0  0  0  0  0  0
  162.6930  206.7760  149.6240 O   0  0  0  0  0  1  0  0  0  0  0  0
  162.6440  207.3670  150.8900 C   0  0  2  0  0  3  0  0  0  0  0  0
  162.2460  206.1510  152.1380 S   0  0  0  0  0  0  0  0  0  0  0  0
  162.3030  206.8030  153.4920 O   0  0  0  0  0  0  0  0  0  0  0  0
  163.2410  205.0250  152.0970 O   0  0  0  0  0  0  0  0  0  0  0  0
  160.6090  205.4680  151.8880 C   0  0  0  0  0  2  0  0  0  0  0  0
  160.8050  203.7210  150.0860 N   0  0  0  0  0  2  0  0  0  0  0  0
  160.4610  203.1020  152.3100 O   0  0  0  0  0  0  0  0  0  0  0  0
  160.6090  204.0300  151.4670 C   0  0  0  0  0  0  0  0  0  0  0  0
  160.7470  202.3560  149.5870 C   0  0  0  0  0  2  0  0  0  0  0  0
  161.0650  202.3310  147.7950 S   0  0  0  0  0  0  0  0  0  0  0  0
  162.3060  203.6660  147.8820 C   0  0  0  0  0  2  0  0  0  0  0  0
  163.0200  203.8440  145.5040 C   0  0  0  0  0  1  0  0  0  0  0  0
  163.0110  205.7480  146.9340 O   0  0  0  0  0  1  0  0  0  0  0  0
  162.3200  204.5690  146.6450 C   0  0  2  0  0  0  0  0  0  0  0  0
  160.8650  204.8930  146.2440 C   0  0  1  0  0  3  0  0  0  0  0  0
  160.4450  206.3130  146.6130 C   0  0  0  0  0  1  0  0  0  0  0  0
  161.0320  205.3340  143.8220 C   0  0  0  0  0  2  0  0  0  0  0  0
  160.5340  204.5850  144.8030 C   0  0  0  0  0  0  0  0  0  0  0  0
  160.1300  202.0970  144.7520 N   0  0  0  0  0  1  0  0  0  0  0  0
  159.6820  203.4250  144.4830 C   0  0  0  0  0  0  0  0  0  0  0  0
  158.5450  203.5960  143.9690 O   0  0  0  0  0  0  0  0  0  0  0  0
  162.1690  209.7510  151.7810 C   0  0  0  0  0  2  0  0  0  0  0  0
  160.5820  211.5800  152.6380 N   0  0  0  0  0  2  0  0  0  0  0  0
  161.3290  210.9710  151.5740 C   0  0  0  0  0  0  0  0  0  0  0  0
  161.3030  211.5010  150.4330 O   0  0  0  0  0  0  0  0  0  0  0  0
  160.3800  211.0900  154.0050 C   0  0  2  0  0  0  0  0  0  0  0  0
  158.8370  213.5390  153.2740 O   0  0  0  0  0  1  0  0  0  0  0  0
  159.5020  209.1160  156.1250 C   0  0  0  0  0  2  0  0  0  0  0  0
  159.9570  209.8990  157.2100 O   0  0  0  0  0  0  0  0  0  0  0  0
  162.0710  210.2710  155.8790 C   0  0  1  0  0  0  0  0  0  0  0  0
  163.3250  211.0930  156.0920 C   0  0  0  0  0  1  0  0  0  0  0  0
  159.0360  214.4030  155.5000 C   0  0  0  0  0  3  0  0  0  0  0  0
  161.6870  210.3450  154.3880 C   0  0  0  0  0  2  0  0  0  0  0  0
  159.4290  214.2690  156.8310 C   0  0  0  0  0  3  0  0  0  0  0  0
  158.6520  209.9350  155.1640 C   0  0  0  0  0  2  0  0  0  0  0  0
  159.3230  210.1320  153.9360 O   0  0  0  0  0  0  0  0  0  0  0  0
  160.0640  212.2580  154.9610 C   0  0  0  0  0  0  0  0  0  0  0  0
  162.3670  208.9470  156.2050 O   0  0  0  0  0  1  0  0  0  0  0  0
  160.3930  212.1090  156.3250 C   0  0  0  0  0  0  0  0  0  0  0  0
  160.9710  210.8150  156.8130 C   0  0  1  0  0  3  0  0  0  0  0  0
  160.0890  213.1140  157.2460 C   0  0  0  0  0  3  0  0  0  0  0  0
  159.3190  213.3980  154.5710 C   0  0  0  0  0  0  0  0  0  0  0  0
  1 24  1  0  0  0  0
  3  2  1  6  0  0  0
  3  1  1  0  0  0  0
  3  4  1  0  0  0  0
  4  5  2  0  0  0  0
  6  4  2  0  0  0  0
  7  4  1  0  0  0  0
  8 10  1  0  0  0  0
 10  7  1  0  0  0  0
 10  9  2  0  0  0  0
 11  8  1  0  0  0  0
 12 13  1  0  0  0  0
 12 11  1  0  0  0  0
 16 14  1  6  0  0  0
 16 15  1  0  0  0  0
 16 13  1  0  0  0  0
 17 18  1  6  0  0  0
 17 16  1  0  0  0  0
 19 20  2  0  0  0  0
 20 17  1  0  0  0  0
 22 21  1  0  0  0  0
 22 20  1  0  0  0  0
 23 22  2  0  0  0  0
 26 24  1  0  0  0  0
 26 25  1  0  0  0  0
 27 26  2  0  0  0  0
 28 25  1  6  0  0  0
 28 35  1  0  0  0  0
 28 39  1  0  0  0  0
 29 44  1  0  0  0  0
 30 31  1  0  0  0  0
 32 33  1  1  0  0  0
 32 40  1  0  0  0  0
 32 42  1  0  0  0  0
 34 36  1  0  0  0  0
 35 32  1  0  0  0  0
 36 43  2  0  0  0  0
 37 30  1  0  0  0  0
 38 28  1  0  0  0  0
 38 37  1  0  0  0  0
 39 41  2  0  0  0  0
 41 43  1  0  0  0  0
 42 41  1  6  0  0  0
 42 31  1  0  0  0  0
 44 39  1  0  0  0  0
 44 34  2  0  0  0  0
M  END
>  <MODEL>
9

>  <REMARK>
 VINA RESULT:      -3.6      5.365      9.906
  Name = 
  14 active torsions:
  status: ('A' for Active; 'I' for Inactive)
    1  A    between atoms: C_1  and  S_20
    2  A    between atoms: C_1  and  C_28
    3  A    between atoms: S_3  and  C_12
    4  A    between atoms: S_3  and  C_41
    5  A    between atoms: C_5  and  N_13
    6  A    between atoms: C_6  and  C_23
    7  A    between atoms: C_10  and  N_15
    8  A    between atoms: C_10  and  S_20
    9  A    between atoms: C_12  and  C_32
   10  A    between atoms: C_23  and  C_26
   11  A    between atoms: C_24  and  C_41
   12  A    between atoms: C_24  and  C_43
   13  A    between atoms: C_26  and  C_28
   14  A    between atoms: C_37  and  C_43
                            x       y       z     vdW  Elec       q    Type
                         _______ _______ _______ _____ _____    ______ ____

>  <TORSDO>
F 14

$$$$
