=
 OpenBabel11072414043D

 62 73  0  0  1  0  0  0  0  0999 V2000
  160.9070  212.0500  149.6210 C   0  0  0  0  0  2  0  0  0  0  0  0
  161.6490  206.8970  150.1410 C   0  0  0  0  0  0  0  0  0  0  0  0
  161.8440  209.0780  148.9560 C   0  0  1  0  0  3  0  0  0  0  0  0
  159.9320  213.9990  145.8420 C   0  0  2  0  0  3  0  0  0  0  0  0
  162.0050  209.7300  150.3660 C   0  0  2  0  0  3  0  0  0  0  0  0
  161.1640  209.0210  151.4400 C   0  0  1  0  0  3  0  0  0  0  0  0
  161.4040  212.1210  146.8970 C   0  0  2  0  0  0  0  0  0  0  0  0
  159.9970  213.1890  144.5470 C   0  0  2  0  0  3  0  0  0  0  0  0
  162.2860  211.3230  147.8570 C   0  0  2  0  0  3  0  0  0  0  0  0
  163.0160  213.4960  145.5880 C   0  0  0  0  0  2  0  0  0  0  0  0
  161.9010  211.2760  150.5350 C   0  0  0  0  0  2  0  0  0  0  0  0
  162.2520  213.4160  146.9270 C   0  0  1  0  0  3  0  0  0  0  0  0
  162.3490  214.2500  144.4510 C   0  0  0  0  0  2  0  0  0  0  0  0
  162.4630  209.8140  147.7410 C   0  0  0  0  0  2  0  0  0  0  0  0
  161.2780  213.3660  143.8230 C   0  0  2  0  0  0  0  0  0  0  0  0
  162.2880  207.6220  148.9890 C   0  0  0  0  0  2  0  0  0  0  0  0
  160.8520  211.4830  148.1980 C   0  0  1  0  0  3  0  0  0  0  0  0
  160.1300  214.0950  143.4680 O   0  0  0  0  0  0  0  0  0  0  0  0
  161.8780  205.7120  150.3060 O   0  0  0  0  0  0  0  0  0  0  0  0
  160.6910  207.6040  151.0630 C   0  0  0  0  0  2  0  0  0  0  0  0
  160.7620  213.5080  147.0620 C   0  0  1  0  0  3  0  0  0  0  0  0
  161.9380  208.9850  152.7520 C   0  0  0  0  0  2  0  0  0  0  0  0
  160.4140  207.1660  155.7890 C   0  0  0  0  0  2  0  0  0  0  0  0
  161.1610  207.3830  154.4640 C   0  0  0  0  0  2  0  0  0  0  0  0
  161.2980  209.3330  156.3880 O   0  0  0  0  0  0  0  0  0  0  0  0
  161.0090  208.8070  153.9430 C   0  0  1  0  0  3  0  0  0  0  0  0
  161.3490  209.8310  155.0560 C   0  0  1  0  0  3  0  0  0  0  0  0
  160.1820  208.4840  156.5300 C   0  0  0  0  0  2  0  0  0  0  0  0
  159.8870  211.5680  156.1800 C   0  0  0  0  0  2  0  0  0  0  0  0
  160.6150  211.1650  154.8890 C   0  0  2  0  0  3  0  0  0  0  0  0
  158.3830  211.3220  156.0800 C   0  0  0  0  0  2  0  0  0  0  0  0
  157.9410  212.3580  152.5580 F   0  0  0  0  0  0  0  0  0  0  0  0
  158.6890  212.3180  153.7220 C   0  0  2  0  0  3  0  0  0  0  0  0
  159.7400  211.2130  153.6300 C   0  0  0  0  0  2  0  0  0  0  0  0
  157.7520  212.1220  154.9240 C   0  0  2  0  0  3  0  0  0  0  0  0
  155.9510  213.5570  155.7370 O   0  0  0  0  0  0  0  0  0  0  0  0
  157.2790  213.4190  155.3940 N   0  0  0  0  0  0  0  0  0  0  0  0
  157.9680  214.4410  155.2020 O   0  0  0  0  0  0  0  0  0  0  0  0
  158.6030  214.4480  146.0830 O   0  0  0  0  0  0  0  0  0  0  0  0
  158.0190  213.9370  147.2730 C   0  0  1  0  0  0  0  0  0  0  0  0
  157.7860  211.9370  146.2380 O   0  0  0  0  0  0  0  0  0  0  0  0
  157.1680  212.6230  147.2870 C   0  0  0  0  0  0  0  0  0  0  0  0
  158.5850  214.4490  148.5970 C   0  0  0  0  0  1  0  0  0  0  0  0
  156.4870  212.0820  146.1930 O   0  0  0  0  0  0  0  0  0  0  0  0
  156.5500  214.0310  147.1570 C   0  0  1  0  0  3  0  0  0  0  0  0
  156.3950  213.4330  149.2770 C   0  0  0  0  0  1  0  0  0  0  0  0
  155.9190  214.3710  148.3600 O   0  0  0  0  0  0  0  0  0  0  0  0
  161.6240  212.3230  142.7570 C   0  0  2  0  0  3  0  0  0  0  0  0
  162.8890  212.6320  142.0720 N   0  0  0  0  0  0  0  0  0  0  0  0
  162.9310  211.8740  140.8260 C   0  0  0  0  0  2  0  0  0  0  0  0
  163.6610  212.7170  139.8150 C   0  0  0  0  0  2  0  0  0  0  0  0
  162.9800  214.0470  141.6990 C   0  0  0  0  0  2  0  0  0  0  0  0
  163.3640  214.1340  140.2370 C   0  0  0  0  0  2  0  0  0  0  0  0
  160.4460  212.0300  141.8130 C   0  0  0  0  0  2  0  0  0  0  0  0
  160.6320  210.6820  141.1380 C   0  0  0  0  0  2  0  0  0  0  0  0
  159.9940  210.6870  139.7860 C   0  0  0  0  0  0  0  0  0  0  0  0
  159.7540  211.8430  139.1870 C   0  0  0  0  0  2  0  0  0  0  0  0
  159.6260  209.4990  139.1470 O   0  0  0  0  0  0  0  0  0  0  0  0
  158.8290  209.4680  137.9700 C   0  0  0  0  0  2  0  0  0  0  0  0
  157.6850  210.4620  138.0820 C   0  0  0  0  0  3  0  0  0  0  0  0
  156.5310  209.8050  138.8080 C   0  0  0  0  0  2  0  0  0  0  0  0
  156.4930  209.9430  137.3010 C   0  0  0  0  0  2  0  0  0  0  0  0
  1 11  1  0  0  0  0
  2 19  2  0  0  0  0
  2 20  1  0  0  0  0
  3 14  1  6  0  0  0
  3 16  1  0  0  0  0
  3  5  1  0  0  0  0
  4 39  1  1  0  0  0
  4 21  1  0  0  0  0
  5 11  1  6  0  0  0
  5  6  1  0  0  0  0
  6 22  1  1  0  0  0
  7 12  1  0  0  0  0
  7 21  1  0  0  0  0
  7  9  1  0  0  0  0
  7 17  1  0  0  0  0
  8  4  1  0  0  0  0
  9 17  1  0  0  0  0
 10 12  1  0  0  0  0
 12 21  1  0  0  0  0
 13 10  1  0  0  0  0
 14  9  1  0  0  0  0
 15 13  1  0  0  0  0
 15  8  1  0  0  0  0
 16  2  1  0  0  0  0
 17  1  1  0  0  0  0
 18 15  1  0  0  0  0
 18  8  1  0  0  0  0
 20  6  1  0  0  0  0
 22 26  1  0  0  0  0
 23 28  1  0  0  0  0
 24 23  1  0  0  0  0
 25 28  1  0  0  0  0
 26 24  1  0  0  0  0
 26 27  1  0  0  0  0
 27 25  1  0  0  0  0
 30 27  1  0  0  0  0
 30 29  1  0  0  0  0
 31 29  1  0  0  0  0
 32 33  1  0  0  0  0
 33 35  1  0  0  0  0
 34 33  1  0  0  0  0
 34 30  1  0  0  0  0
 35 37  1  0  0  0  0
 35 31  1  0  0  0  0
 37 36  2  0  0  0  0
 38 37  2  0  0  0  0
 39 40  1  0  0  0  0
 40 42  1  0  0  0  0
 40 43  1  0  0  0  0
 41 42  1  0  0  0  0
 44 41  1  0  0  0  0
 44 42  1  0  0  0  0
 45 40  1  0  0  0  0
 45 42  1  0  0  0  0
 45 47  1  0  0  0  0
 47 46  1  0  0  0  0
 48 15  1  0  0  0  0
 49 48  1  0  0  0  0
 50 49  1  0  0  0  0
 51 53  1  0  0  0  0
 51 50  1  0  0  0  0
 52 49  1  0  0  0  0
 53 52  1  0  0  0  0
 54 48  1  0  0  0  0
 55 54  1  0  0  0  0
 56 55  1  0  0  0  0
 57 56  2  0  0  0  0
 58 56  1  0  0  0  0
 59 60  1  0  0  0  0
 59 58  1  0  0  0  0
 60 61  1  0  0  0  0
 62 60  1  0  0  0  0
 62 61  1  0  0  0  0
M  END
>  <MODEL>
1

>  <REMARK>
 VINA RESULT:      -4.8      0.000      0.000
  Name = 
  15 active torsions:
  status: ('A' for Active; 'I' for Inactive)
    1  A    between atoms: N_3  and  C_28
    2  A    between atoms: C_6  and  C_24
    3  A    between atoms: C_6  and  C_54
    4  A    between atoms: O_8  and  C_9
    5  A    between atoms: O_8  and  C_21
    6  A    between atoms: C_13  and  C_28
    7  A    between atoms: C_13  and  C_33
    8  A    between atoms: C_14  and  C_43
    9  A    between atoms: C_17  and  C_55
   10  A    between atoms: C_18  and  O_30
   11  A    between atoms: C_18  and  C_33
   12  A    between atoms: N_20  and  C_61
   13  A    between atoms: C_28  and  C_49
   14  A    between atoms: O_30  and  C_43
   15  A    between atoms: C_48  and  O_50
                            x       y       z     vdW  Elec       q    Type
                         _______ _______ _______ _____ _____    ______ ____

>  <TORSDO>
F 15

$$$$
=
 OpenBabel11072414043D

 62 73  0  0  1  0  0  0  0  0999 V2000
  162.3500  212.9840  145.6810 C   0  0  0  0  0  2  0  0  0  0  0  0
  158.4100  213.7130  142.3170 C   0  0  0  0  0  0  0  0  0  0  0  0
  159.4640  213.7540  144.5730 C   0  0  1  0  0  3  0  0  0  0  0  0
  161.8380  211.4540  149.7350 C   0  0  2  0  0  3  0  0  0  0  0  0
  160.7910  214.1470  143.8490 C   0  0  2  0  0  3  0  0  0  0  0  0
  160.9300  213.4760  142.4730 C   0  0  1  0  0  3  0  0  0  0  0  0
  160.7760  213.0440  147.9590 C   0  0  2  0  0  0  0  0  0  0  0  0
  160.4260  211.3000  150.2990 C   0  0  2  0  0  3  0  0  0  0  0  0
  160.5930  214.0530  146.8260 C   0  0  2  0  0  3  0  0  0  0  0  0
  160.9550  214.4490  150.0060 C   0  0  0  0  0  2  0  0  0  0  0  0
  162.1490  214.0970  144.6130 C   0  0  0  0  0  2  0  0  0  0  0  0
  161.7490  213.9060  148.7990 C   0  0  1  0  0  3  0  0  0  0  0  0
  160.9770  213.6240  151.2800 C   0  0  0  0  0  2  0  0  0  0  0  0
  159.2880  214.1840  146.0510 C   0  0  0  0  0  2  0  0  0  0  0  0
  160.0130  212.4510  151.1350 C   0  0  2  0  0  0  0  0  0  0  0  0
  158.2600  214.1730  143.7410 C   0  0  0  0  0  2  0  0  0  0  0  0
  161.0740  212.6940  146.4780 C   0  0  1  0  0  3  0  0  0  0  0  0
  160.5180  211.2740  151.7110 O   0  0  0  0  0  0  0  0  0  0  0  0
  157.5240  213.9450  141.5140 O   0  0  0  0  0  0  0  0  0  0  0  0
  159.6180  212.9250  141.8840 C   0  0  0  0  0  2  0  0  0  0  0  0
  162.0600  212.4590  148.5680 C   0  0  1  0  0  3  0  0  0  0  0  0
  161.5790  214.4470  141.4940 C   0  0  0  0  0  2  0  0  0  0  0  0
  164.4640  213.3260  139.1990 C   0  0  0  0  0  2  0  0  0  0  0  0
  163.6770  214.1570  140.2220 C   0  0  0  0  0  2  0  0  0  0  0  0
  163.2880  211.4430  140.1490 O   0  0  0  0  0  0  0  0  0  0  0  0
  162.2210  213.7160  140.3250 C   0  0  1  0  0  3  0  0  0  0  0  0
  162.1320  212.1830  140.5260 C   0  0  1  0  0  3  0  0  0  0  0  0
  163.8100  211.9670  138.9500 C   0  0  0  0  0  2  0  0  0  0  0  0
  160.9990  210.0850  139.6670 C   0  0  0  0  0  2  0  0  0  0  0  0
  160.8330  211.5800  139.9790 C   0  0  2  0  0  3  0  0  0  0  0  0
  161.1370  209.8350  138.1670 C   0  0  0  0  0  2  0  0  0  0  0  0
  158.6870  212.3530  137.0120 F   0  0  0  0  0  0  0  0  0  0  0  0
  159.2400  211.5730  138.0140 C   0  0  2  0  0  3  0  0  0  0  0  0
  160.2290  212.4020  138.8330 C   0  0  0  0  0  2  0  0  0  0  0  0
  159.9030  210.3350  137.3910 C   0  0  2  0  0  3  0  0  0  0  0  0
  157.6180  209.5110  137.6440 O   0  0  0  0  0  0  0  0  0  0  0  0
  158.9170  209.2700  137.2490 N   0  0  0  0  0  0  0  0  0  0  0  0
  159.2910  208.0940  137.0700 O   0  0  0  0  0  0  0  0  0  0  0  0
  162.4830  210.1880  149.6490 O   0  0  0  0  0  0  0  0  0  0  0  0
  161.7360  209.1960  148.9590 C   0  0  1  0  0  0  0  0  0  0  0  0
  161.1760  208.2990  150.9610 O   0  0  0  0  0  0  0  0  0  0  0  0
  161.2990  207.8560  149.6410 C   0  0  0  0  0  0  0  0  0  0  0  0
  161.0060  209.6360  147.6910 C   0  0  0  0  0  1  0  0  0  0  0  0
  161.9290  207.2540  150.7330 O   0  0  0  0  0  0  0  0  0  0  0  0
  162.5810  207.9960  148.7950 C   0  0  1  0  0  3  0  0  0  0  0  0
  162.8550  206.0520  147.7860 C   0  0  0  0  0  1  0  0  0  0  0  0
  162.3960  207.3510  147.5660 O   0  0  0  0  0  0  0  0  0  0  0  0
  158.5160  212.6070  151.4130 C   0  0  2  0  0  3  0  0  0  0  0  0
  157.9330  213.7430  150.6820 N   0  0  0  0  0  0  0  0  0  0  0  0
  157.6130  213.3000  149.3290 C   0  0  0  0  0  2  0  0  0  0  0  0
  156.3750  214.0400  148.8990 C   0  0  0  0  0  2  0  0  0  0  0  0
  156.6720  214.1920  151.2800 C   0  0  0  0  0  2  0  0  0  0  0  0
  155.6300  214.2860  150.1860 C   0  0  0  0  0  2  0  0  0  0  0  0
  158.1900  212.5840  152.9150 C   0  0  0  0  0  2  0  0  0  0  0  0
  158.2480  211.1610  153.4470 C   0  0  0  0  0  2  0  0  0  0  0  0
  158.0810  211.1560  154.9330 C   0  0  0  0  0  0  0  0  0  0  0  0
  156.8700  211.2960  155.4490 C   0  0  0  0  0  2  0  0  0  0  0  0
  159.1770  211.0280  155.7900 O   0  0  0  0  0  0  0  0  0  0  0  0
  160.3230  210.2490  155.4710 C   0  0  0  0  0  2  0  0  0  0  0  0
  160.2770  208.9190  156.2060 C   0  0  0  0  0  3  0  0  0  0  0  0
  161.6920  208.4810  156.5200 C   0  0  0  0  0  2  0  0  0  0  0  0
  160.9490  207.8560  155.3590 C   0  0  0  0  0  2  0  0  0  0  0  0
  1 17  1  0  0  0  0
  2 16  1  0  0  0  0
  3 16  1  6  0  0  0
  3 14  1  0  0  0  0
  4 39  1  6  0  0  0
  4  8  1  0  0  0  0
  5  3  1  0  0  0  0
  5 11  1  1  0  0  0
  6 22  1  6  0  0  0
  6  5  1  0  0  0  0
  7 21  1  0  0  0  0
  7 12  1  0  0  0  0
  8 15  1  0  0  0  0
  8 18  1  0  0  0  0
  9  7  1  0  0  0  0
 10 13  1  0  0  0  0
 11  1  1  0  0  0  0
 12 10  1  0  0  0  0
 14  9  1  0  0  0  0
 15 13  1  0  0  0  0
 15 48  1  0  0  0  0
 15 18  1  0  0  0  0
 17  9  1  0  0  0  0
 17  7  1  0  0  0  0
 19  2  2  0  0  0  0
 20  2  1  0  0  0  0
 20  6  1  0  0  0  0
 21 12  1  0  0  0  0
 21  4  1  0  0  0  0
 23 24  1  0  0  0  0
 24 26  1  0  0  0  0
 25 27  1  0  0  0  0
 26 27  1  0  0  0  0
 26 22  1  0  0  0  0
 28 23  1  0  0  0  0
 28 25  1  0  0  0  0
 29 30  1  0  0  0  0
 30 27  1  0  0  0  0
 31 29  1  0  0  0  0
 32 33  1  0  0  0  0
 33 34  1  0  0  0  0
 34 30  1  0  0  0  0
 35 33  1  0  0  0  0
 35 31  1  0  0  0  0
 37 35  1  0  0  0  0
 37 36  2  0  0  0  0
 38 37  2  0  0  0  0
 40 42  1  0  0  0  0
 40 39  1  0  0  0  0
 42 44  1  0  0  0  0
 42 41  1  0  0  0  0
 43 40  1  0  0  0  0
 44 41  1  0  0  0  0
 45 40  1  0  0  0  0
 45 42  1  0  0  0  0
 47 46  1  0  0  0  0
 47 45  1  0  0  0  0
 48 54  1  0  0  0  0
 49 52  1  0  0  0  0
 49 48  1  0  0  0  0
 50 49  1  0  0  0  0
 51 50  1  0  0  0  0
 51 53  1  0  0  0  0
 53 52  1  0  0  0  0
 54 55  1  0  0  0  0
 55 56  1  0  0  0  0
 56 57  2  0  0  0  0
 56 58  1  0  0  0  0
 59 58  1  0  0  0  0
 59 60  1  0  0  0  0
 60 61  1  0  0  0  0
 62 60  1  0  0  0  0
 62 61  1  0  0  0  0
M  END
>  <MODEL>
2

>  <REMARK>
 VINA RESULT:      -4.6      3.095     12.347
  Name = 
  15 active torsions:
  status: ('A' for Active; 'I' for Inactive)
    1  A    between atoms: N_3  and  C_28
    2  A    between atoms: C_6  and  C_24
    3  A    between atoms: C_6  and  C_54
    4  A    between atoms: O_8  and  C_9
    5  A    between atoms: O_8  and  C_21
    6  A    between atoms: C_13  and  C_28
    7  A    between atoms: C_13  and  C_33
    8  A    between atoms: C_14  and  C_43
    9  A    between atoms: C_17  and  C_55
   10  A    between atoms: C_18  and  O_30
   11  A    between atoms: C_18  and  C_33
   12  A    between atoms: N_20  and  C_61
   13  A    between atoms: C_28  and  C_49
   14  A    between atoms: O_30  and  C_43
   15  A    between atoms: C_48  and  O_50
                            x       y       z     vdW  Elec       q    Type
                         _______ _______ _______ _____ _____    ______ ____

>  <TORSDO>
F 15

$$$$
=
 OpenBabel11072414043D

 62 73  0  0  1  0  0  0  0  0999 V2000
  162.0420  211.4610  146.3310 C   0  0  0  0  0  2  0  0  0  0  0  0
  157.5670  213.8270  145.0080 C   0  0  0  0  0  0  0  0  0  0  0  0
  159.2190  212.9080  146.6280 C   0  0  1  0  0  3  0  0  0  0  0  0
  162.4080  208.6030  149.6070 C   0  0  2  0  0  3  0  0  0  0  0  0
  160.3270  213.3900  145.6380 C   0  0  2  0  0  3  0  0  0  0  0  0
  159.8940  213.2660  144.1680 C   0  0  1  0  0  3  0  0  0  0  0  0
  161.2690  210.8470  148.9190 C   0  0  2  0  0  0  0  0  0  0  0  0
  161.2300  208.4100  150.5620 C   0  0  2  0  0  3  0  0  0  0  0  0
  161.0000  212.2190  148.3000 C   0  0  2  0  0  3  0  0  0  0  0  0
  162.3660  211.3620  151.0940 C   0  0  0  0  0  2  0  0  0  0  0  0
  161.7990  212.9060  145.8090 C   0  0  0  0  0  2  0  0  0  0  0  0
  162.6190  211.2210  149.5780 C   0  0  1  0  0  3  0  0  0  0  0  0
  162.5690  210.1250  151.9510 C   0  0  0  0  0  2  0  0  0  0  0  0
  159.5920  212.7750  148.1270 C   0  0  0  0  0  2  0  0  0  0  0  0
  161.3610  209.2080  151.8030 C   0  0  2  0  0  0  0  0  0  0  0  0
  157.9550  213.7400  146.4580 C   0  0  0  0  0  2  0  0  0  0  0  0
  161.0260  211.0420  147.3990 C   0  0  1  0  0  3  0  0  0  0  0  0
  161.7260  207.8520  151.7640 O   0  0  0  0  0  0  0  0  0  0  0  0
  156.5630  214.4400  144.6910 O   0  0  0  0  0  0  0  0  0  0  0  0
  158.3760  213.1260  143.9490 C   0  0  0  0  0  2  0  0  0  0  0  0
  162.5030  209.9370  148.8130 C   0  0  1  0  0  3  0  0  0  0  0  0
  160.4320  214.4520  143.3770 C   0  0  0  0  0  2  0  0  0  0  0  0
  163.4460  213.8460  141.0530 C   0  0  0  0  0  2  0  0  0  0  0  0
  162.6010  214.4310  142.1940 C   0  0  0  0  0  2  0  0  0  0  0  0
  162.2120  211.8130  141.4730 O   0  0  0  0  0  0  0  0  0  0  0  0
  161.1410  214.0010  142.1090 C   0  0  1  0  0  3  0  0  0  0  0  0
  161.0380  212.4630  141.9450 C   0  0  1  0  0  3  0  0  0  0  0  0
  162.8050  212.5910  140.4590 C   0  0  0  0  0  2  0  0  0  0  0  0
  159.8170  210.5260  140.8590 C   0  0  0  0  0  2  0  0  0  0  0  0
  159.7720  212.0230  141.2000 C   0  0  2  0  0  3  0  0  0  0  0  0
  160.1400  210.2940  139.3840 C   0  0  0  0  0  2  0  0  0  0  0  0
  158.1680  213.0960  137.9930 F   0  0  0  0  0  0  0  0  0  0  0  0
  158.4840  212.2380  139.0330 C   0  0  2  0  0  3  0  0  0  0  0  0
  159.4310  212.9320  140.0120 C   0  0  0  0  0  2  0  0  0  0  0  0
  159.0910  210.9470  138.4630 C   0  0  2  0  0  3  0  0  0  0  0  0
  157.0960  209.7000  139.1170 O   0  0  0  0  0  0  0  0  0  0  0  0
  158.0260  210.0030  138.1450 N   0  0  0  0  0  0  0  0  0  0  0  0
  158.1240  209.2640  137.1460 O   0  0  0  0  0  0  0  0  0  0  0  0
  162.6850  207.3950  148.9060 O   0  0  0  0  0  0  0  0  0  0  0  0
  161.6130  206.9240  148.1020 C   0  0  1  0  0  0  0  0  0  0  0  0
  161.0430  205.5140  149.7790 O   0  0  0  0  0  0  0  0  0  0  0  0
  160.8860  205.5680  148.3920 C   0  0  0  0  0  0  0  0  0  0  0  0
  160.9060  207.9520  147.2210 C   0  0  0  0  0  1  0  0  0  0  0  0
  161.4330  204.4810  149.0790 O   0  0  0  0  0  0  0  0  0  0  0  0
  162.0530  205.7070  147.3930 C   0  0  1  0  0  3  0  0  0  0  0  0
  162.3630  204.6560  145.4760 C   0  0  0  0  0  1  0  0  0  0  0  0
  161.5560  205.6160  146.0870 O   0  0  0  0  0  0  0  0  0  0  0  0
  160.0910  209.4170  152.6330 C   0  0  2  0  0  3  0  0  0  0  0  0
  159.8330  210.8410  152.8980 N   0  0  0  0  0  0  0  0  0  0  0  0
  159.2010  211.4180  151.7160 C   0  0  0  0  0  2  0  0  0  0  0  0
  158.2390  212.4720  152.1950 C   0  0  0  0  0  2  0  0  0  0  0  0
  158.8920  211.0310  154.0060 C   0  0  0  0  0  2  0  0  0  0  0  0
  157.8040  211.9810  153.5530 C   0  0  0  0  0  2  0  0  0  0  0  0
  160.0490  208.5210  153.8820 C   0  0  0  0  0  2  0  0  0  0  0  0
  161.3390  208.6560  154.6740 C   0  0  0  0  0  2  0  0  0  0  0  0
  161.0540  209.1900  156.0410 C   0  0  0  0  0  0  0  0  0  0  0  0
  160.1480  208.5890  156.7960 C   0  0  0  0  0  2  0  0  0  0  0  0
  161.7070  210.3250  156.5320 O   0  0  0  0  0  0  0  0  0  0  0  0
  161.3740  211.6460  156.1250 C   0  0  0  0  0  2  0  0  0  0  0  0
  160.6590  212.3790  157.2480 C   0  0  0  0  0  3  0  0  0  0  0  0
  159.2450  212.6930  156.8080 C   0  0  0  0  0  2  0  0  0  0  0  0
  160.3000  213.7770  156.7840 C   0  0  0  0  0  2  0  0  0  0  0  0
  1 17  1  0  0  0  0
  2 16  1  0  0  0  0
  3 16  1  1  0  0  0
  3 14  1  0  0  0  0
  4 39  1  6  0  0  0
  4  8  1  0  0  0  0
  5 11  1  6  0  0  0
  5  3  1  0  0  0  0
  6 22  1  6  0  0  0
  6  5  1  0  0  0  0
  7 12  1  0  0  0  0
  8 18  1  0  0  0  0
  8 15  1  0  0  0  0
  9  7  1  0  0  0  0
 10 13  1  0  0  0  0
 11  1  1  0  0  0  0
 12 10  1  0  0  0  0
 14  9  1  0  0  0  0
 15 13  1  0  0  0  0
 15 48  1  0  0  0  0
 17  9  1  0  0  0  0
 17  7  1  0  0  0  0
 18 15  1  0  0  0  0
 19  2  2  0  0  0  0
 20  6  1  0  0  0  0
 20  2  1  0  0  0  0
 21  7  1  0  0  0  0
 21 12  1  0  0  0  0
 21  4  1  0  0  0  0
 23 24  1  0  0  0  0
 25 27  1  0  0  0  0
 26 24  1  0  0  0  0
 26 22  1  0  0  0  0
 27 26  1  0  0  0  0
 28 23  1  0  0  0  0
 28 25  1  0  0  0  0
 29 30  1  0  0  0  0
 30 27  1  0  0  0  0
 31 29  1  0  0  0  0
 32 33  1  0  0  0  0
 33 34  1  0  0  0  0
 34 30  1  0  0  0  0
 35 33  1  0  0  0  0
 35 31  1  0  0  0  0
 37 35  1  0  0  0  0
 37 36  2  0  0  0  0
 38 37  2  0  0  0  0
 40 42  1  0  0  0  0
 40 39  1  0  0  0  0
 42 44  1  0  0  0  0
 42 41  1  0  0  0  0
 43 40  1  0  0  0  0
 44 41  1  0  0  0  0
 45 40  1  0  0  0  0
 45 42  1  0  0  0  0
 46 47  1  0  0  0  0
 47 45  1  0  0  0  0
 48 49  1  0  0  0  0
 48 54  1  0  0  0  0
 49 52  1  0  0  0  0
 50 51  1  0  0  0  0
 50 49  1  0  0  0  0
 51 53  1  0  0  0  0
 53 52  1  0  0  0  0
 54 55  1  0  0  0  0
 55 56  1  0  0  0  0
 56 58  1  0  0  0  0
 56 57  2  0  0  0  0
 59 58  1  0  0  0  0
 59 60  1  0  0  0  0
 61 60  1  0  0  0  0
 62 61  1  0  0  0  0
 62 60  1  0  0  0  0
M  END
>  <MODEL>
3

>  <REMARK>
 VINA RESULT:      -2.5      2.875     12.329
  Name = 
  15 active torsions:
  status: ('A' for Active; 'I' for Inactive)
    1  A    between atoms: N_3  and  C_28
    2  A    between atoms: C_6  and  C_24
    3  A    between atoms: C_6  and  C_54
    4  A    between atoms: O_8  and  C_9
    5  A    between atoms: O_8  and  C_21
    6  A    between atoms: C_13  and  C_28
    7  A    between atoms: C_13  and  C_33
    8  A    between atoms: C_14  and  C_43
    9  A    between atoms: C_17  and  C_55
   10  A    between atoms: C_18  and  O_30
   11  A    between atoms: C_18  and  C_33
   12  A    between atoms: N_20  and  C_61
   13  A    between atoms: C_28  and  C_49
   14  A    between atoms: O_30  and  C_43
   15  A    between atoms: C_48  and  O_50
                            x       y       z     vdW  Elec       q    Type
                         _______ _______ _______ _____ _____    ______ ____

>  <TORSDO>
F 15

$$$$
