=
 OpenBabel11072415253D

 25 26  0  0  1  0  0  0  0  0999 V2000
  160.8110  205.0610  150.6880 C   0  0  0  0  0  0  0  0  0  0  0  0
  161.3250  207.3540  149.7910 C   0  0  2  0  0  3  0  0  0  0  0  0
  161.1830  206.4800  151.0700 C   0  0  2  0  0  3  0  0  0  0  0  0
  161.1290  205.6700  148.3200 C   0  0  1  0  0  3  0  0  0  0  0  0
  160.8420  204.6620  149.4080 C   0  0  0  0  0  3  0  0  0  0  0  0
  160.4820  204.0680  151.7500 C   0  0  0  0  0  1  0  0  0  0  0  0
  162.0110  206.6720  148.7670 O   0  0  0  0  0  0  0  0  0  0  0  0
  160.1500  206.5640  145.7950 O   0  0  0  0  0  1  0  0  0  0  0  0
  161.6530  204.9990  147.0510 C   0  0  1  0  0  0  0  0  0  0  0  0
  161.0670  205.5130  145.7500 C   0  0  0  0  0  0  0  0  0  0  0  0
  160.9980  204.6490  144.6550 O   0  0  0  0  0  1  0  0  0  0  0  0
  162.4770  205.9060  146.1400 C   0  0  0  0  0  2  0  0  0  0  0  0
  162.0700  203.5260  147.0470 C   0  0  0  0  0  2  0  0  0  0  0  0
  160.9790  202.6210  146.4960 C   0  0  0  0  0  2  0  0  0  0  0  0
  160.3460  201.9460  147.5420 O   0  0  0  0  0  0  0  0  0  0  0  0
  160.9800  200.9400  149.6030 C   0  0  0  0  0  1  0  0  0  0  0  0
  161.5390  199.8920  147.4380 C   0  0  0  0  0  1  0  0  0  0  0  0
  161.3580  201.2100  148.1610 C   0  0  0  0  0  3  0  0  0  0  0  0
  161.9570  206.3930  153.2490 O   0  0  0  0  0  1  0  0  0  0  0  0
  163.0810  205.3530  151.6880 O   0  0  0  0  0  1  0  0  0  0  0  0
  162.3570  206.4650  151.9560 N   0  0  0  0  0  0  0  0  0  0  0  0
  161.7960  208.7980  149.9880 C   0  0  0  0  0  2  0  0  0  0  0  0
  161.9560  209.5720  148.6860 C   0  0  0  0  0  2  0  0  0  0  0  0
  162.1460  211.0490  148.9720 C   0  0  0  0  0  2  0  0  0  0  0  0
  161.6080  211.8610  147.8120 C   0  0  0  0  0  1  0  0  0  0  0  0
  1  3  1  0  0  0  0
  1  6  1  0  0  0  0
  2 22  1  1  0  0  0
  2  3  1  0  0  0  0
  3 21  1  6  0  0  0
  4  7  1  0  0  0  0
  4  5  1  1  0  0  0
  5  1  2  0  0  0  0
  7  2  1  0  0  0  0
  9 13  1  1  0  0  0
  9  4  1  0  0  0  0
 10  8  1  0  0  0  0
 10 12  1  0  0  0  0
 10  9  1  0  0  0  0
 11 10  1  0  0  0  0
 12  9  1  0  0  0  0
 14 13  1  0  0  0  0
 14 15  1  0  0  0  0
 15 18  1  0  0  0  0
 17 18  1  0  0  0  0
 18 16  1  0  0  0  0
 20 21  1  0  0  0  0
 21 19  1  0  0  0  0
 23 24  1  0  0  0  0
 23 22  1  0  0  0  0
 25 24  1  0  0  0  0
M  END
>  <MODEL>
1

>  <REMARK>
 VINA RESULT:      -6.9      0.000      0.000
  Name = 
  9 active torsions:
  status: ('A' for Active; 'I' for Inactive)
    1  A    between atoms: C_2  and  C_14
    2  A    between atoms: C_2  and  C_25
    3  A    between atoms: O_4  and  C_20
    4  A    between atoms: O_4  and  C_23
    5  A    between atoms: C_5  and  C_10
    6  A    between atoms: C_5  and  C_23
    7  A    between atoms: C_6  and  C_25
    8  A    between atoms: C_10  and  C_13
    9  A    between atoms: C_11  and  N_19
                            x       y       z     vdW  Elec       q    Type
                         _______ _______ _______ _____ _____    ______ ____

>  <TORSDO>
F 9

$$$$
=
 OpenBabel11072415253D

 25 26  0  0  1  0  0  0  0  0999 V2000
  160.7020  205.8380  147.8960 C   0  0  0  0  0  0  0  0  0  0  0  0
  160.8390  203.7960  149.3590 C   0  0  2  0  0  3  0  0  0  0  0  0
  160.9180  204.3370  147.9030 C   0  0  2  0  0  3  0  0  0  0  0  0
  160.7410  205.8010  150.3610 C   0  0  1  0  0  3  0  0  0  0  0  0
  160.6790  206.5340  149.0420 C   0  0  0  0  0  3  0  0  0  0  0  0
  160.5940  206.5670  146.6010 C   0  0  0  0  0  1  0  0  0  0  0  0
  161.5200  204.6330  150.2640 O   0  0  0  0  0  0  0  0  0  0  0  0
  161.0870  204.6840  152.9630 O   0  0  0  0  0  1  0  0  0  0  0  0
  161.2400  206.7060  151.4880 C   0  0  1  0  0  0  0  0  0  0  0  0
  161.3750  206.0450  152.8460 C   0  0  0  0  0  0  0  0  0  0  0  0
  161.2390  206.8280  153.9930 O   0  0  0  0  0  1  0  0  0  0  0  0
  162.6190  206.3450  152.0360 C   0  0  0  0  0  2  0  0  0  0  0  0
  160.9020  208.1990  151.5150 C   0  0  0  0  0  2  0  0  0  0  0  0
  162.0540  209.0570  151.0170 C   0  0  0  0  0  2  0  0  0  0  0  0
  162.4430  209.9570  152.0110 O   0  0  0  0  0  0  0  0  0  0  0  0
  161.6680  210.3860  154.2200 C   0  0  0  0  0  1  0  0  0  0  0  0
  160.5820  211.4170  152.2550 C   0  0  0  0  0  1  0  0  0  0  0  0
  161.2900  210.1790  152.7670 C   0  0  0  0  0  3  0  0  0  0  0  0
  161.8520  203.5810  145.9260 O   0  0  0  0  0  1  0  0  0  0  0  0
  162.8910  205.1380  147.0540 O   0  0  0  0  0  1  0  0  0  0  0  0
  162.1540  204.0100  147.1750 N   0  0  0  0  0  0  0  0  0  0  0  0
  161.1340  202.3060  149.5600 C   0  0  0  0  0  2  0  0  0  0  0  0
  160.4670  201.4060  148.5270 C   0  0  0  0  0  2  0  0  0  0  0  0
  161.4730  200.4250  147.9570 C   0  0  0  0  0  2  0  0  0  0  0  0
  161.1430  200.1500  146.5060 C   0  0  0  0  0  1  0  0  0  0  0  0
  1  3  1  0  0  0  0
  1  5  2  0  0  0  0
  2 22  1  6  0  0  0
  2  7  1  0  0  0  0
  3 21  1  1  0  0  0
  3  2  1  0  0  0  0
  4  5  1  6  0  0  0
  4  9  1  0  0  0  0
  6  1  1  0  0  0  0
  7  4  1  0  0  0  0
  9 13  1  6  0  0  0
  9 12  1  0  0  0  0
  9 10  1  0  0  0  0
 10  8  1  0  0  0  0
 10 11  1  0  0  0  0
 12 10  1  0  0  0  0
 14 13  1  0  0  0  0
 14 15  1  0  0  0  0
 15 18  1  0  0  0  0
 17 18  1  0  0  0  0
 18 16  1  0  0  0  0
 19 21  1  0  0  0  0
 20 21  1  0  0  0  0
 23 22  1  0  0  0  0
 24 23  1  0  0  0  0
 25 24  1  0  0  0  0
M  END
>  <MODEL>
2

>  <REMARK>
 VINA RESULT:      -6.7      2.273      7.433
  Name = 
  9 active torsions:
  status: ('A' for Active; 'I' for Inactive)
    1  A    between atoms: C_2  and  C_14
    2  A    between atoms: C_2  and  C_25
    3  A    between atoms: O_4  and  C_20
    4  A    between atoms: O_4  and  C_23
    5  A    between atoms: C_5  and  C_10
    6  A    between atoms: C_5  and  C_23
    7  A    between atoms: C_6  and  C_25
    8  A    between atoms: C_10  and  C_13
    9  A    between atoms: C_11  and  N_19
                            x       y       z     vdW  Elec       q    Type
                         _______ _______ _______ _____ _____    ______ ____

>  <TORSDO>
F 9

$$$$
=
 OpenBabel11072415253D

 25 26  0  0  1  0  0  0  0  0999 V2000
  161.9570  209.4510  150.6140 C   0  0  0  0  0  0  0  0  0  0  0  0
  161.5680  208.2780  152.8050 C   0  0  2  0  0  3  0  0  0  0  0  0
  161.7160  209.6550  152.0960 C   0  0  2  0  0  3  0  0  0  0  0  0
  161.5550  207.0400  150.9330 C   0  0  1  0  0  3  0  0  0  0  0  0
  161.8250  208.2390  150.0560 C   0  0  0  0  0  3  0  0  0  0  0  0
  162.2690  210.6210  149.7450 C   0  0  0  0  0  1  0  0  0  0  0  0
  160.7770  207.3870  152.0540 O   0  0  0  0  0  0  0  0  0  0  0  0
  162.3200  204.3600  151.5410 O   0  0  0  0  0  1  0  0  0  0  0  0
  160.9120  205.8970  150.1470 C   0  0  1  0  0  0  0  0  0  0  0  0
  161.3880  204.5040  150.5120 C   0  0  0  0  0  0  0  0  0  0  0  0
  161.3490  203.5030  149.5390 O   0  0  0  0  0  1  0  0  0  0  0  0
  160.0240  204.9710  150.9750 C   0  0  0  0  0  2  0  0  0  0  0  0
  160.4770  206.0830  148.6910 C   0  0  0  0  0  2  0  0  0  0  0  0
  161.6100  205.8120  147.7140 C   0  0  0  0  0  2  0  0  0  0  0  0
  161.3500  206.4440  146.4960 O   0  0  0  0  0  0  0  0  0  0  0  0
  163.0640  204.8170  146.2130 C   0  0  0  0  0  1  0  0  0  0  0  0
  161.0020  204.7590  144.8540 C   0  0  0  0  0  1  0  0  0  0  0  0
  162.0050  205.6660  145.5400 C   0  0  0  0  0  3  0  0  0  0  0  0
  159.4880  209.9020  152.6720 O   0  0  0  0  0  1  0  0  0  0  0  0
  160.9140  211.4360  153.2970 O   0  0  0  0  0  1  0  0  0  0  0  0
  160.5950  210.5870  152.2930 N   0  0  0  0  0  0  0  0  0  0  0  0
  161.2190  208.3010  154.2960 C   0  0  0  0  0  2  0  0  0  0  0  0
  160.5880  207.0070  154.7960 C   0  0  0  0  0  2  0  0  0  0  0  0
  159.6530  207.2910  155.9550 C   0  0  0  0  0  2  0  0  0  0  0  0
  160.3840  207.0590  157.2610 C   0  0  0  0  0  1  0  0  0  0  0  0
  1  3  1  0  0  0  0
  2 22  1  1  0  0  0
  3 21  1  6  0  0  0
  3  2  1  0  0  0  0
  4  5  1  6  0  0  0
  4  7  1  0  0  0  0
  5  1  2  0  0  0  0
  6  1  1  0  0  0  0
  7  2  1  0  0  0  0
  9 13  1  6  0  0  0
  9 10  1  0  0  0  0
  9  4  1  0  0  0  0
  9 12  1  0  0  0  0
 10 12  1  0  0  0  0
 10  8  1  0  0  0  0
 11 10  1  0  0  0  0
 14 13  1  0  0  0  0
 15 14  1  0  0  0  0
 17 18  1  0  0  0  0
 18 16  1  0  0  0  0
 18 15  1  0  0  0  0
 21 19  1  0  0  0  0
 21 20  1  0  0  0  0
 22 23  1  0  0  0  0
 23 24  1  0  0  0  0
 24 25  1  0  0  0  0
M  END
>  <MODEL>
3

>  <REMARK>
 VINA RESULT:      -6.5      2.800      5.392
  Name = 
  9 active torsions:
  status: ('A' for Active; 'I' for Inactive)
    1  A    between atoms: C_2  and  C_14
    2  A    between atoms: C_2  and  C_25
    3  A    between atoms: O_4  and  C_20
    4  A    between atoms: O_4  and  C_23
    5  A    between atoms: C_5  and  C_10
    6  A    between atoms: C_5  and  C_23
    7  A    between atoms: C_6  and  C_25
    8  A    between atoms: C_10  and  C_13
    9  A    between atoms: C_11  and  N_19
                            x       y       z     vdW  Elec       q    Type
                         _______ _______ _______ _____ _____    ______ ____

>  <TORSDO>
F 9

$$$$
=
 OpenBabel11072415253D

 25 26  0  0  1  0  0  0  0  0999 V2000
  161.1260  202.2400  148.7830 C   0  0  0  0  0  0  0  0  0  0  0  0
  162.2200  203.6540  147.0130 C   0  0  2  0  0  3  0  0  0  0  0  0
  161.5970  202.2670  147.3420 C   0  0  2  0  0  3  0  0  0  0  0  0
  161.6450  204.6450  148.9430 C   0  0  1  0  0  3  0  0  0  0  0  0
  161.0910  203.3620  149.5160 C   0  0  0  0  0  3  0  0  0  0  0  0
  160.6190  200.9690  149.3750 C   0  0  0  0  0  1  0  0  0  0  0  0
  161.4560  204.7090  147.5490 O   0  0  0  0  0  0  0  0  0  0  0  0
  162.4390  207.2330  148.0450 O   0  0  0  0  0  1  0  0  0  0  0  0
  161.0580  205.8740  149.6370 C   0  0  1  0  0  0  0  0  0  0  0  0
  161.5470  207.2130  149.1190 C   0  0  0  0  0  0  0  0  0  0  0  0
  161.5670  208.3040  149.9890 O   0  0  0  0  0  1  0  0  0  0  0  0
  160.1550  206.7360  148.7570 C   0  0  0  0  0  2  0  0  0  0  0  0
  160.6780  205.8420  151.1190 C   0  0  0  0  0  2  0  0  0  0  0  0
  161.8780  205.5730  152.0140 C   0  0  0  0  0  2  0  0  0  0  0  0
  162.1900  206.7170  152.7510 O   0  0  0  0  0  0  0  0  0  0  0  0
  160.6950  206.7080  154.6020 C   0  0  0  0  0  1  0  0  0  0  0  0
  160.9900  208.7200  153.2000 C   0  0  0  0  0  1  0  0  0  0  0  0
  160.9600  207.2050  153.1960 C   0  0  0  0  0  3  0  0  0  0  0  0
  160.4830  202.6190  145.3450 O   0  0  0  0  0  1  0  0  0  0  0  0
  160.7470  200.5700  146.0570 O   0  0  0  0  0  1  0  0  0  0  0  0
  160.5050  201.8410  146.4540 N   0  0  0  0  0  0  0  0  0  0  0  0
  162.6590  203.8900  145.5640 C   0  0  0  0  0  2  0  0  0  0  0  0
  162.6000  205.3510  145.1380 C   0  0  0  0  0  2  0  0  0  0  0  0
  161.3980  205.5900  144.2460 C   0  0  0  0  0  2  0  0  0  0  0  0
  160.2670  206.1700  145.0670 C   0  0  0  0  0  1  0  0  0  0  0  0
  1  6  1  0  0  0  0
  1  5  2  0  0  0  0
  2 22  1  6  0  0  0
  2  3  1  0  0  0  0
  2  7  1  0  0  0  0
  3 21  1  6  0  0  0
  3  1  1  0  0  0  0
  4  5  1  1  0  0  0
  4  9  1  0  0  0  0
  7  4  1  0  0  0  0
  8 10  1  0  0  0  0
  9 13  1  1  0  0  0
 10  9  1  0  0  0  0
 10 11  1  0  0  0  0
 12 10  1  0  0  0  0
 12  9  1  0  0  0  0
 13 14  1  0  0  0  0
 14 15  1  0  0  0  0
 15 18  1  0  0  0  0
 18 17  1  0  0  0  0
 18 16  1  0  0  0  0
 19 21  1  0  0  0  0
 20 21  1  0  0  0  0
 23 22  1  0  0  0  0
 24 25  1  0  0  0  0
 24 23  1  0  0  0  0
M  END
>  <MODEL>
4

>  <REMARK>
 VINA RESULT:      -6.4      2.425      5.967
  Name = 
  9 active torsions:
  status: ('A' for Active; 'I' for Inactive)
    1  A    between atoms: C_2  and  C_14
    2  A    between atoms: C_2  and  C_25
    3  A    between atoms: O_4  and  C_20
    4  A    between atoms: O_4  and  C_23
    5  A    between atoms: C_5  and  C_10
    6  A    between atoms: C_5  and  C_23
    7  A    between atoms: C_6  and  C_25
    8  A    between atoms: C_10  and  C_13
    9  A    between atoms: C_11  and  N_19
                            x       y       z     vdW  Elec       q    Type
                         _______ _______ _______ _____ _____    ______ ____

>  <TORSDO>
F 9

$$$$
=
 OpenBabel11072415253D

 25 26  0  0  1  0  0  0  0  0999 V2000
  160.7930  206.0350  146.9120 C   0  0  0  0  0  0  0  0  0  0  0  0
  160.9760  204.7760  149.0820 C   0  0  2  0  0  3  0  0  0  0  0  0
  160.8830  204.6560  147.5340 C   0  0  2  0  0  3  0  0  0  0  0  0
  161.1920  207.0090  149.1420 C   0  0  1  0  0  3  0  0  0  0  0  0
  160.9960  207.1360  147.6500 C   0  0  0  0  0  3  0  0  0  0  0  0
  160.5550  206.1760  145.4470 C   0  0  0  0  0  1  0  0  0  0  0  0
  161.8500  205.8090  149.4730 O   0  0  0  0  0  0  0  0  0  0  0  0
  160.4000  207.9920  151.7000 O   0  0  0  0  0  1  0  0  0  0  0  0
  161.9250  208.2190  149.7220 C   0  0  1  0  0  0  0  0  0  0  0  0
  161.4300  208.6960  151.0730 C   0  0  0  0  0  0  0  0  0  0  0  0
  161.5800  210.0430  151.4080 O   0  0  0  0  0  1  0  0  0  0  0  0
  162.7350  207.9330  150.9840 C   0  0  0  0  0  2  0  0  0  0  0  0
  162.5040  209.3060  148.8130 C   0  0  0  0  0  2  0  0  0  0  0  0
  161.5130  210.4310  148.5590 C   0  0  0  0  0  2  0  0  0  0  0  0
  162.1520  211.6660  148.6800 O   0  0  0  0  0  0  0  0  0  0  0  0
  160.3640  212.6300  147.4400 C   0  0  0  0  0  1  0  0  0  0  0  0
  162.6110  213.6550  147.4600 C   0  0  0  0  0  1  0  0  0  0  0  0
  161.8510  212.3450  147.4980 C   0  0  0  0  0  3  0  0  0  0  0  0
  161.5150  203.3180  145.7550 O   0  0  0  0  0  1  0  0  0  0  0  0
  162.9550  204.7540  146.5560 O   0  0  0  0  0  1  0  0  0  0  0  0
  161.9670  203.8930  146.8960 N   0  0  0  0  0  0  0  0  0  0  0  0
  161.1750  203.4750  149.8670 C   0  0  0  0  0  2  0  0  0  0  0  0
  160.2050  202.3690  149.4710 C   0  0  0  0  0  2  0  0  0  0  0  0
  160.8870  201.0180  149.5540 C   0  0  0  0  0  2  0  0  0  0  0  0
  161.3820  200.6170  148.1800 C   0  0  0  0  0  1  0  0  0  0  0  0
  1  3  1  0  0  0  0
  1  5  2  0  0  0  0
  2  7  1  0  0  0  0
  2 22  1  1  0  0  0
  3 21  1  6  0  0  0
  3  2  1  0  0  0  0
  4  5  1  6  0  0  0
  4  7  1  0  0  0  0
  4  9  1  0  0  0  0
  6  1  1  0  0  0  0
  9 13  1  6  0  0  0
  9 12  1  0  0  0  0
  9 10  1  0  0  0  0
 10 11  1  0  0  0  0
 10  8  1  0  0  0  0
 12 10  1  0  0  0  0
 14 15  1  0  0  0  0
 14 13  1  0  0  0  0
 16 18  1  0  0  0  0
 17 18  1  0  0  0  0
 18 15  1  0  0  0  0
 19 21  1  0  0  0  0
 20 21  1  0  0  0  0
 23 24  1  0  0  0  0
 23 22  1  0  0  0  0
 25 24  1  0  0  0  0
M  END
>  <MODEL>
5

>  <REMARK>
 VINA RESULT:      -6.3      2.171      7.451
  Name = 
  9 active torsions:
  status: ('A' for Active; 'I' for Inactive)
    1  A    between atoms: C_2  and  C_14
    2  A    between atoms: C_2  and  C_25
    3  A    between atoms: O_4  and  C_20
    4  A    between atoms: O_4  and  C_23
    5  A    between atoms: C_5  and  C_10
    6  A    between atoms: C_5  and  C_23
    7  A    between atoms: C_6  and  C_25
    8  A    between atoms: C_10  and  C_13
    9  A    between atoms: C_11  and  N_19
                            x       y       z     vdW  Elec       q    Type
                         _______ _______ _______ _____ _____    ______ ____

>  <TORSDO>
F 9

$$$$
=
 OpenBabel11072415253D

 25 26  0  0  1  0  0  0  0  0999 V2000
  162.1090  204.6300  146.4620 C   0  0  0  0  0  0  0  0  0  0  0  0
  161.6620  206.5490  148.0270 C   0  0  2  0  0  3  0  0  0  0  0  0
  161.8900  206.1280  146.5460 C   0  0  2  0  0  3  0  0  0  0  0  0
  161.5600  204.4680  148.8600 C   0  0  1  0  0  3  0  0  0  0  0  0
  161.8980  203.8430  147.5270 C   0  0  0  0  0  3  0  0  0  0  0  0
  162.4870  204.0070  145.1620 C   0  0  0  0  0  1  0  0  0  0  0  0
  160.8130  205.6490  148.7000 O   0  0  0  0  0  0  0  0  0  0  0  0
  162.3520  204.3250  151.5970 O   0  0  0  0  0  1  0  0  0  0  0  0
  160.8420  203.4810  149.7820 C   0  0  1  0  0  0  0  0  0  0  0  0
  161.3360  203.4470  151.2150 C   0  0  0  0  0  0  0  0  0  0  0  0
  161.2050  202.2640  151.9450 O   0  0  0  0  0  1  0  0  0  0  0  0
  160.0200  204.1260  150.8950 C   0  0  0  0  0  2  0  0  0  0  0  0
  160.2850  202.1590  149.2480 C   0  0  0  0  0  2  0  0  0  0  0  0
  161.3780  201.2540  148.7020 C   0  0  0  0  0  2  0  0  0  0  0  0
  160.8120  200.2330  147.9360 O   0  0  0  0  0  0  0  0  0  0  0  0
  161.5830  199.0670  146.0100 C   0  0  0  0  0  1  0  0  0  0  0  0
  160.3360  201.1890  145.8120 C   0  0  0  0  0  1  0  0  0  0  0  0
  161.3310  200.4160  146.6520 C   0  0  0  0  0  3  0  0  0  0  0  0
  161.1900  206.2060  144.3420 O   0  0  0  0  0  1  0  0  0  0  0  0
  159.7090  205.8300  145.9050 O   0  0  0  0  0  1  0  0  0  0  0  0
  160.8300  206.5280  145.6080 N   0  0  0  0  0  0  0  0  0  0  0  0
  161.3240  208.0210  148.2840 C   0  0  0  0  0  2  0  0  0  0  0  0
  162.1970  208.6710  149.3510 C   0  0  0  0  0  2  0  0  0  0  0  0
  162.3260  207.7550  150.5520 C   0  0  0  0  0  2  0  0  0  0  0  0
  161.1570  207.9820  151.4880 C   0  0  0  0  0  1  0  0  0  0  0  0
  1  3  1  0  0  0  0
  1  5  2  0  0  0  0
  2 22  1  6  0  0  0
  2  7  1  0  0  0  0
  3 21  1  6  0  0  0
  3  2  1  0  0  0  0
  4  5  1  6  0  0  0
  4  9  1  0  0  0  0
  6  1  1  0  0  0  0
  7  4  1  0  0  0  0
  9 13  1  6  0  0  0
  9 12  1  0  0  0  0
  9 10  1  0  0  0  0
 10  8  1  0  0  0  0
 10 11  1  0  0  0  0
 12 10  1  0  0  0  0
 14 13  1  0  0  0  0
 15 14  1  0  0  0  0
 16 18  1  0  0  0  0
 17 18  1  0  0  0  0
 18 15  1  0  0  0  0
 19 21  1  0  0  0  0
 21 20  1  0  0  0  0
 22 23  1  0  0  0  0
 23 24  1  0  0  0  0
 24 25  1  0  0  0  0
M  END
>  <MODEL>
6

>  <REMARK>
 VINA RESULT:      -6.0      1.982      4.652
  Name = 
  9 active torsions:
  status: ('A' for Active; 'I' for Inactive)
    1  A    between atoms: C_2  and  C_14
    2  A    between atoms: C_2  and  C_25
    3  A    between atoms: O_4  and  C_20
    4  A    between atoms: O_4  and  C_23
    5  A    between atoms: C_5  and  C_10
    6  A    between atoms: C_5  and  C_23
    7  A    between atoms: C_6  and  C_25
    8  A    between atoms: C_10  and  C_13
    9  A    between atoms: C_11  and  N_19
                            x       y       z     vdW  Elec       q    Type
                         _______ _______ _______ _____ _____    ______ ____

>  <TORSDO>
F 9

$$$$
=
 OpenBabel11072415253D

 25 26  0  0  1  0  0  0  0  0999 V2000
  160.7320  207.0660  150.5600 C   0  0  0  0  0  0  0  0  0  0  0  0
  160.7730  206.1170  148.2300 C   0  0  2  0  0  3  0  0  0  0  0  0
  161.0410  207.3740  149.1080 C   0  0  2  0  0  3  0  0  0  0  0  0
  160.3910  204.7060  149.9320 C   0  0  1  0  0  3  0  0  0  0  0  0
  160.4860  205.8100  150.9590 C   0  0  0  0  0  3  0  0  0  0  0  0
  160.7780  208.1550  151.5760 C   0  0  0  0  0  1  0  0  0  0  0  0
  161.2500  204.9420  148.8430 O   0  0  0  0  0  0  0  0  0  0  0  0
  162.5090  204.4340  151.8230 O   0  0  0  0  0  1  0  0  0  0  0  0
  160.6490  203.3320  150.5520 C   0  0  1  0  0  0  0  0  0  0  0  0
  161.8070  203.2640  151.5290 C   0  0  0  0  0  0  0  0  0  0  0  0
  162.4860  202.0540  151.6850 O   0  0  0  0  0  1  0  0  0  0  0  0
  160.3860  203.2480  152.0540 C   0  0  0  0  0  2  0  0  0  0  0  0
  160.3710  202.0450  149.7720 C   0  0  0  0  0  2  0  0  0  0  0  0
  161.3730  201.8250  148.6500 C   0  0  0  0  0  2  0  0  0  0  0  0
  160.8350  202.2620  147.4380 O   0  0  0  0  0  0  0  0  0  0  0  0
  160.2390  201.3930  145.3050 C   0  0  0  0  0  1  0  0  0  0  0  0
  161.5200  200.0430  146.9280 C   0  0  0  0  0  1  0  0  0  0  0  0
  160.4430  201.0970  146.7760 C   0  0  0  0  0  3  0  0  0  0  0  0
  162.3150  209.2770  148.7810 O   0  0  0  0  0  1  0  0  0  0  0  0
  163.0340  207.7550  150.1760 O   0  0  0  0  0  1  0  0  0  0  0  0
  162.3940  207.9420  148.9980 N   0  0  0  0  0  0  0  0  0  0  0  0
  161.1310  206.2230  146.7440 C   0  0  0  0  0  2  0  0  0  0  0  0
  162.4430  205.5380  146.3810 C   0  0  0  0  0  2  0  0  0  0  0  0
  162.2160  204.5140  145.2880 C   0  0  0  0  0  2  0  0  0  0  0  0
  160.9910  204.8960  144.4840 C   0  0  0  0  0  1  0  0  0  0  0  0
  1  5  2  0  0  0  0
  1  6  1  0  0  0  0
  2 22  1  6  0  0  0
  2  7  1  0  0  0  0
  2  3  1  0  0  0  0
  3 21  1  1  0  0  0
  3  1  1  0  0  0  0
  4  9  1  0  0  0  0
  4  5  1  1  0  0  0
  7  4  1  0  0  0  0
  9 13  1  6  0  0  0
  9 10  1  0  0  0  0
  9 12  1  0  0  0  0
 10 11  1  0  0  0  0
 10  8  1  0  0  0  0
 10 12  1  0  0  0  0
 14 13  1  0  0  0  0
 15 14  1  0  0  0  0
 16 18  1  0  0  0  0
 18 17  1  0  0  0  0
 18 15  1  0  0  0  0
 19 21  1  0  0  0  0
 21 20  1  0  0  0  0
 23 22  1  0  0  0  0
 24 23  1  0  0  0  0
 25 24  1  0  0  0  0
M  END
>  <MODEL>
7

>  <REMARK>
 VINA RESULT:      -5.9      2.107      4.433
  Name = 
  9 active torsions:
  status: ('A' for Active; 'I' for Inactive)
    1  A    between atoms: C_2  and  C_14
    2  A    between atoms: C_2  and  C_25
    3  A    between atoms: O_4  and  C_20
    4  A    between atoms: O_4  and  C_23
    5  A    between atoms: C_5  and  C_10
    6  A    between atoms: C_5  and  C_23
    7  A    between atoms: C_6  and  C_25
    8  A    between atoms: C_10  and  C_13
    9  A    between atoms: C_11  and  N_19
                            x       y       z     vdW  Elec       q    Type
                         _______ _______ _______ _____ _____    ______ ____

>  <TORSDO>
F 9

$$$$
=
 OpenBabel11072415253D

 25 26  0  0  1  0  0  0  0  0999 V2000
  162.1240  204.4850  146.4350 C   0  0  0  0  0  0  0  0  0  0  0  0
  161.5960  206.1660  148.2300 C   0  0  2  0  0  3  0  0  0  0  0  0
  161.8390  205.9480  146.7090 C   0  0  2  0  0  3  0  0  0  0  0  0
  161.5880  203.9940  148.7910 C   0  0  1  0  0  3  0  0  0  0  0  0
  161.9500  203.5600  147.3910 C   0  0  0  0  0  3  0  0  0  0  0  0
  162.5270  204.0490  145.0680 C   0  0  0  0  0  1  0  0  0  0  0  0
  160.7880  205.1520  148.7800 O   0  0  0  0  0  0  0  0  0  0  0  0
  159.9610  202.1220  147.3810 O   0  0  0  0  0  1  0  0  0  0  0  0
  160.9160  202.8670  149.5770 C   0  0  1  0  0  0  0  0  0  0  0  0
  160.0500  201.9280  148.7600 C   0  0  0  0  0  0  0  0  0  0  0  0
  158.9800  201.2850  149.3860 O   0  0  0  0  0  1  0  0  0  0  0  0
  161.4120  201.4630  149.2330 C   0  0  0  0  0  2  0  0  0  0  0  0
  160.4840  203.0630  151.0320 C   0  0  0  0  0  2  0  0  0  0  0  0
  161.4940  203.8730  151.8270 C   0  0  0  0  0  2  0  0  0  0  0  0
  160.8310  204.7230  152.7150 O   0  0  0  0  0  0  0  0  0  0  0  0
  161.0070  206.9680  153.4830 C   0  0  0  0  0  1  0  0  0  0  0  0
  162.6590  206.0160  151.9130 C   0  0  0  0  0  1  0  0  0  0  0  0
  161.2010  206.0120  152.3250 C   0  0  0  0  0  3  0  0  0  0  0  0
  161.0900  206.1830  144.5320 O   0  0  0  0  0  1  0  0  0  0  0  0
  159.6430  205.7050  146.0990 O   0  0  0  0  0  1  0  0  0  0  0  0
  160.7610  206.4170  145.8260 N   0  0  0  0  0  0  0  0  0  0  0  0
  161.1930  207.5770  148.6710 C   0  0  0  0  0  2  0  0  0  0  0  0
  162.3570  208.5610  148.7080 C   0  0  0  0  0  2  0  0  0  0  0  0
  161.9540  209.8240  149.4420 C   0  0  0  0  0  2  0  0  0  0  0  0
  162.0080  209.5800  150.9350 C   0  0  0  0  0  1  0  0  0  0  0  0
  1  3  1  0  0  0  0
  1  5  2  0  0  0  0
  2 22  1  6  0  0  0
  2  7  1  0  0  0  0
  3 21  1  6  0  0  0
  3  2  1  0  0  0  0
  4  5  1  6  0  0  0
  4  9  1  0  0  0  0
  6  1  1  0  0  0  0
  7  4  1  0  0  0  0
  8 10  1  0  0  0  0
  9 13  1  1  0  0  0
 10 12  1  0  0  0  0
 10 11  1  0  0  0  0
 10  9  1  0  0  0  0
 12  9  1  0  0  0  0
 13 14  1  0  0  0  0
 14 15  1  0  0  0  0
 17 18  1  0  0  0  0
 18 15  1  0  0  0  0
 18 16  1  0  0  0  0
 19 21  1  0  0  0  0
 21 20  1  0  0  0  0
 22 23  1  0  0  0  0
 23 24  1  0  0  0  0
 24 25  1  0  0  0  0
M  END
>  <MODEL>
8

>  <REMARK>
 VINA RESULT:      -5.7      1.918      5.087
  Name = 
  9 active torsions:
  status: ('A' for Active; 'I' for Inactive)
    1  A    between atoms: C_2  and  C_14
    2  A    between atoms: C_2  and  C_25
    3  A    between atoms: O_4  and  C_20
    4  A    between atoms: O_4  and  C_23
    5  A    between atoms: C_5  and  C_10
    6  A    between atoms: C_5  and  C_23
    7  A    between atoms: C_6  and  C_25
    8  A    between atoms: C_10  and  C_13
    9  A    between atoms: C_11  and  N_19
                            x       y       z     vdW  Elec       q    Type
                         _______ _______ _______ _____ _____    ______ ____

>  <TORSDO>
F 9

$$$$
=
 OpenBabel11072415253D

 25 26  0  0  1  0  0  0  0  0999 V2000
  161.2540  203.3430  150.7450 C   0  0  0  0  0  0  0  0  0  0  0  0
  161.5790  203.5450  148.2580 C   0  0  2  0  0  3  0  0  0  0  0  0
  161.1830  202.5970  149.4270 C   0  0  2  0  0  3  0  0  0  0  0  0
  161.6750  205.4210  149.4860 C   0  0  1  0  0  3  0  0  0  0  0  0
  161.4250  204.6730  150.7740 C   0  0  0  0  0  3  0  0  0  0  0  0
  161.0540  202.6080  152.0260 C   0  0  0  0  0  1  0  0  0  0  0  0
  161.0030  204.8210  148.4040 O   0  0  0  0  0  0  0  0  0  0  0  0
  163.0810  207.3170  147.8840 O   0  0  0  0  0  1  0  0  0  0  0  0
  161.3110  206.9010  149.6110 C   0  0  1  0  0  0  0  0  0  0  0  0
  162.1190  207.8480  148.7450 C   0  0  0  0  0  0  0  0  0  0  0  0
  162.3020  209.1630  149.1750 O   0  0  0  0  0  1  0  0  0  0  0  0
  160.6920  207.5160  148.3580 C   0  0  0  0  0  2  0  0  0  0  0  0
  160.8110  207.4850  150.9340 C   0  0  0  0  0  2  0  0  0  0  0  0
  161.9250  207.6170  151.9610 C   0  0  0  0  0  2  0  0  0  0  0  0
  161.6830  208.7160  152.7880 O   0  0  0  0  0  0  0  0  0  0  0  0
  161.2010  206.8480  154.1810 C   0  0  0  0  0  1  0  0  0  0  0  0
  160.8460  209.1620  154.9680 C   0  0  0  0  0  1  0  0  0  0  0  0
  160.7990  208.2480  153.7610 C   0  0  0  0  0  3  0  0  0  0  0  0
  159.6080  201.7040  147.9870 O   0  0  0  0  0  1  0  0  0  0  0  0
  159.9150  200.7560  149.9320 O   0  0  0  0  0  1  0  0  0  0  0  0
  159.8700  201.9480  149.2940 N   0  0  0  0  0  0  0  0  0  0  0  0
  161.4650  202.9790  146.8390 C   0  0  0  0  0  2  0  0  0  0  0  0
  161.9460  203.9390  145.7580 C   0  0  0  0  0  2  0  0  0  0  0  0
  160.7920  204.3380  144.8590 C   0  0  0  0  0  2  0  0  0  0  0  0
  160.5740  205.8330  144.9530 C   0  0  0  0  0  1  0  0  0  0  0  0
  1  5  2  0  0  0  0
  1  6  1  0  0  0  0
  2 22  1  6  0  0  0
  2  7  1  0  0  0  0
  2  3  1  0  0  0  0
  3 21  1  6  0  0  0
  3  1  1  0  0  0  0
  4  9  1  0  0  0  0
  4  5  1  1  0  0  0
  7  4  1  0  0  0  0
  8 10  1  0  0  0  0
  9 13  1  1  0  0  0
 10 11  1  0  0  0  0
 10  9  1  0  0  0  0
 12 10  1  0  0  0  0
 12  9  1  0  0  0  0
 13 14  1  0  0  0  0
 14 15  1  0  0  0  0
 15 18  1  0  0  0  0
 18 16  1  0  0  0  0
 18 17  1  0  0  0  0
 19 21  1  0  0  0  0
 21 20  1  0  0  0  0
 23 22  1  0  0  0  0
 24 25  1  0  0  0  0
 24 23  1  0  0  0  0
M  END
>  <MODEL>
9

>  <REMARK>
 VINA RESULT:      -5.7      2.428      6.005
  Name = 
  9 active torsions:
  status: ('A' for Active; 'I' for Inactive)
    1  A    between atoms: C_2  and  C_14
    2  A    between atoms: C_2  and  C_25
    3  A    between atoms: O_4  and  C_20
    4  A    between atoms: O_4  and  C_23
    5  A    between atoms: C_5  and  C_10
    6  A    between atoms: C_5  and  C_23
    7  A    between atoms: C_6  and  C_25
    8  A    between atoms: C_10  and  C_13
    9  A    between atoms: C_11  and  N_19
                            x       y       z     vdW  Elec       q    Type
                         _______ _______ _______ _____ _____    ______ ____

>  <TORSDO>
F 9

$$$$
