=
 OpenBabel11072414453D

 45 51  0  0  1  0  0  0  0  0999 V2000
  159.9560  211.1980  152.8080 O   0  0  0  0  0  0  0  0  0  0  0  0
  161.6710  210.6020  154.4630 C   0  0  0  0  0  2  0  0  0  0  0  0
  160.4490  208.0550  155.3200 S   0  0  0  0  0  0  0  0  0  0  0  0
  161.4280  207.8410  153.8190 C   0  0  1  0  0  3  0  0  0  0  0  0
  160.8740  207.0500  152.6490 C   0  0  1  0  0  3  0  0  0  0  0  0
  161.2540  210.6910  152.9650 C   0  0  1  0  0  3  0  0  0  0  0  0
  160.5730  208.5420  152.7820 C   0  0  2  0  0  3  0  0  0  0  0  0
  160.6860  209.8650  155.3640 C   0  0  0  0  0  0  0  0  0  0  0  0
  160.0590  210.5980  156.4230 S   0  0  0  0  0  0  0  0  0  0  0  0
  161.4390  209.4900  152.2250 O   0  0  0  0  0  0  0  0  0  0  0  0
  162.9720  206.0530  152.0470 F   0  0  0  0  0  0  0  0  0  0  0  0
  161.8860  206.7340  151.5280 C   0  0  1  0  0  3  0  0  0  0  0  0
  161.3370  205.9930  150.3090 C   0  0  0  0  0  2  0  0  0  0  0  0
  161.7080  204.6430  150.3410 O   0  0  0  0  0  0  0  0  0  0  0  0
  160.8620  203.9950  149.4350 C   0  0  0  0  0  2  0  0  0  0  0  0
  161.6480  203.2070  148.3900 C   0  0  1  0  0  3  0  0  0  0  0  0
  160.8170  202.0550  147.8420 C   0  0  0  0  0  2  0  0  0  0  0  0
  161.2330  200.7500  148.4830 C   0  0  0  0  0  1  0  0  0  0  0  0
  162.0470  204.0550  147.3500 O   0  0  0  0  0  0  0  0  0  0  0  0
  161.3970  203.5640  146.2170 C   0  0  0  0  0  2  0  0  0  0  0  0
  160.7320  205.8390  145.5130 C   0  0  0  0  0  2  0  0  0  0  0  0
  162.2410  205.8040  145.5920 C   0  0  0  0  0  2  0  0  0  0  0  0
  161.4820  204.5880  145.1010 C   0  0  0  0  0  3  0  0  0  0  0  0
  160.0690  212.1900  151.8340 C   0  0  0  0  0  2  0  0  0  0  0  0
  157.8990  212.8360  152.5480 O   0  0  0  0  0  1  0  0  0  0  0  0
  159.1380  213.3440  152.1630 C   0  0  2  0  0  3  0  0  0  0  0  0
  158.9490  214.2240  150.9410 C   0  0  0  0  0  2  0  0  0  0  0  0
  158.1120  213.5000  149.9090 C   0  0  0  0  0  2  0  0  0  0  0  0
  158.3630  214.1050  148.5450 C   0  0  0  0  0  2  0  0  0  0  0  0
  158.9420  213.0520  147.6210 C   0  0  1  0  0  3  0  0  0  0  0  0
  161.0800  212.3480  147.7850 C   0  0  0  0  0  0  0  0  0  0  0  0
  161.1470  212.6420  146.4260 O   0  0  0  0  0  0  0  0  0  0  0  0
  159.0430  213.5940  146.2630 C   0  0  1  0  0  3  0  0  0  0  0  0
  162.5830  212.1860  148.0580 C   0  0  0  0  0  2  0  0  0  0  0  0
  160.3330  213.5170  147.1450 C   0  0  1  0  0  0  0  0  0  0  0  0
  161.8570  213.2290  148.7820 C   0  0  0  0  0  2  0  0  0  0  0  0
  158.8050  212.4500  145.2740 C   0  0  0  0  0  2  0  0  0  0  0  0
  158.9760  212.9280  143.8360 C   0  0  0  0  0  2  0  0  0  0  0  0
  161.2760  210.3580  140.5420 O   0  0  0  0  0  0  0  0  0  0  0  0
  162.4680  212.2720  141.2530 C   0  0  0  0  0  2  0  0  0  0  0  0
  160.2420  212.3620  143.2100 C   0  0  1  0  0  3  0  0  0  0  0  0
  159.9670  211.8730  141.7880 C   0  0  0  0  0  2  0  0  0  0  0  0
  162.6410  212.8140  142.6700 C   0  0  0  0  0  2  0  0  0  0  0  0
  161.2450  211.4050  141.1660 C   0  0  0  0  0  0  0  0  0  0  0  0
  161.3410  213.4240  143.1970 C   0  0  0  0  0  2  0  0  0  0  0  0
  2  8  1  0  0  0  0
  3  8  1  0  0  0  0
  4  3  1  1  0  0  0
  5 12  1  6  0  0  0
  5  7  1  0  0  0  0
  5  4  1  0  0  0  0
  6  1  1  1  0  0  0
  6  2  1  0  0  0  0
  7 10  1  6  0  0  0
  7  4  1  0  0  0  0
  8  9  2  0  0  0  0
 10  6  1  0  0  0  0
 12 11  1  1  0  0  0
 13 14  1  0  0  0  0
 13 12  1  0  0  0  0
 15 14  1  0  0  0  0
 16 17  1  6  0  0  0
 16 15  1  0  0  0  0
 17 18  1  0  0  0  0
 19 16  1  0  0  0  0
 20 19  1  0  0  0  0
 21 22  1  0  0  0  0
 23 21  1  0  0  0  0
 23 22  1  0  0  0  0
 23 20  1  0  0  0  0
 24 26  1  0  0  0  0
 24  1  1  0  0  0  0
 26 25  1  6  0  0  0
 27 26  1  0  0  0  0
 28 27  1  0  0  0  0
 29 28  1  0  0  0  0
 30 29  1  1  0  0  0
 31 34  1  0  0  0  0
 31 36  1  0  0  0  0
 32 31  1  0  0  0  0
 33 37  1  6  0  0  0
 33 35  1  0  0  0  0
 33 30  1  0  0  0  0
 34 36  1  0  0  0  0
 35 32  1  6  0  0  0
 35 30  1  0  0  0  0
 35 31  1  0  0  0  0
 38 37  1  0  0  0  0
 39 44  2  0  0  0  0
 40 43  1  0  0  0  0
 41 38  1  6  0  0  0
 42 41  1  0  0  0  0
 43 45  1  0  0  0  0
 44 40  1  0  0  0  0
 44 42  1  0  0  0  0
 45 41  1  0  0  0  0
M  END
>  <MODEL>
1

>  <REMARK>
 VINA RESULT:      -7.0      0.000      0.000
  Name = 
  19 active torsions:
  status: ('A' for Active; 'I' for Inactive)
    1  A    between atoms: C_2  and  O_12
    2  A    between atoms: C_2  and  C_14
    3  A    between atoms: C_2  and  C_15
    4  A    between atoms: C_4  and  C_35
    5  A    between atoms: C_5  and  C_11
    6  A    between atoms: C_5  and  C_38
    7  A    between atoms: O_6  and  C_26
    8  A    between atoms: O_6  and  C_38
    9  A    between atoms: O_9  and  C_14
   10  A    between atoms: O_9  and  C_44
   11  A    between atoms: C_11  and  C_34
   12  A    between atoms: O_12  and  C_30
   13  A    between atoms: C_13  and  C_23
   14  A    between atoms: C_13  and  C_44
   15  A    between atoms: C_22  and  C_31
   16  A    between atoms: C_29  and  C_31
   17  A    between atoms: C_29  and  C_32
   18  A    between atoms: C_30  and  C_45
   19  A    between atoms: C_34  and  C_35
                            x       y       z     vdW  Elec       q    Type
                         _______ _______ _______ _____ _____    ______ ____

>  <TORSDO>
F 19

$$$$
=
 OpenBabel11072414453D

 45 51  0  0  1  0  0  0  0  0999 V2000
  162.1280  207.8500  148.8750 O   0  0  0  0  0  0  0  0  0  0  0  0
  160.3390  206.4780  147.9010 C   0  0  0  0  0  2  0  0  0  0  0  0
  161.7260  203.8830  148.1420 S   0  0  0  0  0  0  0  0  0  0  0  0
  160.9140  204.3390  149.6870 C   0  0  1  0  0  3  0  0  0  0  0  0
  161.6480  204.2030  151.0080 C   0  0  1  0  0  3  0  0  0  0  0  0
  160.8800  207.2660  149.1300 C   0  0  1  0  0  3  0  0  0  0  0  0
  161.7850  205.4780  150.1780 C   0  0  2  0  0  3  0  0  0  0  0  0
  161.3070  205.4560  147.3140 C   0  0  0  0  0  0  0  0  0  0  0  0
  161.7590  205.6480  145.9680 S   0  0  0  0  0  0  0  0  0  0  0  0
  160.8830  206.5340  150.3510 O   0  0  0  0  0  0  0  0  0  0  0  0
  160.4090  203.1600  152.7790 F   0  0  0  0  0  0  0  0  0  0  0  0
  160.7780  204.3920  152.2690 C   0  0  1  0  0  3  0  0  0  0  0  0
  161.3710  205.2610  153.3770 C   0  0  0  0  0  2  0  0  0  0  0  0
  160.4970  206.3030  153.7110 O   0  0  0  0  0  0  0  0  0  0  0  0
  161.2710  207.2420  154.4020 C   0  0  0  0  0  2  0  0  0  0  0  0
  160.4760  208.5020  154.7270 C   0  0  1  0  0  3  0  0  0  0  0  0
  160.1050  208.5440  156.2030 C   0  0  0  0  0  2  0  0  0  0  0  0
  161.1640  207.8580  157.0350 C   0  0  0  0  0  1  0  0  0  0  0  0
  161.2160  209.6390  154.3810 O   0  0  0  0  0  0  0  0  0  0  0  0
  160.3080  210.6960  154.4540 C   0  0  0  0  0  2  0  0  0  0  0  0
  158.8860  211.5020  152.5990 C   0  0  0  0  0  2  0  0  0  0  0  0
  159.4750  212.7120  153.2880 C   0  0  0  0  0  2  0  0  0  0  0  0
  160.3020  211.4510  153.1390 C   0  0  0  0  0  3  0  0  0  0  0  0
  161.8440  209.1480  148.4540 C   0  0  0  0  0  2  0  0  0  0  0  0
  162.1020  209.6810  150.7520 O   0  0  0  0  0  1  0  0  0  0  0  0
  162.3740  210.1470  149.4680 C   0  0  2  0  0  3  0  0  0  0  0  0
  161.6950  211.4910  149.2780 C   0  0  0  0  0  2  0  0  0  0  0  0
  162.2300  212.1670  148.0330 C   0  0  0  0  0  2  0  0  0  0  0  0
  161.7350  213.5960  147.9860 C   0  0  0  0  0  2  0  0  0  0  0  0
  161.1520  213.8860  146.6170 C   0  0  1  0  0  3  0  0  0  0  0  0
  158.9800  213.5210  146.1300 C   0  0  0  0  0  0  0  0  0  0  0  0
  159.4750  212.7990  145.0470 O   0  0  0  0  0  0  0  0  0  0  0  0
  161.7080  212.9450  145.6390 C   0  0  1  0  0  3  0  0  0  0  0  0
  157.5210  213.0430  146.0730 C   0  0  0  0  0  2  0  0  0  0  0  0
  160.2660  212.6990  146.1910 C   0  0  1  0  0  0  0  0  0  0  0  0
  158.2930  212.7650  147.2830 C   0  0  0  0  0  2  0  0  0  0  0  0
  161.8270  213.6690  144.2960 C   0  0  0  0  0  2  0  0  0  0  0  0
  162.4790  212.7720  143.2490 C   0  0  0  0  0  2  0  0  0  0  0  0
  162.0810  213.2250  138.5190 O   0  0  0  0  0  0  0  0  0  0  0  0
  160.6650  211.5680  139.4350 C   0  0  0  0  0  2  0  0  0  0  0  0
  161.6780  212.7540  141.9560 C   0  0  1  0  0  3  0  0  0  0  0  0
  162.6090  212.6630  140.7470 C   0  0  0  0  0  2  0  0  0  0  0  0
  159.8250  211.6310  140.7080 C   0  0  0  0  0  2  0  0  0  0  0  0
  161.7930  212.5570  139.4970 C   0  0  0  0  0  0  0  0  0  0  0  0
  160.7030  211.5770  141.9580 C   0  0  0  0  0  2  0  0  0  0  0  0
  2  6  1  0  0  0  0
  4  3  1  6  0  0  0
  4  7  1  0  0  0  0
  4  5  1  0  0  0  0
  5 12  1  1  0  0  0
  6  1  1  6  0  0  0
  6 10  1  0  0  0  0
  7 10  1  1  0  0  0
  7  5  1  0  0  0  0
  8  2  1  0  0  0  0
  8  3  1  0  0  0  0
  9  8  2  0  0  0  0
 12 11  1  1  0  0  0
 12 13  1  0  0  0  0
 13 14  1  0  0  0  0
 14 15  1  0  0  0  0
 16 15  1  1  0  0  0
 16 17  1  0  0  0  0
 17 18  1  0  0  0  0
 19 20  1  0  0  0  0
 19 16  1  0  0  0  0
 21 23  1  0  0  0  0
 21 22  1  0  0  0  0
 23 22  1  0  0  0  0
 23 20  1  0  0  0  0
 24  1  1  0  0  0  0
 24 26  1  0  0  0  0
 26 25  1  1  0  0  0
 27 26  1  0  0  0  0
 28 27  1  0  0  0  0
 29 28  1  0  0  0  0
 30 29  1  1  0  0  0
 31 35  1  0  0  0  0
 31 36  1  0  0  0  0
 32 31  1  0  0  0  0
 33 37  1  6  0  0  0
 33 35  1  0  0  0  0
 33 30  1  0  0  0  0
 34 31  1  0  0  0  0
 34 36  1  0  0  0  0
 35 32  1  6  0  0  0
 35 30  1  0  0  0  0
 38 37  1  0  0  0  0
 39 44  2  0  0  0  0
 40 44  1  0  0  0  0
 40 43  1  0  0  0  0
 41 45  1  0  0  0  0
 41 38  1  1  0  0  0
 42 41  1  0  0  0  0
 43 45  1  0  0  0  0
 44 42  1  0  0  0  0
M  END
>  <MODEL>
2

>  <REMARK>
 VINA RESULT:      -6.6      2.895      6.103
  Name = 
  19 active torsions:
  status: ('A' for Active; 'I' for Inactive)
    1  A    between atoms: C_2  and  O_12
    2  A    between atoms: C_2  and  C_14
    3  A    between atoms: C_2  and  C_15
    4  A    between atoms: C_4  and  C_35
    5  A    between atoms: C_5  and  C_11
    6  A    between atoms: C_5  and  C_38
    7  A    between atoms: O_6  and  C_26
    8  A    between atoms: O_6  and  C_38
    9  A    between atoms: O_9  and  C_14
   10  A    between atoms: O_9  and  C_44
   11  A    between atoms: C_11  and  C_34
   12  A    between atoms: O_12  and  C_30
   13  A    between atoms: C_13  and  C_23
   14  A    between atoms: C_13  and  C_44
   15  A    between atoms: C_22  and  C_31
   16  A    between atoms: C_29  and  C_31
   17  A    between atoms: C_29  and  C_32
   18  A    between atoms: C_30  and  C_45
   19  A    between atoms: C_34  and  C_35
                            x       y       z     vdW  Elec       q    Type
                         _______ _______ _______ _____ _____    ______ ____

>  <TORSDO>
F 19

$$$$
=
 OpenBabel11072414453D

 45 51  0  0  1  0  0  0  0  0999 V2000
  160.4570  211.8880  153.8970 O   0  0  0  0  0  0  0  0  0  0  0  0
  158.3130  211.4660  152.7760 C   0  0  0  0  0  2  0  0  0  0  0  0
  157.7660  214.2670  152.0190 S   0  0  0  0  0  0  0  0  0  0  0  0
  158.8610  213.4670  150.8280 C   0  0  1  0  0  3  0  0  0  0  0  0
  160.1060  214.1800  150.3330 C   0  0  1  0  0  3  0  0  0  0  0  0
  159.8680  211.3990  152.7220 C   0  0  1  0  0  3  0  0  0  0  0  0
  160.1510  213.3510  151.6150 C   0  0  2  0  0  3  0  0  0  0  0  0
  157.7390  212.8300  153.1450 C   0  0  0  0  0  0  0  0  0  0  0  0
  156.9750  212.9380  154.3530 S   0  0  0  0  0  0  0  0  0  0  0  0
  160.4480  211.9840  151.5620 O   0  0  0  0  0  0  0  0  0  0  0  0
  160.6020  212.1380  149.1730 F   0  0  0  0  0  0  0  0  0  0  0  0
  160.8260  213.5030  149.1480 C   0  0  1  0  0  3  0  0  0  0  0  0
  160.5140  214.0580  147.7590 C   0  0  0  0  0  2  0  0  0  0  0  0
  160.6050  213.0510  146.7900 O   0  0  0  0  0  0  0  0  0  0  0  0
  160.7000  213.7140  145.5610 C   0  0  0  0  0  2  0  0  0  0  0  0
  160.6660  212.7390  144.3880 C   0  0  1  0  0  3  0  0  0  0  0  0
  159.5410  213.0890  143.4240 C   0  0  0  0  0  2  0  0  0  0  0  0
  158.6880  214.2030  143.9870 C   0  0  0  0  0  1  0  0  0  0  0  0
  161.8960  212.7470  143.7210 O   0  0  0  0  0  0  0  0  0  0  0  0
  161.7430  213.6810  142.6950 C   0  0  0  0  0  2  0  0  0  0  0  0
  162.0360  213.9510  140.2550 C   0  0  0  0  0  2  0  0  0  0  0  0
  163.2920  214.4530  140.9280 C   0  0  0  0  0  2  0  0  0  0  0  0
  162.5620  213.2520  141.4930 C   0  0  0  0  0  3  0  0  0  0  0  0
  161.3580  210.8990  154.2900 C   0  0  0  0  0  2  0  0  0  0  0  0
  161.9420  210.1840  156.4770 O   0  0  0  0  0  1  0  0  0  0  0  0
  160.8810  210.2480  155.5760 C   0  0  2  0  0  3  0  0  0  0  0  0
  160.3870  208.8410  155.2960 C   0  0  0  0  0  2  0  0  0  0  0  0
  161.3470  208.1360  154.3600 C   0  0  0  0  0  2  0  0  0  0  0  0
  160.8070  206.7610  154.0310 C   0  0  0  0  0  2  0  0  0  0  0  0
  161.6070  206.1610  152.8910 C   0  0  1  0  0  3  0  0  0  0  0  0
  162.1810  207.3520  151.0630 C   0  0  0  0  0  0  0  0  0  0  0  0
  161.6110  206.2980  150.3540 O   0  0  0  0  0  0  0  0  0  0  0  0
  160.7940  205.1600  152.1960 C   0  0  1  0  0  3  0  0  0  0  0  0
  162.2910  208.3660  149.9140 C   0  0  0  0  0  2  0  0  0  0  0  0
  160.9600  206.5770  151.5550 C   0  0  1  0  0  0  0  0  0  0  0  0
  161.4710  208.7200  151.0720 C   0  0  0  0  0  2  0  0  0  0  0  0
  161.7250  204.0530  151.6950 C   0  0  0  0  0  2  0  0  0  0  0  0
  160.9460  202.7750  151.4030 C   0  0  0  0  0  2  0  0  0  0  0  0
  161.1080  204.3150  146.8920 O   0  0  0  0  0  0  0  0  0  0  0  0
  161.3770  201.9760  147.1050 C   0  0  0  0  0  2  0  0  0  0  0  0
  160.6760  202.6170  149.9140 C   0  0  1  0  0  3  0  0  0  0  0  0
  161.5100  203.6120  149.1070 C   0  0  0  0  0  2  0  0  0  0  0  0
  160.6100  201.0070  148.0020 C   0  0  0  0  0  2  0  0  0  0  0  0
  161.2920  203.3750  147.6450 C   0  0  0  0  0  0  0  0  0  0  0  0
  160.9900  201.1880  149.4720 C   0  0  0  0  0  2  0  0  0  0  0  0
  1 24  1  0  0  0  0
  2  8  1  0  0  0  0
  3  8  1  0  0  0  0
  4  7  1  0  0  0  0
  4  3  1  1  0  0  0
  5 12  1  6  0  0  0
  5  4  1  0  0  0  0
  5  7  1  0  0  0  0
  6  2  1  0  0  0  0
  6  1  1  1  0  0  0
  7 10  1  6  0  0  0
  8  9  2  0  0  0  0
 10  6  1  0  0  0  0
 12 11  1  6  0  0  0
 13 12  1  0  0  0  0
 14 13  1  0  0  0  0
 15 14  1  0  0  0  0
 16 17  1  6  0  0  0
 16 15  1  0  0  0  0
 17 18  1  0  0  0  0
 19 16  1  0  0  0  0
 20 19  1  0  0  0  0
 21 22  1  0  0  0  0
 21 23  1  0  0  0  0
 22 23  1  0  0  0  0
 23 20  1  0  0  0  0
 24 26  1  0  0  0  0
 26 25  1  1  0  0  0
 27 26  1  0  0  0  0
 28 27  1  0  0  0  0
 29 28  1  0  0  0  0
 30 29  1  1  0  0  0
 31 36  1  0  0  0  0
 31 35  1  0  0  0  0
 32 31  1  0  0  0  0
 33 37  1  6  0  0  0
 33 30  1  0  0  0  0
 34 31  1  0  0  0  0
 34 36  1  0  0  0  0
 35 32  1  6  0  0  0
 35 33  1  0  0  0  0
 35 30  1  0  0  0  0
 38 37  1  0  0  0  0
 39 44  2  0  0  0  0
 40 44  1  0  0  0  0
 40 43  1  0  0  0  0
 41 38  1  1  0  0  0
 42 41  1  0  0  0  0
 43 45  1  0  0  0  0
 44 42  1  0  0  0  0
 45 41  1  0  0  0  0
M  END
>  <MODEL>
3

>  <REMARK>
 VINA RESULT:      -6.2      2.295      8.782
  Name = 
  19 active torsions:
  status: ('A' for Active; 'I' for Inactive)
    1  A    between atoms: C_2  and  O_12
    2  A    between atoms: C_2  and  C_14
    3  A    between atoms: C_2  and  C_15
    4  A    between atoms: C_4  and  C_35
    5  A    between atoms: C_5  and  C_11
    6  A    between atoms: C_5  and  C_38
    7  A    between atoms: O_6  and  C_26
    8  A    between atoms: O_6  and  C_38
    9  A    between atoms: O_9  and  C_14
   10  A    between atoms: O_9  and  C_44
   11  A    between atoms: C_11  and  C_34
   12  A    between atoms: O_12  and  C_30
   13  A    between atoms: C_13  and  C_23
   14  A    between atoms: C_13  and  C_44
   15  A    between atoms: C_22  and  C_31
   16  A    between atoms: C_29  and  C_31
   17  A    between atoms: C_29  and  C_32
   18  A    between atoms: C_30  and  C_45
   19  A    between atoms: C_34  and  C_35
                            x       y       z     vdW  Elec       q    Type
                         _______ _______ _______ _____ _____    ______ ____

>  <TORSDO>
F 19

$$$$
=
 OpenBabel11072414453D

 45 51  0  0  1  0  0  0  0  0999 V2000
  162.1730  207.8050  149.5810 O   0  0  0  0  0  0  0  0  0  0  0  0
  160.2880  206.2320  149.6300 C   0  0  0  0  0  2  0  0  0  0  0  0
  161.5440  204.2470  151.4180 S   0  0  0  0  0  0  0  0  0  0  0  0
  160.8020  205.5970  152.3560 C   0  0  1  0  0  3  0  0  0  0  0  0
  161.5650  206.2530  153.4920 C   0  0  1  0  0  3  0  0  0  0  0  0
  160.9040  207.5730  150.1270 C   0  0  1  0  0  3  0  0  0  0  0  0
  161.7440  206.7450  152.0570 C   0  0  2  0  0  3  0  0  0  0  0  0
  161.1840  205.0100  149.7980 C   0  0  0  0  0  0  0  0  0  0  0  0
  161.6070  204.3130  148.6200 S   0  0  0  0  0  0  0  0  0  0  0  0
  160.9040  207.7380  151.5410 O   0  0  0  0  0  0  0  0  0  0  0  0
  159.8690  206.5120  155.1700 F   0  0  0  0  0  0  0  0  0  0  0  0
  160.7430  207.2220  154.3670 C   0  0  1  0  0  3  0  0  0  0  0  0
  161.5410  208.2140  155.2120 C   0  0  0  0  0  2  0  0  0  0  0  0
  160.6930  209.1660  155.7930 O   0  0  0  0  0  0  0  0  0  0  0  0
  161.1060  210.4030  155.2860 C   0  0  0  0  0  2  0  0  0  0  0  0
  160.0250  211.0530  154.4280 C   0  0  1  0  0  3  0  0  0  0  0  0
  159.1340  211.9550  155.2710 C   0  0  0  0  0  2  0  0  0  0  0  0
  157.9170  211.1970  155.7530 C   0  0  0  0  0  1  0  0  0  0  0  0
  160.6120  211.7860  153.3900 O   0  0  0  0  0  0  0  0  0  0  0  0
  159.5640  212.5140  152.8260 C   0  0  0  0  0  2  0  0  0  0  0  0
  158.6310  213.3830  150.7070 C   0  0  0  0  0  2  0  0  0  0  0  0
  159.8130  214.2480  151.0800 C   0  0  0  0  0  2  0  0  0  0  0  0
  159.8510  212.7590  151.3570 C   0  0  0  0  0  3  0  0  0  0  0  0
  161.9760  208.7800  148.6030 C   0  0  0  0  0  2  0  0  0  0  0  0
  162.3860  210.1420  150.5030 O   0  0  0  0  0  1  0  0  0  0  0  0
  162.4610  210.1260  149.1120 C   0  0  2  0  0  3  0  0  0  0  0  0
  161.5880  211.2370  148.5590 C   0  0  0  0  0  2  0  0  0  0  0  0
  162.4390  212.2230  147.7860 C   0  0  0  0  0  2  0  0  0  0  0  0
  161.8460  213.6090  147.9180 C   0  0  0  0  0  2  0  0  0  0  0  0
  161.2800  214.0480  146.5820 C   0  0  1  0  0  3  0  0  0  0  0  0
  159.1330  213.6720  146.0000 C   0  0  0  0  0  0  0  0  0  0  0  0
  159.6760  213.1100  144.8480 O   0  0  0  0  0  0  0  0  0  0  0  0
  161.8900  213.2580  145.5080 C   0  0  1  0  0  3  0  0  0  0  0  0
  157.6940  213.1550  145.8480 C   0  0  0  0  0  2  0  0  0  0  0  0
  160.4470  212.8940  145.9900 C   0  0  1  0  0  0  0  0  0  0  0  0
  158.4520  212.7540  147.0330 C   0  0  0  0  0  2  0  0  0  0  0  0
  162.0090  214.1480  144.2690 C   0  0  0  0  0  2  0  0  0  0  0  0
  162.8080  213.4530  143.1730 C   0  0  0  0  0  2  0  0  0  0  0  0
  161.9560  213.5470  138.4810 O   0  0  0  0  0  0  0  0  0  0  0  0
  161.0880  211.6330  139.5640 C   0  0  0  0  0  2  0  0  0  0  0  0
  161.9450  213.1650  141.9530 C   0  0  1  0  0  3  0  0  0  0  0  0
  162.7750  213.2530  140.6730 C   0  0  0  0  0  2  0  0  0  0  0  0
  160.3570  211.5450  140.9020 C   0  0  0  0  0  2  0  0  0  0  0  0
  161.9230  212.8790  139.5000 C   0  0  0  0  0  0  0  0  0  0  0  0
  161.3100  211.7800  142.0740 C   0  0  0  0  0  2  0  0  0  0  0  0
  2  8  1  0  0  0  0
  2  6  1  0  0  0  0
  4  3  1  6  0  0  0
  4  5  1  0  0  0  0
  5 12  1  1  0  0  0
  6  1  1  1  0  0  0
  6 10  1  0  0  0  0
  7 10  1  1  0  0  0
  7  4  1  0  0  0  0
  7  5  1  0  0  0  0
  8  3  1  0  0  0  0
  9  8  2  0  0  0  0
 12 11  1  1  0  0  0
 12 13  1  0  0  0  0
 13 14  1  0  0  0  0
 15 14  1  0  0  0  0
 16 17  1  1  0  0  0
 16 15  1  0  0  0  0
 17 18  1  0  0  0  0
 19 16  1  0  0  0  0
 20 19  1  0  0  0  0
 21 22  1  0  0  0  0
 21 23  1  0  0  0  0
 22 23  1  0  0  0  0
 23 20  1  0  0  0  0
 24 26  1  0  0  0  0
 24  1  1  0  0  0  0
 26 25  1  1  0  0  0
 27 26  1  0  0  0  0
 28 29  1  0  0  0  0
 28 27  1  0  0  0  0
 30 29  1  1  0  0  0
 31 36  1  0  0  0  0
 32 31  1  0  0  0  0
 33 37  1  6  0  0  0
 33 35  1  0  0  0  0
 33 30  1  0  0  0  0
 34 31  1  0  0  0  0
 34 36  1  0  0  0  0
 35 32  1  6  0  0  0
 35 31  1  0  0  0  0
 35 30  1  0  0  0  0
 38 37  1  0  0  0  0
 39 44  2  0  0  0  0
 40 43  1  0  0  0  0
 41 45  1  0  0  0  0
 41 38  1  1  0  0  0
 42 41  1  0  0  0  0
 43 45  1  0  0  0  0
 44 40  1  0  0  0  0
 44 42  1  0  0  0  0
M  END
>  <MODEL>
4

>  <REMARK>
 VINA RESULT:      -6.1      2.733      6.234
  Name = 
  19 active torsions:
  status: ('A' for Active; 'I' for Inactive)
    1  A    between atoms: C_2  and  O_12
    2  A    between atoms: C_2  and  C_14
    3  A    between atoms: C_2  and  C_15
    4  A    between atoms: C_4  and  C_35
    5  A    between atoms: C_5  and  C_11
    6  A    between atoms: C_5  and  C_38
    7  A    between atoms: O_6  and  C_26
    8  A    between atoms: O_6  and  C_38
    9  A    between atoms: O_9  and  C_14
   10  A    between atoms: O_9  and  C_44
   11  A    between atoms: C_11  and  C_34
   12  A    between atoms: O_12  and  C_30
   13  A    between atoms: C_13  and  C_23
   14  A    between atoms: C_13  and  C_44
   15  A    between atoms: C_22  and  C_31
   16  A    between atoms: C_29  and  C_31
   17  A    between atoms: C_29  and  C_32
   18  A    between atoms: C_30  and  C_45
   19  A    between atoms: C_34  and  C_35
                            x       y       z     vdW  Elec       q    Type
                         _______ _______ _______ _____ _____    ______ ____

>  <TORSDO>
F 19

$$$$
=
 OpenBabel11072414453D

 45 51  0  0  1  0  0  0  0  0999 V2000
  160.5650  211.4740  153.9350 O   0  0  0  0  0  0  0  0  0  0  0  0
  161.8390  210.1680  155.5790 C   0  0  0  0  0  2  0  0  0  0  0  0
  160.1180  207.7700  155.5200 S   0  0  0  0  0  0  0  0  0  0  0  0
  161.3120  207.7530  154.1680 C   0  0  1  0  0  3  0  0  0  0  0  0
  160.8720  207.4000  152.7600 C   0  0  1  0  0  3  0  0  0  0  0  0
  161.7220  210.7050  154.1220 C   0  0  1  0  0  3  0  0  0  0  0  0
  160.7760  208.8400  153.2590 C   0  0  2  0  0  3  0  0  0  0  0  0
  160.6080  209.4330  156.0960 C   0  0  0  0  0  0  0  0  0  0  0  0
  159.9120  209.9850  157.2210 S   0  0  0  0  0  0  0  0  0  0  0  0
  161.8600  209.7130  153.1100 O   0  0  0  0  0  0  0  0  0  0  0  0
  162.5170  205.9020  151.8610 F   0  0  0  0  0  0  0  0  0  0  0  0
  162.0140  207.1850  151.7450 C   0  0  1  0  0  3  0  0  0  0  0  0
  161.6880  207.4890  150.2830 C   0  0  0  0  0  2  0  0  0  0  0  0
  162.1830  206.4830  149.4450 O   0  0  0  0  0  0  0  0  0  0  0  0
  161.5910  206.7020  148.1970 C   0  0  0  0  0  2  0  0  0  0  0  0
  161.2910  205.3930  147.4740 C   0  0  1  0  0  3  0  0  0  0  0  0
  161.8840  205.3990  146.0720 C   0  0  0  0  0  2  0  0  0  0  0  0
  160.7860  205.4260  145.0320 C   0  0  0  0  0  1  0  0  0  0  0  0
  161.7950  204.3130  148.2080 O   0  0  0  0  0  0  0  0  0  0  0  0
  160.9060  203.2650  147.9640 C   0  0  0  0  0  2  0  0  0  0  0  0
  160.6220  202.3170  150.2300 C   0  0  0  0  0  2  0  0  0  0  0  0
  159.9690  201.3710  149.2490 C   0  0  0  0  0  2  0  0  0  0  0  0
  161.2440  202.0930  148.8660 C   0  0  0  0  0  3  0  0  0  0  0  0
  160.3200  211.4360  152.5630 C   0  0  0  0  0  2  0  0  0  0  0  0
  158.1890  212.4730  152.6970 O   0  0  0  0  0  1  0  0  0  0  0  0
  159.4650  212.6240  152.1590 C   0  0  2  0  0  3  0  0  0  0  0  0
  159.3540  212.6960  150.6470 C   0  0  0  0  0  2  0  0  0  0  0  0
  159.4370  214.1380  150.1930 C   0  0  0  0  0  2  0  0  0  0  0  0
  160.8590  214.4530  149.7820 C   0  0  0  0  0  2  0  0  0  0  0  0
  161.1500  213.8220  148.4340 C   0  0  1  0  0  3  0  0  0  0  0  0
  161.7690  211.6630  148.2220 C   0  0  0  0  0  0  0  0  0  0  0  0
  162.8330  212.1730  147.4820 O   0  0  0  0  0  0  0  0  0  0  0  0
  162.3710  214.4070  147.8730 C   0  0  1  0  0  3  0  0  0  0  0  0
  162.2930  210.2330  148.4200 C   0  0  0  0  0  2  0  0  0  0  0  0
  162.4460  212.9950  148.5410 C   0  0  1  0  0  0  0  0  0  0  0  0
  162.0450  211.0490  149.6070 C   0  0  0  0  0  2  0  0  0  0  0  0
  162.2230  214.4530  146.3510 C   0  0  0  0  0  2  0  0  0  0  0  0
  160.7660  214.2760  145.9390 C   0  0  0  0  0  2  0  0  0  0  0  0
  162.6430  212.9810  141.7510 O   0  0  0  0  0  0  0  0  0  0  0  0
  160.6970  211.7720  142.3320 C   0  0  0  0  0  2  0  0  0  0  0  0
  160.6490  213.7910  144.5020 C   0  0  1  0  0  3  0  0  0  0  0  0
  161.9940  213.2660  144.0000 C   0  0  0  0  0  2  0  0  0  0  0  0
  159.3970  212.2940  142.9390 C   0  0  0  0  0  2  0  0  0  0  0  0
  161.8290  212.7150  142.6180 C   0  0  0  0  0  0  0  0  0  0  0  0
  159.5870  212.6960  144.4020 C   0  0  0  0  0  2  0  0  0  0  0  0
  2  8  1  0  0  0  0
  3  8  1  0  0  0  0
  4  3  1  1  0  0  0
  5 12  1  6  0  0  0
  5  7  1  0  0  0  0
  5  4  1  0  0  0  0
  6  1  1  1  0  0  0
  6  2  1  0  0  0  0
  7 10  1  6  0  0  0
  7  4  1  0  0  0  0
  8  9  2  0  0  0  0
 10  6  1  0  0  0  0
 12 11  1  6  0  0  0
 13 12  1  0  0  0  0
 14 13  1  0  0  0  0
 15 14  1  0  0  0  0
 16 17  1  6  0  0  0
 16 15  1  0  0  0  0
 16 19  1  0  0  0  0
 18 17  1  0  0  0  0
 20 19  1  0  0  0  0
 20 23  1  0  0  0  0
 22 21  1  0  0  0  0
 23 22  1  0  0  0  0
 23 21  1  0  0  0  0
 24  1  1  0  0  0  0
 26 24  1  0  0  0  0
 26 25  1  1  0  0  0
 27 26  1  0  0  0  0
 28 27  1  0  0  0  0
 29 28  1  0  0  0  0
 30 35  1  0  0  0  0
 30 29  1  1  0  0  0
 31 34  1  0  0  0  0
 31 35  1  0  0  0  0
 31 36  1  0  0  0  0
 32 31  1  0  0  0  0
 33 37  1  6  0  0  0
 33 30  1  0  0  0  0
 33 35  1  0  0  0  0
 34 36  1  0  0  0  0
 35 32  1  6  0  0  0
 38 37  1  0  0  0  0
 39 44  2  0  0  0  0
 40 44  1  0  0  0  0
 40 43  1  0  0  0  0
 41 38  1  1  0  0  0
 42 41  1  0  0  0  0
 43 45  1  0  0  0  0
 44 42  1  0  0  0  0
 45 41  1  0  0  0  0
M  END
>  <MODEL>
5

>  <REMARK>
 VINA RESULT:      -5.9      1.357      2.627
  Name = 
  19 active torsions:
  status: ('A' for Active; 'I' for Inactive)
    1  A    between atoms: C_2  and  O_12
    2  A    between atoms: C_2  and  C_14
    3  A    between atoms: C_2  and  C_15
    4  A    between atoms: C_4  and  C_35
    5  A    between atoms: C_5  and  C_11
    6  A    between atoms: C_5  and  C_38
    7  A    between atoms: O_6  and  C_26
    8  A    between atoms: O_6  and  C_38
    9  A    between atoms: O_9  and  C_14
   10  A    between atoms: O_9  and  C_44
   11  A    between atoms: C_11  and  C_34
   12  A    between atoms: O_12  and  C_30
   13  A    between atoms: C_13  and  C_23
   14  A    between atoms: C_13  and  C_44
   15  A    between atoms: C_22  and  C_31
   16  A    between atoms: C_29  and  C_31
   17  A    between atoms: C_29  and  C_32
   18  A    between atoms: C_30  and  C_45
   19  A    between atoms: C_34  and  C_35
                            x       y       z     vdW  Elec       q    Type
                         _______ _______ _______ _____ _____    ______ ____

>  <TORSDO>
F 19

$$$$
=
 OpenBabel11072414453D

 45 51  0  0  1  0  0  0  0  0999 V2000
  158.8700  211.1040  153.8820 O   0  0  0  0  0  0  0  0  0  0  0  0
  161.0670  211.3660  154.9480 C   0  0  0  0  0  2  0  0  0  0  0  0
  160.7390  209.2140  156.9420 S   0  0  0  0  0  0  0  0  0  0  0  0
  161.2810  208.5580  155.3510 C   0  0  1  0  0  3  0  0  0  0  0  0
  160.6150  207.3280  154.7610 C   0  0  1  0  0  3  0  0  0  0  0  0
  160.2390  210.8370  153.7400 C   0  0  1  0  0  3  0  0  0  0  0  0
  160.0360  208.7180  154.5020 C   0  0  2  0  0  3  0  0  0  0  0  0
  160.5650  210.9210  156.3180 C   0  0  0  0  0  0  0  0  0  0  0  0
  160.1110  211.9270  157.2320 S   0  0  0  0  0  0  0  0  0  0  0  0
  160.4750  209.4740  153.4090 O   0  0  0  0  0  0  0  0  0  0  0  0
  162.5530  206.2160  153.8860 F   0  0  0  0  0  0  0  0  0  0  0  0
  161.3170  206.7250  153.5270 C   0  0  1  0  0  3  0  0  0  0  0  0
  160.5270  205.6780  152.7430 C   0  0  0  0  0  2  0  0  0  0  0  0
  161.3860  204.8800  151.9760 O   0  0  0  0  0  0  0  0  0  0  0  0
  160.9140  204.9670  150.6620 C   0  0  0  0  0  2  0  0  0  0  0  0
  161.2150  203.7000  149.8670 C   0  0  1  0  0  3  0  0  0  0  0  0
  160.8730  202.4580  150.6780 C   0  0  0  0  0  2  0  0  0  0  0  0
  160.4810  201.3200  149.7630 C   0  0  0  0  0  1  0  0  0  0  0  0
  160.4980  203.7070  148.6650 O   0  0  0  0  0  0  0  0  0  0  0  0
  161.4530  203.4680  147.6750 C   0  0  0  0  0  2  0  0  0  0  0  0
  162.7940  204.7730  146.0580 C   0  0  0  0  0  2  0  0  0  0  0  0
  161.7360  204.0220  145.2820 C   0  0  0  0  0  2  0  0  0  0  0  0
  161.4100  204.5850  146.6500 C   0  0  0  0  0  3  0  0  0  0  0  0
  158.7200  212.4410  153.5120 C   0  0  0  0  0  2  0  0  0  0  0  0
  159.9810  213.6150  151.8810 O   0  0  0  0  0  1  0  0  0  0  0  0
  159.0330  212.6060  152.0360 C   0  0  2  0  0  3  0  0  0  0  0  0
  157.7770  212.9910  151.2770 C   0  0  0  0  0  2  0  0  0  0  0  0
  158.0890  214.1010  150.2950 C   0  0  0  0  0  2  0  0  0  0  0  0
  157.9790  213.5670  148.8830 C   0  0  0  0  0  2  0  0  0  0  0  0
  159.2650  213.8510  148.1320 C   0  0  1  0  0  3  0  0  0  0  0  0
  159.3400  214.0010  145.8830 C   0  0  0  0  0  0  0  0  0  0  0  0
  160.3690  213.0690  145.9810 O   0  0  0  0  0  0  0  0  0  0  0  0
  160.1700  212.7040  148.2590 C   0  0  1  0  0  3  0  0  0  0  0  0
  159.0910  213.9060  144.3690 C   0  0  0  0  0  2  0  0  0  0  0  0
  159.3630  212.8900  146.9310 C   0  0  1  0  0  0  0  0  0  0  0  0
  157.9920  213.5680  145.2740 C   0  0  0  0  0  2  0  0  0  0  0  0
  161.6070  213.2300  148.2820 C   0  0  0  0  0  2  0  0  0  0  0  0
  162.6080  212.0800  148.3030 C   0  0  0  0  0  2  0  0  0  0  0  0
  161.2090  207.5220  148.3960 O   0  0  0  0  0  0  0  0  0  0  0  0
  162.1790  208.2570  150.4220 C   0  0  0  0  0  2  0  0  0  0  0  0
  162.0370  210.8590  149.0090 C   0  0  1  0  0  3  0  0  0  0  0  0
  162.3270  209.5900  148.2090 C   0  0  0  0  0  2  0  0  0  0  0  0
  161.9660  209.5790  151.1560 C   0  0  0  0  0  2  0  0  0  0  0  0
  161.8330  208.3980  148.9680 C   0  0  0  0  0  0  0  0  0  0  0  0
  162.6270  210.7410  150.4140 C   0  0  0  0  0  2  0  0  0  0  0  0
  2  8  1  0  0  0  0
  4  3  1  1  0  0  0
  5 12  1  6  0  0  0
  5  4  1  0  0  0  0
  6  1  1  1  0  0  0
  6  2  1  0  0  0  0
  7 10  1  6  0  0  0
  7  5  1  0  0  0  0
  7  4  1  0  0  0  0
  8  3  1  0  0  0  0
  8  9  2  0  0  0  0
 10  6  1  0  0  0  0
 12 11  1  1  0  0  0
 13 12  1  0  0  0  0
 14 13  1  0  0  0  0
 15 14  1  0  0  0  0
 16 15  1  1  0  0  0
 16 17  1  0  0  0  0
 18 17  1  0  0  0  0
 19 16  1  0  0  0  0
 20 19  1  0  0  0  0
 21 23  1  0  0  0  0
 22 21  1  0  0  0  0
 22 23  1  0  0  0  0
 23 20  1  0  0  0  0
 24  1  1  0  0  0  0
 26 25  1  1  0  0  0
 26 24  1  0  0  0  0
 27 26  1  0  0  0  0
 28 27  1  0  0  0  0
 29 28  1  0  0  0  0
 30 33  1  0  0  0  0
 30 29  1  1  0  0  0
 31 32  1  0  0  0  0
 31 35  1  0  0  0  0
 33 37  1  6  0  0  0
 34 36  1  0  0  0  0
 34 31  1  0  0  0  0
 35 32  1  1  0  0  0
 35 30  1  0  0  0  0
 35 33  1  0  0  0  0
 36 31  1  0  0  0  0
 37 38  1  0  0  0  0
 39 44  2  0  0  0  0
 40 43  1  0  0  0  0
 41 38  1  6  0  0  0
 41 45  1  0  0  0  0
 42 44  1  0  0  0  0
 42 41  1  0  0  0  0
 44 40  1  0  0  0  0
 45 43  1  0  0  0  0
M  END
>  <MODEL>
6

>  <REMARK>
 VINA RESULT:      -5.9      2.056      3.928
  Name = 
  19 active torsions:
  status: ('A' for Active; 'I' for Inactive)
    1  A    between atoms: C_2  and  O_12
    2  A    between atoms: C_2  and  C_14
    3  A    between atoms: C_2  and  C_15
    4  A    between atoms: C_4  and  C_35
    5  A    between atoms: C_5  and  C_11
    6  A    between atoms: C_5  and  C_38
    7  A    between atoms: O_6  and  C_26
    8  A    between atoms: O_6  and  C_38
    9  A    between atoms: O_9  and  C_14
   10  A    between atoms: O_9  and  C_44
   11  A    between atoms: C_11  and  C_34
   12  A    between atoms: O_12  and  C_30
   13  A    between atoms: C_13  and  C_23
   14  A    between atoms: C_13  and  C_44
   15  A    between atoms: C_22  and  C_31
   16  A    between atoms: C_29  and  C_31
   17  A    between atoms: C_29  and  C_32
   18  A    between atoms: C_30  and  C_45
   19  A    between atoms: C_34  and  C_35
                            x       y       z     vdW  Elec       q    Type
                         _______ _______ _______ _____ _____    ______ ____

>  <TORSDO>
F 19

$$$$
=
 OpenBabel11072414453D

 45 51  0  0  1  0  0  0  0  0999 V2000
  160.8350  212.5490  149.9020 O   0  0  0  0  0  0  0  0  0  0  0  0
  159.4540  214.4480  149.1820 C   0  0  0  0  0  2  0  0  0  0  0  0
  156.8380  213.1390  149.5790 S   0  0  0  0  0  0  0  0  0  0  0  0
  157.4680  213.8260  151.1230 C   0  0  1  0  0  3  0  0  0  0  0  0
  157.4260  213.0080  152.4000 C   0  0  1  0  0  3  0  0  0  0  0  0
  160.3300  213.7970  150.2930 C   0  0  1  0  0  3  0  0  0  0  0  0
  158.6110  212.8840  151.4450 C   0  0  2  0  0  3  0  0  0  0  0  0
  158.3430  213.5600  148.6340 C   0  0  0  0  0  0  0  0  0  0  0  0
  158.3890  213.1950  147.2490 S   0  0  0  0  0  0  0  0  0  0  0  0
  159.7150  213.7350  151.5740 O   0  0  0  0  0  0  0  0  0  0  0  0
  156.6210  214.3470  154.2220 F   0  0  0  0  0  0  0  0  0  0  0  0
  157.7670  213.7810  153.6910 C   0  0  1  0  0  3  0  0  0  0  0  0
  158.5130  212.9990  154.7720 C   0  0  0  0  0  2  0  0  0  0  0  0
  159.7060  212.4690  154.2650 O   0  0  0  0  0  0  0  0  0  0  0  0
  159.9300  211.2870  154.9790 C   0  0  0  0  0  2  0  0  0  0  0  0
  161.3040  210.6950  154.6790 C   0  0  1  0  0  3  0  0  0  0  0  0
  161.7740  209.8080  155.8240 C   0  0  0  0  0  2  0  0  0  0  0  0
  161.9670  210.6240  157.0820 C   0  0  0  0  0  1  0  0  0  0  0  0
  161.2620  209.9640  153.4860 O   0  0  0  0  0  0  0  0  0  0  0  0
  161.0370  208.6450  153.8790 C   0  0  0  0  0  2  0  0  0  0  0  0
  162.1910  207.1170  152.3140 C   0  0  0  0  0  2  0  0  0  0  0  0
  161.1170  206.3250  153.0240 C   0  0  0  0  0  2  0  0  0  0  0  0
  160.8650  207.7720  152.6500 C   0  0  0  0  0  3  0  0  0  0  0  0
  161.7340  212.8270  148.8730 C   0  0  0  0  0  2  0  0  0  0  0  0
  161.2830  211.2500  147.1570 O   0  0  0  0  0  1  0  0  0  0  0  0
  162.1630  211.5350  148.2000 C   0  0  2  0  0  3  0  0  0  0  0  0
  162.1290  210.3920  149.1970 C   0  0  0  0  0  2  0  0  0  0  0  0
  161.5910  209.1430  148.5310 C   0  0  0  0  0  2  0  0  0  0  0  0
  162.6390  208.0540  148.5860 C   0  0  0  0  0  2  0  0  0  0  0  0
  161.9630  206.6970  148.5800 C   0  0  1  0  0  3  0  0  0  0  0  0
  161.7780  205.4510  146.7080 C   0  0  0  0  0  0  0  0  0  0  0  0
  160.4240  205.3990  147.0280 O   0  0  0  0  0  0  0  0  0  0  0  0
  160.5260  206.8660  148.8160 C   0  0  1  0  0  3  0  0  0  0  0  0
  161.6920  204.9190  145.2690 C   0  0  0  0  0  2  0  0  0  0  0  0
  161.0280  206.6130  147.3570 C   0  0  1  0  0  0  0  0  0  0  0  0
  162.2270  206.2640  145.4790 C   0  0  0  0  0  2  0  0  0  0  0  0
  160.0260  205.6520  149.6030 C   0  0  0  0  0  2  0  0  0  0  0  0
  161.1540  204.6560  149.8440 C   0  0  0  0  0  2  0  0  0  0  0  0
  160.9780  201.0970  146.6740 O   0  0  0  0  0  0  0  0  0  0  0  0
  161.2020  200.3640  148.9100 C   0  0  0  0  0  2  0  0  0  0  0  0
  160.7560  203.2510  149.4140 C   0  0  1  0  0  3  0  0  0  0  0  0
  161.5460  202.8220  148.1770 C   0  0  0  0  0  2  0  0  0  0  0  0
  160.4870  200.8790  150.1570 C   0  0  0  0  0  2  0  0  0  0  0  0
  161.2000  201.4080  147.8310 C   0  0  0  0  0  0  0  0  0  0  0  0
  160.9940  202.2650  150.5580 C   0  0  0  0  0  2  0  0  0  0  0  0
  2  6  1  0  0  0  0
  4  3  1  6  0  0  0
  4  7  1  0  0  0  0
  4  5  1  0  0  0  0
  5 12  1  1  0  0  0
  6  1  1  6  0  0  0
  6 10  1  0  0  0  0
  7 10  1  1  0  0  0
  7  5  1  0  0  0  0
  8  2  1  0  0  0  0
  8  3  1  0  0  0  0
  9  8  2  0  0  0  0
 12 11  1  1  0  0  0
 12 13  1  0  0  0  0
 14 13  1  0  0  0  0
 14 15  1  0  0  0  0
 16 15  1  1  0  0  0
 16 17  1  0  0  0  0
 17 18  1  0  0  0  0
 19 20  1  0  0  0  0
 19 16  1  0  0  0  0
 21 23  1  0  0  0  0
 21 22  1  0  0  0  0
 23 22  1  0  0  0  0
 23 20  1  0  0  0  0
 24  1  1  0  0  0  0
 26 25  1  6  0  0  0
 26 24  1  0  0  0  0
 26 27  1  0  0  0  0
 28 29  1  0  0  0  0
 28 27  1  0  0  0  0
 30 29  1  6  0  0  0
 30 33  1  0  0  0  0
 31 32  1  0  0  0  0
 31 35  1  0  0  0  0
 33 37  1  1  0  0  0
 34 36  1  0  0  0  0
 34 31  1  0  0  0  0
 35 32  1  1  0  0  0
 35 30  1  0  0  0  0
 35 33  1  0  0  0  0
 36 31  1  0  0  0  0
 37 38  1  0  0  0  0
 39 44  2  0  0  0  0
 40 43  1  0  0  0  0
 41 38  1  1  0  0  0
 41 45  1  0  0  0  0
 42 41  1  0  0  0  0
 43 45  1  0  0  0  0
 44 42  1  0  0  0  0
 44 40  1  0  0  0  0
M  END
>  <MODEL>
7

>  <REMARK>
 VINA RESULT:      -5.9      3.751      8.769
  Name = 
  19 active torsions:
  status: ('A' for Active; 'I' for Inactive)
    1  A    between atoms: C_2  and  O_12
    2  A    between atoms: C_2  and  C_14
    3  A    between atoms: C_2  and  C_15
    4  A    between atoms: C_4  and  C_35
    5  A    between atoms: C_5  and  C_11
    6  A    between atoms: C_5  and  C_38
    7  A    between atoms: O_6  and  C_26
    8  A    between atoms: O_6  and  C_38
    9  A    between atoms: O_9  and  C_14
   10  A    between atoms: O_9  and  C_44
   11  A    between atoms: C_11  and  C_34
   12  A    between atoms: O_12  and  C_30
   13  A    between atoms: C_13  and  C_23
   14  A    between atoms: C_13  and  C_44
   15  A    between atoms: C_22  and  C_31
   16  A    between atoms: C_29  and  C_31
   17  A    between atoms: C_29  and  C_32
   18  A    between atoms: C_30  and  C_45
   19  A    between atoms: C_34  and  C_35
                            x       y       z     vdW  Elec       q    Type
                         _______ _______ _______ _____ _____    ______ ____

>  <TORSDO>
F 19

$$$$
=
 OpenBabel11072414453D

 45 51  0  0  1  0  0  0  0  0999 V2000
  160.6360  212.0740  147.4970 O   0  0  0  0  0  0  0  0  0  0  0  0
  160.0010  214.2070  146.4580 C   0  0  0  0  0  2  0  0  0  0  0  0
  157.1290  213.5960  146.1490 S   0  0  0  0  0  0  0  0  0  0  0  0
  157.4970  214.1970  147.8100 C   0  0  1  0  0  3  0  0  0  0  0  0
  156.9290  213.4890  149.0250 C   0  0  1  0  0  3  0  0  0  0  0  0
  160.3750  213.4280  147.7530 C   0  0  1  0  0  3  0  0  0  0  0  0
  158.2490  213.0270  148.4100 C   0  0  2  0  0  3  0  0  0  0  0  0
  158.8810  213.5840  145.6320 C   0  0  0  0  0  0  0  0  0  0  0  0
  159.1850  213.1400  144.3040 S   0  0  0  0  0  0  0  0  0  0  0  0
  159.4590  213.5900  148.8300 O   0  0  0  0  0  0  0  0  0  0  0  0
  155.8810  214.4530  150.9570 F   0  0  0  0  0  0  0  0  0  0  0  0
  157.1120  214.2290  150.3670 C   0  0  1  0  0  3  0  0  0  0  0  0
  158.0650  213.5840  151.3720 C   0  0  0  0  0  2  0  0  0  0  0  0
  157.4510  213.4510  152.6230 O   0  0  0  0  0  0  0  0  0  0  0  0
  158.4910  213.4410  153.5590 C   0  0  0  0  0  2  0  0  0  0  0  0
  158.1410  212.6040  154.7850 C   0  0  1  0  0  3  0  0  0  0  0  0
  158.0190  211.1310  154.4200 C   0  0  0  0  0  2  0  0  0  0  0  0
  158.9320  210.7930  153.2650 C   0  0  0  0  0  1  0  0  0  0  0  0
  159.1130  212.7780  155.7780 O   0  0  0  0  0  0  0  0  0  0  0  0
  158.9000  211.7330  156.6780 C   0  0  0  0  0  2  0  0  0  0  0  0
  161.2900  211.3750  156.1570 C   0  0  0  0  0  2  0  0  0  0  0  0
  161.2060  212.4220  157.2430 C   0  0  0  0  0  2  0  0  0  0  0  0
  160.2300  211.2640  157.2350 C   0  0  0  0  0  3  0  0  0  0  0  0
  161.8110  211.7920  148.1940 C   0  0  0  0  0  2  0  0  0  0  0  0
  162.0120  211.0130  150.4270 O   0  0  0  0  0  1  0  0  0  0  0  0
  161.5750  210.6420  149.1570 C   0  0  2  0  0  3  0  0  0  0  0  0
  162.3530  209.4190  148.7080 C   0  0  0  0  0  2  0  0  0  0  0  0
  161.6610  208.1620  149.1930 C   0  0  0  0  0  2  0  0  0  0  0  0
  162.2020  207.7860  150.5550 C   0  0  0  0  0  2  0  0  0  0  0  0
  161.1970  206.9110  151.2770 C   0  0  1  0  0  3  0  0  0  0  0  0
  160.6700  207.2190  153.4490 C   0  0  0  0  0  0  0  0  0  0  0  0
  160.9650  205.8650  153.5810 O   0  0  0  0  0  0  0  0  0  0  0  0
  161.7410  205.5580  151.4220 C   0  0  1  0  0  3  0  0  0  0  0  0
  160.6330  207.5900  154.9400 C   0  0  0  0  0  2  0  0  0  0  0  0
  161.7720  206.5220  152.6530 C   0  0  1  0  0  0  0  0  0  0  0  0
  161.6150  208.2570  154.0860 C   0  0  0  0  0  2  0  0  0  0  0  0
  160.5790  204.5650  151.3420 C   0  0  0  0  0  2  0  0  0  0  0  0
  161.0900  203.1330  151.2300 C   0  0  0  0  0  2  0  0  0  0  0  0
  161.3720  200.1260  147.5400 O   0  0  0  0  0  0  0  0  0  0  0  0
  160.9590  202.3660  146.9080 C   0  0  0  0  0  2  0  0  0  0  0  0
  161.4690  202.7890  149.7970 C   0  0  1  0  0  3  0  0  0  0  0  0
  160.7570  201.5150  149.3440 C   0  0  0  0  0  2  0  0  0  0  0  0
  161.5990  203.6420  147.4500 C   0  0  0  0  0  2  0  0  0  0  0  0
  161.0770  201.2500  147.9060 C   0  0  0  0  0  0  0  0  0  0  0  0
  161.1130  203.9490  148.8670 C   0  0  0  0  0  2  0  0  0  0  0  0
  1 24  1  0  0  0  0
  2  6  1  0  0  0  0
  4  3  1  6  0  0  0
  4  7  1  0  0  0  0
  4  5  1  0  0  0  0
  5 12  1  1  0  0  0
  6  1  1  6  0  0  0
  6 10  1  0  0  0  0
  7 10  1  1  0  0  0
  7  5  1  0  0  0  0
  8  3  1  0  0  0  0
  8  2  1  0  0  0  0
  9  8  2  0  0  0  0
 12 11  1  1  0  0  0
 12 13  1  0  0  0  0
 13 14  1  0  0  0  0
 14 15  1  0  0  0  0
 16 15  1  6  0  0  0
 16 19  1  0  0  0  0
 17 16  1  0  0  0  0
 18 17  1  0  0  0  0
 19 20  1  0  0  0  0
 20 23  1  0  0  0  0
 21 23  1  0  0  0  0
 21 22  1  0  0  0  0
 23 22  1  0  0  0  0
 24 26  1  0  0  0  0
 26 25  1  1  0  0  0
 27 26  1  0  0  0  0
 27 28  1  0  0  0  0
 28 29  1  0  0  0  0
 30 29  1  6  0  0  0
 30 33  1  0  0  0  0
 30 35  1  0  0  0  0
 31 32  1  0  0  0  0
 31 36  1  0  0  0  0
 31 34  1  0  0  0  0
 33 37  1  1  0  0  0
 33 35  1  0  0  0  0
 35 31  1  0  0  0  0
 35 32  1  6  0  0  0
 36 34  1  0  0  0  0
 38 37  1  0  0  0  0
 39 44  2  0  0  0  0
 40 43  1  0  0  0  0
 40 44  1  0  0  0  0
 41 38  1  1  0  0  0
 42 41  1  0  0  0  0
 43 45  1  0  0  0  0
 44 42  1  0  0  0  0
 45 41  1  0  0  0  0
M  END
>  <MODEL>
8

>  <REMARK>
 VINA RESULT:      -5.8      3.846      9.960
  Name = 
  19 active torsions:
  status: ('A' for Active; 'I' for Inactive)
    1  A    between atoms: C_2  and  O_12
    2  A    between atoms: C_2  and  C_14
    3  A    between atoms: C_2  and  C_15
    4  A    between atoms: C_4  and  C_35
    5  A    between atoms: C_5  and  C_11
    6  A    between atoms: C_5  and  C_38
    7  A    between atoms: O_6  and  C_26
    8  A    between atoms: O_6  and  C_38
    9  A    between atoms: O_9  and  C_14
   10  A    between atoms: O_9  and  C_44
   11  A    between atoms: C_11  and  C_34
   12  A    between atoms: O_12  and  C_30
   13  A    between atoms: C_13  and  C_23
   14  A    between atoms: C_13  and  C_44
   15  A    between atoms: C_22  and  C_31
   16  A    between atoms: C_29  and  C_31
   17  A    between atoms: C_29  and  C_32
   18  A    between atoms: C_30  and  C_45
   19  A    between atoms: C_34  and  C_35
                            x       y       z     vdW  Elec       q    Type
                         _______ _______ _______ _____ _____    ______ ____

>  <TORSDO>
F 19

$$$$
=
 OpenBabel11072414453D

 45 51  0  0  1  0  0  0  0  0999 V2000
  161.3860  209.1650  140.3620 O   0  0  0  0  0  0  0  0  0  0  0  0
  161.0150  211.0420  138.8230 C   0  0  0  0  0  2  0  0  0  0  0  0
  159.1780  212.5590  140.5660 S   0  0  0  0  0  0  0  0  0  0  0  0
  160.9010  212.8840  140.9880 C   0  0  1  0  0  3  0  0  0  0  0  0
  161.3510  212.8760  142.4380 C   0  0  1  0  0  3  0  0  0  0  0  0
  161.9530  210.3400  139.8480 C   0  0  1  0  0  3  0  0  0  0  0  0
  161.3210  211.5780  141.6320 C   0  0  2  0  0  3  0  0  0  0  0  0
  159.5940  211.2950  139.3150 C   0  0  0  0  0  0  0  0  0  0  0  0
  158.5150  210.6480  138.6300 S   0  0  0  0  0  0  0  0  0  0  0  0
  162.4380  211.1850  140.8850 O   0  0  0  0  0  0  0  0  0  0  0  0
  163.2370  214.0840  141.5760 F   0  0  0  0  0  0  0  0  0  0  0  0
  162.7800  213.4010  142.6880 C   0  0  1  0  0  3  0  0  0  0  0  0
  162.9790  214.2500  143.9430 C   0  0  0  0  0  2  0  0  0  0  0  0
  161.9400  214.0350  144.8570 O   0  0  0  0  0  0  0  0  0  0  0  0
  162.4110  213.0610  145.7450 C   0  0  0  0  0  2  0  0  0  0  0  0
  161.3670  212.7020  146.7970 C   0  0  1  0  0  3  0  0  0  0  0  0
  161.9610  212.7710  148.1970 C   0  0  0  0  0  2  0  0  0  0  0  0
  162.2770  211.3840  148.7080 C   0  0  0  0  0  1  0  0  0  0  0  0
  160.2660  213.5610  146.6950 O   0  0  0  0  0  0  0  0  0  0  0  0
  159.3700  212.9000  145.8550 C   0  0  0  0  0  2  0  0  0  0  0  0
  157.0530  212.2000  146.3620 C   0  0  0  0  0  2  0  0  0  0  0  0
  157.5610  213.0030  147.5380 C   0  0  0  0  0  2  0  0  0  0  0  0
  157.9610  213.3910  146.1290 C   0  0  0  0  0  3  0  0  0  0  0  0
  161.9920  208.1280  139.6550 C   0  0  0  0  0  2  0  0  0  0  0  0
  163.1920  206.0950  139.9020 O   0  0  0  0  0  1  0  0  0  0  0  0
  162.6200  207.1420  140.6230 C   0  0  2  0  0  3  0  0  0  0  0  0
  161.5610  206.5770  141.5520 C   0  0  0  0  0  2  0  0  0  0  0  0
  162.2220  205.8720  142.7180 C   0  0  0  0  0  2  0  0  0  0  0  0
  161.1670  205.4770  143.7280 C   0  0  0  0  0  2  0  0  0  0  0  0
  161.8320  205.1230  145.0440 C   0  0  1  0  0  3  0  0  0  0  0  0
  161.5620  203.1110  146.0280 C   0  0  0  0  0  0  0  0  0  0  0  0
  161.2090  203.8500  147.1540 O   0  0  0  0  0  0  0  0  0  0  0  0
  161.2410  205.9220  146.1220 C   0  0  1  0  0  3  0  0  0  0  0  0
  161.0790  201.7310  146.5010 C   0  0  0  0  0  2  0  0  0  0  0  0
  160.7980  204.4310  145.9540 C   0  0  1  0  0  0  0  0  0  0  0  0
  160.4780  202.2990  145.2940 C   0  0  0  0  0  2  0  0  0  0  0  0
  162.3330  206.2140  147.1530 C   0  0  0  0  0  2  0  0  0  0  0  0
  161.9270  207.3650  148.0670 C   0  0  0  0  0  2  0  0  0  0  0  0
  161.7620  208.3380  152.7320 O   0  0  0  0  0  0  0  0  0  0  0  0
  160.8370  206.2370  152.1700 C   0  0  0  0  0  2  0  0  0  0  0  0
  161.9830  206.9580  149.5320 C   0  0  1  0  0  3  0  0  0  0  0  0
  161.4020  208.0580  150.4190 C   0  0  0  0  0  2  0  0  0  0  0  0
  161.3710  205.1920  151.1930 C   0  0  0  0  0  2  0  0  0  0  0  0
  161.3870  207.5950  151.8420 C   0  0  0  0  0  0  0  0  0  0  0  0
  161.2160  205.6520  149.7440 C   0  0  0  0  0  2  0  0  0  0  0  0
  2  8  1  0  0  0  0
  2  6  1  0  0  0  0
  4  3  1  1  0  0  0
  4  7  1  0  0  0  0
  4  5  1  0  0  0  0
  5 12  1  6  0  0  0
  6  1  1  1  0  0  0
  6 10  1  0  0  0  0
  7 10  1  6  0  0  0
  7  5  1  0  0  0  0
  8  3  1  0  0  0  0
  9  8  2  0  0  0  0
 12 11  1  6  0  0  0
 12 13  1  0  0  0  0
 13 14  1  0  0  0  0
 14 15  1  0  0  0  0
 16 15  1  6  0  0  0
 16 17  1  0  0  0  0
 17 18  1  0  0  0  0
 19 16  1  0  0  0  0
 20 23  1  0  0  0  0
 20 19  1  0  0  0  0
 21 22  1  0  0  0  0
 23 21  1  0  0  0  0
 23 22  1  0  0  0  0
 24  1  1  0  0  0  0
 24 26  1  0  0  0  0
 26 25  1  6  0  0  0
 26 27  1  0  0  0  0
 27 28  1  0  0  0  0
 28 29  1  0  0  0  0
 30 29  1  6  0  0  0
 30 35  1  0  0  0  0
 30 33  1  0  0  0  0
 31 34  1  0  0  0  0
 31 32  1  0  0  0  0
 33 37  1  1  0  0  0
 35 31  1  0  0  0  0
 35 33  1  0  0  0  0
 35 32  1  1  0  0  0
 36 31  1  0  0  0  0
 36 34  1  0  0  0  0
 37 38  1  0  0  0  0
 41 38  1  6  0  0  0
 41 45  1  0  0  0  0
 41 42  1  0  0  0  0
 42 44  1  0  0  0  0
 43 40  1  0  0  0  0
 44 40  1  0  0  0  0
 44 39  2  0  0  0  0
 45 43  1  0  0  0  0
M  END
>  <MODEL>
9

>  <REMARK>
 VINA RESULT:      -5.8      4.441     11.463
  Name = 
  19 active torsions:
  status: ('A' for Active; 'I' for Inactive)
    1  A    between atoms: C_2  and  O_12
    2  A    between atoms: C_2  and  C_14
    3  A    between atoms: C_2  and  C_15
    4  A    between atoms: C_4  and  C_35
    5  A    between atoms: C_5  and  C_11
    6  A    between atoms: C_5  and  C_38
    7  A    between atoms: O_6  and  C_26
    8  A    between atoms: O_6  and  C_38
    9  A    between atoms: O_9  and  C_14
   10  A    between atoms: O_9  and  C_44
   11  A    between atoms: C_11  and  C_34
   12  A    between atoms: O_12  and  C_30
   13  A    between atoms: C_13  and  C_23
   14  A    between atoms: C_13  and  C_44
   15  A    between atoms: C_22  and  C_31
   16  A    between atoms: C_29  and  C_31
   17  A    between atoms: C_29  and  C_32
   18  A    between atoms: C_30  and  C_45
   19  A    between atoms: C_34  and  C_35
                            x       y       z     vdW  Elec       q    Type
                         _______ _______ _______ _____ _____    ______ ____

>  <TORSDO>
F 19

$$$$
