=
 OpenBabel11072412023D

 45 52  0  0  1  0  0  0  0  0999 V2000
  160.7370  208.7370  153.9600 C   0  0  1  0  0  3  0  0  0  0  0  0
  160.5280  207.7560  155.1020 C   0  0  0  0  0  2  0  0  0  0  0  0
  161.2290  209.7720  154.9550 C   0  0  2  0  0  3  0  0  0  0  0  0
  160.9890  208.8060  156.1010 C   0  0  2  0  0  3  0  0  0  0  0  0
  158.5960  213.5460  152.0890 C   0  0  1  0  0  0  0  0  0  0  0  0
  159.5920  212.5070  151.5960 C   0  0  1  0  0  3  0  0  0  0  0  0
  160.3340  210.9290  155.0180 N   0  0  0  0  0  0  0  0  0  0  0  0
  157.3530  214.4520  153.9760 O   0  0  0  0  0  1  0  0  0  0  0  0
  159.5050  211.3250  153.8990 C   0  0  2  0  0  3  0  0  0  0  0  0
  160.3740  211.8400  152.7430 C   0  0  0  0  0  2  0  0  0  0  0  0
  158.5210  212.3900  154.4480 C   0  0  1  0  0  3  0  0  0  0  0  0
  158.9130  212.6820  155.9000 C   0  0  2  0  0  3  0  0  0  0  0  0
  160.0040  211.7120  156.1550 C   0  0  0  0  0  0  0  0  0  0  0  0
  160.5980  211.6090  157.2610 O   0  0  0  0  0  0  0  0  0  0  0  0
  158.4750  213.6910  153.6280 C   0  0  1  0  0  3  0  0  0  0  0  0
  157.3460  213.3910  151.4660 O   0  0  0  0  0  0  0  0  0  0  0  0
  158.1000  212.2140  151.6030 C   0  0  2  0  0  3  0  0  0  0  0  0
  157.7770  212.3990  156.7650 N   0  0  0  0  0  2  0  0  0  0  0  0
  155.1070  210.0010  155.2950 C   0  0  0  0  0  3  0  0  0  0  0  0
  156.5750  210.7340  154.9120 S   0  0  0  0  0  0  0  0  0  0  0  0
  155.6380  211.2990  157.1660 N   0  0  0  0  0  0  0  0  0  0  0  0
  154.7670  210.4360  156.5750 C   0  0  0  0  0  0  0  0  0  0  0  0
  153.5290  209.9820  157.2600 C   0  0  0  0  0  1  0  0  0  0  0  0
  156.6920  211.5580  156.3680 C   0  0  0  0  0  0  0  0  0  0  0  0
  162.7300  209.5850  157.2210 C   0  0  0  0  0  1  0  0  0  0  0  0
  162.2130  208.4190  156.6510 O   0  0  0  0  0  0  0  0  0  0  0  0
  161.8180  208.3090  153.1390 O   0  0  0  0  0  0  0  0  0  0  0  0
  161.6680  208.0930  151.7660 C   0  0  0  0  0  0  0  0  0  0  0  0
  162.1640  208.9170  150.9530 O   0  0  0  0  0  0  0  0  0  0  0  0
  160.9490  206.8760  151.2510 C   0  0  0  0  0  2  0  0  0  0  0  0
  160.6350  203.4090  151.8200 C   0  0  0  0  0  2  0  0  0  0  0  0
  161.7370  204.6790  150.0770 C   0  0  1  0  0  3  0  0  0  0  0  0
  161.1600  204.6620  152.4710 C   0  0  0  0  0  2  0  0  0  0  0  0
  163.0370  205.8460  151.6790 O   0  0  0  0  0  1  0  0  0  0  0  0
  161.7160  205.5430  151.3580 C   0  0  2  0  0  0  0  0  0  0  0  0
  161.4060  203.2630  150.5300 C   0  0  0  0  0  2  0  0  0  0  0  0
  160.6700  204.0470  147.8290 C   0  0  0  0  0  2  0  0  0  0  0  0
  161.6450  204.1710  146.6480 C   0  0  2  0  0  3  0  0  0  0  0  0
  160.9830  206.6490  146.8610 C   0  0  0  0  0  2  0  0  0  0  0  0
  163.0020  203.8890  147.0870 N   0  0  0  0  0  1  0  0  0  0  0  0
  161.4180  206.4560  148.3090 C   0  0  0  0  0  2  0  0  0  0  0  0
  161.5860  205.5550  145.9740 C   0  0  2  0  0  3  0  0  0  0  0  0
  160.8540  205.1500  148.9000 C   0  0  2  0  0  3  0  0  0  0  0  0
  160.8220  205.4760  144.6980 C   0  0  0  0  0  3  0  0  0  0  0  0
  160.3120  204.4230  144.3460 O   0  0  0  0  0  0  0  0  0  0  0  0
  1 27  1  6  0  0  0
  1  3  1  0  0  0  0
  1  2  1  0  0  0  0
  2  4  1  0  0  0  0
  3  7  1  1  0  0  0
  3  4  1  0  0  0  0
  4 26  1  6  0  0  0
  5 16  1  6  0  0  0
  5 15  1  0  0  0  0
  6 17  1  0  0  0  0
  6  5  1  0  0  0  0
  6 10  1  1  0  0  0
  7 13  1  0  0  0  0
  9 10  1  6  0  0  0
  9 11  1  0  0  0  0
  9  7  1  0  0  0  0
 11 12  1  0  0  0  0
 12 13  1  0  0  0  0
 12 18  1  0  0  0  0
 13 14  2  0  0  0  0
 15  8  1  0  0  0  0
 15 11  1  0  0  0  0
 16 17  1  0  0  0  0
 17  5  1  0  0  0  0
 19 22  2  0  0  0  0
 20 19  1  0  0  0  0
 20 24  1  0  0  0  0
 22 21  1  0  0  0  0
 22 23  1  0  0  0  0
 24 18  1  0  0  0  0
 24 21  2  0  0  0  0
 26 25  1  0  0  0  0
 28 27  1  0  0  0  0
 29 28  2  0  0  0  0
 30 35  1  0  0  0  0
 30 28  1  0  0  0  0
 31 33  1  0  0  0  0
 32 36  1  0  0  0  0
 32 35  1  0  0  0  0
 35 34  1  0  0  0  0
 35 33  1  0  0  0  0
 36 31  1  0  0  0  0
 37 43  1  0  0  0  0
 38 40  1  0  0  0  0
 38 37  1  0  0  0  0
 39 41  1  0  0  0  0
 41 43  1  0  0  0  0
 42 38  1  0  0  0  0
 42 39  1  0  0  0  0
 43 32  1  0  0  0  0
 44 42  1  0  0  0  0
 45 44  2  0  0  0  0
M  END
>  <MODEL>
1

>  <REMARK>
 VINA RESULT:      -7.6      0.000      0.000
  Name = 
  9 active torsions:
  status: ('A' for Active; 'I' for Inactive)
    1  A    between atoms: N_1  and  C_16
    2  A    between atoms: N_5  and  C_29
    3  A    between atoms: C_7  and  O_39
    4  A    between atoms: C_20  and  C_28
    5  A    between atoms: C_20  and  C_32
    6  A    between atoms: C_22  and  C_43
    7  A    between atoms: C_27  and  C_31
    8  A    between atoms: C_32  and  O_39
    9  A    between atoms: O_33  and  C_38
                            x       y       z     vdW  Elec       q    Type
                         _______ _______ _______ _____ _____    ______ ____

>  <TORSDO>
F 9

$$$$
=
 OpenBabel11072412023D

 45 52  0  0  1  0  0  0  0  0999 V2000
  160.8470  208.4930  152.9740 C   0  0  1  0  0  3  0  0  0  0  0  0
  160.4510  207.9420  154.3340 C   0  0  0  0  0  2  0  0  0  0  0  0
  161.3880  209.7390  153.6500 C   0  0  2  0  0  3  0  0  0  0  0  0
  160.9630  209.2060  155.0050 C   0  0  2  0  0  3  0  0  0  0  0  0
  160.3630  213.3090  149.7010 C   0  0  1  0  0  0  0  0  0  0  0  0
  161.3870  212.1850  149.7170 C   0  0  1  0  0  3  0  0  0  0  0  0
  160.6310  210.9330  153.2690 N   0  0  0  0  0  0  0  0  0  0  0  0
  158.5640  214.4530  150.8770 O   0  0  0  0  0  1  0  0  0  0  0  0
  160.3290  211.2480  151.8880 C   0  0  2  0  0  3  0  0  0  0  0  0
  161.6130  211.6060  151.1260 C   0  0  0  0  0  2  0  0  0  0  0  0
  159.2960  212.4030  151.9250 C   0  0  1  0  0  3  0  0  0  0  0  0
  159.1210  212.8240  153.3880 C   0  0  2  0  0  3  0  0  0  0  0  0
  159.9520  211.8410  154.1230 C   0  0  0  0  0  0  0  0  0  0  0  0
  160.0650  211.8260  155.3770 O   0  0  0  0  0  0  0  0  0  0  0  0
  159.6710  213.6150  151.0540 C   0  0  1  0  0  3  0  0  0  0  0  0
  159.4390  213.1440  148.6540 O   0  0  0  0  0  0  0  0  0  0  0  0
  159.9890  211.9560  149.1650 C   0  0  2  0  0  3  0  0  0  0  0  0
  157.7220  212.6780  153.7610 N   0  0  0  0  0  2  0  0  0  0  0  0
  156.6830  214.3900  157.0820 C   0  0  0  0  0  3  0  0  0  0  0  0
  158.0210  214.1440  156.0870 S   0  0  0  0  0  0  0  0  0  0  0  0
  155.8860  213.0850  155.3130 N   0  0  0  0  0  0  0  0  0  0  0  0
  155.6130  213.7330  156.4780 C   0  0  0  0  0  0  0  0  0  0  0  0
  154.2480  213.7420  157.0670 C   0  0  0  0  0  1  0  0  0  0  0  0
  157.1810  213.2240  154.9660 C   0  0  0  0  0  0  0  0  0  0  0  0
  161.7700  209.3070  157.0620 C   0  0  0  0  0  1  0  0  0  0  0  0
  162.0950  208.9030  155.7650 O   0  0  0  0  0  0  0  0  0  0  0  0
  161.9240  207.7350  152.4330 O   0  0  0  0  0  0  0  0  0  0  0  0
  161.9180  207.2740  151.1130 C   0  0  0  0  0  0  0  0  0  0  0  0
  162.5600  207.9080  150.2350 O   0  0  0  0  0  0  0  0  0  0  0  0
  161.1820  206.0170  150.7380 C   0  0  0  0  0  2  0  0  0  0  0  0
  160.2920  203.0620  152.4450 C   0  0  0  0  0  2  0  0  0  0  0  0
  161.6180  203.4560  150.4580 C   0  0  1  0  0  3  0  0  0  0  0  0
  161.0040  204.3710  152.6610 C   0  0  0  0  0  2  0  0  0  0  0  0
  163.0640  204.9090  151.6500 O   0  0  0  0  0  1  0  0  0  0  0  0
  161.7170  204.7100  151.3560 C   0  0  2  0  0  0  0  0  0  0  0  0
  161.0520  202.3570  151.3460 C   0  0  0  0  0  2  0  0  0  0  0  0
  159.9630  202.3720  148.8230 C   0  0  0  0  0  2  0  0  0  0  0  0
  160.6300  201.3600  147.8780 C   0  0  2  0  0  3  0  0  0  0  0  0
  161.2570  203.5210  146.6300 C   0  0  0  0  0  2  0  0  0  0  0  0
  161.7550  200.7220  148.5420 N   0  0  0  0  0  1  0  0  0  0  0  0
  161.8260  203.9270  147.9840 C   0  0  0  0  0  2  0  0  0  0  0  0
  161.0920  202.0000  146.5560 C   0  0  2  0  0  3  0  0  0  0  0  0
  160.8460  203.6070  149.1290 C   0  0  2  0  0  3  0  0  0  0  0  0
  160.1470  201.6570  145.4580 C   0  0  0  0  0  3  0  0  0  0  0  0
  160.2540  200.5990  144.8560 O   0  0  0  0  0  0  0  0  0  0  0  0
  1 27  1  1  0  0  0
  1  3  1  0  0  0  0
  1  2  1  0  0  0  0
  2  4  1  0  0  0  0
  3  7  1  6  0  0  0
  3  4  1  0  0  0  0
  4 26  1  1  0  0  0
  5 16  1  6  0  0  0
  5  6  1  0  0  0  0
  5 15  1  0  0  0  0
  6 10  1  1  0  0  0
  7 13  1  0  0  0  0
  8 15  1  0  0  0  0
  9 10  1  6  0  0  0
  9 11  1  0  0  0  0
  9  7  1  0  0  0  0
 11 12  1  0  0  0  0
 12 18  1  0  0  0  0
 12 13  1  0  0  0  0
 13 14  2  0  0  0  0
 15 11  1  0  0  0  0
 16 17  1  0  0  0  0
 17  5  1  0  0  0  0
 17  6  1  0  0  0  0
 18 24  1  0  0  0  0
 20 19  1  0  0  0  0
 21 22  1  0  0  0  0
 22 23  1  0  0  0  0
 22 19  2  0  0  0  0
 24 21  2  0  0  0  0
 24 20  1  0  0  0  0
 26 25  1  0  0  0  0
 28 27  1  0  0  0  0
 29 28  2  0  0  0  0
 30 28  1  0  0  0  0
 30 35  1  0  0  0  0
 31 33  1  0  0  0  0
 32 36  1  0  0  0  0
 32 35  1  0  0  0  0
 35 34  1  0  0  0  0
 35 33  1  0  0  0  0
 36 31  1  0  0  0  0
 37 43  1  0  0  0  0
 38 40  1  0  0  0  0
 38 37  1  0  0  0  0
 39 41  1  0  0  0  0
 41 43  1  0  0  0  0
 42 39  1  0  0  0  0
 42 38  1  0  0  0  0
 43 32  1  0  0  0  0
 44 42  1  0  0  0  0
 45 44  2  0  0  0  0
M  END
>  <MODEL>
2

>  <REMARK>
 VINA RESULT:      -7.4      2.035      2.520
  Name = 
  9 active torsions:
  status: ('A' for Active; 'I' for Inactive)
    1  A    between atoms: N_1  and  C_16
    2  A    between atoms: N_5  and  C_29
    3  A    between atoms: C_7  and  O_39
    4  A    between atoms: C_20  and  C_28
    5  A    between atoms: C_20  and  C_32
    6  A    between atoms: C_22  and  C_43
    7  A    between atoms: C_27  and  C_31
    8  A    between atoms: C_32  and  O_39
    9  A    between atoms: O_33  and  C_38
                            x       y       z     vdW  Elec       q    Type
                         _______ _______ _______ _____ _____    ______ ____

>  <TORSDO>
F 9

$$$$
=
 OpenBabel11072412023D

 45 52  0  0  1  0  0  0  0  0999 V2000
  160.9180  208.1440  152.5590 C   0  0  1  0  0  3  0  0  0  0  0  0
  160.3990  207.8330  153.9530 C   0  0  0  0  0  2  0  0  0  0  0  0
  161.6120  209.3780  153.1040 C   0  0  2  0  0  3  0  0  0  0  0  0
  161.0670  209.0890  154.4910 C   0  0  2  0  0  3  0  0  0  0  0  0
  161.5120  212.6880  148.8120 C   0  0  1  0  0  0  0  0  0  0  0  0
  162.3910  211.4680  149.0460 C   0  0  1  0  0  3  0  0  0  0  0  0
  161.0500  210.6080  152.5410 N   0  0  0  0  0  0  0  0  0  0  0  0
  159.7210  214.1070  149.6490 O   0  0  0  0  0  1  0  0  0  0  0  0
  160.9650  210.8340  151.1140 C   0  0  2  0  0  3  0  0  0  0  0  0
  162.3680  210.9910  150.5110 C   0  0  0  0  0  2  0  0  0  0  0  0
  160.0740  212.0890  150.9290 C   0  0  1  0  0  3  0  0  0  0  0  0
  159.7630  212.6480  152.3210 C   0  0  2  0  0  3  0  0  0  0  0  0
  160.3750  211.6500  153.2300 C   0  0  0  0  0  0  0  0  0  0  0  0
  160.3250  211.7300  154.4850 O   0  0  0  0  0  0  0  0  0  0  0  0
  160.6930  213.1770  150.0340 C   0  0  1  0  0  3  0  0  0  0  0  0
  160.7170  212.5310  147.6630 O   0  0  0  0  0  0  0  0  0  0  0  0
  161.0580  211.3400  148.3270 C   0  0  2  0  0  3  0  0  0  0  0  0
  158.3210  212.6810  152.5090 N   0  0  0  0  0  2  0  0  0  0  0  0
  157.0880  214.4530  155.7300 C   0  0  0  0  0  3  0  0  0  0  0  0
  158.5010  214.0520  154.9040 S   0  0  0  0  0  0  0  0  0  0  0  0
  156.3660  213.2970  153.8310 N   0  0  0  0  0  0  0  0  0  0  0  0
  156.0290  213.9540  154.9740 C   0  0  0  0  0  0  0  0  0  0  0  0
  154.6120  214.1310  155.3860 C   0  0  0  0  0  1  0  0  0  0  0  0
  157.7020  213.2700  153.6540 C   0  0  0  0  0  0  0  0  0  0  0  0
  162.2360  209.8020  156.2280 C   0  0  0  0  0  1  0  0  0  0  0  0
  162.1150  208.7310  155.3410 O   0  0  0  0  0  0  0  0  0  0  0  0
  161.8900  207.1780  152.1720 O   0  0  0  0  0  0  0  0  0  0  0  0
  161.5680  205.8300  151.9950 C   0  0  0  0  0  0  0  0  0  0  0  0
  161.0860  205.1780  152.9580 O   0  0  0  0  0  0  0  0  0  0  0  0
  161.7620  205.1590  150.6620 C   0  0  0  0  0  2  0  0  0  0  0  0
  162.3540  206.8500  147.6230 C   0  0  0  0  0  2  0  0  0  0  0  0
  160.9310  204.9750  148.1920 C   0  0  1  0  0  3  0  0  0  0  0  0
  161.8640  207.0960  149.0260 C   0  0  0  0  0  2  0  0  0  0  0  0
  159.8260  206.2540  149.8540 O   0  0  0  0  0  1  0  0  0  0  0  0
  161.0970  205.8510  149.4550 C   0  0  2  0  0  0  0  0  0  0  0  0
  161.4050  205.8360  147.0290 C   0  0  0  0  0  2  0  0  0  0  0  0
  162.1630  203.1840  146.8290 C   0  0  0  0  0  2  0  0  0  0  0  0
  161.2140  202.2950  146.0090 C   0  0  2  0  0  3  0  0  0  0  0  0
  160.9570  201.1310  148.2900 C   0  0  0  0  0  2  0  0  0  0  0  0
  160.0420  203.0540  145.6060 N   0  0  0  0  0  1  0  0  0  0  0  0
  160.6100  202.5360  148.7680 C   0  0  0  0  0  2  0  0  0  0  0  0
  160.7840  201.0280  146.7710 C   0  0  2  0  0  3  0  0  0  0  0  0
  161.5960  203.5820  148.2130 C   0  0  2  0  0  3  0  0  0  0  0  0
  161.5330  199.8440  146.2670 C   0  0  0  0  0  3  0  0  0  0  0  0
  160.9650  198.9840  145.6110 O   0  0  0  0  0  0  0  0  0  0  0  0
  1 27  1  1  0  0  0
  1  3  1  0  0  0  0
  1  2  1  0  0  0  0
  2  4  1  0  0  0  0
  3  7  1  6  0  0  0
  3  4  1  0  0  0  0
  4 26  1  1  0  0  0
  5 16  1  6  0  0  0
  5  6  1  0  0  0  0
  5 15  1  0  0  0  0
  6 10  1  1  0  0  0
  7 13  1  0  0  0  0
  8 15  1  0  0  0  0
  9 10  1  1  0  0  0
  9  7  1  0  0  0  0
 11  9  1  0  0  0  0
 11 12  1  0  0  0  0
 12 18  1  0  0  0  0
 12 13  1  0  0  0  0
 13 14  2  0  0  0  0
 15 11  1  0  0  0  0
 16 17  1  0  0  0  0
 17  5  1  0  0  0  0
 17  6  1  0  0  0  0
 18 24  1  0  0  0  0
 20 19  1  0  0  0  0
 21 22  1  0  0  0  0
 22 23  1  0  0  0  0
 22 19  2  0  0  0  0
 24 21  2  0  0  0  0
 24 20  1  0  0  0  0
 26 25  1  0  0  0  0
 28 27  1  0  0  0  0
 28 29  2  0  0  0  0
 30 28  1  0  0  0  0
 31 33  1  0  0  0  0
 32 43  1  0  0  0  0
 32 35  1  0  0  0  0
 33 35  1  0  0  0  0
 35 34  1  0  0  0  0
 35 30  1  0  0  0  0
 36 31  1  0  0  0  0
 36 32  1  0  0  0  0
 37 43  1  0  0  0  0
 38 42  1  0  0  0  0
 38 37  1  0  0  0  0
 39 41  1  0  0  0  0
 40 38  1  0  0  0  0
 42 39  1  0  0  0  0
 43 41  1  0  0  0  0
 44 42  1  0  0  0  0
 45 44  2  0  0  0  0
M  END
>  <MODEL>
3

>  <REMARK>
 VINA RESULT:      -7.3      2.597      3.695
  Name = 
  9 active torsions:
  status: ('A' for Active; 'I' for Inactive)
    1  A    between atoms: N_1  and  C_16
    2  A    between atoms: N_5  and  C_29
    3  A    between atoms: C_7  and  O_39
    4  A    between atoms: C_20  and  C_28
    5  A    between atoms: C_20  and  C_32
    6  A    between atoms: C_22  and  C_43
    7  A    between atoms: C_27  and  C_31
    8  A    between atoms: C_32  and  O_39
    9  A    between atoms: O_33  and  C_38
                            x       y       z     vdW  Elec       q    Type
                         _______ _______ _______ _____ _____    ______ ____

>  <TORSDO>
F 9

$$$$
=
 OpenBabel11072412023D

 45 52  0  0  1  0  0  0  0  0999 V2000
  162.0770  210.1870  149.4050 C   0  0  1  0  0  3  0  0  0  0  0  0
  163.0390  211.2580  148.9190 C   0  0  0  0  0  2  0  0  0  0  0  0
  160.9840  211.2340  149.5120 C   0  0  2  0  0  3  0  0  0  0  0  0
  161.9510  212.3110  149.0590 C   0  0  2  0  0  3  0  0  0  0  0  0
  157.9680  214.2310  152.8750 C   0  0  1  0  0  0  0  0  0  0  0  0
  158.2380  214.4530  151.3940 C   0  0  1  0  0  3  0  0  0  0  0  0
  160.5570  211.4310  150.8990 N   0  0  0  0  0  0  0  0  0  0  0  0
  158.3170  212.8200  154.8280 O   0  0  0  0  0  1  0  0  0  0  0  0
  159.3210  212.1050  151.2370 C   0  0  2  0  0  3  0  0  0  0  0  0
  159.4010  213.5920  150.8660 C   0  0  0  0  0  2  0  0  0  0  0  0
  159.0980  211.8620  152.7520 C   0  0  1  0  0  3  0  0  0  0  0  0
  160.3320  211.1310  153.2920 C   0  0  2  0  0  3  0  0  0  0  0  0
  161.1400  210.8870  152.0740 C   0  0  0  0  0  0  0  0  0  0  0  0
  162.2430  210.2810  152.0800 O   0  0  0  0  0  0  0  0  0  0  0  0
  158.8270  213.1400  153.5650 C   0  0  1  0  0  3  0  0  0  0  0  0
  156.5950  214.0680  153.1250 O   0  0  0  0  0  0  0  0  0  0  0  0
  157.0290  213.6540  151.8550 C   0  0  2  0  0  3  0  0  0  0  0  0
  159.9160  209.8670  153.8800 N   0  0  0  0  0  2  0  0  0  0  0  0
  162.1440  208.5460  156.7660 C   0  0  0  0  0  3  0  0  0  0  0  0
  162.0100  209.8330  155.6870 S   0  0  0  0  0  0  0  0  0  0  0  0
  160.2570  208.0550  155.4760 N   0  0  0  0  0  0  0  0  0  0  0  0
  161.0860  207.6830  156.4900 C   0  0  0  0  0  0  0  0  0  0  0  0
  160.8670  206.4300  157.2590 C   0  0  0  0  0  1  0  0  0  0  0  0
  160.6400  209.2280  154.9340 C   0  0  0  0  0  0  0  0  0  0  0  0
  161.8790  214.1340  147.8080 C   0  0  0  0  0  1  0  0  0  0  0  0
  161.5820  212.7690  147.7920 O   0  0  0  0  0  0  0  0  0  0  0  0
  161.7740  209.2830  148.3480 O   0  0  0  0  0  0  0  0  0  0  0  0
  161.8740  207.8970  148.5040 C   0  0  0  0  0  0  0  0  0  0  0  0
  162.7530  207.2660  147.8610 O   0  0  0  0  0  0  0  0  0  0  0  0
  160.9660  207.1600  149.4500 C   0  0  0  0  0  2  0  0  0  0  0  0
  160.4700  205.2480  152.3720 C   0  0  0  0  0  2  0  0  0  0  0  0
  161.6670  204.7970  150.3160 C   0  0  1  0  0  3  0  0  0  0  0  0
  161.0440  206.5630  151.9150 C   0  0  0  0  0  2  0  0  0  0  0  0
  162.9910  206.7420  150.6020 O   0  0  0  0  0  1  0  0  0  0  0  0
  161.6640  206.3260  150.5430 C   0  0  2  0  0  0  0  0  0  0  0  0
  161.2580  204.1820  151.6480 C   0  0  0  0  0  2  0  0  0  0  0  0
  160.1680  202.9020  149.4500 C   0  0  0  0  0  2  0  0  0  0  0  0
  160.9660  201.6940  148.9350 C   0  0  2  0  0  3  0  0  0  0  0  0
  161.1580  203.1980  146.8550 C   0  0  0  0  0  2  0  0  0  0  0  0
  162.2090  201.5620  149.6770 N   0  0  0  0  0  1  0  0  0  0  0  0
  161.6970  204.2110  147.8580 C   0  0  0  0  0  2  0  0  0  0  0  0
  161.2600  201.7800  147.4260 C   0  0  2  0  0  3  0  0  0  0  0  0
  160.8320  204.2630  149.1310 C   0  0  2  0  0  3  0  0  0  0  0  0
  160.3490  200.8760  146.6700 C   0  0  0  0  0  3  0  0  0  0  0  0
  160.6920  200.4100  145.5940 O   0  0  0  0  0  0  0  0  0  0  0  0
  1 27  1  6  0  0  0
  1  3  1  0  0  0  0
  2  4  1  0  0  0  0
  2  1  1  0  0  0  0
  3  7  1  1  0  0  0
  4 26  1  6  0  0  0
  4  3  1  0  0  0  0
  5 16  1  1  0  0  0
  5 15  1  0  0  0  0
  6 10  1  6  0  0  0
  6 17  1  0  0  0  0
  6  5  1  0  0  0  0
  7  9  1  0  0  0  0
  7 13  1  0  0  0  0
  9 10  1  1  0  0  0
  9 11  1  0  0  0  0
 11 12  1  0  0  0  0
 11 15  1  0  0  0  0
 12 18  1  0  0  0  0
 13 14  2  0  0  0  0
 13 12  1  0  0  0  0
 15  8  1  0  0  0  0
 17  5  1  0  0  0  0
 17 16  1  0  0  0  0
 18 24  1  0  0  0  0
 20 19  1  0  0  0  0
 21 22  1  0  0  0  0
 22 19  2  0  0  0  0
 22 23  1  0  0  0  0
 24 21  2  0  0  0  0
 24 20  1  0  0  0  0
 26 25  1  0  0  0  0
 27 28  1  0  0  0  0
 28 30  1  0  0  0  0
 29 28  2  0  0  0  0
 30 35  1  0  0  0  0
 32 35  1  0  0  0  0
 32 36  1  0  0  0  0
 33 31  1  0  0  0  0
 35 34  1  0  0  0  0
 35 33  1  0  0  0  0
 36 31  1  0  0  0  0
 38 37  1  0  0  0  0
 38 40  1  0  0  0  0
 39 42  1  0  0  0  0
 39 41  1  0  0  0  0
 41 43  1  0  0  0  0
 42 38  1  0  0  0  0
 43 37  1  0  0  0  0
 43 32  1  0  0  0  0
 44 42  1  0  0  0  0
 45 44  2  0  0  0  0
M  END
>  <MODEL>
4

>  <REMARK>
 VINA RESULT:      -6.8      2.807      4.585
  Name = 
  9 active torsions:
  status: ('A' for Active; 'I' for Inactive)
    1  A    between atoms: N_1  and  C_16
    2  A    between atoms: N_5  and  C_29
    3  A    between atoms: C_7  and  O_39
    4  A    between atoms: C_20  and  C_28
    5  A    between atoms: C_20  and  C_32
    6  A    between atoms: C_22  and  C_43
    7  A    between atoms: C_27  and  C_31
    8  A    between atoms: C_32  and  O_39
    9  A    between atoms: O_33  and  C_38
                            x       y       z     vdW  Elec       q    Type
                         _______ _______ _______ _____ _____    ______ ____

>  <TORSDO>
F 9

$$$$
=
 OpenBabel11072412023D

 45 52  0  0  1  0  0  0  0  0999 V2000
  161.1070  208.0560  150.5590 C   0  0  1  0  0  3  0  0  0  0  0  0
  160.5630  207.0030  151.5100 C   0  0  0  0  0  2  0  0  0  0  0  0
  161.7410  208.7740  151.7360 C   0  0  2  0  0  3  0  0  0  0  0  0
  161.1690  207.7420  152.6920 C   0  0  2  0  0  3  0  0  0  0  0  0
  160.7980  213.6390  149.5390 C   0  0  1  0  0  0  0  0  0  0  0  0
  161.6100  212.4860  148.9700 C   0  0  1  0  0  3  0  0  0  0  0  0
  161.1500  210.0980  151.9440 N   0  0  0  0  0  0  0  0  0  0  0  0
  159.3980  214.4530  151.3570 O   0  0  0  0  0  1  0  0  0  0  0  0
  160.7190  210.9310  150.8410 C   0  0  2  0  0  3  0  0  0  0  0  0
  161.9270  211.4060  150.0220 C   0  0  0  0  0  2  0  0  0  0  0  0
  159.9110  212.0950  151.4710 C   0  0  1  0  0  3  0  0  0  0  0  0
  160.0130  211.9610  152.9940 C   0  0  2  0  0  3  0  0  0  0  0  0
  160.7590  210.6920  153.1720 C   0  0  0  0  0  0  0  0  0  0  0  0
  161.0390  210.2030  154.2970 O   0  0  0  0  0  0  0  0  0  0  0  0
  160.3610  213.4950  151.0190 C   0  0  1  0  0  3  0  0  0  0  0  0
  159.7250  213.9730  148.6950 O   0  0  0  0  0  0  0  0  0  0  0  0
  160.1310  212.6290  148.6490 C   0  0  2  0  0  3  0  0  0  0  0  0
  158.6740  211.8380  153.5510 N   0  0  0  0  0  2  0  0  0  0  0  0
  158.0510  213.7660  156.8580 C   0  0  0  0  0  3  0  0  0  0  0  0
  159.2530  213.4560  155.7190 S   0  0  0  0  0  0  0  0  0  0  0  0
  157.0470  212.3460  155.2950 N   0  0  0  0  0  0  0  0  0  0  0  0
  156.9180  213.0690  156.4410 C   0  0  0  0  0  0  0  0  0  0  0  0
  155.6390  213.1160  157.1970 C   0  0  0  0  0  1  0  0  0  0  0  0
  158.2850  212.4620  154.7770 C   0  0  0  0  0  0  0  0  0  0  0  0
  161.5840  206.1380  154.1560 C   0  0  0  0  0  1  0  0  0  0  0  0
  162.2070  206.9810  153.2340 O   0  0  0  0  0  0  0  0  0  0  0  0
  162.1240  207.4940  149.7360 O   0  0  0  0  0  0  0  0  0  0  0  0
  162.1670  207.7110  148.3560 C   0  0  0  0  0  0  0  0  0  0  0  0
  161.7580  208.8070  147.8910 O   0  0  0  0  0  0  0  0  0  0  0  0
  162.7240  206.6660  147.4280 C   0  0  0  0  0  2  0  0  0  0  0  0
  162.3070  204.2370  144.9040 C   0  0  0  0  0  2  0  0  0  0  0  0
  161.0960  204.6780  146.9540 C   0  0  1  0  0  3  0  0  0  0  0  0
  162.3330  205.7300  145.1020 C   0  0  0  0  0  2  0  0  0  0  0  0
  160.6680  206.9100  146.2800 O   0  0  0  0  0  1  0  0  0  0  0  0
  161.7130  206.0090  146.4670 C   0  0  2  0  0  0  0  0  0  0  0  0
  161.1770  203.7280  145.7670 C   0  0  0  0  0  2  0  0  0  0  0  0
  161.9580  202.5520  148.1050 C   0  0  0  0  0  2  0  0  0  0  0  0
  160.8270  201.6670  148.6520 C   0  0  2  0  0  3  0  0  0  0  0  0
  160.9350  203.3790  150.5700 C   0  0  0  0  0  2  0  0  0  0  0  0
  159.6420  201.7970  147.8200 N   0  0  0  0  0  1  0  0  0  0  0  0
  160.7590  204.3870  149.4420 C   0  0  0  0  0  2  0  0  0  0  0  0
  160.4790  201.9890  150.1170 C   0  0  2  0  0  3  0  0  0  0  0  0
  161.6780  204.0690  148.2480 C   0  0  2  0  0  3  0  0  0  0  0  0
  161.0570  200.9590  151.0240 C   0  0  0  0  0  3  0  0  0  0  0  0
  161.9580  201.2490  151.7970 O   0  0  0  0  0  0  0  0  0  0  0  0
  1 27  1  6  0  0  0
  1  2  1  0  0  0  0
  1  3  1  0  0  0  0
  2  4  1  0  0  0  0
  3  7  1  1  0  0  0
  3  4  1  0  0  0  0
  4 26  1  6  0  0  0
  5 16  1  6  0  0  0
  5 15  1  0  0  0  0
  6  5  1  0  0  0  0
  6 10  1  1  0  0  0
  7 13  1  0  0  0  0
  9 10  1  1  0  0  0
  9 11  1  0  0  0  0
  9  7  1  0  0  0  0
 11 12  1  0  0  0  0
 12 13  1  0  0  0  0
 12 18  1  0  0  0  0
 13 14  2  0  0  0  0
 15  8  1  0  0  0  0
 15 11  1  0  0  0  0
 17 16  1  0  0  0  0
 17  6  1  0  0  0  0
 17  5  1  0  0  0  0
 18 24  1  0  0  0  0
 20 19  1  0  0  0  0
 21 22  1  0  0  0  0
 22 19  2  0  0  0  0
 22 23  1  0  0  0  0
 24 21  2  0  0  0  0
 24 20  1  0  0  0  0
 26 25  1  0  0  0  0
 28 27  1  0  0  0  0
 29 28  2  0  0  0  0
 30 28  1  0  0  0  0
 31 33  1  0  0  0  0
 31 36  1  0  0  0  0
 32 43  1  0  0  0  0
 33 35  1  0  0  0  0
 34 35  1  0  0  0  0
 35 32  1  0  0  0  0
 35 30  1  0  0  0  0
 36 32  1  0  0  0  0
 37 43  1  0  0  0  0
 37 38  1  0  0  0  0
 38 42  1  0  0  0  0
 40 38  1  0  0  0  0
 41 39  1  0  0  0  0
 42 39  1  0  0  0  0
 42 44  1  0  0  0  0
 43 41  1  0  0  0  0
 44 45  2  0  0  0  0
M  END
>  <MODEL>
5

>  <REMARK>
 VINA RESULT:      -6.4      2.251      4.212
  Name = 
  9 active torsions:
  status: ('A' for Active; 'I' for Inactive)
    1  A    between atoms: N_1  and  C_16
    2  A    between atoms: N_5  and  C_29
    3  A    between atoms: C_7  and  O_39
    4  A    between atoms: C_20  and  C_28
    5  A    between atoms: C_20  and  C_32
    6  A    between atoms: C_22  and  C_43
    7  A    between atoms: C_27  and  C_31
    8  A    between atoms: C_32  and  O_39
    9  A    between atoms: O_33  and  C_38
                            x       y       z     vdW  Elec       q    Type
                         _______ _______ _______ _____ _____    ______ ____

>  <TORSDO>
F 9

$$$$
=
 OpenBabel11072412023D

 45 52  0  0  1  0  0  0  0  0999 V2000
  161.1750  207.0060  152.8630 C   0  0  1  0  0  3  0  0  0  0  0  0
  162.0340  205.8900  153.4330 C   0  0  0  0  0  2  0  0  0  0  0  0
  160.7440  206.0840  151.7370 C   0  0  2  0  0  3  0  0  0  0  0  0
  161.6280  204.9780  152.2860 C   0  0  2  0  0  3  0  0  0  0  0  0
  162.1000  204.6750  146.6810 C   0  0  1  0  0  0  0  0  0  0  0  0
  161.7370  203.7720  147.8500 C   0  0  1  0  0  3  0  0  0  0  0  0
  161.2130  206.5640  150.4350 N   0  0  0  0  0  0  0  0  0  0  0  0
  162.3660  206.9530  145.8640 O   0  0  0  0  0  1  0  0  0  0  0  0
  160.9620  205.8360  149.2090 C   0  0  2  0  0  3  0  0  0  0  0  0
  161.7420  204.5140  149.1990 C   0  0  0  0  0  2  0  0  0  0  0  0
  161.3580  206.7900  148.0540 C   0  0  1  0  0  3  0  0  0  0  0  0
  161.9730  208.0470  148.6780 C   0  0  2  0  0  3  0  0  0  0  0  0
  161.8020  207.8190  150.1320 C   0  0  0  0  0  0  0  0  0  0  0  0
  162.1650  208.6430  151.0130 O   0  0  0  0  0  0  0  0  0  0  0  0
  162.3200  206.1710  147.0240 C   0  0  1  0  0  3  0  0  0  0  0  0
  161.2140  204.4980  145.6040 O   0  0  0  0  0  0  0  0  0  0  0  0
  160.6710  204.2520  146.8770 C   0  0  2  0  0  3  0  0  0  0  0  0
  161.2060  209.2100  148.2580 N   0  0  0  0  0  2  0  0  0  0  0  0
  163.1290  212.5780  148.2610 C   0  0  0  0  0  3  0  0  0  0  0  0
  163.3370  210.9400  148.5990 S   0  0  0  0  0  0  0  0  0  0  0  0
  161.0430  211.6080  147.8430 N   0  0  0  0  0  0  0  0  0  0  0  0
  161.8050  212.7360  147.8570 C   0  0  0  0  0  0  0  0  0  0  0  0
  161.2530  214.0570  147.4600 C   0  0  0  0  0  1  0  0  0  0  0  0
  161.7550  210.5300  148.2270 C   0  0  0  0  0  0  0  0  0  0  0  0
  161.1870  202.8280  152.0110 C   0  0  0  0  0  1  0  0  0  0  0  0
  160.8310  203.9420  152.7750 O   0  0  0  0  0  0  0  0  0  0  0  0
  160.0700  207.2620  153.7230 O   0  0  0  0  0  0  0  0  0  0  0  0
  160.2240  207.4230  155.1030 C   0  0  0  0  0  0  0  0  0  0  0  0
  160.8840  206.5710  155.7540 O   0  0  0  0  0  0  0  0  0  0  0  0
  159.6390  208.6150  155.8100 C   0  0  0  0  0  2  0  0  0  0  0  0
  161.7200  210.7140  153.8850 C   0  0  0  0  0  2  0  0  0  0  0  0
  159.8310  211.1760  155.3280 C   0  0  1  0  0  3  0  0  0  0  0  0
  161.7820  209.7080  155.0040 C   0  0  0  0  0  2  0  0  0  0  0  0
  160.8980  210.1030  157.1520 O   0  0  0  0  0  1  0  0  0  0  0  0
  160.5140  209.8840  155.8320 C   0  0  2  0  0  0  0  0  0  0  0  0
  160.8310  211.8290  154.3830 C   0  0  0  0  0  2  0  0  0  0  0  0
  158.2410  211.9360  153.4620 C   0  0  0  0  0  2  0  0  0  0  0  0
  157.5380  213.2660  153.7780 C   0  0  2  0  0  3  0  0  0  0  0  0
  156.0250  211.6970  155.1460 C   0  0  0  0  0  2  0  0  0  0  0  0
  158.4000  214.1050  154.5950 N   0  0  0  0  0  1  0  0  0  0  0  0
  157.3440  211.2600  155.7710 C   0  0  0  0  0  2  0  0  0  0  0  0
  156.1810  213.0660  154.4770 C   0  0  2  0  0  3  0  0  0  0  0  0
  158.4270  211.0260  154.7010 C   0  0  2  0  0  3  0  0  0  0  0  0
  155.0670  213.2750  153.5110 C   0  0  0  0  0  3  0  0  0  0  0  0
  155.1850  214.0690  152.5910 O   0  0  0  0  0  0  0  0  0  0  0  0
  1  2  1  0  0  0  0
  1 27  1  1  0  0  0
  3  7  1  6  0  0  0
  3  4  1  0  0  0  0
  3  1  1  0  0  0  0
  4 26  1  1  0  0  0
  4  2  1  0  0  0  0
  5 16  1  6  0  0  0
  5 17  1  0  0  0  0
  5 15  1  0  0  0  0
  5  6  1  0  0  0  0
  6 10  1  1  0  0  0
  8 15  1  0  0  0  0
  9 10  1  1  0  0  0
  9  7  1  0  0  0  0
 11 12  1  0  0  0  0
 11  9  1  0  0  0  0
 12 13  1  0  0  0  0
 13  7  1  0  0  0  0
 13 14  2  0  0  0  0
 15 11  1  0  0  0  0
 16 17  1  0  0  0  0
 17  6  1  0  0  0  0
 18 12  1  0  0  0  0
 19 20  1  0  0  0  0
 21 22  1  0  0  0  0
 21 24  2  0  0  0  0
 22 19  2  0  0  0  0
 23 22  1  0  0  0  0
 24 18  1  0  0  0  0
 24 20  1  0  0  0  0
 25 26  1  0  0  0  0
 27 28  1  0  0  0  0
 28 29  2  0  0  0  0
 28 30  1  0  0  0  0
 30 35  1  0  0  0  0
 31 36  1  0  0  0  0
 31 33  1  0  0  0  0
 32 35  1  0  0  0  0
 33 35  1  0  0  0  0
 35 34  1  0  0  0  0
 36 32  1  0  0  0  0
 37 38  1  0  0  0  0
 37 43  1  0  0  0  0
 38 42  1  0  0  0  0
 38 40  1  0  0  0  0
 39 41  1  0  0  0  0
 42 39  1  0  0  0  0
 43 32  1  0  0  0  0
 43 41  1  0  0  0  0
 44 42  1  0  0  0  0
 45 44  2  0  0  0  0
M  END
>  <MODEL>
6

>  <REMARK>
 VINA RESULT:      -5.9      2.907      9.163
  Name = 
  9 active torsions:
  status: ('A' for Active; 'I' for Inactive)
    1  A    between atoms: N_1  and  C_16
    2  A    between atoms: N_5  and  C_29
    3  A    between atoms: C_7  and  O_39
    4  A    between atoms: C_20  and  C_28
    5  A    between atoms: C_20  and  C_32
    6  A    between atoms: C_22  and  C_43
    7  A    between atoms: C_27  and  C_31
    8  A    between atoms: C_32  and  O_39
    9  A    between atoms: O_33  and  C_38
                            x       y       z     vdW  Elec       q    Type
                         _______ _______ _______ _____ _____    ______ ____

>  <TORSDO>
F 9

$$$$
=
 OpenBabel11072412023D

 45 52  0  0  1  0  0  0  0  0999 V2000
  162.0690  209.9860  149.3530 C   0  0  1  0  0  3  0  0  0  0  0  0
  163.1810  210.9330  148.9340 C   0  0  0  0  0  2  0  0  0  0  0  0
  161.1110  211.1610  149.4260 C   0  0  2  0  0  3  0  0  0  0  0  0
  162.2280  212.1130  149.0400 C   0  0  2  0  0  3  0  0  0  0  0  0
  158.0130  214.2550  152.6220 C   0  0  1  0  0  0  0  0  0  0  0  0
  158.3300  214.4400  151.1460 C   0  0  1  0  0  3  0  0  0  0  0  0
  160.6430  211.3930  150.7940 N   0  0  0  0  0  0  0  0  0  0  0  0
  158.2920  212.8880  154.6170 O   0  0  0  0  0  1  0  0  0  0  0  0
  159.4020  212.0820  151.0770 C   0  0  2  0  0  3  0  0  0  0  0  0
  159.5030  213.5600  150.6740 C   0  0  0  0  0  2  0  0  0  0  0  0
  159.1310  211.8770  152.5900 C   0  0  1  0  0  3  0  0  0  0  0  0
  160.3420  211.1510  153.1850 C   0  0  2  0  0  3  0  0  0  0  0  0
  161.1850  210.8740  151.9990 C   0  0  0  0  0  0  0  0  0  0  0  0
  162.2840  210.2620  152.0540 O   0  0  0  0  0  0  0  0  0  0  0  0
  158.8430  213.1750  153.3630 C   0  0  1  0  0  3  0  0  0  0  0  0
  156.6320  214.1050  152.8330 O   0  0  0  0  0  0  0  0  0  0  0  0
  157.1020  213.6590  151.5870 C   0  0  2  0  0  3  0  0  0  0  0  0
  159.9000  209.9040  153.7900 N   0  0  0  0  0  2  0  0  0  0  0  0
  162.0510  208.6180  156.7490 C   0  0  0  0  0  3  0  0  0  0  0  0
  161.9540  209.8840  155.6410 S   0  0  0  0  0  0  0  0  0  0  0  0
  160.1860  208.1210  155.4290 N   0  0  0  0  0  0  0  0  0  0  0  0
  160.9890  207.7610  156.4670 C   0  0  0  0  0  0  0  0  0  0  0  0
  160.7400  206.5260  157.2570 C   0  0  0  0  0  1  0  0  0  0  0  0
  160.5930  209.2790  154.8710 C   0  0  0  0  0  0  0  0  0  0  0  0
  162.4350  213.9500  147.8250 C   0  0  0  0  0  1  0  0  0  0  0  0
  161.9830  212.6290  147.7660 O   0  0  0  0  0  0  0  0  0  0  0  0
  161.7100  209.1400  148.2660 O   0  0  0  0  0  0  0  0  0  0  0  0
  161.5150  207.7650  148.4280 C   0  0  0  0  0  0  0  0  0  0  0  0
  160.6250  207.3570  149.2190 O   0  0  0  0  0  0  0  0  0  0  0  0
  162.3320  206.7730  147.6460 C   0  0  0  0  0  2  0  0  0  0  0  0
  162.6940  204.4850  144.9870 C   0  0  0  0  0  2  0  0  0  0  0  0
  161.1270  204.6040  146.8280 C   0  0  1  0  0  3  0  0  0  0  0  0
  162.4560  205.9490  145.2500 C   0  0  0  0  0  2  0  0  0  0  0  0
  160.4670  206.7890  146.1900 O   0  0  0  0  0  1  0  0  0  0  0  0
  161.5970  206.0410  146.5060 C   0  0  2  0  0  0  0  0  0  0  0  0
  161.5380  203.7580  145.6310 C   0  0  0  0  0  2  0  0  0  0  0  0
  161.9810  202.5090  148.0400 C   0  0  0  0  0  2  0  0  0  0  0  0
  160.8530  201.5420  148.4330 C   0  0  2  0  0  3  0  0  0  0  0  0
  160.6230  203.2120  150.3780 C   0  0  0  0  0  2  0  0  0  0  0  0
  159.7700  201.6180  147.4670 N   0  0  0  0  0  1  0  0  0  0  0  0
  160.5170  204.2340  149.2530 C   0  0  0  0  0  2  0  0  0  0  0  0
  160.3140  201.8070  149.8510 C   0  0  2  0  0  3  0  0  0  0  0  0
  161.5900  204.0010  148.1730 C   0  0  2  0  0  3  0  0  0  0  0  0
  160.8470  200.7940  150.8030 C   0  0  0  0  0  3  0  0  0  0  0  0
  161.8460  201.0300  151.4650 O   0  0  0  0  0  0  0  0  0  0  0  0
  1 27  1  6  0  0  0
  1  3  1  0  0  0  0
  2  4  1  0  0  0  0
  2  1  1  0  0  0  0
  3  7  1  1  0  0  0
  4 26  1  6  0  0  0
  4  3  1  0  0  0  0
  5 16  1  1  0  0  0
  5 15  1  0  0  0  0
  6 10  1  1  0  0  0
  6 17  1  0  0  0  0
  6  5  1  0  0  0  0
  7  9  1  0  0  0  0
  7 13  1  0  0  0  0
  9 10  1  1  0  0  0
  9 11  1  0  0  0  0
 11 12  1  0  0  0  0
 11 15  1  0  0  0  0
 12 18  1  0  0  0  0
 13 14  2  0  0  0  0
 13 12  1  0  0  0  0
 15  8  1  0  0  0  0
 17  5  1  0  0  0  0
 17 16  1  0  0  0  0
 18 24  1  0  0  0  0
 20 19  1  0  0  0  0
 21 22  1  0  0  0  0
 22 19  2  0  0  0  0
 22 23  1  0  0  0  0
 24 21  2  0  0  0  0
 24 20  1  0  0  0  0
 26 25  1  0  0  0  0
 27 28  1  0  0  0  0
 28 29  2  0  0  0  0
 30 28  1  0  0  0  0
 31 33  1  0  0  0  0
 31 36  1  0  0  0  0
 32 43  1  0  0  0  0
 33 35  1  0  0  0  0
 34 35  1  0  0  0  0
 35 32  1  0  0  0  0
 35 30  1  0  0  0  0
 36 32  1  0  0  0  0
 37 43  1  0  0  0  0
 37 38  1  0  0  0  0
 38 42  1  0  0  0  0
 40 38  1  0  0  0  0
 41 39  1  0  0  0  0
 42 39  1  0  0  0  0
 42 44  1  0  0  0  0
 43 41  1  0  0  0  0
 44 45  2  0  0  0  0
M  END
>  <MODEL>
7

>  <REMARK>
 VINA RESULT:      -5.9      2.906      5.263
  Name = 
  9 active torsions:
  status: ('A' for Active; 'I' for Inactive)
    1  A    between atoms: N_1  and  C_16
    2  A    between atoms: N_5  and  C_29
    3  A    between atoms: C_7  and  O_39
    4  A    between atoms: C_20  and  C_28
    5  A    between atoms: C_20  and  C_32
    6  A    between atoms: C_22  and  C_43
    7  A    between atoms: C_27  and  C_31
    8  A    between atoms: C_32  and  O_39
    9  A    between atoms: O_33  and  C_38
                            x       y       z     vdW  Elec       q    Type
                         _______ _______ _______ _____ _____    ______ ____

>  <TORSDO>
F 9

$$$$
=
 OpenBabel11072412023D

 45 52  0  0  1  0  0  0  0  0999 V2000
  160.7190  207.9870  152.4100 C   0  0  1  0  0  3  0  0  0  0  0  0
  160.1260  207.6590  153.7700 C   0  0  0  0  0  2  0  0  0  0  0  0
  161.4500  209.1660  153.0260 C   0  0  2  0  0  3  0  0  0  0  0  0
  160.8320  208.8600  154.3780 C   0  0  2  0  0  3  0  0  0  0  0  0
  161.6400  212.5760  148.8160 C   0  0  1  0  0  0  0  0  0  0  0  0
  162.4380  211.3010  149.0370 C   0  0  1  0  0  3  0  0  0  0  0  0
  160.9740  210.4400  152.4830 N   0  0  0  0  0  0  0  0  0  0  0  0
  159.9190  214.0820  149.6530 O   0  0  0  0  0  1  0  0  0  0  0  0
  160.9340  210.7050  151.0600 C   0  0  2  0  0  3  0  0  0  0  0  0
  162.3560  210.7910  150.4880 C   0  0  0  0  0  2  0  0  0  0  0  0
  160.1240  212.0160  150.8890 C   0  0  1  0  0  3  0  0  0  0  0  0
  159.8180  212.5600  152.2880 C   0  0  2  0  0  3  0  0  0  0  0  0
  160.3500  211.5050  153.1830 C   0  0  0  0  0  0  0  0  0  0  0  0
  160.2780  211.5580  154.4390 O   0  0  0  0  0  0  0  0  0  0  0  0
  160.8250  213.0860  150.0330 C   0  0  1  0  0  3  0  0  0  0  0  0
  160.8610  212.4960  147.6490 O   0  0  0  0  0  0  0  0  0  0  0  0
  161.1150  211.2710  148.2890 C   0  0  2  0  0  3  0  0  0  0  0  0
  158.3770  212.6750  152.4480 N   0  0  0  0  0  2  0  0  0  0  0  0
  157.1850  214.4450  155.6870 C   0  0  0  0  0  3  0  0  0  0  0  0
  158.5880  213.9780  154.8790 S   0  0  0  0  0  0  0  0  0  0  0  0
  156.4350  213.3780  153.7460 N   0  0  0  0  0  0  0  0  0  0  0  0
  156.1140  214.0280  154.8980 C   0  0  0  0  0  0  0  0  0  0  0  0
  154.7020  214.2810  155.2860 C   0  0  0  0  0  1  0  0  0  0  0  0
  157.7700  213.2750  153.5950 C   0  0  0  0  0  0  0  0  0  0  0  0
  161.9530  209.4530  156.1900 C   0  0  0  0  0  1  0  0  0  0  0  0
  161.8230  208.4210  155.2570 O   0  0  0  0  0  0  0  0  0  0  0  0
  161.6580  206.9860  152.0300 O   0  0  0  0  0  0  0  0  0  0  0  0
  161.4760  205.6380  152.3510 C   0  0  0  0  0  0  0  0  0  0  0  0
  161.9130  205.1990  153.4470 O   0  0  0  0  0  0  0  0  0  0  0  0
  160.7400  204.7150  151.4170 C   0  0  0  0  0  2  0  0  0  0  0  0
  160.4460  201.4360  150.1520 C   0  0  0  0  0  2  0  0  0  0  0  0
  161.7150  203.3590  149.4080 C   0  0  1  0  0  3  0  0  0  0  0  0
  160.8590  202.1810  151.3940 C   0  0  0  0  0  2  0  0  0  0  0  0
  162.7860  203.5310  151.5150 O   0  0  0  0  0  1  0  0  0  0  0  0
  161.5210  203.4760  150.9370 C   0  0  2  0  0  0  0  0  0  0  0  0
  161.3680  201.9180  149.0580 C   0  0  0  0  0  2  0  0  0  0  0  0
  160.6090  203.8080  147.1360 C   0  0  0  0  0  2  0  0  0  0  0  0
  161.6200  204.1790  146.0400 C   0  0  2  0  0  3  0  0  0  0  0  0
  161.4260  206.4790  147.1780 C   0  0  0  0  0  2  0  0  0  0  0  0
  162.8890  203.5120  146.2830 N   0  0  0  0  0  1  0  0  0  0  0  0
  161.7790  205.6890  148.4320 C   0  0  0  0  0  2  0  0  0  0  0  0
  161.8380  205.6990  145.9250 C   0  0  2  0  0  3  0  0  0  0  0  0
  160.9670  204.3840  148.5270 C   0  0  2  0  0  3  0  0  0  0  0  0
  161.1070  206.2380  144.7450 C   0  0  0  0  0  3  0  0  0  0  0  0
  161.0780  205.6120  143.6960 O   0  0  0  0  0  0  0  0  0  0  0  0
  1 27  1  1  0  0  0
  1  3  1  0  0  0  0
  1  2  1  0  0  0  0
  2  4  1  0  0  0  0
  3  7  1  6  0  0  0
  3  4  1  0  0  0  0
  4 26  1  1  0  0  0
  5 16  1  6  0  0  0
  5  6  1  0  0  0  0
  5 15  1  0  0  0  0
  6 10  1  1  0  0  0
  7 13  1  0  0  0  0
  8 15  1  0  0  0  0
  9 10  1  1  0  0  0
  9  7  1  0  0  0  0
 11  9  1  0  0  0  0
 11 12  1  0  0  0  0
 12 18  1  0  0  0  0
 12 13  1  0  0  0  0
 13 14  2  0  0  0  0
 15 11  1  0  0  0  0
 16 17  1  0  0  0  0
 17  5  1  0  0  0  0
 17  6  1  0  0  0  0
 18 24  1  0  0  0  0
 20 19  1  0  0  0  0
 21 22  1  0  0  0  0
 22 23  1  0  0  0  0
 22 19  2  0  0  0  0
 24 21  2  0  0  0  0
 24 20  1  0  0  0  0
 26 25  1  0  0  0  0
 27 28  1  0  0  0  0
 28 29  2  0  0  0  0
 30 28  1  0  0  0  0
 31 33  1  0  0  0  0
 32 35  1  0  0  0  0
 35 33  1  0  0  0  0
 35 30  1  0  0  0  0
 35 34  1  0  0  0  0
 36 32  1  0  0  0  0
 36 31  1  0  0  0  0
 37 43  1  0  0  0  0
 38 40  1  0  0  0  0
 38 37  1  0  0  0  0
 39 41  1  0  0  0  0
 41 43  1  0  0  0  0
 42 38  1  0  0  0  0
 42 39  1  0  0  0  0
 43 32  1  0  0  0  0
 44 42  1  0  0  0  0
 45 44  2  0  0  0  0
M  END
>  <MODEL>
8

>  <REMARK>
 VINA RESULT:      -5.7      2.223      3.050
  Name = 
  9 active torsions:
  status: ('A' for Active; 'I' for Inactive)
    1  A    between atoms: N_1  and  C_16
    2  A    between atoms: N_5  and  C_29
    3  A    between atoms: C_7  and  O_39
    4  A    between atoms: C_20  and  C_28
    5  A    between atoms: C_20  and  C_32
    6  A    between atoms: C_22  and  C_43
    7  A    between atoms: C_27  and  C_31
    8  A    between atoms: C_32  and  O_39
    9  A    between atoms: O_33  and  C_38
                            x       y       z     vdW  Elec       q    Type
                         _______ _______ _______ _____ _____    ______ ____

>  <TORSDO>
F 9

$$$$
=
 OpenBabel11072412023D

 45 52  0  0  1  0  0  0  0  0999 V2000
  162.1900  209.7790  152.7850 C   0  0  1  0  0  3  0  0  0  0  0  0
  163.2660  210.3950  151.9050 C   0  0  0  0  0  2  0  0  0  0  0  0
  161.1590  210.0770  151.7130 C   0  0  2  0  0  3  0  0  0  0  0  0
  162.2240  210.7240  150.8470 C   0  0  2  0  0  3  0  0  0  0  0  0
  158.2140  214.4290  150.3810 C   0  0  1  0  0  0  0  0  0  0  0  0
  159.2980  213.7370  149.5700 C   0  0  1  0  0  3  0  0  0  0  0  0
  160.1650  211.0490  152.1740 N   0  0  0  0  0  0  0  0  0  0  0  0
  156.8900  214.4530  152.4240 O   0  0  0  0  0  1  0  0  0  0  0  0
  159.3080  211.7700  151.2560 C   0  0  2  0  0  3  0  0  0  0  0  0
  160.1320  212.7510  150.4100 C   0  0  0  0  0  2  0  0  0  0  0  0
  158.2330  212.4670  152.1290 C   0  0  1  0  0  3  0  0  0  0  0  0
  158.5930  212.2190  153.5980 C   0  0  2  0  0  3  0  0  0  0  0  0
  159.7650  211.3160  153.5100 C   0  0  0  0  0  0  0  0  0  0  0  0
  160.3620  210.8510  154.5160 O   0  0  0  0  0  0  0  0  0  0  0  0
  158.0750  213.9730  151.8570 C   0  0  1  0  0  3  0  0  0  0  0  0
  156.9830  214.4210  149.7020 O   0  0  0  0  0  0  0  0  0  0  0  0
  157.8380  213.3430  149.4140 C   0  0  2  0  0  3  0  0  0  0  0  0
  157.4840  211.5410  154.2520 N   0  0  0  0  0  2  0  0  0  0  0  0
  155.2530  213.7680  156.5100 C   0  0  0  0  0  3  0  0  0  0  0  0
  156.6110  213.8410  155.5150 S   0  0  0  0  0  0  0  0  0  0  0  0
  155.5580  211.5790  155.7470 N   0  0  0  0  0  0  0  0  0  0  0  0
  154.8230  212.4430  156.4990 C   0  0  0  0  0  0  0  0  0  0  0  0
  153.6270  211.9940  157.2610 C   0  0  0  0  0  1  0  0  0  0  0  0
  156.5830  212.2080  155.1370 C   0  0  0  0  0  0  0  0  0  0  0  0
  161.8980  210.6700  148.6600 C   0  0  0  0  0  1  0  0  0  0  0  0
  162.4480  209.9380  149.7150 O   0  0  0  0  0  0  0  0  0  0  0  0
  162.3860  208.3720  152.8840 O   0  0  0  0  0  0  0  0  0  0  0  0
  161.3170  207.4710  152.8850 C   0  0  0  0  0  0  0  0  0  0  0  0
  160.5730  207.3970  153.8980 O   0  0  0  0  0  0  0  0  0  0  0  0
  161.0290  206.6150  151.6820 C   0  0  0  0  0  2  0  0  0  0  0  0
  160.5850  203.1250  151.9310 C   0  0  0  0  0  2  0  0  0  0  0  0
  161.6900  204.5110  150.2810 C   0  0  1  0  0  3  0  0  0  0  0  0
  161.1800  204.2880  152.6800 C   0  0  0  0  0  2  0  0  0  0  0  0
  163.0820  205.4680  151.9440 O   0  0  0  0  0  1  0  0  0  0  0  0
  161.7420  205.2490  151.6380 C   0  0  2  0  0  0  0  0  0  0  0  0
  161.3130  203.0730  150.6090 C   0  0  0  0  0  2  0  0  0  0  0  0
  160.7320  204.2410  147.9150 C   0  0  0  0  0  2  0  0  0  0  0  0
  161.7180  204.6700  146.8170 C   0  0  2  0  0  3  0  0  0  0  0  0
  160.8370  206.9970  147.4730 C   0  0  0  0  0  2  0  0  0  0  0  0
  163.0840  204.4200  147.2460 N   0  0  0  0  0  1  0  0  0  0  0  0
  161.2560  206.5640  148.8730 C   0  0  0  0  0  2  0  0  0  0  0  0
  161.5530  206.1480  146.4180 C   0  0  2  0  0  3  0  0  0  0  0  0
  160.7950  205.1280  149.1830 C   0  0  2  0  0  3  0  0  0  0  0  0
  160.8270  206.2550  145.1220 C   0  0  0  0  0  3  0  0  0  0  0  0
  160.2840  205.2760  144.6340 O   0  0  0  0  0  0  0  0  0  0  0  0
  1 27  1  6  0  0  0
  2  1  1  0  0  0  0
  3  7  1  1  0  0  0
  3  1  1  0  0  0  0
  4 26  1  6  0  0  0
  4  3  1  0  0  0  0
  4  2  1  0  0  0  0
  5 16  1  6  0  0  0
  5 15  1  0  0  0  0
  6  5  1  0  0  0  0
  6 10  1  1  0  0  0
  7 13  1  0  0  0  0
  9 10  1  1  0  0  0
  9 11  1  0  0  0  0
  9  7  1  0  0  0  0
 11 12  1  0  0  0  0
 12 18  1  0  0  0  0
 13 12  1  0  0  0  0
 13 14  2  0  0  0  0
 15 11  1  0  0  0  0
 15  8  1  0  0  0  0
 17  6  1  0  0  0  0
 17 16  1  0  0  0  0
 17  5  1  0  0  0  0
 18 24  1  0  0  0  0
 20 19  1  0  0  0  0
 21 22  1  0  0  0  0
 22 19  2  0  0  0  0
 22 23  1  0  0  0  0
 24 20  1  0  0  0  0
 24 21  2  0  0  0  0
 25 26  1  0  0  0  0
 27 28  1  0  0  0  0
 28 29  2  0  0  0  0
 30 28  1  0  0  0  0
 31 33  1  0  0  0  0
 32 36  1  0  0  0  0
 32 35  1  0  0  0  0
 35 30  1  0  0  0  0
 35 34  1  0  0  0  0
 35 33  1  0  0  0  0
 36 31  1  0  0  0  0
 37 43  1  0  0  0  0
 38 40  1  0  0  0  0
 38 37  1  0  0  0  0
 39 41  1  0  0  0  0
 41 43  1  0  0  0  0
 42 38  1  0  0  0  0
 42 39  1  0  0  0  0
 43 32  1  0  0  0  0
 44 42  1  0  0  0  0
 45 44  2  0  0  0  0
M  END
>  <MODEL>
9

>  <REMARK>
 VINA RESULT:      -5.5      1.785      2.740
  Name = 
  9 active torsions:
  status: ('A' for Active; 'I' for Inactive)
    1  A    between atoms: N_1  and  C_16
    2  A    between atoms: N_5  and  C_29
    3  A    between atoms: C_7  and  O_39
    4  A    between atoms: C_20  and  C_28
    5  A    between atoms: C_20  and  C_32
    6  A    between atoms: C_22  and  C_43
    7  A    between atoms: C_27  and  C_31
    8  A    between atoms: C_32  and  O_39
    9  A    between atoms: O_33  and  C_38
                            x       y       z     vdW  Elec       q    Type
                         _______ _______ _______ _____ _____    ______ ____

>  <TORSDO>
F 9

$$$$
