=
 OpenBabel11072414303D

 65 70  0  0  1  0  0  0  0  0999 V2000
  160.1850  208.6210  152.9960 C   0  0  0  0  0  2  0  0  0  0  0  0
  161.9230  206.8640  150.9530 C   0  0  2  0  0  3  0  0  0  0  0  0
  159.2270  208.6240  154.1640 C   0  0  0  0  0  2  0  0  0  0  0  0
  160.7420  209.7350  156.0390 C   0  0  2  0  0  3  0  0  0  0  0  0
  161.1410  206.3730  153.7020 C   0  0  0  0  0  2  0  0  0  0  0  0
  161.7470  208.5910  155.6940 C   0  0  2  0  0  0  0  0  0  0  0  0
  162.2690  208.5280  154.3460 O   0  0  0  0  0  0  0  0  0  0  0  0
  159.4570  209.7220  155.2130 C   0  0  1  0  0  0  0  0  0  0  0  0
  161.2910  210.8610  153.9360 F   0  0  0  0  0  0  0  0  0  0  0  0
  161.5470  205.3790  152.6060 C   0  0  2  0  0  3  0  0  0  0  0  0
  161.4800  207.8580  153.3480 C   0  0  2  0  0  0  0  0  0  0  0  0
  161.1740  207.3700  156.1240 O   0  0  0  0  0  1  0  0  0  0  0  0
  161.0370  205.8620  151.4010 O   0  0  0  0  0  0  0  0  0  0  0  0
  160.5090  210.8650  155.0540 C   0  0  2  0  0  0  0  0  0  0  0  0
  162.9370  208.8770  156.5970 C   0  0  0  0  0  1  0  0  0  0  0  0
  162.3160  207.8950  152.0400 C   0  0  0  0  0  2  0  0  0  0  0  0
  160.0690  212.2220  155.5810 C   0  0  0  0  0  0  0  0  0  0  0  0
  160.5850  212.6110  156.7660 C   0  0  0  0  0  2  0  0  0  0  0  0
  159.0040  213.0700  154.9200 C   0  0  1  0  0  3  0  0  0  0  0  0
  158.8920  214.4520  155.5940 C   0  0  0  0  0  1  0  0  0  0  0  0
  159.3150  213.2850  153.4370 C   0  0  0  0  0  2  0  0  0  0  0  0
  158.1100  213.6580  152.5570 C   0  0  0  0  0  2  0  0  0  0  0  0
  158.0840  213.7440  148.7560 O   0  0  0  0  0  0  0  0  0  0  0  0
  158.5350  213.7330  151.1580 N   0  0  0  0  0  0  0  0  0  0  0  0
  156.3610  213.9440  150.2570 O   0  0  0  0  0  1  0  0  0  0  0  0
  157.6130  213.8940  150.0480 C   0  0  0  0  0  0  0  0  0  0  0  0
  159.9480  213.8570  150.7750 C   0  0  0  0  0  2  0  0  0  0  0  0
  161.2470  211.6890  150.1450 C   0  0  0  0  0  2  0  0  0  0  0  0
  160.4300  212.8980  149.6790 C   0  0  0  0  0  3  0  0  0  0  0  0
  162.2470  211.4480  149.0250 C   0  0  0  0  0  2  0  0  0  0  0  0
  161.2050  213.5860  148.5320 C   0  0  0  0  0  2  0  0  0  0  0  0
  162.4930  212.8110  148.3620 C   0  0  0  0  0  2  0  0  0  0  0  0
  158.3360  210.0450  156.0260 O   0  0  0  0  0  0  0  0  0  0  0  0
  157.2910  210.7880  155.5430 C   0  0  0  0  0  0  0  0  0  0  0  0
  156.3930  211.5220  155.1970 C   0  0  0  0  0  0  0  0  0  0  0  0
  155.3630  212.4780  154.8460 C   0  0  0  0  0  2  0  0  0  0  0  0
  154.7230  213.0470  156.0480 C   0  0  0  0  0  0  0  0  0  0  0  0
  154.5470  214.4390  156.1720 O   0  0  0  0  0  0  0  0  0  0  0  0
  154.3020  212.2670  156.9360 O   0  0  0  0  0  1  0  0  0  0  0  0
  161.0460  203.9550  152.9230 C   0  0  0  0  0  2  0  0  0  0  0  0
  160.9860  201.7400  152.0010 O   0  0  0  0  0  1  0  0  0  0  0  0
  161.1160  203.0800  151.6700 C   0  0  1  0  0  3  0  0  0  0  0  0
  160.0620  203.4790  150.7360 N   0  0  0  0  0  1  0  0  0  0  0  0
  161.2830  207.5480  149.7500 C   0  0  0  0  0  2  0  0  0  0  0  0
  161.9300  207.1510  148.5440 O   0  0  0  0  0  0  0  0  0  0  0  0
  161.3130  203.5910  147.7760 C   0  0  1  0  0  3  0  0  0  0  0  0
  161.9810  202.3630  148.3240 C   0  0  0  0  0  1  0  0  0  0  0  0
  160.3450  207.2870  146.0330 C   0  0  0  0  0  1  0  0  0  0  0  0
  160.5480  204.6890  145.9690 C   0  0  2  0  0  3  0  0  0  0  0  0
  160.9640  206.0470  146.5880 C   0  0  0  0  0  0  0  0  0  0  0  0
  161.9070  204.7580  148.3340 O   0  0  0  0  0  0  0  0  0  0  0  0
  161.3970  203.6230  146.3780 O   0  0  0  0  0  0  0  0  0  0  0  0
  161.5790  206.0140  147.7900 C   0  0  0  0  0  0  0  0  0  0  0  0
  160.3310  203.8600  143.7520 O   0  0  0  0  0  0  0  0  0  0  0  0
  160.6050  204.8080  144.4620 C   0  0  0  0  0  0  0  0  0  0  0  0
  161.3330  206.0040  143.8680 C   0  0  0  0  0  2  0  0  0  0  0  0
  161.9230  205.6360  142.5200 C   0  0  0  0  0  2  0  0  0  0  0  0
  161.6280  206.6450  141.5430 O   0  0  0  0  0  0  0  0  0  0  0  0
  162.8910  206.0890  139.7130 O   0  0  0  0  0  0  0  0  0  0  0  0
  162.4780  206.9940  140.4900 C   0  0  0  0  0  0  0  0  0  0  0  0
  162.9470  208.4000  140.2880 C   0  0  0  0  0  2  0  0  0  0  0  0
  160.9270  209.7330  139.8810 O   0  0  0  0  0  0  0  0  0  0  0  0
  161.6780  208.4490  138.1310 F   0  0  0  0  0  0  0  0  0  0  0  0
  162.0510  209.1220  139.2930 C   0  0  2  0  0  0  0  0  0  0  0  0
  161.8930  210.5980  139.3370 C   0  0  0  0  0  2  0  0  0  0  0  0
  1 11  1  0  0  0  0
  1  3  1  0  0  0  0
  2 44  1  6  0  0  0
  2 13  1  0  0  0  0
  2 16  1  0  0  0  0
  3  8  1  0  0  0  0
  6  4  1  0  0  0  0
  6 12  1  0  0  0  0
  6 15  1  0  0  0  0
  7  6  1  0  0  0  0
  8 33  1  0  0  0  0
  8  4  1  0  0  0  0
  9 14  1  0  0  0  0
 10 40  1  0  0  0  0
 10  5  1  0  0  0  0
 11  5  1  0  0  0  0
 11  7  1  0  0  0  0
 13 10  1  0  0  0  0
 14  8  1  0  0  0  0
 14 17  1  0  0  0  0
 14  4  1  0  0  0  0
 16 11  1  0  0  0  0
 17 18  2  0  0  0  0
 19 17  1  0  0  0  0
 19 20  1  0  0  0  0
 21 19  1  0  0  0  0
 22 21  1  0  0  0  0
 23 26  2  0  0  0  0
 24 22  1  0  0  0  0
 26 25  1  0  0  0  0
 26 24  1  0  0  0  0
 27 24  1  0  0  0  0
 29 28  1  0  0  0  0
 29 27  1  0  0  0  0
 30 28  1  0  0  0  0
 31 29  1  0  0  0  0
 32 31  1  0  0  0  0
 32 30  1  0  0  0  0
 34 33  1  0  0  0  0
 35 34  3  0  0  0  0
 36 35  1  0  0  0  0
 36 37  1  0  0  0  0
 37 38  2  0  0  0  0
 37 39  1  0  0  0  0
 42 41  1  0  0  0  0
 42 40  1  0  0  0  0
 43 42  1  0  0  0  0
 45 44  1  0  0  0  0
 46 47  1  0  0  0  0
 46 51  1  0  0  0  0
 48 50  1  0  0  0  0
 49 52  1  0  0  0  0
 49 50  1  0  0  0  0
 50 53  2  0  0  0  0
 52 46  1  0  0  0  0
 53 51  1  0  0  0  0
 53 45  1  0  0  0  0
 54 55  2  0  0  0  0
 55 49  1  0  0  0  0
 56 55  1  0  0  0  0
 57 56  1  0  0  0  0
 58 57  1  0  0  0  0
 59 60  2  0  0  0  0
 60 58  1  0  0  0  0
 61 60  1  0  0  0  0
 63 64  1  0  0  0  0
 64 65  1  0  0  0  0
 64 62  1  0  0  0  0
 64 61  1  0  0  0  0
 65 62  1  0  0  0  0
M  END
>  <MODEL>
1

>  <REMARK>
 VINA RESULT:      -1.3      0.000      0.000
  Name = 
  23 active torsions:
  status: ('A' for Active; 'I' for Inactive)
    1  A    between atoms: C_1  and  C_41
    2  A    between atoms: C_1  and  C_47
    3  A    between atoms: C_2  and  C_33
    4  A    between atoms: C_4  and  O_39
    5  A    between atoms: C_6  and  C_16
    6  A    between atoms: C_12  and  C_41
    7  A    between atoms: C_12  and  C_59
    8  A    between atoms: O_15  and  C_23
    9  A    between atoms: O_15  and  C_64
   10  A    between atoms: C_16  and  O_18
   11  A    between atoms: C_17  and  C_31
   12  A    between atoms: C_17  and  C_42
   13  A    between atoms: O_18  and  C_55
   14  A    between atoms: C_22  and  C_61
   15  A    between atoms: C_23  and  C_38
   16  A    between atoms: N_27  and  C_47
   17  A    between atoms: N_27  and  C_56
   18  A    between atoms: C_28  and  O_39
   19  A    between atoms: C_29  and  C_56
   20  A    between atoms: C_33  and  C_52
   21  A    between atoms: C_38  and  C_61
   22  A    between atoms: C_45  and  C_63
   23  A    between atoms: C_63  and  C_64
                            x       y       z     vdW  Elec       q    Type
                         _______ _______ _______ _____ _____    ______ ____

>  <TORSDO>
F 23

$$$$
=
 OpenBabel11072414303D

 65 70  0  0  1  0  0  0  0  0999 V2000
  160.3280  208.6800  151.7690 C   0  0  0  0  0  2  0  0  0  0  0  0
  161.2320  205.7100  152.5700 C   0  0  2  0  0  3  0  0  0  0  0  0
  159.8230  210.0210  152.2470 C   0  0  0  0  0  2  0  0  0  0  0  0
  161.9080  211.5620  151.6780 C   0  0  2  0  0  3  0  0  0  0  0  0
  161.4180  208.2150  154.0180 C   0  0  0  0  0  2  0  0  0  0  0  0
  162.7110  210.5370  152.5390 C   0  0  2  0  0  0  0  0  0  0  0  0
  162.7440  209.1590  152.1000 O   0  0  0  0  0  0  0  0  0  0  0  0
  160.4200  211.2480  151.5420 C   0  0  1  0  0  0  0  0  0  0  0  0
  161.7360  209.9200  149.8700 F   0  0  0  0  0  0  0  0  0  0  0  0
  161.4060  206.7740  154.5490 C   0  0  2  0  0  3  0  0  0  0  0  0
  161.6480  208.3050  152.4750 C   0  0  2  0  0  0  0  0  0  0  0  0
  162.2920  210.6800  153.8830 O   0  0  0  0  0  1  0  0  0  0  0  0
  160.5290  206.0470  153.7460 O   0  0  0  0  0  0  0  0  0  0  0  0
  161.3800  211.1600  150.3140 C   0  0  2  0  0  0  0  0  0  0  0  0
  164.1440  211.0430  152.4530 C   0  0  0  0  0  1  0  0  0  0  0  0
  161.9920  206.8940  151.9250 C   0  0  0  0  0  2  0  0  0  0  0  0
  161.1740  212.2360  149.2580 C   0  0  0  0  0  0  0  0  0  0  0  0
  162.2340  213.0220  148.9750 C   0  0  0  0  0  2  0  0  0  0  0  0
  159.8330  212.5420  148.6270 C   0  0  1  0  0  3  0  0  0  0  0  0
  159.0280  213.5400  149.4840 C   0  0  0  0  0  1  0  0  0  0  0  0
  160.0080  213.1430  147.2310 C   0  0  0  0  0  2  0  0  0  0  0  0
  160.5710  212.1870  146.1650 C   0  0  0  0  0  2  0  0  0  0  0  0
  163.0510  214.1610  144.0660 O   0  0  0  0  0  0  0  0  0  0  0  0
  161.1780  212.9650  145.0860 N   0  0  0  0  0  0  0  0  0  0  0  0
  163.3880  212.8400  145.9100 O   0  0  0  0  0  1  0  0  0  0  0  0
  162.6000  213.2470  145.0010 C   0  0  0  0  0  0  0  0  0  0  0  0
  160.4270  213.3560  143.8840 C   0  0  0  0  0  2  0  0  0  0  0  0
  161.4630  211.8380  142.0370 C   0  0  0  0  0  2  0  0  0  0  0  0
  160.2240  212.2540  142.8360 C   0  0  0  0  0  3  0  0  0  0  0  0
  160.9290  211.4880  140.6570 C   0  0  0  0  0  2  0  0  0  0  0  0
  159.0820  212.5380  141.8330 C   0  0  0  0  0  2  0  0  0  0  0  0
  159.6650  212.3360  140.4530 C   0  0  0  0  0  2  0  0  0  0  0  0
  159.6480  212.4400  151.6180 O   0  0  0  0  0  0  0  0  0  0  0  0
  159.0740  212.8490  152.7940 C   0  0  0  0  0  0  0  0  0  0  0  0
  158.4690  213.1700  153.7910 C   0  0  0  0  0  0  0  0  0  0  0  0
  157.6600  213.4930  154.9490 C   0  0  0  0  0  2  0  0  0  0  0  0
  157.2340  212.2740  155.6650 C   0  0  0  0  0  0  0  0  0  0  0  0
  155.8660  212.0190  155.8870 O   0  0  0  0  0  0  0  0  0  0  0  0
  158.1060  211.4520  156.0330 O   0  0  0  0  0  1  0  0  0  0  0  0
  161.0120  206.7260  156.0390 C   0  0  0  0  0  2  0  0  0  0  0  0
  162.3640  208.7070  155.9710 O   0  0  0  0  0  1  0  0  0  0  0  0
  161.4410  208.0170  156.7400 C   0  0  1  0  0  3  0  0  0  0  0  0
  160.2630  208.8500  156.9920 N   0  0  0  0  0  1  0  0  0  0  0  0
  160.2360  205.0950  151.5920 C   0  0  0  0  0  2  0  0  0  0  0  0
  160.5090  205.5280  150.2620 O   0  0  0  0  0  0  0  0  0  0  0  0
  160.8200  202.4040  148.3150 C   0  0  1  0  0  3  0  0  0  0  0  0
  160.9130  200.9830  148.7920 C   0  0  0  0  0  1  0  0  0  0  0  0
  161.3040  206.5090  147.5710 C   0  0  0  0  0  1  0  0  0  0  0  0
  161.6010  203.9980  146.9350 C   0  0  2  0  0  3  0  0  0  0  0  0
  161.3610  205.0830  148.0140 C   0  0  0  0  0  0  0  0  0  0  0  0
  160.7520  203.2870  149.4290 O   0  0  0  0  0  0  0  0  0  0  0  0
  161.9110  202.7300  147.5000 O   0  0  0  0  0  0  0  0  0  0  0  0
  160.8830  204.6720  149.2080 C   0  0  0  0  0  0  0  0  0  0  0  0
  163.7690  204.8890  146.5430 O   0  0  0  0  0  0  0  0  0  0  0  0
  162.7510  204.4360  146.0560 C   0  0  0  0  0  0  0  0  0  0  0  0
  162.4830  204.6220  144.5710 C   0  0  0  0  0  2  0  0  0  0  0  0
  161.0210  204.9540  144.3430 C   0  0  0  0  0  2  0  0  0  0  0  0
  160.8600  205.7690  143.1720 O   0  0  0  0  0  0  0  0  0  0  0  0
  162.9300  206.7040  142.8630 O   0  0  0  0  0  0  0  0  0  0  0  0
  161.9110  206.1690  142.3430 C   0  0  0  0  0  0  0  0  0  0  0  0
  161.8420  206.0250  140.8550 C   0  0  0  0  0  2  0  0  0  0  0  0
  162.0900  207.3000  138.7720 O   0  0  0  0  0  0  0  0  0  0  0  0
  163.1450  208.1490  140.6280 F   0  0  0  0  0  0  0  0  0  0  0  0
  162.0840  207.3660  140.1800 C   0  0  2  0  0  0  0  0  0  0  0  0
  161.0270  208.0100  139.3580 C   0  0  0  0  0  2  0  0  0  0  0  0
  1  3  1  0  0  0  0
  1 11  1  0  0  0  0
  2 44  1  6  0  0  0
  2 13  1  0  0  0  0
  4  6  1  0  0  0  0
  5 10  1  0  0  0  0
  6 12  1  0  0  0  0
  7 11  1  0  0  0  0
  7  6  1  0  0  0  0
  8 33  1  0  0  0  0
  8  4  1  0  0  0  0
  8  3  1  0  0  0  0
  9 14  1  0  0  0  0
 10 40  1  0  0  0  0
 11  5  1  0  0  0  0
 13 10  1  0  0  0  0
 14  8  1  0  0  0  0
 14  4  1  0  0  0  0
 15  6  1  0  0  0  0
 16 11  1  0  0  0  0
 16  2  1  0  0  0  0
 17 14  1  0  0  0  0
 18 17  2  0  0  0  0
 19 17  1  0  0  0  0
 19 20  1  0  0  0  0
 21 19  1  0  0  0  0
 22 21  1  0  0  0  0
 23 26  2  0  0  0  0
 24 22  1  0  0  0  0
 26 24  1  0  0  0  0
 26 25  1  0  0  0  0
 27 24  1  0  0  0  0
 28 29  1  0  0  0  0
 29 27  1  0  0  0  0
 30 28  1  0  0  0  0
 31 29  1  0  0  0  0
 32 30  1  0  0  0  0
 32 31  1  0  0  0  0
 33 34  1  0  0  0  0
 34 35  3  0  0  0  0
 35 36  1  0  0  0  0
 36 37  1  0  0  0  0
 37 38  2  0  0  0  0
 37 39  1  0  0  0  0
 40 42  1  0  0  0  0
 41 42  1  0  0  0  0
 42 43  1  0  0  0  0
 45 44  1  0  0  0  0
 46 47  1  0  0  0  0
 46 51  1  0  0  0  0
 48 50  1  0  0  0  0
 49 52  1  0  0  0  0
 49 50  1  0  0  0  0
 50 53  2  0  0  0  0
 52 46  1  0  0  0  0
 53 51  1  0  0  0  0
 53 45  1  0  0  0  0
 55 54  2  0  0  0  0
 55 49  1  0  0  0  0
 56 55  1  0  0  0  0
 57 56  1  0  0  0  0
 58 57  1  0  0  0  0
 60 59  2  0  0  0  0
 60 58  1  0  0  0  0
 61 60  1  0  0  0  0
 62 65  1  0  0  0  0
 62 64  1  0  0  0  0
 64 63  1  0  0  0  0
 64 61  1  0  0  0  0
 65 64  1  0  0  0  0
M  END
>  <MODEL>
2

>  <REMARK>
 VINA RESULT:       0.3      2.638      4.695
  Name = 
  23 active torsions:
  status: ('A' for Active; 'I' for Inactive)
    1  A    between atoms: C_1  and  C_41
    2  A    between atoms: C_1  and  C_47
    3  A    between atoms: C_2  and  C_33
    4  A    between atoms: C_4  and  O_39
    5  A    between atoms: C_6  and  C_16
    6  A    between atoms: C_12  and  C_41
    7  A    between atoms: C_12  and  C_59
    8  A    between atoms: O_15  and  C_23
    9  A    between atoms: O_15  and  C_64
   10  A    between atoms: C_16  and  O_18
   11  A    between atoms: C_17  and  C_31
   12  A    between atoms: C_17  and  C_42
   13  A    between atoms: O_18  and  C_55
   14  A    between atoms: C_22  and  C_61
   15  A    between atoms: C_23  and  C_38
   16  A    between atoms: N_27  and  C_47
   17  A    between atoms: N_27  and  C_56
   18  A    between atoms: C_28  and  O_39
   19  A    between atoms: C_29  and  C_56
   20  A    between atoms: C_33  and  C_52
   21  A    between atoms: C_38  and  C_61
   22  A    between atoms: C_45  and  C_63
   23  A    between atoms: C_63  and  C_64
                            x       y       z     vdW  Elec       q    Type
                         _______ _______ _______ _____ _____    ______ ____

>  <TORSDO>
F 23

$$$$
=
 OpenBabel11072414303D

 65 70  0  0  1  0  0  0  0  0999 V2000
  159.8960  208.9600  152.5300 C   0  0  0  0  0  2  0  0  0  0  0  0
  161.0350  206.0020  153.0180 C   0  0  2  0  0  3  0  0  0  0  0  0
  159.3530  210.2250  153.1530 C   0  0  0  0  0  2  0  0  0  0  0  0
  161.2910  211.9370  152.5570 C   0  0  2  0  0  3  0  0  0  0  0  0
  161.1870  208.3960  154.6470 C   0  0  0  0  0  2  0  0  0  0  0  0
  162.2190  210.9040  153.2680 C   0  0  2  0  0  0  0  0  0  0  0  0
  162.2980  209.5680  152.7170 O   0  0  0  0  0  0  0  0  0  0  0  0
  159.8170  211.5380  152.5070 C   0  0  1  0  0  0  0  0  0  0  0  0
  161.0710  210.4300  150.6390 F   0  0  0  0  0  0  0  0  0  0  0  0
  161.3030  206.9220  155.0580 C   0  0  2  0  0  3  0  0  0  0  0  0
  161.2880  208.6190  153.1030 C   0  0  2  0  0  0  0  0  0  0  0  0
  161.9010  210.9160  154.6470 O   0  0  0  0  0  1  0  0  0  0  0  0
  160.4090  206.2020  154.2660 O   0  0  0  0  0  0  0  0  0  0  0  0
  160.6800  211.6070  151.2070 C   0  0  2  0  0  0  0  0  0  0  0  0
  163.6070  211.5070  153.1170 C   0  0  0  0  0  1  0  0  0  0  0  0
  161.6700  207.2800  152.4160 C   0  0  0  0  0  2  0  0  0  0  0  0
  160.3270  212.7450  150.2610 C   0  0  0  0  0  0  0  0  0  0  0  0
  161.1070  213.8450  150.3150 C   0  0  0  0  0  2  0  0  0  0  0  0
  159.0940  212.7500  149.3840 C   0  0  1  0  0  3  0  0  0  0  0  0
  157.9040  213.4250  150.0970 C   0  0  0  0  0  1  0  0  0  0  0  0
  159.3540  213.5000  148.0750 C   0  0  0  0  0  2  0  0  0  0  0  0
  160.0490  212.6820  146.9730 C   0  0  0  0  0  2  0  0  0  0  0  0
  163.3320  214.4080  146.1330 O   0  0  0  0  0  0  0  0  0  0  0  0
  161.0660  213.5100  146.3220 N   0  0  0  0  0  0  0  0  0  0  0  0
  162.8920  212.6660  147.5600 O   0  0  0  0  0  1  0  0  0  0  0  0
  162.4800  213.4460  146.6460 C   0  0  0  0  0  0  0  0  0  0  0  0
  160.7680  214.3310  145.1400 C   0  0  0  0  0  2  0  0  0  0  0  0
  160.6300  214.4530  142.5420 C   0  0  0  0  0  2  0  0  0  0  0  0
  161.1120  213.6990  143.7850 C   0  0  0  0  0  3  0  0  0  0  0  0
  160.3010  213.3610  141.5350 C   0  0  0  0  0  2  0  0  0  0  0  0
  160.6760  212.2220  143.6470 C   0  0  0  0  0  2  0  0  0  0  0  0
  159.9010  212.1240  142.3520 C   0  0  0  0  0  2  0  0  0  0  0  0
  158.9850  212.6680  152.7380 O   0  0  0  0  0  0  0  0  0  0  0  0
  158.1360  212.7250  153.8120 C   0  0  0  0  0  0  0  0  0  0  0  0
  157.4770  212.7720  154.8270 C   0  0  0  0  0  0  0  0  0  0  0  0
  156.7840  212.8480  156.0960 C   0  0  0  0  0  2  0  0  0  0  0  0
  155.9440  211.6560  156.3240 C   0  0  0  0  0  0  0  0  0  0  0  0
  156.2150  210.4520  155.6450 O   0  0  0  0  0  0  0  0  0  0  0  0
  155.0130  211.7230  157.1620 O   0  0  0  0  0  1  0  0  0  0  0  0
  161.0330  206.7340  156.5640 C   0  0  0  0  0  2  0  0  0  0  0  0
  161.3660  209.0060  157.2590 O   0  0  0  0  0  1  0  0  0  0  0  0
  160.4150  208.0040  157.1510 C   0  0  1  0  0  3  0  0  0  0  0  0
  159.3050  208.4450  156.3030 N   0  0  0  0  0  1  0  0  0  0  0  0
  160.0020  205.4000  152.0700 C   0  0  0  0  0  2  0  0  0  0  0  0
  160.2920  205.7580  150.7220 O   0  0  0  0  0  0  0  0  0  0  0  0
  160.8220  202.4950  149.0750 C   0  0  1  0  0  3  0  0  0  0  0  0
  161.2000  201.1700  149.6720 C   0  0  0  0  0  1  0  0  0  0  0  0
  160.5490  206.5040  147.8560 C   0  0  0  0  0  1  0  0  0  0  0  0
  161.1470  204.0020  147.4380 C   0  0  2  0  0  3  0  0  0  0  0  0
  160.8890  205.1660  148.4260 C   0  0  0  0  0  0  0  0  0  0  0  0
  160.7680  203.4890  150.0900 O   0  0  0  0  0  0  0  0  0  0  0  0
  161.7260  202.8690  148.0730 O   0  0  0  0  0  0  0  0  0  0  0  0
  160.6480  204.8410  149.7140 C   0  0  0  0  0  0  0  0  0  0  0  0
  163.0510  205.1710  146.6270 O   0  0  0  0  0  0  0  0  0  0  0  0
  162.0840  204.4860  146.3540 C   0  0  0  0  0  0  0  0  0  0  0  0
  161.6120  204.3960  144.9110 C   0  0  0  0  0  2  0  0  0  0  0  0
  160.1250  204.1000  144.8660 C   0  0  0  0  0  2  0  0  0  0  0  0
  159.8890  202.7230  144.5380 O   0  0  0  0  0  0  0  0  0  0  0  0
  161.7440  201.8350  145.5500 O   0  0  0  0  0  0  0  0  0  0  0  0
  160.5740  201.6500  145.1120 C   0  0  0  0  0  0  0  0  0  0  0  0
  159.9790  200.2790  145.1780 C   0  0  0  0  0  2  0  0  0  0  0  0
  160.6550  197.9480  145.5480 O   0  0  0  0  0  0  0  0  0  0  0  0
  161.3280  199.4740  147.1270 F   0  0  0  0  0  0  0  0  0  0  0  0
  160.9680  199.2990  145.7930 C   0  0  2  0  0  0  0  0  0  0  0  0
  161.8230  198.4370  144.9360 C   0  0  0  0  0  2  0  0  0  0  0  0
  1 11  1  0  0  0  0
  1  3  1  0  0  0  0
  2 44  1  6  0  0  0
  2 13  1  0  0  0  0
  4  6  1  0  0  0  0
  5 10  1  0  0  0  0
  6 12  1  0  0  0  0
  7 11  1  0  0  0  0
  7  6  1  0  0  0  0
  8  4  1  0  0  0  0
  8 33  1  0  0  0  0
  8  3  1  0  0  0  0
  9 14  1  0  0  0  0
 10 40  1  0  0  0  0
 11  5  1  0  0  0  0
 13 10  1  0  0  0  0
 14  8  1  0  0  0  0
 14  4  1  0  0  0  0
 15  6  1  0  0  0  0
 16  2  1  0  0  0  0
 16 11  1  0  0  0  0
 17 18  2  0  0  0  0
 17 14  1  0  0  0  0
 19 20  1  0  0  0  0
 19 17  1  0  0  0  0
 21 19  1  0  0  0  0
 22 21  1  0  0  0  0
 23 26  2  0  0  0  0
 24 26  1  0  0  0  0
 24 22  1  0  0  0  0
 26 25  1  0  0  0  0
 27 24  1  0  0  0  0
 28 29  1  0  0  0  0
 29 27  1  0  0  0  0
 30 32  1  0  0  0  0
 30 28  1  0  0  0  0
 31 29  1  0  0  0  0
 32 31  1  0  0  0  0
 33 34  1  0  0  0  0
 34 35  3  0  0  0  0
 35 36  1  0  0  0  0
 36 37  1  0  0  0  0
 37 39  1  0  0  0  0
 38 37  2  0  0  0  0
 40 42  1  0  0  0  0
 42 41  1  0  0  0  0
 43 42  1  0  0  0  0
 45 44  1  0  0  0  0
 46 47  1  0  0  0  0
 46 51  1  0  0  0  0
 48 50  1  0  0  0  0
 49 52  1  0  0  0  0
 49 50  1  0  0  0  0
 50 53  2  0  0  0  0
 52 46  1  0  0  0  0
 53 51  1  0  0  0  0
 53 45  1  0  0  0  0
 55 54  2  0  0  0  0
 55 49  1  0  0  0  0
 56 55  1  0  0  0  0
 57 56  1  0  0  0  0
 58 57  1  0  0  0  0
 58 60  1  0  0  0  0
 60 61  1  0  0  0  0
 60 59  2  0  0  0  0
 61 64  1  0  0  0  0
 62 64  1  0  0  0  0
 64 63  1  0  0  0  0
 65 62  1  0  0  0  0
 65 64  1  0  0  0  0
M  END
>  <MODEL>
3

>  <REMARK>
 VINA RESULT:       0.6      3.282      5.550
  Name = 
  23 active torsions:
  status: ('A' for Active; 'I' for Inactive)
    1  A    between atoms: C_1  and  C_41
    2  A    between atoms: C_1  and  C_47
    3  A    between atoms: C_2  and  C_33
    4  A    between atoms: C_4  and  O_39
    5  A    between atoms: C_6  and  C_16
    6  A    between atoms: C_12  and  C_41
    7  A    between atoms: C_12  and  C_59
    8  A    between atoms: O_15  and  C_23
    9  A    between atoms: O_15  and  C_64
   10  A    between atoms: C_16  and  O_18
   11  A    between atoms: C_17  and  C_31
   12  A    between atoms: C_17  and  C_42
   13  A    between atoms: O_18  and  C_55
   14  A    between atoms: C_22  and  C_61
   15  A    between atoms: C_23  and  C_38
   16  A    between atoms: N_27  and  C_47
   17  A    between atoms: N_27  and  C_56
   18  A    between atoms: C_28  and  O_39
   19  A    between atoms: C_29  and  C_56
   20  A    between atoms: C_33  and  C_52
   21  A    between atoms: C_38  and  C_61
   22  A    between atoms: C_45  and  C_63
   23  A    between atoms: C_63  and  C_64
                            x       y       z     vdW  Elec       q    Type
                         _______ _______ _______ _____ _____    ______ ____

>  <TORSDO>
F 23

$$$$
=
 OpenBabel11072414303D

 65 70  0  0  1  0  0  0  0  0999 V2000
  162.2850  209.6540  151.4800 C   0  0  0  0  0  2  0  0  0  0  0  0
  161.7660  209.4180  148.3240 C   0  0  2  0  0  3  0  0  0  0  0  0
  162.8190  210.4960  152.6140 C   0  0  0  0  0  2  0  0  0  0  0  0
  160.5790  211.0090  153.9430 C   0  0  2  0  0  3  0  0  0  0  0  0
  161.8080  211.7230  150.0830 C   0  0  0  0  0  2  0  0  0  0  0  0
  160.0680  211.5540  152.5720 C   0  0  2  0  0  0  0  0  0  0  0  0
  160.0030  210.6350  151.4570 O   0  0  0  0  0  0  0  0  0  0  0  0
  162.0040  210.4580  153.9150 C   0  0  1  0  0  0  0  0  0  0  0  0
  160.3910  208.7150  153.1080 F   0  0  0  0  0  0  0  0  0  0  0  0
  162.0260  211.6440  148.5650 C   0  0  2  0  0  3  0  0  0  0  0  0
  161.2010  210.4180  150.6910 C   0  0  2  0  0  0  0  0  0  0  0  0
  160.7960  212.7320  152.2780 O   0  0  0  0  0  1  0  0  0  0  0  0
  162.7170  210.4600  148.3100 O   0  0  0  0  0  0  0  0  0  0  0  0
  160.7770  209.5180  154.1410 C   0  0  2  0  0  0  0  0  0  0  0  0
  158.6340  211.9690  152.8650 C   0  0  0  0  0  1  0  0  0  0  0  0
  160.8080  209.4510  149.5410 C   0  0  0  0  0  2  0  0  0  0  0  0
  160.6600  208.9400  155.5430 C   0  0  0  0  0  0  0  0  0  0  0  0
  160.2860  209.7900  156.5220 C   0  0  0  0  0  2  0  0  0  0  0  0
  161.0640  207.5260  155.9010 C   0  0  1  0  0  3  0  0  0  0  0  0
  160.4600  207.0970  157.2530 C   0  0  0  0  0  1  0  0  0  0  0  0
  160.5980  206.5350  154.8330 C   0  0  0  0  0  2  0  0  0  0  0  0
  161.7150  205.7360  154.1390 C   0  0  0  0  0  2  0  0  0  0  0  0
  160.9280  205.5870  150.4220 O   0  0  0  0  0  0  0  0  0  0  0  0
  161.2490  205.2860  152.8270 N   0  0  0  0  0  0  0  0  0  0  0  0
  162.2860  207.0150  151.5960 O   0  0  0  0  0  1  0  0  0  0  0  0
  161.5820  205.9580  151.5840 C   0  0  0  0  0  0  0  0  0  0  0  0
  160.5720  203.9950  152.6370 C   0  0  0  0  0  2  0  0  0  0  0  0
  159.9510  202.6790  150.4770 C   0  0  0  0  0  2  0  0  0  0  0  0
  161.0410  203.1650  151.4360 C   0  0  0  0  0  3  0  0  0  0  0  0
  160.4450  201.3250  149.9910 C   0  0  0  0  0  2  0  0  0  0  0  0
  161.9240  201.9520  151.8120 C   0  0  0  0  0  2  0  0  0  0  0  0
  161.3210  200.7530  151.1150 C   0  0  0  0  0  2  0  0  0  0  0  0
  162.7050  210.8260  155.0960 O   0  0  0  0  0  0  0  0  0  0  0  0
  164.0340  211.1620  155.0650 C   0  0  0  0  0  0  0  0  0  0  0  0
  165.2020  211.4450  154.9240 C   0  0  0  0  0  0  0  0  0  0  0  0
  166.5810  211.7930  154.6480 C   0  0  0  0  0  2  0  0  0  0  0  0
  167.0820  212.8060  155.5980 C   0  0  0  0  0  0  0  0  0  0  0  0
  167.8970  212.4260  156.6820 O   0  0  0  0  0  1  0  0  0  0  0  0
  166.8050  214.0120  155.3980 O   0  0  0  0  0  0  0  0  0  0  0  0
  162.7760  212.8840  148.0380 C   0  0  0  0  0  2  0  0  0  0  0  0
  161.2050  213.0930  146.2360 O   0  0  0  0  0  1  0  0  0  0  0  0
  162.5580  213.0300  146.5310 C   0  0  1  0  0  3  0  0  0  0  0  0
  163.2400  214.2350  146.0530 N   0  0  0  0  0  1  0  0  0  0  0  0
  162.5220  208.0960  148.2540 C   0  0  0  0  0  2  0  0  0  0  0  0
  161.6450  207.0030  148.5110 O   0  0  0  0  0  0  0  0  0  0  0  0
  161.7470  203.4600  147.4710 C   0  0  1  0  0  3  0  0  0  0  0  0
  162.6720  202.3600  147.9060 C   0  0  0  0  0  1  0  0  0  0  0  0
  159.9760  206.9930  146.0510 C   0  0  0  0  0  1  0  0  0  0  0  0
  160.7080  204.5060  145.7740 C   0  0  2  0  0  3  0  0  0  0  0  0
  160.8580  205.8710  146.4920 C   0  0  0  0  0  0  0  0  0  0  0  0
  162.1070  204.6790  148.1100 O   0  0  0  0  0  0  0  0  0  0  0  0
  161.7710  203.6120  146.0800 O   0  0  0  0  0  0  0  0  0  0  0  0
  161.5090  205.8770  147.6750 C   0  0  0  0  0  0  0  0  0  0  0  0
  160.2290  203.9110  143.5230 O   0  0  0  0  0  0  0  0  0  0  0  0
  160.6850  204.7460  144.2810 C   0  0  0  0  0  0  0  0  0  0  0  0
  161.5410  205.8740  143.7270 C   0  0  0  0  0  2  0  0  0  0  0  0
  161.3370  205.9950  142.2280 C   0  0  0  0  0  2  0  0  0  0  0  0
  162.2790  206.9160  141.6590 O   0  0  0  0  0  0  0  0  0  0  0  0
  161.4910  206.9220  139.5060 O   0  0  0  0  0  0  0  0  0  0  0  0
  162.1220  207.5310  140.4140 C   0  0  0  0  0  0  0  0  0  0  0  0
  162.7210  208.8690  140.1150 C   0  0  0  0  0  2  0  0  0  0  0  0
  160.7520  210.2710  139.6820 O   0  0  0  0  0  0  0  0  0  0  0  0
  161.4840  208.9620  137.9410 F   0  0  0  0  0  0  0  0  0  0  0  0
  161.8630  209.6210  139.1080 C   0  0  2  0  0  0  0  0  0  0  0  0
  161.7550  211.1020  139.1520 C   0  0  0  0  0  2  0  0  0  0  0  0
  1  3  1  0  0  0  0
  2 44  1  1  0  0  0
  2 16  1  0  0  0  0
  3  8  1  0  0  0  0
  4 14  1  0  0  0  0
  5 11  1  0  0  0  0
  6 15  1  0  0  0  0
  6  4  1  0  0  0  0
  7  6  1  0  0  0  0
  8  4  1  0  0  0  0
  8 14  1  0  0  0  0
  8 33  1  0  0  0  0
  9 14  1  0  0  0  0
 10  5  1  0  0  0  0
 11  7  1  0  0  0  0
 11  1  1  0  0  0  0
 12  6  1  0  0  0  0
 13  2  1  0  0  0  0
 13 10  1  0  0  0  0
 14 17  1  0  0  0  0
 16 11  1  0  0  0  0
 17 19  1  0  0  0  0
 17 18  2  0  0  0  0
 19 20  1  0  0  0  0
 21 19  1  0  0  0  0
 22 21  1  0  0  0  0
 23 26  2  0  0  0  0
 24 22  1  0  0  0  0
 26 25  1  0  0  0  0
 26 24  1  0  0  0  0
 27 24  1  0  0  0  0
 28 29  1  0  0  0  0
 29 31  1  0  0  0  0
 29 27  1  0  0  0  0
 30 28  1  0  0  0  0
 30 32  1  0  0  0  0
 32 31  1  0  0  0  0
 34 33  1  0  0  0  0
 35 34  3  0  0  0  0
 36 35  1  0  0  0  0
 36 37  1  0  0  0  0
 37 38  1  0  0  0  0
 39 37  2  0  0  0  0
 40 10  1  0  0  0  0
 41 42  1  0  0  0  0
 42 40  1  0  0  0  0
 43 42  1  0  0  0  0
 44 45  1  0  0  0  0
 46 47  1  0  0  0  0
 46 51  1  0  0  0  0
 48 50  1  0  0  0  0
 49 52  1  0  0  0  0
 49 50  1  0  0  0  0
 50 53  2  0  0  0  0
 52 46  1  0  0  0  0
 53 51  1  0  0  0  0
 53 45  1  0  0  0  0
 54 55  2  0  0  0  0
 55 49  1  0  0  0  0
 56 55  1  0  0  0  0
 57 56  1  0  0  0  0
 58 57  1  0  0  0  0
 59 60  2  0  0  0  0
 60 58  1  0  0  0  0
 61 60  1  0  0  0  0
 63 64  1  0  0  0  0
 64 65  1  0  0  0  0
 64 62  1  0  0  0  0
 64 61  1  0  0  0  0
 65 62  1  0  0  0  0
M  END
>  <MODEL>
4

>  <REMARK>
 VINA RESULT:       0.7      2.646      6.708
  Name = 
  23 active torsions:
  status: ('A' for Active; 'I' for Inactive)
    1  A    between atoms: C_1  and  C_41
    2  A    between atoms: C_1  and  C_47
    3  A    between atoms: C_2  and  C_33
    4  A    between atoms: C_4  and  O_39
    5  A    between atoms: C_6  and  C_16
    6  A    between atoms: C_12  and  C_41
    7  A    between atoms: C_12  and  C_59
    8  A    between atoms: O_15  and  C_23
    9  A    between atoms: O_15  and  C_64
   10  A    between atoms: C_16  and  O_18
   11  A    between atoms: C_17  and  C_31
   12  A    between atoms: C_17  and  C_42
   13  A    between atoms: O_18  and  C_55
   14  A    between atoms: C_22  and  C_61
   15  A    between atoms: C_23  and  C_38
   16  A    between atoms: N_27  and  C_47
   17  A    between atoms: N_27  and  C_56
   18  A    between atoms: C_28  and  O_39
   19  A    between atoms: C_29  and  C_56
   20  A    between atoms: C_33  and  C_52
   21  A    between atoms: C_38  and  C_61
   22  A    between atoms: C_45  and  C_63
   23  A    between atoms: C_63  and  C_64
                            x       y       z     vdW  Elec       q    Type
                         _______ _______ _______ _____ _____    ______ ____

>  <TORSDO>
F 23

$$$$
