=
 OpenBabel11072410283D

 32 34  0  0  1  0  0  0  0  0999 V2000
  162.8010  207.8110  150.0680 O   0  0  0  0  0  1  0  0  0  0  0  0
  161.9440  208.0690  154.3370 C   0  0  0  0  0  2  0  0  0  0  0  0
  158.4960  210.0590  155.0850 C   0  0  0  0  0  1  0  0  0  0  0  0
  159.5900  212.0650  153.7570 C   0  0  2  0  0  3  0  0  0  0  0  0
  161.6480  209.1320  151.4920 C   0  0  2  0  0  3  0  0  0  0  0  0
  161.3230  209.1720  155.1820 C   0  0  2  0  0  3  0  0  0  0  0  0
  159.3230  211.0810  152.6030 C   0  0  0  0  0  2  0  0  0  0  0  0
  160.5770  211.6430  154.8770 C   0  0  2  0  0  3  0  0  0  0  0  0
  160.1970  211.2910  151.3710 C   0  0  0  0  0  2  0  0  0  0  0  0
  160.4970  208.4320  152.2280 C   0  0  0  0  0  2  0  0  0  0  0  0
  161.4470  210.4710  154.4130 C   0  0  0  0  0  2  0  0  0  0  0  0
  162.0790  209.2840  156.4900 C   0  0  0  0  0  1  0  0  0  0  0  0
  161.5960  210.6660  151.4900 C   0  0  2  0  0  3  0  0  0  0  0  0
  162.1500  209.8350  149.3170 C   0  0  0  0  0  2  0  0  0  0  0  0
  159.0660  211.4860  155.0780 C   0  0  2  0  0  0  0  0  0  0  0  0
  160.9490  207.4610  153.3350 C   0  0  1  0  0  3  0  0  0  0  0  0
  161.7590  208.6730  150.1120 N   0  0  0  0  0  0  0  0  0  0  0  0
  162.3680  211.0120  150.2480 C   0  0  0  0  0  2  0  0  0  0  0  0
  157.8700  211.8050  157.2600 C   0  0  0  0  0  1  0  0  0  0  0  0
  158.4160  212.5170  156.0310 C   0  0  1  0  0  0  0  0  0  0  0  0
  159.3550  213.4590  156.4690 O   0  0  0  0  0  1  0  0  0  0  0  0
  157.4250  214.4420  154.9840 O   0  0  0  0  0  0  0  0  0  0  0  0
  156.0950  212.5850  155.0790 O   0  0  0  0  0  1  0  0  0  0  0  0
  157.2980  213.2350  155.3210 C   0  0  0  0  0  0  0  0  0  0  0  0
  162.6790  205.8460  152.7820 N   0  0  0  0  0  2  0  0  0  0  0  0
  161.4260  206.1180  152.8120 C   0  0  0  0  0  0  0  0  0  0  0  0
  160.5750  203.9020  152.5340 O   0  0  0  0  0  1  0  0  0  0  0  0
  160.4950  205.2110  152.0550 C   0  0  2  0  0  3  0  0  0  0  0  0
  160.7890  205.2310  150.5620 C   0  0  0  0  0  2  0  0  0  0  0  0
  160.8520  203.8160  150.0110 C   0  0  0  0  0  2  0  0  0  0  0  0
  161.2300  204.8730  147.9370 O   0  0  0  0  0  0  0  0  0  0  0  0
  161.2850  203.8390  148.5820 C   0  0  0  0  0  3  0  0  0  0  0  0
  1 17  1  0  0  0  0
  2  6  1  0  0  0  0
  4  7  1  6  0  0  0
  4  8  1  0  0  0  0
  4 15  1  0  0  0  0
  5 10  1  6  0  0  0
  6 12  1  1  0  0  0
  8 11  1  6  0  0  0
  8 15  1  0  0  0  0
  9 13  1  0  0  0  0
  9  7  1  0  0  0  0
 10 16  1  0  0  0  0
 11  6  1  0  0  0  0
 13 18  1  6  0  0  0
 13  5  1  0  0  0  0
 14 17  1  0  0  0  0
 14 18  1  0  0  0  0
 15  3  1  6  0  0  0
 15 20  1  0  0  0  0
 16 26  1  6  0  0  0
 16  2  1  0  0  0  0
 17  5  1  0  0  0  0
 20 21  1  0  0  0  0
 20 19  1  1  0  0  0
 22 24  2  0  0  0  0
 23 24  1  0  0  0  0
 24 20  1  0  0  0  0
 25 26  2  0  0  0  0
 28 27  1  1  0  0  0
 28 26  1  0  0  0  0
 29 28  1  0  0  0  0
 30 29  1  0  0  0  0
 31 32  2  0  0  0  0
 32 30  1  0  0  0  0
M  END
>  <MODEL>
1

>  <REMARK>
 VINA RESULT:      -4.8      0.000      0.000
  Name = 
  7 active torsions:
  status: ('A' for Active; 'I' for Inactive)
    1  A    between atoms: C_2  and  C_11
    2  A    between atoms: C_2  and  C_18
    3  A    between atoms: C_11  and  C_12
    4  A    between atoms: C_18  and  C_31
    5  A    between atoms: C_22  and  C_27
    6  A    between atoms: C_22  and  C_32
    7  A    between atoms: C_28  and  C_31
                            x       y       z     vdW  Elec       q    Type
                         _______ _______ _______ _____ _____    ______ ____

>  <TORSDO>
F 7

$$$$
=
 OpenBabel11072410283D

 32 34  0  0  1  0  0  0  0  0999 V2000
  161.3580  208.2980  147.8540 O   0  0  0  0  0  1  0  0  0  0  0  0
  160.4660  211.1870  150.9970 C   0  0  0  0  0  2  0  0  0  0  0  0
  162.4240  210.3490  154.4430 C   0  0  0  0  0  1  0  0  0  0  0  0
  161.2250  207.9960  154.3280 C   0  0  2  0  0  3  0  0  0  0  0  0
  161.3510  208.4050  150.1100 C   0  0  2  0  0  3  0  0  0  0  0  0
  160.2900  211.0290  152.5010 C   0  0  2  0  0  3  0  0  0  0  0  0
  162.2300  207.8530  153.1690 C   0  0  0  0  0  2  0  0  0  0  0  0
  160.1320  209.0930  154.2270 C   0  0  2  0  0  3  0  0  0  0  0  0
  161.8450  206.8190  152.1150 C   0  0  0  0  0  2  0  0  0  0  0  0
  162.3310  209.4230  150.7080 C   0  0  0  0  0  2  0  0  0  0  0  0
  159.9820  209.5710  152.7800 C   0  0  0  0  0  2  0  0  0  0  0  0
  159.1310  211.8880  152.9600 C   0  0  0  0  0  1  0  0  0  0  0  0
  160.8320  207.3360  151.0830 C   0  0  2  0  0  3  0  0  0  0  0  0
  161.4420  206.3530  148.9900 C   0  0  0  0  0  2  0  0  0  0  0  0
  161.4140  209.3500  155.0270 C   0  0  2  0  0  0  0  0  0  0  0  0
  161.9020  210.8930  150.5360 C   0  0  1  0  0  3  0  0  0  0  0  0
  161.9200  207.7320  148.9470 N   0  0  0  0  0  0  0  0  0  0  0  0
  160.4880  206.2010  150.1590 C   0  0  0  0  0  2  0  0  0  0  0  0
  160.4110  208.1140  156.9660 C   0  0  0  0  0  1  0  0  0  0  0  0
  161.2500  209.3190  156.5650 C   0  0  1  0  0  0  0  0  0  0  0  0
  162.4910  209.2010  157.2010 O   0  0  0  0  0  1  0  0  0  0  0  0
  159.3300  210.6310  157.1780 O   0  0  0  0  0  0  0  0  0  0  0  0
  161.3320  211.7300  157.2580 O   0  0  0  0  0  1  0  0  0  0  0  0
  160.5800  210.5840  157.0320 C   0  0  0  0  0  0  0  0  0  0  0  0
  163.1860  211.0380  148.4770 N   0  0  0  0  0  2  0  0  0  0  0  0
  162.1750  211.4500  149.1510 C   0  0  0  0  0  0  0  0  0  0  0  0
  160.3620  212.3470  147.8760 O   0  0  0  0  0  1  0  0  0  0  0  0
  161.4660  212.6840  148.6630 C   0  0  2  0  0  3  0  0  0  0  0  0
  162.4010  213.5900  147.8750 C   0  0  0  0  0  2  0  0  0  0  0  0
  161.8220  213.8900  146.5020 C   0  0  0  0  0  2  0  0  0  0  0  0
  162.2590  213.0510  144.3410 O   0  0  0  0  0  0  0  0  0  0  0  0
  162.7120  213.3380  145.4370 C   0  0  0  0  0  3  0  0  0  0  0  0
  1 17  1  0  0  0  0
  2  6  1  0  0  0  0
  4  7  1  6  0  0  0
  4 15  1  0  0  0  0
  5 10  1  1  0  0  0
  5 13  1  0  0  0  0
  6 11  1  0  0  0  0
  6 12  1  6  0  0  0
  8 11  1  6  0  0  0
  8  4  1  0  0  0  0
  8 15  1  0  0  0  0
  9  7  1  0  0  0  0
 13 18  1  6  0  0  0
 13  9  1  0  0  0  0
 14 18  1  0  0  0  0
 15  3  1  6  0  0  0
 15 20  1  0  0  0  0
 16 26  1  6  0  0  0
 16 10  1  0  0  0  0
 16  2  1  0  0  0  0
 17 14  1  0  0  0  0
 17  5  1  0  0  0  0
 20 19  1  1  0  0  0
 20 24  1  0  0  0  0
 20 21  1  0  0  0  0
 24 22  2  0  0  0  0
 24 23  1  0  0  0  0
 25 26  2  0  0  0  0
 28 27  1  6  0  0  0
 28 26  1  0  0  0  0
 29 28  1  0  0  0  0
 30 29  1  0  0  0  0
 31 32  2  0  0  0  0
 32 30  1  0  0  0  0
M  END
>  <MODEL>
2

>  <REMARK>
 VINA RESULT:      -4.0      2.839      5.659
  Name = 
  7 active torsions:
  status: ('A' for Active; 'I' for Inactive)
    1  A    between atoms: C_2  and  C_11
    2  A    between atoms: C_2  and  C_18
    3  A    between atoms: C_11  and  C_12
    4  A    between atoms: C_18  and  C_31
    5  A    between atoms: C_22  and  C_27
    6  A    between atoms: C_22  and  C_32
    7  A    between atoms: C_28  and  C_31
                            x       y       z     vdW  Elec       q    Type
                         _______ _______ _______ _____ _____    ______ ____

>  <TORSDO>
F 7

$$$$
=
 OpenBabel11072410283D

 32 34  0  0  1  0  0  0  0  0999 V2000
  162.6480  207.8490  149.3750 O   0  0  0  0  0  1  0  0  0  0  0  0
  161.6320  207.5990  153.6090 C   0  0  0  0  0  2  0  0  0  0  0  0
  158.5050  209.9870  154.5720 C   0  0  0  0  0  1  0  0  0  0  0  0
  159.9640  211.9650  153.6010 C   0  0  2  0  0  3  0  0  0  0  0  0
  161.6470  209.1110  150.9580 C   0  0  2  0  0  3  0  0  0  0  0  0
  161.1490  208.6480  154.6000 C   0  0  2  0  0  3  0  0  0  0  0  0
  159.6040  211.2220  152.3020 C   0  0  0  0  0  2  0  0  0  0  0  0
  160.8160  211.2250  154.6660 C   0  0  2  0  0  3  0  0  0  0  0  0
  160.5600  211.4700  151.1390 C   0  0  0  0  0  2  0  0  0  0  0  0
  160.3660  208.5050  151.5470 C   0  0  0  0  0  2  0  0  0  0  0  0
  161.5140  210.0110  154.0460 C   0  0  0  0  0  2  0  0  0  0  0  0
  161.8490  208.4380  155.9270 C   0  0  0  0  0  1  0  0  0  0  0  0
  161.8360  210.6160  151.1940 C   0  0  2  0  0  3  0  0  0  0  0  0
  162.3610  210.0410  148.9330 C   0  0  0  0  0  2  0  0  0  0  0  0
  159.2910  211.2870  154.8020 C   0  0  2  0  0  0  0  0  0  0  0  0
  160.6050  207.3180  152.5000 C   0  0  1  0  0  3  0  0  0  0  0  0
  161.7530  208.8520  149.5260 N   0  0  0  0  0  0  0  0  0  0  0  0
  162.7140  211.0140  150.0410 C   0  0  0  0  0  2  0  0  0  0  0  0
  158.8820  211.6020  157.2570 C   0  0  0  0  0  1  0  0  0  0  0  0
  158.7640  212.2560  155.8890 C   0  0  1  0  0  0  0  0  0  0  0  0
  159.5150  213.4360  155.9160 O   0  0  0  0  0  1  0  0  0  0  0  0
  156.4490  212.4590  156.5060 O   0  0  0  0  0  1  0  0  0  0  0  0
  156.9400  213.0250  154.3460 O   0  0  0  0  0  0  0  0  0  0  0  0
  157.3240  212.5990  155.6110 C   0  0  0  0  0  0  0  0  0  0  0  0
  160.3560  205.7670  150.6450 N   0  0  0  0  0  2  0  0  0  0  0  0
  160.8900  206.0090  151.7860 C   0  0  0  0  0  0  0  0  0  0  0  0
  162.8550  204.6760  152.0590 O   0  0  0  0  0  1  0  0  0  0  0  0
  161.5460  204.8640  152.5070 C   0  0  2  0  0  3  0  0  0  0  0  0
  160.7560  203.5750  152.3420 C   0  0  0  0  0  2  0  0  0  0  0  0
  161.4990  202.6050  151.4360 C   0  0  0  0  0  2  0  0  0  0  0  0
  160.9790  201.8550  149.2620 O   0  0  0  0  0  0  0  0  0  0  0  0
  160.5760  202.0650  150.3940 C   0  0  0  0  0  3  0  0  0  0  0  0
  1 17  1  0  0  0  0
  2  6  1  0  0  0  0
  4  7  1  6  0  0  0
  4  8  1  0  0  0  0
  4 15  1  0  0  0  0
  5 13  1  0  0  0  0
  5 10  1  6  0  0  0
  6 12  1  1  0  0  0
  8 11  1  6  0  0  0
  8 15  1  0  0  0  0
  9 13  1  0  0  0  0
  9  7  1  0  0  0  0
 10 16  1  0  0  0  0
 11  6  1  0  0  0  0
 13 18  1  6  0  0  0
 14 17  1  0  0  0  0
 14 18  1  0  0  0  0
 15  3  1  6  0  0  0
 15 20  1  0  0  0  0
 16 26  1  6  0  0  0
 16  2  1  0  0  0  0
 17  5  1  0  0  0  0
 20 21  1  0  0  0  0
 20 19  1  1  0  0  0
 23 24  2  0  0  0  0
 24 20  1  0  0  0  0
 24 22  1  0  0  0  0
 25 26  2  0  0  0  0
 26 28  1  0  0  0  0
 28 27  1  6  0  0  0
 29 28  1  0  0  0  0
 30 29  1  0  0  0  0
 31 32  2  0  0  0  0
 32 30  1  0  0  0  0
M  END
>  <MODEL>
3

>  <REMARK>
 VINA RESULT:      -3.2      1.307      1.419
  Name = 
  7 active torsions:
  status: ('A' for Active; 'I' for Inactive)
    1  A    between atoms: C_2  and  C_11
    2  A    between atoms: C_2  and  C_18
    3  A    between atoms: C_11  and  C_12
    4  A    between atoms: C_18  and  C_31
    5  A    between atoms: C_22  and  C_27
    6  A    between atoms: C_22  and  C_32
    7  A    between atoms: C_28  and  C_31
                            x       y       z     vdW  Elec       q    Type
                         _______ _______ _______ _____ _____    ______ ____

>  <TORSDO>
F 7

$$$$
=
 OpenBabel11072410283D

 32 34  0  0  1  0  0  0  0  0999 V2000
  160.0430  213.4260  156.0380 O   0  0  0  0  0  1  0  0  0  0  0  0
  160.5510  211.9860  151.9520 C   0  0  0  0  0  2  0  0  0  0  0  0
  159.9700  207.9880  151.6590 C   0  0  0  0  0  1  0  0  0  0  0  0
  161.8880  207.7700  153.4640 C   0  0  2  0  0  3  0  0  0  0  0  0
  160.5720  211.5090  154.9660 C   0  0  2  0  0  3  0  0  0  0  0  0
  161.1410  210.6980  151.3970 C   0  0  2  0  0  3  0  0  0  0  0  0
  160.7540  208.3470  154.3320 C   0  0  0  0  0  2  0  0  0  0  0  0
  162.4330  208.6290  152.2930 C   0  0  2  0  0  3  0  0  0  0  0  0
  161.2190  209.0670  155.5940 C   0  0  0  0  0  2  0  0  0  0  0  0
  159.4660  210.9550  154.0590 C   0  0  0  0  0  2  0  0  0  0  0  0
  162.0290  210.0960  152.4670 C   0  0  0  0  0  2  0  0  0  0  0  0
  161.9740  211.0200  150.1720 C   0  0  0  0  0  1  0  0  0  0  0  0
  161.6760  210.5130  155.3490 C   0  0  2  0  0  3  0  0  0  0  0  0
  160.9740  211.7740  157.2560 C   0  0  0  0  0  2  0  0  0  0  0  0
  161.3910  207.5370  152.0310 C   0  0  2  0  0  0  0  0  0  0  0  0
  159.2600  211.7470  152.7530 C   0  0  1  0  0  3  0  0  0  0  0  0
  160.0230  212.0820  156.1910 N   0  0  0  0  0  0  0  0  0  0  0  0
  162.1750  211.0710  156.6520 C   0  0  0  0  0  2  0  0  0  0  0  0
  161.7670  206.3670  149.8440 C   0  0  0  0  0  1  0  0  0  0  0  0
  161.9320  206.2560  151.3520 C   0  0  1  0  0  0  0  0  0  0  0  0
  163.2960  206.0850  151.6180 O   0  0  0  0  0  1  0  0  0  0  0  0
  161.1680  204.7770  153.0880 O   0  0  0  0  0  1  0  0  0  0  0  0
  160.5380  204.2050  150.9660 O   0  0  0  0  0  0  0  0  0  0  0  0
  161.1810  205.0530  151.8590 C   0  0  0  0  0  0  0  0  0  0  0  0
  159.0600  214.1630  152.9300 N   0  0  0  0  0  2  0  0  0  0  0  0
  158.4640  213.0260  152.9340 C   0  0  0  0  0  0  0  0  0  0  0  0
  156.2080  213.7240  152.5650 O   0  0  0  0  0  1  0  0  0  0  0  0
  157.0390  212.9860  153.4120 C   0  0  2  0  0  3  0  0  0  0  0  0
  156.9130  213.5070  154.8360 C   0  0  0  0  0  2  0  0  0  0  0  0
  156.1850  212.4980  155.7110 C   0  0  0  0  0  2  0  0  0  0  0  0
  155.6440  210.2250  155.3960 O   0  0  0  0  0  0  0  0  0  0  0  0
  155.7430  211.3310  154.8910 C   0  0  0  0  0  3  0  0  0  0  0  0
  1 17  1  0  0  0  0
  2 16  1  0  0  0  0
  4  7  1  1  0  0  0
  5 10  1  1  0  0  0
  5 13  1  0  0  0  0
  5 17  1  0  0  0  0
  6 12  1  6  0  0  0
  6  2  1  0  0  0  0
  6 11  1  0  0  0  0
  7  9  1  0  0  0  0
  8 11  1  1  0  0  0
  8  4  1  0  0  0  0
 13  9  1  1  0  0  0
 13 18  1  0  0  0  0
 15  3  1  6  0  0  0
 15  8  1  0  0  0  0
 15  4  1  0  0  0  0
 16 26  1  1  0  0  0
 16 10  1  0  0  0  0
 17 14  1  0  0  0  0
 18 14  1  0  0  0  0
 20 19  1  6  0  0  0
 20 21  1  0  0  0  0
 20 24  1  0  0  0  0
 20 15  1  0  0  0  0
 23 24  2  0  0  0  0
 24 22  1  0  0  0  0
 25 26  2  0  0  0  0
 26 28  1  0  0  0  0
 28 27  1  6  0  0  0
 28 29  1  0  0  0  0
 29 30  1  0  0  0  0
 32 31  2  0  0  0  0
 32 30  1  0  0  0  0
M  END
>  <MODEL>
4

>  <REMARK>
 VINA RESULT:      -3.1      2.368      7.700
  Name = 
  7 active torsions:
  status: ('A' for Active; 'I' for Inactive)
    1  A    between atoms: C_2  and  C_11
    2  A    between atoms: C_2  and  C_18
    3  A    between atoms: C_11  and  C_12
    4  A    between atoms: C_18  and  C_31
    5  A    between atoms: C_22  and  C_27
    6  A    between atoms: C_22  and  C_32
    7  A    between atoms: C_28  and  C_31
                            x       y       z     vdW  Elec       q    Type
                         _______ _______ _______ _____ _____    ______ ____

>  <TORSDO>
F 7

$$$$
=
 OpenBabel11072410283D

 32 34  0  0  1  0  0  0  0  0999 V2000
  159.8420  213.0560  156.1020 O   0  0  0  0  0  1  0  0  0  0  0  0
  160.4660  211.8300  151.9630 C   0  0  0  0  0  2  0  0  0  0  0  0
  160.0900  207.8250  151.4840 C   0  0  0  0  0  1  0  0  0  0  0  0
  161.9970  207.6220  153.3030 C   0  0  2  0  0  3  0  0  0  0  0  0
  160.4780  211.2190  154.9530 C   0  0  2  0  0  3  0  0  0  0  0  0
  161.1270  210.6000  151.3580 C   0  0  2  0  0  3  0  0  0  0  0  0
  160.8260  208.1020  154.1800 C   0  0  0  0  0  2  0  0  0  0  0  0
  162.5110  208.5590  152.1780 C   0  0  2  0  0  3  0  0  0  0  0  0
  161.2400  208.7860  155.4790 C   0  0  0  0  0  2  0  0  0  0  0  0
  159.4120  210.6520  154.0070 C   0  0  0  0  0  2  0  0  0  0  0  0
  162.0310  209.9940  152.4130 C   0  0  0  0  0  2  0  0  0  0  0  0
  161.9560  211.0170  150.1610 C   0  0  0  0  0  1  0  0  0  0  0  0
  161.6260  210.2620  155.3060 C   0  0  2  0  0  3  0  0  0  0  0  0
  160.8410  211.3990  157.2580 C   0  0  0  0  0  2  0  0  0  0  0  0
  161.5280  207.4290  151.8550 C   0  0  2  0  0  0  0  0  0  0  0  0
  159.1810  211.4910  152.7350 C   0  0  1  0  0  3  0  0  0  0  0  0
  159.8880  211.7070  156.1940 N   0  0  0  0  0  0  0  0  0  0  0  0
  162.0820  210.7860  156.6390 C   0  0  0  0  0  2  0  0  0  0  0  0
  162.3080  206.5260  149.6480 C   0  0  0  0  0  1  0  0  0  0  0  0
  162.1410  206.2090  151.1270 C   0  0  1  0  0  0  0  0  0  0  0  0
  163.4060  205.9010  151.6400 O   0  0  0  0  0  1  0  0  0  0  0  0
  161.3060  204.3000  152.3290 O   0  0  0  0  0  1  0  0  0  0  0  0
  160.3680  204.6500  150.2740 O   0  0  0  0  0  0  0  0  0  0  0  0
  161.2420  205.0120  151.2920 C   0  0  0  0  0  0  0  0  0  0  0  0
  157.4770  212.7470  153.9300 N   0  0  0  0  0  2  0  0  0  0  0  0
  158.3200  212.7200  152.9620 C   0  0  0  0  0  0  0  0  0  0  0  0
  156.9850  214.4520  151.9970 O   0  0  0  0  0  1  0  0  0  0  0  0
  158.2130  213.7920  151.9130 C   0  0  2  0  0  3  0  0  0  0  0  0
  158.3960  213.2220  150.5130 C   0  0  0  0  0  2  0  0  0  0  0  0
  157.1050  213.3360  149.7180 C   0  0  0  0  0  2  0  0  0  0  0  0
  158.5190  214.1640  148.0220 O   0  0  0  0  0  0  0  0  0  0  0  0
  157.3970  213.7960  148.3280 C   0  0  0  0  0  3  0  0  0  0  0  0
  1 17  1  0  0  0  0
  2 16  1  0  0  0  0
  4  7  1  1  0  0  0
  5 10  1  6  0  0  0
  5 13  1  0  0  0  0
  5 17  1  0  0  0  0
  6 12  1  6  0  0  0
  6  2  1  0  0  0  0
  6 11  1  0  0  0  0
  7  9  1  0  0  0  0
  8 11  1  1  0  0  0
  8  4  1  0  0  0  0
 13  9  1  1  0  0  0
 13 18  1  0  0  0  0
 15  3  1  6  0  0  0
 15  8  1  0  0  0  0
 15  4  1  0  0  0  0
 16 26  1  1  0  0  0
 16 10  1  0  0  0  0
 17 14  1  0  0  0  0
 18 14  1  0  0  0  0
 20 19  1  6  0  0  0
 20 24  1  0  0  0  0
 20 21  1  0  0  0  0
 20 15  1  0  0  0  0
 23 24  2  0  0  0  0
 24 22  1  0  0  0  0
 26 25  2  0  0  0  0
 28 27  1  6  0  0  0
 28 26  1  0  0  0  0
 29 28  1  0  0  0  0
 30 29  1  0  0  0  0
 31 32  2  0  0  0  0
 32 30  1  0  0  0  0
M  END
>  <MODEL>
5

>  <REMARK>
 VINA RESULT:      -2.5      2.851      7.582
  Name = 
  7 active torsions:
  status: ('A' for Active; 'I' for Inactive)
    1  A    between atoms: C_2  and  C_11
    2  A    between atoms: C_2  and  C_18
    3  A    between atoms: C_11  and  C_12
    4  A    between atoms: C_18  and  C_31
    5  A    between atoms: C_22  and  C_27
    6  A    between atoms: C_22  and  C_32
    7  A    between atoms: C_28  and  C_31
                            x       y       z     vdW  Elec       q    Type
                         _______ _______ _______ _____ _____    ______ ____

>  <TORSDO>
F 7

$$$$
=
 OpenBabel11072410283D

 32 34  0  0  1  0  0  0  0  0999 V2000
  160.9110  211.7260  155.6720 O   0  0  0  0  0  1  0  0  0  0  0  0
  161.4190  210.0740  151.6670 C   0  0  0  0  0  2  0  0  0  0  0  0
  159.8480  206.3550  151.3390 C   0  0  0  0  0  1  0  0  0  0  0  0
  161.4590  205.7060  153.3310 C   0  0  2  0  0  3  0  0  0  0  0  0
  161.0240  209.7040  154.6700 C   0  0  2  0  0  3  0  0  0  0  0  0
  161.7050  208.6600  151.1820 C   0  0  2  0  0  3  0  0  0  0  0  0
  160.4360  206.5850  154.0750 C   0  0  0  0  0  2  0  0  0  0  0  0
  162.3200  206.3570  152.2160 C   0  0  2  0  0  3  0  0  0  0  0  0
  160.9480  207.1990  155.3740 C   0  0  0  0  0  2  0  0  0  0  0  0
  159.9050  209.4260  153.6580 C   0  0  0  0  0  2  0  0  0  0  0  0
  162.2960  207.8830  152.3410 C   0  0  0  0  0  2  0  0  0  0  0  0
  162.7070  208.7160  150.0470 C   0  0  0  0  0  1  0  0  0  0  0  0
  161.7870  208.4690  155.1690 C   0  0  2  0  0  3  0  0  0  0  0  0
  161.2570  209.9290  156.9880 C   0  0  0  0  0  2  0  0  0  0  0  0
  161.0590  205.5640  151.8560 C   0  0  2  0  0  0  0  0  0  0  0  0
  160.0400  210.2030  152.3330 C   0  0  1  0  0  3  0  0  0  0  0  0
  160.5270  210.4380  155.8290 N   0  0  0  0  0  0  0  0  0  0  0  0
  162.2860  208.9210  156.5130 C   0  0  0  0  0  2  0  0  0  0  0  0
  162.6970  203.6760  151.6380 C   0  0  0  0  0  1  0  0  0  0  0  0
  161.3120  204.1650  151.2430 C   0  0  1  0  0  0  0  0  0  0  0  0
  160.3820  203.2330  151.7180 O   0  0  0  0  0  1  0  0  0  0  0  0
  160.8280  203.2400  149.0770 O   0  0  0  0  0  1  0  0  0  0  0  0
  161.5770  205.3990  149.0740 O   0  0  0  0  0  0  0  0  0  0  0  0
  161.2060  204.2390  149.7430 C   0  0  0  0  0  0  0  0  0  0  0  0
  160.4590  212.5950  152.4370 N   0  0  0  0  0  2  0  0  0  0  0  0
  159.5910  211.6490  152.4260 C   0  0  0  0  0  0  0  0  0  0  0  0
  157.6210  212.8880  151.8810 O   0  0  0  0  0  1  0  0  0  0  0  0
  158.1760  211.9950  152.8000 C   0  0  2  0  0  3  0  0  0  0  0  0
  158.0990  212.5850  154.2010 C   0  0  0  0  0  2  0  0  0  0  0  0
  157.1990  211.7390  155.0880 C   0  0  0  0  0  2  0  0  0  0  0  0
  155.5820  212.7530  156.4720 O   0  0  0  0  0  0  0  0  0  0  0  0
  155.9090  212.4470  155.3370 C   0  0  0  0  0  3  0  0  0  0  0  0
  1 17  1  0  0  0  0
  2 16  1  0  0  0  0
  4  7  1  1  0  0  0
  5 10  1  6  0  0  0
  5 13  1  0  0  0  0
  5 17  1  0  0  0  0
  6 12  1  6  0  0  0
  6  2  1  0  0  0  0
  6 11  1  0  0  0  0
  7  9  1  0  0  0  0
  8 11  1  1  0  0  0
  8  4  1  0  0  0  0
 13  9  1  1  0  0  0
 13 18  1  0  0  0  0
 15  3  1  6  0  0  0
 15  8  1  0  0  0  0
 15  4  1  0  0  0  0
 16 26  1  1  0  0  0
 16 10  1  0  0  0  0
 17 14  1  0  0  0  0
 18 14  1  0  0  0  0
 20 19  1  1  0  0  0
 20 21  1  0  0  0  0
 20 15  1  0  0  0  0
 22 24  1  0  0  0  0
 23 24  2  0  0  0  0
 24 20  1  0  0  0  0
 26 25  2  0  0  0  0
 26 28  1  0  0  0  0
 28 27  1  6  0  0  0
 28 29  1  0  0  0  0
 29 30  1  0  0  0  0
 30 32  1  0  0  0  0
 32 31  2  0  0  0  0
M  END
>  <MODEL>
6

>  <REMARK>
 VINA RESULT:      -2.3      2.009      7.942
  Name = 
  7 active torsions:
  status: ('A' for Active; 'I' for Inactive)
    1  A    between atoms: C_2  and  C_11
    2  A    between atoms: C_2  and  C_18
    3  A    between atoms: C_11  and  C_12
    4  A    between atoms: C_18  and  C_31
    5  A    between atoms: C_22  and  C_27
    6  A    between atoms: C_22  and  C_32
    7  A    between atoms: C_28  and  C_31
                            x       y       z     vdW  Elec       q    Type
                         _______ _______ _______ _____ _____    ______ ____

>  <TORSDO>
F 7

$$$$
