=
 OpenBabel11072415253D

 25 27  0  0  1  0  0  0  0  0999 V2000
  161.2810  202.2830  150.4190 C   0  0  0  0  0  2  0  0  0  0  0  0
  161.9890  205.9310  146.9680 N   0  0  1  0  0  0  0  0  0  0  0  0
  161.0930  202.6110  145.6220 C   0  0  0  0  0  2  0  0  0  0  0  0
  160.6980  202.6500  149.1760 O   0  0  0  0  0  0  0  0  0  0  0  0
  160.7540  208.1060  152.4020 C   0  0  2  0  0  3  0  0  0  0  0  0
  160.2650  205.0080  145.5670 C   0  0  0  0  0  2  0  0  0  0  0  0
  160.5820  206.0600  146.6140 C   0  0  0  0  0  2  0  0  0  0  0  0
  161.4680  204.0930  145.5570 C   0  0  1  0  0  3  0  0  0  0  0  0
  160.6680  208.2590  153.9010 C   0  0  0  0  0  2  0  0  0  0  0  0
  161.5770  204.5480  151.3800 C   0  0  0  0  0  2  0  0  0  0  0  0
  162.2830  209.3850  150.7720 C   0  0  0  0  0  2  0  0  0  0  0  0
  161.5120  209.0290  149.5100 C   0  0  0  0  0  2  0  0  0  0  0  0
  161.3280  209.5090  154.2640 N   0  0  0  0  0  2  0  0  0  0  0  0
  160.1560  202.2590  146.7770 C   0  0  0  0  0  2  0  0  0  0  0  0
  162.0990  206.1500  148.4000 C   0  0  0  0  0  2  0  0  0  0  0  0
  160.9130  201.9110  148.0140 C   0  0  0  0  0  0  0  0  0  0  0  0
  162.3220  204.5370  146.7200 C   0  0  0  0  0  2  0  0  0  0  0  0
  161.6470  206.9140  152.0730 C   0  0  0  0  0  2  0  0  0  0  0  0
  162.4760  208.6320  148.4010 C   0  0  0  0  0  2  0  0  0  0  0  0
  163.0940  207.2670  148.6790 C   0  0  0  0  0  2  0  0  0  0  0  0
  161.3490  209.4360  151.9780 C   0  0  2  0  0  3  0  0  0  0  0  0
  160.8200  203.2410  151.4990 C   0  0  0  0  0  2  0  0  0  0  0  0
  161.7080  200.9300  148.0090 O   0  0  0  0  0  0  0  0  0  0  0  0
  162.0470  209.9550  153.1390 N   0  0  0  0  0  2  0  0  0  0  0  0
  160.8610  205.6230  152.1700 C   0  0  0  0  0  2  0  0  0  0  0  0
  1 22  1  0  0  0  0
  2  7  1  1  0  0  0
  2 15  1  0  0  0  0
  3 14  1  0  0  0  0
  4  1  1  0  0  0  0
  5 18  1  1  0  0  0
  5  9  1  0  0  0  0
  6  7  1  0  0  0  0
  8  6  1  1  0  0  0
  8  3  1  0  0  0  0
  8 17  1  0  0  0  0
  9 13  1  0  0  0  0
 10 22  1  0  0  0  0
 10 25  1  0  0  0  0
 12 11  1  0  0  0  0
 14 16  1  0  0  0  0
 15 20  1  0  0  0  0
 16  4  1  0  0  0  0
 17  2  1  0  0  0  0
 18 25  1  0  0  0  0
 19 20  1  0  0  0  0
 19 12  1  0  0  0  0
 21 11  1  6  0  0  0
 21  5  1  0  0  0  0
 21 24  1  0  0  0  0
 23 16  2  0  0  0  0
 24 13  1  0  0  0  0
M  END
>  <MODEL>
1

>  <REMARK>
 VINA RESULT:      -8.1      0.000      0.000
  Name = 
  0 active torsions:
  status: ('A' for Active; 'I' for Inactive)
                            x       y       z     vdW  Elec       q    Type
                         _______ _______ _______ _____ _____    ______ ____

>  <TORSDO>
F 0

$$$$
=
 OpenBabel11072415253D

 25 27  0  0  1  0  0  0  0  0999 V2000
  162.4340  210.5600  152.2590 C   0  0  0  0  0  2  0  0  0  0  0  0
  161.1290  206.1440  154.3840 N   0  0  1  0  0  0  0  0  0  0  0  0
  160.9550  209.0950  156.5980 C   0  0  0  0  0  2  0  0  0  0  0  0
  161.4740  210.1200  153.2110 O   0  0  0  0  0  0  0  0  0  0  0  0
  160.7110  206.0440  148.4170 C   0  0  2  0  0  3  0  0  0  0  0  0
  159.4640  207.2310  155.7380 C   0  0  0  0  0  2  0  0  0  0  0  0
  159.7060  206.4450  154.4630 C   0  0  0  0  0  2  0  0  0  0  0  0
  160.8420  207.6150  156.2270 C   0  0  1  0  0  3  0  0  0  0  0  0
  160.9630  206.3250  146.9560 C   0  0  0  0  0  2  0  0  0  0  0  0
  162.2720  208.6720  150.6620 C   0  0  0  0  0  2  0  0  0  0  0  0
  161.3260  203.9250  149.7450 C   0  0  0  0  0  2  0  0  0  0  0  0
  160.4050  204.1960  150.9240 C   0  0  0  0  0  2  0  0  0  0  0  0
  161.2900  205.0600  146.3050 N   0  0  0  0  0  2  0  0  0  0  0  0
  160.4890  210.0470  155.4970 C   0  0  0  0  0  2  0  0  0  0  0  0
  161.5250  206.2780  152.9920 C   0  0  0  0  0  2  0  0  0  0  0  0
  161.6010  210.4050  154.5700 C   0  0  0  0  0  0  0  0  0  0  0  0
  161.7880  207.2090  155.1220 C   0  0  0  0  0  2  0  0  0  0  0  0
  161.8060  206.7050  149.2490 C   0  0  0  0  0  2  0  0  0  0  0  0
  161.1320  203.9180  152.2310 C   0  0  0  0  0  2  0  0  0  0  0  0
  162.1780  204.9900  152.5130 C   0  0  0  0  0  2  0  0  0  0  0  0
  160.7550  204.5280  148.4640 C   0  0  2  0  0  3  0  0  0  0  0  0
  161.9960  210.1460  150.8680 C   0  0  0  0  0  2  0  0  0  0  0  0
  162.6240  210.9960  155.0140 O   0  0  0  0  0  0  0  0  0  0  0  0
  161.5350  204.1110  147.3140 N   0  0  0  0  0  2  0  0  0  0  0  0
  161.4920  208.1710  149.4660 C   0  0  0  0  0  2  0  0  0  0  0  0
  1  4  1  0  0  0  0
  2 15  1  6  0  0  0
  2  7  1  0  0  0  0
  2 17  1  0  0  0  0
  4 16  1  0  0  0  0
  5  9  1  6  0  0  0
  5 21  1  0  0  0  0
  5 18  1  0  0  0  0
  6  8  1  0  0  0  0
  7  6  1  0  0  0  0
  8 17  1  6  0  0  0
  8  3  1  0  0  0  0
 10 22  1  0  0  0  0
 11 12  1  0  0  0  0
 12 19  1  0  0  0  0
 13  9  1  0  0  0  0
 13 24  1  0  0  0  0
 14  3  1  0  0  0  0
 16 23  2  0  0  0  0
 16 14  1  0  0  0  0
 18 25  1  0  0  0  0
 19 20  1  0  0  0  0
 20 15  1  0  0  0  0
 21 11  1  1  0  0  0
 22  1  1  0  0  0  0
 24 21  1  0  0  0  0
 25 10  1  0  0  0  0
M  END
>  <MODEL>
2

>  <REMARK>
 VINA RESULT:      -6.3      3.370      8.083
  Name = 
  0 active torsions:
  status: ('A' for Active; 'I' for Inactive)
                            x       y       z     vdW  Elec       q    Type
                         _______ _______ _______ _____ _____    ______ ____

>  <TORSDO>
F 0

$$$$
=
 OpenBabel11072415253D

 25 27  0  0  1  0  0  0  0  0999 V2000
  162.1440  208.4070  149.0120 C   0  0  0  0  0  2  0  0  0  0  0  0
  161.6210  205.2620  152.9550 N   0  0  1  0  0  0  0  0  0  0  0  0
  161.3900  208.8630  153.7430 C   0  0  0  0  0  2  0  0  0  0  0  0
  161.3650  208.3690  150.2000 O   0  0  0  0  0  0  0  0  0  0  0  0
  160.4790  202.6030  147.7190 C   0  0  2  0  0  3  0  0  0  0  0  0
  160.0240  206.7380  153.9840 C   0  0  0  0  0  2  0  0  0  0  0  0
  160.1940  205.4960  153.1300 C   0  0  0  0  0  2  0  0  0  0  0  0
  161.4000  207.3620  154.0420 C   0  0  1  0  0  3  0  0  0  0  0  0
  160.5150  202.2460  146.2530 C   0  0  0  0  0  2  0  0  0  0  0  0
  162.0000  206.0120  148.3900 C   0  0  0  0  0  2  0  0  0  0  0  0
  161.4910  201.2880  149.6880 C   0  0  0  0  0  2  0  0  0  0  0  0
  160.6990  201.9900  150.7800 C   0  0  0  0  0  2  0  0  0  0  0  0
  160.8990  200.8420  146.1420 N   0  0  0  0  0  2  0  0  0  0  0  0
  160.6860  209.2290  152.4360 C   0  0  0  0  0  2  0  0  0  0  0  0
  161.8240  204.8090  151.5900 C   0  0  0  0  0  2  0  0  0  0  0  0
  161.6270  209.2120  151.2790 C   0  0  0  0  0  0  0  0  0  0  0  0
  162.2420  206.5720  153.0690 C   0  0  0  0  0  2  0  0  0  0  0  0
  161.5870  203.6100  148.0150 C   0  0  0  0  0  2  0  0  0  0  0  0
  161.6090  202.3330  151.9500 C   0  0  0  0  0  2  0  0  0  0  0  0
  162.5530  203.4740  151.5900 C   0  0  0  0  0  2  0  0  0  0  0  0
  160.7000  201.2570  148.3830 C   0  0  2  0  0  3  0  0  0  0  0  0
  161.5860  207.4180  148.0080 C   0  0  0  0  0  2  0  0  0  0  0  0
  162.6230  209.9860  151.2680 O   0  0  0  0  0  0  0  0  0  0  0  0
  161.3740  200.4280  147.4010 N   0  0  0  0  0  2  0  0  0  0  0  0
  161.1390  205.0110  147.6510 C   0  0  0  0  0  2  0  0  0  0  0  0
  1  4  1  0  0  0  0
  2 15  1  6  0  0  0
  2 17  1  0  0  0  0
  2  7  1  0  0  0  0
  3  8  1  0  0  0  0
  4 16  1  0  0  0  0
  5  9  1  6  0  0  0
  5 18  1  0  0  0  0
  5 21  1  0  0  0  0
  6  8  1  0  0  0  0
  7  6  1  0  0  0  0
  8 17  1  6  0  0  0
 11 12  1  0  0  0  0
 12 19  1  0  0  0  0
 13  9  1  0  0  0  0
 13 24  1  0  0  0  0
 14  3  1  0  0  0  0
 15 20  1  0  0  0  0
 16 14  1  0  0  0  0
 20 19  1  0  0  0  0
 21 11  1  1  0  0  0
 22 10  1  0  0  0  0
 22  1  1  0  0  0  0
 23 16  2  0  0  0  0
 24 21  1  0  0  0  0
 25 18  1  0  0  0  0
 25 10  1  0  0  0  0
M  END
>  <MODEL>
3

>  <REMARK>
 VINA RESULT:      -5.7      2.827      7.716
  Name = 
  0 active torsions:
  status: ('A' for Active; 'I' for Inactive)
                            x       y       z     vdW  Elec       q    Type
                         _______ _______ _______ _____ _____    ______ ____

>  <TORSDO>
F 0

$$$$
=
 OpenBabel11072415253D

 25 27  0  0  1  0  0  0  0  0999 V2000
  160.5350  205.4450  145.7230 C   0  0  0  0  0  2  0  0  0  0  0  0
  160.5630  202.3540  149.7430 N   0  0  1  0  0  0  0  0  0  0  0  0
  160.7370  200.6930  146.4500 C   0  0  0  0  0  2  0  0  0  0  0  0
  161.1690  204.2240  146.0760 O   0  0  0  0  0  0  0  0  0  0  0  0
  162.2810  207.9210  151.1040 C   0  0  2  0  0  3  0  0  0  0  0  0
  162.0430  200.8270  148.6200 C   0  0  0  0  0  2  0  0  0  0  0  0
  161.9620  201.9710  149.6120 C   0  0  0  0  0  2  0  0  0  0  0  0
  160.6770  200.7710  147.9760 C   0  0  1  0  0  3  0  0  0  0  0  0
  162.4130  209.4240  151.0960 C   0  0  0  0  0  2  0  0  0  0  0  0
  160.7260  206.6120  147.9010 C   0  0  0  0  0  2  0  0  0  0  0  0
  161.0330  206.4560  152.8150 C   0  0  0  0  0  2  0  0  0  0  0  0
  161.7000  205.1450  152.4270 C   0  0  0  0  0  2  0  0  0  0  0  0
  162.0300  209.9160  152.4160 N   0  0  0  0  0  2  0  0  0  0  0  0
  161.5920  201.7840  145.8070 C   0  0  0  0  0  2  0  0  0  0  0  0
  160.5160  203.8030  149.8460 C   0  0  0  0  0  2  0  0  0  0  0  0
  160.7920  203.0070  145.5080 C   0  0  0  0  0  0  0  0  0  0  0  0
  159.9460  201.9940  148.4770 C   0  0  0  0  0  2  0  0  0  0  0  0
  161.1560  207.5140  150.1560 C   0  0  0  0  0  2  0  0  0  0  0  0
  160.6630  204.0350  152.3420 C   0  0  0  0  0  2  0  0  0  0  0  0
  159.7780  204.2090  151.1130 C   0  0  0  0  0  2  0  0  0  0  0  0
  161.9700  207.6340  152.5610 C   0  0  2  0  0  3  0  0  0  0  0  0
  161.1960  206.5920  146.4620 C   0  0  0  0  0  2  0  0  0  0  0  0
  159.8120  202.9400  144.7170 O   0  0  0  0  0  0  0  0  0  0  0  0
  161.4080  208.8570  153.1020 N   0  0  0  0  0  2  0  0  0  0  0  0
  161.6580  207.4730  148.7280 C   0  0  0  0  0  2  0  0  0  0  0  0
  1  4  1  0  0  0  0
  1 22  1  0  0  0  0
  2 17  1  6  0  0  0
  2 15  1  0  0  0  0
  5 18  1  6  0  0  0
  5 21  1  0  0  0  0
  6  7  1  0  0  0  0
  7  2  1  0  0  0  0
  8  3  1  6  0  0  0
  8 17  1  0  0  0  0
  8  6  1  0  0  0  0
  9  5  1  0  0  0  0
  9 13  1  0  0  0  0
 10 25  1  0  0  0  0
 12 11  1  0  0  0  0
 13 24  1  0  0  0  0
 14  3  1  0  0  0  0
 15 20  1  0  0  0  0
 16 14  1  0  0  0  0
 16  4  1  0  0  0  0
 19 12  1  0  0  0  0
 20 19  1  0  0  0  0
 21 11  1  6  0  0  0
 21 24  1  0  0  0  0
 22 10  1  0  0  0  0
 23 16  2  0  0  0  0
 25 18  1  0  0  0  0
M  END
>  <MODEL>
4

>  <REMARK>
 VINA RESULT:      -5.6      1.858      4.028
  Name = 
  0 active torsions:
  status: ('A' for Active; 'I' for Inactive)
                            x       y       z     vdW  Elec       q    Type
                         _______ _______ _______ _____ _____    ______ ____

>  <TORSDO>
F 0

$$$$
=
 OpenBabel11072415253D

 25 27  0  0  1  0  0  0  0  0999 V2000
  162.3120  211.3510  148.2580 C   0  0  0  0  0  2  0  0  0  0  0  0
  158.3760  214.0280  150.0070 N   0  0  1  0  0  0  0  0  0  0  0  0
  158.8480  214.0890  146.3440 C   0  0  0  0  0  2  0  0  0  0  0  0
  160.9890  211.6360  147.8250 O   0  0  0  0  0  0  0  0  0  0  0  0
  160.1680  209.7940  153.8340 C   0  0  2  0  0  3  0  0  0  0  0  0
  157.0770  213.4840  148.0570 C   0  0  0  0  0  2  0  0  0  0  0  0
  157.3570  213.1190  149.5020 C   0  0  0  0  0  2  0  0  0  0  0  0
  158.1830  214.4420  147.6760 C   0  0  1  0  0  3  0  0  0  0  0  0
  161.0360  208.8250  154.5990 C   0  0  0  0  0  2  0  0  0  0  0  0
  161.8580  211.0310  150.6730 C   0  0  0  0  0  2  0  0  0  0  0  0
  159.1580  212.0090  154.6750 C   0  0  0  0  0  2  0  0  0  0  0  0
  158.1240  212.1490  153.5690 C   0  0  0  0  0  2  0  0  0  0  0  0
  160.9270  209.1470  156.0190 N   0  0  0  0  0  2  0  0  0  0  0  0
  159.3340  212.6430  146.2600 C   0  0  0  0  0  2  0  0  0  0  0  0
  159.2640  213.2560  150.8600 C   0  0  0  0  0  2  0  0  0  0  0  0
  160.7310  212.5000  146.7610 C   0  0  0  0  0  0  0  0  0  0  0  0
  159.1450  214.4290  148.8390 C   0  0  0  0  0  2  0  0  0  0  0  0
  161.0560  210.6940  152.9800 C   0  0  0  0  0  2  0  0  0  0  0  0
  158.0940  213.5810  153.0580 C   0  0  0  0  0  2  0  0  0  0  0  0
  159.3410  213.8940  152.2390 C   0  0  0  0  0  2  0  0  0  0  0  0
  159.4580  210.5380  154.9510 C   0  0  2  0  0  3  0  0  0  0  0  0
  162.2700  210.3420  149.3880 C   0  0  0  0  0  2  0  0  0  0  0  0
  161.6700  213.1270  146.1970 O   0  0  0  0  0  0  0  0  0  0  0  0
  160.2990  210.4020  156.1250 N   0  0  0  0  0  2  0  0  0  0  0  0
  161.4310  209.9950  151.6900 C   0  0  0  0  0  2  0  0  0  0  0  0
  1 22  1  0  0  0  0
  2 17  1  6  0  0  0
  2 15  1  0  0  0  0
  4  1  1  0  0  0  0
  5 18  1  1  0  0  0
  5  9  1  0  0  0  0
  5 21  1  0  0  0  0
  6  7  1  0  0  0  0
  7  2  1  0  0  0  0
  8  3  1  6  0  0  0
  8  6  1  0  0  0  0
  8 17  1  0  0  0  0
  9 13  1  0  0  0  0
 10 25  1  0  0  0  0
 12 11  1  0  0  0  0
 13 24  1  0  0  0  0
 14  3  1  0  0  0  0
 14 16  1  0  0  0  0
 15 20  1  0  0  0  0
 16  4  1  0  0  0  0
 19 12  1  0  0  0  0
 20 19  1  0  0  0  0
 21 11  1  6  0  0  0
 21 24  1  0  0  0  0
 22 10  1  0  0  0  0
 23 16  2  0  0  0  0
 25 18  1  0  0  0  0
M  END
>  <MODEL>
5

>  <REMARK>
 VINA RESULT:      -5.3      5.988      8.006
  Name = 
  0 active torsions:
  status: ('A' for Active; 'I' for Inactive)
                            x       y       z     vdW  Elec       q    Type
                         _______ _______ _______ _____ _____    ______ ____

>  <TORSDO>
F 0

$$$$
=
 OpenBabel11072415253D

 25 27  0  0  1  0  0  0  0  0999 V2000
  160.7440  204.1160  152.2430 C   0  0  0  0  0  2  0  0  0  0  0  0
  161.1850  207.2180  148.2560 N   0  0  1  0  0  0  0  0  0  0  0  0
  162.0290  208.6980  151.5330 C   0  0  0  0  0  2  0  0  0  0  0  0
  161.6230  205.1580  151.8440 O   0  0  0  0  0  0  0  0  0  0  0  0
  161.3840  201.4420  146.7140 C   0  0  2  0  0  3  0  0  0  0  0  0
  163.0790  208.3130  149.2560 C   0  0  0  0  0  2  0  0  0  0  0  0
  162.6410  207.2500  148.2670 C   0  0  0  0  0  2  0  0  0  0  0  0
  161.8250  208.6790  150.0170 C   0  0  1  0  0  3  0  0  0  0  0  0
  161.1480  199.9510  146.7010 C   0  0  0  0  0  2  0  0  0  0  0  0
  160.4650  202.9970  150.0490 C   0  0  0  0  0  2  0  0  0  0  0  0
  160.3900  203.2100  145.1280 C   0  0  0  0  0  2  0  0  0  0  0  0
  161.3840  204.3110  145.4650 C   0  0  0  0  0  2  0  0  0  0  0  0
  160.5490  199.6020  145.4160 N   0  0  0  0  0  2  0  0  0  0  0  0
  162.6450  207.4160  152.0910 C   0  0  0  0  0  2  0  0  0  0  0  0
  160.7800  205.8270  148.1480 C   0  0  0  0  0  2  0  0  0  0  0  0
  161.6010  206.4130  152.4500 C   0  0  0  0  0  0  0  0  0  0  0  0
  160.7810  207.6820  149.5740 C   0  0  0  0  0  2  0  0  0  0  0  0
  160.4740  202.0810  147.7590 C   0  0  0  0  0  2  0  0  0  0  0  0
  160.6580  205.6350  145.6480 C   0  0  0  0  0  2  0  0  0  0  0  0
  159.8630  205.6460  146.9480 C   0  0  0  0  0  2  0  0  0  0  0  0
  161.0320  201.8340  145.2910 C   0  0  2  0  0  3  0  0  0  0  0  0
  161.0440  202.8640  151.4420 C   0  0  0  0  0  2  0  0  0  0  0  0
  160.7350  206.6930  153.3250 O   0  0  0  0  0  0  0  0  0  0  0  0
  160.1470  200.7990  144.7940 N   0  0  0  0  0  2  0  0  0  0  0  0
  161.0880  201.9610  149.1390 C   0  0  0  0  0  2  0  0  0  0  0  0
  2 15  1  1  0  0  0
  2  7  1  0  0  0  0
  2 17  1  0  0  0  0
  3 14  1  0  0  0  0
  4  1  1  0  0  0  0
  4 16  1  0  0  0  0
  5  9  1  6  0  0  0
  5 18  1  0  0  0  0
  7  6  1  0  0  0  0
  8  6  1  6  0  0  0
  8  3  1  0  0  0  0
 10 22  1  0  0  0  0
 11 12  1  0  0  0  0
 12 19  1  0  0  0  0
 13  9  1  0  0  0  0
 14 16  1  0  0  0  0
 16 23  2  0  0  0  0
 17  8  1  0  0  0  0
 18 25  1  0  0  0  0
 19 20  1  0  0  0  0
 20 15  1  0  0  0  0
 21 11  1  1  0  0  0
 21  5  1  0  0  0  0
 22  1  1  0  0  0  0
 24 21  1  0  0  0  0
 24 13  1  0  0  0  0
 25 10  1  0  0  0  0
M  END
>  <MODEL>
6

>  <REMARK>
 VINA RESULT:      -5.1      2.492      6.988
  Name = 
  0 active torsions:
  status: ('A' for Active; 'I' for Inactive)
                            x       y       z     vdW  Elec       q    Type
                         _______ _______ _______ _____ _____    ______ ____

>  <TORSDO>
F 0

$$$$
