=
 OpenBabel11072412073D

 50 53  0  0  1  0  0  0  0  0999 V2000
  162.2390  209.9700  152.6900 C   0  0  0  0  0  0  0  0  0  0  0  0
  163.0460  210.8050  152.2040 O   0  0  0  0  0  0  0  0  0  0  0  0
  162.3410  210.4620  155.0910 N   0  0  0  0  0  0  0  0  0  0  0  0
  162.0360  211.1920  156.1200 C   0  0  0  0  0  0  0  0  0  0  0  0
  160.6360  211.6430  153.7010 C   0  0  1  0  0  3  0  0  0  0  0  0
  162.8940  211.2100  157.2530 N   0  0  0  0  0  1  0  0  0  0  0  0
  160.8450  211.9870  156.1140 N   0  0  0  0  0  0  0  0  0  0  0  0
  160.1620  212.1800  155.0270 C   0  0  0  0  0  3  0  0  0  0  0  0
  161.4670  210.3660  153.9210 C   0  0  1  0  0  3  0  0  0  0  0  0
  159.4400  211.3120  152.8030 C   0  0  0  0  0  2  0  0  0  0  0  0
  158.5220  212.4970  152.4670 C   0  0  2  0  0  3  0  0  0  0  0  0
  159.9700  213.5220  149.1800 C   0  0  0  0  0  0  0  0  0  0  0  0
  157.5730  213.6730  148.9780 C   0  0  0  0  0  3  0  0  0  0  0  0
  158.6010  212.9610  151.0430 C   0  0  0  0  0  0  0  0  0  0  0  0
  157.4470  213.2550  150.3050 C   0  0  0  0  0  3  0  0  0  0  0  0
  158.8400  213.8030  148.4070 C   0  0  0  0  0  3  0  0  0  0  0  0
  159.8260  213.1020  150.4660 N   0  0  0  0  0  0  0  0  0  0  0  0
  161.3270  213.6430  148.5800 C   0  0  0  0  0  2  0  0  0  0  0  0
  163.0960  212.5190  147.8870 C   0  0  0  0  0  1  0  0  0  0  0  0
  162.0570  212.4740  148.8130 O   0  0  0  0  0  0  0  0  0  0  0  0
  158.5990  213.6360  153.4780 C   0  0  0  0  0  2  0  0  0  0  0  0
  157.2010  214.1080  153.8580 C   0  0  0  0  0  2  0  0  0  0  0  0
  156.9520  213.9260  155.3470 C   0  0  0  0  0  2  0  0  0  0  0  0
  155.7770  212.9920  155.5790 C   0  0  0  0  0  2  0  0  0  0  0  0
  156.2460  211.7530  156.0150 O   0  0  0  0  0  0  0  0  0  0  0  0
  155.9430  210.8780  154.9730 C   0  0  0  0  0  1  0  0  0  0  0  0
  162.1620  208.6990  152.1070 O   0  0  0  0  0  0  0  0  0  0  0  0
  161.9970  207.3450  149.4880 C   0  0  0  0  0  2  0  0  0  0  0  0
  161.9180  205.9250  149.8760 N   0  0  0  0  0  0  0  0  0  0  0  0
  160.8840  206.6240  152.0500 C   0  0  2  0  0  3  0  0  0  0  0  0
  161.9780  205.8100  151.3440 C   0  0  0  0  0  2  0  0  0  0  0  0
  160.8810  208.1830  150.1190 C   0  0  0  0  0  2  0  0  0  0  0  0
  160.9520  208.1000  151.6420 C   0  0  2  0  0  3  0  0  0  0  0  0
  160.9560  206.4110  153.5340 C   0  0  0  0  0  0  0  0  0  0  0  0
  160.3290  207.2810  154.4190 O   0  0  0  0  0  1  0  0  0  0  0  0
  161.5410  205.3880  153.9830 O   0  0  0  0  0  0  0  0  0  0  0  0
  160.7010  205.2990  149.3150 C   0  0  2  0  0  3  0  0  0  0  0  0
  160.7400  202.9290  150.1200 C   0  0  0  0  0  3  0  0  0  0  0  0
  160.9030  201.5560  149.9050 C   0  0  0  0  0  3  0  0  0  0  0  0
  161.1600  203.3440  147.7700 C   0  0  0  0  0  3  0  0  0  0  0  0
  161.3220  201.9730  147.5560 C   0  0  0  0  0  3  0  0  0  0  0  0
  161.1970  201.0780  148.6240 C   0  0  0  0  0  3  0  0  0  0  0  0
  160.8780  203.8280  149.0580 C   0  0  0  0  0  0  0  0  0  0  0  0
  160.2940  205.9880  148.0140 C   0  0  0  0  0  2  0  0  0  0  0  0
  162.5430  205.7180  147.2500 O   0  0  0  0  0  0  0  0  0  0  0  0
  159.5260  205.7660  145.1880 C   0  0  0  0  0  1  0  0  0  0  0  0
  161.3240  205.8050  146.9350 C   0  0  0  0  0  0  0  0  0  0  0  0
  160.9280  205.6370  145.5650 N   0  0  0  0  0  0  0  0  0  0  0  0
  161.7200  205.5960  143.2290 C   0  0  0  0  0  1  0  0  0  0  0  0
  161.8620  205.0170  144.6290 C   0  0  0  0  0  2  0  0  0  0  0  0
  2  1  2  0  0  0  0
  3  4  2  0  0  0  0
  4  6  1  0  0  0  0
  5 10  1  6  0  0  0
  5  9  1  0  0  0  0
  5  8  1  0  0  0  0
  7  4  1  0  0  0  0
  8  7  2  0  0  0  0
  9  1  1  6  0  0  0
  9  3  1  0  0  0  0
 11 10  1  1  0  0  0
 11 21  1  0  0  0  0
 12 17  1  0  0  0  0
 13 15  2  0  0  0  0
 14 11  1  0  0  0  0
 15 14  1  0  0  0  0
 16 13  1  0  0  0  0
 16 12  2  0  0  0  0
 17 14  2  0  0  0  0
 18 20  1  0  0  0  0
 18 12  1  0  0  0  0
 19 20  1  0  0  0  0
 21 22  1  0  0  0  0
 22 23  1  0  0  0  0
 23 24  1  0  0  0  0
 24 25  1  0  0  0  0
 26 25  1  0  0  0  0
 27  1  1  0  0  0  0
 28 29  1  0  0  0  0
 28 32  1  0  0  0  0
 29 31  1  0  0  0  0
 30 34  1  1  0  0  0
 31 30  1  0  0  0  0
 32 33  1  0  0  0  0
 33 30  1  0  0  0  0
 33 27  1  6  0  0  0
 34 36  2  0  0  0  0
 34 35  1  0  0  0  0
 37 44  1  6  0  0  0
 37 29  1  0  0  0  0
 39 38  1  0  0  0  0
 40 43  1  0  0  0  0
 41 40  2  0  0  0  0
 41 42  1  0  0  0  0
 42 39  2  0  0  0  0
 43 37  1  0  0  0  0
 43 38  2  0  0  0  0
 46 48  1  0  0  0  0
 47 45  2  0  0  0  0
 47 44  1  0  0  0  0
 48 47  1  0  0  0  0
 49 50  1  0  0  0  0
 50 48  1  0  0  0  0
M  END
>  <MODEL>
1

>  <REMARK>
 VINA RESULT:      -6.4      0.000      0.000
  Name = 
  19 active torsions:
  status: ('A' for Active; 'I' for Inactive)
    1  A    between atoms: C_1  and  N_17
    2  A    between atoms: C_1  and  C_42
    3  A    between atoms: C_1  and  C_45
    4  A    between atoms: C_7  and  C_11
    5  A    between atoms: C_7  and  C_15
    6  A    between atoms: C_8  and  C_33
    7  A    between atoms: C_11  and  O_20
    8  A    between atoms: C_12  and  C_24
    9  A    between atoms: C_14  and  C_23
   10  A    between atoms: C_15  and  C_46
   11  A    between atoms: C_18  and  O_32
   12  A    between atoms: C_18  and  C_50
   13  A    between atoms: C_23  and  C_41
   14  A    between atoms: C_26  and  C_41
   15  A    between atoms: O_32  and  C_39
   16  A    between atoms: C_33  and  O_49
   17  A    between atoms: C_41  and  C_46
   18  A    between atoms: C_42  and  C_43
   19  A    between atoms: N_44  and  C_47
                            x       y       z     vdW  Elec       q    Type
                         _______ _______ _______ _____ _____    ______ ____

>  <TORSDO>
F 19

$$$$
=
 OpenBabel11072412073D

 50 53  0  0  1  0  0  0  0  0999 V2000
  161.3290  208.9230  152.4720 C   0  0  0  0  0  0  0  0  0  0  0  0
  162.4100  209.5580  152.5810 O   0  0  0  0  0  0  0  0  0  0  0  0
  160.7710  207.9150  154.6370 N   0  0  0  0  0  0  0  0  0  0  0  0
  160.4260  208.0090  155.8840 C   0  0  0  0  0  0  0  0  0  0  0  0
  160.2260  210.3220  154.2660 C   0  0  1  0  0  3  0  0  0  0  0  0
  160.7800  206.9770  156.7950 N   0  0  0  0  0  1  0  0  0  0  0  0
  159.7010  209.1530  156.3480 N   0  0  0  0  0  0  0  0  0  0  0  0
  159.5610  210.2140  155.6130 C   0  0  0  0  0  3  0  0  0  0  0  0
  160.3870  208.9230  153.6470 C   0  0  1  0  0  3  0  0  0  0  0  0
  159.3850  211.1900  153.3250 C   0  0  0  0  0  2  0  0  0  0  0  0
  158.6370  212.3530  153.9950 C   0  0  2  0  0  3  0  0  0  0  0  0
  157.2940  214.0220  150.9350 C   0  0  0  0  0  0  0  0  0  0  0  0
  155.6070  214.2110  152.6450 C   0  0  0  0  0  3  0  0  0  0  0  0
  157.7010  213.0950  153.0880 C   0  0  0  0  0  0  0  0  0  0  0  0
  156.4460  213.5330  153.5320 C   0  0  0  0  0  3  0  0  0  0  0  0
  156.0270  214.4530  151.3370 C   0  0  0  0  0  3  0  0  0  0  0  0
  158.0920  213.3510  151.8090 N   0  0  0  0  0  0  0  0  0  0  0  0
  157.7510  214.2620  149.5380 C   0  0  0  0  0  2  0  0  0  0  0  0
  159.2380  213.3570  148.1820 C   0  0  0  0  0  1  0  0  0  0  0  0
  158.1120  213.0510  148.9410 O   0  0  0  0  0  0  0  0  0  0  0  0
  159.5390  213.2700  154.8140 C   0  0  0  0  0  2  0  0  0  0  0  0
  159.1220  213.2610  156.2790 C   0  0  0  0  0  2  0  0  0  0  0  0
  157.6390  213.5610  156.4240 C   0  0  0  0  0  2  0  0  0  0  0  0
  156.9500  212.4600  157.2110 C   0  0  0  0  0  2  0  0  0  0  0  0
  156.2390  211.6370  156.3380 O   0  0  0  0  0  0  0  0  0  0  0  0
  155.0960  211.2750  157.0490 C   0  0  0  0  0  1  0  0  0  0  0  0
  161.0970  208.1940  151.2980 O   0  0  0  0  0  0  0  0  0  0  0  0
  160.2260  205.4220  150.7720 C   0  0  0  0  0  2  0  0  0  0  0  0
  160.1780  205.3860  149.2990 N   0  0  0  0  0  0  0  0  0  0  0  0
  161.9260  207.1820  149.2420 C   0  0  2  0  0  3  0  0  0  0  0  0
  160.5480  206.7060  148.7600 C   0  0  0  0  0  2  0  0  0  0  0  0
  161.6070  205.8280  151.2970 C   0  0  0  0  0  2  0  0  0  0  0  0
  161.9890  207.2110  150.7740 C   0  0  2  0  0  3  0  0  0  0  0  0
  162.2740  208.4960  148.6060 C   0  0  0  0  0  0  0  0  0  0  0  0
  161.5960  209.6620  148.9410 O   0  0  0  0  0  1  0  0  0  0  0  0
  163.2420  208.5540  147.7990 O   0  0  0  0  0  0  0  0  0  0  0  0
  161.0430  204.3060  148.7760 C   0  0  2  0  0  3  0  0  0  0  0  0
  163.0020  204.4420  147.2230 C   0  0  0  0  0  3  0  0  0  0  0  0
  163.5740  204.7510  145.9840 C   0  0  0  0  0  3  0  0  0  0  0  0
  160.8340  205.1370  146.3910 C   0  0  0  0  0  3  0  0  0  0  0  0
  161.4080  205.4440  145.1540 C   0  0  0  0  0  3  0  0  0  0  0  0
  162.7780  205.2540  144.9510 C   0  0  0  0  0  3  0  0  0  0  0  0
  161.6340  204.6430  147.4340 C   0  0  0  0  0  0  0  0  0  0  0  0
  160.2600  202.9990  148.6610 C   0  0  0  0  0  2  0  0  0  0  0  0
  161.7200  201.2810  149.4580 O   0  0  0  0  0  0  0  0  0  0  0  0
  160.7260  201.8700  145.9910 C   0  0  0  0  0  1  0  0  0  0  0  0
  161.1670  201.8170  148.4590 C   0  0  0  0  0  0  0  0  0  0  0  0
  161.3370  201.2390  147.1550 N   0  0  0  0  0  0  0  0  0  0  0  0
  161.0190  199.0650  146.0340 C   0  0  0  0  0  1  0  0  0  0  0  0
  161.8240  199.8670  147.0470 C   0  0  0  0  0  2  0  0  0  0  0  0
  1  2  2  0  0  0  0
  3  4  2  0  0  0  0
  4  7  1  0  0  0  0
  4  6  1  0  0  0  0
  5 10  1  6  0  0  0
  5  8  1  0  0  0  0
  8  7  2  0  0  0  0
  9  1  1  6  0  0  0
  9  5  1  0  0  0  0
  9  3  1  0  0  0  0
 11 10  1  6  0  0  0
 11 21  1  0  0  0  0
 12 16  2  0  0  0  0
 12 17  1  0  0  0  0
 13 15  2  0  0  0  0
 14 15  1  0  0  0  0
 14 11  1  0  0  0  0
 16 13  1  0  0  0  0
 17 14  2  0  0  0  0
 18 12  1  0  0  0  0
 19 20  1  0  0  0  0
 20 18  1  0  0  0  0
 21 22  1  0  0  0  0
 22 23  1  0  0  0  0
 23 24  1  0  0  0  0
 25 26  1  0  0  0  0
 25 24  1  0  0  0  0
 27  1  1  0  0  0  0
 28 32  1  0  0  0  0
 29 28  1  0  0  0  0
 30 34  1  6  0  0  0
 30 33  1  0  0  0  0
 31 30  1  0  0  0  0
 31 29  1  0  0  0  0
 33 32  1  0  0  0  0
 33 27  1  1  0  0  0
 34 35  1  0  0  0  0
 36 34  2  0  0  0  0
 37 44  1  6  0  0  0
 37 29  1  0  0  0  0
 38 43  1  0  0  0  0
 39 38  2  0  0  0  0
 40 43  2  0  0  0  0
 41 40  1  0  0  0  0
 42 41  2  0  0  0  0
 42 39  1  0  0  0  0
 43 37  1  0  0  0  0
 46 48  1  0  0  0  0
 47 44  1  0  0  0  0
 47 45  2  0  0  0  0
 48 47  1  0  0  0  0
 49 50  1  0  0  0  0
 50 48  1  0  0  0  0
M  END
>  <MODEL>
2

>  <REMARK>
 VINA RESULT:      -6.0      2.101      3.619
  Name = 
  19 active torsions:
  status: ('A' for Active; 'I' for Inactive)
    1  A    between atoms: C_1  and  N_17
    2  A    between atoms: C_1  and  C_42
    3  A    between atoms: C_1  and  C_45
    4  A    between atoms: C_7  and  C_11
    5  A    between atoms: C_7  and  C_15
    6  A    between atoms: C_8  and  C_33
    7  A    between atoms: C_11  and  O_20
    8  A    between atoms: C_12  and  C_24
    9  A    between atoms: C_14  and  C_23
   10  A    between atoms: C_15  and  C_46
   11  A    between atoms: C_18  and  O_32
   12  A    between atoms: C_18  and  C_50
   13  A    between atoms: C_23  and  C_41
   14  A    between atoms: C_26  and  C_41
   15  A    between atoms: O_32  and  C_39
   16  A    between atoms: C_33  and  O_49
   17  A    between atoms: C_41  and  C_46
   18  A    between atoms: C_42  and  C_43
   19  A    between atoms: N_44  and  C_47
                            x       y       z     vdW  Elec       q    Type
                         _______ _______ _______ _____ _____    ______ ____

>  <TORSDO>
F 19

$$$$
=
 OpenBabel11072412073D

 50 53  0  0  1  0  0  0  0  0999 V2000
  161.6930  208.6990  151.6050 C   0  0  0  0  0  0  0  0  0  0  0  0
  162.4890  209.0040  150.6800 O   0  0  0  0  0  0  0  0  0  0  0  0
  161.4070  207.3490  153.6330 N   0  0  0  0  0  0  0  0  0  0  0  0
  161.0020  206.2770  154.2420 C   0  0  0  0  0  0  0  0  0  0  0  0
  161.0980  206.2490  151.4140 C   0  0  1  0  0  3  0  0  0  0  0  0
  160.6600  206.3350  155.6210 N   0  0  0  0  0  1  0  0  0  0  0  0
  160.8890  205.0410  153.5290 N   0  0  0  0  0  0  0  0  0  0  0  0
  160.9660  204.9930  152.2340 C   0  0  0  0  0  3  0  0  0  0  0  0
  161.8220  207.3340  152.2290 C   0  0  1  0  0  3  0  0  0  0  0  0
  161.8950  205.9690  150.1360 C   0  0  0  0  0  2  0  0  0  0  0  0
  161.0940  205.3410  148.9850 C   0  0  2  0  0  3  0  0  0  0  0  0
  160.8300  201.7560  147.9710 C   0  0  0  0  0  0  0  0  0  0  0  0
  160.5510  201.8400  150.3630 C   0  0  0  0  0  3  0  0  0  0  0  0
  160.9210  203.8550  149.0870 C   0  0  0  0  0  0  0  0  0  0  0  0
  160.6940  203.2280  150.3190 C   0  0  0  0  0  3  0  0  0  0  0  0
  160.6250  201.0950  149.1850 C   0  0  0  0  0  3  0  0  0  0  0  0
  160.9820  203.1080  147.9510 N   0  0  0  0  0  0  0  0  0  0  0  0
  160.9240  200.9740  146.7070 C   0  0  0  0  0  2  0  0  0  0  0  0
  161.3350  198.9080  146.0490 C   0  0  0  0  0  1  0  0  0  0  0  0
  161.8300  199.9220  146.8650 O   0  0  0  0  0  0  0  0  0  0  0  0
  161.5440  205.8030  147.6030 C   0  0  0  0  0  2  0  0  0  0  0  0
  160.5210  206.7570  146.9990 C   0  0  0  0  0  2  0  0  0  0  0  0
  160.1940  206.3670  145.5660 C   0  0  0  0  0  2  0  0  0  0  0  0
  161.4580  205.9720  144.8230 C   0  0  0  0  0  2  0  0  0  0  0  0
  161.1810  204.9100  143.9620 O   0  0  0  0  0  0  0  0  0  0  0  0
  160.7130  203.8960  144.7970 C   0  0  0  0  0  1  0  0  0  0  0  0
  160.6880  209.6120  151.9490 O   0  0  0  0  0  0  0  0  0  0  0  0
  158.9420  211.8910  151.2560 C   0  0  0  0  0  2  0  0  0  0  0  0
  158.2230  212.1290  152.5210 N   0  0  0  0  0  0  0  0  0  0  0  0
  160.1780  211.1620  153.7590 C   0  0  2  0  0  3  0  0  0  0  0  0
  158.6600  211.1450  153.5280 C   0  0  0  0  0  2  0  0  0  0  0  0
  160.4620  211.9650  151.4280 C   0  0  0  0  0  2  0  0  0  0  0  0
  160.9320  210.9280  152.4460 C   0  0  2  0  0  3  0  0  0  0  0  0
  160.5480  210.1910  154.8420 C   0  0  0  0  0  0  0  0  0  0  0  0
  159.5760  209.5480  155.5990 O   0  0  0  0  0  1  0  0  0  0  0  0
  161.7630  209.9060  155.0250 O   0  0  0  0  0  0  0  0  0  0  0  0
  158.4200  213.5210  152.9780 C   0  0  2  0  0  3  0  0  0  0  0  0
  157.1480  213.3180  155.1240 C   0  0  0  0  0  3  0  0  0  0  0  0
  157.0500  213.4350  156.5150 C   0  0  0  0  0  3  0  0  0  0  0  0
  159.4450  214.0850  155.2250 C   0  0  0  0  0  3  0  0  0  0  0  0
  159.3450  214.2000  156.6150 C   0  0  0  0  0  3  0  0  0  0  0  0
  158.1470  213.8790  157.2600 C   0  0  0  0  0  3  0  0  0  0  0  0
  158.3400  213.6520  154.4730 C   0  0  0  0  0  0  0  0  0  0  0  0
  157.3840  214.4470  152.3410 C   0  0  0  0  0  2  0  0  0  0  0  0
  158.6070  214.4500  150.2860 O   0  0  0  0  0  0  0  0  0  0  0  0
  154.9730  214.3570  150.6670 C   0  0  0  0  0  1  0  0  0  0  0  0
  157.4730  214.4420  150.8400 C   0  0  0  0  0  0  0  0  0  0  0  0
  156.2880  214.3360  150.0370 N   0  0  0  0  0  0  0  0  0  0  0  0
  157.3410  212.6790  148.5430 C   0  0  0  0  0  1  0  0  0  0  0  0
  156.4070  213.8770  148.6560 C   0  0  0  0  0  2  0  0  0  0  0  0
  1 27  1  0  0  0  0
  2  1  2  0  0  0  0
  3  4  2  0  0  0  0
  4  6  1  0  0  0  0
  5 10  1  6  0  0  0
  5  9  1  0  0  0  0
  5  8  1  0  0  0  0
  7  4  1  0  0  0  0
  8  7  2  0  0  0  0
  9  1  1  6  0  0  0
  9  3  1  0  0  0  0
 11 21  1  6  0  0  0
 11 14  1  0  0  0  0
 11 10  1  0  0  0  0
 12 16  1  0  0  0  0
 14 15  2  0  0  0  0
 15 13  1  0  0  0  0
 16 13  2  0  0  0  0
 17 12  2  0  0  0  0
 17 14  1  0  0  0  0
 18 20  1  0  0  0  0
 18 12  1  0  0  0  0
 19 20  1  0  0  0  0
 22 21  1  0  0  0  0
 23 22  1  0  0  0  0
 24 23  1  0  0  0  0
 25 26  1  0  0  0  0
 25 24  1  0  0  0  0
 28 32  1  0  0  0  0
 28 29  1  0  0  0  0
 29 37  1  0  0  0  0
 29 31  1  0  0  0  0
 30 34  1  1  0  0  0
 31 30  1  0  0  0  0
 32 33  1  0  0  0  0
 33 27  1  6  0  0  0
 33 30  1  0  0  0  0
 34 36  2  0  0  0  0
 34 35  1  0  0  0  0
 37 44  1  6  0  0  0
 37 43  1  0  0  0  0
 38 39  1  0  0  0  0
 39 42  2  0  0  0  0
 40 41  2  0  0  0  0
 41 42  1  0  0  0  0
 43 38  2  0  0  0  0
 43 40  1  0  0  0  0
 45 47  2  0  0  0  0
 47 44  1  0  0  0  0
 48 46  1  0  0  0  0
 48 47  1  0  0  0  0
 49 50  1  0  0  0  0
 50 48  1  0  0  0  0
M  END
>  <MODEL>
3

>  <REMARK>
 VINA RESULT:      -5.8      2.326      9.830
  Name = 
  19 active torsions:
  status: ('A' for Active; 'I' for Inactive)
    1  A    between atoms: C_1  and  N_17
    2  A    between atoms: C_1  and  C_42
    3  A    between atoms: C_1  and  C_45
    4  A    between atoms: C_7  and  C_11
    5  A    between atoms: C_7  and  C_15
    6  A    between atoms: C_8  and  C_33
    7  A    between atoms: C_11  and  O_20
    8  A    between atoms: C_12  and  C_24
    9  A    between atoms: C_14  and  C_23
   10  A    between atoms: C_15  and  C_46
   11  A    between atoms: C_18  and  O_32
   12  A    between atoms: C_18  and  C_50
   13  A    between atoms: C_23  and  C_41
   14  A    between atoms: C_26  and  C_41
   15  A    between atoms: O_32  and  C_39
   16  A    between atoms: C_33  and  O_49
   17  A    between atoms: C_41  and  C_46
   18  A    between atoms: C_42  and  C_43
   19  A    between atoms: N_44  and  C_47
                            x       y       z     vdW  Elec       q    Type
                         _______ _______ _______ _____ _____    ______ ____

>  <TORSDO>
F 19

$$$$
=
 OpenBabel11072412073D

 50 53  0  0  1  0  0  0  0  0999 V2000
  161.1740  207.4460  152.8330 C   0  0  0  0  0  0  0  0  0  0  0  0
  161.3460  206.3820  153.4820 O   0  0  0  0  0  0  0  0  0  0  0  0
  160.4210  208.3660  154.9780 N   0  0  0  0  0  0  0  0  0  0  0  0
  160.4840  209.2510  155.9250 C   0  0  0  0  0  0  0  0  0  0  0  0
  161.8390  209.7920  153.4990 C   0  0  1  0  0  3  0  0  0  0  0  0
  160.0780  208.9060  157.2430 N   0  0  0  0  0  1  0  0  0  0  0  0
  160.9720  210.5690  155.6490 N   0  0  0  0  0  0  0  0  0  0  0  0
  161.5630  210.8550  154.5300 C   0  0  0  0  0  3  0  0  0  0  0  0
  160.7760  208.6830  153.5940 C   0  0  1  0  0  3  0  0  0  0  0  0
  161.8070  210.3950  152.0920 C   0  0  0  0  0  2  0  0  0  0  0  0
  160.5380  211.1870  151.7430 C   0  0  2  0  0  3  0  0  0  0  0  0
  159.6150  213.5630  149.0130 C   0  0  0  0  0  0  0  0  0  0  0  0
  161.8750  212.8390  148.5900 C   0  0  0  0  0  3  0  0  0  0  0  0
  160.6490  212.0250  150.5040 C   0  0  0  0  0  0  0  0  0  0  0  0
  161.8170  212.0340  149.7300 C   0  0  0  0  0  3  0  0  0  0  0  0
  160.7710  213.6140  148.2300 C   0  0  0  0  0  3  0  0  0  0  0  0
  159.5840  212.7830  150.1270 N   0  0  0  0  0  0  0  0  0  0  0  0
  158.4340  214.3930  148.6470 C   0  0  0  0  0  2  0  0  0  0  0  0
  156.2940  213.9820  148.9950 C   0  0  0  0  0  1  0  0  0  0  0  0
  157.4710  214.3210  149.6570 O   0  0  0  0  0  0  0  0  0  0  0  0
  159.9420  211.9400  152.9290 C   0  0  0  0  0  2  0  0  0  0  0  0
  158.4220  211.8410  152.9140 C   0  0  0  0  0  2  0  0  0  0  0  0
  157.8200  212.5480  154.1180 C   0  0  0  0  0  2  0  0  0  0  0  0
  157.1540  213.8440  153.6930 C   0  0  0  0  0  2  0  0  0  0  0  0
  155.9130  213.9580  154.3190 O   0  0  0  0  0  0  0  0  0  0  0  0
  155.0600  214.4300  153.3220 C   0  0  0  0  0  1  0  0  0  0  0  0
  161.2860  207.4020  151.4370 O   0  0  0  0  0  0  0  0  0  0  0  0
  160.4290  204.6590  150.7590 C   0  0  0  0  0  2  0  0  0  0  0  0
  160.2110  204.7520  149.3030 N   0  0  0  0  0  0  0  0  0  0  0  0
  161.8970  206.6070  149.2160 C   0  0  2  0  0  3  0  0  0  0  0  0
  160.4840  206.1280  148.8500 C   0  0  0  0  0  2  0  0  0  0  0  0
  161.8510  205.0640  151.1600 C   0  0  0  0  0  2  0  0  0  0  0  0
  162.1350  206.5010  150.7270 C   0  0  2  0  0  3  0  0  0  0  0  0
  162.1350  207.9840  148.6690 C   0  0  0  0  0  0  0  0  0  0  0  0
  161.3160  209.0510  149.0160 O   0  0  0  0  0  1  0  0  0  0  0  0
  163.1370  208.1880  147.9300 O   0  0  0  0  0  0  0  0  0  0  0  0
  161.0370  203.7540  148.5880 C   0  0  2  0  0  3  0  0  0  0  0  0
  160.6450  204.8500  146.3720 C   0  0  0  0  0  3  0  0  0  0  0  0
  161.0960  205.3330  145.1380 C   0  0  0  0  0  3  0  0  0  0  0  0
  162.9080  204.1900  146.9360 C   0  0  0  0  0  3  0  0  0  0  0  0
  163.3560  204.6740  145.7040 C   0  0  0  0  0  3  0  0  0  0  0  0
  162.4500  205.2420  144.8030 C   0  0  0  0  0  3  0  0  0  0  0  0
  161.5460  204.2690  147.2700 C   0  0  0  0  0  0  0  0  0  0  0  0
  160.2420  202.4710  148.3490 C   0  0  0  0  0  2  0  0  0  0  0  0
  161.8000  200.7290  148.8490 O   0  0  0  0  0  0  0  0  0  0  0  0
  160.4100  201.5430  145.5690 C   0  0  0  0  0  1  0  0  0  0  0  0
  161.1310  201.3240  147.9600 C   0  0  0  0  0  0  0  0  0  0  0  0
  161.1560  200.8430  146.6070 N   0  0  0  0  0  0  0  0  0  0  0  0
  160.7500  198.7590  145.3500 C   0  0  0  0  0  1  0  0  0  0  0  0
  161.6410  199.4910  146.3450 C   0  0  0  0  0  2  0  0  0  0  0  0
  1  2  2  0  0  0  0
  3  4  2  0  0  0  0
  4  6  1  0  0  0  0
  5 10  1  6  0  0  0
  5  9  1  0  0  0  0
  5  8  1  0  0  0  0
  7  4  1  0  0  0  0
  8  7  2  0  0  0  0
  9  1  1  1  0  0  0
  9  3  1  0  0  0  0
 11 10  1  1  0  0  0
 11 21  1  0  0  0  0
 12 17  1  0  0  0  0
 13 15  2  0  0  0  0
 14 11  1  0  0  0  0
 15 14  1  0  0  0  0
 16 13  1  0  0  0  0
 16 12  2  0  0  0  0
 17 14  2  0  0  0  0
 18 12  1  0  0  0  0
 18 20  1  0  0  0  0
 19 20  1  0  0  0  0
 22 21  1  0  0  0  0
 22 23  1  0  0  0  0
 24 23  1  0  0  0  0
 24 25  1  0  0  0  0
 26 25  1  0  0  0  0
 27  1  1  0  0  0  0
 28 32  1  0  0  0  0
 29 28  1  0  0  0  0
 30 34  1  1  0  0  0
 30 33  1  0  0  0  0
 31 30  1  0  0  0  0
 31 29  1  0  0  0  0
 33 32  1  0  0  0  0
 33 27  1  1  0  0  0
 34 35  1  0  0  0  0
 36 34  2  0  0  0  0
 37 44  1  6  0  0  0
 37 29  1  0  0  0  0
 38 43  1  0  0  0  0
 39 38  2  0  0  0  0
 40 43  2  0  0  0  0
 41 40  1  0  0  0  0
 42 39  1  0  0  0  0
 42 41  2  0  0  0  0
 43 37  1  0  0  0  0
 46 48  1  0  0  0  0
 47 44  1  0  0  0  0
 47 45  2  0  0  0  0
 48 47  1  0  0  0  0
 49 50  1  0  0  0  0
 50 48  1  0  0  0  0
M  END
>  <MODEL>
4

>  <REMARK>
 VINA RESULT:      -5.6      2.094      3.829
  Name = 
  19 active torsions:
  status: ('A' for Active; 'I' for Inactive)
    1  A    between atoms: C_1  and  N_17
    2  A    between atoms: C_1  and  C_42
    3  A    between atoms: C_1  and  C_45
    4  A    between atoms: C_7  and  C_11
    5  A    between atoms: C_7  and  C_15
    6  A    between atoms: C_8  and  C_33
    7  A    between atoms: C_11  and  O_20
    8  A    between atoms: C_12  and  C_24
    9  A    between atoms: C_14  and  C_23
   10  A    between atoms: C_15  and  C_46
   11  A    between atoms: C_18  and  O_32
   12  A    between atoms: C_18  and  C_50
   13  A    between atoms: C_23  and  C_41
   14  A    between atoms: C_26  and  C_41
   15  A    between atoms: O_32  and  C_39
   16  A    between atoms: C_33  and  O_49
   17  A    between atoms: C_41  and  C_46
   18  A    between atoms: C_42  and  C_43
   19  A    between atoms: N_44  and  C_47
                            x       y       z     vdW  Elec       q    Type
                         _______ _______ _______ _____ _____    ______ ____

>  <TORSDO>
F 19

$$$$
=
 OpenBabel11072412073D

 50 53  0  0  1  0  0  0  0  0999 V2000
  161.0590  207.2570  152.3560 C   0  0  0  0  0  0  0  0  0  0  0  0
  160.4300  208.0330  151.5910 O   0  0  0  0  0  0  0  0  0  0  0  0
  160.9740  204.8270  152.6750 N   0  0  0  0  0  0  0  0  0  0  0  0
  160.7950  203.6230  152.2250 C   0  0  0  0  0  0  0  0  0  0  0  0
  161.0650  205.7230  150.3470 C   0  0  1  0  0  3  0  0  0  0  0  0
  160.3650  202.5950  153.1090 N   0  0  0  0  0  1  0  0  0  0  0  0
  161.0170  203.3290  150.8410 N   0  0  0  0  0  0  0  0  0  0  0  0
  161.1810  204.2710  149.9640 C   0  0  0  0  0  3  0  0  0  0  0  0
  161.4650  205.9090  151.8210 C   0  0  1  0  0  3  0  0  0  0  0  0
  161.9810  206.5800  149.4680 C   0  0  0  0  0  2  0  0  0  0  0  0
  161.3030  207.2400  148.2580 C   0  0  2  0  0  3  0  0  0  0  0  0
  161.5050  204.2020  146.0940 C   0  0  0  0  0  0  0  0  0  0  0  0
  160.2810  205.8720  144.8610 C   0  0  0  0  0  3  0  0  0  0  0  0
  161.1180  206.3330  147.0780 C   0  0  0  0  0  0  0  0  0  0  0  0
  160.4360  206.7580  145.9300 C   0  0  0  0  0  3  0  0  0  0  0  0
  160.8120  204.5840  144.9430 C   0  0  0  0  0  3  0  0  0  0  0  0
  161.6340  205.0750  147.1300 N   0  0  0  0  0  0  0  0  0  0  0  0
  162.0660  202.8270  146.2010 C   0  0  0  0  0  2  0  0  0  0  0  0
  160.5040  201.8780  147.4380 C   0  0  0  0  0  1  0  0  0  0  0  0
  161.0330  201.8870  146.1500 O   0  0  0  0  0  0  0  0  0  0  0  0
  161.8950  208.5970  147.8900 C   0  0  0  0  0  2  0  0  0  0  0  0
  162.0970  209.4480  149.1380 C   0  0  0  0  0  2  0  0  0  0  0  0
  162.3250  210.9050  148.7710 C   0  0  0  0  0  2  0  0  0  0  0  0
  161.2200  211.3990  147.8530 C   0  0  0  0  0  2  0  0  0  0  0  0
  161.3520  212.7750  147.6620 O   0  0  0  0  0  0  0  0  0  0  0  0
  162.6280  213.0730  148.1400 C   0  0  0  0  0  1  0  0  0  0  0  0
  161.2780  207.6590  153.6800 O   0  0  0  0  0  0  0  0  0  0  0  0
  160.1240  210.1840  152.6770 C   0  0  0  0  0  2  0  0  0  0  0  0
  159.4430  210.7130  153.8730 N   0  0  0  0  0  0  0  0  0  0  0  0
  161.0860  209.4680  155.3010 C   0  0  2  0  0  3  0  0  0  0  0  0
  159.6130  209.7700  154.9930 C   0  0  0  0  0  2  0  0  0  0  0  0
  161.6150  209.9320  152.9210 C   0  0  0  0  0  2  0  0  0  0  0  0
  161.8050  208.9310  154.0580 C   0  0  2  0  0  3  0  0  0  0  0  0
  161.1930  208.5610  156.4920 C   0  0  0  0  0  0  0  0  0  0  0  0
  160.1010  207.8260  156.9390 O   0  0  0  0  0  0  0  0  0  0  0  0
  162.3110  208.4140  157.0570 O   0  0  0  0  0  1  0  0  0  0  0  0
  159.9410  212.0660  154.2010 C   0  0  2  0  0  3  0  0  0  0  0  0
  157.7980  212.3320  155.4680 C   0  0  0  0  0  3  0  0  0  0  0  0
  157.0170  212.9430  156.4540 C   0  0  0  0  0  3  0  0  0  0  0  0
  159.6700  213.7450  156.0790 C   0  0  0  0  0  3  0  0  0  0  0  0
  158.8880  214.3540  157.0650 C   0  0  0  0  0  3  0  0  0  0  0  0
  157.5600  213.9560  157.2500 C   0  0  0  0  0  3  0  0  0  0  0  0
  159.1230  212.7360  155.2700 C   0  0  0  0  0  0  0  0  0  0  0  0
  159.9540  212.9500  152.9550 C   0  0  0  0  0  2  0  0  0  0  0  0
  157.6360  212.3860  152.7960 O   0  0  0  0  0  0  0  0  0  0  0  0
  159.5950  214.2850  150.3640 C   0  0  0  0  0  1  0  0  0  0  0  0
  158.6260  212.9490  152.2520 C   0  0  0  0  0  0  0  0  0  0  0  0
  158.4510  213.6580  151.0150 N   0  0  0  0  0  0  0  0  0  0  0  0
  156.7600  213.4530  149.2310 C   0  0  0  0  0  1  0  0  0  0  0  0
  157.1020  214.0310  150.5970 C   0  0  0  0  0  2  0  0  0  0  0  0
  1 27  1  0  0  0  0
  2  1  2  0  0  0  0
  4  3  2  0  0  0  0
  4  6  1  0  0  0  0
  5 10  1  6  0  0  0
  5  9  1  0  0  0  0
  7  4  1  0  0  0  0
  8  5  1  0  0  0  0
  8  7  2  0  0  0  0
  9  1  1  1  0  0  0
  9  3  1  0  0  0  0
 11 21  1  6  0  0  0
 11 10  1  0  0  0  0
 12 18  1  0  0  0  0
 12 17  1  0  0  0  0
 13 16  1  0  0  0  0
 13 15  2  0  0  0  0
 14 17  2  0  0  0  0
 14 11  1  0  0  0  0
 15 14  1  0  0  0  0
 16 12  2  0  0  0  0
 20 18  1  0  0  0  0
 20 19  1  0  0  0  0
 21 22  1  0  0  0  0
 23 22  1  0  0  0  0
 24 23  1  0  0  0  0
 25 24  1  0  0  0  0
 25 26  1  0  0  0  0
 28 32  1  0  0  0  0
 28 29  1  0  0  0  0
 29 37  1  0  0  0  0
 29 31  1  0  0  0  0
 30 34  1  1  0  0  0
 31 30  1  0  0  0  0
 32 33  1  0  0  0  0
 33 27  1  6  0  0  0
 33 30  1  0  0  0  0
 34 35  2  0  0  0  0
 34 36  1  0  0  0  0
 37 44  1  6  0  0  0
 37 43  1  0  0  0  0
 38 39  1  0  0  0  0
 39 42  2  0  0  0  0
 40 41  2  0  0  0  0
 41 42  1  0  0  0  0
 43 38  2  0  0  0  0
 43 40  1  0  0  0  0
 46 48  1  0  0  0  0
 47 45  2  0  0  0  0
 47 44  1  0  0  0  0
 48 47  1  0  0  0  0
 49 50  1  0  0  0  0
 50 48  1  0  0  0  0
M  END
>  <MODEL>
5

>  <REMARK>
 VINA RESULT:      -4.7      2.012      8.995
  Name = 
  19 active torsions:
  status: ('A' for Active; 'I' for Inactive)
    1  A    between atoms: C_1  and  N_17
    2  A    between atoms: C_1  and  C_42
    3  A    between atoms: C_1  and  C_45
    4  A    between atoms: C_7  and  C_11
    5  A    between atoms: C_7  and  C_15
    6  A    between atoms: C_8  and  C_33
    7  A    between atoms: C_11  and  O_20
    8  A    between atoms: C_12  and  C_24
    9  A    between atoms: C_14  and  C_23
   10  A    between atoms: C_15  and  C_46
   11  A    between atoms: C_18  and  O_32
   12  A    between atoms: C_18  and  C_50
   13  A    between atoms: C_23  and  C_41
   14  A    between atoms: C_26  and  C_41
   15  A    between atoms: O_32  and  C_39
   16  A    between atoms: C_33  and  O_49
   17  A    between atoms: C_41  and  C_46
   18  A    between atoms: C_42  and  C_43
   19  A    between atoms: N_44  and  C_47
                            x       y       z     vdW  Elec       q    Type
                         _______ _______ _______ _____ _____    ______ ____

>  <TORSDO>
F 19

$$$$
=
 OpenBabel11072412073D

 50 53  0  0  1  0  0  0  0  0999 V2000
  161.6750  208.0120  152.6610 C   0  0  0  0  0  0  0  0  0  0  0  0
  162.8880  208.3430  152.6370 O   0  0  0  0  0  0  0  0  0  0  0  0
  160.2190  207.5060  154.5690 N   0  0  0  0  0  0  0  0  0  0  0  0
  159.8280  207.7060  155.7900 C   0  0  0  0  0  0  0  0  0  0  0  0
  161.5510  209.6160  154.6110 C   0  0  1  0  0  3  0  0  0  0  0  0
  159.2140  206.6490  156.5160 N   0  0  0  0  0  1  0  0  0  0  0  0
  160.0230  208.9810  156.4110 N   0  0  0  0  0  0  0  0  0  0  0  0
  160.7780  209.8900  155.8740 C   0  0  0  0  0  3  0  0  0  0  0  0
  160.8090  208.5730  153.7580 C   0  0  1  0  0  3  0  0  0  0  0  0
  161.7130  210.9030  153.7960 C   0  0  0  0  0  2  0  0  0  0  0  0
  160.4330  211.7330  153.6150 C   0  0  2  0  0  3  0  0  0  0  0  0
  157.8150  212.0550  156.2600 C   0  0  0  0  0  0  0  0  0  0  0  0
  159.7620  213.2440  157.0390 C   0  0  0  0  0  3  0  0  0  0  0  0
  159.7630  212.1300  154.8970 C   0  0  0  0  0  0  0  0  0  0  0  0
  160.4250  212.9090  155.8560 C   0  0  0  0  0  3  0  0  0  0  0  0
  158.4520  212.8110  157.2480 C   0  0  0  0  0  3  0  0  0  0  0  0
  158.4830  211.7270  155.1210 N   0  0  0  0  0  0  0  0  0  0  0  0
  156.4220  211.5750  156.4750 C   0  0  0  0  0  2  0  0  0  0  0  0
  154.8240  210.1910  155.8420 C   0  0  0  0  0  1  0  0  0  0  0  0
  156.1880  210.4330  155.7040 O   0  0  0  0  0  0  0  0  0  0  0  0
  159.4690  211.1530  152.5850 C   0  0  0  0  0  2  0  0  0  0  0  0
  158.2680  212.0720  152.4010 C   0  0  0  0  0  2  0  0  0  0  0  0
  158.4230  212.9260  151.1530 C   0  0  0  0  0  2  0  0  0  0  0  0
  159.7300  213.6970  151.1960 C   0  0  0  0  0  2  0  0  0  0  0  0
  160.4960  213.3800  150.0750 O   0  0  0  0  0  0  0  0  0  0  0  0
  159.6140  213.5010  149.0020 C   0  0  0  0  0  1  0  0  0  0  0  0
  161.2160  207.0860  151.7140 O   0  0  0  0  0  0  0  0  0  0  0  0
  160.4330  204.3500  150.9280 C   0  0  0  0  0  2  0  0  0  0  0  0
  160.1510  204.5080  149.4890 N   0  0  0  0  0  0  0  0  0  0  0  0
  161.7630  206.4280  149.4330 C   0  0  2  0  0  3  0  0  0  0  0  0
  160.3550  205.9140  149.0990 C   0  0  0  0  0  2  0  0  0  0  0  0
  161.8540  204.7890  151.2940 C   0  0  0  0  0  2  0  0  0  0  0  0
  162.0680  206.2560  150.9250 C   0  0  2  0  0  3  0  0  0  0  0  0
  161.9290  207.8390  148.9490 C   0  0  0  0  0  0  0  0  0  0  0  0
  161.2030  208.3210  147.8650 O   0  0  0  0  0  0  0  0  0  0  0  0
  162.6930  208.6210  149.5770 O   0  0  0  0  0  1  0  0  0  0  0  0
  160.9820  203.5810  148.6910 C   0  0  2  0  0  3  0  0  0  0  0  0
  162.8250  204.1470  147.0940 C   0  0  0  0  0  3  0  0  0  0  0  0
  163.2950  204.7180  145.9060 C   0  0  0  0  0  3  0  0  0  0  0  0
  160.5670  204.8100  146.5150 C   0  0  0  0  0  3  0  0  0  0  0  0
  161.0380  205.3800  145.3290 C   0  0  0  0  0  3  0  0  0  0  0  0
  162.4020  205.3380  145.0260 C   0  0  0  0  0  3  0  0  0  0  0  0
  161.4630  204.1990  147.4080 C   0  0  0  0  0  0  0  0  0  0  0  0
  160.2050  202.3050  148.3690 C   0  0  0  0  0  2  0  0  0  0  0  0
  161.7540  200.6150  149.0490 O   0  0  0  0  0  0  0  0  0  0  0  0
  160.5030  201.2000  145.6650 C   0  0  0  0  0  1  0  0  0  0  0  0
  161.1200  201.1440  148.0950 C   0  0  0  0  0  0  0  0  0  0  0  0
  161.2080  200.5770  146.7780 N   0  0  0  0  0  0  0  0  0  0  0  0
  161.1620  198.5490  145.3750 C   0  0  0  0  0  1  0  0  0  0  0  0
  161.7150  199.2160  146.6270 C   0  0  0  0  0  2  0  0  0  0  0  0
  2  1  2  0  0  0  0
  3  4  2  0  0  0  0
  4  7  1  0  0  0  0
  4  6  1  0  0  0  0
  5 10  1  6  0  0  0
  5  8  1  0  0  0  0
  8  7  2  0  0  0  0
  9  1  1  6  0  0  0
  9  3  1  0  0  0  0
  9  5  1  0  0  0  0
 11 21  1  6  0  0  0
 11 10  1  0  0  0  0
 11 14  1  0  0  0  0
 12 18  1  0  0  0  0
 12 16  1  0  0  0  0
 13 16  2  0  0  0  0
 14 17  1  0  0  0  0
 14 15  2  0  0  0  0
 15 13  1  0  0  0  0
 17 12  2  0  0  0  0
 20 19  1  0  0  0  0
 20 18  1  0  0  0  0
 22 21  1  0  0  0  0
 23 24  1  0  0  0  0
 23 22  1  0  0  0  0
 25 24  1  0  0  0  0
 26 25  1  0  0  0  0
 27  1  1  0  0  0  0
 28 32  1  0  0  0  0
 29 28  1  0  0  0  0
 30 34  1  1  0  0  0
 30 33  1  0  0  0  0
 31 30  1  0  0  0  0
 31 29  1  0  0  0  0
 33 32  1  0  0  0  0
 33 27  1  1  0  0  0
 34 36  1  0  0  0  0
 35 34  2  0  0  0  0
 37 44  1  6  0  0  0
 37 29  1  0  0  0  0
 38 43  1  0  0  0  0
 39 38  2  0  0  0  0
 40 43  2  0  0  0  0
 41 40  1  0  0  0  0
 42 41  2  0  0  0  0
 42 39  1  0  0  0  0
 43 37  1  0  0  0  0
 46 48  1  0  0  0  0
 47 44  1  0  0  0  0
 47 45  2  0  0  0  0
 48 47  1  0  0  0  0
 49 50  1  0  0  0  0
 50 48  1  0  0  0  0
M  END
>  <MODEL>
6

>  <REMARK>
 VINA RESULT:      -4.7      2.191      5.235
  Name = 
  19 active torsions:
  status: ('A' for Active; 'I' for Inactive)
    1  A    between atoms: C_1  and  N_17
    2  A    between atoms: C_1  and  C_42
    3  A    between atoms: C_1  and  C_45
    4  A    between atoms: C_7  and  C_11
    5  A    between atoms: C_7  and  C_15
    6  A    between atoms: C_8  and  C_33
    7  A    between atoms: C_11  and  O_20
    8  A    between atoms: C_12  and  C_24
    9  A    between atoms: C_14  and  C_23
   10  A    between atoms: C_15  and  C_46
   11  A    between atoms: C_18  and  O_32
   12  A    between atoms: C_18  and  C_50
   13  A    between atoms: C_23  and  C_41
   14  A    between atoms: C_26  and  C_41
   15  A    between atoms: O_32  and  C_39
   16  A    between atoms: C_33  and  O_49
   17  A    between atoms: C_41  and  C_46
   18  A    between atoms: C_42  and  C_43
   19  A    between atoms: N_44  and  C_47
                            x       y       z     vdW  Elec       q    Type
                         _______ _______ _______ _____ _____    ______ ____

>  <TORSDO>
F 19

$$$$
=
 OpenBabel11072412073D

 50 53  0  0  1  0  0  0  0  0999 V2000
  161.6400  211.1140  150.0820 C   0  0  0  0  0  0  0  0  0  0  0  0
  161.2690  211.2250  151.2790 O   0  0  0  0  0  0  0  0  0  0  0  0
  162.5690  212.1010  148.0380 N   0  0  0  0  0  0  0  0  0  0  0  0
  162.4830  212.8900  147.0120 C   0  0  0  0  0  0  0  0  0  0  0  0
  160.5540  213.1580  149.0650 C   0  0  1  0  0  3  0  0  0  0  0  0
  163.2330  212.6060  145.8380 N   0  0  0  0  0  1  0  0  0  0  0  0
  161.6290  214.0390  147.0530 N   0  0  0  0  0  0  0  0  0  0  0  0
  160.7610  214.2060  148.0030 C   0  0  0  0  0  3  0  0  0  0  0  0
  161.8600  212.3750  149.2890 C   0  0  1  0  0  3  0  0  0  0  0  0
  160.1320  213.8130  150.3840 C   0  0  0  0  0  2  0  0  0  0  0  0
  158.7700  213.3660  150.9350 C   0  0  2  0  0  3  0  0  0  0  0  0
  156.7230  213.9100  147.8570 C   0  0  0  0  0  0  0  0  0  0  0  0
  155.3220  214.4390  149.7450 C   0  0  0  0  0  3  0  0  0  0  0  0
  157.6020  213.7120  150.0590 C   0  0  0  0  0  0  0  0  0  0  0  0
  156.3830  214.1400  150.6020 C   0  0  0  0  0  3  0  0  0  0  0  0
  155.4870  214.3190  148.3650 C   0  0  0  0  0  3  0  0  0  0  0  0
  157.7410  213.6100  148.7090 N   0  0  0  0  0  0  0  0  0  0  0  0
  156.9110  213.7640  146.3870 C   0  0  0  0  0  2  0  0  0  0  0  0
  158.3280  213.7960  144.6960 C   0  0  0  0  0  1  0  0  0  0  0  0
  158.2740  213.7090  146.0840 O   0  0  0  0  0  0  0  0  0  0  0  0
  158.5530  213.7280  152.4000 C   0  0  0  0  0  2  0  0  0  0  0  0
  159.3410  212.7890  153.3050 C   0  0  0  0  0  2  0  0  0  0  0  0
  158.5440  211.5310  153.6090 C   0  0  0  0  0  2  0  0  0  0  0  0
  157.6270  211.7580  154.7980 C   0  0  0  0  0  2  0  0  0  0  0  0
  157.0500  210.5480  155.1790 O   0  0  0  0  0  0  0  0  0  0  0  0
  155.7310  210.8730  155.4940 C   0  0  0  0  0  1  0  0  0  0  0  0
  161.7530  209.8300  149.5350 O   0  0  0  0  0  0  0  0  0  0  0  0
  160.7500  208.2130  151.7930 C   0  0  0  0  0  2  0  0  0  0  0  0
  160.4590  206.9210  151.1460 N   0  0  0  0  0  0  0  0  0  0  0  0
  162.2120  207.4380  149.4290 C   0  0  2  0  0  3  0  0  0  0  0  0
  160.7640  207.0100  149.7070 C   0  0  0  0  0  2  0  0  0  0  0  0
  162.2060  208.6460  151.5970 C   0  0  0  0  0  2  0  0  0  0  0  0
  162.5260  208.7760  150.1100 C   0  0  2  0  0  3  0  0  0  0  0  0
  162.4780  207.4430  147.9520 C   0  0  0  0  0  0  0  0  0  0  0  0
  162.2510  206.3140  147.1750 O   0  0  0  0  0  0  0  0  0  0  0  0
  162.8530  208.5110  147.3970 O   0  0  0  0  0  1  0  0  0  0  0  0
  161.2040  205.8280  151.8080 C   0  0  2  0  0  3  0  0  0  0  0  0
  161.0180  203.3310  151.8240 C   0  0  0  0  0  3  0  0  0  0  0  0
  160.8920  202.1000  151.1720 C   0  0  0  0  0  3  0  0  0  0  0  0
  160.9650  204.4670  149.6840 C   0  0  0  0  0  3  0  0  0  0  0  0
  160.8380  203.2360  149.0340 C   0  0  0  0  0  3  0  0  0  0  0  0
  160.8060  202.0520  149.7770 C   0  0  0  0  0  3  0  0  0  0  0  0
  161.0650  204.5170  151.0840 C   0  0  0  0  0  0  0  0  0  0  0  0
  160.7320  205.6530  153.2510 C   0  0  0  0  0  2  0  0  0  0  0  0
  162.8720  206.2010  154.1640 O   0  0  0  0  0  0  0  0  0  0  0  0
  159.6340  207.4930  155.2580 C   0  0  0  0  0  1  0  0  0  0  0  0
  161.6230  206.3710  154.2250 C   0  0  0  0  0  0  0  0  0  0  0  0
  161.0770  207.3140  155.1600 N   0  0  0  0  0  0  0  0  0  0  0  0
  161.3440  208.9310  157.0040 C   0  0  0  0  0  1  0  0  0  0  0  0
  161.9600  208.3120  155.7560 C   0  0  0  0  0  2  0  0  0  0  0  0
  1  2  2  0  0  0  0
  3  9  1  0  0  0  0
  4  7  1  0  0  0  0
  4  3  2  0  0  0  0
  5  9  1  0  0  0  0
  5 10  1  1  0  0  0
  6  4  1  0  0  0  0
  7  8  2  0  0  0  0
  8  5  1  0  0  0  0
  9  1  1  6  0  0  0
 11 10  1  6  0  0  0
 11 21  1  0  0  0  0
 12 16  2  0  0  0  0
 12 17  1  0  0  0  0
 13 15  2  0  0  0  0
 14 15  1  0  0  0  0
 14 11  1  0  0  0  0
 16 13  1  0  0  0  0
 17 14  2  0  0  0  0
 18 12  1  0  0  0  0
 19 20  1  0  0  0  0
 20 18  1  0  0  0  0
 21 22  1  0  0  0  0
 22 23  1  0  0  0  0
 23 24  1  0  0  0  0
 24 25  1  0  0  0  0
 25 26  1  0  0  0  0
 27  1  1  0  0  0  0
 29 28  1  0  0  0  0
 29 37  1  0  0  0  0
 30 34  1  6  0  0  0
 30 31  1  0  0  0  0
 30 33  1  0  0  0  0
 31 29  1  0  0  0  0
 32 28  1  0  0  0  0
 33 27  1  6  0  0  0
 33 32  1  0  0  0  0
 35 34  2  0  0  0  0
 36 34  1  0  0  0  0
 37 44  1  1  0  0  0
 39 38  1  0  0  0  0
 40 43  1  0  0  0  0
 41 40  2  0  0  0  0
 41 42  1  0  0  0  0
 42 39  2  0  0  0  0
 43 37  1  0  0  0  0
 43 38  2  0  0  0  0
 44 47  1  0  0  0  0
 45 47  2  0  0  0  0
 47 48  1  0  0  0  0
 48 46  1  0  0  0  0
 48 50  1  0  0  0  0
 50 49  1  0  0  0  0
M  END
>  <MODEL>
7

>  <REMARK>
 VINA RESULT:      -4.7      2.338      5.523
  Name = 
  19 active torsions:
  status: ('A' for Active; 'I' for Inactive)
    1  A    between atoms: C_1  and  N_17
    2  A    between atoms: C_1  and  C_42
    3  A    between atoms: C_1  and  C_45
    4  A    between atoms: C_7  and  C_11
    5  A    between atoms: C_7  and  C_15
    6  A    between atoms: C_8  and  C_33
    7  A    between atoms: C_11  and  O_20
    8  A    between atoms: C_12  and  C_24
    9  A    between atoms: C_14  and  C_23
   10  A    between atoms: C_15  and  C_46
   11  A    between atoms: C_18  and  O_32
   12  A    between atoms: C_18  and  C_50
   13  A    between atoms: C_23  and  C_41
   14  A    between atoms: C_26  and  C_41
   15  A    between atoms: O_32  and  C_39
   16  A    between atoms: C_33  and  O_49
   17  A    between atoms: C_41  and  C_46
   18  A    between atoms: C_42  and  C_43
   19  A    between atoms: N_44  and  C_47
                            x       y       z     vdW  Elec       q    Type
                         _______ _______ _______ _____ _____    ______ ____

>  <TORSDO>
F 19

$$$$
=
 OpenBabel11072412073D

 50 53  0  0  1  0  0  0  0  0999 V2000
  162.5610  210.9660  148.7980 C   0  0  0  0  0  0  0  0  0  0  0  0
  163.6910  211.1700  148.2830 O   0  0  0  0  0  0  0  0  0  0  0  0
  160.7680  212.2440  149.8790 N   0  0  0  0  0  0  0  0  0  0  0  0
  160.1550  213.3590  150.1320 C   0  0  0  0  0  0  0  0  0  0  0  0
  162.0800  213.3350  148.0570 C   0  0  1  0  0  3  0  0  0  0  0  0
  159.4090  213.4980  151.3340 N   0  0  0  0  0  1  0  0  0  0  0  0
  160.2350  214.4510  149.2110 N   0  0  0  0  0  0  0  0  0  0  0  0
  161.0830  214.4510  148.2270 C   0  0  0  0  0  3  0  0  0  0  0  0
  161.5070  212.0290  148.6340 C   0  0  1  0  0  3  0  0  0  0  0  0
  162.3990  213.1280  146.5730 C   0  0  0  0  0  2  0  0  0  0  0  0
  161.2140  213.3100  145.6140 C   0  0  2  0  0  3  0  0  0  0  0  0
  160.9000  213.7550  141.9180 C   0  0  0  0  0  0  0  0  0  0  0  0
  163.2520  213.8030  142.4420 C   0  0  0  0  0  3  0  0  0  0  0  0
  161.6010  213.5070  144.1780 C   0  0  0  0  0  0  0  0  0  0  0  0
  162.9430  213.6090  143.7900 C   0  0  0  0  0  3  0  0  0  0  0  0
  162.2270  213.8830  141.4990 C   0  0  0  0  0  3  0  0  0  0  0  0
  160.6190  213.5800  143.2380 N   0  0  0  0  0  0  0  0  0  0  0  0
  159.7950  213.8510  140.9250 C   0  0  0  0  0  2  0  0  0  0  0  0
  157.6140  213.8450  140.5860 C   0  0  0  0  0  1  0  0  0  0  0  0
  158.5820  213.5040  141.5260 O   0  0  0  0  0  0  0  0  0  0  0  0
  160.1790  214.3180  146.1040 C   0  0  0  0  0  2  0  0  0  0  0  0
  158.7890  213.9420  145.6040 C   0  0  0  0  0  2  0  0  0  0  0  0
  158.3570  212.5950  146.1630 C   0  0  0  0  0  2  0  0  0  0  0  0
  157.3310  212.7840  147.2670 C   0  0  0  0  0  2  0  0  0  0  0  0
  157.4870  214.0470  147.8380 O   0  0  0  0  0  0  0  0  0  0  0  0
  156.5500  214.0840  148.8690 C   0  0  0  0  0  1  0  0  0  0  0  0
  162.3720  209.8030  149.5550 O   0  0  0  0  0  0  0  0  0  0  0  0
  162.5910  207.2580  148.0740 C   0  0  0  0  0  2  0  0  0  0  0  0
  162.5510  206.2610  149.1600 N   0  0  0  0  0  0  0  0  0  0  0  0
  161.2330  207.8870  150.5410 C   0  0  2  0  0  3  0  0  0  0  0  0
  162.4470  206.9500  150.4580 C   0  0  0  0  0  2  0  0  0  0  0  0
  161.3630  208.1720  148.0780 C   0  0  0  0  0  2  0  0  0  0  0  0
  161.2610  208.9190  149.4070 C   0  0  2  0  0  3  0  0  0  0  0  0
  161.1440  208.5030  151.9060 C   0  0  0  0  0  0  0  0  0  0  0  0
  161.4540  209.8420  152.1160 O   0  0  0  0  0  0  0  0  0  0  0  0
  160.7190  207.8090  152.8690 O   0  0  0  0  0  1  0  0  0  0  0  0
  161.4450  205.3030  148.9450 C   0  0  2  0  0  3  0  0  0  0  0  0
  160.9980  204.9750  151.3870 C   0  0  0  0  0  3  0  0  0  0  0  0
  160.7950  204.1580  152.5050 C   0  0  0  0  0  3  0  0  0  0  0  0
  161.2310  203.0060  149.9940 C   0  0  0  0  0  3  0  0  0  0  0  0
  161.0270  202.1910  151.1110 C   0  0  0  0  0  3  0  0  0  0  0  0
  160.8120  202.7670  152.3680 C   0  0  0  0  0  3  0  0  0  0  0  0
  161.2260  204.4040  150.1310 C   0  0  0  0  0  0  0  0  0  0  0  0
  161.7110  204.4430  147.7100 C   0  0  0  0  0  2  0  0  0  0  0  0
  160.3390  206.0060  146.5310 O   0  0  0  0  0  0  0  0  0  0  0  0
  161.2680  202.6470  145.4300 C   0  0  0  0  0  1  0  0  0  0  0  0
  160.8570  204.8550  146.5450 C   0  0  0  0  0  0  0  0  0  0  0  0
  160.6990  203.9900  145.4090 N   0  0  0  0  0  0  0  0  0  0  0  0
  161.3010  205.5470  143.5940 C   0  0  0  0  0  1  0  0  0  0  0  0
  160.2740  204.5630  144.1360 C   0  0  0  0  0  2  0  0  0  0  0  0
  1 27  1  0  0  0  0
  2  1  2  0  0  0  0
  3  4  2  0  0  0  0
  4  6  1  0  0  0  0
  5 10  1  6  0  0  0
  5  8  1  0  0  0  0
  5  9  1  0  0  0  0
  7  4  1  0  0  0  0
  8  7  2  0  0  0  0
  9  1  1  1  0  0  0
  9  3  1  0  0  0  0
 11 21  1  1  0  0  0
 11 10  1  0  0  0  0
 12 17  1  0  0  0  0
 13 15  2  0  0  0  0
 14 11  1  0  0  0  0
 15 14  1  0  0  0  0
 16 12  2  0  0  0  0
 16 13  1  0  0  0  0
 17 14  2  0  0  0  0
 18 20  1  0  0  0  0
 18 12  1  0  0  0  0
 19 20  1  0  0  0  0
 22 21  1  0  0  0  0
 22 23  1  0  0  0  0
 23 24  1  0  0  0  0
 24 25  1  0  0  0  0
 25 26  1  0  0  0  0
 28 32  1  0  0  0  0
 28 29  1  0  0  0  0
 29 31  1  0  0  0  0
 30 34  1  1  0  0  0
 31 30  1  0  0  0  0
 32 33  1  0  0  0  0
 33 27  1  1  0  0  0
 33 30  1  0  0  0  0
 34 35  2  0  0  0  0
 34 36  1  0  0  0  0
 37 44  1  6  0  0  0
 37 29  1  0  0  0  0
 37 43  1  0  0  0  0
 38 39  1  0  0  0  0
 40 43  1  0  0  0  0
 40 41  2  0  0  0  0
 41 42  1  0  0  0  0
 42 39  2  0  0  0  0
 43 38  2  0  0  0  0
 45 47  2  0  0  0  0
 47 44  1  0  0  0  0
 48 46  1  0  0  0  0
 48 47  1  0  0  0  0
 49 50  1  0  0  0  0
 50 48  1  0  0  0  0
M  END
>  <MODEL>
8

>  <REMARK>
 VINA RESULT:      -4.5      3.260      5.612
  Name = 
  19 active torsions:
  status: ('A' for Active; 'I' for Inactive)
    1  A    between atoms: C_1  and  N_17
    2  A    between atoms: C_1  and  C_42
    3  A    between atoms: C_1  and  C_45
    4  A    between atoms: C_7  and  C_11
    5  A    between atoms: C_7  and  C_15
    6  A    between atoms: C_8  and  C_33
    7  A    between atoms: C_11  and  O_20
    8  A    between atoms: C_12  and  C_24
    9  A    between atoms: C_14  and  C_23
   10  A    between atoms: C_15  and  C_46
   11  A    between atoms: C_18  and  O_32
   12  A    between atoms: C_18  and  C_50
   13  A    between atoms: C_23  and  C_41
   14  A    between atoms: C_26  and  C_41
   15  A    between atoms: O_32  and  C_39
   16  A    between atoms: C_33  and  O_49
   17  A    between atoms: C_41  and  C_46
   18  A    between atoms: C_42  and  C_43
   19  A    between atoms: N_44  and  C_47
                            x       y       z     vdW  Elec       q    Type
                         _______ _______ _______ _____ _____    ______ ____

>  <TORSDO>
F 19

$$$$
=
 OpenBabel11072412073D

 50 53  0  0  1  0  0  0  0  0999 V2000
  161.6340  208.6680  152.2460 C   0  0  0  0  0  0  0  0  0  0  0  0
  162.5130  208.8220  151.3590 O   0  0  0  0  0  0  0  0  0  0  0  0
  161.0440  207.6550  154.4000 N   0  0  0  0  0  0  0  0  0  0  0  0
  160.5870  206.6690  155.1100 C   0  0  0  0  0  0  0  0  0  0  0  0
  161.2090  206.1800  152.3930 C   0  0  1  0  0  3  0  0  0  0  0  0
  159.9910  206.9270  156.3750 N   0  0  0  0  0  1  0  0  0  0  0  0
  160.6710  205.3270  154.6200 N   0  0  0  0  0  0  0  0  0  0  0  0
  160.9910  205.0710  153.3890 C   0  0  0  0  0  3  0  0  0  0  0  0
  161.7130  207.4410  153.1160 C   0  0  1  0  0  3  0  0  0  0  0  0
  162.2430  205.7580  151.3450 C   0  0  0  0  0  2  0  0  0  0  0  0
  161.6720  205.0720  150.0950 C   0  0  2  0  0  3  0  0  0  0  0  0
  161.1150  206.2000  146.5780 C   0  0  0  0  0  0  0  0  0  0  0  0
  161.3110  208.1810  147.9360 C   0  0  0  0  0  3  0  0  0  0  0  0
  161.4820  205.9820  148.9180 C   0  0  0  0  0  0  0  0  0  0  0  0
  161.5040  207.3760  149.0610 C   0  0  0  0  0  3  0  0  0  0  0  0
  161.1090  207.5930  146.6870 C   0  0  0  0  0  3  0  0  0  0  0  0
  161.2910  205.4330  147.6880 N   0  0  0  0  0  0  0  0  0  0  0  0
  160.8880  205.5580  145.2540 C   0  0  0  0  0  2  0  0  0  0  0  0
  161.7660  203.5340  145.2180 C   0  0  0  0  0  1  0  0  0  0  0  0
  162.0300  204.8540  144.8640 O   0  0  0  0  0  0  0  0  0  0  0  0
  160.4590  204.1930  150.3800 C   0  0  0  0  0  2  0  0  0  0  0  0
  160.8650  202.9690  151.1920 C   0  0  0  0  0  2  0  0  0  0  0  0
  161.1080  201.7720  150.2870 C   0  0  0  0  0  2  0  0  0  0  0  0
  159.9960  201.6490  149.2600 C   0  0  0  0  0  2  0  0  0  0  0  0
  160.3500  200.7000  148.3020 O   0  0  0  0  0  0  0  0  0  0  0  0
  161.5770  201.1420  147.8080 C   0  0  0  0  0  1  0  0  0  0  0  0
  160.5930  209.6020  152.3230 O   0  0  0  0  0  0  0  0  0  0  0  0
  159.0130  211.8030  151.1490 C   0  0  0  0  0  2  0  0  0  0  0  0
  158.0860  212.1400  152.2450 N   0  0  0  0  0  0  0  0  0  0  0  0
  159.7870  211.2940  153.8810 C   0  0  2  0  0  3  0  0  0  0  0  0
  158.3330  211.2480  153.3920 C   0  0  0  0  0  2  0  0  0  0  0  0
  160.4800  211.9020  151.5770 C   0  0  0  0  0  2  0  0  0  0  0  0
  160.7580  210.9560  152.7440 C   0  0  2  0  0  3  0  0  0  0  0  0
  159.9560  210.4190  155.0890 C   0  0  0  0  0  0  0  0  0  0  0  0
  161.2180  210.0720  155.5580 O   0  0  0  0  0  0  0  0  0  0  0  0
  158.9350  210.0460  155.7280 O   0  0  0  0  0  1  0  0  0  0  0  0
  158.2110  213.5680  152.6110 C   0  0  2  0  0  3  0  0  0  0  0  0
  156.2260  213.8270  154.1140 C   0  0  0  0  0  3  0  0  0  0  0  0
  155.6480  214.1080  155.3570 C   0  0  0  0  0  3  0  0  0  0  0  0
  158.4290  214.1750  155.0620 C   0  0  0  0  0  3  0  0  0  0  0  0
  157.8500  214.4530  156.3030 C   0  0  0  0  0  3  0  0  0  0  0  0
  156.4600  214.4240  156.4510 C   0  0  0  0  0  3  0  0  0  0  0  0
  157.6150  213.8700  153.9590 C   0  0  0  0  0  0  0  0  0  0  0  0
  157.5420  214.4530  151.5610 C   0  0  0  0  0  2  0  0  0  0  0  0
  159.5010  214.4360  150.1910 O   0  0  0  0  0  0  0  0  0  0  0  0
  156.0420  214.1010  149.0610 C   0  0  0  0  0  1  0  0  0  0  0  0
  158.2410  214.3750  150.2330 C   0  0  0  0  0  0  0  0  0  0  0  0
  157.4990  214.1420  149.0260 N   0  0  0  0  0  0  0  0  0  0  0  0
  157.3030  212.7030  147.0320 C   0  0  0  0  0  1  0  0  0  0  0  0
  158.1970  213.6210  147.8540 C   0  0  0  0  0  2  0  0  0  0  0  0
  1 27  1  0  0  0  0
  2  1  2  0  0  0  0
  3  4  2  0  0  0  0
  4  6  1  0  0  0  0
  5 10  1  6  0  0  0
  5  9  1  0  0  0  0
  5  8  1  0  0  0  0
  7  4  1  0  0  0  0
  8  7  2  0  0  0  0
  9  1  1  6  0  0  0
  9  3  1  0  0  0  0
 11 21  1  1  0  0  0
 11 10  1  0  0  0  0
 12 16  2  0  0  0  0
 12 17  1  0  0  0  0
 13 15  2  0  0  0  0
 14 15  1  0  0  0  0
 14 11  1  0  0  0  0
 16 13  1  0  0  0  0
 17 14  2  0  0  0  0
 18 12  1  0  0  0  0
 20 19  1  0  0  0  0
 20 18  1  0  0  0  0
 21 22  1  0  0  0  0
 23 22  1  0  0  0  0
 24 23  1  0  0  0  0
 25 24  1  0  0  0  0
 26 25  1  0  0  0  0
 28 32  1  0  0  0  0
 28 29  1  0  0  0  0
 29 37  1  0  0  0  0
 29 31  1  0  0  0  0
 30 34  1  1  0  0  0
 31 30  1  0  0  0  0
 32 33  1  0  0  0  0
 33 27  1  6  0  0  0
 33 30  1  0  0  0  0
 34 35  2  0  0  0  0
 34 36  1  0  0  0  0
 37 44  1  6  0  0  0
 37 43  1  0  0  0  0
 38 39  1  0  0  0  0
 39 42  2  0  0  0  0
 40 41  2  0  0  0  0
 41 42  1  0  0  0  0
 43 38  2  0  0  0  0
 43 40  1  0  0  0  0
 45 47  2  0  0  0  0
 47 44  1  0  0  0  0
 48 46  1  0  0  0  0
 48 47  1  0  0  0  0
 49 50  1  0  0  0  0
 50 48  1  0  0  0  0
M  END
>  <MODEL>
9

>  <REMARK>
 VINA RESULT:      -4.4      2.172      9.035
  Name = 
  19 active torsions:
  status: ('A' for Active; 'I' for Inactive)
    1  A    between atoms: C_1  and  N_17
    2  A    between atoms: C_1  and  C_42
    3  A    between atoms: C_1  and  C_45
    4  A    between atoms: C_7  and  C_11
    5  A    between atoms: C_7  and  C_15
    6  A    between atoms: C_8  and  C_33
    7  A    between atoms: C_11  and  O_20
    8  A    between atoms: C_12  and  C_24
    9  A    between atoms: C_14  and  C_23
   10  A    between atoms: C_15  and  C_46
   11  A    between atoms: C_18  and  O_32
   12  A    between atoms: C_18  and  C_50
   13  A    between atoms: C_23  and  C_41
   14  A    between atoms: C_26  and  C_41
   15  A    between atoms: O_32  and  C_39
   16  A    between atoms: C_33  and  O_49
   17  A    between atoms: C_41  and  C_46
   18  A    between atoms: C_42  and  C_43
   19  A    between atoms: N_44  and  C_47
                            x       y       z     vdW  Elec       q    Type
                         _______ _______ _______ _____ _____    ______ ____

>  <TORSDO>
F 19

$$$$
