=
 OpenBabel11072414003D

 29 35  0  0  1  0  0  0  0  0999 V2000
  161.1110  207.9780  153.1730 N   0  0  0  0  0  0  0  0  0  0  0  0
  160.8240  206.4400  149.9350 C   0  0  1  0  0  0  0  0  0  0  0  0
  160.6760  205.3000  150.9480 C   0  0  0  0  0  2  0  0  0  0  0  0
  160.9610  209.7130  154.9630 C   0  0  2  0  0  3  0  0  0  0  0  0
  160.7750  205.7530  153.4630 N   0  0  0  0  0  0  0  0  0  0  0  0
  163.1740  207.8150  149.4870 O   0  0  0  0  0  0  0  0  0  0  0  0
  160.2380  206.3510  148.5480 C   0  0  0  0  0  2  0  0  0  0  0  0
  161.0170  207.8180  150.6180 C   0  0  1  0  0  3  0  0  0  0  0  0
  161.7250  206.0640  148.7630 C   0  0  1  0  0  3  0  0  0  0  0  0
  160.8790  206.9750  154.0490 C   0  0  0  0  0  0  0  0  0  0  0  0
  161.2700  207.3540  151.9990 C   0  0  0  0  0  0  0  0  0  0  0  0
  161.0960  206.1850  156.2640 O   0  0  0  0  0  1  0  0  0  0  0  0
  161.3510  208.5340  155.8760 C   0  0  1  0  0  3  0  0  0  0  0  0
  161.0490  208.8660  157.2600 N   0  0  0  0  0  1  0  0  0  0  0  0
  161.0650  206.0320  152.1770 C   0  0  0  0  0  0  0  0  0  0  0  0
  162.5810  207.2550  148.3470 C   0  0  0  0  0  2  0  0  0  0  0  0
  160.9770  209.4110  153.4490 C   0  0  2  0  0  3  0  0  0  0  0  0
  160.6190  207.2460  155.4910 C   0  0  1  0  0  3  0  0  0  0  0  0
  162.1880  208.6370  150.0530 C   0  0  0  0  0  2  0  0  0  0  0  0
  162.0290  211.1470  155.2930 S   0  0  0  0  0  0  0  0  0  0  0  0
  160.8350  211.8570  156.4590 C   0  0  0  0  0  1  0  0  0  0  0  0
  159.7340  209.9090  152.8700 N   0  0  0  0  0  2  0  0  0  0  0  0
  159.3010  212.5120  152.7350 S   0  0  0  0  0  0  0  0  0  0  0  0
  156.9990  212.5450  153.8120 C   0  0  0  0  0  1  0  0  0  0  0  0
  159.7610  213.6580  153.5940 O   0  0  0  0  0  0  0  0  0  0  0  0
  157.8800  211.4940  153.1700 C   0  0  2  0  0  0  0  0  0  0  0  0
  160.0190  212.3180  151.4290 O   0  0  0  0  0  0  0  0  0  0  0  0
  159.2510  211.0110  153.6920 C   0  0  1  0  0  0  0  0  0  0  0  0
  158.0030  210.5990  154.3690 C   0  0  0  0  0  2  0  0  0  0  0  0
  1 17  1  0  0  0  0
  1 10  1  0  0  0  0
  2  7  1  6  0  0  0
  2  8  1  0  0  0  0
  2  3  1  0  0  0  0
  3 15  1  0  0  0  0
  4 20  1  6  0  0  0
  4 13  1  0  0  0  0
  5 10  2  0  0  0  0
  6 19  1  0  0  0  0
  7  9  1  0  0  0  0
  8 19  1  6  0  0  0
  8 11  1  0  0  0  0
  9 16  1  6  0  0  0
  9  2  1  0  0  0  0
 10 18  1  0  0  0  0
 11 15  2  0  0  0  0
 11  1  1  0  0  0  0
 13 14  1  1  0  0  0
 15  5  1  0  0  0  0
 16  6  1  0  0  0  0
 17 22  1  1  0  0  0
 17  4  1  0  0  0  0
 18 13  1  0  0  0  0
 18 12  1  1  0  0  0
 20 21  1  0  0  0  0
 23 26  1  0  0  0  0
 23 25  2  0  0  0  0
 23 28  1  0  0  0  0
 26 28  1  0  0  0  0
 26 24  1  1  0  0  0
 26 29  1  0  0  0  0
 27 23  2  0  0  0  0
 28 22  1  6  0  0  0
 28 29  1  0  0  0  0
M  END
>  <MODEL>
1

>  <REMARK>
 VINA RESULT:      -4.8      0.000      0.000
  Name = 
  3 active torsions:
  status: ('A' for Active; 'I' for Inactive)
    1  A    between atoms: C_6  and  S_24
    2  A    between atoms: N_13  and  C_22
    3  A    between atoms: N_13  and  C_25
                            x       y       z     vdW  Elec       q    Type
                         _______ _______ _______ _____ _____    ______ ____

>  <TORSDO>
F 3

$$$$
=
 OpenBabel11072414003D

 29 35  0  0  1  0  0  0  0  0999 V2000
  160.9730  207.0200  152.0040 N   0  0  0  0  0  0  0  0  0  0  0  0
  161.0870  209.3030  154.7830 C   0  0  1  0  0  0  0  0  0  0  0  0
  161.4250  207.9260  155.3640 C   0  0  0  0  0  2  0  0  0  0  0  0
  161.1410  206.1740  149.6610 C   0  0  2  0  0  3  0  0  0  0  0  0
  161.5220  205.8520  153.8710 N   0  0  0  0  0  0  0  0  0  0  0  0
  158.5970  210.0070  153.8240 O   0  0  0  0  0  0  0  0  0  0  0  0
  161.5480  210.5790  155.4420 C   0  0  0  0  0  2  0  0  0  0  0  0
  160.8420  209.2550  153.2530 C   0  0  1  0  0  3  0  0  0  0  0  0
  160.1170  210.0840  155.6610 C   0  0  1  0  0  3  0  0  0  0  0  0
  161.3700  205.8360  152.5200 C   0  0  0  0  0  0  0  0  0  0  0  0
  160.7590  207.7880  153.0810 C   0  0  0  0  0  0  0  0  0  0  0  0
  161.4280  203.4880  152.2790 O   0  0  0  0  0  1  0  0  0  0  0  0
  160.9390  204.8060  150.3410 C   0  0  1  0  0  3  0  0  0  0  0  0
  161.3390  203.7430  149.4320 N   0  0  0  0  0  1  0  0  0  0  0  0
  161.0910  207.0890  154.1860 C   0  0  0  0  0  0  0  0  0  0  0  0
  159.1270  210.8610  154.8000 C   0  0  0  0  0  2  0  0  0  0  0  0
  161.0100  207.4000  150.5900 C   0  0  2  0  0  3  0  0  0  0  0  0
  161.7390  204.6900  151.6410 C   0  0  1  0  0  3  0  0  0  0  0  0
  159.5580  209.9680  152.8030 C   0  0  0  0  0  2  0  0  0  0  0  0
  159.9900  206.3600  148.2660 S   0  0  0  0  0  0  0  0  0  0  0  0
  161.3290  206.2180  147.0510 C   0  0  0  0  0  1  0  0  0  0  0  0
  162.1470  208.2820  150.3460 N   0  0  0  0  0  2  0  0  0  0  0  0
  162.2810  210.9020  150.6590 S   0  0  0  0  0  0  0  0  0  0  0  0
  162.7080  211.5270  148.2330 C   0  0  0  0  0  1  0  0  0  0  0  0
  161.2200  211.9590  150.7840 O   0  0  0  0  0  0  0  0  0  0  0  0
  162.8210  210.2650  149.0630 C   0  0  2  0  0  0  0  0  0  0  0  0
  162.9570  210.4710  151.9310 O   0  0  0  0  0  0  0  0  0  0  0  0
  161.6550  209.5120  149.7390 C   0  0  1  0  0  0  0  0  0  0  0  0
  161.8480  209.4380  148.2750 C   0  0  0  0  0  2  0  0  0  0  0  0
  1 10  1  0  0  0  0
  1 11  1  0  0  0  0
  2  3  1  1  0  0  0
  2  7  1  0  0  0  0
  2  9  1  0  0  0  0
  4 20  1  6  0  0  0
  4 13  1  0  0  0  0
  4 17  1  0  0  0  0
  5 15  1  0  0  0  0
  6 16  1  0  0  0  0
  7  9  1  0  0  0  0
  8 19  1  1  0  0  0
  8  2  1  0  0  0  0
  9 16  1  6  0  0  0
 10  5  2  0  0  0  0
 11  8  1  0  0  0  0
 11 15  2  0  0  0  0
 13 14  1  6  0  0  0
 13 18  1  0  0  0  0
 15  3  1  0  0  0  0
 17 22  1  1  0  0  0
 17  1  1  0  0  0  0
 18 12  1  1  0  0  0
 18 10  1  0  0  0  0
 19  6  1  0  0  0  0
 21 20  1  0  0  0  0
 23 25  2  0  0  0  0
 23 27  2  0  0  0  0
 26 24  1  6  0  0  0
 26 28  1  0  0  0  0
 26 23  1  0  0  0  0
 28 22  1  1  0  0  0
 28 23  1  0  0  0  0
 29 26  1  0  0  0  0
 29 28  1  0  0  0  0
M  END
>  <MODEL>
2

>  <REMARK>
 VINA RESULT:      -3.8      2.583      5.903
  Name = 
  3 active torsions:
  status: ('A' for Active; 'I' for Inactive)
    1  A    between atoms: C_6  and  S_24
    2  A    between atoms: N_13  and  C_22
    3  A    between atoms: N_13  and  C_25
                            x       y       z     vdW  Elec       q    Type
                         _______ _______ _______ _____ _____    ______ ____

>  <TORSDO>
F 3

$$$$
=
 OpenBabel11072414003D

 29 35  0  0  1  0  0  0  0  0999 V2000
  160.4780  211.6580  152.6850 N   0  0  0  0  0  0  0  0  0  0  0  0
  160.4200  210.2520  155.9950 C   0  0  1  0  0  0  0  0  0  0  0  0
  159.3580  211.3570  155.9960 C   0  0  0  0  0  2  0  0  0  0  0  0
  160.7610  211.8060  150.2080 C   0  0  2  0  0  3  0  0  0  0  0  0
  158.8980  212.7450  153.8990 N   0  0  0  0  0  0  0  0  0  0  0  0
  163.1350  210.7170  155.8350 O   0  0  0  0  0  0  0  0  0  0  0  0
  160.3520  209.0840  156.9470 C   0  0  0  0  0  2  0  0  0  0  0  0
  161.1170  210.1030  154.6190 C   0  0  1  0  0  3  0  0  0  0  0  0
  161.2750  210.2630  157.2580 C   0  0  1  0  0  3  0  0  0  0  0  0
  159.4710  212.5590  152.6790 C   0  0  0  0  0  0  0  0  0  0  0  0
  160.6230  211.3410  153.9780 C   0  0  0  0  0  0  0  0  0  0  0  0
  158.5080  214.4520  151.6480 O   0  0  0  0  0  1  0  0  0  0  0  0
  160.1240  213.1950  150.4080 C   0  0  1  0  0  3  0  0  0  0  0  0
  159.6410  213.7010  149.1320 N   0  0  0  0  0  1  0  0  0  0  0  0
  159.6790  211.9870  154.6930 C   0  0  0  0  0  0  0  0  0  0  0  0
  162.7240  209.9320  156.9210 C   0  0  0  0  0  2  0  0  0  0  0  0
  161.0800  211.0320  151.5050 C   0  0  2  0  0  3  0  0  0  0  0  0
  158.9680  213.1560  151.4100 C   0  0  1  0  0  3  0  0  0  0  0  0
  162.6510  210.0570  154.6970 C   0  0  0  0  0  2  0  0  0  0  0  0
  162.2750  211.9430  149.2110 S   0  0  0  0  0  0  0  0  0  0  0  0
  161.3500  211.7940  147.6580 C   0  0  0  0  0  1  0  0  0  0  0  0
  160.5770  209.6700  151.3610 N   0  0  0  0  0  2  0  0  0  0  0  0
  161.5310  207.2620  151.8840 S   0  0  0  0  0  0  0  0  0  0  0  0
  162.0370  206.5550  149.4950 C   0  0  0  0  0  1  0  0  0  0  0  0
  162.8810  206.7910  152.3490 O   0  0  0  0  0  0  0  0  0  0  0  0
  161.1810  207.6170  150.1530 C   0  0  2  0  0  0  0  0  0  0  0  0
  160.4440  207.3220  152.9200 O   0  0  0  0  0  0  0  0  0  0  0  0
  161.6900  208.8010  151.0020 C   0  0  1  0  0  0  0  0  0  0  0  0
  161.8540  208.8070  149.5330 C   0  0  0  0  0  2  0  0  0  0  0  0
  1 11  1  0  0  0  0
  2  3  1  1  0  0  0
  2  7  1  0  0  0  0
  2  9  1  0  0  0  0
  4 20  1  1  0  0  0
  4 13  1  0  0  0  0
  4 17  1  0  0  0  0
  5 15  1  0  0  0  0
  6 16  1  0  0  0  0
  7  9  1  0  0  0  0
  8 19  1  1  0  0  0
  8  2  1  0  0  0  0
  9 16  1  6  0  0  0
 10  1  1  0  0  0  0
 10  5  2  0  0  0  0
 11  8  1  0  0  0  0
 11 15  2  0  0  0  0
 13 14  1  6  0  0  0
 13 18  1  0  0  0  0
 15  3  1  0  0  0  0
 17 22  1  6  0  0  0
 17  1  1  0  0  0  0
 18 12  1  1  0  0  0
 18 10  1  0  0  0  0
 19  6  1  0  0  0  0
 21 20  1  0  0  0  0
 23 25  2  0  0  0  0
 23 27  2  0  0  0  0
 26 24  1  1  0  0  0
 26 28  1  0  0  0  0
 26 23  1  0  0  0  0
 28 22  1  1  0  0  0
 28 23  1  0  0  0  0
 29 26  1  0  0  0  0
 29 28  1  0  0  0  0
M  END
>  <MODEL>
3

>  <REMARK>
 VINA RESULT:      -3.6      2.833      6.859
  Name = 
  3 active torsions:
  status: ('A' for Active; 'I' for Inactive)
    1  A    between atoms: C_6  and  S_24
    2  A    between atoms: N_13  and  C_22
    3  A    between atoms: N_13  and  C_25
                            x       y       z     vdW  Elec       q    Type
                         _______ _______ _______ _____ _____    ______ ____

>  <TORSDO>
F 3

$$$$
=
 OpenBabel11072414003D

 29 35  0  0  1  0  0  0  0  0999 V2000
  160.9830  210.1190  151.5680 N   0  0  0  0  0  0  0  0  0  0  0  0
  162.5900  206.9140  151.2730 C   0  0  1  0  0  0  0  0  0  0  0  0
  162.9040  207.6560  149.9690 C   0  0  0  0  0  2  0  0  0  0  0  0
  160.0430  212.1790  152.6200 C   0  0  2  0  0  3  0  0  0  0  0  0
  162.0430  210.0290  149.5630 N   0  0  0  0  0  0  0  0  0  0  0  0
  160.0790  206.0090  151.9720 O   0  0  0  0  0  0  0  0  0  0  0  0
  163.4820  205.8160  151.7980 C   0  0  0  0  0  2  0  0  0  0  0  0
  161.7410  207.7680  152.2490 C   0  0  1  0  0  3  0  0  0  0  0  0
  162.2040  205.4580  151.0380 C   0  0  1  0  0  3  0  0  0  0  0  0
  161.3550  210.7900  150.4550 C   0  0  0  0  0  0  0  0  0  0  0  0
  161.3550  208.8550  151.3240 C   0  0  0  0  0  0  0  0  0  0  0  0
  160.9230  212.5870  148.9850 O   0  0  0  0  0  1  0  0  0  0  0  0
  159.9140  212.6400  151.1560 C   0  0  1  0  0  3  0  0  0  0  0  0
  159.7290  214.0820  151.1100 N   0  0  0  0  0  1  0  0  0  0  0  0
  161.9880  208.8090  150.1340 C   0  0  0  0  0  0  0  0  0  0  0  0
  161.0930  205.0420  151.9950 C   0  0  0  0  0  2  0  0  0  0  0  0
  160.5050  210.7190  152.8160 C   0  0  2  0  0  3  0  0  0  0  0  0
  161.1410  212.2580  150.3250 C   0  0  1  0  0  3  0  0  0  0  0  0
  160.5210  207.0310  152.8250 C   0  0  0  0  0  2  0  0  0  0  0  0
  158.4730  212.4280  153.5010 S   0  0  0  0  0  0  0  0  0  0  0  0
  159.2270  213.6070  154.6560 C   0  0  0  0  0  1  0  0  0  0  0  0
  161.5730  210.7060  153.8100 N   0  0  0  0  0  2  0  0  0  0  0  0
  162.2220  210.1150  156.3020 S   0  0  0  0  0  0  0  0  0  0  0  0
  159.8710  209.9890  157.2600 C   0  0  0  0  0  1  0  0  0  0  0  0
  162.6020  208.8200  156.9650 O   0  0  0  0  0  0  0  0  0  0  0  0
  160.5060  210.5820  156.0190 C   0  0  2  0  0  0  0  0  0  0  0  0
  163.3440  211.0610  155.9770 O   0  0  0  0  0  0  0  0  0  0  0  0
  161.1940  209.7960  154.8830 C   0  0  1  0  0  0  0  0  0  0  0  0
  159.7220  209.7910  155.0140 C   0  0  0  0  0  2  0  0  0  0  0  0
  1 17  1  0  0  0  0
  2  3  1  6  0  0  0
  2  7  1  0  0  0  0
  2  8  1  0  0  0  0
  3 15  1  0  0  0  0
  4 17  1  0  0  0  0
  4 20  1  6  0  0  0
  5 15  1  0  0  0  0
  5 10  2  0  0  0  0
  6 16  1  0  0  0  0
  6 19  1  0  0  0  0
  8 19  1  6  0  0  0
  9  2  1  0  0  0  0
  9  7  1  1  0  0  0
  9 16  1  0  0  0  0
 10  1  1  0  0  0  0
 11  1  1  0  0  0  0
 11  8  1  0  0  0  0
 13 14  1  1  0  0  0
 13  4  1  0  0  0  0
 15 11  2  0  0  0  0
 17 22  1  1  0  0  0
 18 12  1  6  0  0  0
 18 10  1  0  0  0  0
 18 13  1  0  0  0  0
 20 21  1  0  0  0  0
 23 25  2  0  0  0  0
 26 23  1  0  0  0  0
 26 24  1  1  0  0  0
 27 23  2  0  0  0  0
 28 22  1  6  0  0  0
 28 29  1  0  0  0  0
 28 26  1  0  0  0  0
 28 23  1  0  0  0  0
 29 26  1  0  0  0  0
M  END
>  <MODEL>
4

>  <REMARK>
 VINA RESULT:      -3.1      2.466      4.703
  Name = 
  3 active torsions:
  status: ('A' for Active; 'I' for Inactive)
    1  A    between atoms: C_6  and  S_24
    2  A    between atoms: N_13  and  C_22
    3  A    between atoms: N_13  and  C_25
                            x       y       z     vdW  Elec       q    Type
                         _______ _______ _______ _____ _____    ______ ____

>  <TORSDO>
F 3

$$$$
=
 OpenBabel11072414003D

 29 35  0  0  1  0  0  0  0  0999 V2000
  160.6950  208.9590  152.6200 N   0  0  0  0  0  0  0  0  0  0  0  0
  159.6960  211.7330  154.6800 C   0  0  1  0  0  0  0  0  0  0  0  0
  160.2030  210.6600  155.6490 C   0  0  0  0  0  2  0  0  0  0  0  0
  161.5470  207.7020  150.6380 C   0  0  2  0  0  3  0  0  0  0  0  0
  161.0800  208.4170  154.7900 N   0  0  0  0  0  0  0  0  0  0  0  0
  157.3770  211.5120  153.2020 O   0  0  0  0  0  0  0  0  0  0  0  0
  159.7060  213.1980  155.0400 C   0  0  0  0  0  2  0  0  0  0  0  0
  159.8020  211.2900  153.1980 C   0  0  1  0  0  3  0  0  0  0  0  0
  158.4100  212.3950  155.1620 C   0  0  1  0  0  3  0  0  0  0  0  0
  161.2280  208.0670  153.4840 C   0  0  0  0  0  0  0  0  0  0  0  0
  160.0890  209.8540  153.4100 C   0  0  0  0  0  0  0  0  0  0  0  0
  161.8630  205.8280  153.8850 O   0  0  0  0  0  1  0  0  0  0  0  0
  161.5170  206.5120  151.6160 C   0  0  1  0  0  3  0  0  0  0  0  0
  162.3310  205.4260  151.0930 N   0  0  0  0  0  1  0  0  0  0  0  0
  160.3250  209.5290  154.6980 C   0  0  0  0  0  0  0  0  0  0  0  0
  157.4800  212.6690  153.9860 C   0  0  0  0  0  2  0  0  0  0  0  0
  160.9480  209.0180  151.1780 C   0  0  2  0  0  3  0  0  0  0  0  0
  162.0240  206.9020  153.0070 C   0  0  1  0  0  3  0  0  0  0  0  0
  158.5170  211.5140  152.3860 C   0  0  0  0  0  2  0  0  0  0  0  0
  160.7100  207.2620  149.0850 S   0  0  0  0  0  0  0  0  0  0  0  0
  162.2860  206.9880  148.2300 C   0  0  0  0  0  1  0  0  0  0  0  0
  161.8830  210.0990  150.8860 N   0  0  0  0  0  2  0  0  0  0  0  0
  161.1350  212.3200  149.6650 S   0  0  0  0  0  0  0  0  0  0  0  0
  162.8270  212.2680  147.7680 C   0  0  0  0  0  1  0  0  0  0  0  0
  160.0140  212.6160  148.7070 O   0  0  0  0  0  0  0  0  0  0  0  0
  162.6980  211.6050  149.1240 C   0  0  2  0  0  0  0  0  0  0  0  0
  160.9340  212.7490  151.0910 O   0  0  0  0  0  0  0  0  0  0  0  0
  161.6010  210.6050  149.5490 C   0  0  1  0  0  0  0  0  0  0  0  0
  162.6860  210.1860  148.6360 C   0  0  0  0  0  2  0  0  0  0  0  0
  1 11  1  0  0  0  0
  1 10  1  0  0  0  0
  2  7  1  1  0  0  0
  2  9  1  0  0  0  0
  2  3  1  0  0  0  0
  4 20  1  6  0  0  0
  4 17  1  0  0  0  0
  4 13  1  0  0  0  0
  6 16  1  0  0  0  0
  7  9  1  0  0  0  0
  8 19  1  6  0  0  0
  8 11  1  0  0  0  0
  8  2  1  0  0  0  0
  9 16  1  6  0  0  0
 10  5  2  0  0  0  0
 11 15  2  0  0  0  0
 13 14  1  6  0  0  0
 13 18  1  0  0  0  0
 15  5  1  0  0  0  0
 15  3  1  0  0  0  0
 17 22  1  1  0  0  0
 17  1  1  0  0  0  0
 18 10  1  0  0  0  0
 18 12  1  1  0  0  0
 19  6  1  0  0  0  0
 21 20  1  0  0  0  0
 23 27  2  0  0  0  0
 25 23  2  0  0  0  0
 26 24  1  6  0  0  0
 26 28  1  0  0  0  0
 26 23  1  0  0  0  0
 28 23  1  0  0  0  0
 28 22  1  1  0  0  0
 29 26  1  0  0  0  0
 29 28  1  0  0  0  0
M  END
>  <MODEL>
5

>  <REMARK>
 VINA RESULT:      -2.3      2.366      5.936
  Name = 
  3 active torsions:
  status: ('A' for Active; 'I' for Inactive)
    1  A    between atoms: C_6  and  S_24
    2  A    between atoms: N_13  and  C_22
    3  A    between atoms: N_13  and  C_25
                            x       y       z     vdW  Elec       q    Type
                         _______ _______ _______ _____ _____    ______ ____

>  <TORSDO>
F 3

$$$$
=
 OpenBabel11072414003D

 29 35  0  0  1  0  0  0  0  0999 V2000
  160.4950  209.4070  152.4330 N   0  0  0  0  0  0  0  0  0  0  0  0
  162.5040  206.5800  151.4790 C   0  0  1  0  0  0  0  0  0  0  0  0
  162.8810  207.7020  150.5060 C   0  0  0  0  0  2  0  0  0  0  0  0
  159.1910  210.9720  153.8770 C   0  0  2  0  0  3  0  0  0  0  0  0
  161.7930  210.0100  150.6720 N   0  0  0  0  0  0  0  0  0  0  0  0
  160.0560  205.3070  151.5000 O   0  0  0  0  0  0  0  0  0  0  0  0
  163.4530  205.4500  151.7950 C   0  0  0  0  0  2  0  0  0  0  0  0
  161.4450  207.0280  152.5180 C   0  0  1  0  0  3  0  0  0  0  0  0
  162.3290  205.2360  150.7800 C   0  0  1  0  0  3  0  0  0  0  0  0
  160.9140  210.4090  151.6290 C   0  0  0  0  0  0  0  0  0  0  0  0
  161.0450  208.3090  151.8970 C   0  0  0  0  0  0  0  0  0  0  0  0
  160.4470  212.5240  150.6890 O   0  0  0  0  0  1  0  0  0  0  0  0
  159.1840  211.8400  152.6040 C   0  0  1  0  0  3  0  0  0  0  0  0
  158.8320  213.2100  152.9470 N   0  0  0  0  0  1  0  0  0  0  0  0
  161.8170  208.6750  150.8530 C   0  0  0  0  0  0  0  0  0  0  0  0
  161.1690  204.4630  151.3980 C   0  0  0  0  0  2  0  0  0  0  0  0
  159.8000  209.5630  153.7130 C   0  0  2  0  0  3  0  0  0  0  0  0
  160.5400  211.8270  151.8950 C   0  0  1  0  0  3  0  0  0  0  0  0
  160.2640  206.0570  152.6660 C   0  0  0  0  0  2  0  0  0  0  0  0
  157.5070  210.8170  154.5440 S   0  0  0  0  0  0  0  0  0  0  0  0
  157.6500  212.3760  155.4590 C   0  0  0  0  0  1  0  0  0  0  0  0
  160.7330  209.3370  154.8120 N   0  0  0  0  0  2  0  0  0  0  0  0
  160.8100  211.1240  156.7560 S   0  0  0  0  0  0  0  0  0  0  0  0
  163.3300  211.4430  156.8450 C   0  0  0  0  0  1  0  0  0  0  0  0
  160.5840  212.6100  156.7700 O   0  0  0  0  0  0  0  0  0  0  0  0
  162.3890  210.3960  156.2850 C   0  0  2  0  0  0  0  0  0  0  0  0
  159.6840  210.2660  157.2610 O   0  0  0  0  0  0  0  0  0  0  0  0
  161.3680  210.6050  155.1460 C   0  0  1  0  0  0  0  0  0  0  0  0
  162.8130  210.5150  154.8500 C   0  0  0  0  0  2  0  0  0  0  0  0
  1 17  1  0  0  0  0
  2  3  1  6  0  0  0
  2  7  1  0  0  0  0
  2  8  1  0  0  0  0
  3 15  1  0  0  0  0
  4 20  1  6  0  0  0
  5 15  1  0  0  0  0
  5 10  2  0  0  0  0
  6 19  1  0  0  0  0
  8 19  1  6  0  0  0
  9 16  1  1  0  0  0
  9  2  1  0  0  0  0
  9  7  1  0  0  0  0
 10 18  1  0  0  0  0
 10  1  1  0  0  0  0
 11  1  1  0  0  0  0
 11  8  1  0  0  0  0
 13 14  1  1  0  0  0
 13  4  1  0  0  0  0
 15 11  2  0  0  0  0
 16  6  1  0  0  0  0
 17  4  1  0  0  0  0
 17 22  1  1  0  0  0
 18 12  1  6  0  0  0
 18 13  1  0  0  0  0
 20 21  1  0  0  0  0
 23 25  2  0  0  0  0
 23 27  2  0  0  0  0
 26 23  1  0  0  0  0
 26 24  1  6  0  0  0
 28 22  1  6  0  0  0
 28 26  1  0  0  0  0
 28 23  1  0  0  0  0
 29 28  1  0  0  0  0
 29 26  1  0  0  0  0
M  END
>  <MODEL>
6

>  <REMARK>
 VINA RESULT:      -2.2      2.259      4.407
  Name = 
  3 active torsions:
  status: ('A' for Active; 'I' for Inactive)
    1  A    between atoms: C_6  and  S_24
    2  A    between atoms: N_13  and  C_22
    3  A    between atoms: N_13  and  C_25
                            x       y       z     vdW  Elec       q    Type
                         _______ _______ _______ _____ _____    ______ ____

>  <TORSDO>
F 3

$$$$
=
 OpenBabel11072414003D

 29 35  0  0  1  0  0  0  0  0999 V2000
  159.7040  210.1810  154.7340 N   0  0  0  0  0  0  0  0  0  0  0  0
  157.8190  212.9490  156.0470 C   0  0  1  0  0  0  0  0  0  0  0  0
  158.4770  212.2840  157.2610 C   0  0  0  0  0  2  0  0  0  0  0  0
  161.0530  208.8130  153.1380 C   0  0  2  0  0  3  0  0  0  0  0  0
  159.9830  210.2360  156.9860 N   0  0  0  0  0  0  0  0  0  0  0  0
  155.8020  211.7980  154.5570 O   0  0  0  0  0  0  0  0  0  0  0  0
  157.4180  214.4030  156.0580 C   0  0  0  0  0  2  0  0  0  0  0  0
  158.1900  212.2490  154.7150 C   0  0  1  0  0  3  0  0  0  0  0  0
  156.3630  213.3220  156.3040 C   0  0  1  0  0  3  0  0  0  0  0  0
  160.3520  209.6710  155.8050 C   0  0  0  0  0  0  0  0  0  0  0  0
  158.8100  211.0240  155.2670 C   0  0  0  0  0  0  0  0  0  0  0  0
  161.4900  207.8270  156.7420 O   0  0  0  0  0  1  0  0  0  0  0  0
  161.2240  207.8950  154.3640 C   0  0  1  0  0  3  0  0  0  0  0  0
  162.3380  206.9860  154.1440 N   0  0  0  0  0  1  0  0  0  0  0  0
  158.9830  211.0550  156.6040 C   0  0  0  0  0  0  0  0  0  0  0  0
  155.5230  213.0780  155.0560 C   0  0  0  0  0  2  0  0  0  0  0  0
  160.0850  210.0000  153.3310 C   0  0  2  0  0  3  0  0  0  0  0  0
  161.4650  208.6930  155.6470 C   0  0  1  0  0  3  0  0  0  0  0  0
  156.9840  211.9380  153.8150 C   0  0  0  0  0  2  0  0  0  0  0  0
  160.5240  207.8450  151.6930 S   0  0  0  0  0  0  0  0  0  0  0  0
  162.2090  207.7920  151.0240 C   0  0  0  0  0  1  0  0  0  0  0  0
  160.7380  211.2080  152.8390 N   0  0  0  0  0  2  0  0  0  0  0  0
  159.6000  213.1650  151.4760 S   0  0  0  0  0  0  0  0  0  0  0  0
  161.0200  213.0050  149.3740 C   0  0  0  0  0  1  0  0  0  0  0  0
  158.3360  213.2250  150.6630 O   0  0  0  0  0  0  0  0  0  0  0  0
  161.1450  212.5260  150.8050 C   0  0  2  0  0  0  0  0  0  0  0  0
  159.5450  213.7650  152.8520 O   0  0  0  0  0  0  0  0  0  0  0  0
  160.2290  211.4980  151.5050 C   0  0  1  0  0  0  0  0  0  0  0  0
  161.2210  211.0580  150.5020 C   0  0  0  0  0  2  0  0  0  0  0  0
  1 11  1  0  0  0  0
  1 10  1  0  0  0  0
  2  7  1  6  0  0  0
  2  9  1  0  0  0  0
  2  3  1  0  0  0  0
  4 20  1  6  0  0  0
  4 17  1  0  0  0  0
  4 13  1  0  0  0  0
  6 16  1  0  0  0  0
  7  9  1  0  0  0  0
  8 19  1  6  0  0  0
  8 11  1  0  0  0  0
  8  2  1  0  0  0  0
  9 16  1  6  0  0  0
 10  5  2  0  0  0  0
 11 15  2  0  0  0  0
 13 14  1  6  0  0  0
 13 18  1  0  0  0  0
 15  5  1  0  0  0  0
 15  3  1  0  0  0  0
 17 22  1  1  0  0  0
 17  1  1  0  0  0  0
 18 10  1  0  0  0  0
 18 12  1  1  0  0  0
 19  6  1  0  0  0  0
 21 20  1  0  0  0  0
 23 28  1  0  0  0  0
 23 27  2  0  0  0  0
 25 23  2  0  0  0  0
 26 24  1  6  0  0  0
 26 23  1  0  0  0  0
 26 28  1  0  0  0  0
 28 22  1  1  0  0  0
 29 26  1  0  0  0  0
 29 28  1  0  0  0  0
M  END
>  <MODEL>
7

>  <REMARK>
 VINA RESULT:      -2.0      2.413      6.190
  Name = 
  3 active torsions:
  status: ('A' for Active; 'I' for Inactive)
    1  A    between atoms: C_6  and  S_24
    2  A    between atoms: N_13  and  C_22
    3  A    between atoms: N_13  and  C_25
                            x       y       z     vdW  Elec       q    Type
                         _______ _______ _______ _____ _____    ______ ____

>  <TORSDO>
F 3

$$$$
=
 OpenBabel11072414003D

 29 35  0  0  1  0  0  0  0  0999 V2000
  161.0970  210.8360  151.4850 N   0  0  0  0  0  0  0  0  0  0  0  0
  160.8680  212.1460  148.1420 C   0  0  1  0  0  0  0  0  0  0  0  0
  161.3780  210.7090  147.9890 C   0  0  0  0  0  2  0  0  0  0  0  0
  160.5910  210.4950  153.9060 C   0  0  2  0  0  3  0  0  0  0  0  0
  161.7440  209.2160  150.0320 N   0  0  0  0  0  0  0  0  0  0  0  0
  162.3400  214.2010  149.2490 O   0  0  0  0  0  0  0  0  0  0  0  0
  160.1240  212.8480  147.0330 C   0  0  0  0  0  2  0  0  0  0  0  0
  160.6110  212.5280  149.6230 C   0  0  1  0  0  3  0  0  0  0  0  0
  161.6130  213.1290  147.2460 C   0  0  1  0  0  3  0  0  0  0  0  0
  161.4520  209.5420  151.3200 C   0  0  0  0  0  0  0  0  0  0  0  0
  161.2770  211.3780  150.2730 C   0  0  0  0  0  0  0  0  0  0  0  0
  162.3680  207.5970  152.2950 O   0  0  0  0  0  1  0  0  0  0  0  0
  161.5810  209.3240  153.7540 C   0  0  1  0  0  3  0  0  0  0  0  0
  161.4290  208.4060  154.8720 N   0  0  0  0  0  1  0  0  0  0  0  0
  161.6570  210.4100  149.4140 C   0  0  0  0  0  0  0  0  0  0  0  0
  161.8260  214.4530  147.9700 C   0  0  0  0  0  2  0  0  0  0  0  0
  160.4500  211.4070  152.6680 C   0  0  2  0  0  3  0  0  0  0  0  0
  161.3730  208.5650  152.4410 C   0  0  1  0  0  3  0  0  0  0  0  0
  161.2290  213.8720  150.0380 C   0  0  0  0  0  2  0  0  0  0  0  0
  161.0320  211.5120  155.3460 S   0  0  0  0  0  0  0  0  0  0  0  0
  159.7880  210.7020  156.3880 C   0  0  0  0  0  1  0  0  0  0  0  0
  159.0290  211.6060  152.4050 N   0  0  0  0  0  2  0  0  0  0  0  0
  158.3080  213.8710  153.5590 S   0  0  0  0  0  0  0  0  0  0  0  0
  155.9830  213.1630  154.3050 C   0  0  0  0  0  1  0  0  0  0  0  0
  158.6060  214.4530  154.9120 O   0  0  0  0  0  0  0  0  0  0  0  0
  156.9990  212.6610  153.3010 C   0  0  2  0  0  0  0  0  0  0  0  0
  159.0860  214.4270  152.3990 O   0  0  0  0  0  0  0  0  0  0  0  0
  158.3980  212.0930  153.6250 C   0  0  1  0  0  0  0  0  0  0  0  0
  157.1840  211.2940  153.8920 C   0  0  0  0  0  2  0  0  0  0  0  0
  1 17  1  0  0  0  0
  2  7  1  6  0  0  0
  2  8  1  0  0  0  0
  3  2  1  0  0  0  0
  3 15  1  0  0  0  0
  4 20  1  1  0  0  0
  5 10  2  0  0  0  0
  6 19  1  0  0  0  0
  8 19  1  1  0  0  0
  8 11  1  0  0  0  0
  9  7  1  6  0  0  0
  9 16  1  0  0  0  0
  9  2  1  0  0  0  0
 10  1  1  0  0  0  0
 10 18  1  0  0  0  0
 11  1  1  0  0  0  0
 13  4  1  0  0  0  0
 13 14  1  1  0  0  0
 15  5  1  0  0  0  0
 15 11  2  0  0  0  0
 16  6  1  0  0  0  0
 17 22  1  6  0  0  0
 17  4  1  0  0  0  0
 18 12  1  6  0  0  0
 18 13  1  0  0  0  0
 20 21  1  0  0  0  0
 23 28  1  0  0  0  0
 23 25  2  0  0  0  0
 26 23  1  0  0  0  0
 26 28  1  0  0  0  0
 26 29  1  0  0  0  0
 26 24  1  1  0  0  0
 27 23  2  0  0  0  0
 28 22  1  6  0  0  0
 28 29  1  0  0  0  0
M  END
>  <MODEL>
8

>  <REMARK>
 VINA RESULT:      -1.9      2.948      4.110
  Name = 
  3 active torsions:
  status: ('A' for Active; 'I' for Inactive)
    1  A    between atoms: C_6  and  S_24
    2  A    between atoms: N_13  and  C_22
    3  A    between atoms: N_13  and  C_25
                            x       y       z     vdW  Elec       q    Type
                         _______ _______ _______ _____ _____    ______ ____

>  <TORSDO>
F 3

$$$$
