=
 OpenBabel11072414233D

 26 27  0  0  1  0  0  0  0  0999 V2000
  161.3810  205.6950  152.0810 C   0  0  0  0  0  0  0  0  0  0  0  0
  160.7360  203.3720  151.8710 C   0  0  0  0  0  3  0  0  0  0  0  0
  161.1560  204.6830  149.8650 C   0  0  0  0  0  0  0  0  0  0  0  0
  160.8050  203.4570  150.4740 C   0  0  0  0  0  0  0  0  0  0  0  0
  161.4460  205.7860  150.6840 C   0  0  0  0  0  3  0  0  0  0  0  0
  161.0190  204.4810  152.6670 C   0  0  0  0  0  3  0  0  0  0  0  0
  161.2370  204.8440  148.3920 C   0  0  0  0  0  0  0  0  0  0  0  0
  161.2390  207.2040  147.9050 N   0  0  0  0  0  1  0  0  0  0  0  0
  161.0460  205.4990  146.2120 C   0  0  0  0  0  0  0  0  0  0  0  0
  160.6140  205.9330  147.5770 C   0  0  1  0  0  3  0  0  0  0  0  0
  161.8990  204.0210  147.5860 C   0  0  0  0  0  3  0  0  0  0  0  0
  161.7730  204.4330  146.2330 N   0  0  0  0  0  0  0  0  0  0  0  0
  160.6930  206.1780  144.9250 C   0  0  0  0  0  2  0  0  0  0  0  0
  161.3060  205.5070  143.7920 N   0  0  0  0  0  1  0  0  0  0  0  0
  161.6660  206.8140  152.9300 N   0  0  0  0  0  2  0  0  0  0  0  0
  161.1720  208.1510  152.7790 C   0  0  0  0  0  0  0  0  0  0  0  0
  160.4270  208.4680  151.8130 O   0  0  0  0  0  0  0  0  0  0  0  0
  161.5440  209.1820  153.7890 C   0  0  0  0  0  2  0  0  0  0  0  0
  160.4180  209.4000  154.7950 C   0  0  0  0  0  2  0  0  0  0  0  0
  160.0170  208.9930  157.0910 F   0  0  0  0  0  0  0  0  0  0  0  0
  159.5900  207.3260  155.6450 F   0  0  0  0  0  0  0  0  0  0  0  0
  161.7240  207.9000  156.1150 F   0  0  0  0  0  0  0  0  0  0  0  0
  160.4390  208.3790  155.9280 C   0  0  0  0  0  0  0  0  0  0  0  0
  160.5340  202.3250  149.6960 O   0  0  0  0  0  0  0  0  0  0  0  0
  161.2000  201.1720  149.8640 O   0  0  0  0  0  0  0  0  0  0  0  0
  161.2720  200.6270  148.6250 N   0  0  0  0  0  1  0  0  0  0  0  0
  1  6  1  0  0  0  0
  1 15  1  0  0  0  0
  2  6  2  0  0  0  0
  3  4  2  0  0  0  0
  3  5  1  0  0  0  0
  4  2  1  0  0  0  0
  5  1  2  0  0  0  0
  7  3  1  0  0  0  0
  9 12  2  0  0  0  0
  9 10  1  0  0  0  0
 10  8  1  1  0  0  0
 10  7  1  0  0  0  0
 11  7  2  0  0  0  0
 12 11  1  0  0  0  0
 13  9  1  0  0  0  0
 14 13  1  0  0  0  0
 16 15  1  0  0  0  0
 16 18  1  0  0  0  0
 17 16  2  0  0  0  0
 18 19  1  0  0  0  0
 19 23  1  0  0  0  0
 21 23  1  0  0  0  0
 23 22  1  0  0  0  0
 23 20  1  0  0  0  0
 24 25  1  0  0  0  0
 24  4  1  0  0  0  0
 26 25  1  0  0  0  0
M  END
>  <MODEL>
1

>  <REMARK>
 VINA RESULT:      -7.9      0.000      0.000
  Name = 
  8 active torsions:
  status: ('A' for Active; 'I' for Inactive)
    1  A    between atoms: C_1  and  C_7
    2  A    between atoms: C_2  and  C_15
    3  A    between atoms: C_5  and  N_10
    4  A    between atoms: O_8  and  C_16
    5  A    between atoms: O_8  and  O_22
    6  A    between atoms: C_9  and  C_11
    7  A    between atoms: C_9  and  C_25
    8  A    between atoms: C_11  and  C_13
                            x       y       z     vdW  Elec       q    Type
                         _______ _______ _______ _____ _____    ______ ____

>  <TORSDO>
F 8

$$$$
=
 OpenBabel11072414233D

 26 27  0  0  1  0  0  0  0  0999 V2000
  161.3870  205.9700  152.2100 C   0  0  0  0  0  0  0  0  0  0  0  0
  160.7530  203.6360  152.1240 C   0  0  0  0  0  3  0  0  0  0  0  0
  161.1220  204.8530  150.0500 C   0  0  0  0  0  0  0  0  0  0  0  0
  160.7920  203.6550  150.7220 C   0  0  0  0  0  0  0  0  0  0  0  0
  161.4220  205.9960  150.8100 C   0  0  0  0  0  3  0  0  0  0  0  0
  161.0460  204.7830  152.8600 C   0  0  0  0  0  3  0  0  0  0  0  0
  161.1700  204.9460  148.5690 C   0  0  0  0  0  0  0  0  0  0  0  0
  161.2650  207.2790  147.9760 N   0  0  0  0  0  1  0  0  0  0  0  0
  160.9500  205.5130  146.3670 C   0  0  0  0  0  0  0  0  0  0  0  0
  160.5750  206.0250  147.7220 C   0  0  1  0  0  3  0  0  0  0  0  0
  161.7730  204.0590  147.7850 C   0  0  0  0  0  3  0  0  0  0  0  0
  161.6280  204.4170  146.4190 N   0  0  0  0  0  0  0  0  0  0  0  0
  160.5930  206.1500  145.0610 C   0  0  0  0  0  2  0  0  0  0  0  0
  161.2790  205.5020  143.9550 N   0  0  0  0  0  1  0  0  0  0  0  0
  161.6830  207.1290  153.0000 N   0  0  0  0  0  2  0  0  0  0  0  0
  161.0460  207.5170  154.2240 C   0  0  0  0  0  0  0  0  0  0  0  0
  160.1000  206.8420  154.7120 O   0  0  0  0  0  0  0  0  0  0  0  0
  161.5170  208.7400  154.9320 C   0  0  0  0  0  2  0  0  0  0  0  0
  160.5790  209.9180  154.6840 C   0  0  0  0  0  2  0  0  0  0  0  0
  160.5850  211.9610  153.4920 F   0  0  0  0  0  0  0  0  0  0  0  0
  162.1750  210.4540  152.9880 F   0  0  0  0  0  0  0  0  0  0  0  0
  160.0330  210.0920  152.3670 F   0  0  0  0  0  0  0  0  0  0  0  0
  160.8510  210.6130  153.3540 C   0  0  0  0  0  0  0  0  0  0  0  0
  160.5130  202.4870  150.0040 O   0  0  0  0  0  0  0  0  0  0  0  0
  161.1950  201.3490  150.2060 O   0  0  0  0  0  0  0  0  0  0  0  0
  161.2730  200.7690  148.9830 N   0  0  0  0  0  1  0  0  0  0  0  0
  1  6  1  0  0  0  0
  1 15  1  0  0  0  0
  2  6  2  0  0  0  0
  3  4  2  0  0  0  0
  3  5  1  0  0  0  0
  4  2  1  0  0  0  0
  5  1  2  0  0  0  0
  7  3  1  0  0  0  0
  9 12  2  0  0  0  0
  9 10  1  0  0  0  0
 10  8  1  1  0  0  0
 10  7  1  0  0  0  0
 11  7  2  0  0  0  0
 12 11  1  0  0  0  0
 13  9  1  0  0  0  0
 14 13  1  0  0  0  0
 15 16  1  0  0  0  0
 16 17  2  0  0  0  0
 16 18  1  0  0  0  0
 19 18  1  0  0  0  0
 21 23  1  0  0  0  0
 22 23  1  0  0  0  0
 23 20  1  0  0  0  0
 23 19  1  0  0  0  0
 24 25  1  0  0  0  0
 24  4  1  0  0  0  0
 26 25  1  0  0  0  0
M  END
>  <MODEL>
2

>  <REMARK>
 VINA RESULT:      -7.8      1.718      1.921
  Name = 
  8 active torsions:
  status: ('A' for Active; 'I' for Inactive)
    1  A    between atoms: C_1  and  C_7
    2  A    between atoms: C_2  and  C_15
    3  A    between atoms: C_5  and  N_10
    4  A    between atoms: O_8  and  C_16
    5  A    between atoms: O_8  and  O_22
    6  A    between atoms: C_9  and  C_11
    7  A    between atoms: C_9  and  C_25
    8  A    between atoms: C_11  and  C_13
                            x       y       z     vdW  Elec       q    Type
                         _______ _______ _______ _____ _____    ______ ____

>  <TORSDO>
F 8

$$$$
=
 OpenBabel11072414233D

 26 27  0  0  1  0  0  0  0  0999 V2000
  161.3890  205.8350  152.1270 C   0  0  0  0  0  0  0  0  0  0  0  0
  160.7420  203.5070  151.9860 C   0  0  0  0  0  3  0  0  0  0  0  0
  161.1410  204.7640  149.9420 C   0  0  0  0  0  0  0  0  0  0  0  0
  160.7960  203.5550  150.5860 C   0  0  0  0  0  0  0  0  0  0  0  0
  161.4390  205.8890  150.7290 C   0  0  0  0  0  3  0  0  0  0  0  0
  161.0340  204.6370  152.7490 C   0  0  0  0  0  3  0  0  0  0  0  0
  161.2060  204.8870  148.4640 C   0  0  0  0  0  0  0  0  0  0  0  0
  161.2470  207.2330  147.9170 N   0  0  0  0  0  1  0  0  0  0  0  0
  161.0000  205.4900  146.2710 C   0  0  0  0  0  0  0  0  0  0  0  0
  160.5940  205.9670  147.6300 C   0  0  1  0  0  3  0  0  0  0  0  0
  161.8420  204.0310  147.6720 C   0  0  0  0  0  3  0  0  0  0  0  0
  161.7060  204.4120  146.3100 N   0  0  0  0  0  0  0  0  0  0  0  0
  160.6430  206.1430  144.9720 C   0  0  0  0  0  2  0  0  0  0  0  0
  161.3030  205.4880  143.8550 N   0  0  0  0  0  1  0  0  0  0  0  0
  161.6830  206.9760  152.9440 N   0  0  0  0  0  2  0  0  0  0  0  0
  161.2110  208.3150  152.7460 C   0  0  0  0  0  0  0  0  0  0  0  0
  160.4800  208.6120  151.7630 O   0  0  0  0  0  0  0  0  0  0  0  0
  161.5880  209.3710  153.7260 C   0  0  0  0  0  2  0  0  0  0  0  0
  160.6080  209.4150  154.8950 C   0  0  0  0  0  2  0  0  0  0  0  0
  160.4920  211.7660  155.1270 F   0  0  0  0  0  0  0  0  0  0  0  0
  159.1300  210.7970  153.6240 F   0  0  0  0  0  0  0  0  0  0  0  0
  158.7330  210.5540  155.8350 F   0  0  0  0  0  0  0  0  0  0  0  0
  159.7180  210.6530  154.8670 C   0  0  0  0  0  0  0  0  0  0  0  0
  160.5180  202.4030  149.8410 O   0  0  0  0  0  0  0  0  0  0  0  0
  161.1870  201.2550  150.0310 O   0  0  0  0  0  0  0  0  0  0  0  0
  161.2620  200.6880  148.8030 N   0  0  0  0  0  1  0  0  0  0  0  0
  1  6  1  0  0  0  0
  1 15  1  0  0  0  0
  2  6  2  0  0  0  0
  3  4  2  0  0  0  0
  3  5  1  0  0  0  0
  4  2  1  0  0  0  0
  5  1  2  0  0  0  0
  7  3  1  0  0  0  0
  9 12  2  0  0  0  0
  9 10  1  0  0  0  0
 10  8  1  1  0  0  0
 10  7  1  0  0  0  0
 11  7  2  0  0  0  0
 12 11  1  0  0  0  0
 13  9  1  0  0  0  0
 14 13  1  0  0  0  0
 16 15  1  0  0  0  0
 16 18  1  0  0  0  0
 17 16  2  0  0  0  0
 18 19  1  0  0  0  0
 21 23  1  0  0  0  0
 23 19  1  0  0  0  0
 23 20  1  0  0  0  0
 23 22  1  0  0  0  0
 24 25  1  0  0  0  0
 24  4  1  0  0  0  0
 26 25  1  0  0  0  0
M  END
>  <MODEL>
3

>  <REMARK>
 VINA RESULT:      -7.6      1.177      1.407
  Name = 
  8 active torsions:
  status: ('A' for Active; 'I' for Inactive)
    1  A    between atoms: C_1  and  C_7
    2  A    between atoms: C_2  and  C_15
    3  A    between atoms: C_5  and  N_10
    4  A    between atoms: O_8  and  C_16
    5  A    between atoms: O_8  and  O_22
    6  A    between atoms: C_9  and  C_11
    7  A    between atoms: C_9  and  C_25
    8  A    between atoms: C_11  and  C_13
                            x       y       z     vdW  Elec       q    Type
                         _______ _______ _______ _____ _____    ______ ____

>  <TORSDO>
F 8

$$$$
=
 OpenBabel11072414233D

 26 27  0  0  1  0  0  0  0  0999 V2000
  161.7380  207.3430  151.2360 C   0  0  0  0  0  0  0  0  0  0  0  0
  161.2140  206.2780  153.3450 C   0  0  0  0  0  3  0  0  0  0  0  0
  160.8700  208.6740  153.0960 C   0  0  0  0  0  0  0  0  0  0  0  0
  160.8030  207.5040  153.8860 C   0  0  0  0  0  0  0  0  0  0  0  0
  161.3330  208.5720  151.7740 C   0  0  0  0  0  3  0  0  0  0  0  0
  161.6780  206.1990  152.0330 C   0  0  0  0  0  3  0  0  0  0  0  0
  160.4610  210.0050  153.6110 C   0  0  0  0  0  0  0  0  0  0  0  0
  162.2030  210.7990  155.0750 N   0  0  0  0  0  1  0  0  0  0  0  0
  160.0660  211.8890  154.8410 C   0  0  0  0  0  0  0  0  0  0  0  0
  160.7710  210.5740  154.9590 C   0  0  1  0  0  3  0  0  0  0  0  0
  159.7530  210.8880  152.9160 C   0  0  0  0  0  3  0  0  0  0  0  0
  159.5090  212.0550  153.6890 N   0  0  0  0  0  0  0  0  0  0  0  0
  159.9710  212.9300  155.9120 C   0  0  0  0  0  2  0  0  0  0  0  0
  159.7690  212.3240  157.2170 N   0  0  0  0  0  1  0  0  0  0  0  0
  162.2200  207.2240  149.8910 N   0  0  0  0  0  2  0  0  0  0  0  0
  161.4650  206.8130  148.7440 C   0  0  0  0  0  0  0  0  0  0  0  0
  160.2550  206.4770  148.8440 O   0  0  0  0  0  0  0  0  0  0  0  0
  162.1270  206.7890  147.4090 C   0  0  0  0  0  2  0  0  0  0  0  0
  161.5270  205.7070  146.5160 C   0  0  0  0  0  2  0  0  0  0  0  0
  163.7010  204.7880  146.3540 F   0  0  0  0  0  0  0  0  0  0  0  0
  162.2110  203.7220  147.6560 F   0  0  0  0  0  0  0  0  0  0  0  0
  162.0070  203.6480  145.4070 F   0  0  0  0  0  0  0  0  0  0  0  0
  162.3710  204.4380  146.4840 C   0  0  0  0  0  0  0  0  0  0  0  0
  160.3220  207.5560  155.2000 O   0  0  0  0  0  0  0  0  0  0  0  0
  161.1300  207.4000  156.2590 O   0  0  0  0  0  0  0  0  0  0  0  0
  160.3160  206.9860  157.2610 N   0  0  0  0  0  1  0  0  0  0  0  0
  1  5  2  0  0  0  0
  1  6  1  0  0  0  0
  2  4  1  0  0  0  0
  3  7  1  0  0  0  0
  3  4  2  0  0  0  0
  4 24  1  0  0  0  0
  5  3  1  0  0  0  0
  6  2  2  0  0  0  0
  7 10  1  0  0  0  0
  9 10  1  0  0  0  0
  9 13  1  0  0  0  0
 10  8  1  6  0  0  0
 11  7  2  0  0  0  0
 11 12  1  0  0  0  0
 12  9  2  0  0  0  0
 13 14  1  0  0  0  0
 15  1  1  0  0  0  0
 16 17  2  0  0  0  0
 16 15  1  0  0  0  0
 18 16  1  0  0  0  0
 19 18  1  0  0  0  0
 20 23  1  0  0  0  0
 22 23  1  0  0  0  0
 23 19  1  0  0  0  0
 23 21  1  0  0  0  0
 24 25  1  0  0  0  0
 25 26  1  0  0  0  0
M  END
>  <MODEL>
4

>  <REMARK>
 VINA RESULT:      -7.6      4.561      8.513
  Name = 
  8 active torsions:
  status: ('A' for Active; 'I' for Inactive)
    1  A    between atoms: C_1  and  C_7
    2  A    between atoms: C_2  and  C_15
    3  A    between atoms: C_5  and  N_10
    4  A    between atoms: O_8  and  C_16
    5  A    between atoms: O_8  and  O_22
    6  A    between atoms: C_9  and  C_11
    7  A    between atoms: C_9  and  C_25
    8  A    between atoms: C_11  and  C_13
                            x       y       z     vdW  Elec       q    Type
                         _______ _______ _______ _____ _____    ______ ____

>  <TORSDO>
F 8

$$$$
=
 OpenBabel11072414233D

 26 27  0  0  1  0  0  0  0  0999 V2000
  161.0580  205.4180  148.9500 C   0  0  0  0  0  0  0  0  0  0  0  0
  161.8760  207.5410  148.1260 C   0  0  0  0  0  3  0  0  0  0  0  0
  161.2970  207.3130  150.4780 C   0  0  0  0  0  0  0  0  0  0  0  0
  161.7750  208.1010  149.4070 C   0  0  0  0  0  0  0  0  0  0  0  0
  160.9510  205.9740  150.2310 C   0  0  0  0  0  3  0  0  0  0  0  0
  161.5190  206.2130  147.9000 C   0  0  0  0  0  3  0  0  0  0  0  0
  161.1550  207.8460  151.8560 C   0  0  0  0  0  0  0  0  0  0  0  0
  162.1280  206.2460  153.3730 N   0  0  0  0  0  1  0  0  0  0  0  0
  160.8630  208.1650  154.0990 C   0  0  0  0  0  0  0  0  0  0  0  0
  160.9470  207.0500  153.1050 C   0  0  1  0  0  3  0  0  0  0  0  0
  161.2050  209.1370  152.1650 C   0  0  0  0  0  3  0  0  0  0  0  0
  161.0190  209.3260  153.5610 N   0  0  0  0  0  0  0  0  0  0  0  0
  160.6130  208.0110  155.5670 C   0  0  0  0  0  2  0  0  0  0  0  0
  161.7420  208.4930  156.3460 N   0  0  0  0  0  1  0  0  0  0  0  0
  160.7010  204.0560  148.6810 N   0  0  0  0  0  2  0  0  0  0  0  0
  160.7290  202.9640  149.6080 C   0  0  0  0  0  0  0  0  0  0  0  0
  161.1220  203.1240  150.7950 O   0  0  0  0  0  0  0  0  0  0  0  0
  160.2800  201.6160  149.1590 C   0  0  0  0  0  2  0  0  0  0  0  0
  161.2850  200.9930  148.1940 C   0  0  0  0  0  2  0  0  0  0  0  0
  161.5960  202.2470  146.2120 F   0  0  0  0  0  0  0  0  0  0  0  0
  161.1860  200.0470  146.0020 F   0  0  0  0  0  0  0  0  0  0  0  0
  159.5340  201.4520  146.6370 F   0  0  0  0  0  0  0  0  0  0  0  0
  160.8880  201.1820  146.7330 C   0  0  0  0  0  0  0  0  0  0  0  0
  162.1570  209.4320  149.6150 O   0  0  0  0  0  0  0  0  0  0  0  0
  162.1580  210.3340  148.6220 O   0  0  0  0  0  0  0  0  0  0  0  0
  161.9180  211.5210  149.2290 N   0  0  0  0  0  1  0  0  0  0  0  0
  1  5  1  0  0  0  0
  2  4  2  0  0  0  0
  3  7  1  0  0  0  0
  4 24  1  0  0  0  0
  4  3  1  0  0  0  0
  5  3  2  0  0  0  0
  6  2  1  0  0  0  0
  6  1  2  0  0  0  0
  7 11  2  0  0  0  0
  7 10  1  0  0  0  0
  9 13  1  0  0  0  0
 10  8  1  1  0  0  0
 10  9  1  0  0  0  0
 11 12  1  0  0  0  0
 12  9  2  0  0  0  0
 13 14  1  0  0  0  0
 15  1  1  0  0  0  0
 15 16  1  0  0  0  0
 16 17  2  0  0  0  0
 18 16  1  0  0  0  0
 19 18  1  0  0  0  0
 20 23  1  0  0  0  0
 21 23  1  0  0  0  0
 22 23  1  0  0  0  0
 23 19  1  0  0  0  0
 25 26  1  0  0  0  0
 25 24  1  0  0  0  0
M  END
>  <MODEL>
5

>  <REMARK>
 VINA RESULT:      -7.4      4.503      8.318
  Name = 
  8 active torsions:
  status: ('A' for Active; 'I' for Inactive)
    1  A    between atoms: C_1  and  C_7
    2  A    between atoms: C_2  and  C_15
    3  A    between atoms: C_5  and  N_10
    4  A    between atoms: O_8  and  C_16
    5  A    between atoms: O_8  and  O_22
    6  A    between atoms: C_9  and  C_11
    7  A    between atoms: C_9  and  C_25
    8  A    between atoms: C_11  and  C_13
                            x       y       z     vdW  Elec       q    Type
                         _______ _______ _______ _____ _____    ______ ____

>  <TORSDO>
F 8

$$$$
=
 OpenBabel11072414233D

 26 27  0  0  1  0  0  0  0  0999 V2000
  161.0690  205.9950  150.2570 C   0  0  0  0  0  0  0  0  0  0  0  0
  161.9520  208.0290  149.2880 C   0  0  0  0  0  3  0  0  0  0  0  0
  161.3270  207.9960  151.6400 C   0  0  0  0  0  0  0  0  0  0  0  0
  161.8420  208.6880  150.5210 C   0  0  0  0  0  0  0  0  0  0  0  0
  160.9530  206.6510  151.4890 C   0  0  0  0  0  3  0  0  0  0  0  0
  161.5670  206.6950  149.1580 C   0  0  0  0  0  3  0  0  0  0  0  0
  161.1750  208.6370  152.9700 C   0  0  0  0  0  0  0  0  0  0  0  0
  159.6530  210.4890  152.7280 N   0  0  0  0  0  1  0  0  0  0  0  0
  160.9180  210.0640  154.7350 C   0  0  0  0  0  0  0  0  0  0  0  0
  160.9540  210.0920  153.2390 C   0  0  1  0  0  3  0  0  0  0  0  0
  161.2100  207.9800  154.1240 C   0  0  0  0  0  3  0  0  0  0  0  0
  161.0530  208.8750  155.2150 N   0  0  0  0  0  0  0  0  0  0  0  0
  160.7610  211.2550  155.6290 C   0  0  0  0  0  2  0  0  0  0  0  0
  159.5670  211.1420  156.4490 N   0  0  0  0  0  1  0  0  0  0  0  0
  160.6830  204.6250  150.0860 N   0  0  0  0  0  2  0  0  0  0  0  0
  161.2140  203.4920  150.7870 C   0  0  0  0  0  0  0  0  0  0  0  0
  162.1360  203.6220  151.6360 O   0  0  0  0  0  0  0  0  0  0  0  0
  160.6590  202.1380  150.5060 C   0  0  0  0  0  2  0  0  0  0  0  0
  160.0800  202.0600  149.0970 C   0  0  0  0  0  2  0  0  0  0  0  0
  161.9170  200.6880  148.5150 F   0  0  0  0  0  0  0  0  0  0  0  0
  160.5330  201.3330  146.8660 F   0  0  0  0  0  0  0  0  0  0  0  0
  161.9410  202.8250  147.8130 F   0  0  0  0  0  0  0  0  0  0  0  0
  161.1340  201.7250  148.0470 C   0  0  0  0  0  0  0  0  0  0  0  0
  162.2530  210.0220  150.6330 O   0  0  0  0  0  0  0  0  0  0  0  0
  161.5890  211.0230  150.0350 O   0  0  0  0  0  0  0  0  0  0  0  0
  162.3900  211.4120  149.0140 N   0  0  0  0  0  1  0  0  0  0  0  0
  1  5  1  0  0  0  0
  2  4  2  0  0  0  0
  3  7  1  0  0  0  0
  4 24  1  0  0  0  0
  4  3  1  0  0  0  0
  5  3  2  0  0  0  0
  6  2  1  0  0  0  0
  6  1  2  0  0  0  0
  7 10  1  0  0  0  0
  7 11  2  0  0  0  0
  9 12  2  0  0  0  0
  9 13  1  0  0  0  0
 10  8  1  6  0  0  0
 10  9  1  0  0  0  0
 11 12  1  0  0  0  0
 13 14  1  0  0  0  0
 15  1  1  0  0  0  0
 15 16  1  0  0  0  0
 16 17  2  0  0  0  0
 18 16  1  0  0  0  0
 19 18  1  0  0  0  0
 21 23  1  0  0  0  0
 22 23  1  0  0  0  0
 23 20  1  0  0  0  0
 23 19  1  0  0  0  0
 25 24  1  0  0  0  0
 26 25  1  0  0  0  0
M  END
>  <MODEL>
6

>  <REMARK>
 VINA RESULT:      -7.3      4.347      8.224
  Name = 
  8 active torsions:
  status: ('A' for Active; 'I' for Inactive)
    1  A    between atoms: C_1  and  C_7
    2  A    between atoms: C_2  and  C_15
    3  A    between atoms: C_5  and  N_10
    4  A    between atoms: O_8  and  C_16
    5  A    between atoms: O_8  and  O_22
    6  A    between atoms: C_9  and  C_11
    7  A    between atoms: C_9  and  C_25
    8  A    between atoms: C_11  and  C_13
                            x       y       z     vdW  Elec       q    Type
                         _______ _______ _______ _____ _____    ______ ____

>  <TORSDO>
F 8

$$$$
=
 OpenBabel11072414233D

 26 27  0  0  1  0  0  0  0  0999 V2000
  161.1970  206.0590  149.1440 C   0  0  0  0  0  0  0  0  0  0  0  0
  161.9870  208.2920  148.6480 C   0  0  0  0  0  3  0  0  0  0  0  0
  161.4510  207.6950  150.9450 C   0  0  0  0  0  0  0  0  0  0  0  0
  161.9050  208.6450  150.0030 C   0  0  0  0  0  0  0  0  0  0  0  0
  161.1090  206.4080  150.4980 C   0  0  0  0  0  3  0  0  0  0  0  0
  161.6350  207.0120  148.2230 C   0  0  0  0  0  3  0  0  0  0  0  0
  161.3300  208.0060  152.3920 C   0  0  0  0  0  0  0  0  0  0  0  0
  159.9310  209.9550  152.6150 N   0  0  0  0  0  1  0  0  0  0  0  0
  161.1510  208.9790  154.4500 C   0  0  0  0  0  0  0  0  0  0  0  0
  161.2000  209.3640  153.0050 C   0  0  1  0  0  3  0  0  0  0  0  0
  161.3140  207.0890  153.3530 C   0  0  0  0  0  3  0  0  0  0  0  0
  161.2060  207.7030  154.6290 N   0  0  0  0  0  0  0  0  0  0  0  0
  161.0640  209.9270  155.6050 C   0  0  0  0  0  2  0  0  0  0  0  0
  162.3400  210.0400  156.2910 N   0  0  0  0  0  1  0  0  0  0  0  0
  160.8440  204.7530  148.6710 N   0  0  0  0  0  2  0  0  0  0  0  0
  161.5810  203.9520  147.7380 C   0  0  0  0  0  0  0  0  0  0  0  0
  162.6440  204.3750  147.2100 O   0  0  0  0  0  0  0  0  0  0  0  0
  161.0800  202.5920  147.3930 C   0  0  0  0  0  2  0  0  0  0  0  0
  160.0930  202.0850  148.4410 C   0  0  0  0  0  2  0  0  0  0  0  0
  159.8620  200.4790  150.1620 F   0  0  0  0  0  0  0  0  0  0  0  0
  161.8320  200.5790  149.0850 F   0  0  0  0  0  0  0  0  0  0  0  0
  161.2450  202.2160  150.5270 F   0  0  0  0  0  0  0  0  0  0  0  0
  160.7780  201.3280  149.5740 C   0  0  0  0  0  0  0  0  0  0  0  0
  162.2820  209.9300  150.4090 O   0  0  0  0  0  0  0  0  0  0  0  0
  161.6050  211.0240  150.0280 O   0  0  0  0  0  0  0  0  0  0  0  0
  162.3310  211.5470  149.0100 N   0  0  0  0  0  1  0  0  0  0  0  0
  1  5  1  0  0  0  0
  2  4  2  0  0  0  0
  3  7  1  0  0  0  0
  4 24  1  0  0  0  0
  4  3  1  0  0  0  0
  5  3  2  0  0  0  0
  6  2  1  0  0  0  0
  6  1  2  0  0  0  0
  7 10  1  0  0  0  0
  7 11  2  0  0  0  0
  9 12  2  0  0  0  0
  9 13  1  0  0  0  0
 10  8  1  6  0  0  0
 10  9  1  0  0  0  0
 11 12  1  0  0  0  0
 13 14  1  0  0  0  0
 15  1  1  0  0  0  0
 16 15  1  0  0  0  0
 17 16  2  0  0  0  0
 18 16  1  0  0  0  0
 18 19  1  0  0  0  0
 19 23  1  0  0  0  0
 21 23  1  0  0  0  0
 23 20  1  0  0  0  0
 23 22  1  0  0  0  0
 25 24  1  0  0  0  0
 26 25  1  0  0  0  0
M  END
>  <MODEL>
7

>  <REMARK>
 VINA RESULT:      -7.1      3.779      7.979
  Name = 
  8 active torsions:
  status: ('A' for Active; 'I' for Inactive)
    1  A    between atoms: C_1  and  C_7
    2  A    between atoms: C_2  and  C_15
    3  A    between atoms: C_5  and  N_10
    4  A    between atoms: O_8  and  C_16
    5  A    between atoms: O_8  and  O_22
    6  A    between atoms: C_9  and  C_11
    7  A    between atoms: C_9  and  C_25
    8  A    between atoms: C_11  and  C_13
                            x       y       z     vdW  Elec       q    Type
                         _______ _______ _______ _____ _____    ______ ____

>  <TORSDO>
F 8

$$$$
=
 OpenBabel11072414233D

 26 27  0  0  1  0  0  0  0  0999 V2000
  161.7700  207.9250  150.9790 C   0  0  0  0  0  0  0  0  0  0  0  0
  161.7440  208.3910  148.6040 C   0  0  0  0  0  3  0  0  0  0  0  0
  161.4400  206.1040  149.3780 C   0  0  0  0  0  0  0  0  0  0  0  0
  161.5260  207.0360  148.3190 C   0  0  0  0  0  0  0  0  0  0  0  0
  161.5570  206.5690  150.6980 C   0  0  0  0  0  3  0  0  0  0  0  0
  161.8660  208.8300  149.9210 C   0  0  0  0  0  3  0  0  0  0  0  0
  161.2210  204.6550  149.1450 C   0  0  0  0  0  0  0  0  0  0  0  0
  162.6550  203.9720  147.3320 N   0  0  0  0  0  1  0  0  0  0  0  0
  160.9540  202.5550  148.2860 C   0  0  0  0  0  0  0  0  0  0  0  0
  161.2900  203.9410  147.8330 C   0  0  1  0  0  3  0  0  0  0  0  0
  160.9360  203.7800  150.1030 C   0  0  0  0  0  3  0  0  0  0  0  0
  160.7680  202.4780  149.5600 N   0  0  0  0  0  0  0  0  0  0  0  0
  160.8200  201.3540  147.4030 C   0  0  0  0  0  2  0  0  0  0  0  0
  161.5680  200.2260  147.9330 N   0  0  0  0  0  1  0  0  0  0  0  0
  161.8990  208.4120  152.3200 N   0  0  0  0  0  2  0  0  0  0  0  0
  161.0450  209.3600  152.9730 C   0  0  0  0  0  0  0  0  0  0  0  0
  160.0720  209.8880  152.3700 O   0  0  0  0  0  0  0  0  0  0  0  0
  161.3100  209.7190  154.3950 C   0  0  0  0  0  2  0  0  0  0  0  0
  160.2370  209.1490  155.3180 C   0  0  0  0  0  2  0  0  0  0  0  0
  159.7760  207.4460  156.8940 F   0  0  0  0  0  0  0  0  0  0  0  0
  160.3190  206.8170  154.8050 F   0  0  0  0  0  0  0  0  0  0  0  0
  161.8980  207.6660  156.1790 F   0  0  0  0  0  0  0  0  0  0  0  0
  160.5690  207.7410  155.8020 C   0  0  0  0  0  0  0  0  0  0  0  0
  161.3870  206.6210  146.9890 O   0  0  0  0  0  0  0  0  0  0  0  0
  160.1910  206.5670  146.3830 O   0  0  0  0  0  0  0  0  0  0  0  0
  160.4600  206.1620  145.1180 N   0  0  0  0  0  1  0  0  0  0  0  0
  1 15  1  0  0  0  0
  2  6  1  0  0  0  0
  3  5  2  0  0  0  0
  4  2  2  0  0  0  0
  4  3  1  0  0  0  0
  5  1  1  0  0  0  0
  6  1  2  0  0  0  0
  7  3  1  0  0  0  0
  7 11  2  0  0  0  0
  9 12  2  0  0  0  0
 10  8  1  1  0  0  0
 10  9  1  0  0  0  0
 10  7  1  0  0  0  0
 12 11  1  0  0  0  0
 13 14  1  0  0  0  0
 13  9  1  0  0  0  0
 15 16  1  0  0  0  0
 16 18  1  0  0  0  0
 17 16  2  0  0  0  0
 18 19  1  0  0  0  0
 19 23  1  0  0  0  0
 21 23  1  0  0  0  0
 23 22  1  0  0  0  0
 23 20  1  0  0  0  0
 24  4  1  0  0  0  0
 25 24  1  0  0  0  0
 26 25  1  0  0  0  0
M  END
>  <MODEL>
8

>  <REMARK>
 VINA RESULT:      -7.1      2.224      3.642
  Name = 
  8 active torsions:
  status: ('A' for Active; 'I' for Inactive)
    1  A    between atoms: C_1  and  C_7
    2  A    between atoms: C_2  and  C_15
    3  A    between atoms: C_5  and  N_10
    4  A    between atoms: O_8  and  C_16
    5  A    between atoms: O_8  and  O_22
    6  A    between atoms: C_9  and  C_11
    7  A    between atoms: C_9  and  C_25
    8  A    between atoms: C_11  and  C_13
                            x       y       z     vdW  Elec       q    Type
                         _______ _______ _______ _____ _____    ______ ____

>  <TORSDO>
F 8

$$$$
=
 OpenBabel11072414233D

 26 27  0  0  1  0  0  0  0  0999 V2000
  161.1220  204.1080  150.0180 C   0  0  0  0  0  0  0  0  0  0  0  0
  161.2120  204.3660  152.4230 C   0  0  0  0  0  3  0  0  0  0  0  0
  161.3980  206.3310  151.0010 C   0  0  0  0  0  0  0  0  0  0  0  0
  161.3580  205.7540  152.2900 C   0  0  0  0  0  0  0  0  0  0  0  0
  161.2720  205.4940  149.8800 C   0  0  0  0  0  3  0  0  0  0  0  0
  161.0980  203.5510  151.2980 C   0  0  0  0  0  3  0  0  0  0  0  0
  161.5610  207.7910  150.7890 C   0  0  0  0  0  0  0  0  0  0  0  0
  161.5360  208.2020  148.4140 N   0  0  0  0  0  1  0  0  0  0  0  0
  162.0890  209.8860  150.0470 C   0  0  0  0  0  0  0  0  0  0  0  0
  162.2630  208.4550  149.6470 C   0  0  1  0  0  3  0  0  0  0  0  0
  161.0820  208.7220  151.6070 C   0  0  0  0  0  3  0  0  0  0  0  0
  161.4180  210.0210  151.1400 N   0  0  0  0  0  0  0  0  0  0  0  0
  162.6240  211.0730  149.3080 C   0  0  0  0  0  2  0  0  0  0  0  0
  161.5820  211.7220  148.5310 N   0  0  0  0  0  1  0  0  0  0  0  0
  161.0010  203.2390  148.8840 N   0  0  0  0  0  2  0  0  0  0  0  0
  160.9470  201.8070  148.9050 C   0  0  0  0  0  0  0  0  0  0  0  0
  161.0380  201.1640  149.9850 O   0  0  0  0  0  0  0  0  0  0  0  0
  160.7760  201.0680  147.6220 C   0  0  0  0  0  2  0  0  0  0  0  0
  160.9830  201.9880  146.4230 C   0  0  0  0  0  2  0  0  0  0  0  0
  159.9650  202.7970  144.4460 F   0  0  0  0  0  0  0  0  0  0  0  0
  160.4070  200.5960  144.5680 F   0  0  0  0  0  0  0  0  0  0  0  0
  158.7340  201.4860  145.7990 F   0  0  0  0  0  0  0  0  0  0  0  0
  160.0020  201.7040  145.2900 C   0  0  0  0  0  0  0  0  0  0  0  0
  161.4520  206.5540  153.4340 O   0  0  0  0  0  0  0  0  0  0  0  0
  160.4570  206.6320  154.3300 O   0  0  0  0  0  0  0  0  0  0  0  0
  160.7630  207.7050  155.1000 N   0  0  0  0  0  1  0  0  0  0  0  0
  1  6  1  0  0  0  0
  3  4  2  0  0  0  0
  4  2  1  0  0  0  0
  4 24  1  0  0  0  0
  5  1  2  0  0  0  0
  5  3  1  0  0  0  0
  6  2  2  0  0  0  0
  7  3  1  0  0  0  0
  7 11  2  0  0  0  0
  9 12  2  0  0  0  0
 10  8  1  6  0  0  0
 10  9  1  0  0  0  0
 10  7  1  0  0  0  0
 12 11  1  0  0  0  0
 13  9  1  0  0  0  0
 14 13  1  0  0  0  0
 15 16  1  0  0  0  0
 15  1  1  0  0  0  0
 16 17  2  0  0  0  0
 18 16  1  0  0  0  0
 19 18  1  0  0  0  0
 20 23  1  0  0  0  0
 21 23  1  0  0  0  0
 23 22  1  0  0  0  0
 23 19  1  0  0  0  0
 24 25  1  0  0  0  0
 25 26  1  0  0  0  0
M  END
>  <MODEL>
9

>  <REMARK>
 VINA RESULT:      -6.9      4.890      7.646
  Name = 
  8 active torsions:
  status: ('A' for Active; 'I' for Inactive)
    1  A    between atoms: C_1  and  C_7
    2  A    between atoms: C_2  and  C_15
    3  A    between atoms: C_5  and  N_10
    4  A    between atoms: O_8  and  C_16
    5  A    between atoms: O_8  and  O_22
    6  A    between atoms: C_9  and  C_11
    7  A    between atoms: C_9  and  C_25
    8  A    between atoms: C_11  and  C_13
                            x       y       z     vdW  Elec       q    Type
                         _______ _______ _______ _____ _____    ______ ____

>  <TORSDO>
F 8

$$$$
