=
 OpenBabel11072412293D

 33 36  0  0  1  0  0  0  0  0999 V2000
  161.4810  205.5410  150.9560 C   0  0  2  0  0  3  0  0  0  0  0  0
  161.2720  205.0680  153.2800 C   0  0  0  0  0  1  0  0  0  0  0  0
  161.4380  203.8230  149.1130 C   0  0  0  0  0  2  0  0  0  0  0  0
  161.0160  205.2510  149.5010 C   0  0  1  0  0  0  0  0  0  0  0  0
  160.7470  204.7540  151.9570 N   0  0  0  0  0  0  0  0  0  0  0  0
  160.1770  202.2220  152.5210 O   0  0  0  0  0  0  0  0  0  0  0  0
  160.7730  202.7430  149.9590 C   0  0  0  0  0  2  0  0  0  0  0  0
  159.4980  205.3960  149.3920 C   0  0  0  0  0  1  0  0  0  0  0  0
  161.0820  203.0730  151.6750 S   0  0  0  0  0  0  0  0  0  0  0  0
  161.3430  206.9710  151.2230 N   0  0  0  0  0  2  0  0  0  0  0  0
  162.5170  202.7570  151.9960 O   0  0  0  0  0  0  0  0  0  0  0  0
  162.2380  207.3810  148.9790 C   0  0  0  0  0  0  0  0  0  0  0  0
  162.7930  208.2810  148.0700 O   0  0  0  0  0  1  0  0  0  0  0  0
  161.6530  206.2480  148.5330 C   0  0  0  0  0  0  0  0  0  0  0  0
  162.3760  207.6600  150.4570 C   0  0  1  0  0  3  0  0  0  0  0  0
  163.7080  204.9240  146.9490 N   0  0  0  0  0  1  0  0  0  0  0  0
  160.3480  206.4750  146.4240 C   0  0  0  0  0  3  0  0  0  0  0  0
  161.1820  205.6360  144.3150 C   0  0  0  0  0  3  0  0  0  0  0  0
  162.3440  205.1910  144.9510 C   0  0  0  0  0  3  0  0  0  0  0  0
  161.5120  206.0370  147.0720 C   0  0  0  0  0  0  0  0  0  0  0  0
  162.5130  205.3860  146.3250 C   0  0  0  0  0  0  0  0  0  0  0  0
  160.1840  206.2780  145.0520 C   0  0  0  0  0  3  0  0  0  0  0  0
  162.3000  209.1560  150.7340 C   0  0  0  0  0  2  0  0  0  0  0  0
  160.3910  212.1490  154.8280 O   0  0  0  0  0  0  0  0  0  0  0  0
  161.2640  209.4660  151.8040 C   0  0  2  0  0  3  0  0  0  0  0  0
  161.5830  210.2250  154.1570 C   0  0  0  0  0  3  0  0  0  0  0  0
  160.3200  211.6770  152.4960 C   0  0  0  0  0  0  0  0  0  0  0  0
  160.6230  210.8020  151.5260 C   0  0  0  0  0  3  0  0  0  0  0  0
  161.8640  209.3540  153.1870 C   0  0  0  0  0  3  0  0  0  0  0  0
  160.7290  211.3870  153.8840 C   0  0  0  0  0  0  0  0  0  0  0  0
  158.1350  212.8730  152.3450 C   0  0  0  0  0  1  0  0  0  0  0  0
  159.9800  213.4430  150.7700 C   0  0  0  0  0  1  0  0  0  0  0  0
  159.6400  212.9760  152.1740 C   0  0  0  0  0  3  0  0  0  0  0  0
  1 10  1  1  0  0  0
  1  5  1  0  0  0  0
  3  4  1  0  0  0  0
  3  7  1  0  0  0  0
  4  8  1  6  0  0  0
  4  1  1  0  0  0  0
  5  2  1  0  0  0  0
  7  9  1  0  0  0  0
  9  5  1  0  0  0  0
  9 11  2  0  0  0  0
  9  6  2  0  0  0  0
 12 15  1  0  0  0  0
 13 12  1  0  0  0  0
 14 12  2  0  0  0  0
 14  4  1  0  0  0  0
 15 23  1  6  0  0  0
 15 10  1  0  0  0  0
 17 20  1  0  0  0  0
 18 19  2  0  0  0  0
 18 22  1  0  0  0  0
 19 21  1  0  0  0  0
 20 14  1  0  0  0  0
 21 16  1  0  0  0  0
 21 20  2  0  0  0  0
 22 17  2  0  0  0  0
 25 23  1  6  0  0  0
 25 29  1  0  0  0  0
 27 30  1  0  0  0  0
 28 25  1  0  0  0  0
 28 27  2  0  0  0  0
 29 26  2  0  0  0  0
 30 26  1  0  0  0  0
 30 24  2  0  0  0  0
 32 33  1  0  0  0  0
 33 31  1  0  0  0  0
 33 27  1  0  0  0  0
M  END
>  <MODEL>
1

>  <REMARK>
 VINA RESULT:      -5.9      0.000      0.000
  Name = 
  4 active torsions:
  status: ('A' for Active; 'I' for Inactive)
    1  A    between atoms: C_2  and  C_16
    2  A    between atoms: C_2  and  C_33
    3  A    between atoms: C_9  and  C_32
    4  A    between atoms: C_21  and  C_23
                            x       y       z     vdW  Elec       q    Type
                         _______ _______ _______ _____ _____    ______ ____

>  <TORSDO>
F 4

$$$$
=
 OpenBabel11072412293D

 33 36  0  0  1  0  0  0  0  0999 V2000
  161.6360  208.5710  151.6340 C   0  0  2  0  0  3  0  0  0  0  0  0
  161.7600  206.7620  153.1770 C   0  0  0  0  0  1  0  0  0  0  0  0
  160.9140  210.9180  152.2020 C   0  0  0  0  0  2  0  0  0  0  0  0
  161.8780  210.0800  151.3440 C   0  0  1  0  0  0  0  0  0  0  0  0
  162.0540  208.1770  152.9880 N   0  0  0  0  0  0  0  0  0  0  0  0
  161.6200  208.8530  155.5190 O   0  0  0  0  0  0  0  0  0  0  0  0
  161.1460  210.7660  153.7010 C   0  0  0  0  0  2  0  0  0  0  0  0
  163.3240  210.4550  151.6660 C   0  0  0  0  0  1  0  0  0  0  0  0
  161.0770  209.0460  154.1310 S   0  0  0  0  0  0  0  0  0  0  0  0
  162.3350  207.7750  150.6280 N   0  0  0  0  0  2  0  0  0  0  0  0
  159.6500  208.5730  154.0760 O   0  0  0  0  0  0  0  0  0  0  0  0
  161.5590  209.3870  148.9520 C   0  0  0  0  0  0  0  0  0  0  0  0
  161.3550  209.6940  147.6080 O   0  0  0  0  0  1  0  0  0  0  0  0
  161.6330  210.3800  149.8660 C   0  0  0  0  0  0  0  0  0  0  0  0
  161.6140  207.9370  149.3690 C   0  0  1  0  0  3  0  0  0  0  0  0
  163.7110  211.4910  148.1530 N   0  0  0  0  0  1  0  0  0  0  0  0
  160.5430  212.6170  149.7860 C   0  0  0  0  0  3  0  0  0  0  0  0
  161.4930  214.4520  148.5290 C   0  0  0  0  0  3  0  0  0  0  0  0
  162.5550  213.6340  148.1360 C   0  0  0  0  0  3  0  0  0  0  0  0
  161.6070  211.7890  149.4020 C   0  0  0  0  0  0  0  0  0  0  0  0
  162.6170  212.3050  148.5670 C   0  0  0  0  0  0  0  0  0  0  0  0
  160.4870  213.9440  149.3530 C   0  0  0  0  0  3  0  0  0  0  0  0
  162.2820  207.0910  148.2910 C   0  0  0  0  0  2  0  0  0  0  0  0
  161.2320  202.0220  146.6870 O   0  0  0  0  0  0  0  0  0  0  0  0
  161.3410  206.0100  147.7780 C   0  0  2  0  0  3  0  0  0  0  0  0
  161.7320  204.2430  146.0640 C   0  0  0  0  0  3  0  0  0  0  0  0
  161.1710  203.6090  148.4600 C   0  0  0  0  0  0  0  0  0  0  0  0
  161.2220  204.9060  148.7990 C   0  0  0  0  0  3  0  0  0  0  0  0
  161.7640  205.5310  146.4090 C   0  0  0  0  0  3  0  0  0  0  0  0
  161.3530  203.2230  147.0490 C   0  0  0  0  0  0  0  0  0  0  0  0
  159.7660  201.7070  149.2600 C   0  0  0  0  0  1  0  0  0  0  0  0
  160.9610  203.1520  150.9020 C   0  0  0  0  0  1  0  0  0  0  0  0
  161.0060  202.5490  149.5100 C   0  0  0  0  0  3  0  0  0  0  0  0
  1 10  1  6  0  0  0
  1  5  1  0  0  0  0
  3  7  1  0  0  0  0
  4  1  1  0  0  0  0
  4  8  1  1  0  0  0
  4  3  1  0  0  0  0
  5  2  1  0  0  0  0
  5  9  1  0  0  0  0
  7  9  1  0  0  0  0
  9  6  2  0  0  0  0
 11  9  2  0  0  0  0
 12 15  1  0  0  0  0
 12 14  2  0  0  0  0
 13 12  1  0  0  0  0
 14  4  1  0  0  0  0
 15 23  1  6  0  0  0
 15 10  1  0  0  0  0
 16 21  1  0  0  0  0
 18 22  1  0  0  0  0
 19 18  2  0  0  0  0
 19 21  1  0  0  0  0
 20 17  1  0  0  0  0
 20 14  1  0  0  0  0
 21 20  2  0  0  0  0
 22 17  2  0  0  0  0
 24 30  2  0  0  0  0
 25 23  1  1  0  0  0
 25 28  1  0  0  0  0
 26 29  2  0  0  0  0
 26 30  1  0  0  0  0
 27 28  2  0  0  0  0
 27 33  1  0  0  0  0
 29 25  1  0  0  0  0
 30 27  1  0  0  0  0
 31 33  1  0  0  0  0
 33 32  1  0  0  0  0
M  END
>  <MODEL>
2

>  <REMARK>
 VINA RESULT:      -5.3      2.601      7.431
  Name = 
  4 active torsions:
  status: ('A' for Active; 'I' for Inactive)
    1  A    between atoms: C_2  and  C_16
    2  A    between atoms: C_2  and  C_33
    3  A    between atoms: C_9  and  C_32
    4  A    between atoms: C_21  and  C_23
                            x       y       z     vdW  Elec       q    Type
                         _______ _______ _______ _____ _____    ______ ____

>  <TORSDO>
F 4

$$$$
=
 OpenBabel11072412293D

 33 36  0  0  1  0  0  0  0  0999 V2000
  161.3430  208.8180  152.2900 C   0  0  2  0  0  3  0  0  0  0  0  0
  161.0940  207.3830  154.1730 C   0  0  0  0  0  1  0  0  0  0  0  0
  160.7800  211.2740  152.2500 C   0  0  0  0  0  2  0  0  0  0  0  0
  161.7630  210.2080  151.7340 C   0  0  1  0  0  0  0  0  0  0  0  0
  161.5430  208.7010  153.7420 N   0  0  0  0  0  0  0  0  0  0  0  0
  160.8520  209.9370  155.9880 O   0  0  0  0  0  0  0  0  0  0  0  0
  160.8010  211.4370  153.7650 C   0  0  0  0  0  2  0  0  0  0  0  0
  163.1850  210.5490  152.1790 C   0  0  0  0  0  1  0  0  0  0  0  0
  160.5140  209.8590  154.5250 S   0  0  0  0  0  0  0  0  0  0  0  0
  162.0870  207.7790  151.5820 N   0  0  0  0  0  2  0  0  0  0  0  0
  159.0670  209.4800  154.3610 O   0  0  0  0  0  0  0  0  0  0  0  0
  161.6900  209.0350  149.5150 C   0  0  0  0  0  0  0  0  0  0  0  0
  161.6920  209.0550  148.1210 O   0  0  0  0  0  1  0  0  0  0  0  0
  161.7400  210.1950  150.2060 C   0  0  0  0  0  0  0  0  0  0  0  0
  161.5540  207.7090  150.2250 C   0  0  1  0  0  3  0  0  0  0  0  0
  159.7710  212.3390  150.3300 N   0  0  0  0  0  1  0  0  0  0  0  0
  163.0580  211.6610  148.6830 C   0  0  0  0  0  3  0  0  0  0  0  0
  162.2900  213.8690  148.0630 C   0  0  0  0  0  3  0  0  0  0  0  0
  161.1440  213.6900  148.8420 C   0  0  0  0  0  3  0  0  0  0  0  0
  161.9090  211.4680  149.4630 C   0  0  0  0  0  0  0  0  0  0  0  0
  160.9490  212.4970  149.5440 C   0  0  0  0  0  0  0  0  0  0  0  0
  163.2470  212.8550  147.9840 C   0  0  0  0  0  3  0  0  0  0  0  0
  162.2710  206.6070  149.4550 C   0  0  0  0  0  2  0  0  0  0  0  0
  161.0070  202.1700  146.6130 O   0  0  0  0  0  0  0  0  0  0  0  0
  161.2820  205.7290  148.7020 C   0  0  2  0  0  3  0  0  0  0  0  0
  161.5800  204.4590  146.5770 C   0  0  0  0  0  3  0  0  0  0  0  0
  161.0340  203.2400  148.7390 C   0  0  0  0  0  0  0  0  0  0  0  0
  161.1390  204.4010  149.4020 C   0  0  0  0  0  3  0  0  0  0  0  0
  161.6660  205.6110  147.2450 C   0  0  0  0  0  3  0  0  0  0  0  0
  161.1790  203.2300  147.2710 C   0  0  0  0  0  0  0  0  0  0  0  0
  159.4470  201.3910  149.2820 C   0  0  0  0  0  1  0  0  0  0  0  0
  161.1430  202.1120  150.9600 C   0  0  0  0  0  1  0  0  0  0  0  0
  160.8460  201.9470  149.4800 C   0  0  0  0  0  3  0  0  0  0  0  0
  1 10  1  6  0  0  0
  1  5  1  0  0  0  0
  3  7  1  0  0  0  0
  4  8  1  1  0  0  0
  4  3  1  0  0  0  0
  4  1  1  0  0  0  0
  5  2  1  0  0  0  0
  5  9  1  0  0  0  0
  7  9  1  0  0  0  0
  9  6  2  0  0  0  0
 11  9  2  0  0  0  0
 12 14  2  0  0  0  0
 12 15  1  0  0  0  0
 13 12  1  0  0  0  0
 14  4  1  0  0  0  0
 15 23  1  6  0  0  0
 15 10  1  0  0  0  0
 17 20  1  0  0  0  0
 18 19  2  0  0  0  0
 19 21  1  0  0  0  0
 20 21  2  0  0  0  0
 20 14  1  0  0  0  0
 21 16  1  0  0  0  0
 22 18  1  0  0  0  0
 22 17  2  0  0  0  0
 24 30  2  0  0  0  0
 25 28  1  0  0  0  0
 25 23  1  1  0  0  0
 26 29  2  0  0  0  0
 26 30  1  0  0  0  0
 27 28  2  0  0  0  0
 27 33  1  0  0  0  0
 29 25  1  0  0  0  0
 30 27  1  0  0  0  0
 31 33  1  0  0  0  0
 33 32  1  0  0  0  0
M  END
>  <MODEL>
3

>  <REMARK>
 VINA RESULT:      -5.1      2.694      7.636
  Name = 
  4 active torsions:
  status: ('A' for Active; 'I' for Inactive)
    1  A    between atoms: C_2  and  C_16
    2  A    between atoms: C_2  and  C_33
    3  A    between atoms: C_9  and  C_32
    4  A    between atoms: C_21  and  C_23
                            x       y       z     vdW  Elec       q    Type
                         _______ _______ _______ _____ _____    ______ ____

>  <TORSDO>
F 4

$$$$
=
 OpenBabel11072412293D

 33 36  0  0  1  0  0  0  0  0999 V2000
  161.5820  205.6130  150.9190 C   0  0  2  0  0  3  0  0  0  0  0  0
  161.4240  205.2380  153.2650 C   0  0  0  0  0  1  0  0  0  0  0  0
  161.2430  203.8590  149.1410 C   0  0  0  0  0  2  0  0  0  0  0  0
  161.0180  205.3390  149.4960 C   0  0  1  0  0  0  0  0  0  0  0  0
  160.8040  204.9520  151.9770 N   0  0  0  0  0  0  0  0  0  0  0  0
  159.9540  202.5290  152.6530 O   0  0  0  0  0  0  0  0  0  0  0  0
  160.4910  202.8950  150.0510 C   0  0  0  0  0  2  0  0  0  0  0  0
  159.5260  205.6680  149.4460 C   0  0  0  0  0  1  0  0  0  0  0  0
  160.9170  203.2350  151.7400 S   0  0  0  0  0  0  0  0  0  0  0  0
  161.6320  207.0560  151.1420 N   0  0  0  0  0  2  0  0  0  0  0  0
  162.3160  202.7530  152.0110 O   0  0  0  0  0  0  0  0  0  0  0  0
  162.4670  207.2850  148.8490 C   0  0  0  0  0  0  0  0  0  0  0  0
  163.0850  208.0820  147.8860 O   0  0  0  0  0  1  0  0  0  0  0  0
  161.7270  206.2210  148.4680 C   0  0  0  0  0  0  0  0  0  0  0  0
  162.7060  207.5880  150.3090 C   0  0  1  0  0  3  0  0  0  0  0  0
  163.5970  204.7150  146.8170 N   0  0  0  0  0  1  0  0  0  0  0  0
  160.3310  206.4900  146.4240 C   0  0  0  0  0  3  0  0  0  0  0  0
  160.9910  205.5440  144.2970 C   0  0  0  0  0  3  0  0  0  0  0  0
  162.1500  205.0320  144.8850 C   0  0  0  0  0  3  0  0  0  0  0  0
  161.4940  205.9860  147.0220 C   0  0  0  0  0  0  0  0  0  0  0  0
  162.4060  205.2470  146.2430 C   0  0  0  0  0  0  0  0  0  0  0  0
  160.0810  206.2730  145.0670 C   0  0  0  0  0  3  0  0  0  0  0  0
  162.8270  209.0900  150.5360 C   0  0  0  0  0  2  0  0  0  0  0  0
  159.5510  213.2400  151.7210 O   0  0  0  0  0  0  0  0  0  0  0  0
  161.4580  209.7520  150.5780 C   0  0  2  0  0  3  0  0  0  0  0  0
  160.4170  211.1410  152.3680 C   0  0  0  0  0  3  0  0  0  0  0  0
  160.8320  212.1180  150.0580 C   0  0  0  0  0  0  0  0  0  0  0  0
  161.4580  210.9840  149.7090 C   0  0  0  0  0  3  0  0  0  0  0  0
  161.0280  210.0130  152.0040 C   0  0  0  0  0  3  0  0  0  0  0  0
  160.2130  212.2200  151.3930 C   0  0  0  0  0  0  0  0  0  0  0  0
  159.5680  213.3290  148.2780 C   0  0  0  0  0  1  0  0  0  0  0  0
  162.0600  213.3330  148.2610 C   0  0  0  0  0  1  0  0  0  0  0  0
  160.8200  213.3030  149.1370 C   0  0  0  0  0  3  0  0  0  0  0  0
  1 10  1  1  0  0  0
  1  5  1  0  0  0  0
  3  4  1  0  0  0  0
  3  7  1  0  0  0  0
  4  8  1  6  0  0  0
  4  1  1  0  0  0  0
  5  2  1  0  0  0  0
  7  9  1  0  0  0  0
  9  5  1  0  0  0  0
  9 11  2  0  0  0  0
  9  6  2  0  0  0  0
 12 15  1  0  0  0  0
 13 12  1  0  0  0  0
 14 12  2  0  0  0  0
 14  4  1  0  0  0  0
 15 23  1  6  0  0  0
 15 10  1  0  0  0  0
 17 20  1  0  0  0  0
 18 19  2  0  0  0  0
 18 22  1  0  0  0  0
 19 21  1  0  0  0  0
 20 14  1  0  0  0  0
 21 16  1  0  0  0  0
 21 20  2  0  0  0  0
 22 17  2  0  0  0  0
 25 23  1  1  0  0  0
 25 29  1  0  0  0  0
 27 30  1  0  0  0  0
 28 27  2  0  0  0  0
 28 25  1  0  0  0  0
 29 26  2  0  0  0  0
 30 24  2  0  0  0  0
 30 26  1  0  0  0  0
 31 33  1  0  0  0  0
 32 33  1  0  0  0  0
 33 27  1  0  0  0  0
M  END
>  <MODEL>
4

>  <REMARK>
 VINA RESULT:      -4.6      1.154      1.562
  Name = 
  4 active torsions:
  status: ('A' for Active; 'I' for Inactive)
    1  A    between atoms: C_2  and  C_16
    2  A    between atoms: C_2  and  C_33
    3  A    between atoms: C_9  and  C_32
    4  A    between atoms: C_21  and  C_23
                            x       y       z     vdW  Elec       q    Type
                         _______ _______ _______ _____ _____    ______ ____

>  <TORSDO>
F 4

$$$$
=
 OpenBabel11072412293D

 33 36  0  0  1  0  0  0  0  0999 V2000
  161.2390  210.2410  151.1050 C   0  0  2  0  0  3  0  0  0  0  0  0
  162.2900  209.2670  149.2050 C   0  0  0  0  0  1  0  0  0  0  0  0
  160.3580  208.9650  153.0920 C   0  0  0  0  0  2  0  0  0  0  0  0
  161.0580  210.2620  152.6490 C   0  0  1  0  0  0  0  0  0  0  0  0
  162.2130  209.2340  150.6600 N   0  0  0  0  0  0  0  0  0  0  0  0
  162.6680  206.6260  150.8650 O   0  0  0  0  0  0  0  0  0  0  0  0
  161.1740  207.7090  152.8120 C   0  0  0  0  0  2  0  0  0  0  0  0
  162.4160  210.3850  153.3400 C   0  0  0  0  0  1  0  0  0  0  0  0
  161.6050  207.6650  151.0910 S   0  0  0  0  0  0  0  0  0  0  0  0
  161.6330  211.5730  150.6540 N   0  0  0  0  0  2  0  0  0  0  0  0
  160.3860  207.3260  150.2770 O   0  0  0  0  0  0  0  0  0  0  0  0
  159.9790  212.4880  152.2150 C   0  0  0  0  0  0  0  0  0  0  0  0
  159.2180  213.5790  152.6310 O   0  0  0  0  0  1  0  0  0  0  0  0
  160.2090  211.4640  153.0660 C   0  0  0  0  0  0  0  0  0  0  0  0
  160.4670  212.4410  150.7870 C   0  0  1  0  0  3  0  0  0  0  0  0
  157.4150  211.0910  153.8000 N   0  0  0  0  0  1  0  0  0  0  0  0
  160.6650  211.8510  155.4830 C   0  0  0  0  0  3  0  0  0  0  0  0
  158.9050  211.7590  157.1410 C   0  0  0  0  0  3  0  0  0  0  0  0
  157.9750  211.4760  156.1380 C   0  0  0  0  0  3  0  0  0  0  0  0
  159.7380  211.5730  154.4680 C   0  0  0  0  0  0  0  0  0  0  0  0
  158.3840  211.3800  154.8040 C   0  0  0  0  0  0  0  0  0  0  0  0
  160.2500  211.9470  156.8130 C   0  0  0  0  0  3  0  0  0  0  0  0
  160.8150  213.8380  150.2880 C   0  0  0  0  0  2  0  0  0  0  0  0
  158.2840  212.1890  145.7900 O   0  0  0  0  0  0  0  0  0  0  0  0
  160.3670  214.0370  148.8480 C   0  0  2  0  0  3  0  0  0  0  0  0
  160.3240  212.4150  146.9560 C   0  0  0  0  0  3  0  0  0  0  0  0
  158.1710  213.4800  147.7870 C   0  0  0  0  0  0  0  0  0  0  0  0
  158.8600  214.0620  148.7790 C   0  0  0  0  0  3  0  0  0  0  0  0
  161.0010  213.0120  147.9380 C   0  0  0  0  0  3  0  0  0  0  0  0
  158.8920  212.6820  146.7770 C   0  0  0  0  0  0  0  0  0  0  0  0
  156.2080  214.4530  146.5910 C   0  0  0  0  0  1  0  0  0  0  0  0
  156.1070  214.0750  149.0520 C   0  0  0  0  0  1  0  0  0  0  0  0
  156.6730  213.5720  147.7360 C   0  0  0  0  0  3  0  0  0  0  0  0
  1 10  1  1  0  0  0
  1  4  1  0  0  0  0
  2  5  1  0  0  0  0
  4 14  1  0  0  0  0
  4  3  1  0  0  0  0
  4  8  1  1  0  0  0
  5  9  1  0  0  0  0
  5  1  1  0  0  0  0
  6  9  2  0  0  0  0
  7  3  1  0  0  0  0
  9  7  1  0  0  0  0
 10 15  1  0  0  0  0
 11  9  2  0  0  0  0
 12 13  1  0  0  0  0
 12 14  2  0  0  0  0
 14 20  1  0  0  0  0
 15 23  1  1  0  0  0
 15 12  1  0  0  0  0
 16 21  1  0  0  0  0
 17 22  1  0  0  0  0
 19 18  1  0  0  0  0
 20 21  1  0  0  0  0
 20 17  2  0  0  0  0
 21 19  2  0  0  0  0
 22 18  2  0  0  0  0
 24 30  2  0  0  0  0
 25 23  1  1  0  0  0
 26 29  2  0  0  0  0
 27 28  2  0  0  0  0
 28 25  1  0  0  0  0
 29 25  1  0  0  0  0
 30 26  1  0  0  0  0
 30 27  1  0  0  0  0
 31 33  1  0  0  0  0
 33 27  1  0  0  0  0
 33 32  1  0  0  0  0
M  END
>  <MODEL>
5

>  <REMARK>
 VINA RESULT:      -4.4      3.721      7.719
  Name = 
  4 active torsions:
  status: ('A' for Active; 'I' for Inactive)
    1  A    between atoms: C_2  and  C_16
    2  A    between atoms: C_2  and  C_33
    3  A    between atoms: C_9  and  C_32
    4  A    between atoms: C_21  and  C_23
                            x       y       z     vdW  Elec       q    Type
                         _______ _______ _______ _____ _____    ______ ____

>  <TORSDO>
F 4

$$$$
=
 OpenBabel11072412293D

 33 36  0  0  1  0  0  0  0  0999 V2000
  161.5860  208.7500  149.6050 C   0  0  2  0  0  3  0  0  0  0  0  0
  162.0250  207.5100  147.6210 C   0  0  0  0  0  1  0  0  0  0  0  0
  160.6770  207.7880  151.7500 C   0  0  0  0  0  2  0  0  0  0  0  0
  161.6460  208.8260  151.1570 C   0  0  1  0  0  0  0  0  0  0  0  0
  162.1550  207.5040  149.0730 N   0  0  0  0  0  0  0  0  0  0  0  0
  161.8690  204.8760  149.3280 O   0  0  0  0  0  0  0  0  0  0  0  0
  161.0490  206.3490  151.4130 C   0  0  0  0  0  2  0  0  0  0  0  0
  163.0680  208.5510  151.6460 C   0  0  0  0  0  1  0  0  0  0  0  0
  161.1930  206.1790  149.6530 S   0  0  0  0  0  0  0  0  0  0  0  0
  162.2760  209.9100  149.0450 N   0  0  0  0  0  2  0  0  0  0  0  0
  159.8230  206.2060  149.0330 O   0  0  0  0  0  0  0  0  0  0  0  0
  161.2000  211.2680  150.7800 C   0  0  0  0  0  0  0  0  0  0  0  0
  160.8520  212.5340  151.2490 O   0  0  0  0  0  1  0  0  0  0  0  0
  161.2480  210.2220  151.6340 C   0  0  0  0  0  0  0  0  0  0  0  0
  161.4390  211.0790  149.3010 C   0  0  1  0  0  3  0  0  0  0  0  0
  158.6220  210.8210  152.7450 N   0  0  0  0  0  1  0  0  0  0  0  0
  162.1330  210.3940  153.9560 C   0  0  0  0  0  3  0  0  0  0  0  0
  160.6910  210.8870  155.8340 C   0  0  0  0  0  3  0  0  0  0  0  0
  159.5920  210.9560  154.9740 C   0  0  0  0  0  3  0  0  0  0  0  0
  161.0380  210.4660  153.0820 C   0  0  0  0  0  0  0  0  0  0  0  0
  159.7580  210.7450  153.6010 C   0  0  0  0  0  0  0  0  0  0  0  0
  161.9610  210.6060  155.3250 C   0  0  0  0  0  3  0  0  0  0  0  0
  162.0970  212.3140  148.6980 C   0  0  0  0  0  2  0  0  0  0  0  0
  157.6380  212.5350  145.6260 O   0  0  0  0  0  0  0  0  0  0  0  0
  161.1470  213.0410  147.7570 C   0  0  2  0  0  3  0  0  0  0  0  0
  159.9740  212.2050  145.7230 C   0  0  0  0  0  3  0  0  0  0  0  0
  158.6450  213.0350  147.7240 C   0  0  0  0  0  0  0  0  0  0  0  0
  159.7920  213.1810  148.4040 C   0  0  0  0  0  3  0  0  0  0  0  0
  161.1080  212.3700  146.4040 C   0  0  0  0  0  3  0  0  0  0  0  0
  158.6910  212.6050  146.3140 C   0  0  0  0  0  0  0  0  0  0  0  0
  156.5950  214.4520  147.8670 C   0  0  0  0  0  1  0  0  0  0  0  0
  157.4810  213.3310  149.9090 C   0  0  0  0  0  1  0  0  0  0  0  0
  157.3200  213.2300  148.4030 C   0  0  0  0  0  3  0  0  0  0  0  0
  1 10  1  6  0  0  0
  1  4  1  0  0  0  0
  2  5  1  0  0  0  0
  4 14  1  0  0  0  0
  4  8  1  1  0  0  0
  4  3  1  0  0  0  0
  5  1  1  0  0  0  0
  5  9  1  0  0  0  0
  6  9  2  0  0  0  0
  7  3  1  0  0  0  0
  9  7  1  0  0  0  0
 10 15  1  0  0  0  0
 11  9  2  0  0  0  0
 12 13  1  0  0  0  0
 12 14  2  0  0  0  0
 14 20  1  0  0  0  0
 15 23  1  1  0  0  0
 15 12  1  0  0  0  0
 16 21  1  0  0  0  0
 17 22  1  0  0  0  0
 19 18  1  0  0  0  0
 20 21  1  0  0  0  0
 20 17  2  0  0  0  0
 21 19  2  0  0  0  0
 22 18  2  0  0  0  0
 24 30  2  0  0  0  0
 25 28  1  0  0  0  0
 25 23  1  1  0  0  0
 26 30  1  0  0  0  0
 26 29  2  0  0  0  0
 27 33  1  0  0  0  0
 27 28  2  0  0  0  0
 29 25  1  0  0  0  0
 30 27  1  0  0  0  0
 31 33  1  0  0  0  0
 33 32  1  0  0  0  0
M  END
>  <MODEL>
6

>  <REMARK>
 VINA RESULT:      -3.8      3.144      6.716
  Name = 
  4 active torsions:
  status: ('A' for Active; 'I' for Inactive)
    1  A    between atoms: C_2  and  C_16
    2  A    between atoms: C_2  and  C_33
    3  A    between atoms: C_9  and  C_32
    4  A    between atoms: C_21  and  C_23
                            x       y       z     vdW  Elec       q    Type
                         _______ _______ _______ _____ _____    ______ ____

>  <TORSDO>
F 4

$$$$
=
 OpenBabel11072412293D

 33 36  0  0  1  0  0  0  0  0999 V2000
  161.2480  204.4570  150.5850 C   0  0  2  0  0  3  0  0  0  0  0  0
  160.8550  203.5420  152.7480 C   0  0  0  0  0  1  0  0  0  0  0  0
  161.4230  203.1250  148.4530 C   0  0  0  0  0  2  0  0  0  0  0  0
  160.9200  204.4440  149.0650 C   0  0  1  0  0  0  0  0  0  0  0  0
  160.4570  203.4790  151.3470 N   0  0  0  0  0  0  0  0  0  0  0  0
  159.9280  200.8770  151.3660 O   0  0  0  0  0  0  0  0  0  0  0  0
  160.7260  201.8910  149.0150 C   0  0  0  0  0  2  0  0  0  0  0  0
  159.4140  204.5800  148.8470 C   0  0  0  0  0  1  0  0  0  0  0  0
  160.8740  201.8900  150.7830 S   0  0  0  0  0  0  0  0  0  0  0  0
  161.0360  205.8060  151.1060 N   0  0  0  0  0  2  0  0  0  0  0  0
  162.2860  201.5430  151.1680 O   0  0  0  0  0  0  0  0  0  0  0  0
  162.1080  206.6560  149.0720 C   0  0  0  0  0  0  0  0  0  0  0  0
  162.7070  207.7230  148.4050 O   0  0  0  0  0  1  0  0  0  0  0  0
  161.6030  205.6200  148.3670 C   0  0  0  0  0  0  0  0  0  0  0  0
  162.1080  206.6480  150.5820 C   0  0  1  0  0  3  0  0  0  0  0  0
  163.8520  204.7040  146.7580 N   0  0  0  0  0  1  0  0  0  0  0  0
  160.4690  206.2030  146.2280 C   0  0  0  0  0  3  0  0  0  0  0  0
  161.5210  205.8200  144.0840 C   0  0  0  0  0  3  0  0  0  0  0  0
  162.6480  205.3030  144.7280 C   0  0  0  0  0  3  0  0  0  0  0  0
  161.5970  205.6910  146.8850 C   0  0  0  0  0  0  0  0  0  0  0  0
  162.6910  205.2340  146.1250 C   0  0  0  0  0  0  0  0  0  0  0  0
  160.4320  206.2700  144.8340 C   0  0  0  0  0  3  0  0  0  0  0  0
  161.9560  208.0610  151.1300 C   0  0  0  0  0  2  0  0  0  0  0  0
  159.9550  209.6040  155.9240 O   0  0  0  0  0  0  0  0  0  0  0  0
  160.8380  208.1350  152.1590 C   0  0  2  0  0  3  0  0  0  0  0  0
  160.9370  207.8850  154.6370 C   0  0  0  0  0  3  0  0  0  0  0  0
  160.1380  210.0610  153.5950 C   0  0  0  0  0  0  0  0  0  0  0  0
  160.4420  209.5730  152.3830 C   0  0  0  0  0  3  0  0  0  0  0  0
  161.2200  207.4050  153.4260 C   0  0  0  0  0  3  0  0  0  0  0  0
  160.3060  209.2020  154.7820 C   0  0  0  0  0  0  0  0  0  0  0  0
  159.8850  212.2780  152.4760 C   0  0  0  0  0  1  0  0  0  0  0  0
  160.4450  212.1620  154.9020 C   0  0  0  0  0  1  0  0  0  0  0  0
  159.7040  211.4890  153.7600 C   0  0  0  0  0  3  0  0  0  0  0  0
  1 10  1  1  0  0  0
  1  5  1  0  0  0  0
  3  7  1  0  0  0  0
  3  4  1  0  0  0  0
  4  8  1  6  0  0  0
  4  1  1  0  0  0  0
  5  2  1  0  0  0  0
  7  9  1  0  0  0  0
  9 11  2  0  0  0  0
  9  5  1  0  0  0  0
  9  6  2  0  0  0  0
 12 15  1  0  0  0  0
 13 12  1  0  0  0  0
 14  4  1  0  0  0  0
 14 12  2  0  0  0  0
 15 10  1  0  0  0  0
 15 23  1  1  0  0  0
 17 20  1  0  0  0  0
 18 19  2  0  0  0  0
 18 22  1  0  0  0  0
 19 21  1  0  0  0  0
 20 14  1  0  0  0  0
 21 16  1  0  0  0  0
 21 20  2  0  0  0  0
 22 17  2  0  0  0  0
 25 23  1  6  0  0  0
 25 28  1  0  0  0  0
 25 29  1  0  0  0  0
 26 30  1  0  0  0  0
 27 33  1  0  0  0  0
 27 30  1  0  0  0  0
 28 27  2  0  0  0  0
 29 26  2  0  0  0  0
 30 24  2  0  0  0  0
 31 33  1  0  0  0  0
 33 32  1  0  0  0  0
M  END
>  <MODEL>
7

>  <REMARK>
 VINA RESULT:      -3.5      1.264      1.595
  Name = 
  4 active torsions:
  status: ('A' for Active; 'I' for Inactive)
    1  A    between atoms: C_2  and  C_16
    2  A    between atoms: C_2  and  C_33
    3  A    between atoms: C_9  and  C_32
    4  A    between atoms: C_21  and  C_23
                            x       y       z     vdW  Elec       q    Type
                         _______ _______ _______ _____ _____    ______ ____

>  <TORSDO>
F 4

$$$$
=
 OpenBabel11072412293D

 33 36  0  0  1  0  0  0  0  0999 V2000
  161.4130  208.8980  151.4190 C   0  0  2  0  0  3  0  0  0  0  0  0
  161.9000  208.4500  149.1320 C   0  0  0  0  0  1  0  0  0  0  0  0
  161.4690  211.1750  152.4980 C   0  0  0  0  0  2  0  0  0  0  0  0
  160.7350  209.8230  152.4690 C   0  0  1  0  0  0  0  0  0  0  0  0
  161.2040  209.3560  150.0380 N   0  0  0  0  0  0  0  0  0  0  0  0
  161.5750  211.5200  148.5430 O   0  0  0  0  0  0  0  0  0  0  0  0
  161.3780  211.9430  151.1840 C   0  0  0  0  0  2  0  0  0  0  0  0
  159.2630  210.0340  152.1170 C   0  0  0  0  0  1  0  0  0  0  0  0
  161.9590  210.9110  149.8630 S   0  0  0  0  0  0  0  0  0  0  0  0
  160.9130  207.5360  151.5900 N   0  0  0  0  0  2  0  0  0  0  0  0
  163.4560  210.7860  149.9450 O   0  0  0  0  0  0  0  0  0  0  0  0
  161.0980  207.8750  154.0110 C   0  0  0  0  0  0  0  0  0  0  0  0
  161.1280  207.3150  155.2870 O   0  0  0  0  0  1  0  0  0  0  0  0
  160.7980  209.1820  153.8560 C   0  0  0  0  0  0  0  0  0  0  0  0
  161.4820  207.0160  152.8290 C   0  0  1  0  0  3  0  0  0  0  0  0
  162.7470  210.3870  155.6550 N   0  0  0  0  0  1  0  0  0  0  0  0
  159.0310  210.1670  155.3090 C   0  0  0  0  0  3  0  0  0  0  0  0
  159.5780  211.4900  157.2590 C   0  0  0  0  0  3  0  0  0  0  0  0
  160.9390  211.3090  157.0000 C   0  0  0  0  0  3  0  0  0  0  0  0
  160.3950  209.9750  155.0430 C   0  0  0  0  0  0  0  0  0  0  0  0
  161.3530  210.5570  155.8960 C   0  0  0  0  0  0  0  0  0  0  0  0
  158.6250  210.9190  156.4130 C   0  0  0  0  0  3  0  0  0  0  0  0
  161.0220  205.5780  153.0340 C   0  0  0  0  0  2  0  0  0  0  0  0
  160.6890  202.0890  148.9020 O   0  0  0  0  0  0  0  0  0  0  0  0
  161.6490  204.6470  152.0060 C   0  0  2  0  0  3  0  0  0  0  0  0
  160.9030  202.3980  151.2320 C   0  0  0  0  0  3  0  0  0  0  0  0
  161.0630  204.3350  149.5940 C   0  0  0  0  0  0  0  0  0  0  0  0
  161.3620  205.1530  150.6150 C   0  0  0  0  0  3  0  0  0  0  0  0
  161.2150  203.2180  152.2370 C   0  0  0  0  0  3  0  0  0  0  0  0
  160.8910  202.8930  149.8500 C   0  0  0  0  0  0  0  0  0  0  0  0
  162.1350  205.0410  147.4530 C   0  0  0  0  0  1  0  0  0  0  0  0
  160.0850  206.2040  148.2640 C   0  0  0  0  0  1  0  0  0  0  0  0
  160.8310  204.8820  148.2150 C   0  0  0  0  0  3  0  0  0  0  0  0
  1 10  1  6  0  0  0
  1  4  1  0  0  0  0
  2  5  1  0  0  0  0
  4  8  1  6  0  0  0
  4  3  1  0  0  0  0
  4 14  1  0  0  0  0
  5  1  1  0  0  0  0
  6  9  2  0  0  0  0
  7  3  1  0  0  0  0
  9 11  2  0  0  0  0
  9  5  1  0  0  0  0
  9  7  1  0  0  0  0
 10 15  1  0  0  0  0
 12 13  1  0  0  0  0
 14 12  2  0  0  0  0
 14 20  1  0  0  0  0
 15 23  1  1  0  0  0
 15 12  1  0  0  0  0
 16 21  1  0  0  0  0
 17 22  1  0  0  0  0
 19 18  1  0  0  0  0
 20 17  2  0  0  0  0
 20 21  1  0  0  0  0
 21 19  2  0  0  0  0
 22 18  2  0  0  0  0
 24 30  2  0  0  0  0
 25 29  1  0  0  0  0
 25 23  1  1  0  0  0
 26 29  2  0  0  0  0
 27 30  1  0  0  0  0
 27 28  2  0  0  0  0
 28 25  1  0  0  0  0
 30 26  1  0  0  0  0
 31 33  1  0  0  0  0
 33 32  1  0  0  0  0
 33 27  1  0  0  0  0
M  END
>  <MODEL>
8

>  <REMARK>
 VINA RESULT:      -3.5      2.729      8.353
  Name = 
  4 active torsions:
  status: ('A' for Active; 'I' for Inactive)
    1  A    between atoms: C_2  and  C_16
    2  A    between atoms: C_2  and  C_33
    3  A    between atoms: C_9  and  C_32
    4  A    between atoms: C_21  and  C_23
                            x       y       z     vdW  Elec       q    Type
                         _______ _______ _______ _____ _____    ______ ____

>  <TORSDO>
F 4

$$$$
=
 OpenBabel11072412293D

 33 36  0  0  1  0  0  0  0  0999 V2000
  161.3130  205.5540  150.8980 C   0  0  2  0  0  3  0  0  0  0  0  0
  161.1030  205.0530  153.2150 C   0  0  0  0  0  1  0  0  0  0  0  0
  161.5770  203.8500  149.0600 C   0  0  0  0  0  2  0  0  0  0  0  0
  160.9410  205.2010  149.4300 C   0  0  1  0  0  0  0  0  0  0  0  0
  160.6700  204.6670  151.8780 N   0  0  0  0  0  0  0  0  0  0  0  0
  160.4560  202.0790  152.4330 O   0  0  0  0  0  0  0  0  0  0  0  0
  161.0510  202.6840  149.8890 C   0  0  0  0  0  2  0  0  0  0  0  0
  159.4220  205.1240  149.2730 C   0  0  0  0  0  1  0  0  0  0  0  0
  161.2540  203.0530  151.6120 S   0  0  0  0  0  0  0  0  0  0  0  0
  160.9600  206.9480  151.1560 N   0  0  0  0  0  2  0  0  0  0  0  0
  162.7100  202.9480  151.9790 O   0  0  0  0  0  0  0  0  0  0  0  0
  161.8560  207.4860  148.9390 C   0  0  0  0  0  0  0  0  0  0  0  0
  162.3020  208.4590  148.0450 O   0  0  0  0  0  1  0  0  0  0  0  0
  161.4560  206.2810  148.4790 C   0  0  0  0  0  0  0  0  0  0  0  0
  161.9060  207.7810  150.4190 C   0  0  1  0  0  3  0  0  0  0  0  0
  163.6560  205.0750  146.9980 N   0  0  0  0  0  1  0  0  0  0  0  0
  160.2340  206.4150  146.3130 C   0  0  0  0  0  3  0  0  0  0  0  0
  161.2100  205.6170  144.2490 C   0  0  0  0  0  3  0  0  0  0  0  0
  162.3680  205.2470  144.9390 C   0  0  0  0  0  3  0  0  0  0  0  0
  161.3930  206.0530  147.0150 C   0  0  0  0  0  0  0  0  0  0  0  0
  162.4640  205.4600  146.3180 C   0  0  0  0  0  0  0  0  0  0  0  0
  160.1440  206.2000  144.9360 C   0  0  0  0  0  3  0  0  0  0  0  0
  161.6050  209.2500  150.6890 C   0  0  0  0  0  2  0  0  0  0  0  0
  160.3330  210.3490  155.8400 O   0  0  0  0  0  0  0  0  0  0  0  0
  161.9770  209.6360  152.1130 C   0  0  2  0  0  3  0  0  0  0  0  0
  160.8320  211.1880  153.6910 C   0  0  0  0  0  3  0  0  0  0  0  0
  161.1040  208.7300  154.2750 C   0  0  0  0  0  0  0  0  0  0  0  0
  161.6240  208.5150  153.0580 C   0  0  0  0  0  3  0  0  0  0  0  0
  161.3650  210.9650  152.4900 C   0  0  0  0  0  3  0  0  0  0  0  0
  160.7490  210.1040  154.6770 C   0  0  0  0  0  0  0  0  0  0  0  0
  159.3250  207.4630  155.4850 C   0  0  0  0  0  1  0  0  0  0  0  0
  161.5900  207.7060  156.4960 C   0  0  0  0  0  1  0  0  0  0  0  0
  160.8120  207.5820  155.1980 C   0  0  0  0  0  3  0  0  0  0  0  0
  1 10  1  1  0  0  0
  1  5  1  0  0  0  0
  3  4  1  0  0  0  0
  3  7  1  0  0  0  0
  4  8  1  6  0  0  0
  4  1  1  0  0  0  0
  5  2  1  0  0  0  0
  7  9  1  0  0  0  0
  9  5  1  0  0  0  0
  9 11  2  0  0  0  0
  9  6  2  0  0  0  0
 12 15  1  0  0  0  0
 13 12  1  0  0  0  0
 14 12  2  0  0  0  0
 14  4  1  0  0  0  0
 15 23  1  6  0  0  0
 15 10  1  0  0  0  0
 17 20  1  0  0  0  0
 18 22  1  0  0  0  0
 18 19  2  0  0  0  0
 19 21  1  0  0  0  0
 20 14  1  0  0  0  0
 21 16  1  0  0  0  0
 21 20  2  0  0  0  0
 22 17  2  0  0  0  0
 25 23  1  6  0  0  0
 25 29  1  0  0  0  0
 25 28  1  0  0  0  0
 26 30  1  0  0  0  0
 27 30  1  0  0  0  0
 27 33  1  0  0  0  0
 28 27  2  0  0  0  0
 29 26  2  0  0  0  0
 30 24  2  0  0  0  0
 33 31  1  0  0  0  0
 33 32  1  0  0  0  0
M  END
>  <MODEL>
9

>  <REMARK>
 VINA RESULT:      -3.4      1.192      2.359
  Name = 
  4 active torsions:
  status: ('A' for Active; 'I' for Inactive)
    1  A    between atoms: C_2  and  C_16
    2  A    between atoms: C_2  and  C_33
    3  A    between atoms: C_9  and  C_32
    4  A    between atoms: C_21  and  C_23
                            x       y       z     vdW  Elec       q    Type
                         _______ _______ _______ _____ _____    ______ ____

>  <TORSDO>
F 4

$$$$
