=
 OpenBabel11072414253D

 26 30  0  0  1  0  0  0  0  0999 V2000
  160.6000  209.2470  154.5330 C   0  0  2  0  0  3  0  0  0  0  0  0
  159.7200  207.3020  155.5310 O   0  0  0  0  0  0  0  0  0  0  0  0
  161.7330  208.7670  152.4050 O   0  0  0  0  0  0  0  0  0  0  0  0
  161.6990  209.5560  155.5040 C   0  0  0  0  0  2  0  0  0  0  0  0
  160.2650  207.7790  154.5480 C   0  0  0  0  0  0  0  0  0  0  0  0
  160.5730  206.8930  153.3810 C   0  0  2  0  0  3  0  0  0  0  0  0
  161.6780  204.7180  153.0510 N   0  0  0  0  0  2  0  0  0  0  0  0
  160.6460  205.5350  150.8430 C   0  0  0  0  0  2  0  0  0  0  0  0
  161.1110  209.7810  153.1870 C   0  0  2  0  0  0  0  0  0  0  0  0
  162.7000  210.3390  154.6880 C   0  0  0  0  0  2  0  0  0  0  0  0
  161.7810  206.0200  153.7020 C   0  0  0  0  0  2  0  0  0  0  0  0
  161.5490  203.3660  151.1690 O   0  0  0  0  0  0  0  0  0  0  0  0
  161.3330  206.8940  150.9270 C   0  0  2  0  0  3  0  0  0  0  0  0
  161.3380  204.4980  151.6750 C   0  0  0  0  0  0  0  0  0  0  0  0
  162.0930  210.7490  153.4890 O   0  0  0  0  0  0  0  0  0  0  0  0
  160.8190  207.7340  152.1180 C   0  0  2  0  0  3  0  0  0  0  0  0
  159.9290  210.4240  152.4170 C   0  0  2  0  0  3  0  0  0  0  0  0
  160.1450  211.8020  152.2200 O   0  0  0  0  0  0  0  0  0  0  0  0
  159.2060  211.4480  153.2070 C   0  0  0  0  0  2  0  0  0  0  0  0
  161.2120  207.5920  149.5640 C   0  0  1  0  0  3  0  0  0  0  0  0
  161.9920  209.6620  148.6840 O   0  0  0  0  0  0  0  0  0  0  0  0
  162.2710  208.6100  149.2380 C   0  0  0  0  0  3  0  0  0  0  0  0
  160.7750  206.6980  148.4010 C   0  0  0  0  0  2  0  0  0  0  0  0
  161.9140  206.3280  147.4680 C   0  0  0  0  0  3  0  0  0  0  0  0
  161.3390  205.9050  146.1320 C   0  0  0  0  0  2  0  0  0  0  0  0
  161.8040  204.8580  147.1170 C   0  0  0  0  0  2  0  0  0  0  0  0
  1  5  1  0  0  0  0
  1  4  1  1  0  0  0
  5  2  2  0  0  0  0
  6 11  1  1  0  0  0
  6  5  1  0  0  0  0
  7 11  1  0  0  0  0
  8 13  1  0  0  0  0
  8 14  1  0  0  0  0
  9  3  1  6  0  0  0
  9 15  1  0  0  0  0
  9  1  1  0  0  0  0
 10  4  1  0  0  0  0
 12 14  2  0  0  0  0
 13 20  1  6  0  0  0
 13 16  1  0  0  0  0
 14  7  1  0  0  0  0
 15 10  1  0  0  0  0
 16  3  1  1  0  0  0
 16  6  1  0  0  0  0
 17  9  1  0  0  0  0
 17 19  1  1  0  0  0
 18 17  1  0  0  0  0
 18 19  1  0  0  0  0
 20 23  1  6  0  0  0
 21 22  2  0  0  0  0
 22 20  1  0  0  0  0
 24 23  1  0  0  0  0
 25 26  1  0  0  0  0
 25 24  1  0  0  0  0
 26 24  1  0  0  0  0
M  END
>  <MODEL>
1

>  <REMARK>
 VINA RESULT:      -6.7      0.000      0.000
  Name = 
  5 active torsions:
  status: ('A' for Active; 'I' for Inactive)
    1  A    between atoms: C_2  and  C_9
    2  A    between atoms: C_9  and  C_23
    3  A    between atoms: C_13  and  C_14
    4  A    between atoms: C_19  and  C_23
    5  A    between atoms: C_23  and  C_26
                            x       y       z     vdW  Elec       q    Type
                         _______ _______ _______ _____ _____    ______ ____

>  <TORSDO>
F 5

$$$$
=
 OpenBabel11072414253D

 26 30  0  0  1  0  0  0  0  0999 V2000
  161.2080  202.2390  145.7060 C   0  0  2  0  0  3  0  0  0  0  0  0
  161.5760  200.3130  147.0130 O   0  0  0  0  0  0  0  0  0  0  0  0
  160.5830  204.1830  147.0730 O   0  0  0  0  0  0  0  0  0  0  0  0
  159.9500  201.8310  145.0010 C   0  0  0  0  0  2  0  0  0  0  0  0
  161.3510  201.5130  147.0170 C   0  0  0  0  0  0  0  0  0  0  0  0
  161.2340  202.2300  148.3260 C   0  0  2  0  0  3  0  0  0  0  0  0
  159.9910  201.8960  150.4250 N   0  0  0  0  0  2  0  0  0  0  0  0
  161.6240  203.8670  150.6630 C   0  0  0  0  0  2  0  0  0  0  0  0
  161.1110  203.7670  145.8190 C   0  0  2  0  0  0  0  0  0  0  0  0
  159.2810  203.1410  144.6580 C   0  0  0  0  0  2  0  0  0  0  0  0
  159.8890  201.9140  148.9690 C   0  0  0  0  0  2  0  0  0  0  0  0
  160.4150  202.9140  152.4670 O   0  0  0  0  0  0  0  0  0  0  0  0
  161.1060  204.5580  149.4060 C   0  0  2  0  0  3  0  0  0  0  0  0
  160.6300  202.8990  151.2280 C   0  0  0  0  0  0  0  0  0  0  0  0
  160.2080  204.1850  144.8170 O   0  0  0  0  0  0  0  0  0  0  0  0
  161.4080  203.7440  148.1270 C   0  0  2  0  0  3  0  0  0  0  0  0
  162.5140  204.3820  145.5790 C   0  0  2  0  0  3  0  0  0  0  0  0
  162.5280  205.7520  145.9060 O   0  0  0  0  0  0  0  0  0  0  0  0
  162.5210  205.4330  144.5340 C   0  0  0  0  0  2  0  0  0  0  0  0
  161.6410  205.9980  149.3780 C   0  0  1  0  0  3  0  0  0  0  0  0
  161.3940  208.0570  148.2100 O   0  0  0  0  0  0  0  0  0  0  0  0
  160.9270  206.9580  148.4660 C   0  0  0  0  0  3  0  0  0  0  0  0
  162.0690  206.5680  150.7320 C   0  0  0  0  0  2  0  0  0  0  0  0
  160.9100  207.1040  151.5530 C   0  0  0  0  0  3  0  0  0  0  0  0
  161.4100  208.2250  152.4400 C   0  0  0  0  0  2  0  0  0  0  0  0
  161.1850  206.8480  153.0200 C   0  0  0  0  0  2  0  0  0  0  0  0
  1  4  1  1  0  0  0
  1  9  1  0  0  0  0
  1  5  1  0  0  0  0
  2  5  2  0  0  0  0
  5  6  1  0  0  0  0
  6 11  1  6  0  0  0
  7 14  1  0  0  0  0
  8 14  1  0  0  0  0
  9 15  1  6  0  0  0
  9  3  1  0  0  0  0
 10 15  1  0  0  0  0
 10  4  1  0  0  0  0
 11  7  1  0  0  0  0
 13 20  1  6  0  0  0
 13  8  1  0  0  0  0
 14 12  2  0  0  0  0
 16  3  1  6  0  0  0
 16  6  1  0  0  0  0
 16 13  1  0  0  0  0
 17 19  1  6  0  0  0
 17  9  1  0  0  0  0
 17 18  1  0  0  0  0
 19 18  1  0  0  0  0
 20 22  1  1  0  0  0
 20 23  1  0  0  0  0
 21 22  2  0  0  0  0
 23 24  1  0  0  0  0
 24 25  1  0  0  0  0
 24 26  1  0  0  0  0
 25 26  1  0  0  0  0
M  END
>  <MODEL>
2

>  <REMARK>
 VINA RESULT:      -6.5      3.020      7.655
  Name = 
  5 active torsions:
  status: ('A' for Active; 'I' for Inactive)
    1  A    between atoms: C_2  and  C_9
    2  A    between atoms: C_9  and  C_23
    3  A    between atoms: C_13  and  C_14
    4  A    between atoms: C_19  and  C_23
    5  A    between atoms: C_23  and  C_26
                            x       y       z     vdW  Elec       q    Type
                         _______ _______ _______ _____ _____    ______ ____

>  <TORSDO>
F 5

$$$$
=
 OpenBabel11072414253D

 26 30  0  0  1  0  0  0  0  0999 V2000
  161.3310  204.9140  146.2070 C   0  0  2  0  0  3  0  0  0  0  0  0
  160.2180  206.9420  145.7600 O   0  0  0  0  0  0  0  0  0  0  0  0
  162.3980  204.9090  148.4210 O   0  0  0  0  0  0  0  0  0  0  0  0
  162.4600  205.0210  145.2260 C   0  0  0  0  0  2  0  0  0  0  0  0
  160.8170  206.2760  146.5890 C   0  0  0  0  0  0  0  0  0  0  0  0
  161.0150  206.8300  147.9660 C   0  0  2  0  0  3  0  0  0  0  0  0
  161.8430  208.9410  148.9250 N   0  0  0  0  0  2  0  0  0  0  0  0
  160.9210  207.4220  150.7820 C   0  0  0  0  0  2  0  0  0  0  0  0
  161.9050  204.0890  147.3680 C   0  0  2  0  0  0  0  0  0  0  0  0
  163.5500  204.1660  145.8270 C   0  0  0  0  0  2  0  0  0  0  0  0
  162.1050  207.8950  147.9420 C   0  0  0  0  0  2  0  0  0  0  0  0
  161.5490  209.6870  151.1030 O   0  0  0  0  0  0  0  0  0  0  0  0
  161.7700  206.2320  150.3480 C   0  0  2  0  0  3  0  0  0  0  0  0
  161.4780  208.7250  150.2960 C   0  0  0  0  0  0  0  0  0  0  0  0
  162.9990  203.3680  146.8430 O   0  0  0  0  0  0  0  0  0  0  0  0
  161.3630  205.7050  148.9530 C   0  0  2  0  0  3  0  0  0  0  0  0
  160.8130  203.1200  147.8880 C   0  0  2  0  0  3  0  0  0  0  0  0
  161.3510  201.8460  148.1550 O   0  0  0  0  0  0  0  0  0  0  0  0
  160.5750  201.9680  146.9860 C   0  0  0  0  0  2  0  0  0  0  0  0
  161.7360  205.1710  151.4580 C   0  0  1  0  0  3  0  0  0  0  0  0
  161.1720  205.7870  153.6860 O   0  0  0  0  0  0  0  0  0  0  0  0
  162.0500  205.6500  152.8490 C   0  0  0  0  0  3  0  0  0  0  0  0
  160.6090  204.1410  151.3520 C   0  0  0  0  0  2  0  0  0  0  0  0
  160.9020  202.8510  152.0980 C   0  0  0  0  0  3  0  0  0  0  0  0
  162.1810  202.2480  151.5550 C   0  0  0  0  0  2  0  0  0  0  0  0
  160.8430  201.6940  151.1220 C   0  0  0  0  0  2  0  0  0  0  0  0
  1  4  1  6  0  0  0
  1  5  1  0  0  0  0
  1  9  1  0  0  0  0
  2  5  2  0  0  0  0
  4 10  1  0  0  0  0
  5  6  1  0  0  0  0
  6 11  1  6  0  0  0
  6 16  1  0  0  0  0
  7 14  1  0  0  0  0
  9 15  1  6  0  0  0
  9 17  1  0  0  0  0
  9  3  1  0  0  0  0
 10 15  1  0  0  0  0
 11  7  1  0  0  0  0
 13  8  1  0  0  0  0
 13 20  1  1  0  0  0
 14  8  1  0  0  0  0
 14 12  2  0  0  0  0
 16  3  1  6  0  0  0
 16 13  1  0  0  0  0
 17 19  1  6  0  0  0
 17 18  1  0  0  0  0
 19 18  1  0  0  0  0
 20 23  1  1  0  0  0
 20 22  1  0  0  0  0
 22 21  2  0  0  0  0
 23 24  1  0  0  0  0
 25 24  1  0  0  0  0
 26 25  1  0  0  0  0
 26 24  1  0  0  0  0
M  END
>  <MODEL>
3

>  <REMARK>
 VINA RESULT:      -5.6      2.822      7.303
  Name = 
  5 active torsions:
  status: ('A' for Active; 'I' for Inactive)
    1  A    between atoms: C_2  and  C_9
    2  A    between atoms: C_9  and  C_23
    3  A    between atoms: C_13  and  C_14
    4  A    between atoms: C_19  and  C_23
    5  A    between atoms: C_23  and  C_26
                            x       y       z     vdW  Elec       q    Type
                         _______ _______ _______ _____ _____    ______ ____

>  <TORSDO>
F 5

$$$$
=
 OpenBabel11072414253D

 26 30  0  0  1  0  0  0  0  0999 V2000
  161.2340  204.8430  146.6060 C   0  0  2  0  0  3  0  0  0  0  0  0
  160.3470  206.9210  145.9400 O   0  0  0  0  0  0  0  0  0  0  0  0
  162.2190  204.9320  148.8570 O   0  0  0  0  0  0  0  0  0  0  0  0
  162.4010  204.7510  145.6690 C   0  0  0  0  0  2  0  0  0  0  0  0
  160.8480  206.2770  146.8480 C   0  0  0  0  0  0  0  0  0  0  0  0
  161.0540  206.9310  148.1800 C   0  0  2  0  0  3  0  0  0  0  0  0
  162.0570  209.0280  148.9890 N   0  0  0  0  0  2  0  0  0  0  0  0
  160.9230  207.7790  150.9290 C   0  0  0  0  0  2  0  0  0  0  0  0
  161.6820  204.0730  147.8580 C   0  0  2  0  0  0  0  0  0  0  0  0
  163.3780  203.8510  146.3870 C   0  0  0  0  0  2  0  0  0  0  0  0
  162.2460  207.8770  148.1110 C   0  0  0  0  0  2  0  0  0  0  0  0
  161.7660  209.9910  151.0800 O   0  0  0  0  0  0  0  0  0  0  0  0
  161.6620  206.4770  150.6340 C   0  0  2  0  0  3  0  0  0  0  0  0
  161.6260  208.9720  150.3560 C   0  0  0  0  0  0  0  0  0  0  0  0
  162.7150  203.2040  147.4430 O   0  0  0  0  0  0  0  0  0  0  0  0
  161.2530  205.8700  149.2740 C   0  0  2  0  0  3  0  0  0  0  0  0
  160.4800  203.2660  148.4110 C   0  0  2  0  0  3  0  0  0  0  0  0
  160.9160  202.1240  149.1120 O   0  0  0  0  0  0  0  0  0  0  0  0
  160.3720  201.9060  147.8310 C   0  0  0  0  0  2  0  0  0  0  0  0
  161.4840  205.5280  151.8290 C   0  0  1  0  0  3  0  0  0  0  0  0
  161.2140  203.1740  152.0450 O   0  0  0  0  0  0  0  0  0  0  0  0
  161.8860  204.0950  151.6090 C   0  0  0  0  0  3  0  0  0  0  0  0
  161.8460  206.1130  153.1960 C   0  0  0  0  0  2  0  0  0  0  0  0
  160.6550  206.6980  153.9340 C   0  0  0  0  0  3  0  0  0  0  0  0
  160.9820  208.1160  154.3530 C   0  0  0  0  0  2  0  0  0  0  0  0
  161.0590  206.9950  155.3630 C   0  0  0  0  0  2  0  0  0  0  0  0
  1  4  1  6  0  0  0
  1  5  1  0  0  0  0
  1  9  1  0  0  0  0
  2  5  2  0  0  0  0
  4 10  1  0  0  0  0
  5  6  1  0  0  0  0
  6 11  1  6  0  0  0
  6 16  1  0  0  0  0
  7 14  1  0  0  0  0
  9 15  1  6  0  0  0
  9 17  1  0  0  0  0
  9  3  1  0  0  0  0
 10 15  1  0  0  0  0
 11  7  1  0  0  0  0
 13  8  1  0  0  0  0
 13 20  1  1  0  0  0
 14  8  1  0  0  0  0
 14 12  2  0  0  0  0
 16  3  1  6  0  0  0
 16 13  1  0  0  0  0
 17 19  1  6  0  0  0
 17 18  1  0  0  0  0
 19 18  1  0  0  0  0
 20 22  1  6  0  0  0
 20 23  1  0  0  0  0
 22 21  2  0  0  0  0
 23 24  1  0  0  0  0
 24 25  1  0  0  0  0
 24 26  1  0  0  0  0
 25 26  1  0  0  0  0
M  END
>  <MODEL>
4

>  <REMARK>
 VINA RESULT:      -5.5      2.359      7.411
  Name = 
  5 active torsions:
  status: ('A' for Active; 'I' for Inactive)
    1  A    between atoms: C_2  and  C_9
    2  A    between atoms: C_9  and  C_23
    3  A    between atoms: C_13  and  C_14
    4  A    between atoms: C_19  and  C_23
    5  A    between atoms: C_23  and  C_26
                            x       y       z     vdW  Elec       q    Type
                         _______ _______ _______ _____ _____    ______ ____

>  <TORSDO>
F 5

$$$$
=
 OpenBabel11072414253D

 26 30  0  0  1  0  0  0  0  0999 V2000
  161.1390  201.6540  150.1220 C   0  0  2  0  0  3  0  0  0  0  0  0
  162.4430  201.7570  152.0820 O   0  0  0  0  0  0  0  0  0  0  0  0
  160.1540  203.8310  149.5480 O   0  0  0  0  0  0  0  0  0  0  0  0
  159.9950  200.8230  150.6210 C   0  0  0  0  0  2  0  0  0  0  0  0
  161.8050  202.3890  151.2550 C   0  0  0  0  0  0  0  0  0  0  0  0
  161.7140  203.8770  151.3850 C   0  0  2  0  0  3  0  0  0  0  0  0
  161.1440  205.4690  153.1740 N   0  0  0  0  0  2  0  0  0  0  0  0
  161.9650  206.7310  151.0910 C   0  0  0  0  0  2  0  0  0  0  0  0
  160.5220  202.5530  149.0410 C   0  0  2  0  0  0  0  0  0  0  0  0
  158.8420  201.2120  149.7260 C   0  0  0  0  0  2  0  0  0  0  0  0
  160.7400  204.2390  152.5000 C   0  0  0  0  0  2  0  0  0  0  0  0
  161.5890  207.7470  153.2010 O   0  0  0  0  0  0  0  0  0  0  0  0
  160.9820  206.0190  150.1680 C   0  0  2  0  0  3  0  0  0  0  0  0
  161.5310  206.6880  152.5250 C   0  0  0  0  0  0  0  0  0  0  0  0
  159.3410  201.9090  148.6130 O   0  0  0  0  0  0  0  0  0  0  0  0
  161.2830  204.5080  150.0500 C   0  0  2  0  0  3  0  0  0  0  0  0
  161.5240  202.6920  147.8670 C   0  0  2  0  0  3  0  0  0  0  0  0
  160.8690  202.5730  146.6260 O   0  0  0  0  0  0  0  0  0  0  0  0
  161.6320  201.4660  147.0420 C   0  0  0  0  0  2  0  0  0  0  0  0
  160.9420  206.7610  148.8240 C   0  0  1  0  0  3  0  0  0  0  0  0
  161.6580  209.0220  148.6340 O   0  0  0  0  0  0  0  0  0  0  0  0
  161.9690  207.8420  148.6270 C   0  0  0  0  0  3  0  0  0  0  0  0
  160.6560  205.8900  147.5980 C   0  0  0  0  0  2  0  0  0  0  0  0
  161.0710  206.5390  146.2900 C   0  0  0  0  0  3  0  0  0  0  0  0
  160.5170  205.7260  145.1390 C   0  0  0  0  0  2  0  0  0  0  0  0
  161.9690  205.5850  145.5300 C   0  0  0  0  0  2  0  0  0  0  0  0
  1  4  1  1  0  0  0
  1  5  1  0  0  0  0
  5  6  1  0  0  0  0
  5  2  2  0  0  0  0
  6 11  1  1  0  0  0
  8 14  1  0  0  0  0
  9 15  1  6  0  0  0
  9  3  1  0  0  0  0
  9  1  1  0  0  0  0
 10  4  1  0  0  0  0
 11  7  1  0  0  0  0
 13 20  1  6  0  0  0
 13  8  1  0  0  0  0
 14  7  1  0  0  0  0
 14 12  2  0  0  0  0
 15 10  1  0  0  0  0
 16  3  1  1  0  0  0
 16 13  1  0  0  0  0
 16  6  1  0  0  0  0
 17 19  1  1  0  0  0
 17  9  1  0  0  0  0
 18 19  1  0  0  0  0
 18 17  1  0  0  0  0
 20 23  1  6  0  0  0
 22 21  2  0  0  0  0
 22 20  1  0  0  0  0
 24 23  1  0  0  0  0
 25 26  1  0  0  0  0
 25 24  1  0  0  0  0
 26 24  1  0  0  0  0
M  END
>  <MODEL>
5

>  <REMARK>
 VINA RESULT:      -5.4      2.557      6.306
  Name = 
  5 active torsions:
  status: ('A' for Active; 'I' for Inactive)
    1  A    between atoms: C_2  and  C_9
    2  A    between atoms: C_9  and  C_23
    3  A    between atoms: C_13  and  C_14
    4  A    between atoms: C_19  and  C_23
    5  A    between atoms: C_23  and  C_26
                            x       y       z     vdW  Elec       q    Type
                         _______ _______ _______ _____ _____    ______ ____

>  <TORSDO>
F 5

$$$$
=
 OpenBabel11072414253D

 26 30  0  0  1  0  0  0  0  0999 V2000
  160.5030  209.4700  154.9460 C   0  0  2  0  0  3  0  0  0  0  0  0
  159.2910  207.5140  155.4520 O   0  0  0  0  0  0  0  0  0  0  0  0
  162.0540  209.1410  153.0680 O   0  0  0  0  0  0  0  0  0  0  0  0
  161.3720  209.5540  156.1650 C   0  0  0  0  0  2  0  0  0  0  0  0
  160.0750  208.0510  154.6860 C   0  0  0  0  0  0  0  0  0  0  0  0
  160.5800  207.2840  153.5020 C   0  0  2  0  0  3  0  0  0  0  0  0
  161.5810  205.0680  153.1220 N   0  0  0  0  0  2  0  0  0  0  0  0
  161.1340  206.2380  150.8780 C   0  0  0  0  0  2  0  0  0  0  0  0
  161.3410  210.1090  153.8290 C   0  0  2  0  0  0  0  0  0  0  0  0
  162.5820  210.3280  155.7000 C   0  0  0  0  0  2  0  0  0  0  0  0
  161.6210  206.2670  153.9530 C   0  0  0  0  0  2  0  0  0  0  0  0
  161.7910  203.9690  151.0890 O   0  0  0  0  0  0  0  0  0  0  0  0
  161.8740  207.5050  151.2940 C   0  0  2  0  0  3  0  0  0  0  0  0
  161.5470  205.0470  151.6880 C   0  0  0  0  0  0  0  0  0  0  0  0
  162.2920  210.9350  154.4670 O   0  0  0  0  0  0  0  0  0  0  0  0
  161.1620  208.2420  152.4500 C   0  0  2  0  0  3  0  0  0  0  0  0
  160.4110  210.9510  152.9190 C   0  0  2  0  0  3  0  0  0  0  0  0
  160.1450  212.2100  153.4920 O   0  0  0  0  0  0  0  0  0  0  0  0
  159.1050  211.2630  153.5450 C   0  0  0  0  0  2  0  0  0  0  0  0
  162.1130  208.3690  150.0470 C   0  0  1  0  0  3  0  0  0  0  0  0
  162.3270  207.3880  147.8890 O   0  0  0  0  0  0  0  0  0  0  0  0
  161.5800  207.8290  148.7480 C   0  0  0  0  0  3  0  0  0  0  0  0
  161.9540  209.8780  150.2500 C   0  0  0  0  0  2  0  0  0  0  0  0
  161.5920  210.6210  148.9760 C   0  0  0  0  0  3  0  0  0  0  0  0
  162.7070  211.5870  148.6350 C   0  0  0  0  0  2  0  0  0  0  0  0
  161.4440  212.0950  149.2910 C   0  0  0  0  0  2  0  0  0  0  0  0
  1  4  1  1  0  0  0
  5  1  1  0  0  0  0
  5  2  2  0  0  0  0
  6 11  1  1  0  0  0
  6  5  1  0  0  0  0
  7 11  1  0  0  0  0
  8 13  1  0  0  0  0
  8 14  1  0  0  0  0
  9  3  1  6  0  0  0
  9 15  1  0  0  0  0
  9  1  1  0  0  0  0
 10  4  1  0  0  0  0
 12 14  2  0  0  0  0
 13 20  1  6  0  0  0
 13 16  1  0  0  0  0
 14  7  1  0  0  0  0
 15 10  1  0  0  0  0
 16  3  1  1  0  0  0
 16  6  1  0  0  0  0
 17 18  1  0  0  0  0
 17 19  1  1  0  0  0
 17  9  1  0  0  0  0
 18 19  1  0  0  0  0
 20 22  1  6  0  0  0
 20 23  1  0  0  0  0
 21 22  2  0  0  0  0
 24 26  1  0  0  0  0
 24 23  1  0  0  0  0
 25 24  1  0  0  0  0
 25 26  1  0  0  0  0
M  END
>  <MODEL>
6

>  <REMARK>
 VINA RESULT:      -5.1      1.347      2.423
  Name = 
  5 active torsions:
  status: ('A' for Active; 'I' for Inactive)
    1  A    between atoms: C_2  and  C_9
    2  A    between atoms: C_9  and  C_23
    3  A    between atoms: C_13  and  C_14
    4  A    between atoms: C_19  and  C_23
    5  A    between atoms: C_23  and  C_26
                            x       y       z     vdW  Elec       q    Type
                         _______ _______ _______ _____ _____    ______ ____

>  <TORSDO>
F 5

$$$$
=
 OpenBabel11072414253D

 26 30  0  0  1  0  0  0  0  0999 V2000
  162.0810  206.2440  150.7720 C   0  0  2  0  0  3  0  0  0  0  0  0
  163.1490  205.3460  152.6710 O   0  0  0  0  0  0  0  0  0  0  0  0
  160.4630  207.9980  151.3600 O   0  0  0  0  0  0  0  0  0  0  0  0
  161.2520  205.0630  150.3650 C   0  0  0  0  0  2  0  0  0  0  0  0
  162.3910  206.2020  152.2450 C   0  0  0  0  0  0  0  0  0  0  0  0
  161.7990  207.1940  153.1980 C   0  0  2  0  0  3  0  0  0  0  0  0
  160.6190  207.0910  155.3560 N   0  0  0  0  0  2  0  0  0  0  0  0
  161.1000  209.5350  154.7220 C   0  0  0  0  0  2  0  0  0  0  0  0
  161.2680  207.4640  150.3150 C   0  0  2  0  0  0  0  0  0  0  0  0
  160.0940  205.6720  149.6090 C   0  0  0  0  0  2  0  0  0  0  0  0
  160.6920  206.5310  154.0100 C   0  0  0  0  0  2  0  0  0  0  0  0
  160.2730  208.8450  156.8360 O   0  0  0  0  0  0  0  0  0  0  0  0
  160.4710  209.3890  153.3400 C   0  0  2  0  0  3  0  0  0  0  0  0
  160.6150  208.4890  155.6790 C   0  0  0  0  0  0  0  0  0  0  0  0
  160.4010  207.0080  149.3000 O   0  0  0  0  0  0  0  0  0  0  0  0
  161.2670  208.4200  152.4380 C   0  0  2  0  0  3  0  0  0  0  0  0
  162.2380  208.5390  149.7610 C   0  0  2  0  0  3  0  0  0  0  0  0
  161.7040  209.1600  148.6160 O   0  0  0  0  0  0  0  0  0  0  0  0
  162.7380  208.2290  148.4010 C   0  0  0  0  0  2  0  0  0  0  0  0
  160.2700  210.7880  152.7400 C   0  0  1  0  0  3  0  0  0  0  0  0
  160.7330  212.0220  150.7580 O   0  0  0  0  0  0  0  0  0  0  0  0
  161.0490  211.0970  151.4900 C   0  0  0  0  0  3  0  0  0  0  0  0
  158.8360  211.3210  152.7730 C   0  0  0  0  0  2  0  0  0  0  0  0
  158.5330  212.1540  154.0050 C   0  0  0  0  0  3  0  0  0  0  0  0
  157.7040  211.3290  154.9670 C   0  0  0  0  0  2  0  0  0  0  0  0
  157.0360  212.3680  154.0990 C   0  0  0  0  0  2  0  0  0  0  0  0
  1  4  1  1  0  0  0
  1  5  1  0  0  0  0
  5  2  2  0  0  0  0
  5  6  1  0  0  0  0
  6 11  1  6  0  0  0
  7 14  1  0  0  0  0
  8 14  1  0  0  0  0
  9 15  1  6  0  0  0
  9  1  1  0  0  0  0
  9  3  1  0  0  0  0
 10  4  1  0  0  0  0
 11  7  1  0  0  0  0
 13 20  1  6  0  0  0
 13  8  1  0  0  0  0
 14 12  2  0  0  0  0
 15 10  1  0  0  0  0
 16  3  1  6  0  0  0
 16  6  1  0  0  0  0
 16 13  1  0  0  0  0
 17 19  1  6  0  0  0
 17  9  1  0  0  0  0
 18 17  1  0  0  0  0
 19 18  1  0  0  0  0
 20 22  1  6  0  0  0
 20 23  1  0  0  0  0
 21 22  2  0  0  0  0
 23 24  1  0  0  0  0
 24 26  1  0  0  0  0
 24 25  1  0  0  0  0
 26 25  1  0  0  0  0
M  END
>  <MODEL>
7

>  <REMARK>
 VINA RESULT:      -4.8      1.837      5.821
  Name = 
  5 active torsions:
  status: ('A' for Active; 'I' for Inactive)
    1  A    between atoms: C_2  and  C_9
    2  A    between atoms: C_9  and  C_23
    3  A    between atoms: C_13  and  C_14
    4  A    between atoms: C_19  and  C_23
    5  A    between atoms: C_23  and  C_26
                            x       y       z     vdW  Elec       q    Type
                         _______ _______ _______ _____ _____    ______ ____

>  <TORSDO>
F 5

$$$$
=
 OpenBabel11072414253D

 26 30  0  0  1  0  0  0  0  0999 V2000
  160.8310  205.6340  151.5600 C   0  0  2  0  0  3  0  0  0  0  0  0
  159.4030  203.8540  152.1440 O   0  0  0  0  0  0  0  0  0  0  0  0
  162.2320  205.0990  149.6130 O   0  0  0  0  0  0  0  0  0  0  0  0
  161.7620  205.6090  152.7340 C   0  0  0  0  0  2  0  0  0  0  0  0
  160.2110  204.2810  151.3350 C   0  0  0  0  0  0  0  0  0  0  0  0
  160.5530  203.4510  150.1370 C   0  0  2  0  0  3  0  0  0  0  0  0
  161.2400  201.1220  149.7320 N   0  0  0  0  0  2  0  0  0  0  0  0
  160.8380  202.3310  147.4990 C   0  0  0  0  0  2  0  0  0  0  0  0
  161.6880  206.1550  150.3970 C   0  0  2  0  0  0  0  0  0  0  0  0
  163.0380  206.2180  152.2030 C   0  0  0  0  0  2  0  0  0  0  0  0
  161.4760  202.3090  150.5470 C   0  0  0  0  0  2  0  0  0  0  0  0
  161.2060  199.9960  147.7020 O   0  0  0  0  0  0  0  0  0  0  0  0
  161.7550  203.4930  147.8660 C   0  0  2  0  0  3  0  0  0  0  0  0
  161.1330  201.1000  148.3010 C   0  0  0  0  0  0  0  0  0  0  0  0
  162.7680  206.8530  150.9790 O   0  0  0  0  0  0  0  0  0  0  0  0
  161.2020  204.3210  149.0480 C   0  0  2  0  0  3  0  0  0  0  0  0
  160.8310  207.1060  149.5240 C   0  0  2  0  0  3  0  0  0  0  0  0
  161.4710  207.3840  148.3000 O   0  0  0  0  0  0  0  0  0  0  0  0
  161.4870  208.4100  149.2640 C   0  0  0  0  0  2  0  0  0  0  0  0
  162.0410  204.3140  146.6010 C   0  0  1  0  0  3  0  0  0  0  0  0
  164.2060  204.1040  145.6340 O   0  0  0  0  0  0  0  0  0  0  0  0
  163.4710  204.7290  146.3820 C   0  0  0  0  0  3  0  0  0  0  0  0
  161.2810  203.8780  145.3450 C   0  0  0  0  0  2  0  0  0  0  0  0
  160.7820  205.0440  144.5110 C   0  0  0  0  0  3  0  0  0  0  0  0
  160.4560  206.2030  145.4280 C   0  0  0  0  0  2  0  0  0  0  0  0
  159.3440  205.3370  144.8860 C   0  0  0  0  0  2  0  0  0  0  0  0
  1  4  1  1  0  0  0
  5  1  1  0  0  0  0
  5  2  2  0  0  0  0
  6 11  1  1  0  0  0
  6  5  1  0  0  0  0
  7 11  1  0  0  0  0
  8 13  1  0  0  0  0
  8 14  1  0  0  0  0
  9  3  1  6  0  0  0
  9 15  1  0  0  0  0
  9  1  1  0  0  0  0
 10  4  1  0  0  0  0
 12 14  2  0  0  0  0
 13 20  1  6  0  0  0
 13 16  1  0  0  0  0
 14  7  1  0  0  0  0
 15 10  1  0  0  0  0
 16  3  1  1  0  0  0
 16  6  1  0  0  0  0
 17 19  1  1  0  0  0
 17  9  1  0  0  0  0
 18 19  1  0  0  0  0
 18 17  1  0  0  0  0
 20 23  1  6  0  0  0
 21 22  2  0  0  0  0
 22 20  1  0  0  0  0
 24 26  1  0  0  0  0
 24 23  1  0  0  0  0
 24 25  1  0  0  0  0
 26 25  1  0  0  0  0
M  END
>  <MODEL>
8

>  <REMARK>
 VINA RESULT:      -4.8      3.285      4.717
  Name = 
  5 active torsions:
  status: ('A' for Active; 'I' for Inactive)
    1  A    between atoms: C_2  and  C_9
    2  A    between atoms: C_9  and  C_23
    3  A    between atoms: C_13  and  C_14
    4  A    between atoms: C_19  and  C_23
    5  A    between atoms: C_23  and  C_26
                            x       y       z     vdW  Elec       q    Type
                         _______ _______ _______ _____ _____    ______ ____

>  <TORSDO>
F 5

$$$$
=
 OpenBabel11072414253D

 26 30  0  0  1  0  0  0  0  0999 V2000
  162.0590  205.8200  150.8470 C   0  0  2  0  0  3  0  0  0  0  0  0
  163.1250  205.4810  152.9210 O   0  0  0  0  0  0  0  0  0  0  0  0
  160.5980  207.7970  150.8680 O   0  0  0  0  0  0  0  0  0  0  0  0
  161.1300  204.6440  150.8430 C   0  0  0  0  0  2  0  0  0  0  0  0
  162.4180  206.2190  152.2540 C   0  0  0  0  0  0  0  0  0  0  0  0
  161.9360  207.5050  152.8510 C   0  0  2  0  0  3  0  0  0  0  0  0
  160.8300  208.1820  154.9430 N   0  0  0  0  0  2  0  0  0  0  0  0
  161.4690  210.2550  153.5640 C   0  0  0  0  0  2  0  0  0  0  0  0
  161.3230  206.8970  150.0370 C   0  0  2  0  0  0  0  0  0  0  0  0
  159.9940  205.0770  149.9470 C   0  0  0  0  0  2  0  0  0  0  0  0
  160.8140  207.2240  153.8430 C   0  0  0  0  0  2  0  0  0  0  0  0
  160.6700  210.3350  155.7960 O   0  0  0  0  0  0  0  0  0  0  0  0
  160.7820  209.7340  152.3060 C   0  0  2  0  0  3  0  0  0  0  0  0
  160.9430  209.6060  154.8080 C   0  0  0  0  0  0  0  0  0  0  0  0
  160.3880  206.2180  149.2270 O   0  0  0  0  0  0  0  0  0  0  0  0
  161.4700  208.4680  151.7480 C   0  0  2  0  0  3  0  0  0  0  0  0
  162.3490  207.6600  149.1610 C   0  0  2  0  0  3  0  0  0  0  0  0
  161.7090  208.3380  148.1050 O   0  0  0  0  0  0  0  0  0  0  0  0
  162.4090  207.1650  147.7650 C   0  0  0  0  0  2  0  0  0  0  0  0
  160.6630  210.8850  151.2960 C   0  0  1  0  0  3  0  0  0  0  0  0
  158.9340  212.4190  151.8620 O   0  0  0  0  0  0  0  0  0  0  0  0
  160.1320  212.1890  151.8280 C   0  0  0  0  0  3  0  0  0  0  0  0
  161.8120  211.0010  150.2900 C   0  0  0  0  0  2  0  0  0  0  0  0
  161.6840  212.2000  149.3680 C   0  0  0  0  0  3  0  0  0  0  0  0
  161.3780  211.7140  147.9670 C   0  0  0  0  0  2  0  0  0  0  0  0
  162.7820  212.1400  148.3270 C   0  0  0  0  0  2  0  0  0  0  0  0
  1  4  1  1  0  0  0
  1  5  1  0  0  0  0
  5  6  1  0  0  0  0
  5  2  2  0  0  0  0
  6 11  1  1  0  0  0
  8 14  1  0  0  0  0
  9 15  1  6  0  0  0
  9  1  1  0  0  0  0
  9  3  1  0  0  0  0
 10  4  1  0  0  0  0
 11  7  1  0  0  0  0
 13 20  1  6  0  0  0
 13  8  1  0  0  0  0
 14  7  1  0  0  0  0
 14 12  2  0  0  0  0
 15 10  1  0  0  0  0
 16  3  1  6  0  0  0
 16 13  1  0  0  0  0
 16  6  1  0  0  0  0
 17 19  1  6  0  0  0
 17  9  1  0  0  0  0
 18 17  1  0  0  0  0
 19 18  1  0  0  0  0
 20 23  1  1  0  0  0
 20 22  1  0  0  0  0
 22 21  2  0  0  0  0
 24 23  1  0  0  0  0
 25 26  1  0  0  0  0
 25 24  1  0  0  0  0
 26 24  1  0  0  0  0
M  END
>  <MODEL>
9

>  <REMARK>
 VINA RESULT:      -4.7      2.159      5.307
  Name = 
  5 active torsions:
  status: ('A' for Active; 'I' for Inactive)
    1  A    between atoms: C_2  and  C_9
    2  A    between atoms: C_9  and  C_23
    3  A    between atoms: C_13  and  C_14
    4  A    between atoms: C_19  and  C_23
    5  A    between atoms: C_23  and  C_26
                            x       y       z     vdW  Elec       q    Type
                         _______ _______ _______ _____ _____    ______ ____

>  <TORSDO>
F 5

$$$$
