=
 OpenBabel11072412563D

 70 78  0  0  1  0  0  0  0  0999 V2000
  160.2620  208.8200  151.1040 C   0  0  0  0  0  3  0  0  0  0  0  0
  159.7240  213.4970  153.6310 O   0  0  0  0  0  0  0  0  0  0  0  0
  157.9880  213.6750  155.1860 O   0  0  0  0  0  1  0  0  0  0  0  0
  163.4970  210.3070  147.9810 C   0  0  0  0  0  2  0  0  0  0  0  0
  160.7330  212.5770  149.2630 N   0  0  0  0  0  0  0  0  0  0  0  0
  158.2600  211.5950  154.0280 C   0  0  0  0  0  2  0  0  0  0  0  0
  162.9220  211.5990  148.5940 C   0  0  0  0  0  2  0  0  0  0  0  0
  161.3660  213.1320  151.4450 O   0  0  0  0  0  0  0  0  0  0  0  0
  161.6310  208.8880  149.0460 C   0  0  2  0  0  3  0  0  0  0  0  0
  158.9970  214.4520  153.0670 O   0  0  0  0  0  0  0  0  0  0  0  0
  161.5680  211.3750  149.2840 C   0  0  2  0  0  3  0  0  0  0  0  0
  158.9640  209.3710  153.0610 C   0  0  0  0  0  2  0  0  0  0  0  0
  161.4390  208.5180  150.4140 O   0  0  0  0  0  0  0  0  0  0  0  0
  160.5420  213.2960  150.5010 C   0  0  0  0  0  0  0  0  0  0  0  0
  159.2000  210.8680  153.0860 C   0  0  0  0  0  2  0  0  0  0  0  0
  163.1450  209.0620  148.8060 C   0  0  0  0  0  2  0  0  0  0  0  0
  159.8830  212.3730  155.7220 C   0  0  0  0  0  1  0  0  0  0  0  0
  158.9500  212.8300  154.6180 C   0  0  1  0  0  0  0  0  0  0  0  0
  158.5030  213.9230  151.8610 C   0  0  2  0  0  3  0  0  0  0  0  0
  159.4190  214.2780  150.6840 C   0  0  0  0  0  2  0  0  0  0  0  0
  160.8440  210.1630  148.6990 C   0  0  0  0  0  2  0  0  0  0  0  0
  160.1710  208.7520  152.4320 C   0  0  0  0  0  0  0  0  0  0  0  0
  158.2860  214.1840  146.8860 O   0  0  0  0  0  0  0  0  0  0  0  0
  158.0310  213.6740  149.2690 C   0  0  0  0  0  1  0  0  0  0  0  0
  157.9550  212.5290  145.1620 C   0  0  0  0  0  2  0  0  0  0  0  0
  159.1290  211.5550  145.2320 C   0  0  0  0  0  2  0  0  0  0  0  0
  160.4900  212.2260  145.0200 C   0  0  2  0  0  3  0  0  0  0  0  0
  160.5600  213.4810  145.6430 O   0  0  0  0  0  0  0  0  0  0  0  0
  157.5800  213.0100  146.5580 C   0  0  0  0  0  2  0  0  0  0  0  0
  161.1870  213.2830  146.8850 C   0  0  2  0  0  3  0  0  0  0  0  0
  160.1370  212.9800  147.9770 C   0  0  2  0  0  3  0  0  0  0  0  0
  158.9790  213.9940  148.1070 C   0  0  1  0  0  3  0  0  0  0  0  0
  162.1180  214.4480  147.2630 C   0  0  0  0  0  3  0  0  0  0  0  0
  163.3960  213.9470  147.9080 C   0  0  0  0  0  2  0  0  0  0  0  0
  163.4180  214.4490  146.4770 C   0  0  0  0  0  2  0  0  0  0  0  0
  160.0150  213.4040  142.8320 C   0  0  0  0  0  1  0  0  0  0  0  0
  160.8360  212.3260  143.5320 C   0  0  1  0  0  3  0  0  0  0  0  0
  162.3260  212.5890  143.3680 C   0  0  0  0  0  2  0  0  0  0  0  0
  162.6110  213.2500  142.0330 C   0  0  0  0  0  2  0  0  0  0  0  0
  161.9480  212.5600  141.0210 O   0  0  0  0  0  1  0  0  0  0  0  0
  161.3710  209.0130  154.5260 N   0  0  0  0  0  2  0  0  0  0  0  0
  161.3390  208.2890  153.2750 C   0  0  1  0  0  3  0  0  0  0  0  0
  161.2310  206.8450  153.6640 C   0  0  2  0  0  3  0  0  0  0  0  0
  161.7660  208.1030  155.5250 N   0  0  0  0  0  2  0  0  0  0  0  0
  161.4880  206.7900  155.0880 N   0  0  0  0  0  2  0  0  0  0  0  0
  162.2430  205.9950  152.9160 C   0  0  0  0  0  2  0  0  0  0  0  0
  161.5360  204.8230  152.2600 C   0  0  0  0  0  2  0  0  0  0  0  0
  160.8290  205.2630  151.1410 O   0  0  0  0  0  0  0  0  0  0  0  0
  160.2840  204.1020  150.5900 C   0  0  0  0  0  2  0  0  0  0  0  0
  160.9740  203.7910  149.2710 C   0  0  2  0  0  3  0  0  0  0  0  0
  160.8560  205.5030  144.9240 C   0  0  0  0  0  2  0  0  0  0  0  0
  162.2450  205.9980  145.2820 C   0  0  2  0  0  3  0  0  0  0  0  0
  163.1270  204.8370  145.7670 C   0  0  0  0  0  2  0  0  0  0  0  0
  162.5620  204.3920  146.9840 O   0  0  0  0  0  0  0  0  0  0  0  0
  161.4110  205.0890  147.2770 C   0  0  0  0  0  0  0  0  0  0  0  0
  160.6720  204.8510  148.3170 N   0  0  0  0  0  0  0  0  0  0  0  0
  161.0950  206.1320  146.2820 C   0  0  2  0  0  3  0  0  0  0  0  0
  161.6320  201.7730  148.0960 C   0  0  2  0  0  3  0  0  0  0  0  0
  161.1450  201.3280  149.4120 N   0  0  0  0  0  2  0  0  0  0  0  0
  160.4930  202.4510  148.7200 C   0  0  1  0  0  3  0  0  0  0  0  0
  161.1610  200.8700  147.0510 N   0  0  0  0  0  0  0  0  0  0  0  0
  161.6080  199.6210  146.8210 C   0  0  0  0  0  3  0  0  0  0  0  0
  160.2730  201.1880  146.0970 C   0  0  0  0  0  3  0  0  0  0  0  0
  160.1270  200.1130  145.2410 C   0  0  0  0  0  3  0  0  0  0  0  0
  160.9730  199.1170  145.7030 C   0  0  0  0  0  3  0  0  0  0  0  0
  157.0740  214.4410  151.6610 C   0  0  2  0  0  3  0  0  0  0  0  0
  156.2700  214.4520  152.9470 C   0  0  0  0  0  1  0  0  0  0  0  0
  155.2000  214.3580  149.9440 N   0  0  0  0  0  1  0  0  0  0  0  0
  156.7130  212.6120  150.1690 O   0  0  0  0  0  0  0  0  0  0  0  0
  156.3360  213.7510  150.5520 C   0  0  0  0  0  0  0  0  0  0  0  0
  1 22  2  0  0  0  0
  2 18  1  0  0  0  0
  4  7  1  0  0  0  0
  4 16  1  0  0  0  0
  5 11  1  0  0  0  0
  5 14  1  0  0  0  0
  6 18  1  0  0  0  0
  9 21  1  1  0  0  0
  9 13  1  0  0  0  0
 10  2  1  0  0  0  0
 11  7  1  6  0  0  0
 12 15  1  0  0  0  0
 13  1  1  0  0  0  0
 14 20  1  0  0  0  0
 14  8  2  0  0  0  0
 15  6  1  0  0  0  0
 16  9  1  0  0  0  0
 18  3  1  0  0  0  0
 18 17  1  1  0  0  0
 19 66  1  6  0  0  0
 19 10  1  0  0  0  0
 20 19  1  0  0  0  0
 21 11  1  0  0  0  0
 22 12  1  0  0  0  0
 23 32  1  0  0  0  0
 25 26  1  0  0  0  0
 25 29  1  0  0  0  0
 27 37  1  6  0  0  0
 27 26  1  0  0  0  0
 27 28  1  0  0  0  0
 28 30  1  0  0  0  0
 29 23  1  0  0  0  0
 30 33  1  1  0  0  0
 30 31  1  0  0  0  0
 31 32  1  0  0  0  0
 31  5  1  1  0  0  0
 32 24  1  1  0  0  0
 33 34  1  0  0  0  0
 35 33  1  0  0  0  0
 35 34  1  0  0  0  0
 37 36  1  1  0  0  0
 38 37  1  0  0  0  0
 39 38  1  0  0  0  0
 40 39  1  0  0  0  0
 41 44  1  0  0  0  0
 42 22  1  6  0  0  0
 42 43  1  0  0  0  0
 42 41  1  0  0  0  0
 43 46  1  6  0  0  0
 43 45  1  0  0  0  0
 45 44  1  0  0  0  0
 47 46  1  0  0  0  0
 48 47  1  0  0  0  0
 49 48  1  0  0  0  0
 50 49  1  1  0  0  0
 52 51  1  6  0  0  0
 52 53  1  0  0  0  0
 52 57  1  0  0  0  0
 53 54  1  0  0  0  0
 54 55  1  0  0  0  0
 55 56  2  0  0  0  0
 56 50  1  0  0  0  0
 57 51  1  6  0  0  0
 57 55  1  0  0  0  0
 58 61  1  6  0  0  0
 58 60  1  0  0  0  0
 58 59  1  0  0  0  0
 60 50  1  1  0  0  0
 60 59  1  0  0  0  0
 62 61  1  0  0  0  0
 63 61  1  0  0  0  0
 64 65  1  0  0  0  0
 64 63  2  0  0  0  0
 65 62  2  0  0  0  0
 66 67  1  1  0  0  0
 68 70  1  0  0  0  0
 69 70  2  0  0  0  0
 70 66  1  0  0  0  0
M  END
>  <MODEL>
1

>  <REMARK>
 VINA RESULT:       1.0      0.000      0.000
  Name = 
  16 active torsions:
  status: ('A' for Active; 'I' for Inactive)
    1  A    between atoms: C_9  and  N_49
    2  A    between atoms: C_9  and  C_61
    3  A    between atoms: C_9  and  C_70
    4  A    between atoms: C_10  and  C_57
    5  A    between atoms: C_11  and  C_66
    6  A    between atoms: N_12  and  C_55
    7  A    between atoms: C_17  and  C_51
    8  A    between atoms: C_18  and  N_24
    9  A    between atoms: C_20  and  C_26
   10  A    between atoms: C_26  and  C_44
   11  A    between atoms: C_27  and  C_54
   12  A    between atoms: C_27  and  C_56
   13  A    between atoms: C_33  and  C_63
   14  A    between atoms: O_38  and  C_44
   15  A    between atoms: O_38  and  C_61
   16  A    between atoms: C_57  and  C_63
                            x       y       z     vdW  Elec       q    Type
                         _______ _______ _______ _____ _____    ______ ____

>  <TORSDO>
F 16

$$$$
=
 OpenBabel11072412563D

 70 78  0  0  1  0  0  0  0  0999 V2000
  160.3750  208.8730  150.7110 C   0  0  0  0  0  3  0  0  0  0  0  0
  159.6280  213.5150  153.2500 O   0  0  0  0  0  0  0  0  0  0  0  0
  157.8410  213.6320  154.7520 O   0  0  0  0  0  1  0  0  0  0  0  0
  163.6590  210.4740  147.6980 C   0  0  0  0  0  2  0  0  0  0  0  0
  160.7940  212.6560  148.9090 N   0  0  0  0  0  0  0  0  0  0  0  0
  158.2060  211.5700  153.5900 C   0  0  0  0  0  2  0  0  0  0  0  0
  163.0290  211.7440  148.3010 C   0  0  0  0  0  2  0  0  0  0  0  0
  161.3450  213.2130  151.1130 O   0  0  0  0  0  0  0  0  0  0  0  0
  161.8030  208.9950  148.6960 C   0  0  2  0  0  3  0  0  0  0  0  0
  158.8910  214.4530  152.6710 O   0  0  0  0  0  0  0  0  0  0  0  0
  161.6620  211.4780  148.9490 C   0  0  2  0  0  3  0  0  0  0  0  0
  159.0020  209.3740  152.6310 C   0  0  0  0  0  2  0  0  0  0  0  0
  161.5790  208.6090  150.0550 O   0  0  0  0  0  0  0  0  0  0  0  0
  160.5460  213.3600  150.1460 C   0  0  0  0  0  0  0  0  0  0  0  0
  159.1950  210.8760  152.6720 C   0  0  0  0  0  2  0  0  0  0  0  0
  163.3180  209.2130  148.5040 C   0  0  0  0  0  2  0  0  0  0  0  0
  159.7540  212.3800  155.3380 C   0  0  0  0  0  1  0  0  0  0  0  0
  158.8430  212.8200  154.2090 C   0  0  1  0  0  0  0  0  0  0  0  0
  158.4490  213.9190  151.4460 C   0  0  2  0  0  3  0  0  0  0  0  0
  159.3900  214.3080  150.3010 C   0  0  0  0  0  2  0  0  0  0  0  0
  160.9910  210.2500  148.3330 C   0  0  0  0  0  2  0  0  0  0  0  0
  160.2450  208.7940  152.0350 C   0  0  0  0  0  0  0  0  0  0  0  0
  158.4230  214.2830  146.4710 O   0  0  0  0  0  0  0  0  0  0  0  0
  158.1220  213.8230  148.8580 C   0  0  0  0  0  1  0  0  0  0  0  0
  158.0710  212.6070  144.7710 C   0  0  0  0  0  2  0  0  0  0  0  0
  159.2180  211.6040  144.8750 C   0  0  0  0  0  2  0  0  0  0  0  0
  160.5990  212.2350  144.6700 C   0  0  2  0  0  3  0  0  0  0  0  0
  160.6930  213.4990  145.2720 O   0  0  0  0  0  0  0  0  0  0  0  0
  157.6910  213.1220  146.1530 C   0  0  0  0  0  2  0  0  0  0  0  0
  161.2990  213.3070  146.5260 C   0  0  2  0  0  3  0  0  0  0  0  0
  160.2270  213.0510  147.6090 C   0  0  2  0  0  3  0  0  0  0  0  0
  159.0940  214.0970  147.7040 C   0  0  1  0  0  3  0  0  0  0  0  0
  162.2550  214.4530  146.8960 C   0  0  0  0  0  3  0  0  0  0  0  0
  162.9700  214.1760  148.2040 C   0  0  0  0  0  2  0  0  0  0  0  0
  163.7160  214.0350  146.8900 C   0  0  0  0  0  2  0  0  0  0  0  0
  162.4780  212.3500  142.9800 C   0  0  0  0  0  1  0  0  0  0  0  0
  160.9680  212.2990  143.1860 C   0  0  1  0  0  3  0  0  0  0  0  0
  160.3610  211.1100  142.4540 C   0  0  0  0  0  2  0  0  0  0  0  0
  160.2400  211.3970  140.9690 C   0  0  0  0  0  2  0  0  0  0  0  0
  160.3960  212.7630  140.7470 O   0  0  0  0  0  1  0  0  0  0  0  0
  161.5190  209.2340  154.0540 N   0  0  0  0  0  2  0  0  0  0  0  0
  161.3990  208.3570  152.9100 C   0  0  1  0  0  3  0  0  0  0  0  0
  161.1980  206.9890  153.4890 C   0  0  2  0  0  3  0  0  0  0  0  0
  161.8750  208.4350  155.1570 N   0  0  0  0  0  2  0  0  0  0  0  0
  161.4900  207.1010  154.9030 N   0  0  0  0  0  2  0  0  0  0  0  0
  162.1230  205.9740  152.8420 C   0  0  0  0  0  2  0  0  0  0  0  0
  161.5660  204.5770  153.0450 C   0  0  0  0  0  2  0  0  0  0  0  0
  160.7360  204.2390  151.9760 O   0  0  0  0  0  0  0  0  0  0  0  0
  161.6070  203.7790  150.9860 C   0  0  0  0  0  2  0  0  0  0  0  0
  160.8700  203.6950  149.6590 C   0  0  2  0  0  3  0  0  0  0  0  0
  161.8280  199.9880  146.9800 C   0  0  0  0  0  2  0  0  0  0  0  0
  160.6580  200.5080  146.1670 C   0  0  2  0  0  3  0  0  0  0  0  0
  160.8780  201.9790  145.7770 C   0  0  0  0  0  2  0  0  0  0  0  0
  160.8530  202.7150  146.9850 O   0  0  0  0  0  0  0  0  0  0  0  0
  160.7090  201.8790  148.0690 C   0  0  0  0  0  0  0  0  0  0  0  0
  160.6990  202.2940  149.2990 N   0  0  0  0  0  0  0  0  0  0  0  0
  160.5770  200.4570  147.6930 C   0  0  2  0  0  3  0  0  0  0  0  0
  160.7440  205.3100  147.8510 C   0  0  2  0  0  3  0  0  0  0  0  0
  161.7090  205.8630  148.8150 N   0  0  0  0  0  2  0  0  0  0  0  0
  161.6570  204.4140  148.5660 C   0  0  1  0  0  3  0  0  0  0  0  0
  161.2160  205.5160  146.4860 N   0  0  0  0  0  0  0  0  0  0  0  0
  160.4600  205.8730  145.4310 C   0  0  0  0  0  3  0  0  0  0  0  0
  162.4660  205.2850  146.0580 C   0  0  0  0  0  3  0  0  0  0  0  0
  162.5260  205.5180  144.6970 C   0  0  0  0  0  3  0  0  0  0  0  0
  161.2520  205.8940  144.2990 C   0  0  0  0  0  3  0  0  0  0  0  0
  157.0130  214.3980  151.2060 C   0  0  2  0  0  3  0  0  0  0  0  0
  156.1920  214.4520  152.4810 C   0  0  0  0  0  1  0  0  0  0  0  0
  155.0700  214.1170  149.5900 N   0  0  0  0  0  1  0  0  0  0  0  0
  156.7920  212.5650  149.6930 O   0  0  0  0  0  0  0  0  0  0  0  0
  156.3030  213.6420  150.1220 C   0  0  0  0  0  0  0  0  0  0  0  0
  1 22  2  0  0  0  0
  2 18  1  0  0  0  0
  4  7  1  0  0  0  0
  4 16  1  0  0  0  0
  5 11  1  0  0  0  0
  5 14  1  0  0  0  0
  6 18  1  0  0  0  0
  9 21  1  1  0  0  0
  9 13  1  0  0  0  0
 10  2  1  0  0  0  0
 11  7  1  6  0  0  0
 12 15  1  0  0  0  0
 13  1  1  0  0  0  0
 14 20  1  0  0  0  0
 14  8  2  0  0  0  0
 15  6  1  0  0  0  0
 16  9  1  0  0  0  0
 18  3  1  0  0  0  0
 18 17  1  1  0  0  0
 19 66  1  6  0  0  0
 19 10  1  0  0  0  0
 20 19  1  0  0  0  0
 21 11  1  0  0  0  0
 22 12  1  0  0  0  0
 23 32  1  0  0  0  0
 25 26  1  0  0  0  0
 25 29  1  0  0  0  0
 27 37  1  6  0  0  0
 27 26  1  0  0  0  0
 27 28  1  0  0  0  0
 28 30  1  0  0  0  0
 29 23  1  0  0  0  0
 30 33  1  1  0  0  0
 30 31  1  0  0  0  0
 31 32  1  0  0  0  0
 31  5  1  1  0  0  0
 32 24  1  1  0  0  0
 33 34  1  0  0  0  0
 35 33  1  0  0  0  0
 35 34  1  0  0  0  0
 37 36  1  1  0  0  0
 38 37  1  0  0  0  0
 39 38  1  0  0  0  0
 40 39  1  0  0  0  0
 41 44  1  0  0  0  0
 42 22  1  6  0  0  0
 42 43  1  0  0  0  0
 42 41  1  0  0  0  0
 43 46  1  6  0  0  0
 43 45  1  0  0  0  0
 45 44  1  0  0  0  0
 46 47  1  0  0  0  0
 48 47  1  0  0  0  0
 49 48  1  0  0  0  0
 50 49  1  1  0  0  0
 52 53  1  1  0  0  0
 52 51  1  0  0  0  0
 52 57  1  0  0  0  0
 53 54  1  0  0  0  0
 54 55  1  0  0  0  0
 55 56  2  0  0  0  0
 56 50  1  0  0  0  0
 57 51  1  1  0  0  0
 57 55  1  0  0  0  0
 58 61  1  6  0  0  0
 58 60  1  0  0  0  0
 58 59  1  0  0  0  0
 60 59  1  0  0  0  0
 60 50  1  1  0  0  0
 62 61  1  0  0  0  0
 63 61  1  0  0  0  0
 64 63  2  0  0  0  0
 65 64  1  0  0  0  0
 65 62  2  0  0  0  0
 66 67  1  1  0  0  0
 68 70  1  0  0  0  0
 69 70  2  0  0  0  0
 70 66  1  0  0  0  0
M  END
>  <MODEL>
2

>  <REMARK>
 VINA RESULT:       3.0      0.839      2.360
  Name = 
  16 active torsions:
  status: ('A' for Active; 'I' for Inactive)
    1  A    between atoms: C_9  and  N_49
    2  A    between atoms: C_9  and  C_61
    3  A    between atoms: C_9  and  C_70
    4  A    between atoms: C_10  and  C_57
    5  A    between atoms: C_11  and  C_66
    6  A    between atoms: N_12  and  C_55
    7  A    between atoms: C_17  and  C_51
    8  A    between atoms: C_18  and  N_24
    9  A    between atoms: C_20  and  C_26
   10  A    between atoms: C_26  and  C_44
   11  A    between atoms: C_27  and  C_54
   12  A    between atoms: C_27  and  C_56
   13  A    between atoms: C_33  and  C_63
   14  A    between atoms: O_38  and  C_44
   15  A    between atoms: O_38  and  C_61
   16  A    between atoms: C_57  and  C_63
                            x       y       z     vdW  Elec       q    Type
                         _______ _______ _______ _____ _____    ______ ____

>  <TORSDO>
F 16

$$$$
