=
 OpenBabel11072410063D

 69 71  0  0  1  0  0  0  0  0999 V2000
  159.0870  211.9170  151.7990 C   0  0  1  0  0  3  0  0  0  0  0  0
  161.2230  207.5180  150.1970 C   0  0  0  0  0  2  0  0  0  0  0  0
  161.2980  210.8170  152.3720 C   0  0  0  0  0  2  0  0  0  0  0  0
  160.6440  211.3000  147.0590 C   0  0  0  0  0  0  0  0  0  0  0  0
  161.7420  208.2790  152.5420 C   0  0  1  0  0  3  0  0  0  0  0  0
  160.3900  208.2780  152.9120 O   0  0  0  0  0  1  0  0  0  0  0  0
  158.9500  213.5160  150.2690 C   0  0  2  0  0  3  0  0  0  0  0  0
  162.0110  207.2260  151.4710 C   0  0  1  0  0  3  0  0  0  0  0  0
  160.5210  208.9230  147.7490 C   0  0  0  0  0  2  0  0  0  0  0  0
  157.9580  214.4440  150.5980 O   0  0  0  0  0  1  0  0  0  0  0  0
  160.4180  211.6280  145.8640 O   0  0  0  0  0  0  0  0  0  0  0  0
  159.6490  213.1420  151.4210 O   0  0  0  0  0  0  0  0  0  0  0  0
  161.7140  205.8260  151.9780 C   0  0  0  0  0  1  0  0  0  0  0  0
  163.4730  209.9060  152.6030 F   0  0  0  0  0  0  0  0  0  0  0  0
  160.4050  213.3800  148.2730 C   0  0  0  0  0  0  0  0  0  0  0  0
  162.3520  210.3410  148.3600 O   0  0  0  0  0  1  0  0  0  0  0  0
  160.0520  210.7730  151.4910 C   0  0  0  0  0  2  0  0  0  0  0  0
  161.9920  207.1520  148.9230 C   0  0  1  0  0  3  0  0  0  0  0  0
  161.2490  207.5770  147.6460 C   0  0  1  0  0  3  0  0  0  0  0  0
  160.1510  212.1090  148.1350 N   0  0  0  0  0  0  0  0  0  0  0  0
  162.2330  209.6540  152.0530 C   0  0  2  0  0  3  0  0  0  0  0  0
  159.8430  214.0990  149.3320 O   0  0  0  0  0  0  0  0  0  0  0  0
  161.4340  210.0680  147.3450 C   0  0  2  0  0  3  0  0  0  0  0  0
  161.3190  214.0800  147.3550 C   0  0  0  0  0  3  0  0  0  0  0  0
  161.9010  213.8590  143.8940 O   0  0  0  0  0  1  0  0  0  0  0  0
  160.8670  214.1130  144.7840 C   0  0  0  0  0  0  0  0  0  0  0  0
  161.1070  214.0910  146.0680 C   0  0  0  0  0  0  0  0  0  0  0  0
  159.4810  214.4490  144.2970 C   0  0  2  0  0  3  0  0  0  0  0  0
  158.3800  213.8360  145.1190 C   0  0  0  0  0  3  0  0  0  0  0  0
  158.3400  212.6360  145.3420 O   0  0  0  0  0  0  0  0  0  0  0  0
  159.3050  214.2450  142.8920 O   0  0  0  0  0  0  0  0  0  0  0  0
  159.5840  213.0540  142.2110 C   0  0  0  0  0  0  0  0  0  0  0  0
  159.6350  213.0580  140.9520 O   0  0  0  0  0  0  0  0  0  0  0  0
  159.8080  211.8680  142.8980 O   0  0  0  0  0  1  0  0  0  0  0  0
  160.3120  206.5140  147.1710 C   0  0  0  0  0  3  0  0  0  0  0  0
  160.7290  205.5940  146.3010 C   0  0  0  0  0  3  0  0  0  0  0  0
  159.8010  204.5580  145.7470 C   0  0  0  0  0  2  0  0  0  0  0  0
  160.5710  203.4800  144.9850 C   0  0  0  0  0  2  0  0  0  0  0  0
  162.2650  202.0200  145.8050 O   0  0  0  0  0  0  0  0  0  0  0  0
  161.0740  202.4170  145.9080 C   0  0  0  0  0  0  0  0  0  0  0  0
  160.2220  201.8910  146.9220 N   0  0  0  0  0  2  0  0  0  0  0  0
  160.7310  201.0230  147.9700 C   0  0  0  0  0  2  0  0  0  0  0  0
  160.4970  203.1340  149.2780 C   0  0  0  0  0  3  0  0  0  0  0  0
  161.5550  199.8150  150.4280 F   0  0  0  0  0  0  0  0  0  0  0  0
  160.8150  201.7720  149.2540 C   0  0  0  0  0  0  0  0  0  0  0  0
  160.5830  203.8540  150.4720 C   0  0  0  0  0  3  0  0  0  0  0  0
  161.3160  201.8570  151.6240 C   0  0  0  0  0  3  0  0  0  0  0  0
  161.2380  201.1330  150.4290 C   0  0  0  0  0  0  0  0  0  0  0  0
  160.9900  203.2150  151.6450 C   0  0  0  0  0  3  0  0  0  0  0  0
  163.4120  207.6990  148.9020 C   0  0  0  0  0  2  0  0  0  0  0  0
  164.3480  206.6710  148.3020 C   0  0  0  0  0  2  0  0  0  0  0  0
  163.5600  205.6790  147.4690 C   0  0  0  0  0  2  0  0  0  0  0  0
  164.5040  204.6220  146.9360 C   0  0  0  0  0  1  0  0  0  0  0  0
  158.7100  211.9330  153.2780 C   0  0  0  0  0  2  0  0  0  0  0  0
  159.2350  213.1780  153.9770 C   0  0  0  0  0  2  0  0  0  0  0  0
  160.3500  212.8580  154.7770 O   0  0  0  0  0  0  0  0  0  0  0  0
  159.2620  210.1370  155.3660 O   0  0  0  0  0  0  0  0  0  0  0  0
  157.9170  211.3020  156.9460 O   0  0  0  0  0  1  0  0  0  0  0  0
  159.9080  212.4410  156.0590 C   0  0  1  0  0  0  0  0  0  0  0  0
  162.7710  210.4060  156.9150 C   0  0  0  0  0  2  0  0  0  0  0  0
  158.7980  211.3900  155.8530 C   0  0  1  0  0  3  0  0  0  0  0  0
  160.2450  208.0840  156.1100 C   0  0  0  0  0  0  0  0  0  0  0  0
  161.0720  211.8600  156.8780 C   0  0  0  0  0  2  0  0  0  0  0  0
  162.2240  209.0260  157.2550 C   0  0  0  0  0  2  0  0  0  0  0  0
  161.9060  211.0930  156.0560 O   0  0  0  0  0  0  0  0  0  0  0  0
  159.3600  213.5220  156.7630 O   0  0  0  0  0  1  0  0  0  0  0  0
  159.7850  206.8350  156.0960 C   0  0  0  0  0  2  0  0  0  0  0  0
  161.7210  208.3200  156.0040 C   0  0  0  0  0  2  0  0  0  0  0  0
  159.3030  209.2040  156.4210 C   0  0  0  0  0  2  0  0  0  0  0  0
  1 54  1  1  0  0  0
  2  8  1  0  0  0  0
  4 23  1  0  0  0  0
  4 20  1  0  0  0  0
  5  6  1  6  0  0  0
  7 10  1  1  0  0  0
  7 12  1  0  0  0  0
  8 13  1  1  0  0  0
  8  5  1  0  0  0  0
 11  4  2  0  0  0  0
 12  1  1  0  0  0  0
 15 22  1  0  0  0  0
 17  1  1  0  0  0  0
 17  3  1  0  0  0  0
 18 50  1  1  0  0  0
 18  2  1  0  0  0  0
 19 35  1  1  0  0  0
 19  9  1  0  0  0  0
 19 18  1  0  0  0  0
 20 15  2  0  0  0  0
 21  3  1  0  0  0  0
 21  5  1  0  0  0  0
 21 14  1  1  0  0  0
 22  7  1  0  0  0  0
 23  9  1  0  0  0  0
 23 16  1  1  0  0  0
 24 15  1  0  0  0  0
 25 26  1  0  0  0  0
 26 27  2  0  0  0  0
 27 24  2  0  0  0  0
 28 26  1  0  0  0  0
 28 29  1  1  0  0  0
 29 30  2  0  0  0  0
 31 28  1  0  0  0  0
 32 31  1  0  0  0  0
 32 34  1  0  0  0  0
 33 32  2  0  0  0  0
 36 35  2  0  0  0  0
 37 36  1  0  0  0  0
 38 37  1  0  0  0  0
 38 40  1  0  0  0  0
 39 40  2  0  0  0  0
 40 41  1  0  0  0  0
 41 42  1  0  0  0  0
 42 45  1  0  0  0  0
 43 46  1  0  0  0  0
 44 48  1  0  0  0  0
 45 43  2  0  0  0  0
 45 48  1  0  0  0  0
 46 49  2  0  0  0  0
 47 49  1  0  0  0  0
 48 47  2  0  0  0  0
 51 50  1  0  0  0  0
 52 51  1  0  0  0  0
 53 52  1  0  0  0  0
 54 55  1  0  0  0  0
 55 56  1  0  0  0  0
 56 59  1  0  0  0  0
 57 61  1  0  0  0  0
 57 69  1  0  0  0  0
 59 66  1  1  0  0  0
 59 63  1  0  0  0  0
 60 64  1  0  0  0  0
 61 59  1  0  0  0  0
 61 58  1  1  0  0  0
 62 69  1  0  0  0  0
 65 63  1  0  0  0  0
 65 60  1  0  0  0  0
 67 62  2  0  0  0  0
 68 62  1  0  0  0  0
 68 64  1  0  0  0  0
M  END
>  <MODEL>
1

>  <REMARK>
 VINA RESULT:       3.5      0.000      0.000
  Name = 
  18 active torsions:
  status: ('A' for Active; 'I' for Inactive)
    1  A    between atoms: C_1  and  C_25
    2  A    between atoms: C_1  and  N_64
    3  A    between atoms: C_2  and  C_8
    4  A    between atoms: C_2  and  C_20
    5  A    between atoms: O_3  and  C_12
    6  A    between atoms: O_3  and  C_20
    7  A    between atoms: C_6  and  C_62
    8  A    between atoms: C_7  and  C_14
    9  A    between atoms: C_7  and  C_16
   10  A    between atoms: O_10  and  C_18
   11  A    between atoms: O_10  and  C_60
   12  A    between atoms: C_11  and  C_13
   13  A    between atoms: C_11  and  C_44
   14  A    between atoms: C_15  and  C_60
   15  A    between atoms: C_16  and  C_61
   16  A    between atoms: C_33  and  C_52
   17  A    between atoms: C_44  and  C_58
   18  A    between atoms: C_56  and  C_60
                            x       y       z     vdW  Elec       q    Type
                         _______ _______ _______ _____ _____    ______ ____

>  <TORSDO>
F 18

$$$$
=
 OpenBabel11072410063D

 69 71  0  0  1  0  0  0  0  0999 V2000
  160.9240  208.0690  148.8310 C   0  0  1  0  0  3  0  0  0  0  0  0
  160.4120  210.1950  153.4880 C   0  0  0  0  0  2  0  0  0  0  0  0
  162.4880  209.5290  150.1920 C   0  0  0  0  0  2  0  0  0  0  0  0
  160.7820  205.2840  153.0140 C   0  0  0  0  0  0  0  0  0  0  0  0
  161.7930  211.4380  151.7860 C   0  0  1  0  0  3  0  0  0  0  0  0
  160.7230  211.5220  150.8830 O   0  0  0  0  0  1  0  0  0  0  0  0
  161.1220  205.8600  148.8140 C   0  0  2  0  0  3  0  0  0  0  0  0
  161.2860  211.4190  153.2250 C   0  0  1  0  0  3  0  0  0  0  0  0
  159.8040  207.3810  153.9000 C   0  0  0  0  0  2  0  0  0  0  0  0
  160.7620  205.3320  147.5710 O   0  0  0  0  0  1  0  0  0  0  0  0
  160.4290  204.1700  153.4810 O   0  0  0  0  0  0  0  0  0  0  0  0
  161.8520  207.0390  148.6340 O   0  0  0  0  0  0  0  0  0  0  0  0
  160.5420  212.6960  153.5720 C   0  0  0  0  0  1  0  0  0  0  0  0
  164.0150  210.6090  151.6450 F   0  0  0  0  0  0  0  0  0  0  0  0
  161.8060  204.7120  150.8960 C   0  0  0  0  0  0  0  0  0  0  0  0
  162.1610  207.1050  153.5750 O   0  0  0  0  0  1  0  0  0  0  0  0
  161.1710  208.7550  150.1730 C   0  0  0  0  0  2  0  0  0  0  0  0
  160.5870  209.6310  154.9020 C   0  0  1  0  0  3  0  0  0  0  0  0
  159.8100  208.3210  155.1120 C   0  0  1  0  0  3  0  0  0  0  0  0
  160.9900  205.4420  151.6040 N   0  0  0  0  0  0  0  0  0  0  0  0
  162.6970  210.2170  151.5370 C   0  0  2  0  0  3  0  0  0  0  0  0
  161.9100  204.9100  149.5160 O   0  0  0  0  0  0  0  0  0  0  0  0
  160.9920  206.4350  153.9390 C   0  0  2  0  0  3  0  0  0  0  0  0
  162.6660  203.6980  151.5270 C   0  0  0  0  0  3  0  0  0  0  0  0
  162.1010  200.4170  152.6600 O   0  0  0  0  0  1  0  0  0  0  0  0
  162.0020  201.1730  151.5010 C   0  0  0  0  0  0  0  0  0  0  0  0
  162.3350  202.4360  151.5290 C   0  0  0  0  0  0  0  0  0  0  0  0
  161.5510  200.5570  150.2020 C   0  0  2  0  0  3  0  0  0  0  0  0
  162.3700  200.9770  149.0110 C   0  0  0  0  0  3  0  0  0  0  0  0
  162.0170  200.7220  147.8710 O   0  0  0  0  0  0  0  0  0  0  0  0
  160.1440  200.6670  149.9750 O   0  0  0  0  0  0  0  0  0  0  0  0
  159.5210  201.7060  149.2740 C   0  0  0  0  0  0  0  0  0  0  0  0
  159.5600  202.8770  149.7360 O   0  0  0  0  0  1  0  0  0  0  0  0
  158.8620  201.4700  148.0730 O   0  0  0  0  0  0  0  0  0  0  0  0
  158.4130  208.5750  155.5800 C   0  0  0  0  0  3  0  0  0  0  0  0
  157.8470  209.7650  155.3820 C   0  0  0  0  0  3  0  0  0  0  0  0
  156.4780  210.0800  155.8990 C   0  0  0  0  0  2  0  0  0  0  0  0
  156.5020  211.3020  156.8150 C   0  0  0  0  0  2  0  0  0  0  0  0
  155.1800  213.2780  156.9650 O   0  0  0  0  0  0  0  0  0  0  0  0
  155.7550  212.4480  156.2120 C   0  0  0  0  0  0  0  0  0  0  0  0
  155.7310  212.6190  154.7970 N   0  0  0  0  0  2  0  0  0  0  0  0
  155.2070  213.8270  154.1850 C   0  0  0  0  0  2  0  0  0  0  0  0
  155.0860  214.0780  151.7050 C   0  0  0  0  0  3  0  0  0  0  0  0
  158.0290  214.1920  153.8930 F   0  0  0  0  0  0  0  0  0  0  0  0
  155.8640  214.0550  152.8680 C   0  0  0  0  0  0  0  0  0  0  0  0
  155.6880  214.2780  150.4610 C   0  0  0  0  0  3  0  0  0  0  0  0
  157.8530  214.4230  151.5320 C   0  0  0  0  0  3  0  0  0  0  0  0
  157.2550  214.2160  152.7800 C   0  0  0  0  0  0  0  0  0  0  0  0
  157.0720  214.4530  150.3750 C   0  0  0  0  0  3  0  0  0  0  0  0
  162.0450  209.4360  155.2930 C   0  0  0  0  0  2  0  0  0  0  0  0
  162.4520  210.4980  156.2930 C   0  0  0  0  0  2  0  0  0  0  0  0
  161.3040  210.7830  157.2420 C   0  0  0  0  0  2  0  0  0  0  0  0
  160.7230  212.1440  156.9190 C   0  0  0  0  0  1  0  0  0  0  0  0
  160.9850  209.0730  147.6820 C   0  0  0  0  0  2  0  0  0  0  0  0
  161.3100  210.4730  148.1770 C   0  0  0  0  0  2  0  0  0  0  0  0
  162.2500  211.0880  147.3260 O   0  0  0  0  0  0  0  0  0  0  0  0
  162.5370  212.7350  144.8480 O   0  0  0  0  0  0  0  0  0  0  0  0
  163.1680  214.4500  146.3730 O   0  0  0  0  0  1  0  0  0  0  0  0
  161.9920  212.4820  147.2650 C   0  0  1  0  0  0  0  0  0  0  0  0
  158.7900  212.3050  145.5960 C   0  0  0  0  0  2  0  0  0  0  0  0
  162.9060  213.0810  146.1770 C   0  0  1  0  0  3  0  0  0  0  0  0
  161.0340  213.3670  143.0940 C   0  0  0  0  0  0  0  0  0  0  0  0
  160.5110  212.7520  146.9520 C   0  0  0  0  0  2  0  0  0  0  0  0
  158.9130  213.1720  144.3500 C   0  0  0  0  0  2  0  0  0  0  0  0
  160.0420  211.8330  146.0060 O   0  0  0  0  0  0  0  0  0  0  0  0
  162.3100  213.0930  148.4870 O   0  0  0  0  0  1  0  0  0  0  0  0
  161.2610  213.8630  141.8800 C   0  0  0  0  0  2  0  0  0  0  0  0
  159.8220  212.5160  143.3210 C   0  0  0  0  0  2  0  0  0  0  0  0
  161.8830  213.8240  144.2380 C   0  0  0  0  0  2  0  0  0  0  0  0
  1 54  1  6  0  0  0
  1 17  1  0  0  0  0
  2 18  1  0  0  0  0
  3 21  1  0  0  0  0
  4 11  2  0  0  0  0
  4 23  1  0  0  0  0
  5  6  1  6  0  0  0
  5  8  1  0  0  0  0
  7 10  1  6  0  0  0
  7 22  1  0  0  0  0
  8  2  1  0  0  0  0
  8 13  1  6  0  0  0
  9 23  1  0  0  0  0
  9 19  1  0  0  0  0
 12  7  1  0  0  0  0
 12  1  1  0  0  0  0
 15 24  1  0  0  0  0
 15 20  2  0  0  0  0
 17  3  1  0  0  0  0
 18 19  1  0  0  0  0
 18 50  1  6  0  0  0
 19 35  1  6  0  0  0
 20  4  1  0  0  0  0
 21 14  1  6  0  0  0
 21  5  1  0  0  0  0
 22 15  1  0  0  0  0
 23 16  1  6  0  0  0
 24 27  2  0  0  0  0
 26 27  2  0  0  0  0
 26 25  1  0  0  0  0
 28 29  1  6  0  0  0
 28 26  1  0  0  0  0
 30 29  2  0  0  0  0
 31 28  1  0  0  0  0
 32 33  1  0  0  0  0
 32 31  1  0  0  0  0
 34 32  2  0  0  0  0
 36 35  2  0  0  0  0
 36 37  1  0  0  0  0
 37 38  1  0  0  0  0
 40 38  1  0  0  0  0
 40 39  2  0  0  0  0
 41 40  1  0  0  0  0
 42 41  1  0  0  0  0
 43 45  1  0  0  0  0
 45 42  1  0  0  0  0
 46 43  2  0  0  0  0
 47 48  1  0  0  0  0
 48 45  2  0  0  0  0
 48 44  1  0  0  0  0
 49 46  1  0  0  0  0
 49 47  2  0  0  0  0
 50 51  1  0  0  0  0
 51 52  1  0  0  0  0
 53 52  1  0  0  0  0
 54 55  1  0  0  0  0
 56 55  1  0  0  0  0
 57 61  1  0  0  0  0
 59 56  1  0  0  0  0
 59 66  1  1  0  0  0
 60 65  1  0  0  0  0
 61 58  1  6  0  0  0
 61 59  1  0  0  0  0
 62 68  1  0  0  0  0
 62 69  1  0  0  0  0
 63 59  1  0  0  0  0
 64 60  1  0  0  0  0
 65 63  1  0  0  0  0
 67 62  2  0  0  0  0
 68 64  1  0  0  0  0
 69 57  1  0  0  0  0
M  END
>  <MODEL>
2

>  <REMARK>
 VINA RESULT:       5.3      2.926     10.986
  Name = 
  18 active torsions:
  status: ('A' for Active; 'I' for Inactive)
    1  A    between atoms: C_1  and  C_25
    2  A    between atoms: C_1  and  N_64
    3  A    between atoms: C_2  and  C_8
    4  A    between atoms: C_2  and  C_20
    5  A    between atoms: O_3  and  C_12
    6  A    between atoms: O_3  and  C_20
    7  A    between atoms: C_6  and  C_62
    8  A    between atoms: C_7  and  C_14
    9  A    between atoms: C_7  and  C_16
   10  A    between atoms: O_10  and  C_18
   11  A    between atoms: O_10  and  C_60
   12  A    between atoms: C_11  and  C_13
   13  A    between atoms: C_11  and  C_44
   14  A    between atoms: C_15  and  C_60
   15  A    between atoms: C_16  and  C_61
   16  A    between atoms: C_33  and  C_52
   17  A    between atoms: C_44  and  C_58
   18  A    between atoms: C_56  and  C_60
                            x       y       z     vdW  Elec       q    Type
                         _______ _______ _______ _____ _____    ______ ____

>  <TORSDO>
F 18

$$$$
=
 OpenBabel11072410063D

 69 71  0  0  1  0  0  0  0  0999 V2000
  160.8280  209.3660  147.9070 C   0  0  1  0  0  3  0  0  0  0  0  0
  159.9680  211.8140  152.3500 C   0  0  0  0  0  2  0  0  0  0  0  0
  162.2700  210.9590  149.2540 C   0  0  0  0  0  2  0  0  0  0  0  0
  160.4620  206.8910  152.2670 C   0  0  0  0  0  0  0  0  0  0  0  0
  161.4350  212.9610  150.6530 C   0  0  1  0  0  3  0  0  0  0  0  0
  160.4260  212.9540  149.6790 O   0  0  0  0  0  1  0  0  0  0  0  0
  161.0690  207.1670  148.0670 C   0  0  2  0  0  3  0  0  0  0  0  0
  160.8340  213.0350  152.0540 C   0  0  1  0  0  3  0  0  0  0  0  0
  159.3870  209.0240  152.9300 C   0  0  0  0  0  2  0  0  0  0  0  0
  160.8020  206.5410  146.8460 O   0  0  0  0  0  1  0  0  0  0  0  0
  160.0990  205.8060  152.7920 O   0  0  0  0  0  0  0  0  0  0  0  0
  161.7870  208.3470  147.8470 O   0  0  0  0  0  0  0  0  0  0  0  0
  160.0440  214.3160  152.2560 C   0  0  0  0  0  1  0  0  0  0  0  0
  163.6770  212.1780  150.7180 F   0  0  0  0  0  0  0  0  0  0  0  0
  161.6340  206.1910  150.2680 C   0  0  0  0  0  0  0  0  0  0  0  0
  161.7660  208.7800  152.7800 O   0  0  0  0  0  1  0  0  0  0  0  0
  160.9720  210.1540  149.2080 C   0  0  0  0  0  2  0  0  0  0  0  0
  160.0590  211.3580  153.8100 C   0  0  1  0  0  3  0  0  0  0  0  0
  159.2950  210.0490  154.0660 C   0  0  1  0  0  3  0  0  0  0  0  0
  160.7600  206.9510  150.8660 N   0  0  0  0  0  0  0  0  0  0  0  0
  162.3770  211.7470  150.5550 C   0  0  2  0  0  3  0  0  0  0  0  0
  161.8260  206.2900  148.8870 O   0  0  0  0  0  0  0  0  0  0  0  0
  160.5870  208.1110  153.1160 C   0  0  2  0  0  3  0  0  0  0  0  0
  162.4700  205.2460  151.0280 C   0  0  0  0  0  3  0  0  0  0  0  0
  162.0000  201.9310  152.1040 O   0  0  0  0  0  1  0  0  0  0  0  0
  162.0110  202.6780  150.9340 C   0  0  0  0  0  0  0  0  0  0  0  0
  162.2400  203.9620  150.9960 C   0  0  0  0  0  0  0  0  0  0  0  0
  161.8010  202.0280  149.5910 C   0  0  2  0  0  3  0  0  0  0  0  0
  161.3570  202.9820  148.5150 C   0  0  0  0  0  3  0  0  0  0  0  0
  161.7330  202.8620  147.3590 O   0  0  0  0  0  0  0  0  0  0  0  0
  161.0020  200.8440  149.6480 O   0  0  0  0  0  0  0  0  0  0  0  0
  159.6310  200.8120  149.9280 C   0  0  0  0  0  0  0  0  0  0  0  0
  159.2430  200.5720  151.1030 O   0  0  0  0  0  1  0  0  0  0  0  0
  158.6870  201.0430  148.9340 O   0  0  0  0  0  0  0  0  0  0  0  0
  157.8650  210.3030  154.4220 C   0  0  0  0  0  3  0  0  0  0  0  0
  157.5590  211.1960  155.3630 C   0  0  0  0  0  3  0  0  0  0  0  0
  156.1450  211.4260  155.7980 C   0  0  0  0  0  2  0  0  0  0  0  0
  155.9330  212.8720  156.2420 C   0  0  0  0  0  2  0  0  0  0  0  0
  154.2800  214.4490  155.5660 O   0  0  0  0  0  0  0  0  0  0  0  0
  155.1900  213.6550  155.2080 C   0  0  0  0  0  0  0  0  0  0  0  0
  155.5410  213.5310  153.8310 N   0  0  0  0  0  2  0  0  0  0  0  0
  154.9990  214.4270  152.8240 C   0  0  0  0  0  2  0  0  0  0  0  0
  156.9550  213.8240  151.3970 C   0  0  0  0  0  3  0  0  0  0  0  0
  153.4730  214.4130  150.4050 F   0  0  0  0  0  0  0  0  0  0  0  0
  155.5900  214.1120  151.4940 C   0  0  0  0  0  0  0  0  0  0  0  0
  157.5270  213.5390  150.1550 C   0  0  0  0  0  3  0  0  0  0  0  0
  155.3730  213.8390  149.0950 C   0  0  0  0  0  3  0  0  0  0  0  0
  154.7970  214.1320  150.3370 C   0  0  0  0  0  0  0  0  0  0  0  0
  156.7360  213.5450  149.0040 C   0  0  0  0  0  3  0  0  0  0  0  0
  161.4910  211.2280  154.3080 C   0  0  0  0  0  2  0  0  0  0  0  0
  161.5720  210.1340  155.3530 C   0  0  0  0  0  2  0  0  0  0  0  0
  161.8690  210.7380  156.7120 C   0  0  0  0  0  2  0  0  0  0  0  0
  161.6430  212.2340  156.6480 C   0  0  0  0  0  1  0  0  0  0  0  0
  160.9460  210.2850  146.6930 C   0  0  0  0  0  2  0  0  0  0  0  0
  160.1680  211.5760  146.8890 C   0  0  0  0  0  2  0  0  0  0  0  0
  159.7100  212.0660  145.6490 O   0  0  0  0  0  0  0  0  0  0  0  0
  161.8620  212.6890  143.6700 O   0  0  0  0  0  0  0  0  0  0  0  0
  162.4850  214.3460  145.2600 O   0  0  0  0  0  1  0  0  0  0  0  0
  160.2360  213.3650  145.4310 C   0  0  1  0  0  0  0  0  0  0  0  0
  158.5320  214.0560  142.3180 C   0  0  0  0  0  2  0  0  0  0  0  0
  161.7030  213.2090  144.9840 C   0  0  1  0  0  3  0  0  0  0  0  0
  161.8560  213.3640  141.3720 C   0  0  0  0  0  0  0  0  0  0  0  0
  159.4140  214.1180  144.3720 C   0  0  0  0  0  2  0  0  0  0  0  0
  159.6170  214.4120  141.3110 C   0  0  0  0  0  2  0  0  0  0  0  0
  159.0400  213.2480  143.3410 O   0  0  0  0  0  0  0  0  0  0  0  0
  160.2200  214.1060  146.6220 O   0  0  0  0  0  1  0  0  0  0  0  0
  162.8200  213.3640  140.4550 C   0  0  0  0  0  2  0  0  0  0  0  0
  160.4330  213.1840  140.9370 C   0  0  0  0  0  2  0  0  0  0  0  0
  162.1920  213.7320  142.7830 C   0  0  0  0  0  2  0  0  0  0  0  0
  1 54  1  6  0  0  0
  1 17  1  0  0  0  0
  2 18  1  0  0  0  0
  3 21  1  0  0  0  0
  4 11  2  0  0  0  0
  4 23  1  0  0  0  0
  5  6  1  6  0  0  0
  5  8  1  0  0  0  0
  7 10  1  6  0  0  0
  7 22  1  0  0  0  0
  8 13  1  6  0  0  0
  8  2  1  0  0  0  0
  9 23  1  0  0  0  0
  9 19  1  0  0  0  0
 12  1  1  0  0  0  0
 12  7  1  0  0  0  0
 15 20  2  0  0  0  0
 15 24  1  0  0  0  0
 17  3  1  0  0  0  0
 18 19  1  0  0  0  0
 18 50  1  6  0  0  0
 19 35  1  6  0  0  0
 20  4  1  0  0  0  0
 21  5  1  0  0  0  0
 21 14  1  6  0  0  0
 22 15  1  0  0  0  0
 23 16  1  6  0  0  0
 26 27  2  0  0  0  0
 26 25  1  0  0  0  0
 27 24  2  0  0  0  0
 28 29  1  6  0  0  0
 28 31  1  0  0  0  0
 28 26  1  0  0  0  0
 30 29  2  0  0  0  0
 31 32  1  0  0  0  0
 32 33  1  0  0  0  0
 34 32  2  0  0  0  0
 35 36  2  0  0  0  0
 36 37  1  0  0  0  0
 37 38  1  0  0  0  0
 40 39  2  0  0  0  0
 40 38  1  0  0  0  0
 41 40  1  0  0  0  0
 42 41  1  0  0  0  0
 43 45  1  0  0  0  0
 45 42  1  0  0  0  0
 46 43  2  0  0  0  0
 47 48  1  0  0  0  0
 48 44  1  0  0  0  0
 48 45  2  0  0  0  0
 49 47  2  0  0  0  0
 49 46  1  0  0  0  0
 50 51  1  0  0  0  0
 51 52  1  0  0  0  0
 53 52  1  0  0  0  0
 54 55  1  0  0  0  0
 56 55  1  0  0  0  0
 57 61  1  0  0  0  0
 59 56  1  0  0  0  0
 59 66  1  1  0  0  0
 60 65  1  0  0  0  0
 61 58  1  6  0  0  0
 61 59  1  0  0  0  0
 62 69  1  0  0  0  0
 63 59  1  0  0  0  0
 64 60  1  0  0  0  0
 65 63  1  0  0  0  0
 67 62  2  0  0  0  0
 68 64  1  0  0  0  0
 68 62  1  0  0  0  0
 69 57  1  0  0  0  0
M  END
>  <MODEL>
3

>  <REMARK>
 VINA RESULT:       5.8      3.104     11.250
  Name = 
  18 active torsions:
  status: ('A' for Active; 'I' for Inactive)
    1  A    between atoms: C_1  and  C_25
    2  A    between atoms: C_1  and  N_64
    3  A    between atoms: C_2  and  C_8
    4  A    between atoms: C_2  and  C_20
    5  A    between atoms: O_3  and  C_12
    6  A    between atoms: O_3  and  C_20
    7  A    between atoms: C_6  and  C_62
    8  A    between atoms: C_7  and  C_14
    9  A    between atoms: C_7  and  C_16
   10  A    between atoms: O_10  and  C_18
   11  A    between atoms: O_10  and  C_60
   12  A    between atoms: C_11  and  C_13
   13  A    between atoms: C_11  and  C_44
   14  A    between atoms: C_15  and  C_60
   15  A    between atoms: C_16  and  C_61
   16  A    between atoms: C_33  and  C_52
   17  A    between atoms: C_44  and  C_58
   18  A    between atoms: C_56  and  C_60
                            x       y       z     vdW  Elec       q    Type
                         _______ _______ _______ _____ _____    ______ ____

>  <TORSDO>
F 18

$$$$
=
 OpenBabel11072410063D

 69 71  0  0  1  0  0  0  0  0999 V2000
  160.4360  209.1450  146.8240 C   0  0  1  0  0  3  0  0  0  0  0  0
  160.5460  211.3840  151.4550 C   0  0  0  0  0  2  0  0  0  0  0  0
  162.2190  210.5280  147.9790 C   0  0  0  0  0  2  0  0  0  0  0  0
  160.5660  206.4520  151.0670 C   0  0  0  0  0  0  0  0  0  0  0  0
  161.8130  212.5060  149.5890 C   0  0  1  0  0  3  0  0  0  0  0  0
  160.6610  212.6410  148.8000 O   0  0  0  0  0  1  0  0  0  0  0  0
  160.4970  206.9280  146.8410 C   0  0  2  0  0  3  0  0  0  0  0  0
  161.4590  212.5450  151.0730 C   0  0  1  0  0  3  0  0  0  0  0  0
  159.8140  208.6220  151.9980 C   0  0  0  0  0  2  0  0  0  0  0  0
  159.9770  206.4010  145.6560 O   0  0  0  0  0  1  0  0  0  0  0  0
  160.1960  205.3700  151.5960 O   0  0  0  0  0  0  0  0  0  0  0  0
  161.2740  208.0550  146.5570 O   0  0  0  0  0  0  0  0  0  0  0  0
  160.8350  213.8730  151.4630 C   0  0  0  0  0  1  0  0  0  0  0  0
  163.9540  211.5370  149.2380 F   0  0  0  0  0  0  0  0  0  0  0  0
  161.3240  205.7770  148.8690 C   0  0  0  0  0  0  0  0  0  0  0  0
  162.1030  208.1920  151.4370 O   0  0  0  0  0  1  0  0  0  0  0  0
  160.8640  209.8390  148.1160 C   0  0  0  0  0  2  0  0  0  0  0  0
  160.8330  210.8360  152.8570 C   0  0  1  0  0  3  0  0  0  0  0  0
  160.0050  209.5820  153.1780 C   0  0  1  0  0  3  0  0  0  0  0  0
  160.6330  206.5700  149.6400 N   0  0  0  0  0  0  0  0  0  0  0  0
  162.6100  211.2260  149.2780 C   0  0  2  0  0  3  0  0  0  0  0  0
  161.2940  205.9430  147.4810 O   0  0  0  0  0  0  0  0  0  0  0  0
  160.9400  207.6030  151.9360 C   0  0  2  0  0  3  0  0  0  0  0  0
  162.1830  204.7230  149.4330 C   0  0  0  0  0  3  0  0  0  0  0  0
  161.5730  201.4330  150.5150 O   0  0  0  0  0  1  0  0  0  0  0  0
  161.4410  202.2210  149.3800 C   0  0  0  0  0  0  0  0  0  0  0  0
  161.8140  203.4720  149.4220 C   0  0  0  0  0  0  0  0  0  0  0  0
  160.9080  201.6500  148.0920 C   0  0  2  0  0  3  0  0  0  0  0  0
  161.8200  200.6410  147.4490 C   0  0  0  0  0  3  0  0  0  0  0  0
  161.4270  199.5260  147.1440 O   0  0  0  0  0  0  0  0  0  0  0  0
  160.4460  202.6460  147.1750 O   0  0  0  0  0  0  0  0  0  0  0  0
  161.1050  203.0260  146.0000 C   0  0  0  0  0  0  0  0  0  0  0  0
  162.3630  203.0920  145.9890 O   0  0  0  0  0  1  0  0  0  0  0  0
  160.3970  203.3290  144.8430 O   0  0  0  0  0  0  0  0  0  0  0  0
  158.6830  209.9310  153.7830 C   0  0  0  0  0  3  0  0  0  0  0  0
  158.6070  210.8610  154.7350 C   0  0  0  0  0  3  0  0  0  0  0  0
  157.3130  211.1870  155.4140 C   0  0  0  0  0  2  0  0  0  0  0  0
  157.1870  212.6880  155.6670 C   0  0  0  0  0  2  0  0  0  0  0  0
  155.0820  213.8030  155.6020 O   0  0  0  0  0  0  0  0  0  0  0  0
  156.0110  213.2640  154.9440 C   0  0  0  0  0  0  0  0  0  0  0  0
  155.9670  213.2370  153.5190 N   0  0  0  0  0  2  0  0  0  0  0  0
  154.9580  213.9720  152.7750 C   0  0  0  0  0  2  0  0  0  0  0  0
  154.4350  214.2460  150.3510 C   0  0  0  0  0  3  0  0  0  0  0  0
  157.7090  214.0820  151.9980 F   0  0  0  0  0  0  0  0  0  0  0  0
  155.3960  214.1470  151.3630 C   0  0  0  0  0  0  0  0  0  0  0  0
  154.8290  214.3980  149.0200 C   0  0  0  0  0  3  0  0  0  0  0  0
  157.1500  214.3400  149.7010 C   0  0  0  0  0  3  0  0  0  0  0  0
  156.7600  214.1820  151.0360 C   0  0  0  0  0  0  0  0  0  0  0  0
  156.1870  214.4470  148.6950 C   0  0  0  0  0  3  0  0  0  0  0  0
  162.3100  210.5570  153.1000 C   0  0  0  0  0  2  0  0  0  0  0  0
  162.6840  210.9700  154.5080 C   0  0  0  0  0  2  0  0  0  0  0  0
  161.5050  210.7620  155.4380 C   0  0  0  0  0  2  0  0  0  0  0  0
  161.8190  209.6240  156.3860 C   0  0  0  0  0  1  0  0  0  0  0  0
  160.4360  210.1210  145.6510 C   0  0  0  0  0  2  0  0  0  0  0  0
  159.8860  211.4810  146.0520 C   0  0  0  0  0  2  0  0  0  0  0  0
  159.2210  212.0810  144.9630 O   0  0  0  0  0  0  0  0  0  0  0  0
  161.4890  212.3460  143.0350 O   0  0  0  0  0  0  0  0  0  0  0  0
  162.1740  214.1050  144.4840 O   0  0  0  0  0  1  0  0  0  0  0  0
  159.8510  213.3110  144.6440 C   0  0  1  0  0  0  0  0  0  0  0  0
  158.3280  213.8060  141.4040 C   0  0  0  0  0  2  0  0  0  0  0  0
  161.3190  213.0060  144.2830 C   0  0  1  0  0  3  0  0  0  0  0  0
  161.6240  212.7850  140.6840 C   0  0  0  0  0  0  0  0  0  0  0  0
  159.1310  214.0100  143.4800 C   0  0  0  0  0  2  0  0  0  0  0  0
  159.4760  213.9800  140.4180 C   0  0  0  0  0  2  0  0  0  0  0  0
  158.7330  213.0700  142.5230 O   0  0  0  0  0  0  0  0  0  0  0  0
  159.8450  214.1670  145.7560 O   0  0  0  0  0  1  0  0  0  0  0  0
  162.6210  212.6240  139.8180 C   0  0  0  0  0  2  0  0  0  0  0  0
  160.2110  212.6650  140.2040 C   0  0  0  0  0  2  0  0  0  0  0  0
  161.9320  213.2680  142.0670 C   0  0  0  0  0  2  0  0  0  0  0  0
  1 54  1  6  0  0  0
  1 17  1  0  0  0  0
  2 18  1  0  0  0  0
  3 17  1  0  0  0  0
  3 21  1  0  0  0  0
  4 11  2  0  0  0  0
  4 23  1  0  0  0  0
  5  6  1  6  0  0  0
  5  8  1  0  0  0  0
  7 10  1  6  0  0  0
  7 22  1  0  0  0  0
  8  2  1  0  0  0  0
  8 13  1  6  0  0  0
  9 19  1  0  0  0  0
 12  1  1  0  0  0  0
 12  7  1  0  0  0  0
 15 24  1  0  0  0  0
 15 20  2  0  0  0  0
 18 50  1  6  0  0  0
 18 19  1  0  0  0  0
 19 35  1  6  0  0  0
 20  4  1  0  0  0  0
 21 14  1  6  0  0  0
 21  5  1  0  0  0  0
 22 15  1  0  0  0  0
 23 16  1  6  0  0  0
 23  9  1  0  0  0  0
 26 27  2  0  0  0  0
 26 25  1  0  0  0  0
 27 24  2  0  0  0  0
 28 29  1  6  0  0  0
 28 26  1  0  0  0  0
 30 29  2  0  0  0  0
 31 28  1  0  0  0  0
 32 31  1  0  0  0  0
 33 32  1  0  0  0  0
 34 32  2  0  0  0  0
 35 36  2  0  0  0  0
 36 37  1  0  0  0  0
 37 38  1  0  0  0  0
 40 39  2  0  0  0  0
 40 38  1  0  0  0  0
 41 40  1  0  0  0  0
 42 41  1  0  0  0  0
 43 45  1  0  0  0  0
 45 42  1  0  0  0  0
 46 43  2  0  0  0  0
 47 48  1  0  0  0  0
 48 45  2  0  0  0  0
 48 44  1  0  0  0  0
 49 46  1  0  0  0  0
 49 47  2  0  0  0  0
 50 51  1  0  0  0  0
 51 52  1  0  0  0  0
 52 53  1  0  0  0  0
 54 55  1  0  0  0  0
 56 55  1  0  0  0  0
 57 61  1  0  0  0  0
 59 56  1  0  0  0  0
 59 66  1  1  0  0  0
 60 65  1  0  0  0  0
 61 58  1  6  0  0  0
 61 59  1  0  0  0  0
 62 69  1  0  0  0  0
 63 59  1  0  0  0  0
 64 60  1  0  0  0  0
 65 63  1  0  0  0  0
 67 62  2  0  0  0  0
 68 64  1  0  0  0  0
 68 62  1  0  0  0  0
 69 57  1  0  0  0  0
M  END
>  <MODEL>
4

>  <REMARK>
 VINA RESULT:       5.9      2.840     11.086
  Name = 
  18 active torsions:
  status: ('A' for Active; 'I' for Inactive)
    1  A    between atoms: C_1  and  C_25
    2  A    between atoms: C_1  and  N_64
    3  A    between atoms: C_2  and  C_8
    4  A    between atoms: C_2  and  C_20
    5  A    between atoms: O_3  and  C_12
    6  A    between atoms: O_3  and  C_20
    7  A    between atoms: C_6  and  C_62
    8  A    between atoms: C_7  and  C_14
    9  A    between atoms: C_7  and  C_16
   10  A    between atoms: O_10  and  C_18
   11  A    between atoms: O_10  and  C_60
   12  A    between atoms: C_11  and  C_13
   13  A    between atoms: C_11  and  C_44
   14  A    between atoms: C_15  and  C_60
   15  A    between atoms: C_16  and  C_61
   16  A    between atoms: C_33  and  C_52
   17  A    between atoms: C_44  and  C_58
   18  A    between atoms: C_56  and  C_60
                            x       y       z     vdW  Elec       q    Type
                         _______ _______ _______ _____ _____    ______ ____

>  <TORSDO>
F 18

$$$$
