=
 OpenBabel11072411273D

 35 40  0  0  1  0  0  0  0  0999 V2000
  162.0920  206.9190  149.0880 C   0  0  1  0  0  0  0  0  0  0  0  0
  161.9890  206.5340  147.6270 C   0  0  0  0  0  1  0  0  0  0  0  0
  159.7670  206.3040  157.2600 O   0  0  0  0  0  0  0  0  0  0  0  0
  160.6880  207.9990  154.2660 C   0  0  0  0  0  0  0  0  0  0  0  0
  159.7570  209.5350  155.8870 C   0  0  0  0  0  3  0  0  0  0  0  0
  162.4100  208.9150  150.1090 C   0  0  2  0  0  3  0  0  0  0  0  0
  160.5160  206.9650  155.1990 C   0  0  0  0  0  3  0  0  0  0  0  0
  161.6090  205.9880  150.0980 C   0  0  1  0  0  3  0  0  0  0  0  0
  159.5850  208.5050  156.7560 N   0  0  0  0  0  0  0  0  0  0  0  0
  159.9510  207.2380  156.4410 C   0  0  0  0  0  0  0  0  0  0  0  0
  163.0760  207.8640  149.4660 O   0  0  0  0  0  0  0  0  0  0  0  0
  161.0010  208.4380  150.3900 C   0  0  1  0  0  3  0  0  0  0  0  0
  162.3690  206.1010  151.4180 C   0  0  0  0  0  2  0  0  0  0  0  0
  160.3040  209.3070  154.6110 C   0  0  1  0  0  3  0  0  0  0  0  0
  160.1730  209.9710  152.2010 C   0  0  0  0  0  2  0  0  0  0  0  0
  161.2970  207.7570  152.9030 C   0  0  1  0  0  3  0  0  0  0  0  0
  160.5910  210.4320  153.6200 C   0  0  1  0  0  0  0  0  0  0  0  0
  161.4090  206.2780  152.5700 C   0  0  0  0  0  2  0  0  0  0  0  0
  160.7820  207.1750  149.7050 N   0  0  1  0  0  0  0  0  0  0  0  0
  160.4750  208.5060  151.8350 C   0  0  2  0  0  3  0  0  0  0  0  0
  162.2300  211.2930  149.9210 O   0  0  0  0  0  1  0  0  0  0  0  0
  162.3810  210.1230  149.1750 C   0  0  0  0  0  3  0  0  0  0  0  0
  161.3250  210.0200  148.2720 O   0  0  0  0  0  1  0  0  0  0  0  0
  159.9060  212.7540  152.7870 C   0  0  0  0  0  1  0  0  0  0  0  0
  159.8290  211.7520  153.9330 C   0  0  1  0  0  3  0  0  0  0  0  0
  158.4830  211.5410  154.2780 O   0  0  0  0  0  0  0  0  0  0  0  0
  157.9830  212.7830  154.6740 C   0  0  2  0  0  3  0  0  0  0  0  0
  158.5080  213.1040  156.3800 S   0  0  0  0  0  1  0  0  0  0  0  0
  156.4670  212.7970  154.5900 C   0  0  0  0  0  2  0  0  0  0  0  0
  155.9320  211.4920  154.9760 C   0  0  0  0  0  0  0  0  0  0  0  0
  155.5220  210.4550  155.2830 N   0  0  0  0  0  0  0  0  0  0  0  0
  162.1150  210.6850  153.6410 C   0  0  0  0  0  2  0  0  0  0  0  0
  162.6270  211.0990  155.9330 O   0  0  0  0  0  0  0  0  0  0  0  0
  163.8800  211.0910  155.3020 C   0  0  0  0  0  2  0  0  0  0  0  0
  162.8080  210.1630  154.8950 C   0  0  2  0  0  3  0  0  0  0  0  0
  1  2  1  6  0  0  0
  1 11  1  0  0  0  0
  1 19  1  0  0  0  0
  1  8  1  0  0  0  0
  4 14  1  0  0  0  0
  4  7  2  0  0  0  0
  5  9  2  0  0  0  0
  6 22  1  6  0  0  0
  6 12  1  0  0  0  0
  7 10  1  0  0  0  0
  8 13  1  1  0  0  0
 10  9  1  0  0  0  0
 10  3  2  0  0  0  0
 11  6  1  0  0  0  0
 12 20  1  0  0  0  0
 13 18  1  0  0  0  0
 14  5  1  0  0  0  0
 15 17  1  0  0  0  0
 16  4  1  0  0  0  0
 17 32  1  0  0  0  0
 17 25  1  0  0  0  0
 17 14  1  0  0  0  0
 18 16  1  0  0  0  0
 19  8  1  0  0  0  0
 19 12  1  0  0  0  0
 20 15  1  0  0  0  0
 20 16  1  0  0  0  0
 22 21  1  0  0  0  0
 23 22  1  0  0  0  0
 24 25  1  0  0  0  0
 25 26  1  0  0  0  0
 26 27  1  0  0  0  0
 27 28  1  0  0  0  0
 29 27  1  0  0  0  0
 29 30  1  0  0  0  0
 30 31  3  0  0  0  0
 32 35  1  0  0  0  0
 34 33  1  0  0  0  0
 35 34  1  0  0  0  0
 35 33  1  0  0  0  0
M  END
>  <MODEL>
1

>  <REMARK>
 VINA RESULT:      -4.0      0.000      0.000
  Name = 
  8 active torsions:
  status: ('A' for Active; 'I' for Inactive)
    1  A    between atoms: C_1  and  C_8
    2  A    between atoms: O_2  and  C_11
    3  A    between atoms: O_2  and  C_22
    4  A    between atoms: C_8  and  C_11
    5  A    between atoms: C_12  and  C_16
    6  A    between atoms: C_21  and  C_25
    7  A    between atoms: C_22  and  C_29
    8  A    between atoms: C_25  and  C_29
                            x       y       z     vdW  Elec       q    Type
                         _______ _______ _______ _____ _____    ______ ____

>  <TORSDO>
F 8

$$$$
=
 OpenBabel11072411273D

 35 40  0  0  1  0  0  0  0  0999 V2000
  156.9410  213.3630  155.0980 C   0  0  1  0  0  0  0  0  0  0  0  0
  155.6430  213.4690  155.8700 C   0  0  0  0  0  1  0  0  0  0  0  0
  161.5070  213.5340  147.9080 O   0  0  0  0  0  0  0  0  0  0  0  0
  160.5030  212.2790  151.0860 C   0  0  0  0  0  0  0  0  0  0  0  0
  161.8780  210.6740  149.9090 C   0  0  0  0  0  3  0  0  0  0  0  0
  158.7190  211.9770  155.3070 C   0  0  2  0  0  3  0  0  0  0  0  0
  160.6570  213.1550  150.0010 C   0  0  0  0  0  3  0  0  0  0  0  0
  157.0360  213.9940  153.7890 C   0  0  1  0  0  3  0  0  0  0  0  0
  161.9870  211.5390  148.8680 N   0  0  0  0  0  0  0  0  0  0  0  0
  161.3990  212.7600  148.8920 C   0  0  0  0  0  0  0  0  0  0  0  0
  158.1370  213.1430  155.8220 O   0  0  0  0  0  0  0  0  0  0  0  0
  157.9910  211.6510  154.0210 C   0  0  1  0  0  3  0  0  0  0  0  0
  158.4540  214.4530  153.4550 C   0  0  0  0  0  2  0  0  0  0  0  0
  161.1210  211.0160  151.0450 C   0  0  1  0  0  3  0  0  0  0  0  0
  159.5590  210.1250  152.7850 C   0  0  0  0  0  2  0  0  0  0  0  0
  159.7080  212.6570  152.3160 C   0  0  1  0  0  3  0  0  0  0  0  0
  161.0210  210.1200  152.2760 C   0  0  1  0  0  0  0  0  0  0  0  0
  158.8830  213.9180  152.1110 C   0  0  0  0  0  2  0  0  0  0  0  0
  156.8270  212.5140  153.9020 N   0  0  1  0  0  0  0  0  0  0  0  0
  158.8140  211.4720  152.7330 C   0  0  2  0  0  3  0  0  0  0  0  0
  159.5640  210.8850  157.2600 O   0  0  0  0  0  1  0  0  0  0  0  0
  158.5340  210.8480  156.3190 C   0  0  0  0  0  3  0  0  0  0  0  0
  158.5460  209.6100  155.6800 O   0  0  0  0  0  1  0  0  0  0  0  0
  162.0080  207.9650  153.2440 C   0  0  0  0  0  1  0  0  0  0  0  0
  161.4260  208.6420  152.0080 C   0  0  1  0  0  3  0  0  0  0  0  0
  160.3670  207.8650  151.5060 O   0  0  0  0  0  0  0  0  0  0  0  0
  160.9290  207.0130  150.5520 C   0  0  2  0  0  3  0  0  0  0  0  0
  161.3430  205.4390  151.3510 S   0  0  0  0  0  1  0  0  0  0  0  0
  162.1800  207.6340  149.9560 C   0  0  0  0  0  2  0  0  0  0  0  0
  162.3550  207.1820  148.5770 C   0  0  0  0  0  0  0  0  0  0  0  0
  162.4820  206.8300  147.4830 N   0  0  0  0  0  0  0  0  0  0  0  0
  161.9370  210.7280  153.3620 C   0  0  0  0  0  2  0  0  0  0  0  0
  161.8060  211.3770  155.6530 O   0  0  0  0  0  0  0  0  0  0  0  0
  162.7800  210.3660  155.6420 C   0  0  0  0  0  2  0  0  0  0  0  0
  161.5850  210.2930  154.7790 C   0  0  2  0  0  3  0  0  0  0  0  0
  1 11  1  0  0  0  0
  1  2  1  1  0  0  0
  3 10  2  0  0  0  0
  4 16  1  0  0  0  0
  5 14  1  0  0  0  0
  6 11  1  0  0  0  0
  6 22  1  1  0  0  0
  7  4  2  0  0  0  0
  8 13  1  1  0  0  0
  8 19  1  0  0  0  0
  8  1  1  0  0  0  0
  9 10  1  0  0  0  0
  9  5  2  0  0  0  0
 10  7  1  0  0  0  0
 12  6  1  0  0  0  0
 14  4  1  0  0  0  0
 14 17  1  0  0  0  0
 16 20  1  0  0  0  0
 17 15  1  0  0  0  0
 17 32  1  0  0  0  0
 18 16  1  0  0  0  0
 18 13  1  0  0  0  0
 19 12  1  0  0  0  0
 19  1  1  0  0  0  0
 20 15  1  0  0  0  0
 20 12  1  0  0  0  0
 22 21  1  0  0  0  0
 23 22  1  0  0  0  0
 25 17  1  0  0  0  0
 25 24  1  0  0  0  0
 26 25  1  0  0  0  0
 27 28  1  0  0  0  0
 27 26  1  0  0  0  0
 29 27  1  0  0  0  0
 30 29  1  0  0  0  0
 31 30  3  0  0  0  0
 32 35  1  0  0  0  0
 34 33  1  0  0  0  0
 35 34  1  0  0  0  0
 35 33  1  0  0  0  0
M  END
>  <MODEL>
2

>  <REMARK>
 VINA RESULT:      -3.4      2.710      7.505
  Name = 
  8 active torsions:
  status: ('A' for Active; 'I' for Inactive)
    1  A    between atoms: C_1  and  C_8
    2  A    between atoms: O_2  and  C_11
    3  A    between atoms: O_2  and  C_22
    4  A    between atoms: C_8  and  C_11
    5  A    between atoms: C_12  and  C_16
    6  A    between atoms: C_21  and  C_25
    7  A    between atoms: C_22  and  C_29
    8  A    between atoms: C_25  and  C_29
                            x       y       z     vdW  Elec       q    Type
                         _______ _______ _______ _____ _____    ______ ____

>  <TORSDO>
F 8

$$$$
=
 OpenBabel11072411273D

 35 40  0  0  1  0  0  0  0  0999 V2000
  160.3640  213.6520  147.6260 C   0  0  1  0  0  0  0  0  0  0  0  0
  161.2500  214.2440  146.5510 C   0  0  0  0  0  1  0  0  0  0  0  0
  154.3410  214.2100  153.6250 O   0  0  0  0  0  0  0  0  0  0  0  0
  157.4390  213.1490  152.2250 C   0  0  0  0  0  0  0  0  0  0  0  0
  157.3730  212.7410  154.6080 C   0  0  0  0  0  3  0  0  0  0  0  0
  160.7550  212.0990  149.2270 C   0  0  2  0  0  3  0  0  0  0  0  0
  156.1360  213.6620  152.3120 C   0  0  0  0  0  3  0  0  0  0  0  0
  159.1350  214.3460  147.9870 C   0  0  1  0  0  3  0  0  0  0  0  0
  156.1210  213.2630  154.6580 N   0  0  0  0  0  0  0  0  0  0  0  0
  155.4950  213.7200  153.5460 C   0  0  0  0  0  0  0  0  0  0  0  0
  160.4420  212.2600  147.8710 O   0  0  0  0  0  0  0  0  0  0  0  0
  160.5640  213.4470  149.8870 C   0  0  1  0  0  3  0  0  0  0  0  0
  158.0400  213.3960  148.4680 C   0  0  0  0  0  2  0  0  0  0  0  0
  158.0730  212.6800  153.3900 C   0  0  1  0  0  3  0  0  0  0  0  0
  160.3290  212.9170  152.3320 C   0  0  0  0  0  2  0  0  0  0  0  0
  158.1820  213.0640  150.9100 C   0  0  1  0  0  3  0  0  0  0  0  0
  159.4510  212.0370  153.2550 C   0  0  1  0  0  0  0  0  0  0  0  0
  157.4950  213.8460  149.8020 C   0  0  0  0  0  2  0  0  0  0  0  0
  160.3490  214.4530  148.8600 N   0  0  1  0  0  0  0  0  0  0  0  0
  159.6330  213.5440  151.1100 C   0  0  2  0  0  3  0  0  0  0  0  0
  163.0220  212.4850  148.5670 O   0  0  0  0  0  1  0  0  0  0  0  0
  162.2120  211.6560  149.3450 C   0  0  0  0  0  3  0  0  0  0  0  0
  162.3600  210.3390  148.9130 O   0  0  0  0  0  1  0  0  0  0  0  0
  160.0000  213.0710  155.5330 C   0  0  0  0  0  1  0  0  0  0  0  0
  160.2000  211.8740  154.6090 C   0  0  1  0  0  3  0  0  0  0  0  0
  159.8520  210.6960  155.2920 O   0  0  0  0  0  0  0  0  0  0  0  0
  160.7390  210.5910  156.3660 C   0  0  2  0  0  3  0  0  0  0  0  0
  162.4130  210.3410  155.7140 S   0  0  0  0  0  1  0  0  0  0  0  0
  160.3540  209.4250  157.2600 C   0  0  0  0  0  2  0  0  0  0  0  0
  160.1180  208.2300  156.4520 C   0  0  0  0  0  0  0  0  0  0  0  0
  159.9190  207.2860  155.8150 N   0  0  0  0  0  0  0  0  0  0  0  0
  159.2500  210.6550  152.5950 C   0  0  0  0  0  2  0  0  0  0  0  0
  160.2450  208.7310  151.5970 O   0  0  0  0  0  0  0  0  0  0  0  0
  160.8110  208.7780  152.8800 C   0  0  0  0  0  2  0  0  0  0  0  0
  160.5440  210.0090  152.1120 C   0  0  2  0  0  3  0  0  0  0  0  0
  1  2  1  6  0  0  0
  1 11  1  0  0  0  0
  1  8  1  0  0  0  0
  1 19  1  0  0  0  0
  4  7  2  0  0  0  0
  4 14  1  0  0  0  0
  5  9  2  0  0  0  0
  6 22  1  6  0  0  0
  6 12  1  0  0  0  0
  7 10  1  0  0  0  0
  8 13  1  1  0  0  0
  8 19  1  0  0  0  0
 10  3  2  0  0  0  0
 10  9  1  0  0  0  0
 11  6  1  0  0  0  0
 12 20  1  0  0  0  0
 13 18  1  0  0  0  0
 14  5  1  0  0  0  0
 15 17  1  0  0  0  0
 16 20  1  0  0  0  0
 16  4  1  0  0  0  0
 17 14  1  0  0  0  0
 17 25  1  0  0  0  0
 18 16  1  0  0  0  0
 19 12  1  0  0  0  0
 20 15  1  0  0  0  0
 21 22  1  0  0  0  0
 23 22  1  0  0  0  0
 25 26  1  0  0  0  0
 25 24  1  0  0  0  0
 26 27  1  0  0  0  0
 27 29  1  0  0  0  0
 28 27  1  0  0  0  0
 30 29  1  0  0  0  0
 31 30  3  0  0  0  0
 32 17  1  0  0  0  0
 33 35  1  0  0  0  0
 33 34  1  0  0  0  0
 35 32  1  0  0  0  0
 35 34  1  0  0  0  0
M  END
>  <MODEL>
3

>  <REMARK>
 VINA RESULT:      -3.3      2.978      5.718
  Name = 
  8 active torsions:
  status: ('A' for Active; 'I' for Inactive)
    1  A    between atoms: C_1  and  C_8
    2  A    between atoms: O_2  and  C_11
    3  A    between atoms: O_2  and  C_22
    4  A    between atoms: C_8  and  C_11
    5  A    between atoms: C_12  and  C_16
    6  A    between atoms: C_21  and  C_25
    7  A    between atoms: C_22  and  C_29
    8  A    between atoms: C_25  and  C_29
                            x       y       z     vdW  Elec       q    Type
                         _______ _______ _______ _____ _____    ______ ____

>  <TORSDO>
F 8

$$$$
=
 OpenBabel11072411273D

 35 40  0  0  1  0  0  0  0  0999 V2000
  160.5240  210.0180  156.0150 C   0  0  1  0  0  0  0  0  0  0  0  0
  159.7030  210.2870  157.2590 C   0  0  0  0  0  1  0  0  0  0  0  0
  162.8300  211.6280  147.9740 O   0  0  0  0  0  0  0  0  0  0  0  0
  161.9470  209.5770  150.7490 C   0  0  0  0  0  0  0  0  0  0  0  0
  161.8940  208.3200  148.6830 C   0  0  0  0  0  3  0  0  0  0  0  0
  161.1930  208.0930  155.0280 C   0  0  2  0  0  3  0  0  0  0  0  0
  162.3530  210.7010  150.0130 C   0  0  0  0  0  3  0  0  0  0  0  0
  160.6990  211.0870  155.0420 C   0  0  1  0  0  3  0  0  0  0  0  0
  162.2670  209.4330  148.0010 N   0  0  0  0  0  0  0  0  0  0  0  0
  162.4990  210.6110  148.6330 C   0  0  0  0  0  0  0  0  0  0  0  0
  161.4960  208.9900  156.0610 O   0  0  0  0  0  0  0  0  0  0  0  0
  160.1700  208.7700  154.1410 C   0  0  1  0  0  3  0  0  0  0  0  0
  162.0250  210.9900  154.2890 C   0  0  0  0  0  2  0  0  0  0  0  0
  161.7120  208.3640  150.0770 C   0  0  1  0  0  3  0  0  0  0  0  0
  160.3050  207.5190  151.9660 C   0  0  0  0  0  2  0  0  0  0  0  0
  161.7740  209.6200  152.2510 C   0  0  1  0  0  3  0  0  0  0  0  0
  161.3670  207.1310  150.9080 C   0  0  1  0  0  0  0  0  0  0  0  0
  161.7940  211.0390  152.7980 C   0  0  0  0  0  2  0  0  0  0  0  0
  159.7120  209.9880  154.7890 N   0  0  1  0  0  0  0  0  0  0  0  0
  160.4690  208.8960  152.6360 C   0  0  2  0  0  3  0  0  0  0  0  0
  159.2290  206.7790  155.4000 O   0  0  0  0  0  1  0  0  0  0  0  0
  160.6030  206.8230  155.6380 C   0  0  0  0  0  3  0  0  0  0  0  0
  160.8270  206.7900  157.0140 O   0  0  0  0  0  1  0  0  0  0  0  0
  159.8200  206.4220  148.9940 C   0  0  0  0  0  1  0  0  0  0  0  0
  160.7930  205.9520  150.0690 C   0  0  1  0  0  3  0  0  0  0  0  0
  161.7930  205.1610  149.4780 O   0  0  0  0  0  0  0  0  0  0  0  0
  161.1320  204.2640  148.6360 C   0  0  2  0  0  3  0  0  0  0  0  0
  160.7300  202.7680  149.5790 S   0  0  0  0  0  1  0  0  0  0  0  0
  162.0100  203.9040  147.4500 C   0  0  0  0  0  2  0  0  0  0  0  0
  161.9400  204.9580  146.4380 C   0  0  0  0  0  0  0  0  0  0  0  0
  161.8900  205.7980  145.6460 N   0  0  0  0  0  0  0  0  0  0  0  0
  162.6590  206.6860  151.6270 C   0  0  0  0  0  2  0  0  0  0  0  0
  162.6140  204.4460  152.4460 O   0  0  0  0  0  0  0  0  0  0  0  0
  161.2840  204.8780  152.5650 C   0  0  0  0  0  2  0  0  0  0  0  0
  162.4140  205.7870  152.8340 C   0  0  2  0  0  3  0  0  0  0  0  0
  1 11  1  0  0  0  0
  1  2  1  1  0  0  0
  3 10  2  0  0  0  0
  4 16  1  0  0  0  0
  5 14  1  0  0  0  0
  6 22  1  1  0  0  0
  6 11  1  0  0  0  0
  7  4  2  0  0  0  0
  8 13  1  6  0  0  0
  8  1  1  0  0  0  0
  9 10  1  0  0  0  0
  9  5  2  0  0  0  0
 10  7  1  0  0  0  0
 12 19  1  0  0  0  0
 12  6  1  0  0  0  0
 14  4  1  0  0  0  0
 14 17  1  0  0  0  0
 15 20  1  0  0  0  0
 16 20  1  0  0  0  0
 16 18  1  0  0  0  0
 17 32  1  0  0  0  0
 17 15  1  0  0  0  0
 18 13  1  0  0  0  0
 19  8  1  0  0  0  0
 19  1  1  0  0  0  0
 20 12  1  0  0  0  0
 21 22  1  0  0  0  0
 22 23  1  0  0  0  0
 24 25  1  0  0  0  0
 25 17  1  0  0  0  0
 26 25  1  0  0  0  0
 27 26  1  0  0  0  0
 27 28  1  0  0  0  0
 29 27  1  0  0  0  0
 30 29  1  0  0  0  0
 31 30  3  0  0  0  0
 32 35  1  0  0  0  0
 33 34  1  0  0  0  0
 33 35  1  0  0  0  0
 34 35  1  0  0  0  0
M  END
>  <MODEL>
4

>  <REMARK>
 VINA RESULT:      -2.5      3.048      7.819
  Name = 
  8 active torsions:
  status: ('A' for Active; 'I' for Inactive)
    1  A    between atoms: C_1  and  C_8
    2  A    between atoms: O_2  and  C_11
    3  A    between atoms: O_2  and  C_22
    4  A    between atoms: C_8  and  C_11
    5  A    between atoms: C_12  and  C_16
    6  A    between atoms: C_21  and  C_25
    7  A    between atoms: C_22  and  C_29
    8  A    between atoms: C_25  and  C_29
                            x       y       z     vdW  Elec       q    Type
                         _______ _______ _______ _____ _____    ______ ____

>  <TORSDO>
F 8

$$$$
=
 OpenBabel11072411273D

 35 40  0  0  1  0  0  0  0  0999 V2000
  160.8440  208.1110  155.7940 C   0  0  1  0  0  0  0  0  0  0  0  0
  161.2060  208.0200  157.2610 C   0  0  0  0  0  1  0  0  0  0  0  0
  161.5790  205.7110  147.6530 O   0  0  0  0  0  0  0  0  0  0  0  0
  161.2880  208.0310  150.3390 C   0  0  0  0  0  0  0  0  0  0  0  0
  161.9470  209.1420  148.2940 C   0  0  0  0  0  3  0  0  0  0  0  0
  160.4040  209.8790  154.4490 C   0  0  2  0  0  3  0  0  0  0  0  0
  161.2500  206.8220  149.6280 C   0  0  0  0  0  3  0  0  0  0  0  0
  161.1000  206.9650  154.9320 C   0  0  1  0  0  3  0  0  0  0  0  0
  161.9210  207.9500  147.6440 N   0  0  0  0  0  0  0  0  0  0  0  0
  161.5810  206.8010  148.2780 C   0  0  0  0  0  0  0  0  0  0  0  0
  159.8370  209.0270  155.4060 O   0  0  0  0  0  0  0  0  0  0  0  0
  161.7200  209.2590  154.0300 C   0  0  1  0  0  3  0  0  0  0  0  0
  160.1110  206.8640  153.7730 C   0  0  0  0  0  2  0  0  0  0  0  0
  161.6420  209.2140  149.6650 C   0  0  1  0  0  3  0  0  0  0  0  0
  162.2420  210.3360  151.8210 C   0  0  0  0  0  2  0  0  0  0  0  0
  160.9370  208.1110  151.8090 C   0  0  1  0  0  3  0  0  0  0  0  0
  161.5810  210.5310  150.4340 C   0  0  1  0  0  0  0  0  0  0  0  0
  160.8430  206.7390  152.4590 C   0  0  0  0  0  2  0  0  0  0  0  0
  162.0230  208.1460  154.9150 N   0  0  1  0  0  0  0  0  0  0  0  0
  161.9680  208.9990  152.5330 C   0  0  2  0  0  3  0  0  0  0  0  0
  161.9440  211.3070  155.5940 O   0  0  0  0  0  1  0  0  0  0  0  0
  160.6440  211.2450  155.0890 C   0  0  0  0  0  3  0  0  0  0  0  0
  159.7420  211.4650  156.1280 O   0  0  0  0  0  1  0  0  0  0  0  0
  163.3190  211.2210  148.6850 C   0  0  0  0  0  1  0  0  0  0  0  0
  162.3120  211.7060  149.7210 C   0  0  1  0  0  3  0  0  0  0  0  0
  161.4280  212.6190  149.1200 O   0  0  0  0  0  0  0  0  0  0  0  0
  161.7910  212.6830  147.7730 C   0  0  2  0  0  3  0  0  0  0  0  0
  162.3650  214.3630  147.4040 S   0  0  0  0  0  1  0  0  0  0  0  0
  160.6070  212.3370  146.8870 C   0  0  0  0  0  2  0  0  0  0  0  0
  159.4110  213.0370  147.3540 C   0  0  0  0  0  0  0  0  0  0  0  0
  158.4640  213.5830  147.7330 N   0  0  0  0  0  0  0  0  0  0  0  0
  160.0890  210.8800  150.6290 C   0  0  0  0  0  2  0  0  0  0  0  0
  158.5430  211.7830  152.2040 O   0  0  0  0  0  0  0  0  0  0  0  0
  158.7120  212.8140  151.2670 C   0  0  0  0  0  2  0  0  0  0  0  0
  159.8400  211.9570  151.6790 C   0  0  2  0  0  3  0  0  0  0  0  0
  1  2  1  1  0  0  0
  3 10  2  0  0  0  0
  4 16  1  0  0  0  0
  5 14  1  0  0  0  0
  6 22  1  1  0  0  0
  6 11  1  0  0  0  0
  7  4  2  0  0  0  0
  8 13  1  6  0  0  0
  8  1  1  0  0  0  0
  9 10  1  0  0  0  0
  9  5  2  0  0  0  0
 10  7  1  0  0  0  0
 11  1  1  0  0  0  0
 12  6  1  0  0  0  0
 12 19  1  0  0  0  0
 14  4  1  0  0  0  0
 14 17  1  0  0  0  0
 15 20  1  0  0  0  0
 16 18  1  0  0  0  0
 16 20  1  0  0  0  0
 17 32  1  0  0  0  0
 17 15  1  0  0  0  0
 18 13  1  0  0  0  0
 19  8  1  0  0  0  0
 19  1  1  0  0  0  0
 20 12  1  0  0  0  0
 22 21  1  0  0  0  0
 22 23  1  0  0  0  0
 24 25  1  0  0  0  0
 25 17  1  0  0  0  0
 26 25  1  0  0  0  0
 27 26  1  0  0  0  0
 28 27  1  0  0  0  0
 29 30  1  0  0  0  0
 29 27  1  0  0  0  0
 30 31  3  0  0  0  0
 32 35  1  0  0  0  0
 34 35  1  0  0  0  0
 34 33  1  0  0  0  0
 35 33  1  0  0  0  0
M  END
>  <MODEL>
5

>  <REMARK>
 VINA RESULT:      -1.4      2.862      6.394
  Name = 
  8 active torsions:
  status: ('A' for Active; 'I' for Inactive)
    1  A    between atoms: C_1  and  C_8
    2  A    between atoms: O_2  and  C_11
    3  A    between atoms: O_2  and  C_22
    4  A    between atoms: C_8  and  C_11
    5  A    between atoms: C_12  and  C_16
    6  A    between atoms: C_21  and  C_25
    7  A    between atoms: C_22  and  C_29
    8  A    between atoms: C_25  and  C_29
                            x       y       z     vdW  Elec       q    Type
                         _______ _______ _______ _____ _____    ______ ____

>  <TORSDO>
F 8

$$$$
=
 OpenBabel11072411273D

 35 40  0  0  1  0  0  0  0  0999 V2000
  162.0560  205.8030  149.0180 C   0  0  1  0  0  0  0  0  0  0  0  0
  161.9310  205.2260  147.6240 C   0  0  0  0  0  1  0  0  0  0  0  0
  159.9400  206.2050  157.2610 O   0  0  0  0  0  0  0  0  0  0  0  0
  160.7400  207.5150  154.0470 C   0  0  0  0  0  0  0  0  0  0  0  0
  159.7990  209.2250  155.4770 C   0  0  0  0  0  3  0  0  0  0  0  0
  162.3360  207.9230  149.7610 C   0  0  2  0  0  3  0  0  0  0  0  0
  160.6200  206.6090  155.1110 C   0  0  0  0  0  3  0  0  0  0  0  0
  161.6250  205.0000  150.1540 C   0  0  1  0  0  3  0  0  0  0  0  0
  159.6790  208.3150  156.4780 N   0  0  0  0  0  0  0  0  0  0  0  0
  160.0760  207.0270  156.3210 C   0  0  0  0  0  0  0  0  0  0  0  0
  163.0190  206.8150  149.2430 O   0  0  0  0  0  0  0  0  0  0  0  0
  160.9490  207.4500  150.1390 C   0  0  1  0  0  3  0  0  0  0  0  0
  162.4110  205.3070  151.4270 C   0  0  0  0  0  2  0  0  0  0  0  0
  160.3230  208.8470  154.2280 C   0  0  1  0  0  3  0  0  0  0  0  0
  160.1170  209.1840  151.7560 C   0  0  0  0  0  2  0  0  0  0  0  0
  161.3240  207.1130  152.7110 C   0  0  1  0  0  3  0  0  0  0  0  0
  160.5530  209.8380  153.0910 C   0  0  1  0  0  0  0  0  0  0  0  0
  161.4730  205.6070  152.5710 C   0  0  0  0  0  2  0  0  0  0  0  0
  160.7530  206.1020  149.6320 N   0  0  1  0  0  0  0  0  0  0  0  0
  160.4550  207.6920  151.5770 C   0  0  2  0  0  3  0  0  0  0  0  0
  162.2140  210.2610  149.2680 O   0  0  0  0  0  1  0  0  0  0  0  0
  162.2490  208.9970  148.6780 C   0  0  0  0  0  3  0  0  0  0  0  0
  161.1010  208.8230  147.9070 O   0  0  0  0  0  1  0  0  0  0  0  0
  160.5180  212.2050  154.0660 C   0  0  0  0  0  1  0  0  0  0  0  0
  159.7580  211.1670  153.2490 C   0  0  1  0  0  3  0  0  0  0  0  0
  159.3780  211.7300  152.0180 O   0  0  0  0  0  0  0  0  0  0  0  0
  159.2910  213.1080  152.2310 C   0  0  2  0  0  3  0  0  0  0  0  0
  157.5700  213.5300  152.6140 S   0  0  0  0  0  1  0  0  0  0  0  0
  159.7450  213.8650  150.9950 C   0  0  0  0  0  2  0  0  0  0  0  0
  158.7940  213.6560  149.9030 C   0  0  0  0  0  0  0  0  0  0  0  0
  158.0530  213.4930  149.0310 N   0  0  0  0  0  0  0  0  0  0  0  0
  162.0680  210.1340  153.0380 C   0  0  0  0  0  2  0  0  0  0  0  0
  163.9450  210.7510  154.3730 O   0  0  0  0  0  0  0  0  0  0  0  0
  163.0720  210.1340  155.2810 C   0  0  0  0  0  2  0  0  0  0  0  0
  162.5680  210.9940  154.1930 C   0  0  2  0  0  3  0  0  0  0  0  0
  1  2  1  6  0  0  0
  1 11  1  0  0  0  0
  1 19  1  0  0  0  0
  1  8  1  0  0  0  0
  4 14  1  0  0  0  0
  4  7  2  0  0  0  0
  5  9  2  0  0  0  0
  6 22  1  6  0  0  0
  6 12  1  0  0  0  0
  7 10  1  0  0  0  0
  8 13  1  1  0  0  0
 10  9  1  0  0  0  0
 10  3  2  0  0  0  0
 11  6  1  0  0  0  0
 12 20  1  0  0  0  0
 13 18  1  0  0  0  0
 14  5  1  0  0  0  0
 15 17  1  0  0  0  0
 16  4  1  0  0  0  0
 17 25  1  0  0  0  0
 17 14  1  0  0  0  0
 18 16  1  0  0  0  0
 19 12  1  0  0  0  0
 19  8  1  0  0  0  0
 20 15  1  0  0  0  0
 20 16  1  0  0  0  0
 22 21  1  0  0  0  0
 23 22  1  0  0  0  0
 25 24  1  0  0  0  0
 26 27  1  0  0  0  0
 26 25  1  0  0  0  0
 27 28  1  0  0  0  0
 29 27  1  0  0  0  0
 30 29  1  0  0  0  0
 31 30  3  0  0  0  0
 32 17  1  0  0  0  0
 32 35  1  0  0  0  0
 33 34  1  0  0  0  0
 35 33  1  0  0  0  0
 35 34  1  0  0  0  0
M  END
>  <MODEL>
6

>  <REMARK>
 VINA RESULT:      -1.3      1.771      2.243
  Name = 
  8 active torsions:
  status: ('A' for Active; 'I' for Inactive)
    1  A    between atoms: C_1  and  C_8
    2  A    between atoms: O_2  and  C_11
    3  A    between atoms: O_2  and  C_22
    4  A    between atoms: C_8  and  C_11
    5  A    between atoms: C_12  and  C_16
    6  A    between atoms: C_21  and  C_25
    7  A    between atoms: C_22  and  C_29
    8  A    between atoms: C_25  and  C_29
                            x       y       z     vdW  Elec       q    Type
                         _______ _______ _______ _____ _____    ______ ____

>  <TORSDO>
F 8

$$$$
=
 OpenBabel11072411273D

 35 40  0  0  1  0  0  0  0  0999 V2000
  160.7610  202.8590  149.5100 C   0  0  1  0  0  0  0  0  0  0  0  0
  160.1110  201.7980  148.6480 C   0  0  0  0  0  1  0  0  0  0  0  0
  161.4590  207.4000  156.6840 O   0  0  0  0  0  0  0  0  0  0  0  0
  161.3940  206.8880  153.1600 C   0  0  0  0  0  0  0  0  0  0  0  0
  161.2380  209.2400  153.7020 C   0  0  0  0  0  3  0  0  0  0  0  0
  161.5920  204.9080  149.0220 C   0  0  2  0  0  3  0  0  0  0  0  0
  161.4780  206.6130  154.5330 C   0  0  0  0  0  3  0  0  0  0  0  0
  160.5910  202.7940  150.9550 C   0  0  1  0  0  3  0  0  0  0  0  0
  161.2990  208.9340  155.0240 N   0  0  0  0  0  0  0  0  0  0  0  0
  161.4180  207.6540  155.4540 C   0  0  0  0  0  0  0  0  0  0  0  0
  161.8920  203.5390  149.0000 O   0  0  0  0  0  0  0  0  0  0  0  0
  160.3410  205.0720  149.8560 C   0  0  1  0  0  3  0  0  0  0  0  0
  161.7790  203.3800  151.7160 C   0  0  0  0  0  2  0  0  0  0  0  0
  161.2720  208.2220  152.7320 C   0  0  1  0  0  3  0  0  0  0  0  0
  160.3480  207.4950  150.5220 C   0  0  0  0  0  2  0  0  0  0  0  0
  161.4540  205.7940  152.1160 C   0  0  1  0  0  3  0  0  0  0  0  0
  161.2820  208.5060  151.2320 C   0  0  1  0  0  0  0  0  0  0  0  0
  161.3120  204.4060  152.7200 C   0  0  0  0  0  2  0  0  0  0  0  0
  159.7840  203.7600  150.1410 N   0  0  1  0  0  0  0  0  0  0  0  0
  160.3720  206.0470  151.0470 C   0  0  2  0  0  3  0  0  0  0  0  0
  160.0520  205.9150  147.4930 O   0  0  0  0  0  1  0  0  0  0  0  0
  161.3360  205.3770  147.5910 C   0  0  0  0  0  3  0  0  0  0  0  0
  161.4530  204.3130  146.6980 O   0  0  0  0  0  1  0  0  0  0  0  0
  160.0000  210.5900  151.9870 C   0  0  0  0  0  1  0  0  0  0  0  0
  160.7990  209.9380  150.8630 C   0  0  1  0  0  3  0  0  0  0  0  0
  161.8490  210.7920  150.4820 O   0  0  0  0  0  0  0  0  0  0  0  0
  161.3360  211.6170  149.4800 C   0  0  2  0  0  3  0  0  0  0  0  0
  162.6740  212.0410  148.3330 S   0  0  0  0  0  1  0  0  0  0  0  0
  160.7520  212.8840  150.0820 C   0  0  0  0  0  2  0  0  0  0  0  0
  160.1280  213.6930  149.0370 C   0  0  0  0  0  0  0  0  0  0  0  0
  159.6450  214.3390  148.2070 N   0  0  0  0  0  0  0  0  0  0  0  0
  162.7290  208.2940  150.7350 C   0  0  0  0  0  2  0  0  0  0  0  0
  163.4520  208.5430  148.4760 O   0  0  0  0  0  0  0  0  0  0  0  0
  162.0560  208.4380  148.3750 C   0  0  0  0  0  2  0  0  0  0  0  0
  162.8190  207.6450  149.3590 C   0  0  2  0  0  3  0  0  0  0  0  0
  1  2  1  6  0  0  0
  1 19  1  0  0  0  0
  1  8  1  0  0  0  0
  4  7  2  0  0  0  0
  5  9  2  0  0  0  0
  6 22  1  6  0  0  0
  6 12  1  0  0  0  0
  7 10  1  0  0  0  0
  8 13  1  1  0  0  0
  9 10  1  0  0  0  0
 10  3  2  0  0  0  0
 11  6  1  0  0  0  0
 11  1  1  0  0  0  0
 12 19  1  0  0  0  0
 12 20  1  0  0  0  0
 13 18  1  0  0  0  0
 14  4  1  0  0  0  0
 14  5  1  0  0  0  0
 15 20  1  0  0  0  0
 15 17  1  0  0  0  0
 16 18  1  0  0  0  0
 16  4  1  0  0  0  0
 17 14  1  0  0  0  0
 19  8  1  0  0  0  0
 20 16  1  0  0  0  0
 21 22  1  0  0  0  0
 23 22  1  0  0  0  0
 25 17  1  0  0  0  0
 25 24  1  0  0  0  0
 26 25  1  0  0  0  0
 27 29  1  0  0  0  0
 27 26  1  0  0  0  0
 28 27  1  0  0  0  0
 30 29  1  0  0  0  0
 31 30  3  0  0  0  0
 32 17  1  0  0  0  0
 33 35  1  0  0  0  0
 34 33  1  0  0  0  0
 34 35  1  0  0  0  0
 35 32  1  0  0  0  0
M  END
>  <MODEL>
7

>  <REMARK>
 VINA RESULT:      -1.2      3.075      4.820
  Name = 
  8 active torsions:
  status: ('A' for Active; 'I' for Inactive)
    1  A    between atoms: C_1  and  C_8
    2  A    between atoms: O_2  and  C_11
    3  A    between atoms: O_2  and  C_22
    4  A    between atoms: C_8  and  C_11
    5  A    between atoms: C_12  and  C_16
    6  A    between atoms: C_21  and  C_25
    7  A    between atoms: C_22  and  C_29
    8  A    between atoms: C_25  and  C_29
                            x       y       z     vdW  Elec       q    Type
                         _______ _______ _______ _____ _____    ______ ____

>  <TORSDO>
F 8

$$$$
=
 OpenBabel11072411273D

 35 40  0  0  1  0  0  0  0  0999 V2000
  161.4400  204.4630  149.9680 C   0  0  1  0  0  0  0  0  0  0  0  0
  160.9630  203.2770  149.1570 C   0  0  0  0  0  1  0  0  0  0  0  0
  162.3380  208.7790  157.2580 O   0  0  0  0  0  0  0  0  0  0  0  0
  161.6370  208.3770  153.7890 C   0  0  0  0  0  0  0  0  0  0  0  0
  160.9060  210.5430  154.5810 C   0  0  0  0  0  3  0  0  0  0  0  0
  161.4830  206.6830  149.5240 C   0  0  2  0  0  3  0  0  0  0  0  0
  162.1070  208.1010  155.0820 C   0  0  0  0  0  3  0  0  0  0  0  0
  161.6290  204.3050  151.4030 C   0  0  1  0  0  3  0  0  0  0  0  0
  161.3540  210.2330  155.8250 N   0  0  0  0  0  0  0  0  0  0  0  0
  161.9460  209.0430  156.0940 C   0  0  0  0  0  0  0  0  0  0  0  0
  162.1680  205.4810  149.3060 O   0  0  0  0  0  0  0  0  0  0  0  0
  160.4630  206.4200  150.6090 C   0  0  1  0  0  3  0  0  0  0  0  0
  162.7240  205.2130  151.9590 C   0  0  0  0  0  2  0  0  0  0  0  0
  161.0260  209.6170  153.5290 C   0  0  1  0  0  3  0  0  0  0  0  0
  159.8900  208.7010  151.4950 C   0  0  0  0  0  2  0  0  0  0  0  0
  161.7860  207.3890  152.6530 C   0  0  1  0  0  3  0  0  0  0  0  0
  160.6110  209.9330  152.0950 C   0  0  1  0  0  0  0  0  0  0  0  0
  162.2090  206.0100  153.1330 C   0  0  0  0  0  2  0  0  0  0  0  0
  160.4060  204.9910  150.8710 N   0  0  1  0  0  0  0  0  0  0  0  0
  160.4670  207.3200  151.8590 C   0  0  2  0  0  3  0  0  0  0  0  0
  159.5380  206.4620  148.1490 O   0  0  0  0  0  1  0  0  0  0  0  0
  160.7820  207.0900  148.2290 C   0  0  0  0  0  3  0  0  0  0  0  0
  161.5470  206.7260  147.1220 O   0  0  0  0  0  1  0  0  0  0  0  0
  158.6640  211.2280  153.1360 C   0  0  0  0  0  1  0  0  0  0  0  0
  159.6490  211.1500  151.9760 C   0  0  1  0  0  3  0  0  0  0  0  0
  160.3260  212.3760  151.8560 O   0  0  0  0  0  0  0  0  0  0  0  0
  159.5280  213.1840  151.0430 C   0  0  2  0  0  3  0  0  0  0  0  0
  160.5390  213.8120  149.6750 S   0  0  0  0  0  1  0  0  0  0  0  0
  158.9610  214.3450  151.8410 C   0  0  0  0  0  2  0  0  0  0  0  0
  157.5000  214.3150  151.8000 C   0  0  0  0  0  0  0  0  0  0  0  0
  156.3450  214.2830  151.7580 N   0  0  0  0  0  0  0  0  0  0  0  0
  161.9040  210.2030  151.2930 C   0  0  0  0  0  2  0  0  0  0  0  0
  162.8540  209.7260  149.1580 O   0  0  0  0  0  0  0  0  0  0  0  0
  162.6940  211.1200  149.1540 C   0  0  0  0  0  2  0  0  0  0  0  0
  161.6970  210.2340  149.7830 C   0  0  2  0  0  3  0  0  0  0  0  0
  1  2  1  6  0  0  0
  1 19  1  0  0  0  0
  1  8  1  0  0  0  0
  4  7  2  0  0  0  0
  5  9  2  0  0  0  0
  6 22  1  6  0  0  0
  6 12  1  0  0  0  0
  7 10  1  0  0  0  0
  8 13  1  1  0  0  0
  9 10  1  0  0  0  0
 10  3  2  0  0  0  0
 11  6  1  0  0  0  0
 11  1  1  0  0  0  0
 12 19  1  0  0  0  0
 12 20  1  0  0  0  0
 13 18  1  0  0  0  0
 14  4  1  0  0  0  0
 14  5  1  0  0  0  0
 15 20  1  0  0  0  0
 15 17  1  0  0  0  0
 16 18  1  0  0  0  0
 16  4  1  0  0  0  0
 17 14  1  0  0  0  0
 19  8  1  0  0  0  0
 20 16  1  0  0  0  0
 21 22  1  0  0  0  0
 23 22  1  0  0  0  0
 25 17  1  0  0  0  0
 25 24  1  0  0  0  0
 26 25  1  0  0  0  0
 27 29  1  0  0  0  0
 27 26  1  0  0  0  0
 28 27  1  0  0  0  0
 30 29  1  0  0  0  0
 31 30  3  0  0  0  0
 32 17  1  0  0  0  0
 33 35  1  0  0  0  0
 34 33  1  0  0  0  0
 34 35  1  0  0  0  0
 35 32  1  0  0  0  0
M  END
>  <MODEL>
8

>  <REMARK>
 VINA RESULT:      -1.0      2.437      3.475
  Name = 
  8 active torsions:
  status: ('A' for Active; 'I' for Inactive)
    1  A    between atoms: C_1  and  C_8
    2  A    between atoms: O_2  and  C_11
    3  A    between atoms: O_2  and  C_22
    4  A    between atoms: C_8  and  C_11
    5  A    between atoms: C_12  and  C_16
    6  A    between atoms: C_21  and  C_25
    7  A    between atoms: C_22  and  C_29
    8  A    between atoms: C_25  and  C_29
                            x       y       z     vdW  Elec       q    Type
                         _______ _______ _______ _____ _____    ______ ____

>  <TORSDO>
F 8

$$$$
