=
 OpenBabel11072412393D

 31 33  0  0  1  0  0  0  0  0999 V2000
  162.2080  209.6210  151.9890 C   0  0  0  0  0  2  0  0  0  0  0  0
  161.6330  210.4730  153.1120 C   0  0  2  0  0  3  0  0  0  0  0  0
  157.2410  213.0020  155.6850 C   0  0  0  0  0  2  0  0  0  0  0  0
  159.0480  213.2110  153.2210 C   0  0  0  0  0  2  0  0  0  0  0  0
  158.2740  212.2720  156.3310 O   0  0  0  0  0  0  0  0  0  0  0  0
  159.6130  212.5980  156.1330 C   0  0  0  0  0  0  0  0  0  0  0  0
  157.5230  213.0570  153.1610 C   0  0  0  0  0  2  0  0  0  0  0  0
  156.9000  212.3400  154.3590 C   0  0  0  0  0  2  0  0  0  0  0  0
  160.6440  208.5120  154.1540 O   0  0  0  0  0  1  0  0  0  0  0  0
  159.2990  210.7800  153.1900 O   0  0  0  0  0  0  0  0  0  0  0  0
  160.1640  213.5130  156.8600 N   0  0  0  0  0  2  0  0  0  0  0  0
  160.4270  211.8950  155.0950 C   0  0  1  0  0  3  0  0  0  0  0  0
  160.7540  210.4660  155.5280 C   0  0  0  0  0  2  0  0  0  0  0  0
  161.4080  209.6540  154.4080 C   0  0  2  0  0  3  0  0  0  0  0  0
  160.4770  211.2580  152.6240 N   0  0  1  0  0  0  0  0  0  0  0  0
  159.7800  211.9540  153.6930 C   0  0  2  0  0  0  0  0  0  0  0  0
  161.1790  208.9650  151.3110 O   0  0  0  0  0  0  0  0  0  0  0  0
  161.7830  207.8520  150.7210 C   0  0  0  0  0  2  0  0  0  0  0  0
  162.1110  205.9160  152.1620 N   0  0  0  0  0  1  0  0  0  0  0  0
  161.1710  206.5700  151.2680 C   0  0  2  0  0  3  0  0  0  0  0  0
  160.7380  205.6150  150.1570 C   0  0  0  0  0  2  0  0  0  0  0  0
  161.3480  205.9820  148.8100 C   0  0  0  0  0  2  0  0  0  0  0  0
  161.4580  204.7750  147.9280 C   0  0  0  0  0  0  0  0  0  0  0  0
  161.1380  203.5750  148.4350 C   0  0  0  0  0  3  0  0  0  0  0  0
  163.2930  204.6150  146.1580 C   0  0  0  0  0  1  0  0  0  0  0  0
  161.8320  204.9350  146.4710 C   0  0  2  0  0  3  0  0  0  0  0  0
  161.3700  206.1360  145.8880 O   0  0  0  0  0  0  0  0  0  0  0  0
  160.1340  205.8990  145.2670 C   0  0  0  0  0  1  0  0  0  0  0  0
  161.1410  202.3040  147.6430 C   0  0  0  0  0  2  0  0  0  0  0  0
  160.8100  201.2980  149.8460 C   0  0  0  0  0  2  0  0  0  0  0  0
  161.0890  201.1270  148.5580 C   0  0  0  0  0  3  0  0  0  0  0  0
  2  1  1  6  0  0  0
  2 14  1  0  0  0  0
  3  5  1  0  0  0  0
  6  5  1  0  0  0  0
  6 11  2  0  0  0  0
  7  4  1  0  0  0  0
  7  8  1  0  0  0  0
  8  3  1  0  0  0  0
 10 16  1  0  0  0  0
 12 13  1  1  0  0  0
 12  6  1  0  0  0  0
 14  9  1  6  0  0  0
 14 13  1  0  0  0  0
 15  2  1  0  0  0  0
 15 10  1  1  0  0  0
 15 16  1  0  0  0  0
 16  4  1  6  0  0  0
 16 12  1  0  0  0  0
 17  1  1  0  0  0  0
 18 20  1  0  0  0  0
 18 17  1  0  0  0  0
 20 19  1  1  0  0  0
 21 20  1  0  0  0  0
 22 21  1  0  0  0  0
 23 24  2  0  0  0  0
 23 22  1  0  0  0  0
 26 25  1  1  0  0  0
 26 23  1  0  0  0  0
 27 26  1  0  0  0  0
 28 27  1  0  0  0  0
 29 24  1  0  0  0  0
 29 31  1  0  0  0  0
 31 30  2  0  0  0  0
M  END
>  <MODEL>
1

>  <REMARK>
 VINA RESULT:      -7.4      0.000      0.000
  Name = 
  11 active torsions:
  status: ('A' for Active; 'I' for Inactive)
    1  A    between atoms: O_1  and  C_4
    2  A    between atoms: O_1  and  C_18
    3  A    between atoms: C_2  and  C_4
    4  A    between atoms: O_6  and  C_17
    5  A    between atoms: C_10  and  C_19
    6  A    between atoms: C_10  and  C_24
    7  A    between atoms: C_12  and  C_17
    8  A    between atoms: C_12  and  C_29
    9  A    between atoms: C_18  and  C_31
   10  A    between atoms: C_26  and  C_29
   11  A    between atoms: C_26  and  C_31
                            x       y       z     vdW  Elec       q    Type
                         _______ _______ _______ _____ _____    ______ ____

>  <TORSDO>
F 11

$$$$
=
 OpenBabel11072412393D

 31 33  0  0  1  0  0  0  0  0999 V2000
  160.9440  204.5210  152.6780 C   0  0  0  0  0  2  0  0  0  0  0  0
  160.7170  206.0220  152.7950 C   0  0  2  0  0  3  0  0  0  0  0  0
  161.5930  210.9950  155.4030 C   0  0  0  0  0  2  0  0  0  0  0  0
  160.1140  208.3300  155.7100 C   0  0  0  0  0  2  0  0  0  0  0  0
  161.6080  210.7800  154.0000 O   0  0  0  0  0  0  0  0  0  0  0  0
  160.5240  210.1900  153.3550 C   0  0  0  0  0  0  0  0  0  0  0  0
  161.1500  208.8610  156.7090 C   0  0  0  0  0  2  0  0  0  0  0  0
  162.2030  209.7960  156.1110 C   0  0  0  0  0  2  0  0  0  0  0  0
  162.9620  206.4700  151.9780 O   0  0  0  0  0  1  0  0  0  0  0  0
  161.8870  207.1960  154.4680 O   0  0  0  0  0  0  0  0  0  0  0  0
  159.5330  210.9220  152.9680 N   0  0  0  0  0  2  0  0  0  0  0  0
  160.4970  208.7180  153.0930 C   0  0  1  0  0  3  0  0  0  0  0  0
  161.4720  208.3400  151.9790 C   0  0  0  0  0  2  0  0  0  0  0  0
  161.6200  206.8250  151.8240 C   0  0  2  0  0  3  0  0  0  0  0  0
  160.7470  206.4390  154.2150 N   0  0  1  0  0  0  0  0  0  0  0  0
  160.7130  207.8840  154.3760 C   0  0  2  0  0  0  0  0  0  0  0  0
  160.6820  204.0970  151.3740 O   0  0  0  0  0  0  0  0  0  0  0  0
  161.3410  202.8710  151.2500 C   0  0  0  0  0  2  0  0  0  0  0  0
  161.2450  200.6710  150.2100 N   0  0  0  0  0  1  0  0  0  0  0  0
  160.5380  201.9310  150.3620 C   0  0  2  0  0  3  0  0  0  0  0  0
  160.2370  202.5430  148.9950 C   0  0  0  0  0  2  0  0  0  0  0  0
  161.5050  202.8460  148.2060 C   0  0  0  0  0  2  0  0  0  0  0  0
  161.3640  204.1280  147.4420 C   0  0  0  0  0  0  0  0  0  0  0  0
  160.9170  205.2170  148.0880 C   0  0  0  0  0  3  0  0  0  0  0  0
  163.1670  204.8730  145.7920 C   0  0  0  0  0  1  0  0  0  0  0  0
  161.8100  204.2020  145.9990 C   0  0  2  0  0  3  0  0  0  0  0  0
  160.8070  204.6510  145.1110 O   0  0  0  0  0  0  0  0  0  0  0  0
  161.4130  205.3140  144.0310 C   0  0  0  0  0  1  0  0  0  0  0  0
  160.7940  206.5700  147.4590 C   0  0  0  0  0  2  0  0  0  0  0  0
  162.7230  207.7110  148.4330 C   0  0  0  0  0  2  0  0  0  0  0  0
  161.4020  207.6050  148.3440 C   0  0  0  0  0  3  0  0  0  0  0  0
  2  1  1  1  0  0  0
  2 15  1  0  0  0  0
  3  8  1  0  0  0  0
  4  7  1  0  0  0  0
  5  3  1  0  0  0  0
  6  5  1  0  0  0  0
  8  7  1  0  0  0  0
 11  6  2  0  0  0  0
 12 13  1  6  0  0  0
 12  6  1  0  0  0  0
 12 16  1  0  0  0  0
 14  9  1  1  0  0  0
 14 13  1  0  0  0  0
 14  2  1  0  0  0  0
 15 16  1  0  0  0  0
 15 10  1  6  0  0  0
 16 10  1  0  0  0  0
 16  4  1  1  0  0  0
 17  1  1  0  0  0  0
 18 17  1  0  0  0  0
 20 19  1  6  0  0  0
 20 18  1  0  0  0  0
 21 20  1  0  0  0  0
 22 21  1  0  0  0  0
 23 24  2  0  0  0  0
 23 22  1  0  0  0  0
 26 25  1  1  0  0  0
 26 23  1  0  0  0  0
 27 26  1  0  0  0  0
 28 27  1  0  0  0  0
 29 24  1  0  0  0  0
 29 31  1  0  0  0  0
 31 30  2  0  0  0  0
M  END
>  <MODEL>
2

>  <REMARK>
 VINA RESULT:      -7.3      2.406      4.431
  Name = 
  11 active torsions:
  status: ('A' for Active; 'I' for Inactive)
    1  A    between atoms: O_1  and  C_4
    2  A    between atoms: O_1  and  C_18
    3  A    between atoms: C_2  and  C_4
    4  A    between atoms: O_6  and  C_17
    5  A    between atoms: C_10  and  C_19
    6  A    between atoms: C_10  and  C_24
    7  A    between atoms: C_12  and  C_17
    8  A    between atoms: C_12  and  C_29
    9  A    between atoms: C_18  and  C_31
   10  A    between atoms: C_26  and  C_29
   11  A    between atoms: C_26  and  C_31
                            x       y       z     vdW  Elec       q    Type
                         _______ _______ _______ _____ _____    ______ ____

>  <TORSDO>
F 11

$$$$
=
 OpenBabel11072412393D

 31 33  0  0  1  0  0  0  0  0999 V2000
  161.6970  207.4440  150.6690 C   0  0  0  0  0  2  0  0  0  0  0  0
  161.0220  208.3070  151.7260 C   0  0  2  0  0  3  0  0  0  0  0  0
  160.7370  210.3830  157.0090 C   0  0  0  0  0  2  0  0  0  0  0  0
  160.2990  207.8210  155.3900 C   0  0  0  0  0  2  0  0  0  0  0  0
  160.5400  211.1250  155.8140 O   0  0  0  0  0  0  0  0  0  0  0  0
  159.6010  210.7210  154.8680 C   0  0  0  0  0  0  0  0  0  0  0  0
  161.2840  207.9430  156.5600 C   0  0  0  0  0  2  0  0  0  0  0  0
  161.8330  209.3510  156.7960 C   0  0  0  0  0  2  0  0  0  0  0  0
  162.7880  209.9690  151.5590 O   0  0  0  0  0  1  0  0  0  0  0  0
  162.0570  208.4950  153.8330 O   0  0  0  0  0  0  0  0  0  0  0  0
  158.3690  211.0900  154.9910 N   0  0  0  0  0  2  0  0  0  0  0  0
  160.0020  209.8730  153.7050 C   0  0  1  0  0  3  0  0  0  0  0  0
  160.8020  210.6820  152.6850 C   0  0  0  0  0  2  0  0  0  0  0  0
  161.4010  209.8040  151.5850 C   0  0  2  0  0  3  0  0  0  0  0  0
  161.1990  207.7100  153.0690 N   0  0  1  0  0  0  0  0  0  0  0  0
  160.7300  208.5800  154.1350 C   0  0  2  0  0  0  0  0  0  0  0  0
  161.4200  207.9430  149.3950 O   0  0  0  0  0  0  0  0  0  0  0  0
  160.7750  206.8990  148.7270 C   0  0  0  0  0  2  0  0  0  0  0  0
  160.5900  206.4660  146.3370 N   0  0  0  0  0  1  0  0  0  0  0  0
  161.5230  206.5530  147.4470 C   0  0  2  0  0  3  0  0  0  0  0  0
  162.3220  205.2560  147.5760 C   0  0  0  0  0  2  0  0  0  0  0  0
  161.7180  204.1220  146.7560 C   0  0  0  0  0  2  0  0  0  0  0  0
  161.2260  203.0230  147.6480 C   0  0  0  0  0  0  0  0  0  0  0  0
  161.1470  203.2510  148.9690 C   0  0  0  0  0  3  0  0  0  0  0  0
  161.5470  200.4940  147.4750 C   0  0  0  0  0  1  0  0  0  0  0  0
  160.7430  201.7210  147.0480 C   0  0  2  0  0  3  0  0  0  0  0  0
  160.4930  201.7880  145.6590 O   0  0  0  0  0  0  0  0  0  0  0  0
  160.2020  200.4990  145.1830 C   0  0  0  0  0  1  0  0  0  0  0  0
  160.6120  202.2610  149.9570 C   0  0  0  0  0  2  0  0  0  0  0  0
  161.3230  203.8700  151.6550 C   0  0  0  0  0  2  0  0  0  0  0  0
  161.0790  202.6040  151.3310 C   0  0  0  0  0  3  0  0  0  0  0  0
  2  1  1  6  0  0  0
  2 15  1  0  0  0  0
  4  7  1  0  0  0  0
  5  3  1  0  0  0  0
  6 11  2  0  0  0  0
  6  5  1  0  0  0  0
  7  8  1  0  0  0  0
  8  3  1  0  0  0  0
 10 16  1  0  0  0  0
 12 13  1  6  0  0  0
 12 16  1  0  0  0  0
 12  6  1  0  0  0  0
 14  9  1  1  0  0  0
 14  2  1  0  0  0  0
 14 13  1  0  0  0  0
 15 10  1  1  0  0  0
 15 16  1  0  0  0  0
 16  4  1  1  0  0  0
 17  1  1  0  0  0  0
 18 17  1  0  0  0  0
 20 19  1  6  0  0  0
 20 21  1  0  0  0  0
 20 18  1  0  0  0  0
 22 21  1  0  0  0  0
 22 23  1  0  0  0  0
 23 24  2  0  0  0  0
 24 29  1  0  0  0  0
 26 25  1  6  0  0  0
 26 23  1  0  0  0  0
 27 26  1  0  0  0  0
 28 27  1  0  0  0  0
 29 31  1  0  0  0  0
 31 30  2  0  0  0  0
M  END
>  <MODEL>
3

>  <REMARK>
 VINA RESULT:      -7.2      2.179      3.814
  Name = 
  11 active torsions:
  status: ('A' for Active; 'I' for Inactive)
    1  A    between atoms: O_1  and  C_4
    2  A    between atoms: O_1  and  C_18
    3  A    between atoms: C_2  and  C_4
    4  A    between atoms: O_6  and  C_17
    5  A    between atoms: C_10  and  C_19
    6  A    between atoms: C_10  and  C_24
    7  A    between atoms: C_12  and  C_17
    8  A    between atoms: C_12  and  C_29
    9  A    between atoms: C_18  and  C_31
   10  A    between atoms: C_26  and  C_29
   11  A    between atoms: C_26  and  C_31
                            x       y       z     vdW  Elec       q    Type
                         _______ _______ _______ _____ _____    ______ ____

>  <TORSDO>
F 11

$$$$
=
 OpenBabel11072412393D

 31 33  0  0  1  0  0  0  0  0999 V2000
  161.5390  207.4550  151.6500 C   0  0  0  0  0  2  0  0  0  0  0  0
  160.8100  208.6300  152.2880 C   0  0  2  0  0  3  0  0  0  0  0  0
  160.0930  212.3050  156.5640 C   0  0  0  0  0  2  0  0  0  0  0  0
  159.6710  209.3690  155.8020 C   0  0  0  0  0  2  0  0  0  0  0  0
  160.0710  212.6260  155.1810 O   0  0  0  0  0  0  0  0  0  0  0  0
  159.2150  211.9620  154.3060 C   0  0  0  0  0  0  0  0  0  0  0  0
  160.5310  209.8370  156.9820 C   0  0  0  0  0  2  0  0  0  0  0  0
  161.1390  211.2320  156.8240 C   0  0  0  0  0  2  0  0  0  0  0  0
  162.6840  210.1050  151.8170 O   0  0  0  0  0  1  0  0  0  0  0  0
  161.6240  209.4610  154.3360 O   0  0  0  0  0  0  0  0  0  0  0  0
  158.0030  212.3820  154.1550 N   0  0  0  0  0  2  0  0  0  0  0  0
  159.6850  210.7750  153.5290 C   0  0  1  0  0  3  0  0  0  0  0  0
  160.6380  211.1920  152.4100 C   0  0  0  0  0  2  0  0  0  0  0  0
  161.2950  209.9910  151.7270 C   0  0  2  0  0  3  0  0  0  0  0  0
  160.8050  208.4930  153.7620 N   0  0  1  0  0  0  0  0  0  0  0  0
  160.2800  209.6720  154.4330 C   0  0  2  0  0  0  0  0  0  0  0  0
  160.7290  206.3180  151.6760 O   0  0  0  0  0  0  0  0  0  0  0  0
  161.5860  205.2690  152.0190 C   0  0  0  0  0  2  0  0  0  0  0  0
  161.8630  202.8500  151.9400 N   0  0  0  0  0  1  0  0  0  0  0  0
  160.9120  203.9310  151.7470 C   0  0  2  0  0  3  0  0  0  0  0  0
  160.3040  203.8630  150.3470 C   0  0  0  0  0  2  0  0  0  0  0  0
  160.5920  202.5360  149.6560 C   0  0  0  0  0  2  0  0  0  0  0  0
  160.9860  202.7540  148.2260 C   0  0  0  0  0  0  0  0  0  0  0  0
  161.5690  203.9150  147.8880 C   0  0  0  0  0  3  0  0  0  0  0  0
  161.5600  200.3560  147.5570 C   0  0  0  0  0  1  0  0  0  0  0  0
  160.8100  201.6420  147.2150 C   0  0  2  0  0  3  0  0  0  0  0  0
  160.9640  202.0570  145.8730 O   0  0  0  0  0  0  0  0  0  0  0  0
  159.9780  201.4400  145.0860 C   0  0  0  0  0  1  0  0  0  0  0  0
  162.0690  204.2290  146.5120 C   0  0  0  0  0  2  0  0  0  0  0  0
  162.2100  206.4880  147.4360 C   0  0  0  0  0  2  0  0  0  0  0  0
  162.3030  205.6960  146.3730 C   0  0  0  0  0  3  0  0  0  0  0  0
  1 17  1  0  0  0  0
  2  1  1  6  0  0  0
  2 15  1  0  0  0  0
  3  8  1  0  0  0  0
  4  7  1  0  0  0  0
  5  3  1  0  0  0  0
  6  5  1  0  0  0  0
  8  7  1  0  0  0  0
 10 16  1  0  0  0  0
 11  6  2  0  0  0  0
 12 13  1  6  0  0  0
 12  6  1  0  0  0  0
 12 16  1  0  0  0  0
 14  9  1  1  0  0  0
 14  2  1  0  0  0  0
 14 13  1  0  0  0  0
 15 10  1  1  0  0  0
 15 16  1  0  0  0  0
 16  4  1  1  0  0  0
 17 18  1  0  0  0  0
 20 19  1  6  0  0  0
 20 18  1  0  0  0  0
 21 20  1  0  0  0  0
 22 21  1  0  0  0  0
 23 22  1  0  0  0  0
 24 23  2  0  0  0  0
 26 25  1  1  0  0  0
 26 23  1  0  0  0  0
 27 26  1  0  0  0  0
 28 27  1  0  0  0  0
 29 24  1  0  0  0  0
 31 29  1  0  0  0  0
 31 30  2  0  0  0  0
M  END
>  <MODEL>
4

>  <REMARK>
 VINA RESULT:      -7.0      1.961      3.472
  Name = 
  11 active torsions:
  status: ('A' for Active; 'I' for Inactive)
    1  A    between atoms: O_1  and  C_4
    2  A    between atoms: O_1  and  C_18
    3  A    between atoms: C_2  and  C_4
    4  A    between atoms: O_6  and  C_17
    5  A    between atoms: C_10  and  C_19
    6  A    between atoms: C_10  and  C_24
    7  A    between atoms: C_12  and  C_17
    8  A    between atoms: C_12  and  C_29
    9  A    between atoms: C_18  and  C_31
   10  A    between atoms: C_26  and  C_29
   11  A    between atoms: C_26  and  C_31
                            x       y       z     vdW  Elec       q    Type
                         _______ _______ _______ _____ _____    ______ ____

>  <TORSDO>
F 11

$$$$
=
 OpenBabel11072412393D

 31 33  0  0  1  0  0  0  0  0999 V2000
  162.2610  209.6320  151.8810 C   0  0  0  0  0  2  0  0  0  0  0  0
  161.7050  210.3860  153.0820 C   0  0  2  0  0  3  0  0  0  0  0  0
  157.3650  212.7180  155.9150 C   0  0  0  0  0  2  0  0  0  0  0  0
  159.1530  213.1300  153.4630 C   0  0  0  0  0  2  0  0  0  0  0  0
  158.3940  211.9210  156.4820 O   0  0  0  0  0  0  0  0  0  0  0  0
  159.7350  212.2500  156.3020 C   0  0  0  0  0  0  0  0  0  0  0  0
  157.6260  212.9990  153.4030 C   0  0  0  0  0  2  0  0  0  0  0  0
  157.0040  212.1840  154.5380 C   0  0  0  0  0  2  0  0  0  0  0  0
  160.7020  208.3490  153.9510 O   0  0  0  0  0  1  0  0  0  0  0  0
  159.3750  210.7100  153.2100 O   0  0  0  0  0  0  0  0  0  0  0  0
  160.3030  213.0890  157.1030 N   0  0  0  0  0  2  0  0  0  0  0  0
  160.5320  211.6350  155.1970 C   0  0  1  0  0  3  0  0  0  0  0  0
  160.8450  210.1700  155.4960 C   0  0  0  0  0  2  0  0  0  0  0  0
  161.4810  209.4550  154.3010 C   0  0  2  0  0  3  0  0  0  0  0  0
  160.5540  211.2240  152.6780 N   0  0  1  0  0  0  0  0  0  0  0  0
  159.8740  211.8280  153.8120 C   0  0  2  0  0  0  0  0  0  0  0  0
  161.2140  209.1180  151.1130 O   0  0  0  0  0  0  0  0  0  0  0  0
  161.7100  209.0690  149.8080 C   0  0  0  0  0  2  0  0  0  0  0  0
  162.9530  207.6670  148.2510 N   0  0  0  0  0  1  0  0  0  0  0  0
  162.1630  207.6550  149.4700 C   0  0  2  0  0  3  0  0  0  0  0  0
  160.9880  206.6880  149.3360 C   0  0  0  0  0  2  0  0  0  0  0  0
  160.8520  206.1370  147.9210 C   0  0  0  0  0  2  0  0  0  0  0  0
  161.2060  204.6810  147.8800 C   0  0  0  0  0  0  0  0  0  0  0  0
  160.8640  203.9060  148.9210 C   0  0  0  0  0  3  0  0  0  0  0  0
  163.1660  204.7580  146.2440 C   0  0  0  0  0  1  0  0  0  0  0  0
  161.8500  204.0940  146.6440 C   0  0  2  0  0  3  0  0  0  0  0  0
  160.9550  203.9000  145.5680 O   0  0  0  0  0  0  0  0  0  0  0  0
  161.1750  204.8970  144.6030 C   0  0  0  0  0  1  0  0  0  0  0  0
  161.1000  202.4280  148.9750 C   0  0  0  0  0  2  0  0  0  0  0  0
  161.1580  202.7130  151.4020 C   0  0  0  0  0  2  0  0  0  0  0  0
  160.8950  201.9250  150.3640 C   0  0  0  0  0  3  0  0  0  0  0  0
  2  1  1  6  0  0  0
  2 14  1  0  0  0  0
  3  5  1  0  0  0  0
  6  5  1  0  0  0  0
  6 11  2  0  0  0  0
  7  4  1  0  0  0  0
  7  8  1  0  0  0  0
  8  3  1  0  0  0  0
 10 16  1  0  0  0  0
 12 13  1  1  0  0  0
 12  6  1  0  0  0  0
 14  9  1  6  0  0  0
 14 13  1  0  0  0  0
 15  2  1  0  0  0  0
 15 10  1  1  0  0  0
 15 16  1  0  0  0  0
 16  4  1  6  0  0  0
 16 12  1  0  0  0  0
 17  1  1  0  0  0  0
 18 17  1  0  0  0  0
 20 19  1  6  0  0  0
 20 18  1  0  0  0  0
 21 20  1  0  0  0  0
 22 21  1  0  0  0  0
 23 22  1  0  0  0  0
 23 24  2  0  0  0  0
 24 29  1  0  0  0  0
 26 25  1  6  0  0  0
 26 23  1  0  0  0  0
 27 26  1  0  0  0  0
 28 27  1  0  0  0  0
 29 31  1  0  0  0  0
 31 30  2  0  0  0  0
M  END
>  <MODEL>
5

>  <REMARK>
 VINA RESULT:      -7.0      1.170      1.276
  Name = 
  11 active torsions:
  status: ('A' for Active; 'I' for Inactive)
    1  A    between atoms: O_1  and  C_4
    2  A    between atoms: O_1  and  C_18
    3  A    between atoms: C_2  and  C_4
    4  A    between atoms: O_6  and  C_17
    5  A    between atoms: C_10  and  C_19
    6  A    between atoms: C_10  and  C_24
    7  A    between atoms: C_12  and  C_17
    8  A    between atoms: C_12  and  C_29
    9  A    between atoms: C_18  and  C_31
   10  A    between atoms: C_26  and  C_29
   11  A    between atoms: C_26  and  C_31
                            x       y       z     vdW  Elec       q    Type
                         _______ _______ _______ _____ _____    ______ ____

>  <TORSDO>
F 11

$$$$
=
 OpenBabel11072412393D

 31 33  0  0  1  0  0  0  0  0999 V2000
  161.7980  206.9070  152.6670 C   0  0  0  0  0  2  0  0  0  0  0  0
  161.6530  208.0310  153.6840 C   0  0  2  0  0  3  0  0  0  0  0  0
  158.7180  212.3410  155.9440 C   0  0  0  0  0  2  0  0  0  0  0  0
  160.3500  211.5590  153.4750 C   0  0  0  0  0  2  0  0  0  0  0  0
  159.4100  211.3370  156.6720 O   0  0  0  0  0  0  0  0  0  0  0  0
  160.7600  211.0870  156.4380 C   0  0  0  0  0  0  0  0  0  0  0  0
  158.8860  212.0120  153.4310 C   0  0  0  0  0  2  0  0  0  0  0  0
  158.0860  211.7300  154.7040 C   0  0  0  0  0  2  0  0  0  0  0  0
  160.0240  206.7400  154.9440 O   0  0  0  0  0  1  0  0  0  0  0  0
  159.6300  209.2380  153.7240 O   0  0  0  0  0  0  0  0  0  0  0  0
  161.6570  211.7830  157.0550 N   0  0  0  0  0  2  0  0  0  0  0  0
  161.1870  210.0140  155.4890 C   0  0  1  0  0  3  0  0  0  0  0  0
  160.9490  208.6280  156.0840 C   0  0  0  0  0  2  0  0  0  0  0  0
  161.1830  207.5090  155.0660 C   0  0  2  0  0  3  0  0  0  0  0  0
  160.8750  209.1510  153.1070 N   0  0  1  0  0  0  0  0  0  0  0  0
  160.5530  210.1740  154.0880 C   0  0  2  0  0  0  0  0  0  0  0  0
  161.3140  207.3200  151.4250 O   0  0  0  0  0  0  0  0  0  0  0  0
  162.4440  207.7260  150.7100 C   0  0  0  0  0  2  0  0  0  0  0  0
  162.0820  209.1280  148.7510 N   0  0  0  0  0  1  0  0  0  0  0  0
  162.1390  207.7540  149.2180 C   0  0  2  0  0  3  0  0  0  0  0  0
  160.8430  207.0190  148.8790 C   0  0  0  0  0  2  0  0  0  0  0  0
  160.9160  206.3130  147.5300 C   0  0  0  0  0  2  0  0  0  0  0  0
  161.2460  204.8610  147.7060 C   0  0  0  0  0  0  0  0  0  0  0  0
  160.8770  204.2490  148.8430 C   0  0  0  0  0  3  0  0  0  0  0  0
  163.2040  204.7030  146.0730 C   0  0  0  0  0  1  0  0  0  0  0  0
  161.8990  204.0920  146.5790 C   0  0  2  0  0  3  0  0  0  0  0  0
  161.0060  203.7130  145.5510 O   0  0  0  0  0  0  0  0  0  0  0  0
  160.8710  202.3150  145.5520 C   0  0  0  0  0  1  0  0  0  0  0  0
  161.0880  202.7920  149.1130 C   0  0  0  0  0  2  0  0  0  0  0  0
  161.2670  203.3430  151.4880 C   0  0  0  0  0  2  0  0  0  0  0  0
  160.8440  202.4970  150.5550 C   0  0  0  0  0  3  0  0  0  0  0  0
  2  1  1  6  0  0  0
  2 14  1  0  0  0  0
  3  5  1  0  0  0  0
  6  5  1  0  0  0  0
  6 11  2  0  0  0  0
  7  4  1  0  0  0  0
  7  8  1  0  0  0  0
  8  3  1  0  0  0  0
 10 16  1  0  0  0  0
 12 13  1  1  0  0  0
 12  6  1  0  0  0  0
 14  9  1  6  0  0  0
 14 13  1  0  0  0  0
 15  2  1  0  0  0  0
 15 10  1  1  0  0  0
 15 16  1  0  0  0  0
 16  4  1  6  0  0  0
 16 12  1  0  0  0  0
 17  1  1  0  0  0  0
 18 17  1  0  0  0  0
 20 19  1  1  0  0  0
 20 18  1  0  0  0  0
 21 20  1  0  0  0  0
 22 23  1  0  0  0  0
 22 21  1  0  0  0  0
 23 24  2  0  0  0  0
 24 29  1  0  0  0  0
 26 25  1  6  0  0  0
 26 23  1  0  0  0  0
 27 28  1  0  0  0  0
 27 26  1  0  0  0  0
 29 31  1  0  0  0  0
 31 30  2  0  0  0  0
M  END
>  <MODEL>
6

>  <REMARK>
 VINA RESULT:      -7.0      1.729      2.126
  Name = 
  11 active torsions:
  status: ('A' for Active; 'I' for Inactive)
    1  A    between atoms: O_1  and  C_4
    2  A    between atoms: O_1  and  C_18
    3  A    between atoms: C_2  and  C_4
    4  A    between atoms: O_6  and  C_17
    5  A    between atoms: C_10  and  C_19
    6  A    between atoms: C_10  and  C_24
    7  A    between atoms: C_12  and  C_17
    8  A    between atoms: C_12  and  C_29
    9  A    between atoms: C_18  and  C_31
   10  A    between atoms: C_26  and  C_29
   11  A    between atoms: C_26  and  C_31
                            x       y       z     vdW  Elec       q    Type
                         _______ _______ _______ _____ _____    ______ ____

>  <TORSDO>
F 11

$$$$
=
 OpenBabel11072412393D

 31 33  0  0  1  0  0  0  0  0999 V2000
  161.8460  207.8900  152.5370 C   0  0  0  0  0  2  0  0  0  0  0  0
  160.8850  209.0340  152.8340 C   0  0  2  0  0  3  0  0  0  0  0  0
  159.1420  213.3410  156.1070 C   0  0  0  0  0  2  0  0  0  0  0  0
  159.2400  210.2830  155.9840 C   0  0  0  0  0  2  0  0  0  0  0  0
  159.2400  213.3620  154.6900 O   0  0  0  0  0  0  0  0  0  0  0  0
  158.5980  212.3990  153.9150 C   0  0  0  0  0  0  0  0  0  0  0  0
  159.8770  211.1210  157.1000 C   0  0  0  0  0  2  0  0  0  0  0  0
  160.2920  212.5340  156.6870 C   0  0  0  0  0  2  0  0  0  0  0  0
  162.5700  210.6710  152.2080 O   0  0  0  0  0  1  0  0  0  0  0  0
  161.3210  210.3940  154.7070 O   0  0  0  0  0  0  0  0  0  0  0  0
  157.3650  212.5710  153.5710 N   0  0  0  0  0  2  0  0  0  0  0  0
  159.3230  211.1720  153.4650 C   0  0  1  0  0  3  0  0  0  0  0  0
  160.3330  211.5020  152.3670 C   0  0  0  0  0  2  0  0  0  0  0  0
  161.2330  210.3110  152.0270 C   0  0  2  0  0  3  0  0  0  0  0  0
  160.7230  209.2060  154.2950 N   0  0  1  0  0  0  0  0  0  0  0  0
  159.9590  210.3930  154.6390 C   0  0  2  0  0  0  0  0  0  0  0  0
  162.1340  207.8490  151.1720 O   0  0  0  0  0  0  0  0  0  0  0  0
  162.4370  206.5120  150.9040 C   0  0  0  0  0  2  0  0  0  0  0  0
  161.6150  204.3700  151.7200 N   0  0  0  0  0  1  0  0  0  0  0  0
  161.2130  205.6390  151.1390 C   0  0  2  0  0  3  0  0  0  0  0  0
  160.4110  205.4090  149.8590 C   0  0  0  0  0  2  0  0  0  0  0  0
  161.2350  205.6790  148.6050 C   0  0  0  0  0  2  0  0  0  0  0  0
  161.3980  204.4290  147.7940 C   0  0  0  0  0  0  0  0  0  0  0  0
  161.1930  203.2440  148.3900 C   0  0  0  0  0  3  0  0  0  0  0  0
  163.1160  204.9740  145.9830 C   0  0  0  0  0  1  0  0  0  0  0  0
  161.6940  204.5220  146.3140 C   0  0  2  0  0  3  0  0  0  0  0  0
  160.6930  205.1850  145.5690 O   0  0  0  0  0  0  0  0  0  0  0  0
  160.7270  204.7230  144.2430 C   0  0  0  0  0  1  0  0  0  0  0  0
  161.2590  201.9290  147.6770 C   0  0  0  0  0  2  0  0  0  0  0  0
  160.5260  201.0270  149.8280 C   0  0  0  0  0  2  0  0  0  0  0  0
  161.1020  200.8090  148.6500 C   0  0  0  0  0  3  0  0  0  0  0  0
  2  1  1  1  0  0  0
  2 15  1  0  0  0  0
  3  8  1  0  0  0  0
  4  7  1  0  0  0  0
  5  3  1  0  0  0  0
  6  5  1  0  0  0  0
  8  7  1  0  0  0  0
 11  6  2  0  0  0  0
 12 13  1  6  0  0  0
 12  6  1  0  0  0  0
 12 16  1  0  0  0  0
 14  9  1  1  0  0  0
 14 13  1  0  0  0  0
 14  2  1  0  0  0  0
 15 16  1  0  0  0  0
 15 10  1  1  0  0  0
 16 10  1  0  0  0  0
 16  4  1  1  0  0  0
 17  1  1  0  0  0  0
 18 20  1  0  0  0  0
 18 17  1  0  0  0  0
 20 19  1  6  0  0  0
 21 20  1  0  0  0  0
 22 21  1  0  0  0  0
 23 24  2  0  0  0  0
 23 22  1  0  0  0  0
 26 25  1  1  0  0  0
 26 23  1  0  0  0  0
 27 26  1  0  0  0  0
 28 27  1  0  0  0  0
 29 24  1  0  0  0  0
 29 31  1  0  0  0  0
 31 30  2  0  0  0  0
M  END
>  <MODEL>
7

>  <REMARK>
 VINA RESULT:      -6.8      1.585      2.294
  Name = 
  11 active torsions:
  status: ('A' for Active; 'I' for Inactive)
    1  A    between atoms: O_1  and  C_4
    2  A    between atoms: O_1  and  C_18
    3  A    between atoms: C_2  and  C_4
    4  A    between atoms: O_6  and  C_17
    5  A    between atoms: C_10  and  C_19
    6  A    between atoms: C_10  and  C_24
    7  A    between atoms: C_12  and  C_17
    8  A    between atoms: C_12  and  C_29
    9  A    between atoms: C_18  and  C_31
   10  A    between atoms: C_26  and  C_29
   11  A    between atoms: C_26  and  C_31
                            x       y       z     vdW  Elec       q    Type
                         _______ _______ _______ _____ _____    ______ ____

>  <TORSDO>
F 11

$$$$
=
 OpenBabel11072412393D

 31 33  0  0  1  0  0  0  0  0999 V2000
  160.9480  207.9800  152.4910 C   0  0  0  0  0  2  0  0  0  0  0  0
  160.8410  206.7360  151.6180 C   0  0  2  0  0  3  0  0  0  0  0  0
  161.9370  203.9440  146.7910 C   0  0  0  0  0  2  0  0  0  0  0  0
  160.2180  206.2020  147.9420 C   0  0  0  0  0  2  0  0  0  0  0  0
  162.0410  203.4080  148.1020 O   0  0  0  0  0  0  0  0  0  0  0  0
  160.9620  203.4570  148.9820 C   0  0  0  0  0  0  0  0  0  0  0  0
  161.2150  206.3800  146.7910 C   0  0  0  0  0  2  0  0  0  0  0  0
  162.3860  205.3960  146.7950 C   0  0  0  0  0  2  0  0  0  0  0  0
  163.1720  206.1890  152.0360 O   0  0  0  0  0  1  0  0  0  0  0  0
  161.9770  206.7290  149.5540 O   0  0  0  0  0  0  0  0  0  0  0  0
  160.0690  202.5240  148.9540 N   0  0  0  0  0  2  0  0  0  0  0  0
  160.8300  204.5710  149.9690 C   0  0  1  0  0  3  0  0  0  0  0  0
  161.8510  204.4300  151.0970 C   0  0  0  0  0  2  0  0  0  0  0  0
  161.8800  205.6570  152.0120 C   0  0  2  0  0  3  0  0  0  0  0  0
  160.7980  207.1140  150.1870 N   0  0  1  0  0  0  0  0  0  0  0  0
  160.8750  205.9640  149.3010 C   0  0  2  0  0  0  0  0  0  0  0  0
  160.6450  207.6610  153.8170 O   0  0  0  0  0  0  0  0  0  0  0  0
  161.2960  208.6310  154.5820 C   0  0  0  0  0  2  0  0  0  0  0  0
  160.1990  207.2400  156.2550 N   0  0  0  0  0  1  0  0  0  0  0  0
  160.9050  208.4930  156.0470 C   0  0  2  0  0  3  0  0  0  0  0  0
  160.0600  209.6690  156.5340 C   0  0  0  0  0  2  0  0  0  0  0  0
  160.1740  210.8810  155.6160 C   0  0  0  0  0  2  0  0  0  0  0  0
  158.8190  211.4350  155.2940 C   0  0  0  0  0  0  0  0  0  0  0  0
  157.9010  211.5000  156.2700 C   0  0  0  0  0  3  0  0  0  0  0  0
  158.9890  211.0890  152.7680 C   0  0  0  0  0  1  0  0  0  0  0  0
  158.5380  211.9910  153.9150 C   0  0  2  0  0  3  0  0  0  0  0  0
  158.9050  213.3470  153.7580 O   0  0  0  0  0  0  0  0  0  0  0  0
  157.8160  214.0590  153.2310 C   0  0  0  0  0  1  0  0  0  0  0  0
  156.5360  212.0920  156.0960 C   0  0  0  0  0  2  0  0  0  0  0  0
  155.2310  210.3310  155.0120 C   0  0  0  0  0  2  0  0  0  0  0  0
  155.5030  211.0150  156.1180 C   0  0  0  0  0  3  0  0  0  0  0  0
  1 17  1  0  0  0  0
  2 14  1  0  0  0  0
  2  1  1  1  0  0  0
  3  8  1  0  0  0  0
  3  5  1  0  0  0  0
  5  6  1  0  0  0  0
  6 12  1  0  0  0  0
  7  8  1  0  0  0  0
  7  4  1  0  0  0  0
 11  6  2  0  0  0  0
 12 13  1  1  0  0  0
 13 14  1  0  0  0  0
 14  9  1  6  0  0  0
 15 10  1  6  0  0  0
 15  2  1  0  0  0  0
 16  4  1  6  0  0  0
 16 10  1  0  0  0  0
 16 12  1  0  0  0  0
 16 15  1  0  0  0  0
 17 18  1  0  0  0  0
 18 20  1  0  0  0  0
 20 19  1  6  0  0  0
 20 21  1  0  0  0  0
 22 21  1  0  0  0  0
 23 22  1  0  0  0  0
 23 24  2  0  0  0  0
 26 25  1  6  0  0  0
 26 23  1  0  0  0  0
 27 26  1  0  0  0  0
 28 27  1  0  0  0  0
 29 31  1  0  0  0  0
 29 24  1  0  0  0  0
 30 31  2  0  0  0  0
M  END
>  <MODEL>
8

>  <REMARK>
 VINA RESULT:      -6.6      2.271      9.369
  Name = 
  11 active torsions:
  status: ('A' for Active; 'I' for Inactive)
    1  A    between atoms: O_1  and  C_4
    2  A    between atoms: O_1  and  C_18
    3  A    between atoms: C_2  and  C_4
    4  A    between atoms: O_6  and  C_17
    5  A    between atoms: C_10  and  C_19
    6  A    between atoms: C_10  and  C_24
    7  A    between atoms: C_12  and  C_17
    8  A    between atoms: C_12  and  C_29
    9  A    between atoms: C_18  and  C_31
   10  A    between atoms: C_26  and  C_29
   11  A    between atoms: C_26  and  C_31
                            x       y       z     vdW  Elec       q    Type
                         _______ _______ _______ _____ _____    ______ ____

>  <TORSDO>
F 11

$$$$
=
 OpenBabel11072412393D

 31 33  0  0  1  0  0  0  0  0999 V2000
  160.9800  207.8060  152.6860 C   0  0  0  0  0  2  0  0  0  0  0  0
  160.8490  206.5900  151.7780 C   0  0  2  0  0  3  0  0  0  0  0  0
  161.8940  203.9130  146.8750 C   0  0  0  0  0  2  0  0  0  0  0  0
  160.2190  206.1710  148.0880 C   0  0  0  0  0  2  0  0  0  0  0  0
  161.9860  203.3380  148.1700 O   0  0  0  0  0  0  0  0  0  0  0  0
  160.9080  203.3840  149.0510 C   0  0  0  0  0  0  0  0  0  0  0  0
  161.2210  206.3620  146.9430 C   0  0  0  0  0  2  0  0  0  0  0  0
  162.3720  205.3550  146.9200 C   0  0  0  0  0  2  0  0  0  0  0  0
  163.1690  205.9850  152.1820 O   0  0  0  0  0  1  0  0  0  0  0  0
  161.9860  206.6180  149.7150 O   0  0  0  0  0  0  0  0  0  0  0  0
  159.9970  202.4700  148.9960 N   0  0  0  0  0  2  0  0  0  0  0  0
  160.7970  204.4730  150.0690 C   0  0  1  0  0  3  0  0  0  0  0  0
  161.8140  204.2800  151.1930 C   0  0  0  0  0  2  0  0  0  0  0  0
  161.8670  205.4790  152.1420 C   0  0  2  0  0  3  0  0  0  0  0  0
  160.8150  207.0090  150.3580 N   0  0  1  0  0  0  0  0  0  0  0  0
  160.8710  205.8830  149.4410 C   0  0  2  0  0  0  0  0  0  0  0  0
  160.4660  207.5160  153.9510 O   0  0  0  0  0  0  0  0  0  0  0  0
  161.4950  207.8290  154.8430 C   0  0  0  0  0  2  0  0  0  0  0  0
  159.6460  207.7980  156.4290 N   0  0  0  0  0  1  0  0  0  0  0  0
  160.9190  208.4250  156.1200 C   0  0  2  0  0  3  0  0  0  0  0  0
  160.7590  209.9420  156.0290 C   0  0  0  0  0  2  0  0  0  0  0  0
  159.3240  210.3870  156.2800 C   0  0  0  0  0  2  0  0  0  0  0  0
  158.7900  211.1560  155.1090 C   0  0  0  0  0  0  0  0  0  0  0  0
  159.3100  210.9210  153.8940 C   0  0  0  0  0  3  0  0  0  0  0  0
  158.0180  213.4900  155.8040 C   0  0  0  0  0  1  0  0  0  0  0  0
  157.6270  212.1040  155.2930 C   0  0  2  0  0  3  0  0  0  0  0  0
  156.5230  211.5340  155.9680 O   0  0  0  0  0  0  0  0  0  0  0  0
  155.7780  210.7650  155.0590 C   0  0  0  0  0  1  0  0  0  0  0  0
  158.8220  211.5720  152.6360 C   0  0  0  0  0  2  0  0  0  0  0  0
  159.2910  213.6760  151.4850 C   0  0  0  0  0  2  0  0  0  0  0  0
  159.7380  212.6820  152.2440 C   0  0  0  0  0  3  0  0  0  0  0  0
  1 17  1  0  0  0  0
  2 14  1  0  0  0  0
  2  1  1  1  0  0  0
  3  8  1  0  0  0  0
  3  5  1  0  0  0  0
  5  6  1  0  0  0  0
  6 12  1  0  0  0  0
  7  4  1  0  0  0  0
  8  7  1  0  0  0  0
 11  6  2  0  0  0  0
 12 13  1  1  0  0  0
 13 14  1  0  0  0  0
 14  9  1  6  0  0  0
 15 10  1  6  0  0  0
 15  2  1  0  0  0  0
 16  4  1  6  0  0  0
 16 10  1  0  0  0  0
 16 12  1  0  0  0  0
 16 15  1  0  0  0  0
 17 18  1  0  0  0  0
 18 20  1  0  0  0  0
 20 19  1  6  0  0  0
 21 20  1  0  0  0  0
 21 22  1  0  0  0  0
 23 26  1  0  0  0  0
 23 22  1  0  0  0  0
 24 23  2  0  0  0  0
 26 25  1  1  0  0  0
 26 27  1  0  0  0  0
 28 27  1  0  0  0  0
 29 24  1  0  0  0  0
 30 31  2  0  0  0  0
 31 29  1  0  0  0  0
M  END
>  <MODEL>
9

>  <REMARK>
 VINA RESULT:      -6.5      2.283      9.421
  Name = 
  11 active torsions:
  status: ('A' for Active; 'I' for Inactive)
    1  A    between atoms: O_1  and  C_4
    2  A    between atoms: O_1  and  C_18
    3  A    between atoms: C_2  and  C_4
    4  A    between atoms: O_6  and  C_17
    5  A    between atoms: C_10  and  C_19
    6  A    between atoms: C_10  and  C_24
    7  A    between atoms: C_12  and  C_17
    8  A    between atoms: C_12  and  C_29
    9  A    between atoms: C_18  and  C_31
   10  A    between atoms: C_26  and  C_29
   11  A    between atoms: C_26  and  C_31
                            x       y       z     vdW  Elec       q    Type
                         _______ _______ _______ _____ _____    ______ ____

>  <TORSDO>
F 11

$$$$
