=
 OpenBabel11072409503D

 49 52  0  0  1  0  0  0  0  0999 V2000
  159.9320  213.9300  148.8180 C   0  0  2  0  0  3  0  0  0  0  0  0
  157.3490  213.6050  150.9330 C   0  0  0  0  0  2  0  0  0  0  0  0
  158.5710  213.5930  151.8610 C   0  0  2  0  0  3  0  0  0  0  0  0
  157.5760  214.4120  149.6590 C   0  0  0  0  0  2  0  0  0  0  0  0
  160.4370  214.0170  150.2670 C   0  0  0  0  0  2  0  0  0  0  0  0
  159.8090  212.9880  151.1970 C   0  0  0  0  0  2  0  0  0  0  0  0
  158.4340  213.6030  148.6950 C   0  0  0  0  0  2  0  0  0  0  0  0
  160.7950  212.9570  148.0060 C   0  0  2  0  0  3  0  0  0  0  0  0
  162.2340  213.4350  147.9880 C   0  0  2  0  0  3  0  0  0  0  0  0
  162.4530  214.2090  146.7700 N   0  0  0  0  0  2  0  0  0  0  0  0
  160.4050  212.9520  146.5480 C   0  0  0  0  0  2  0  0  0  0  0  0
  161.3440  213.9250  145.8670 C   0  0  2  0  0  3  0  0  0  0  0  0
  163.1310  212.2930  148.0050 N   0  0  0  0  0  1  0  0  0  0  0  0
  161.8890  213.3330  144.5750 C   0  0  0  0  0  2  0  0  0  0  0  0
  161.6870  214.2730  143.3950 C   0  0  0  0  0  2  0  0  0  0  0  0
  162.0460  213.5890  142.0840 C   0  0  0  0  0  2  0  0  0  0  0  0
  160.8390  213.3980  141.1560 C   0  0  1  0  0  3  0  0  0  0  0  0
  162.2850  211.7040  139.8590 C   0  0  0  0  0  2  0  0  0  0  0  0
  160.8360  209.9710  138.7510 N   0  0  0  0  0  0  0  0  0  0  0  0
  161.7110  210.2830  139.9000 C   0  0  0  0  0  2  0  0  0  0  0  0
  160.2500  211.1540  138.1030 C   0  0  0  0  0  2  0  0  0  0  0  0
  159.8960  212.2340  139.1210 C   0  0  0  0  0  2  0  0  0  0  0  0
  161.1680  212.7580  139.7980 C   0  0  0  0  0  3  0  0  0  0  0  0
  162.5870  210.2410  137.1650 N   0  0  0  0  0  1  0  0  0  0  0  0
  161.6550  209.2960  137.7600 C   0  0  0  0  0  2  0  0  0  0  0  0
  159.6960  212.7790  141.8260 N   0  0  0  0  0  0  0  0  0  0  0  0
  158.6090  213.3830  141.9420 O   0  0  0  0  0  0  0  0  0  0  0  0
  159.8530  211.5550  142.4300 O   0  0  0  0  0  0  0  0  0  0  0  0
  158.2160  212.8770  153.1690 C   0  0  2  0  0  3  0  0  0  0  0  0
  157.2400  213.6640  153.9970 C   0  0  0  0  0  3  0  0  0  0  0  0
  156.1850  213.1260  154.6240 C   0  0  0  0  0  0  0  0  0  0  0  0
  155.8290  211.3670  154.5650 S   0  0  0  0  0  1  0  0  0  0  0  0
  155.9680  214.4240  156.5910 O   0  0  0  0  0  1  0  0  0  0  0  0
  155.2980  214.0040  155.4430 C   0  0  0  0  0  2  0  0  0  0  0  0
  159.4190  212.5890  153.9460 N   0  0  0  0  0  2  0  0  0  0  0  0
  159.6530  210.9230  155.6910 C   0  0  0  0  0  2  0  0  0  0  0  0
  160.8630  210.6170  153.9410 C   0  0  2  0  0  3  0  0  0  0  0  0
  161.0610  210.4200  155.4320 C   0  0  0  0  0  2  0  0  0  0  0  0
  159.4610  211.1540  154.2030 C   0  0  2  0  0  3  0  0  0  0  0  0
  160.8020  209.2500  153.2700 C   0  0  0  0  0  2  0  0  0  0  0  0
  162.0370  208.9760  152.4220 C   0  0  0  0  0  2  0  0  0  0  0  0
  161.7900  209.2450  150.9420 C   0  0  0  0  0  2  0  0  0  0  0  0
  162.0020  208.0180  150.1200 C   0  0  0  0  0  0  0  0  0  0  0  0
  161.1000  207.7140  149.0530 N   0  0  0  0  0  2  0  0  0  0  0  0
  162.9730  207.2590  150.3710 O   0  0  0  0  0  0  0  0  0  0  0  0
  160.2830  206.3920  146.9060 O   0  0  0  0  0  0  0  0  0  0  0  0
  161.2270  206.2910  148.0760 S   0  0  0  0  0  0  0  0  0  0  0  0
  160.8090  204.8830  149.0690 C   0  0  0  0  0  1  0  0  0  0  0  0
  162.6380  206.1290  147.5800 O   0  0  0  0  0  0  0  0  0  0  0  0
  1  7  1  1  0  0  0
  1  5  1  0  0  0  0
  2  3  1  0  0  0  0
  3 29  1  1  0  0  0
  4  2  1  0  0  0  0
  5  6  1  0  0  0  0
  6  3  1  0  0  0  0
  7  4  1  0  0  0  0
  8 11  1  6  0  0  0
  8  1  1  0  0  0  0
  9 13  1  6  0  0  0
  9  8  1  0  0  0  0
 10  9  1  0  0  0  0
 12 14  1  6  0  0  0
 12 11  1  0  0  0  0
 12 10  1  0  0  0  0
 15 14  1  0  0  0  0
 16 15  1  0  0  0  0
 17 26  1  0  0  0  0
 17 16  1  1  0  0  0
 18 20  1  0  0  0  0
 19 20  1  0  0  0  0
 21 19  1  0  0  0  0
 21 22  1  0  0  0  0
 22 23  1  0  0  0  0
 23 18  1  0  0  0  0
 23 17  1  0  0  0  0
 24 25  1  0  0  0  0
 25 19  1  0  0  0  0
 26 27  2  0  0  0  0
 26 28  2  0  0  0  0
 29 35  1  0  0  0  0
 29 30  1  1  0  0  0
 30 31  2  0  0  0  0
 31 34  1  0  0  0  0
 32 31  1  0  0  0  0
 34 33  1  0  0  0  0
 37 40  1  6  0  0  0
 37 39  1  0  0  0  0
 37 38  1  0  0  0  0
 38 36  1  0  0  0  0
 39 35  1  1  0  0  0
 39 36  1  0  0  0  0
 41 40  1  0  0  0  0
 42 41  1  0  0  0  0
 43 45  2  0  0  0  0
 43 42  1  0  0  0  0
 44 43  1  0  0  0  0
 46 47  2  0  0  0  0
 47 44  1  0  0  0  0
 47 48  1  0  0  0  0
 49 47  2  0  0  0  0
M  END
>  <MODEL>
1

>  <REMARK>
 VINA RESULT:      -5.7      0.000      0.000
  Name = 
  18 active torsions:
  status: ('A' for Active; 'I' for Inactive)
    1  A    between atoms: C_2  and  C_47
    2  A    between atoms: C_3  and  C_13
    3  A    between atoms: C_3  and  C_39
    4  A    between atoms: C_5  and  C_17
    5  A    between atoms: C_5  and  C_26
    6  A    between atoms: N_7  and  C_29
    7  A    between atoms: C_8  and  C_10
    8  A    between atoms: N_9  and  C_11
    9  A    between atoms: N_12  and  S_24
   10  A    between atoms: C_13  and  C_22
   11  A    between atoms: C_15  and  C_34
   12  A    between atoms: C_18  and  C_43
   13  A    between atoms: C_22  and  C_29
   14  A    between atoms: C_23  and  C_34
   15  A    between atoms: C_26  and  C_47
   16  A    between atoms: C_29  and  C_31
   17  A    between atoms: C_34  and  N_45
   18  A    between atoms: C_35  and  N_45
                            x       y       z     vdW  Elec       q    Type
                         _______ _______ _______ _____ _____    ______ ____

>  <TORSDO>
F 18

$$$$
=
 OpenBabel11072409503D

 49 52  0  0  1  0  0  0  0  0999 V2000
  161.0540  208.2210  154.2280 C   0  0  2  0  0  3  0  0  0  0  0  0
  161.0420  211.4650  155.0780 C   0  0  0  0  0  2  0  0  0  0  0  0
  159.9150  211.3660  154.0400 C   0  0  2  0  0  3  0  0  0  0  0  0
  161.2510  210.1700  155.8560 C   0  0  0  0  0  2  0  0  0  0  0  0
  159.8480  208.9190  153.5810 C   0  0  0  0  0  2  0  0  0  0  0  0
  160.1760  210.2840  152.9910 C   0  0  0  0  0  2  0  0  0  0  0  0
  162.0000  209.1710  154.9820 C   0  0  0  0  0  2  0  0  0  0  0  0
  161.8060  207.3750  153.1930 C   0  0  2  0  0  3  0  0  0  0  0  0
  161.6150  207.9660  151.8090 C   0  0  2  0  0  3  0  0  0  0  0  0
  160.5070  207.2760  151.1560 N   0  0  0  0  0  2  0  0  0  0  0  0
  161.2170  205.9910  153.0720 C   0  0  0  0  0  2  0  0  0  0  0  0
  160.2460  206.0560  151.9110 C   0  0  2  0  0  3  0  0  0  0  0  0
  162.8260  207.7860  151.0280 N   0  0  0  0  0  1  0  0  0  0  0  0
  160.4200  204.8530  150.9960 C   0  0  0  0  0  2  0  0  0  0  0  0
  161.7330  204.1290  151.2590 C   0  0  0  0  0  2  0  0  0  0  0  0
  161.8110  202.8330  150.4650 C   0  0  0  0  0  2  0  0  0  0  0  0
  161.0460  202.8960  149.1360 C   0  0  1  0  0  3  0  0  0  0  0  0
  161.6730  203.0260  146.6390 C   0  0  0  0  0  2  0  0  0  0  0  0
  160.7290  205.1130  145.5990 N   0  0  0  0  0  0  0  0  0  0  0  0
  160.5680  203.6570  145.7840 C   0  0  0  0  0  2  0  0  0  0  0  0
  161.5360  205.7660  146.6410 C   0  0  0  0  0  2  0  0  0  0  0  0
  161.2880  205.1470  148.0130 C   0  0  0  0  0  2  0  0  0  0  0  0
  161.7550  203.6870  148.0250 C   0  0  0  0  0  3  0  0  0  0  0  0
  162.8010  205.6780  144.5780 N   0  0  0  0  0  1  0  0  0  0  0  0
  161.4150  205.3110  144.3340 C   0  0  0  0  0  2  0  0  0  0  0  0
  160.5580  201.5900  148.6960 N   0  0  0  0  0  0  0  0  0  0  0  0
  159.3340  201.3500  148.6140 O   0  0  0  0  0  0  0  0  0  0  0  0
  161.4580  200.5760  148.4700 O   0  0  0  0  0  0  0  0  0  0  0  0
  159.6840  212.7390  153.4000 C   0  0  2  0  0  3  0  0  0  0  0  0
  158.8870  213.6510  154.2910 C   0  0  0  0  0  3  0  0  0  0  0  0
  157.7090  213.3200  154.8380 C   0  0  0  0  0  0  0  0  0  0  0  0
  156.9510  211.7120  154.5840 S   0  0  0  0  0  1  0  0  0  0  0  0
  157.4670  214.1450  157.0430 O   0  0  0  0  0  1  0  0  0  0  0  0
  157.0200  214.2970  155.7320 C   0  0  0  0  0  2  0  0  0  0  0  0
  159.0280  212.6030  152.1030 N   0  0  0  0  0  2  0  0  0  0  0  0
  158.0570  214.4520  150.8710 C   0  0  0  0  0  2  0  0  0  0  0  0
  159.6210  213.3770  149.8620 C   0  0  2  0  0  3  0  0  0  0  0  0
  158.3130  214.0200  149.4400 C   0  0  0  0  0  2  0  0  0  0  0  0
  159.3480  213.7820  151.3050 C   0  0  2  0  0  3  0  0  0  0  0  0
  160.7740  214.1880  149.2820 C   0  0  0  0  0  2  0  0  0  0  0  0
  161.8050  213.3010  148.5960 C   0  0  0  0  0  2  0  0  0  0  0  0
  161.1770  212.4040  147.5350 C   0  0  0  0  0  2  0  0  0  0  0  0
  161.4000  212.9420  146.1610 C   0  0  0  0  0  0  0  0  0  0  0  0
  160.8070  212.2860  145.0380 N   0  0  0  0  0  2  0  0  0  0  0  0
  162.1080  213.9700  146.0020 O   0  0  0  0  0  0  0  0  0  0  0  0
  160.3510  214.1170  143.1750 O   0  0  0  0  0  0  0  0  0  0  0  0
  161.0470  212.7990  143.4020 S   0  0  0  0  0  0  0  0  0  0  0  0
  160.3760  211.5680  142.3180 C   0  0  0  0  0  1  0  0  0  0  0  0
  162.5170  212.9440  143.1170 O   0  0  0  0  0  0  0  0  0  0  0  0
  1  5  1  6  0  0  0
  1  7  1  0  0  0  0
  2  4  1  0  0  0  0
  3 29  1  6  0  0  0
  3  2  1  0  0  0  0
  6  5  1  0  0  0  0
  6  3  1  0  0  0  0
  7  4  1  0  0  0  0
  8 11  1  6  0  0  0
  8  1  1  0  0  0  0
  9 13  1  6  0  0  0
  9  8  1  0  0  0  0
 10  9  1  0  0  0  0
 10 12  1  0  0  0  0
 12 14  1  6  0  0  0
 12 11  1  0  0  0  0
 14 15  1  0  0  0  0
 16 15  1  0  0  0  0
 17 16  1  1  0  0  0
 18 23  1  0  0  0  0
 19 20  1  0  0  0  0
 19 21  1  0  0  0  0
 20 18  1  0  0  0  0
 21 22  1  0  0  0  0
 22 23  1  0  0  0  0
 23 17  1  0  0  0  0
 25 24  1  0  0  0  0
 25 19  1  0  0  0  0
 26 17  1  0  0  0  0
 27 26  2  0  0  0  0
 28 26  2  0  0  0  0
 29 30  1  1  0  0  0
 30 31  2  0  0  0  0
 31 34  1  0  0  0  0
 32 31  1  0  0  0  0
 34 33  1  0  0  0  0
 35 29  1  0  0  0  0
 36 39  1  0  0  0  0
 37 40  1  6  0  0  0
 37 39  1  0  0  0  0
 38 37  1  0  0  0  0
 38 36  1  0  0  0  0
 39 35  1  1  0  0  0
 41 40  1  0  0  0  0
 42 41  1  0  0  0  0
 43 42  1  0  0  0  0
 44 43  1  0  0  0  0
 45 43  2  0  0  0  0
 46 47  2  0  0  0  0
 47 44  1  0  0  0  0
 48 47  1  0  0  0  0
 49 47  2  0  0  0  0
M  END
>  <MODEL>
2

>  <REMARK>
 VINA RESULT:      -4.0      3.171      8.252
  Name = 
  18 active torsions:
  status: ('A' for Active; 'I' for Inactive)
    1  A    between atoms: C_2  and  C_47
    2  A    between atoms: C_3  and  C_13
    3  A    between atoms: C_3  and  C_39
    4  A    between atoms: C_5  and  C_17
    5  A    between atoms: C_5  and  C_26
    6  A    between atoms: N_7  and  C_29
    7  A    between atoms: C_8  and  C_10
    8  A    between atoms: N_9  and  C_11
    9  A    between atoms: N_12  and  S_24
   10  A    between atoms: C_13  and  C_22
   11  A    between atoms: C_15  and  C_34
   12  A    between atoms: C_18  and  C_43
   13  A    between atoms: C_22  and  C_29
   14  A    between atoms: C_23  and  C_34
   15  A    between atoms: C_26  and  C_47
   16  A    between atoms: C_29  and  C_31
   17  A    between atoms: C_34  and  N_45
   18  A    between atoms: C_35  and  N_45
                            x       y       z     vdW  Elec       q    Type
                         _______ _______ _______ _____ _____    ______ ____

>  <TORSDO>
F 18

$$$$
=
 OpenBabel11072409503D

 49 52  0  0  1  0  0  0  0  0999 V2000
  161.1640  205.3400  146.9970 C   0  0  2  0  0  3  0  0  0  0  0  0
  163.0800  207.7140  148.3920 C   0  0  0  0  0  2  0  0  0  0  0  0
  161.7140  207.9230  149.0590 C   0  0  2  0  0  3  0  0  0  0  0  0
  163.3250  206.2660  147.9780 C   0  0  0  0  0  2  0  0  0  0  0  0
  160.3870  206.0330  148.1270 C   0  0  0  0  0  2  0  0  0  0  0  0
  160.5490  207.5460  148.1430 C   0  0  0  0  0  2  0  0  0  0  0  0
  162.5400  205.9650  146.7070 C   0  0  0  0  0  2  0  0  0  0  0  0
  160.3040  205.2480  145.7310 C   0  0  2  0  0  3  0  0  0  0  0  0
  160.7120  204.0360  144.9170 C   0  0  2  0  0  3  0  0  0  0  0  0
  161.6700  204.4570  143.8990 N   0  0  0  0  0  2  0  0  0  0  0  0
  160.5630  206.4060  144.7970 C   0  0  0  0  0  2  0  0  0  0  0  0
  161.5940  205.9100  143.8040 C   0  0  2  0  0  3  0  0  0  0  0  0
  159.5430  203.4600  144.2750 N   0  0  0  0  0  1  0  0  0  0  0  0
  161.2040  206.2990  142.3850 C   0  0  0  0  0  2  0  0  0  0  0  0
  162.3900  206.2230  141.4340 C   0  0  0  0  0  2  0  0  0  0  0  0
  162.7210  207.5950  140.8620 C   0  0  0  0  0  2  0  0  0  0  0  0
  161.6780  208.0900  139.8510 C   0  0  1  0  0  3  0  0  0  0  0  0
  160.4320  210.3400  140.0250 C   0  0  0  0  0  2  0  0  0  0  0  0
  161.7410  211.9680  141.4250 N   0  0  0  0  0  0  0  0  0  0  0  0
  160.6160  211.0130  141.3900 C   0  0  0  0  0  2  0  0  0  0  0  0
  162.7710  211.7230  140.4040 C   0  0  0  0  0  2  0  0  0  0  0  0
  162.9820  210.2320  140.1670 C   0  0  0  0  0  2  0  0  0  0  0  0
  161.7090  209.6040  139.5870 C   0  0  0  0  0  3  0  0  0  0  0  0
  160.0930  213.5460  142.0950 N   0  0  0  0  0  1  0  0  0  0  0  0
  161.1910  213.2890  141.1760 C   0  0  0  0  0  2  0  0  0  0  0  0
  161.6450  207.2890  138.6280 N   0  0  0  0  0  0  0  0  0  0  0  0
  162.4580  206.3590  138.4400 O   0  0  0  0  0  0  0  0  0  0  0  0
  160.7720  207.6320  137.6230 O   0  0  0  0  0  0  0  0  0  0  0  0
  161.6030  209.3680  149.5600 C   0  0  2  0  0  3  0  0  0  0  0  0
  162.4230  210.3170  148.7320 C   0  0  0  0  0  3  0  0  0  0  0  0
  162.1620  211.6260  148.6170 C   0  0  0  0  0  0  0  0  0  0  0  0
  160.7950  212.4110  149.4760 S   0  0  0  0  0  1  0  0  0  0  0  0
  162.8440  213.8270  148.0710 O   0  0  0  0  0  1  0  0  0  0  0  0
  163.0640  212.4790  147.7880 C   0  0  0  0  0  2  0  0  0  0  0  0
  161.9910  209.4600  150.9650 N   0  0  0  0  0  2  0  0  0  0  0  0
  160.3950  209.9030  152.7350 C   0  0  0  0  0  2  0  0  0  0  0  0
  161.5330  208.0910  152.9370 C   0  0  2  0  0  3  0  0  0  0  0  0
  161.0240  209.1520  153.8940 C   0  0  0  0  0  2  0  0  0  0  0  0
  160.9300  208.8620  151.7690 C   0  0  2  0  0  3  0  0  0  0  0  0
  160.7640  206.7980  153.1850 C   0  0  0  0  0  2  0  0  0  0  0  0
  161.5960  205.5670  152.8520 C   0  0  0  0  0  2  0  0  0  0  0  0
  161.5920  205.2560  151.3600 C   0  0  0  0  0  2  0  0  0  0  0  0
  161.1580  203.8520  151.0950 C   0  0  0  0  0  0  0  0  0  0  0  0
  161.1780  203.3440  149.7590 N   0  0  0  0  0  2  0  0  0  0  0  0
  160.7790  203.1270  152.0500 O   0  0  0  0  0  0  0  0  0  0  0  0
  161.3680  200.7350  150.1870 O   0  0  0  0  0  0  0  0  0  0  0  0
  160.6460  201.7520  149.3400 S   0  0  0  0  0  0  0  0  0  0  0  0
  161.0000  201.4690  147.6250 C   0  0  0  0  0  1  0  0  0  0  0  0
  159.1620  201.6290  149.5520 O   0  0  0  0  0  0  0  0  0  0  0  0
  1  7  1  6  0  0  0
  1  5  1  0  0  0  0
  2  3  1  0  0  0  0
  3 29  1  6  0  0  0
  4  2  1  0  0  0  0
  5  6  1  0  0  0  0
  6  3  1  0  0  0  0
  7  4  1  0  0  0  0
  8 11  1  6  0  0  0
  8  1  1  0  0  0  0
  9 13  1  6  0  0  0
  9  8  1  0  0  0  0
 10  9  1  0  0  0  0
 12 14  1  6  0  0  0
 12 10  1  0  0  0  0
 12 11  1  0  0  0  0
 15 14  1  0  0  0  0
 16 15  1  0  0  0  0
 17 16  1  6  0  0  0
 18 20  1  0  0  0  0
 20 19  1  0  0  0  0
 21 19  1  0  0  0  0
 22 21  1  0  0  0  0
 23 17  1  0  0  0  0
 23 18  1  0  0  0  0
 23 22  1  0  0  0  0
 25 19  1  0  0  0  0
 25 24  1  0  0  0  0
 26 17  1  0  0  0  0
 27 26  2  0  0  0  0
 28 26  2  0  0  0  0
 29 30  1  6  0  0  0
 29 35  1  0  0  0  0
 31 30  2  0  0  0  0
 31 32  1  0  0  0  0
 34 33  1  0  0  0  0
 34 31  1  0  0  0  0
 36 38  1  0  0  0  0
 37 40  1  1  0  0  0
 37 38  1  0  0  0  0
 39 35  1  6  0  0  0
 39 36  1  0  0  0  0
 39 37  1  0  0  0  0
 41 40  1  0  0  0  0
 42 41  1  0  0  0  0
 43 42  1  0  0  0  0
 43 45  2  0  0  0  0
 44 43  1  0  0  0  0
 47 49  2  0  0  0  0
 47 44  1  0  0  0  0
 47 46  2  0  0  0  0
 48 47  1  0  0  0  0
M  END
>  <MODEL>
3

>  <REMARK>
 VINA RESULT:      -3.9      4.062      6.707
  Name = 
  18 active torsions:
  status: ('A' for Active; 'I' for Inactive)
    1  A    between atoms: C_2  and  C_47
    2  A    between atoms: C_3  and  C_13
    3  A    between atoms: C_3  and  C_39
    4  A    between atoms: C_5  and  C_17
    5  A    between atoms: C_5  and  C_26
    6  A    between atoms: N_7  and  C_29
    7  A    between atoms: C_8  and  C_10
    8  A    between atoms: N_9  and  C_11
    9  A    between atoms: N_12  and  S_24
   10  A    between atoms: C_13  and  C_22
   11  A    between atoms: C_15  and  C_34
   12  A    between atoms: C_18  and  C_43
   13  A    between atoms: C_22  and  C_29
   14  A    between atoms: C_23  and  C_34
   15  A    between atoms: C_26  and  C_47
   16  A    between atoms: C_29  and  C_31
   17  A    between atoms: C_34  and  N_45
   18  A    between atoms: C_35  and  N_45
                            x       y       z     vdW  Elec       q    Type
                         _______ _______ _______ _____ _____    ______ ____

>  <TORSDO>
F 18

$$$$
=
 OpenBabel11072409503D

 49 52  0  0  1  0  0  0  0  0999 V2000
  161.5430  206.2930  146.8210 C   0  0  2  0  0  3  0  0  0  0  0  0
  160.9460  206.8240  150.0790 C   0  0  0  0  0  2  0  0  0  0  0  0
  161.6200  205.4450  150.0620 C   0  0  2  0  0  3  0  0  0  0  0  0
  161.3910  207.7190  148.9270 C   0  0  0  0  0  2  0  0  0  0  0  0
  162.2020  205.1830  147.6540 C   0  0  0  0  0  2  0  0  0  0  0  0
  161.3230  204.6610  148.7830 C   0  0  0  0  0  2  0  0  0  0  0  0
  160.6950  207.2770  147.6460 C   0  0  0  0  0  2  0  0  0  0  0  0
  160.7450  205.6920  145.6580 C   0  0  2  0  0  3  0  0  0  0  0  0
  161.3680  204.3780  145.2300 C   0  0  2  0  0  3  0  0  0  0  0  0
  162.2720  204.6320  144.1120 N   0  0  0  0  0  2  0  0  0  0  0  0
  160.8370  206.5490  144.4190 C   0  0  0  0  0  2  0  0  0  0  0  0
  161.9610  205.9590  143.5930 C   0  0  2  0  0  3  0  0  0  0  0  0
  160.3280  203.4540  144.8130 N   0  0  0  0  0  1  0  0  0  0  0  0
  161.5530  205.8420  142.1320 C   0  0  0  0  0  2  0  0  0  0  0  0
  162.2150  206.9110  141.2750 C   0  0  0  0  0  2  0  0  0  0  0  0
  161.8270  206.7560  139.8110 C   0  0  0  0  0  2  0  0  0  0  0  0
  161.2850  208.0520  139.1930 C   0  0  1  0  0  3  0  0  0  0  0  0
  162.4150  210.2950  138.6160 C   0  0  0  0  0  2  0  0  0  0  0  0
  161.1200  212.2150  139.5990 N   0  0  0  0  0  0  0  0  0  0  0  0
  161.4040  211.4240  138.3850 C   0  0  0  0  0  2  0  0  0  0  0  0
  161.3930  211.5040  140.8570 C   0  0  0  0  0  2  0  0  0  0  0  0
  161.0400  210.0250  140.7530 C   0  0  0  0  0  2  0  0  0  0  0  0
  161.9410  209.3370  139.7210 C   0  0  0  0  0  3  0  0  0  0  0  0
  162.9540  213.3070  140.6460 N   0  0  0  0  0  1  0  0  0  0  0  0
  161.9860  213.3810  139.5640 C   0  0  0  0  0  2  0  0  0  0  0  0
  161.2060  207.9980  137.7340 N   0  0  0  0  0  0  0  0  0  0  0  0
  160.1200  208.1610  137.1380 O   0  0  0  0  0  0  0  0  0  0  0  0
  162.3260  207.6610  137.0120 O   0  0  0  0  0  0  0  0  0  0  0  0
  161.2210  204.6620  151.3180 C   0  0  2  0  0  3  0  0  0  0  0  0
  160.4530  203.4140  150.9850 C   0  0  0  0  0  3  0  0  0  0  0  0
  160.9480  202.1750  151.1070 C   0  0  0  0  0  0  0  0  0  0  0  0
  162.6070  201.8620  151.7190 S   0  0  0  0  0  1  0  0  0  0  0  0
  159.3120  201.2880  149.6450 O   0  0  0  0  0  1  0  0  0  0  0  0
  160.0810  201.0070  150.7730 C   0  0  0  0  0  2  0  0  0  0  0  0
  160.4480  205.5020  152.2280 N   0  0  0  0  0  2  0  0  0  0  0  0
  161.5200  206.1090  154.3170 C   0  0  0  0  0  2  0  0  0  0  0  0
  160.6040  207.7240  153.2350 C   0  0  2  0  0  3  0  0  0  0  0  0
  160.7390  207.3520  154.6990 C   0  0  0  0  0  2  0  0  0  0  0  0
  161.3600  206.4580  152.8490 C   0  0  2  0  0  3  0  0  0  0  0  0
  161.4510  208.9620  152.9640 C   0  0  0  0  0  2  0  0  0  0  0  0
  160.6280  210.0970  152.3700 C   0  0  0  0  0  2  0  0  0  0  0  0
  160.6110  211.3280  153.2700 C   0  0  0  0  0  2  0  0  0  0  0  0
  159.4100  211.3430  154.1550 C   0  0  0  0  0  0  0  0  0  0  0  0
  158.2850  212.1560  153.8100 N   0  0  0  0  0  2  0  0  0  0  0  0
  159.3950  210.6390  155.1970 O   0  0  0  0  0  0  0  0  0  0  0  0
  156.2900  210.9130  155.0350 O   0  0  0  0  0  0  0  0  0  0  0  0
  156.8680  212.2840  154.7950 S   0  0  0  0  0  0  0  0  0  0  0  0
  155.6820  213.2990  153.9530 C   0  0  0  0  0  1  0  0  0  0  0  0
  157.2080  212.9310  156.1100 O   0  0  0  0  0  0  0  0  0  0  0  0
  1  7  1  1  0  0  0
  1  5  1  0  0  0  0
  3  2  1  0  0  0  0
  3 29  1  1  0  0  0
  4  2  1  0  0  0  0
  5  6  1  0  0  0  0
  6  3  1  0  0  0  0
  7  4  1  0  0  0  0
  8 11  1  6  0  0  0
  8  1  1  0  0  0  0
  9 13  1  6  0  0  0
  9  8  1  0  0  0  0
 10  9  1  0  0  0  0
 12 14  1  6  0  0  0
 12 10  1  0  0  0  0
 12 11  1  0  0  0  0
 15 14  1  0  0  0  0
 16 15  1  0  0  0  0
 17 23  1  0  0  0  0
 17 16  1  6  0  0  0
 18 23  1  0  0  0  0
 19 21  1  0  0  0  0
 20 18  1  0  0  0  0
 20 19  1  0  0  0  0
 22 21  1  0  0  0  0
 23 22  1  0  0  0  0
 25 19  1  0  0  0  0
 25 24  1  0  0  0  0
 26 17  1  0  0  0  0
 27 26  2  0  0  0  0
 28 26  2  0  0  0  0
 29 30  1  6  0  0  0
 29 35  1  0  0  0  0
 30 31  2  0  0  0  0
 31 32  1  0  0  0  0
 33 34  1  0  0  0  0
 34 31  1  0  0  0  0
 36 38  1  0  0  0  0
 37 40  1  1  0  0  0
 37 38  1  0  0  0  0
 39 35  1  6  0  0  0
 39 37  1  0  0  0  0
 39 36  1  0  0  0  0
 41 40  1  0  0  0  0
 41 42  1  0  0  0  0
 42 43  1  0  0  0  0
 43 45  2  0  0  0  0
 44 43  1  0  0  0  0
 44 47  1  0  0  0  0
 47 46  2  0  0  0  0
 47 49  2  0  0  0  0
 48 47  1  0  0  0  0
M  END
>  <MODEL>
4

>  <REMARK>
 VINA RESULT:      -3.2      3.825      7.911
  Name = 
  18 active torsions:
  status: ('A' for Active; 'I' for Inactive)
    1  A    between atoms: C_2  and  C_47
    2  A    between atoms: C_3  and  C_13
    3  A    between atoms: C_3  and  C_39
    4  A    between atoms: C_5  and  C_17
    5  A    between atoms: C_5  and  C_26
    6  A    between atoms: N_7  and  C_29
    7  A    between atoms: C_8  and  C_10
    8  A    between atoms: N_9  and  C_11
    9  A    between atoms: N_12  and  S_24
   10  A    between atoms: C_13  and  C_22
   11  A    between atoms: C_15  and  C_34
   12  A    between atoms: C_18  and  C_43
   13  A    between atoms: C_22  and  C_29
   14  A    between atoms: C_23  and  C_34
   15  A    between atoms: C_26  and  C_47
   16  A    between atoms: C_29  and  C_31
   17  A    between atoms: C_34  and  N_45
   18  A    between atoms: C_35  and  N_45
                            x       y       z     vdW  Elec       q    Type
                         _______ _______ _______ _____ _____    ______ ____

>  <TORSDO>
F 18

$$$$
=
 OpenBabel11072409503D

 49 52  0  0  1  0  0  0  0  0999 V2000
  160.4980  213.8700  149.1000 C   0  0  2  0  0  3  0  0  0  0  0  0
  157.7280  213.1800  150.8610 C   0  0  0  0  0  2  0  0  0  0  0  0
  158.6680  213.7970  151.9060 C   0  0  2  0  0  3  0  0  0  0  0  0
  157.9800  213.7020  149.4510 C   0  0  0  0  0  2  0  0  0  0  0  0
  160.6280  214.4530  150.5160 C   0  0  0  0  0  2  0  0  0  0  0  0
  160.1420  213.5140  151.6110 C   0  0  0  0  0  2  0  0  0  0  0  0
  159.2260  213.0340  148.8800 C   0  0  0  0  0  2  0  0  0  0  0  0
  161.7630  213.0900  148.7220 C   0  0  2  0  0  3  0  0  0  0  0  0
  161.7030  212.6880  147.2610 C   0  0  2  0  0  3  0  0  0  0  0  0
  161.1760  211.3300  147.1720 N   0  0  0  0  0  2  0  0  0  0  0  0
  161.8420  211.7710  149.4500 C   0  0  0  0  0  2  0  0  0  0  0  0
  161.2550  210.7430  148.5050 C   0  0  2  0  0  3  0  0  0  0  0  0
  163.0360  212.7300  146.6850 N   0  0  0  0  0  1  0  0  0  0  0  0
  162.1290  209.4980  148.4530 C   0  0  0  0  0  2  0  0  0  0  0  0
  161.3210  208.2560  148.1050 C   0  0  0  0  0  2  0  0  0  0  0  0
  162.2280  207.0490  147.9160 C   0  0  0  0  0  2  0  0  0  0  0  0
  161.8780  206.2250  146.6700 C   0  0  1  0  0  3  0  0  0  0  0  0
  162.2080  204.1180  148.1190 C   0  0  0  0  0  2  0  0  0  0  0  0
  160.8320  202.2100  147.2290 N   0  0  0  0  0  0  0  0  0  0  0  0
  160.9310  203.2790  148.2420 C   0  0  0  0  0  2  0  0  0  0  0  0
  161.6260  202.4550  146.0160 C   0  0  0  0  0  2  0  0  0  0  0  0
  161.6290  203.9320  145.6360 C   0  0  0  0  0  2  0  0  0  0  0  0
  162.3270  204.7560  146.7250 C   0  0  0  0  0  3  0  0  0  0  0  0
  161.1850  201.0660  149.2830 N   0  0  0  0  0  1  0  0  0  0  0  0
  161.3390  200.9930  147.8390 C   0  0  0  0  0  2  0  0  0  0  0  0
  160.4870  206.3900  146.2490 N   0  0  0  0  0  0  0  0  0  0  0  0
  160.1890  206.5530  145.0470 O   0  0  0  0  0  0  0  0  0  0  0  0
  159.5010  206.4710  147.2030 O   0  0  0  0  0  0  0  0  0  0  0  0
  158.2630  213.3220  153.3060 C   0  0  2  0  0  3  0  0  0  0  0  0
  157.1010  214.1040  153.8530 C   0  0  0  0  0  3  0  0  0  0  0  0
  156.1200  213.5690  154.5900 C   0  0  0  0  0  0  0  0  0  0  0  0
  156.0950  211.8300  155.0370 S   0  0  0  0  0  1  0  0  0  0  0  0
  153.9830  213.6760  155.6040 O   0  0  0  0  0  1  0  0  0  0  0  0
  155.0300  214.4500  155.1050 C   0  0  0  0  0  2  0  0  0  0  0  0
  159.3950  213.3920  154.2250 N   0  0  0  0  0  2  0  0  0  0  0  0
  160.3480  212.3450  156.1930 C   0  0  0  0  0  2  0  0  0  0  0  0
  160.4230  211.1800  154.3880 C   0  0  2  0  0  3  0  0  0  0  0  0
  161.3540  211.3980  155.5660 C   0  0  0  0  0  2  0  0  0  0  0  0
  159.4270  212.1570  155.0010 C   0  0  2  0  0  3  0  0  0  0  0  0
  159.8870  209.7550  154.4450 C   0  0  0  0  0  2  0  0  0  0  0  0
  161.0080  208.7250  154.4670 C   0  0  0  0  0  2  0  0  0  0  0  0
  161.9750  208.9030  153.3020 C   0  0  0  0  0  2  0  0  0  0  0  0
  161.9370  207.7340  152.3750 C   0  0  0  0  0  0  0  0  0  0  0  0
  161.3320  206.5100  152.8020 N   0  0  0  0  0  2  0  0  0  0  0  0
  162.4350  207.8330  151.2250 O   0  0  0  0  0  0  0  0  0  0  0  0
  160.4420  205.3350  150.5990 O   0  0  0  0  0  0  0  0  0  0  0  0
  161.2830  205.0830  151.8250 S   0  0  0  0  0  0  0  0  0  0  0  0
  160.5780  203.7660  152.7800 C   0  0  0  0  0  1  0  0  0  0  0  0
  162.6750  204.6890  151.4140 O   0  0  0  0  0  0  0  0  0  0  0  0
  1  7  1  1  0  0  0
  1  5  1  0  0  0  0
  2  3  1  0  0  0  0
  3 29  1  1  0  0  0
  4  2  1  0  0  0  0
  5  6  1  0  0  0  0
  6  3  1  0  0  0  0
  7  4  1  0  0  0  0
  8  1  1  0  0  0  0
  8 11  1  1  0  0  0
  9 13  1  1  0  0  0
  9  8  1  0  0  0  0
 10  9  1  0  0  0  0
 10 12  1  0  0  0  0
 12 14  1  6  0  0  0
 12 11  1  0  0  0  0
 15 14  1  0  0  0  0
 16 15  1  0  0  0  0
 17 23  1  0  0  0  0
 17 16  1  1  0  0  0
 18 20  1  0  0  0  0
 19 25  1  0  0  0  0
 19 20  1  0  0  0  0
 21 19  1  0  0  0  0
 22 21  1  0  0  0  0
 22 23  1  0  0  0  0
 23 18  1  0  0  0  0
 25 24  1  0  0  0  0
 26 17  1  0  0  0  0
 26 28  2  0  0  0  0
 27 26  2  0  0  0  0
 29 30  1  1  0  0  0
 29 35  1  0  0  0  0
 30 31  2  0  0  0  0
 31 32  1  0  0  0  0
 31 34  1  0  0  0  0
 34 33  1  0  0  0  0
 37 40  1  1  0  0  0
 37 39  1  0  0  0  0
 37 38  1  0  0  0  0
 38 36  1  0  0  0  0
 39 35  1  6  0  0  0
 39 36  1  0  0  0  0
 40 41  1  0  0  0  0
 42 41  1  0  0  0  0
 43 44  1  0  0  0  0
 43 42  1  0  0  0  0
 45 43  2  0  0  0  0
 46 47  2  0  0  0  0
 47 48  1  0  0  0  0
 47 44  1  0  0  0  0
 49 47  2  0  0  0  0
M  END
>  <MODEL>
5

>  <REMARK>
 VINA RESULT:      -2.8      4.240      5.932
  Name = 
  18 active torsions:
  status: ('A' for Active; 'I' for Inactive)
    1  A    between atoms: C_2  and  C_47
    2  A    between atoms: C_3  and  C_13
    3  A    between atoms: C_3  and  C_39
    4  A    between atoms: C_5  and  C_17
    5  A    between atoms: C_5  and  C_26
    6  A    between atoms: N_7  and  C_29
    7  A    between atoms: C_8  and  C_10
    8  A    between atoms: N_9  and  C_11
    9  A    between atoms: N_12  and  S_24
   10  A    between atoms: C_13  and  C_22
   11  A    between atoms: C_15  and  C_34
   12  A    between atoms: C_18  and  C_43
   13  A    between atoms: C_22  and  C_29
   14  A    between atoms: C_23  and  C_34
   15  A    between atoms: C_26  and  C_47
   16  A    between atoms: C_29  and  C_31
   17  A    between atoms: C_34  and  N_45
   18  A    between atoms: C_35  and  N_45
                            x       y       z     vdW  Elec       q    Type
                         _______ _______ _______ _____ _____    ______ ____

>  <TORSDO>
F 18

$$$$
