=
 OpenBabel11072411523D

 32 35  0  0  1  0  0  0  0  0999 V2000
  161.9900  208.6180  148.5560 C   0  0  0  0  0  2  0  0  0  0  0  0
  161.3370  208.1800  149.8530 C   0  0  1  0  0  3  0  0  0  0  0  0
  161.9520  207.1500  148.9240 C   0  0  1  0  0  3  0  0  0  0  0  0
  160.8390  206.4620  148.1650 C   0  0  0  0  0  2  0  0  0  0  0  0
  161.2170  204.2860  146.0890 N   0  0  0  0  0  0  0  0  0  0  0  0
  160.7930  203.2360  145.1800 C   0  0  0  0  0  1  0  0  0  0  0  0
  160.7660  205.9860  144.5530 O   0  0  0  0  0  0  0  0  0  0  0  0
  160.9980  206.7030  146.7400 N   0  0  0  0  0  2  0  0  0  0  0  0
  160.9800  205.6670  145.7520 C   0  0  0  0  0  0  0  0  0  0  0  0
  161.9830  203.8920  147.2690 C   0  0  0  0  0  2  0  0  0  0  0  0
  161.5700  200.8560  148.5570 C   0  0  0  0  0  2  0  0  0  0  0  0
  160.4740  201.6990  150.6200 C   0  0  0  0  0  2  0  0  0  0  0  0
  160.6690  203.2070  150.5420 C   0  0  0  0  0  2  0  0  0  0  0  0
  160.2250  201.0730  149.2390 C   0  0  1  0  0  3  0  0  0  0  0  0
  160.6290  201.9120  148.0150 C   0  0  1  0  0  3  0  0  0  0  0  0
  161.0580  203.3590  148.3550 C   0  0  1  0  0  3  0  0  0  0  0  0
  161.6740  203.4770  149.6110 O   0  0  0  0  0  0  0  0  0  0  0  0
  162.2790  208.4260  151.0300 C   0  0  2  0  0  3  0  0  0  0  0  0
  161.6920  207.8940  152.3070 C   0  0  0  0  0  0  0  0  0  0  0  0
  162.4610  205.6600  151.7580 O   0  0  0  0  0  1  0  0  0  0  0  0
  160.4870  208.2610  154.3960 C   0  0  0  0  0  0  0  0  0  0  0  0
  161.2530  206.0390  153.8060 C   0  0  0  0  0  3  0  0  0  0  0  0
  161.0370  208.7520  153.2030 C   0  0  0  0  0  3  0  0  0  0  0  0
  160.6030  206.9010  154.6920 C   0  0  0  0  0  3  0  0  0  0  0  0
  161.7980  206.5310  152.6170 C   0  0  0  0  0  0  0  0  0  0  0  0
  161.6090  209.8820  156.5790 O   0  0  0  0  0  0  0  0  0  0  0  0
  160.3660  209.8730  156.3830 C   0  0  0  0  0  0  0  0  0  0  0  0
  159.7880  209.1120  155.3150 N   0  0  0  0  0  2  0  0  0  0  0  0
  159.5360  210.6210  157.2070 O   0  0  0  0  0  1  0  0  0  0  0  0
  162.5960  209.9080  151.1730 C   0  0  0  0  0  2  0  0  0  0  0  0
  161.4310  210.7540  150.7010 C   0  0  0  0  0  2  0  0  0  0  0  0
  161.8820  211.6620  149.6650 N   0  0  0  0  0  1  0  0  0  0  0  0
  1  3  1  0  0  0  0
  1  2  1  0  0  0  0
  2 18  1  1  0  0  0
  3  4  1  6  0  0  0
  3  2  1  0  0  0  0
  5 10  1  0  0  0  0
  6  5  1  0  0  0  0
  7  9  2  0  0  0  0
  8  4  1  0  0  0  0
  9  5  1  0  0  0  0
  9  8  1  0  0  0  0
 13 12  1  0  0  0  0
 14 11  1  1  0  0  0
 14 12  1  0  0  0  0
 15 16  1  0  0  0  0
 15 11  1  1  0  0  0
 15 14  1  0  0  0  0
 16 10  1  6  0  0  0
 16 17  1  0  0  0  0
 17 13  1  0  0  0  0
 18 30  1  1  0  0  0
 18 19  1  0  0  0  0
 19 25  2  0  0  0  0
 19 23  1  0  0  0  0
 20 25  1  0  0  0  0
 21 24  1  0  0  0  0
 21 28  1  0  0  0  0
 22 24  2  0  0  0  0
 23 21  2  0  0  0  0
 25 22  1  0  0  0  0
 27 26  2  0  0  0  0
 27 29  1  0  0  0  0
 28 27  1  0  0  0  0
 31 30  1  0  0  0  0
 32 31  1  0  0  0  0
M  END
>  <MODEL>
1

>  <REMARK>
 VINA RESULT:      -8.0      0.000      0.000
  Name = 
  9 active torsions:
  status: ('A' for Active; 'I' for Inactive)
    1  A    between atoms: C_1  and  N_17
    2  A    between atoms: C_1  and  C_31
    3  A    between atoms: C_2  and  C_14
    4  A    between atoms: C_3  and  N_5
    5  A    between atoms: C_3  and  C_28
    6  A    between atoms: C_9  and  C_14
    7  A    between atoms: C_10  and  N_30
    8  A    between atoms: C_11  and  C_14
    9  A    between atoms: C_11  and  C_16
                            x       y       z     vdW  Elec       q    Type
                         _______ _______ _______ _____ _____    ______ ____

>  <TORSDO>
F 9

$$$$
=
 OpenBabel11072411523D

 32 35  0  0  1  0  0  0  0  0999 V2000
  162.2860  208.1220  151.2970 C   0  0  0  0  0  2  0  0  0  0  0  0
  161.5580  206.8190  151.5650 C   0  0  1  0  0  3  0  0  0  0  0  0
  160.8590  208.1450  151.8010 C   0  0  1  0  0  3  0  0  0  0  0  0
  160.8450  208.4240  153.2880 C   0  0  0  0  0  2  0  0  0  0  0  0
  160.8040  210.0210  155.8640 N   0  0  0  0  0  0  0  0  0  0  0  0
  161.0970  210.2870  157.2600 C   0  0  0  0  0  1  0  0  0  0  0  0
  162.8710  210.8250  155.1340 O   0  0  0  0  0  0  0  0  0  0  0  0
  161.7430  209.5280  153.5860 N   0  0  0  0  0  2  0  0  0  0  0  0
  161.8440  210.1440  154.8740 C   0  0  0  0  0  0  0  0  0  0  0  0
  159.4140  209.7500  155.5030 C   0  0  0  0  0  2  0  0  0  0  0  0
  158.3690  211.6510  152.9850 C   0  0  0  0  0  2  0  0  0  0  0  0
  156.6150  212.7710  154.3400 C   0  0  0  0  0  2  0  0  0  0  0  0
  156.5930  211.9700  155.6350 C   0  0  0  0  0  2  0  0  0  0  0  0
  158.0350  212.9130  153.7690 C   0  0  1  0  0  3  0  0  0  0  0  0
  159.0910  211.9240  154.2880 C   0  0  1  0  0  3  0  0  0  0  0  0
  158.6090  211.0410  155.4630 C   0  0  1  0  0  3  0  0  0  0  0  0
  157.2370  210.7510  155.4140 O   0  0  0  0  0  0  0  0  0  0  0  0
  161.0610  206.2120  150.2550 C   0  0  2  0  0  3  0  0  0  0  0  0
  161.0040  204.7120  150.3470 C   0  0  0  0  0  0  0  0  0  0  0  0
  161.2870  204.8250  152.7540 O   0  0  0  0  0  1  0  0  0  0  0  0
  160.7710  202.5340  149.2740 C   0  0  0  0  0  0  0  0  0  0  0  0
  161.0740  202.6830  151.6740 C   0  0  0  0  0  3  0  0  0  0  0  0
  160.8240  203.9330  149.1950 C   0  0  0  0  0  3  0  0  0  0  0  0
  160.8930  201.9160  150.5200 C   0  0  0  0  0  3  0  0  0  0  0  0
  161.1280  204.0780  151.5900 C   0  0  0  0  0  0  0  0  0  0  0  0
  161.4310  203.2020  146.4860 O   0  0  0  0  0  1  0  0  0  0  0  0
  160.9280  202.0810  146.7580 C   0  0  0  0  0  0  0  0  0  0  0  0
  160.6160  201.7140  148.1070 N   0  0  0  0  0  2  0  0  0  0  0  0
  160.6810  201.1740  145.7360 O   0  0  0  0  0  0  0  0  0  0  0  0
  161.9440  206.6350  149.0900 C   0  0  0  0  0  2  0  0  0  0  0  0
  161.1400  207.4000  148.0580 C   0  0  0  0  0  2  0  0  0  0  0  0
  160.9710  206.5810  146.8740 N   0  0  0  0  0  1  0  0  0  0  0  0
  1  2  1  0  0  0  0
  1  3  1  0  0  0  0
  2 18  1  6  0  0  0
  2  3  1  0  0  0  0
  3  4  1  1  0  0  0
  4  8  1  0  0  0  0
  5  6  1  0  0  0  0
  8  9  1  0  0  0  0
  9  7  2  0  0  0  0
  9  5  1  0  0  0  0
 10  5  1  0  0  0  0
 12 13  1  0  0  0  0
 14 11  1  6  0  0  0
 14 15  1  0  0  0  0
 14 12  1  0  0  0  0
 15 11  1  6  0  0  0
 15 16  1  0  0  0  0
 16 10  1  6  0  0  0
 17 16  1  0  0  0  0
 17 13  1  0  0  0  0
 18 30  1  6  0  0  0
 18 19  1  0  0  0  0
 19 25  1  0  0  0  0
 21 24  2  0  0  0  0
 23 21  1  0  0  0  0
 23 19  2  0  0  0  0
 24 22  1  0  0  0  0
 25 22  2  0  0  0  0
 25 20  1  0  0  0  0
 26 27  1  0  0  0  0
 27 28  1  0  0  0  0
 28 21  1  0  0  0  0
 29 27  2  0  0  0  0
 31 30  1  0  0  0  0
 32 31  1  0  0  0  0
M  END
>  <MODEL>
2

>  <REMARK>
 VINA RESULT:      -7.9      2.447      9.046
  Name = 
  9 active torsions:
  status: ('A' for Active; 'I' for Inactive)
    1  A    between atoms: C_1  and  N_17
    2  A    between atoms: C_1  and  C_31
    3  A    between atoms: C_2  and  C_14
    4  A    between atoms: C_3  and  N_5
    5  A    between atoms: C_3  and  C_28
    6  A    between atoms: C_9  and  C_14
    7  A    between atoms: C_10  and  N_30
    8  A    between atoms: C_11  and  C_14
    9  A    between atoms: C_11  and  C_16
                            x       y       z     vdW  Elec       q    Type
                         _______ _______ _______ _____ _____    ______ ____

>  <TORSDO>
F 9

$$$$
=
 OpenBabel11072411523D

 32 35  0  0  1  0  0  0  0  0999 V2000
  162.4000  207.3920  147.9070 C   0  0  0  0  0  2  0  0  0  0  0  0
  161.9430  206.1850  148.7030 C   0  0  1  0  0  3  0  0  0  0  0  0
  161.2100  207.5070  148.8350 C   0  0  1  0  0  3  0  0  0  0  0  0
  161.6320  208.1650  150.1300 C   0  0  0  0  0  2  0  0  0  0  0  0
  161.3760  207.1010  152.9570 N   0  0  0  0  0  0  0  0  0  0  0  0
  160.9160  206.1950  153.9930 C   0  0  0  0  0  1  0  0  0  0  0  0
  163.1730  205.7330  152.3640 O   0  0  0  0  0  0  0  0  0  0  0  0
  162.6310  207.3420  150.7930 N   0  0  0  0  0  2  0  0  0  0  0  0
  162.4160  206.6880  152.0480 C   0  0  0  0  0  0  0  0  0  0  0  0
  160.8370  208.4590  152.9570 C   0  0  0  0  0  2  0  0  0  0  0  0
  160.3300  211.5570  154.0520 C   0  0  0  0  0  2  0  0  0  0  0  0
  160.1470  210.8640  156.4290 C   0  0  0  0  0  2  0  0  0  0  0  0
  160.0980  209.3440  156.3600 C   0  0  0  0  0  2  0  0  0  0  0  0
  161.0850  211.4640  155.3710 C   0  0  1  0  0  3  0  0  0  0  0  0
  161.4610  210.5590  154.1860 C   0  0  1  0  0  3  0  0  0  0  0  0
  160.9850  209.0950  154.3330 C   0  0  1  0  0  3  0  0  0  0  0  0
  159.7850  208.9680  155.0520 O   0  0  0  0  0  0  0  0  0  0  0  0
  161.1300  205.2430  147.8170 C   0  0  2  0  0  3  0  0  0  0  0  0
  161.0270  203.8780  148.4380 C   0  0  0  0  0  0  0  0  0  0  0  0
  160.3650  204.8640  150.5530 O   0  0  0  0  0  1  0  0  0  0  0  0
  161.2020  201.4520  148.2560 C   0  0  0  0  0  0  0  0  0  0  0  0
  160.5610  202.4720  150.3590 C   0  0  0  0  0  3  0  0  0  0  0  0
  161.2950  202.7280  147.6820 C   0  0  0  0  0  3  0  0  0  0  0  0
  160.8290  201.3330  149.5970 C   0  0  0  0  0  3  0  0  0  0  0  0
  160.6570  203.7420  149.7830 C   0  0  0  0  0  0  0  0  0  0  0  0
  160.3760  200.7750  145.5150 O   0  0  0  0  0  0  0  0  0  0  0  0
  161.0590  199.9550  146.1820 C   0  0  0  0  0  0  0  0  0  0  0  0
  161.4970  200.2620  147.5110 N   0  0  0  0  0  2  0  0  0  0  0  0
  161.4080  198.7340  145.6200 O   0  0  0  0  0  1  0  0  0  0  0  0
  161.7400  205.1440  146.4260 C   0  0  0  0  0  2  0  0  0  0  0  0
  160.7660  205.6390  145.3770 C   0  0  0  0  0  2  0  0  0  0  0  0
  161.2570  205.2890  144.0580 N   0  0  0  0  0  1  0  0  0  0  0  0
  1  2  1  0  0  0  0
  1  3  1  0  0  0  0
  2 18  1  6  0  0  0
  2  3  1  0  0  0  0
  3  4  1  1  0  0  0
  4  8  1  0  0  0  0
  5  6  1  0  0  0  0
  8  9  1  0  0  0  0
  9  7  2  0  0  0  0
  9  5  1  0  0  0  0
 10  5  1  0  0  0  0
 13 12  1  0  0  0  0
 14 11  1  6  0  0  0
 14 12  1  0  0  0  0
 15 11  1  6  0  0  0
 15 16  1  0  0  0  0
 15 14  1  0  0  0  0
 16 10  1  6  0  0  0
 16 17  1  0  0  0  0
 17 13  1  0  0  0  0
 18 30  1  6  0  0  0
 18 19  1  0  0  0  0
 19 25  1  0  0  0  0
 21 24  2  0  0  0  0
 23 21  1  0  0  0  0
 23 19  2  0  0  0  0
 24 22  1  0  0  0  0
 25 22  2  0  0  0  0
 25 20  1  0  0  0  0
 26 27  2  0  0  0  0
 27 28  1  0  0  0  0
 28 21  1  0  0  0  0
 29 27  1  0  0  0  0
 31 30  1  0  0  0  0
 32 31  1  0  0  0  0
M  END
>  <MODEL>
3

>  <REMARK>
 VINA RESULT:      -7.9      2.293      8.631
  Name = 
  9 active torsions:
  status: ('A' for Active; 'I' for Inactive)
    1  A    between atoms: C_1  and  N_17
    2  A    between atoms: C_1  and  C_31
    3  A    between atoms: C_2  and  C_14
    4  A    between atoms: C_3  and  N_5
    5  A    between atoms: C_3  and  C_28
    6  A    between atoms: C_9  and  C_14
    7  A    between atoms: C_10  and  N_30
    8  A    between atoms: C_11  and  C_14
    9  A    between atoms: C_11  and  C_16
                            x       y       z     vdW  Elec       q    Type
                         _______ _______ _______ _____ _____    ______ ____

>  <TORSDO>
F 9

$$$$
=
 OpenBabel11072411523D

 32 35  0  0  1  0  0  0  0  0999 V2000
  162.4240  206.5280  152.5220 C   0  0  0  0  0  2  0  0  0  0  0  0
  161.0980  206.2260  151.8510 C   0  0  1  0  0  3  0  0  0  0  0  0
  161.2380  207.4410  152.7490 C   0  0  1  0  0  3  0  0  0  0  0  0
  160.6000  207.1290  154.0840 C   0  0  0  0  0  2  0  0  0  0  0  0
  160.3250  209.5340  155.9090 N   0  0  0  0  0  0  0  0  0  0  0  0
  159.8040  210.2890  157.0340 C   0  0  0  0  0  1  0  0  0  0  0  0
  161.9410  208.4540  157.2030 O   0  0  0  0  0  0  0  0  0  0  0  0
  161.5250  207.4580  155.1570 N   0  0  0  0  0  2  0  0  0  0  0  0
  161.2820  208.4790  156.1300 C   0  0  0  0  0  0  0  0  0  0  0  0
  159.9370  209.9650  154.5670 C   0  0  0  0  0  2  0  0  0  0  0  0
  159.2030  212.1970  152.2170 C   0  0  0  0  0  2  0  0  0  0  0  0
  157.4350  213.2910  153.5740 C   0  0  0  0  0  2  0  0  0  0  0  0
  157.2670  212.3600  154.7670 C   0  0  0  0  0  2  0  0  0  0  0  0
  158.8980  213.3890  153.1140 C   0  0  1  0  0  3  0  0  0  0  0  0
  159.8470  212.2750  153.5850 C   0  0  1  0  0  3  0  0  0  0  0  0
  159.2240  211.3090  154.6210 C   0  0  1  0  0  3  0  0  0  0  0  0
  157.8420  211.1270  154.4530 O   0  0  0  0  0  0  0  0  0  0  0  0
  161.1300  206.6710  150.3900 C   0  0  2  0  0  3  0  0  0  0  0  0
  161.1520  205.4840  149.4690 C   0  0  0  0  0  0  0  0  0  0  0  0
  160.5580  204.0160  151.3060 O   0  0  0  0  0  1  0  0  0  0  0  0
  161.4700  204.5390  147.2420 C   0  0  0  0  0  0  0  0  0  0  0  0
  160.8940  203.1000  149.1050 C   0  0  0  0  0  3  0  0  0  0  0  0
  161.4470  205.6430  148.1070 C   0  0  0  0  0  3  0  0  0  0  0  0
  161.1870  203.2690  147.7500 C   0  0  0  0  0  3  0  0  0  0  0  0
  160.8740  204.2020  149.9640 C   0  0  0  0  0  0  0  0  0  0  0  0
  160.0780  206.1320  145.1980 O   0  0  0  0  0  1  0  0  0  0  0  0
  161.0800  205.4420  144.8770 C   0  0  0  0  0  0  0  0  0  0  0  0
  161.7950  204.6720  145.8510 N   0  0  0  0  0  2  0  0  0  0  0  0
  161.5130  205.4320  143.5580 O   0  0  0  0  0  0  0  0  0  0  0  0
  162.3300  207.5690  150.1210 C   0  0  0  0  0  2  0  0  0  0  0  0
  161.8930  208.8700  149.4820 C   0  0  0  0  0  2  0  0  0  0  0  0
  162.1030  209.9610  150.4140 N   0  0  0  0  0  1  0  0  0  0  0  0
  1  3  1  0  0  0  0
  2 18  1  6  0  0  0
  2  1  1  0  0  0  0
  2  3  1  0  0  0  0
  3  4  1  1  0  0  0
  4  8  1  0  0  0  0
  5  9  1  0  0  0  0
  5  6  1  0  0  0  0
  8  9  1  0  0  0  0
  9  7  2  0  0  0  0
 10  5  1  0  0  0  0
 12 13  1  0  0  0  0
 14 11  1  6  0  0  0
 14 12  1  0  0  0  0
 14 15  1  0  0  0  0
 15 11  1  6  0  0  0
 15 16  1  0  0  0  0
 16 10  1  6  0  0  0
 17 16  1  0  0  0  0
 17 13  1  0  0  0  0
 18 30  1  1  0  0  0
 19 25  1  0  0  0  0
 19 18  1  0  0  0  0
 21 24  2  0  0  0  0
 21 23  1  0  0  0  0
 22 25  2  0  0  0  0
 23 19  2  0  0  0  0
 24 22  1  0  0  0  0
 25 20  1  0  0  0  0
 27 26  1  0  0  0  0
 27 28  1  0  0  0  0
 28 21  1  0  0  0  0
 29 27  2  0  0  0  0
 31 30  1  0  0  0  0
 31 32  1  0  0  0  0
M  END
>  <MODEL>
4

>  <REMARK>
 VINA RESULT:      -7.8      2.151      9.091
  Name = 
  9 active torsions:
  status: ('A' for Active; 'I' for Inactive)
    1  A    between atoms: C_1  and  N_17
    2  A    between atoms: C_1  and  C_31
    3  A    between atoms: C_2  and  C_14
    4  A    between atoms: C_3  and  N_5
    5  A    between atoms: C_3  and  C_28
    6  A    between atoms: C_9  and  C_14
    7  A    between atoms: C_10  and  N_30
    8  A    between atoms: C_11  and  C_14
    9  A    between atoms: C_11  and  C_16
                            x       y       z     vdW  Elec       q    Type
                         _______ _______ _______ _____ _____    ______ ____

>  <TORSDO>
F 9

$$$$
=
 OpenBabel11072411523D

 32 35  0  0  1  0  0  0  0  0999 V2000
  160.1800  205.2030  150.1700 C   0  0  0  0  0  2  0  0  0  0  0  0
  160.9940  205.5560  151.4000 C   0  0  1  0  0  3  0  0  0  0  0  0
  161.5830  204.6560  150.3310 C   0  0  1  0  0  3  0  0  0  0  0  0
  161.5210  203.2250  150.8180 C   0  0  0  0  0  2  0  0  0  0  0  0
  161.0560  201.5740  148.3190 N   0  0  0  0  0  0  0  0  0  0  0  0
  161.0830  200.3760  147.5000 C   0  0  0  0  0  1  0  0  0  0  0  0
  159.0450  200.9890  149.3520 O   0  0  0  0  0  0  0  0  0  0  0  0
  160.2450  202.6370  150.4470 N   0  0  0  0  0  2  0  0  0  0  0  0
  160.0820  201.7030  149.3730 C   0  0  0  0  0  0  0  0  0  0  0  0
  161.9560  202.6650  147.9530 C   0  0  0  0  0  2  0  0  0  0  0  0
  163.1630  205.0780  146.0110 C   0  0  0  0  0  2  0  0  0  0  0  0
  161.2300  205.0190  144.4530 C   0  0  0  0  0  2  0  0  0  0  0  0
  160.4560  203.7820  144.8850 C   0  0  0  0  0  2  0  0  0  0  0  0
  161.8520  205.7620  145.6460 C   0  0  1  0  0  3  0  0  0  0  0  0
  161.9870  204.9720  146.9590 C   0  0  1  0  0  3  0  0  0  0  0  0
  161.2950  203.5890  146.9390 C   0  0  1  0  0  3  0  0  0  0  0  0
  161.2920  202.9860  145.6710 O   0  0  0  0  0  0  0  0  0  0  0  0
  161.5830  206.9580  151.2610 C   0  0  2  0  0  3  0  0  0  0  0  0
  161.2530  207.8000  152.4620 C   0  0  0  0  0  0  0  0  0  0  0  0
  161.3740  205.8460  153.8950 O   0  0  0  0  0  1  0  0  0  0  0  0
  160.7370  209.9710  153.4470 C   0  0  0  0  0  0  0  0  0  0  0  0
  160.8480  207.9950  154.8450 C   0  0  0  0  0  3  0  0  0  0  0  0
  161.0460  209.1810  152.3300 C   0  0  0  0  0  3  0  0  0  0  0  0
  160.6440  209.3700  154.7040 C   0  0  0  0  0  3  0  0  0  0  0  0
  161.1540  207.2100  153.7300 C   0  0  0  0  0  0  0  0  0  0  0  0
  158.2190  211.3280  152.7600 O   0  0  0  0  0  0  0  0  0  0  0  0
  159.2560  212.0070  152.9760 C   0  0  0  0  0  0  0  0  0  0  0  0
  160.4940  211.3810  153.3340 N   0  0  0  0  0  2  0  0  0  0  0  0
  159.2020  213.3910  152.8770 O   0  0  0  0  0  1  0  0  0  0  0  0
  161.0850  207.6340  149.9920 C   0  0  0  0  0  2  0  0  0  0  0  0
  162.2470  208.0780  149.1280 C   0  0  0  0  0  2  0  0  0  0  0  0
  161.9990  209.4190  148.6360 N   0  0  0  0  0  1  0  0  0  0  0  0
  1  3  1  0  0  0  0
  1  2  1  0  0  0  0
  2 18  1  6  0  0  0
  3  4  1  1  0  0  0
  3  2  1  0  0  0  0
  5  9  1  0  0  0  0
  6  5  1  0  0  0  0
  7  9  2  0  0  0  0
  8  4  1  0  0  0  0
  9  8  1  0  0  0  0
 10  5  1  0  0  0  0
 12 13  1  0  0  0  0
 13 17  1  0  0  0  0
 14 12  1  6  0  0  0
 14 11  1  0  0  0  0
 14 15  1  0  0  0  0
 15 11  1  6  0  0  0
 16 15  1  0  0  0  0
 16 10  1  1  0  0  0
 17 16  1  0  0  0  0
 18 30  1  6  0  0  0
 18 19  1  0  0  0  0
 19 25  1  0  0  0  0
 21 24  2  0  0  0  0
 23 19  2  0  0  0  0
 23 21  1  0  0  0  0
 24 22  1  0  0  0  0
 25 20  1  0  0  0  0
 25 22  2  0  0  0  0
 26 27  2  0  0  0  0
 27 28  1  0  0  0  0
 28 21  1  0  0  0  0
 29 27  1  0  0  0  0
 31 30  1  0  0  0  0
 32 31  1  0  0  0  0
M  END
>  <MODEL>
5

>  <REMARK>
 VINA RESULT:      -7.7      2.329      3.965
  Name = 
  9 active torsions:
  status: ('A' for Active; 'I' for Inactive)
    1  A    between atoms: C_1  and  N_17
    2  A    between atoms: C_1  and  C_31
    3  A    between atoms: C_2  and  C_14
    4  A    between atoms: C_3  and  N_5
    5  A    between atoms: C_3  and  C_28
    6  A    between atoms: C_9  and  C_14
    7  A    between atoms: C_10  and  N_30
    8  A    between atoms: C_11  and  C_14
    9  A    between atoms: C_11  and  C_16
                            x       y       z     vdW  Elec       q    Type
                         _______ _______ _______ _____ _____    ______ ____

>  <TORSDO>
F 9

$$$$
=
 OpenBabel11072411523D

 32 35  0  0  1  0  0  0  0  0999 V2000
  162.0720  204.9820  152.7470 C   0  0  0  0  0  2  0  0  0  0  0  0
  161.5790  206.1180  151.8720 C   0  0  1  0  0  3  0  0  0  0  0  0
  160.8260  204.8030  151.9070 C   0  0  1  0  0  3  0  0  0  0  0  0
  161.1600  204.0230  150.6550 C   0  0  0  0  0  2  0  0  0  0  0  0
  161.2060  201.9760  148.4200 N   0  0  0  0  0  0  0  0  0  0  0  0
  161.5000  200.6940  147.8050 C   0  0  0  0  0  1  0  0  0  0  0  0
  159.2200  201.2130  149.3830 O   0  0  0  0  0  0  0  0  0  0  0  0
  160.0340  203.1790  150.2890 N   0  0  0  0  0  2  0  0  0  0  0  0
  160.1250  202.0880  149.3670 C   0  0  0  0  0  0  0  0  0  0  0  0
  161.9560  203.1390  147.9530 C   0  0  0  0  0  2  0  0  0  0  0  0
  162.0030  206.3140  146.9720 C   0  0  0  0  0  2  0  0  0  0  0  0
  160.9330  205.8270  144.7840 C   0  0  0  0  0  2  0  0  0  0  0  0
  160.9320  204.3060  144.7140 C   0  0  0  0  0  2  0  0  0  0  0  0
  160.6840  206.3430  146.2100 C   0  0  1  0  0  3  0  0  0  0  0  0
  160.9080  205.3420  147.3570 C   0  0  1  0  0  3  0  0  0  0  0  0
  161.1710  203.8920  146.8880 C   0  0  1  0  0  3  0  0  0  0  0  0
  161.8390  203.8170  145.6560 O   0  0  0  0  0  0  0  0  0  0  0  0
  160.8340  207.1510  152.7150 C   0  0  2  0  0  3  0  0  0  0  0  0
  161.0260  208.5350  152.1630 C   0  0  0  0  0  0  0  0  0  0  0  0
  162.3410  207.6460  150.3280 O   0  0  0  0  0  1  0  0  0  0  0  0
  160.6330  210.9390  152.2920 C   0  0  0  0  0  0  0  0  0  0  0  0
  161.9560  210.0180  150.4840 C   0  0  0  0  0  3  0  0  0  0  0  0
  160.4550  209.6450  152.8030 C   0  0  0  0  0  3  0  0  0  0  0  0
  161.3830  211.1160  151.1280 C   0  0  0  0  0  3  0  0  0  0  0  0
  161.7790  208.7290  150.9970 C   0  0  0  0  0  0  0  0  0  0  0  0
  158.3430  212.5800  151.4450 O   0  0  0  0  0  0  0  0  0  0  0  0
  158.9760  212.8830  152.4890 C   0  0  0  0  0  0  0  0  0  0  0  0
  160.0820  212.0930  152.9430 N   0  0  0  0  0  2  0  0  0  0  0  0
  158.5930  213.9960  153.2260 O   0  0  0  0  0  1  0  0  0  0  0  0
  161.2860  207.0960  154.1680 C   0  0  0  0  0  2  0  0  0  0  0  0
  160.0960  206.9540  155.0950 C   0  0  0  0  0  2  0  0  0  0  0  0
  160.1870  207.9430  156.1510 N   0  0  0  0  0  1  0  0  0  0  0  0
  2  3  1  0  0  0  0
  2 18  1  1  0  0  0
  2  1  1  0  0  0  0
  3  4  1  6  0  0  0
  3  1  1  0  0  0  0
  5  9  1  0  0  0  0
  6  5  1  0  0  0  0
  8  4  1  0  0  0  0
  9  7  2  0  0  0  0
  9  8  1  0  0  0  0
 10  5  1  0  0  0  0
 13 12  1  0  0  0  0
 13 17  1  0  0  0  0
 14 12  1  6  0  0  0
 14 11  1  0  0  0  0
 14 15  1  0  0  0  0
 15 11  1  6  0  0  0
 16 15  1  0  0  0  0
 16 10  1  1  0  0  0
 17 16  1  0  0  0  0
 18 30  1  1  0  0  0
 19 18  1  0  0  0  0
 19 23  1  0  0  0  0
 20 25  1  0  0  0  0
 21 23  2  0  0  0  0
 21 28  1  0  0  0  0
 22 25  1  0  0  0  0
 22 24  2  0  0  0  0
 24 21  1  0  0  0  0
 25 19  2  0  0  0  0
 26 27  2  0  0  0  0
 27 28  1  0  0  0  0
 27 29  1  0  0  0  0
 30 31  1  0  0  0  0
 31 32  1  0  0  0  0
M  END
>  <MODEL>
6

>  <REMARK>
 VINA RESULT:      -7.5      2.403      4.673
  Name = 
  9 active torsions:
  status: ('A' for Active; 'I' for Inactive)
    1  A    between atoms: C_1  and  N_17
    2  A    between atoms: C_1  and  C_31
    3  A    between atoms: C_2  and  C_14
    4  A    between atoms: C_3  and  N_5
    5  A    between atoms: C_3  and  C_28
    6  A    between atoms: C_9  and  C_14
    7  A    between atoms: C_10  and  N_30
    8  A    between atoms: C_11  and  C_14
    9  A    between atoms: C_11  and  C_16
                            x       y       z     vdW  Elec       q    Type
                         _______ _______ _______ _____ _____    ______ ____

>  <TORSDO>
F 9

$$$$
=
 OpenBabel11072411523D

 32 35  0  0  1  0  0  0  0  0999 V2000
  160.5380  207.3700  151.3600 C   0  0  0  0  0  2  0  0  0  0  0  0
  161.1800  207.1170  150.0100 C   0  0  1  0  0  3  0  0  0  0  0  0
  161.9750  207.7810  151.1170 C   0  0  1  0  0  3  0  0  0  0  0  0
  162.0430  209.2660  150.8380 C   0  0  0  0  0  2  0  0  0  0  0  0
  160.7060  211.9850  150.9170 N   0  0  0  0  0  0  0  0  0  0  0  0
  159.5890  212.9120  150.8890 C   0  0  0  0  0  1  0  0  0  0  0  0
  160.4670  211.5520  153.1990 O   0  0  0  0  0  0  0  0  0  0  0  0
  161.7540  210.0060  152.0560 N   0  0  0  0  0  2  0  0  0  0  0  0
  160.9530  211.1920  152.0950 C   0  0  0  0  0  0  0  0  0  0  0  0
  161.6140  211.9850  149.7730 C   0  0  0  0  0  2  0  0  0  0  0  0
  162.9610  213.6970  147.2620 C   0  0  0  0  0  2  0  0  0  0  0  0
  160.9230  213.5500  145.8500 C   0  0  0  0  0  2  0  0  0  0  0  0
  160.0360  212.5650  146.5980 C   0  0  0  0  0  2  0  0  0  0  0  0
  161.7210  214.4530  146.8040 C   0  0  1  0  0  3  0  0  0  0  0  0
  161.8560  213.9750  148.2590 C   0  0  1  0  0  3  0  0  0  0  0  0
  160.9980  212.7340  148.5990 C   0  0  1  0  0  3  0  0  0  0  0  0
  160.8240  211.8620  147.5120 O   0  0  0  0  0  0  0  0  0  0  0  0
  161.6030  205.6550  149.8900 C   0  0  2  0  0  3  0  0  0  0  0  0
  161.7500  205.2540  148.4490 C   0  0  0  0  0  0  0  0  0  0  0  0
  162.5820  207.4650  147.8950 O   0  0  0  0  0  1  0  0  0  0  0  0
  161.5540  203.5790  146.6880 C   0  0  0  0  0  0  0  0  0  0  0  0
  162.3630  205.8030  146.1670 C   0  0  0  0  0  3  0  0  0  0  0  0
  161.4190  203.9570  148.0310 C   0  0  0  0  0  3  0  0  0  0  0  0
  162.0320  204.5080  145.7610 C   0  0  0  0  0  3  0  0  0  0  0  0
  162.2260  206.1770  147.5070 C   0  0  0  0  0  0  0  0  0  0  0  0
  159.7110  202.8570  144.5110 O   0  0  0  0  0  0  0  0  0  0  0  0
  160.2760  201.9510  145.1780 C   0  0  0  0  0  0  0  0  0  0  0  0
  161.1960  202.2670  146.2300 N   0  0  0  0  0  2  0  0  0  0  0  0
  160.0150  200.6190  144.8850 O   0  0  0  0  0  1  0  0  0  0  0  0
  160.6070  204.7410  150.5910 C   0  0  0  0  0  2  0  0  0  0  0  0
  161.2800  203.9680  151.7060 C   0  0  0  0  0  2  0  0  0  0  0  0
  161.4010  202.5750  151.3240 N   0  0  0  0  0  1  0  0  0  0  0  0
  2 18  1  1  0  0  0
  2  3  1  0  0  0  0
  2  1  1  0  0  0  0
  3  4  1  6  0  0  0
  3  1  1  0  0  0  0
  4  8  1  0  0  0  0
  5  9  1  0  0  0  0
  6  5  1  0  0  0  0
  8  9  1  0  0  0  0
  9  7  2  0  0  0  0
 10  5  1  0  0  0  0
 12 13  1  0  0  0  0
 13 17  1  0  0  0  0
 14 12  1  6  0  0  0
 14 11  1  0  0  0  0
 14 15  1  0  0  0  0
 15 11  1  6  0  0  0
 15 16  1  0  0  0  0
 16 10  1  1  0  0  0
 17 16  1  0  0  0  0
 18 30  1  6  0  0  0
 19 18  1  0  0  0  0
 21 23  2  0  0  0  0
 22 25  1  0  0  0  0
 23 19  1  0  0  0  0
 24 22  2  0  0  0  0
 24 21  1  0  0  0  0
 25 20  1  0  0  0  0
 25 19  2  0  0  0  0
 26 27  2  0  0  0  0
 27 28  1  0  0  0  0
 28 21  1  0  0  0  0
 29 27  1  0  0  0  0
 30 31  1  0  0  0  0
 32 31  1  0  0  0  0
M  END
>  <MODEL>
7

>  <REMARK>
 VINA RESULT:      -7.5      3.214      9.280
  Name = 
  9 active torsions:
  status: ('A' for Active; 'I' for Inactive)
    1  A    between atoms: C_1  and  N_17
    2  A    between atoms: C_1  and  C_31
    3  A    between atoms: C_2  and  C_14
    4  A    between atoms: C_3  and  N_5
    5  A    between atoms: C_3  and  C_28
    6  A    between atoms: C_9  and  C_14
    7  A    between atoms: C_10  and  N_30
    8  A    between atoms: C_11  and  C_14
    9  A    between atoms: C_11  and  C_16
                            x       y       z     vdW  Elec       q    Type
                         _______ _______ _______ _____ _____    ______ ____

>  <TORSDO>
F 9

$$$$
=
 OpenBabel11072411523D

 32 35  0  0  1  0  0  0  0  0999 V2000
  161.9360  209.5690  152.2280 C   0  0  0  0  0  2  0  0  0  0  0  0
  160.9950  208.3800  152.2420 C   0  0  1  0  0  3  0  0  0  0  0  0
  160.4570  209.7730  151.9790 C   0  0  1  0  0  3  0  0  0  0  0  0
  159.7900  210.2780  153.2390 C   0  0  0  0  0  2  0  0  0  0  0  0
  158.8430  212.3040  155.2850 N   0  0  0  0  0  0  0  0  0  0  0  0
  158.9620  213.4560  156.1600 C   0  0  0  0  0  1  0  0  0  0  0  0
  158.3060  213.6010  153.4200 O   0  0  0  0  0  0  0  0  0  0  0  0
  158.9770  211.4430  152.9290 N   0  0  0  0  0  2  0  0  0  0  0  0
  158.7000  212.4910  153.8640 C   0  0  0  0  0  0  0  0  0  0  0  0
  158.7530  210.9860  155.9100 C   0  0  0  0  0  2  0  0  0  0  0  0
  160.9200  208.4650  155.9070 C   0  0  0  0  0  2  0  0  0  0  0  0
  162.6830  209.7610  157.0830 C   0  0  0  0  0  2  0  0  0  0  0  0
  162.1410  211.1840  157.0890 C   0  0  0  0  0  2  0  0  0  0  0  0
  161.5710  208.7150  157.2610 C   0  0  1  0  0  3  0  0  0  0  0  0
  160.1320  209.1810  156.9840 C   0  0  1  0  0  3  0  0  0  0  0  0
  159.9950  210.7040  156.7460 C   0  0  1  0  0  3  0  0  0  0  0  0
  161.1230  211.2760  156.1380 O   0  0  0  0  0  0  0  0  0  0  0  0
  161.0880  207.6160  150.9240 C   0  0  2  0  0  3  0  0  0  0  0  0
  161.0630  206.1320  151.1600 C   0  0  0  0  0  0  0  0  0  0  0  0
  161.4310  206.4800  153.5330 O   0  0  0  0  0  1  0  0  0  0  0  0
  160.8320  203.8570  150.3110 C   0  0  0  0  0  0  0  0  0  0  0  0
  161.2190  204.2410  152.6720 C   0  0  0  0  0  3  0  0  0  0  0  0
  160.8550  205.2420  150.0960 C   0  0  0  0  0  3  0  0  0  0  0  0
  161.0110  203.3640  151.6050 C   0  0  0  0  0  3  0  0  0  0  0  0
  161.2440  205.6220  152.4530 C   0  0  0  0  0  0  0  0  0  0  0  0
  161.9940  203.9540  147.6100 O   0  0  0  0  0  1  0  0  0  0  0  0
  161.2140  203.0160  147.9220 C   0  0  0  0  0  0  0  0  0  0  0  0
  160.6480  202.9260  149.2350 N   0  0  0  0  0  2  0  0  0  0  0  0
  160.9040  202.0410  146.9830 O   0  0  0  0  0  0  0  0  0  0  0  0
  162.3440  208.0050  150.1560 C   0  0  0  0  0  2  0  0  0  0  0  0
  162.0130  208.3280  148.7140 C   0  0  0  0  0  2  0  0  0  0  0  0
  162.6220  207.3400  147.8450 N   0  0  0  0  0  1  0  0  0  0  0  0
  1  2  1  0  0  0  0
  2 18  1  6  0  0  0
  3  1  1  0  0  0  0
  3  2  1  0  0  0  0
  3  4  1  1  0  0  0
  5 10  1  0  0  0  0
  5  6  1  0  0  0  0
  7  9  2  0  0  0  0
  8  4  1  0  0  0  0
  8  9  1  0  0  0  0
  9  5  1  0  0  0  0
 12 13  1  0  0  0  0
 12 14  1  0  0  0  0
 14 11  1  6  0  0  0
 15 11  1  6  0  0  0
 15 14  1  0  0  0  0
 16 10  1  6  0  0  0
 16 15  1  0  0  0  0
 17 16  1  0  0  0  0
 17 13  1  0  0  0  0
 18 30  1  1  0  0  0
 18 19  1  0  0  0  0
 19 25  1  0  0  0  0
 21 24  2  0  0  0  0
 23 21  1  0  0  0  0
 23 19  2  0  0  0  0
 24 22  1  0  0  0  0
 25 22  2  0  0  0  0
 25 20  1  0  0  0  0
 26 27  1  0  0  0  0
 27 28  1  0  0  0  0
 28 21  1  0  0  0  0
 29 27  2  0  0  0  0
 31 30  1  0  0  0  0
 32 31  1  0  0  0  0
M  END
>  <MODEL>
8

>  <REMARK>
 VINA RESULT:      -7.5      2.277      8.606
  Name = 
  9 active torsions:
  status: ('A' for Active; 'I' for Inactive)
    1  A    between atoms: C_1  and  N_17
    2  A    between atoms: C_1  and  C_31
    3  A    between atoms: C_2  and  C_14
    4  A    between atoms: C_3  and  N_5
    5  A    between atoms: C_3  and  C_28
    6  A    between atoms: C_9  and  C_14
    7  A    between atoms: C_10  and  N_30
    8  A    between atoms: C_11  and  C_14
    9  A    between atoms: C_11  and  C_16
                            x       y       z     vdW  Elec       q    Type
                         _______ _______ _______ _____ _____    ______ ____

>  <TORSDO>
F 9

$$$$
=
 OpenBabel11072411523D

 32 35  0  0  1  0  0  0  0  0999 V2000
  162.3010  207.3770  148.9550 C   0  0  0  0  0  2  0  0  0  0  0  0
  161.6150  206.1810  149.5870 C   0  0  1  0  0  3  0  0  0  0  0  0
  160.8940  207.5120  149.4980 C   0  0  1  0  0  3  0  0  0  0  0  0
  160.9300  208.1730  150.8580 C   0  0  0  0  0  2  0  0  0  0  0  0
  161.3750  210.1630  153.1000 N   0  0  0  0  0  0  0  0  0  0  0  0
  161.8150  210.6010  154.4120 C   0  0  0  0  0  1  0  0  0  0  0  0
  163.4960  210.4100  152.1560 O   0  0  0  0  0  0  0  0  0  0  0  0
  162.0370  209.1130  150.9150 N   0  0  0  0  0  2  0  0  0  0  0  0
  162.3450  209.9090  152.0640 C   0  0  0  0  0  0  0  0  0  0  0  0
  159.9370  210.1110  152.8500 C   0  0  0  0  0  2  0  0  0  0  0  0
  158.5720  212.7820  151.4160 C   0  0  0  0  0  2  0  0  0  0  0  0
  157.2190  213.3680  153.4140 C   0  0  0  0  0  2  0  0  0  0  0  0
  157.3890  212.1650  154.3310 C   0  0  0  0  0  2  0  0  0  0  0  0
  158.5040  213.6910  152.6360 C   0  0  1  0  0  3  0  0  0  0  0  0
  159.5580  212.5750  152.5470 C   0  0  1  0  0  3  0  0  0  0  0  0
  159.2480  211.3410  153.4260 C   0  0  1  0  0  3  0  0  0  0  0  0
  157.8740  211.0960  153.5760 O   0  0  0  0  0  0  0  0  0  0  0  0
  161.0830  205.2440  148.5050 C   0  0  2  0  0  3  0  0  0  0  0  0
  161.0370  203.8250  148.9990 C   0  0  0  0  0  0  0  0  0  0  0  0
  160.6160  204.6010  151.2590 O   0  0  0  0  0  1  0  0  0  0  0  0
  161.1710  201.4280  148.5670 C   0  0  0  0  0  0  0  0  0  0  0  0
  160.7710  202.2390  150.8150 C   0  0  0  0  0  3  0  0  0  0  0  0
  161.2120  202.7540  148.1110 C   0  0  0  0  0  3  0  0  0  0  0  0
  160.9450  201.1790  149.9230 C   0  0  0  0  0  3  0  0  0  0  0  0
  160.8140  203.5590  150.3570 C   0  0  0  0  0  0  0  0  0  0  0  0
  160.4680  201.2220  145.7180 O   0  0  0  0  0  1  0  0  0  0  0  0
  160.9990  200.2420  146.3030 C   0  0  0  0  0  0  0  0  0  0  0  0
  161.3750  200.3160  147.6840 N   0  0  0  0  0  2  0  0  0  0  0  0
  161.2390  199.0700  145.5990 O   0  0  0  0  0  0  0  0  0  0  0  0
  161.9290  205.3340  147.2430 C   0  0  0  0  0  2  0  0  0  0  0  0
  161.1010  205.8340  146.0770 C   0  0  0  0  0  2  0  0  0  0  0  0
  160.8310  204.7360  145.1700 N   0  0  0  0  0  1  0  0  0  0  0  0
  1  3  1  0  0  0  0
  1  2  1  0  0  0  0
  2 18  1  6  0  0  0
  3  2  1  0  0  0  0
  3  4  1  1  0  0  0
  4  8  1  0  0  0  0
  5  6  1  0  0  0  0
  8  9  1  0  0  0  0
  9  7  2  0  0  0  0
  9  5  1  0  0  0  0
 10  5  1  0  0  0  0
 12 13  1  0  0  0  0
 14 11  1  6  0  0  0
 14 12  1  0  0  0  0
 15 11  1  6  0  0  0
 15 14  1  0  0  0  0
 15 16  1  0  0  0  0
 16 10  1  6  0  0  0
 16 17  1  0  0  0  0
 17 13  1  0  0  0  0
 18 30  1  6  0  0  0
 18 19  1  0  0  0  0
 19 25  1  0  0  0  0
 21 24  2  0  0  0  0
 23 21  1  0  0  0  0
 23 19  2  0  0  0  0
 24 22  1  0  0  0  0
 25 22  2  0  0  0  0
 25 20  1  0  0  0  0
 26 27  1  0  0  0  0
 27 28  1  0  0  0  0
 28 21  1  0  0  0  0
 29 27  2  0  0  0  0
 31 30  1  0  0  0  0
 32 31  1  0  0  0  0
M  END
>  <MODEL>
9

>  <REMARK>
 VINA RESULT:      -7.4      2.889      9.069
  Name = 
  9 active torsions:
  status: ('A' for Active; 'I' for Inactive)
    1  A    between atoms: C_1  and  N_17
    2  A    between atoms: C_1  and  C_31
    3  A    between atoms: C_2  and  C_14
    4  A    between atoms: C_3  and  N_5
    5  A    between atoms: C_3  and  C_28
    6  A    between atoms: C_9  and  C_14
    7  A    between atoms: C_10  and  N_30
    8  A    between atoms: C_11  and  C_14
    9  A    between atoms: C_11  and  C_16
                            x       y       z     vdW  Elec       q    Type
                         _______ _______ _______ _____ _____    ______ ____

>  <TORSDO>
F 9

$$$$
