=
 OpenBabel11072410253D

 51 55  0  0  1  0  0  0  0  0999 V2000
  160.4570  209.6180  153.5770 C   0  0  1  0  0  3  0  0  0  0  0  0
  160.4640  209.5730  155.1150 C   0  0  1  0  0  3  0  0  0  0  0  0
  159.6860  208.4110  155.7090 C   0  0  0  0  0  1  0  0  0  0  0  0
  161.8480  209.6490  155.6740 C   0  0  0  0  0  0  0  0  0  0  0  0
  162.7280  210.7040  155.3010 N   0  0  0  0  0  1  0  0  0  0  0  0
  162.2330  208.7770  156.4920 O   0  0  0  0  0  0  0  0  0  0  0  0
  158.9740  211.6310  153.5840 C   0  0  0  0  0  0  0  0  0  0  0  0
  159.8230  210.8190  153.0170 N   0  0  0  0  0  0  0  0  0  0  0  0
  158.4600  212.7620  152.7830 C   0  0  0  0  0  0  0  0  0  0  0  0
  157.5210  213.4830  153.2210 O   0  0  0  0  0  0  0  0  0  0  0  0
  159.0250  213.0310  151.4950 N   0  0  0  0  0  2  0  0  0  0  0  0
  158.5140  214.0700  150.6130 C   0  0  0  0  0  2  0  0  0  0  0  0
  159.5260  213.9870  148.4290 N   0  0  0  0  0  0  0  0  0  0  0  0
  158.5670  213.6140  149.1930 C   0  0  0  0  0  3  0  0  0  0  0  0
  159.5960  213.5300  147.0640 C   0  0  0  0  0  2  0  0  0  0  0  0
  161.9650  214.0100  147.0190 O   0  0  0  0  0  0  0  0  0  0  0  0
  162.8960  213.4030  147.8890 C   0  0  0  0  0  2  0  0  0  0  0  0
  162.4020  212.0450  148.2080 C   0  0  0  0  0  3  0  0  0  0  0  0
  161.0640  212.6990  145.3630 O   0  0  0  0  0  1  0  0  0  0  0  0
  161.3030  211.8280  147.5300 C   0  0  0  0  0  3  0  0  0  0  0  0
  160.9960  213.0280  146.7180 C   0  0  2  0  0  0  0  0  0  0  0  0
  158.5580  211.4450  155.0300 C   0  0  1  0  0  3  0  0  0  0  0  0
  160.0760  212.6770  156.2330 C   0  0  0  0  0  1  0  0  0  0  0  0
  158.7330  212.5930  155.8360 O   0  0  0  0  0  0  0  0  0  0  0  0
  157.2330  210.7060  155.2420 C   0  0  0  0  0  2  0  0  0  0  0  0
  156.3830  211.4410  156.2580 C   0  0  0  0  0  1  0  0  0  0  0  0
  161.7990  209.2820  152.9240 C   0  0  0  0  0  2  0  0  0  0  0  0
  160.4320  206.4750  150.3500 C   0  0  0  0  0  2  0  0  0  0  0  0
  161.2080  205.4800  152.6320 C   0  0  0  0  0  2  0  0  0  0  0  0
  160.4560  205.2630  151.3080 C   0  0  2  0  0  3  0  0  0  0  0  0
  162.6460  207.5370  151.2110 C   0  0  0  0  0  2  0  0  0  0  0  0
  161.1780  206.9070  153.1010 C   0  0  0  0  0  3  0  0  0  0  0  0
  161.8080  207.0670  150.0110 C   0  0  0  0  0  2  0  0  0  0  0  0
  161.8400  207.8680  152.4390 C   0  0  0  0  0  0  0  0  0  0  0  0
  161.3480  203.0030  151.6050 O   0  0  0  0  0  0  0  0  0  0  0  0
  160.2220  201.4720  150.1410 C   0  0  1  0  0  3  0  0  0  0  0  0
  160.8450  203.9210  150.6700 C   0  0  2  0  0  0  0  0  0  0  0  0
  160.5960  201.8330  148.7120 C   0  0  0  0  0  2  0  0  0  0  0  0
  161.6740  203.9690  149.3760 C   0  0  0  0  0  2  0  0  0  0  0  0
  161.9000  202.6050  148.7290 C   0  0  2  0  0  3  0  0  0  0  0  0
  160.0780  202.6970  151.0560 C   0  0  2  0  0  3  0  0  0  0  0  0
  158.9540  200.6860  150.1350 C   0  0  0  0  0  3  0  0  0  0  0  0
  158.0930  200.9080  149.2970 O   0  0  0  0  0  0  0  0  0  0  0  0
  162.3750  202.7800  147.3670 N   0  0  0  0  0  2  0  0  0  0  0  0
  162.6850  204.1380  147.2060 N   0  0  0  0  0  2  0  0  0  0  0  0
  160.1190  206.5790  145.8800 C   0  0  0  0  0  2  0  0  0  0  0  0
  160.8820  205.6440  146.7810 C   0  0  0  0  0  3  0  0  0  0  0  0
  162.3030  205.0640  144.8860 C   0  0  0  0  0  3  0  0  0  0  0  0
  161.4520  205.6040  144.0070 C   0  0  0  0  0  3  0  0  0  0  0  0
  161.9400  204.9690  146.3180 C   0  0  0  0  0  0  0  0  0  0  0  0
  160.0810  206.0390  144.4470 C   0  0  0  0  0  2  0  0  0  0  0  0
  1 27  1  1  0  0  0
  1  2  1  0  0  0  0
  2  4  1  0  0  0  0
  2  3  1  6  0  0  0
  4  6  2  0  0  0  0
  5  4  1  0  0  0  0
  7 22  1  0  0  0  0
  8  1  1  0  0  0  0
  8  7  2  0  0  0  0
  9 10  2  0  0  0  0
  9  7  1  0  0  0  0
 11  9  1  0  0  0  0
 12 11  1  0  0  0  0
 13 14  2  0  0  0  0
 14 12  1  0  0  0  0
 15 13  1  0  0  0  0
 16 17  1  0  0  0  0
 17 18  1  0  0  0  0
 20 18  2  0  0  0  0
 21 19  1  6  0  0  0
 21 16  1  0  0  0  0
 21 15  1  0  0  0  0
 21 20  1  0  0  0  0
 22 25  1  6  0  0  0
 22 24  1  0  0  0  0
 24 23  1  0  0  0  0
 25 26  1  0  0  0  0
 29 32  1  0  0  0  0
 30 28  1  6  0  0  0
 30 29  1  0  0  0  0
 31 34  1  0  0  0  0
 33 28  1  0  0  0  0
 33 31  1  0  0  0  0
 34 27  1  0  0  0  0
 34 32  2  0  0  0  0
 36 42  1  6  0  0  0
 36 41  1  0  0  0  0
 37 39  1  6  0  0  0
 37 41  1  0  0  0  0
 37 30  1  0  0  0  0
 37 35  1  0  0  0  0
 38 40  1  0  0  0  0
 38 36  1  0  0  0  0
 40 44  1  6  0  0  0
 40 39  1  0  0  0  0
 41 35  1  1  0  0  0
 43 42  2  0  0  0  0
 45 44  1  0  0  0  0
 46 47  1  0  0  0  0
 48 50  1  0  0  0  0
 49 51  1  0  0  0  0
 49 48  2  0  0  0  0
 50 47  2  0  0  0  0
 50 45  1  0  0  0  0
 51 46  1  0  0  0  0
M  END
>  <MODEL>
1

>  <REMARK>
 VINA RESULT:      -4.8      0.000      0.000
  Name = 
  18 active torsions:
  status: ('A' for Active; 'I' for Inactive)
    1  A    between atoms: C_1  and  C_11
    2  A    between atoms: C_1  and  C_14
    3  A    between atoms: C_1  and  N_33
    4  A    between atoms: N_3  and  N_7
    5  A    between atoms: N_3  and  C_44
    6  A    between atoms: N_7  and  C_35
    7  A    between atoms: C_8  and  C_31
    8  A    between atoms: C_10  and  C_23
    9  A    between atoms: C_11  and  C_48
   10  A    between atoms: C_12  and  C_19
   11  A    between atoms: C_14  and  C_27
   12  A    between atoms: C_18  and  C_50
   13  A    between atoms: C_20  and  C_30
   14  A    between atoms: C_20  and  N_41
   15  A    between atoms: N_29  and  C_37
   16  A    between atoms: C_31  and  C_50
   17  A    between atoms: C_37  and  C_46
   18  A    between atoms: O_42  and  C_50
                            x       y       z     vdW  Elec       q    Type
                         _______ _______ _______ _____ _____    ______ ____

>  <TORSDO>
F 18

$$$$
=
 OpenBabel11072410253D

 51 55  0  0  1  0  0  0  0  0999 V2000
  160.1060  210.5830  156.8530 C   0  0  1  0  0  3  0  0  0  0  0  0
  161.5720  210.3590  157.2610 C   0  0  1  0  0  3  0  0  0  0  0  0
  162.0140  208.9050  157.2330 C   0  0  0  0  0  1  0  0  0  0  0  0
  162.5110  211.2290  156.4890 C   0  0  0  0  0  0  0  0  0  0  0  0
  163.6630  211.7910  157.1110 N   0  0  0  0  0  1  0  0  0  0  0  0
  162.2860  211.4580  155.2750 O   0  0  0  0  0  0  0  0  0  0  0  0
  158.8630  212.3290  155.5660 C   0  0  0  0  0  0  0  0  0  0  0  0
  159.9240  211.6140  155.8240 N   0  0  0  0  0  0  0  0  0  0  0  0
  158.9330  213.2890  154.4440 C   0  0  0  0  0  0  0  0  0  0  0  0
  159.4270  214.4390  154.6150 O   0  0  0  0  0  0  0  0  0  0  0  0
  158.4240  212.9160  153.1590 N   0  0  0  0  0  2  0  0  0  0  0  0
  158.3800  213.8360  152.0330 C   0  0  0  0  0  2  0  0  0  0  0  0
  159.8160  214.2340  150.1400 N   0  0  0  0  0  0  0  0  0  0  0  0
  159.7190  213.9170  151.3790 C   0  0  0  0  0  3  0  0  0  0  0  0
  161.1070  214.3390  149.5100 C   0  0  0  0  0  2  0  0  0  0  0  0
  160.3100  212.8530  147.7780 O   0  0  0  0  0  0  0  0  0  0  0  0
  160.8240  212.8460  146.4640 C   0  0  0  0  0  2  0  0  0  0  0  0
  162.2510  213.2370  146.5320 C   0  0  0  0  0  3  0  0  0  0  0  0
  161.6510  212.0080  149.4380 O   0  0  0  0  0  1  0  0  0  0  0  0
  162.5820  213.3960  147.7890 C   0  0  0  0  0  3  0  0  0  0  0  0
  161.3990  213.1220  148.6360 C   0  0  2  0  0  0  0  0  0  0  0  0
  157.6110  212.2070  156.4130 C   0  0  1  0  0  3  0  0  0  0  0  0
  155.7680  213.5610  156.6180 C   0  0  0  0  0  1  0  0  0  0  0  0
  157.1330  213.4370  156.9190 O   0  0  0  0  0  0  0  0  0  0  0  0
  156.5300  211.2760  155.8570 C   0  0  0  0  0  2  0  0  0  0  0  0
  156.6230  211.2100  154.3470 C   0  0  0  0  0  1  0  0  0  0  0  0
  159.3200  209.3010  156.5720 C   0  0  0  0  0  2  0  0  0  0  0  0
  161.8920  207.0210  154.4380 C   0  0  0  0  0  2  0  0  0  0  0  0
  160.7080  208.8470  153.0010 C   0  0  0  0  0  2  0  0  0  0  0  0
  161.8340  207.8050  153.1070 C   0  0  2  0  0  3  0  0  0  0  0  0
  159.3600  207.2530  154.9920 C   0  0  0  0  0  2  0  0  0  0  0  0
  160.3200  209.4350  154.3280 C   0  0  0  0  0  3  0  0  0  0  0  0
  160.5820  206.3310  154.8460 C   0  0  0  0  0  2  0  0  0  0  0  0
  159.6990  208.6950  155.2580 C   0  0  0  0  0  0  0  0  0  0  0  0
  163.0100  206.0730  151.8400 O   0  0  0  0  0  0  0  0  0  0  0  0
  161.4380  204.7110  150.6460 C   0  0  1  0  0  3  0  0  0  0  0  0
  161.9170  206.9540  151.8320 C   0  0  2  0  0  0  0  0  0  0  0  0
  160.7890  205.5760  149.5770 C   0  0  0  0  0  2  0  0  0  0  0  0
  161.7480  207.6780  150.4870 C   0  0  0  0  0  2  0  0  0  0  0  0
  161.7030  206.7470  149.2780 C   0  0  2  0  0  3  0  0  0  0  0  0
  161.7300  205.4740  151.9460 C   0  0  2  0  0  3  0  0  0  0  0  0
  160.5600  203.5380  150.9290 C   0  0  0  0  0  3  0  0  0  0  0  0
  160.6880  202.5020  150.2940 O   0  0  0  0  0  0  0  0  0  0  0  0
  161.1990  207.4690  148.1210 N   0  0  0  0  0  2  0  0  0  0  0  0
  160.4930  206.5500  147.3320 N   0  0  0  0  0  2  0  0  0  0  0  0
  163.0740  204.5200  145.4560 C   0  0  0  0  0  2  0  0  0  0  0  0
  162.3910  205.3650  146.4980 C   0  0  0  0  0  3  0  0  0  0  0  0
  160.4650  205.5420  145.0140 C   0  0  0  0  0  3  0  0  0  0  0  0
  161.1610  205.1010  143.9610 C   0  0  0  0  0  3  0  0  0  0  0  0
  161.1430  205.8040  146.3030 C   0  0  0  0  0  0  0  0  0  0  0  0
  162.6550  204.9520  144.0480 C   0  0  0  0  0  2  0  0  0  0  0  0
  1 27  1  6  0  0  0
  1  2  1  0  0  0  0
  2  3  1  6  0  0  0
  4  5  1  0  0  0  0
  4  2  1  0  0  0  0
  6  4  2  0  0  0  0
  7  8  2  0  0  0  0
  7 22  1  0  0  0  0
  8  1  1  0  0  0  0
  9 10  2  0  0  0  0
  9  7  1  0  0  0  0
 11  9  1  0  0  0  0
 12 11  1  0  0  0  0
 13 14  2  0  0  0  0
 14 12  1  0  0  0  0
 15 13  1  0  0  0  0
 16 21  1  0  0  0  0
 17 18  1  0  0  0  0
 17 16  1  0  0  0  0
 18 20  2  0  0  0  0
 20 21  1  0  0  0  0
 21 19  1  1  0  0  0
 21 15  1  0  0  0  0
 22 25  1  6  0  0  0
 22 24  1  0  0  0  0
 23 24  1  0  0  0  0
 26 25  1  0  0  0  0
 28 33  1  0  0  0  0
 29 32  1  0  0  0  0
 30 29  1  6  0  0  0
 30 28  1  0  0  0  0
 31 34  1  0  0  0  0
 32 34  2  0  0  0  0
 33 31  1  0  0  0  0
 34 27  1  0  0  0  0
 36 42  1  1  0  0  0
 36 41  1  0  0  0  0
 37 39  1  6  0  0  0
 37 35  1  0  0  0  0
 37 41  1  0  0  0  0
 37 30  1  0  0  0  0
 38 36  1  0  0  0  0
 40 44  1  6  0  0  0
 40 38  1  0  0  0  0
 40 39  1  0  0  0  0
 41 35  1  6  0  0  0
 43 42  2  0  0  0  0
 45 44  1  0  0  0  0
 46 47  1  0  0  0  0
 48 50  1  0  0  0  0
 49 51  1  0  0  0  0
 49 48  2  0  0  0  0
 50 47  2  0  0  0  0
 50 45  1  0  0  0  0
 51 46  1  0  0  0  0
M  END
>  <MODEL>
2

>  <REMARK>
 VINA RESULT:      -3.7      1.814      3.059
  Name = 
  18 active torsions:
  status: ('A' for Active; 'I' for Inactive)
    1  A    between atoms: C_1  and  C_11
    2  A    between atoms: C_1  and  C_14
    3  A    between atoms: C_1  and  N_33
    4  A    between atoms: N_3  and  N_7
    5  A    between atoms: N_3  and  C_44
    6  A    between atoms: N_7  and  C_35
    7  A    between atoms: C_8  and  C_31
    8  A    between atoms: C_10  and  C_23
    9  A    between atoms: C_11  and  C_48
   10  A    between atoms: C_12  and  C_19
   11  A    between atoms: C_14  and  C_27
   12  A    between atoms: C_18  and  C_50
   13  A    between atoms: C_20  and  C_30
   14  A    between atoms: C_20  and  N_41
   15  A    between atoms: N_29  and  C_37
   16  A    between atoms: C_31  and  C_50
   17  A    between atoms: C_37  and  C_46
   18  A    between atoms: O_42  and  C_50
                            x       y       z     vdW  Elec       q    Type
                         _______ _______ _______ _____ _____    ______ ____

>  <TORSDO>
F 18

$$$$
=
 OpenBabel11072410253D

 51 55  0  0  1  0  0  0  0  0999 V2000
  161.7800  205.6380  149.4650 C   0  0  1  0  0  3  0  0  0  0  0  0
  160.6890  205.0760  150.3930 C   0  0  1  0  0  3  0  0  0  0  0  0
  159.3080  205.0070  149.7640 C   0  0  0  0  0  1  0  0  0  0  0  0
  161.0820  203.7650  150.9930 C   0  0  0  0  0  0  0  0  0  0  0  0
  160.5810  202.5410  150.4640 N   0  0  0  0  0  1  0  0  0  0  0  0
  161.8730  203.7430  151.9680 O   0  0  0  0  0  0  0  0  0  0  0  0
  161.2800  205.0950  147.0770 C   0  0  0  0  0  0  0  0  0  0  0  0
  161.3200  205.9070  148.0970 N   0  0  0  0  0  0  0  0  0  0  0  0
  160.7930  205.6290  145.7870 C   0  0  0  0  0  0  0  0  0  0  0  0
  159.9190  206.5400  145.7600 O   0  0  0  0  0  0  0  0  0  0  0  0
  161.3090  205.0990  144.5610 N   0  0  0  0  0  2  0  0  0  0  0  0
  160.8160  205.5120  143.2560 C   0  0  0  0  0  2  0  0  0  0  0  0
  161.7930  206.3230  141.2090 N   0  0  0  0  0  0  0  0  0  0  0  0
  161.9070  206.1690  142.4770 C   0  0  0  0  0  3  0  0  0  0  0  0
  162.8310  206.9800  140.4550 C   0  0  0  0  0  2  0  0  0  0  0  0
  160.8360  207.9360  139.4790 O   0  0  0  0  0  0  0  0  0  0  0  0
  160.4860  209.2960  139.6090 C   0  0  0  0  0  2  0  0  0  0  0  0
  161.7370  210.0820  139.7030 C   0  0  0  0  0  3  0  0  0  0  0  0
  162.6110  207.4320  138.1130 O   0  0  0  0  0  1  0  0  0  0  0  0
  162.7540  209.2680  139.5700 C   0  0  0  0  0  3  0  0  0  0  0  0
  162.2440  207.8900  139.3790 C   0  0  2  0  0  0  0  0  0  0  0  0
  161.6810  203.6390  147.2180 C   0  0  1  0  0  3  0  0  0  0  0  0
  161.0850  201.4220  147.2520 C   0  0  0  0  0  1  0  0  0  0  0  0
  160.5930  202.7370  147.2230 O   0  0  0  0  0  0  0  0  0  0  0  0
  162.8750  203.2020  146.3660 C   0  0  0  0  0  2  0  0  0  0  0  0
  163.8760  204.3320  146.2510 C   0  0  0  0  0  1  0  0  0  0  0  0
  162.5990  206.7840  150.0650 C   0  0  0  0  0  2  0  0  0  0  0  0
  162.3760  209.9690  152.5500 C   0  0  0  0  0  2  0  0  0  0  0  0
  160.7380  208.0460  153.2000 C   0  0  0  0  0  2  0  0  0  0  0  0
  161.4230  209.3620  153.6050 C   0  0  2  0  0  3  0  0  0  0  0  0
  161.1920  208.9130  150.4860 C   0  0  0  0  0  2  0  0  0  0  0  0
  161.5610  207.2200  152.2530 C   0  0  0  0  0  3  0  0  0  0  0  0
  161.7620  210.1740  151.1570 C   0  0  0  0  0  2  0  0  0  0  0  0
  161.7790  207.6230  150.9930 C   0  0  0  0  0  0  0  0  0  0  0  0
  159.6940  209.7710  155.2890 O   0  0  0  0  0  0  0  0  0  0  0  0
  159.8430  212.0250  156.0960 C   0  0  1  0  0  3  0  0  0  0  0  0
  160.4130  210.3390  154.2250 C   0  0  2  0  0  0  0  0  0  0  0  0
  159.4730  212.9560  154.9520 C   0  0  0  0  0  2  0  0  0  0  0  0
  159.5190  211.1370  153.2620 C   0  0  0  0  0  2  0  0  0  0  0  0
  158.6440  212.1840  153.9450 C   0  0  2  0  0  3  0  0  0  0  0  0
  160.6230  210.7830  155.6380 C   0  0  2  0  0  3  0  0  0  0  0  0
  160.6370  212.7810  157.1080 C   0  0  0  0  0  3  0  0  0  0  0  0
  160.4650  213.9810  157.2590 O   0  0  0  0  0  0  0  0  0  0  0  0
  158.1130  213.1030  152.9520 N   0  0  0  0  0  2  0  0  0  0  0  0
  159.0140  213.1220  151.8780 N   0  0  0  0  0  2  0  0  0  0  0  0
  156.7910  213.8440  148.9060 C   0  0  0  0  0  2  0  0  0  0  0  0
  157.2750  213.4530  150.2770 C   0  0  0  0  0  3  0  0  0  0  0  0
  159.5650  213.7040  149.4820 C   0  0  0  0  0  3  0  0  0  0  0  0
  159.1820  213.7140  148.2010 C   0  0  0  0  0  3  0  0  0  0  0  0
  158.5820  213.4340  150.5550 C   0  0  0  0  0  0  0  0  0  0  0  0
  157.7670  213.3630  147.8290 C   0  0  0  0  0  2  0  0  0  0  0  0
  1 27  1  1  0  0  0
  1  2  1  0  0  0  0
  2  3  1  6  0  0  0
  2  4  1  0  0  0  0
  4  6  2  0  0  0  0
  5  4  1  0  0  0  0
  7 22  1  0  0  0  0
  7  8  2  0  0  0  0
  8  1  1  0  0  0  0
  9  7  1  0  0  0  0
 10  9  2  0  0  0  0
 11  9  1  0  0  0  0
 12 11  1  0  0  0  0
 13 14  2  0  0  0  0
 14 12  1  0  0  0  0
 15 13  1  0  0  0  0
 16 17  1  0  0  0  0
 17 18  1  0  0  0  0
 20 18  2  0  0  0  0
 21 19  1  6  0  0  0
 21 16  1  0  0  0  0
 21 20  1  0  0  0  0
 21 15  1  0  0  0  0
 22 25  1  6  0  0  0
 22 24  1  0  0  0  0
 24 23  1  0  0  0  0
 26 25  1  0  0  0  0
 27 34  1  0  0  0  0
 29 30  1  0  0  0  0
 30 28  1  6  0  0  0
 30 37  1  0  0  0  0
 31 34  1  0  0  0  0
 31 33  1  0  0  0  0
 32 29  1  0  0  0  0
 33 28  1  0  0  0  0
 34 32  2  0  0  0  0
 36 42  1  1  0  0  0
 37 39  1  6  0  0  0
 37 35  1  0  0  0  0
 37 41  1  0  0  0  0
 38 36  1  0  0  0  0
 39 40  1  0  0  0  0
 40 44  1  6  0  0  0
 40 38  1  0  0  0  0
 41 35  1  1  0  0  0
 41 36  1  0  0  0  0
 42 43  2  0  0  0  0
 45 44  1  0  0  0  0
 46 47  1  0  0  0  0
 47 50  2  0  0  0  0
 48 50  1  0  0  0  0
 49 48  2  0  0  0  0
 50 45  1  0  0  0  0
 51 49  1  0  0  0  0
 51 46  1  0  0  0  0
M  END
>  <MODEL>
3

>  <REMARK>
 VINA RESULT:      -3.5      3.105      9.569
  Name = 
  18 active torsions:
  status: ('A' for Active; 'I' for Inactive)
    1  A    between atoms: C_1  and  C_11
    2  A    between atoms: C_1  and  C_14
    3  A    between atoms: C_1  and  N_33
    4  A    between atoms: N_3  and  N_7
    5  A    between atoms: N_3  and  C_44
    6  A    between atoms: N_7  and  C_35
    7  A    between atoms: C_8  and  C_31
    8  A    between atoms: C_10  and  C_23
    9  A    between atoms: C_11  and  C_48
   10  A    between atoms: C_12  and  C_19
   11  A    between atoms: C_14  and  C_27
   12  A    between atoms: C_18  and  C_50
   13  A    between atoms: C_20  and  C_30
   14  A    between atoms: C_20  and  N_41
   15  A    between atoms: N_29  and  C_37
   16  A    between atoms: C_31  and  C_50
   17  A    between atoms: C_37  and  C_46
   18  A    between atoms: O_42  and  C_50
                            x       y       z     vdW  Elec       q    Type
                         _______ _______ _______ _____ _____    ______ ____

>  <TORSDO>
F 18

$$$$
=
 OpenBabel11072410253D

 51 55  0  0  1  0  0  0  0  0999 V2000
  161.9730  206.4930  149.0200 C   0  0  1  0  0  3  0  0  0  0  0  0
  160.9500  206.1510  150.1170 C   0  0  1  0  0  3  0  0  0  0  0  0
  160.1330  204.8990  149.8430 C   0  0  0  0  0  1  0  0  0  0  0  0
  161.5730  206.1100  151.4750 C   0  0  0  0  0  0  0  0  0  0  0  0
  161.0240  206.8640  152.5520 N   0  0  0  0  0  1  0  0  0  0  0  0
  162.5850  205.3930  151.6710 O   0  0  0  0  0  0  0  0  0  0  0  0
  161.3950  205.4740  146.8120 C   0  0  0  0  0  0  0  0  0  0  0  0
  161.4210  206.4650  147.6600 N   0  0  0  0  0  0  0  0  0  0  0  0
  160.8000  205.7200  145.4810 C   0  0  0  0  0  0  0  0  0  0  0  0
  159.6370  206.2020  145.3780 O   0  0  0  0  0  0  0  0  0  0  0  0
  161.5440  205.3950  144.3020 N   0  0  0  0  0  2  0  0  0  0  0  0
  160.9920  205.5260  142.9620 C   0  0  0  0  0  2  0  0  0  0  0  0
  161.5940  206.6970  140.9440 N   0  0  0  0  0  0  0  0  0  0  0  0
  161.9760  206.1960  142.0610 C   0  0  0  0  0  3  0  0  0  0  0  0
  162.5340  207.3670  140.0830 C   0  0  0  0  0  2  0  0  0  0  0  0
  160.4440  208.0740  139.0960 O   0  0  0  0  0  0  0  0  0  0  0  0
  160.0910  209.4280  138.9150 C   0  0  0  0  0  2  0  0  0  0  0  0
  161.3350  210.1970  138.6890 C   0  0  0  0  0  3  0  0  0  0  0  0
  162.0860  207.2240  137.7350 O   0  0  0  0  0  1  0  0  0  0  0  0
  162.3450  209.3630  138.6660 C   0  0  0  0  0  3  0  0  0  0  0  0
  161.8360  207.9880  138.8750 C   0  0  2  0  0  0  0  0  0  0  0  0
  161.9210  204.1040  147.1910 C   0  0  1  0  0  3  0  0  0  0  0  0
  161.1630  202.0320  147.8260 C   0  0  0  0  0  1  0  0  0  0  0  0
  161.0580  203.0370  146.8530 O   0  0  0  0  0  0  0  0  0  0  0  0
  163.4000  203.8580  146.8780 C   0  0  0  0  0  2  0  0  0  0  0  0
  163.8320  204.7070  145.7000 C   0  0  0  0  0  1  0  0  0  0  0  0
  162.8210  207.7340  149.3050 C   0  0  0  0  0  2  0  0  0  0  0  0
  162.3860  211.7370  148.9080 C   0  0  0  0  0  2  0  0  0  0  0  0
  161.0530  210.7570  150.9240 C   0  0  0  0  0  2  0  0  0  0  0  0
  161.5960  212.0060  150.2090 C   0  0  2  0  0  3  0  0  0  0  0  0
  161.1950  209.4960  148.3340 C   0  0  0  0  0  2  0  0  0  0  0  0
  161.9000  209.5360  150.7050 C   0  0  0  0  0  3  0  0  0  0  0  0
  161.6510  210.8860  147.8620 C   0  0  0  0  0  2  0  0  0  0  0  0
  161.9740  208.9510  149.5010 C   0  0  0  0  0  0  0  0  0  0  0  0
  161.0240  214.3130  149.6250 O   0  0  0  0  0  0  0  0  0  0  0  0
  158.8230  214.4020  148.6750 C   0  0  1  0  0  3  0  0  0  0  0  0
  160.5210  213.0980  150.1180 C   0  0  2  0  0  0  0  0  0  0  0  0
  157.8280  214.0390  149.7660 C   0  0  0  0  0  2  0  0  0  0  0  0
  159.6000  213.2860  151.3350 C   0  0  0  0  0  2  0  0  0  0  0  0
  158.4720  214.2910  151.1140 C   0  0  2  0  0  3  0  0  0  0  0  0
  160.1380  213.6140  148.7670 C   0  0  2  0  0  3  0  0  0  0  0  0
  158.1910  214.1860  147.3400 C   0  0  0  0  0  3  0  0  0  0  0  0
  157.1280  213.5900  147.2490 O   0  0  0  0  0  0  0  0  0  0  0  0
  157.4740  214.1440  152.1600 N   0  0  0  0  0  2  0  0  0  0  0  0
  158.1330  214.2920  153.3890 N   0  0  0  0  0  0  0  0  0  0  0  0
  157.0090  211.2420  155.3210 C   0  0  0  0  0  2  0  0  0  0  0  0
  157.1360  212.3080  154.2660 C   0  0  0  0  0  2  0  0  0  0  0  0
  158.7290  213.4670  155.7020 C   0  0  0  0  0  3  0  0  0  0  0  0
  158.3830  212.7410  156.7700 C   0  0  0  0  0  3  0  0  0  0  0  0
  157.9830  213.3290  154.4310 C   0  0  0  0  0  0  0  0  0  0  0  0
  157.1770  211.8430  156.7200 C   0  0  0  0  0  2  0  0  0  0  0  0
  1 27  1  1  0  0  0
  1  2  1  0  0  0  0
  2  3  1  6  0  0  0
  2  4  1  0  0  0  0
  4  6  2  0  0  0  0
  4  5  1  0  0  0  0
  7 22  1  0  0  0  0
  7  8  2  0  0  0  0
  8  1  1  0  0  0  0
  9  7  1  0  0  0  0
 10  9  2  0  0  0  0
 11  9  1  0  0  0  0
 12 11  1  0  0  0  0
 13 14  2  0  0  0  0
 14 12  1  0  0  0  0
 15 13  1  0  0  0  0
 17 16  1  0  0  0  0
 18 17  1  0  0  0  0
 20 18  2  0  0  0  0
 20 21  1  0  0  0  0
 21 19  1  6  0  0  0
 21 16  1  0  0  0  0
 21 15  1  0  0  0  0
 22 25  1  6  0  0  0
 24 22  1  0  0  0  0
 24 23  1  0  0  0  0
 26 25  1  0  0  0  0
 27 34  1  0  0  0  0
 30 28  1  6  0  0  0
 30 29  1  0  0  0  0
 31 34  1  0  0  0  0
 32 29  1  0  0  0  0
 33 31  1  0  0  0  0
 33 28  1  0  0  0  0
 34 32  2  0  0  0  0
 35 37  1  0  0  0  0
 36 42  1  6  0  0  0
 36 41  1  0  0  0  0
 36 38  1  0  0  0  0
 37 30  1  0  0  0  0
 37 39  1  1  0  0  0
 38 40  1  0  0  0  0
 40 39  1  0  0  0  0
 40 44  1  1  0  0  0
 41 35  1  1  0  0  0
 41 37  1  0  0  0  0
 43 42  2  0  0  0  0
 44 45  1  0  0  0  0
 45 50  2  0  0  0  0
 46 51  1  0  0  0  0
 47 50  1  0  0  0  0
 47 46  1  0  0  0  0
 48 49  2  0  0  0  0
 50 48  1  0  0  0  0
 51 49  1  0  0  0  0
M  END
>  <MODEL>
4

>  <REMARK>
 VINA RESULT:      -3.2      3.456     10.266
  Name = 
  18 active torsions:
  status: ('A' for Active; 'I' for Inactive)
    1  A    between atoms: C_1  and  C_11
    2  A    between atoms: C_1  and  C_14
    3  A    between atoms: C_1  and  N_33
    4  A    between atoms: N_3  and  N_7
    5  A    between atoms: N_3  and  C_44
    6  A    between atoms: N_7  and  C_35
    7  A    between atoms: C_8  and  C_31
    8  A    between atoms: C_10  and  C_23
    9  A    between atoms: C_11  and  C_48
   10  A    between atoms: C_12  and  C_19
   11  A    between atoms: C_14  and  C_27
   12  A    between atoms: C_18  and  C_50
   13  A    between atoms: C_20  and  C_30
   14  A    between atoms: C_20  and  N_41
   15  A    between atoms: N_29  and  C_37
   16  A    between atoms: C_31  and  C_50
   17  A    between atoms: C_37  and  C_46
   18  A    between atoms: O_42  and  C_50
                            x       y       z     vdW  Elec       q    Type
                         _______ _______ _______ _____ _____    ______ ____

>  <TORSDO>
F 18

$$$$
=
 OpenBabel11072410253D

 51 55  0  0  1  0  0  0  0  0999 V2000
  161.9660  206.0020  148.8180 C   0  0  1  0  0  3  0  0  0  0  0  0
  160.8950  205.7780  149.8990 C   0  0  1  0  0  3  0  0  0  0  0  0
  159.4920  206.1870  149.4840 C   0  0  0  0  0  1  0  0  0  0  0  0
  160.9210  204.3830  150.4360 C   0  0  0  0  0  0  0  0  0  0  0  0
  160.4620  204.1000  151.7540 N   0  0  0  0  0  1  0  0  0  0  0  0
  161.3420  203.4480  149.7100 O   0  0  0  0  0  0  0  0  0  0  0  0
  161.4650  205.2800  146.4770 C   0  0  0  0  0  0  0  0  0  0  0  0
  161.4240  206.1380  147.4600 N   0  0  0  0  0  0  0  0  0  0  0  0
  160.8620  205.6780  145.1880 C   0  0  0  0  0  0  0  0  0  0  0  0
  159.7140  206.2030  145.1520 O   0  0  0  0  0  0  0  0  0  0  0  0
  161.5810  205.4540  143.9700 N   0  0  0  0  0  2  0  0  0  0  0  0
  161.0180  205.7390  142.6590 C   0  0  0  0  0  2  0  0  0  0  0  0
  161.5760  207.1470  140.7860 N   0  0  0  0  0  0  0  0  0  0  0  0
  161.9720  206.5570  141.8540 C   0  0  0  0  0  3  0  0  0  0  0  0
  162.4860  207.9590  140.0180 C   0  0  0  0  0  2  0  0  0  0  0  0
  160.3980  208.6010  138.9820 O   0  0  0  0  0  0  0  0  0  0  0  0
  160.0080  209.9430  138.7910 C   0  0  0  0  0  2  0  0  0  0  0  0
  161.2330  210.7500  138.5940 C   0  0  0  0  0  3  0  0  0  0  0  0
  162.0970  207.8010  137.6610 O   0  0  0  0  0  1  0  0  0  0  0  0
  162.2680  209.9470  138.5960 C   0  0  0  0  0  3  0  0  0  0  0  0
  161.7970  208.5570  138.7950 C   0  0  2  0  0  0  0  0  0  0  0  0
  162.0740  203.9040  146.6630 C   0  0  1  0  0  3  0  0  0  0  0  0
  160.8340  202.3450  145.5220 C   0  0  0  0  0  1  0  0  0  0  0  0
  161.1270  202.8630  146.7930 O   0  0  0  0  0  0  0  0  0  0  0  0
  163.2610  203.5830  145.7500 C   0  0  0  0  0  2  0  0  0  0  0  0
  164.4870  204.3530  146.1980 C   0  0  0  0  0  1  0  0  0  0  0  0
  163.0070  207.0690  149.1640 C   0  0  0  0  0  2  0  0  0  0  0  0
  160.4990  207.5410  152.3030 C   0  0  0  0  0  2  0  0  0  0  0  0
  161.5290  209.7870  151.4700 C   0  0  0  0  0  2  0  0  0  0  0  0
  160.4680  209.0860  152.3340 C   0  0  2  0  0  3  0  0  0  0  0  0
  163.0310  207.3380  151.7360 C   0  0  0  0  0  2  0  0  0  0  0  0
  161.9260  208.9890  150.2600 C   0  0  0  0  0  3  0  0  0  0  0  0
  161.8590  206.9080  152.6340 C   0  0  0  0  0  2  0  0  0  0  0  0
  162.6190  207.8470  150.3810 C   0  0  0  0  0  0  0  0  0  0  0  0
  160.0090  208.8000  154.7210 O   0  0  0  0  0  0  0  0  0  0  0  0
  161.5080  210.1510  156.0180 C   0  0  1  0  0  3  0  0  0  0  0  0
  160.3910  209.7190  153.7310 C   0  0  2  0  0  0  0  0  0  0  0  0
  161.1740  211.6100  155.7480 C   0  0  0  0  0  2  0  0  0  0  0  0
  159.6600  211.0660  153.8560 C   0  0  0  0  0  2  0  0  0  0  0  0
  159.7480  211.6970  155.2430 C   0  0  2  0  0  3  0  0  0  0  0  0
  161.3500  209.2550  154.7800 C   0  0  2  0  0  3  0  0  0  0  0  0
  162.9020  210.0550  156.5430 C   0  0  0  0  0  3  0  0  0  0  0  0
  163.6020  211.0520  156.6270 O   0  0  0  0  0  0  0  0  0  0  0  0
  159.3450  213.0920  155.1740 N   0  0  0  0  0  2  0  0  0  0  0  0
  158.2920  213.2660  156.0840 N   0  0  0  0  0  2  0  0  0  0  0  0
  155.3230  211.1480  157.0810 C   0  0  0  0  0  2  0  0  0  0  0  0
  156.6080  211.9310  157.1230 C   0  0  0  0  0  3  0  0  0  0  0  0
  156.4490  212.2210  154.7080 C   0  0  0  0  0  3  0  0  0  0  0  0
  155.5230  211.2630  154.5950 C   0  0  0  0  0  3  0  0  0  0  0  0
  157.1080  212.4740  156.0080 C   0  0  0  0  0  0  0  0  0  0  0  0
  155.2050  210.3730  155.7650 C   0  0  0  0  0  2  0  0  0  0  0  0
  1 27  1  1  0  0  0
  1  2  1  0  0  0  0
  2  3  1  6  0  0  0
  2  4  1  0  0  0  0
  4  5  1  0  0  0  0
  6  4  2  0  0  0  0
  7 22  1  0  0  0  0
  7  8  2  0  0  0  0
  8  1  1  0  0  0  0
  9  7  1  0  0  0  0
 10  9  2  0  0  0  0
 11  9  1  0  0  0  0
 12 11  1  0  0  0  0
 13 14  2  0  0  0  0
 14 12  1  0  0  0  0
 15 13  1  0  0  0  0
 17 16  1  0  0  0  0
 18 20  2  0  0  0  0
 18 17  1  0  0  0  0
 20 21  1  0  0  0  0
 21 19  1  6  0  0  0
 21 16  1  0  0  0  0
 21 15  1  0  0  0  0
 22 25  1  6  0  0  0
 22 24  1  0  0  0  0
 23 24  1  0  0  0  0
 25 26  1  0  0  0  0
 27 34  1  0  0  0  0
 28 30  1  0  0  0  0
 28 33  1  0  0  0  0
 30 29  1  1  0  0  0
 30 37  1  0  0  0  0
 31 33  1  0  0  0  0
 32 34  2  0  0  0  0
 32 29  1  0  0  0  0
 34 31  1  0  0  0  0
 36 42  1  6  0  0  0
 37 39  1  1  0  0  0
 37 35  1  0  0  0  0
 37 41  1  0  0  0  0
 38 36  1  0  0  0  0
 39 40  1  0  0  0  0
 40 44  1  6  0  0  0
 40 38  1  0  0  0  0
 41 35  1  1  0  0  0
 41 36  1  0  0  0  0
 42 43  2  0  0  0  0
 44 45  1  0  0  0  0
 46 47  1  0  0  0  0
 48 50  1  0  0  0  0
 49 48  2  0  0  0  0
 49 51  1  0  0  0  0
 50 45  1  0  0  0  0
 50 47  2  0  0  0  0
 51 46  1  0  0  0  0
M  END
>  <MODEL>
5

>  <REMARK>
 VINA RESULT:      -2.6      3.514     10.084
  Name = 
  18 active torsions:
  status: ('A' for Active; 'I' for Inactive)
    1  A    between atoms: C_1  and  C_11
    2  A    between atoms: C_1  and  C_14
    3  A    between atoms: C_1  and  N_33
    4  A    between atoms: N_3  and  N_7
    5  A    between atoms: N_3  and  C_44
    6  A    between atoms: N_7  and  C_35
    7  A    between atoms: C_8  and  C_31
    8  A    between atoms: C_10  and  C_23
    9  A    between atoms: C_11  and  C_48
   10  A    between atoms: C_12  and  C_19
   11  A    between atoms: C_14  and  C_27
   12  A    between atoms: C_18  and  C_50
   13  A    between atoms: C_20  and  C_30
   14  A    between atoms: C_20  and  N_41
   15  A    between atoms: N_29  and  C_37
   16  A    between atoms: C_31  and  C_50
   17  A    between atoms: C_37  and  C_46
   18  A    between atoms: O_42  and  C_50
                            x       y       z     vdW  Elec       q    Type
                         _______ _______ _______ _____ _____    ______ ____

>  <TORSDO>
F 18

$$$$
=
 OpenBabel11072410253D

 51 55  0  0  1  0  0  0  0  0999 V2000
  160.1880  210.2620  156.0610 C   0  0  1  0  0  3  0  0  0  0  0  0
  161.5800  210.0570  156.6840 C   0  0  1  0  0  3  0  0  0  0  0  0
  161.9130  208.6100  157.0070 C   0  0  0  0  0  1  0  0  0  0  0  0
  162.6590  210.6980  155.8730 C   0  0  0  0  0  0  0  0  0  0  0  0
  163.5220  211.6740  156.4500 N   0  0  0  0  0  1  0  0  0  0  0  0
  162.8140  210.3630  154.6730 O   0  0  0  0  0  0  0  0  0  0  0  0
  159.4910  212.2180  154.6690 C   0  0  0  0  0  0  0  0  0  0  0  0
  160.1850  211.1330  154.8790 N   0  0  0  0  0  0  0  0  0  0  0  0
  159.6550  212.9000  153.3680 C   0  0  0  0  0  0  0  0  0  0  0  0
  160.7720  212.8980  152.7790 O   0  0  0  0  0  0  0  0  0  0  0  0
  158.5400  213.5790  152.7800 N   0  0  0  0  0  2  0  0  0  0  0  0
  158.6460  214.3450  151.5470 C   0  0  0  0  0  2  0  0  0  0  0  0
  159.2620  213.9330  149.2550 N   0  0  0  0  0  0  0  0  0  0  0  0
  158.9810  213.4430  150.4060 C   0  0  0  0  0  3  0  0  0  0  0  0
  159.6110  213.0690  148.1560 C   0  0  0  0  0  2  0  0  0  0  0  0
  159.4880  214.3280  146.0960 O   0  0  0  0  0  0  0  0  0  0  0  0
  159.6000  213.7380  144.8190 C   0  0  0  0  0  2  0  0  0  0  0  0
  159.0560  212.3640  144.9030 C   0  0  0  0  0  3  0  0  0  0  0  0
  157.5580  213.9290  147.2730 O   0  0  0  0  0  1  0  0  0  0  0  0
  158.5920  212.1710  146.1120 C   0  0  0  0  0  3  0  0  0  0  0  0
  158.7970  213.4020  146.9080 C   0  0  2  0  0  0  0  0  0  0  0  0
  158.5780  212.7830  155.7380 C   0  0  1  0  0  3  0  0  0  0  0  0
  156.3140  213.1150  155.9310 C   0  0  0  0  0  1  0  0  0  0  0  0
  157.3200  212.1430  155.8240 O   0  0  0  0  0  0  0  0  0  0  0  0
  159.2440  213.0740  157.0860 C   0  0  0  0  0  2  0  0  0  0  0  0
  160.0820  214.3320  156.9920 C   0  0  0  0  0  1  0  0  0  0  0  0
  159.3800  208.9760  155.8680 C   0  0  0  0  0  2  0  0  0  0  0  0
  161.8110  206.4990  153.7890 C   0  0  0  0  0  2  0  0  0  0  0  0
  160.6900  208.3210  152.2990 C   0  0  0  0  0  2  0  0  0  0  0  0
  161.7690  207.2330  152.4300 C   0  0  2  0  0  3  0  0  0  0  0  0
  159.3010  206.8700  154.3690 C   0  0  0  0  0  2  0  0  0  0  0  0
  160.3510  208.9780  153.6070 C   0  0  0  0  0  3  0  0  0  0  0  0
  160.4760  205.8870  154.2420 C   0  0  0  0  0  2  0  0  0  0  0  0
  159.7110  208.3040  154.5740 C   0  0  0  0  0  0  0  0  0  0  0  0
  162.8600  205.4190  151.2010 O   0  0  0  0  0  0  0  0  0  0  0  0
  161.2180  204.0580  150.1060 C   0  0  1  0  0  3  0  0  0  0  0  0
  161.7920  206.3300  151.1880 C   0  0  2  0  0  0  0  0  0  0  0  0
  160.5630  204.8990  149.0210 C   0  0  0  0  0  2  0  0  0  0  0  0
  161.6050  207.0070  149.8200 C   0  0  0  0  0  2  0  0  0  0  0  0
  161.5000  206.0310  148.6510 C   0  0  2  0  0  3  0  0  0  0  0  0
  161.5680  204.8630  151.3660 C   0  0  2  0  0  3  0  0  0  0  0  0
  160.3170  202.9220  150.4590 C   0  0  0  0  0  3  0  0  0  0  0  0
  160.4250  201.8460  149.8900 O   0  0  0  0  0  0  0  0  0  0  0  0
  160.9840  206.7210  147.4810 N   0  0  0  0  0  2  0  0  0  0  0  0
  161.6600  206.2090  146.3640 N   0  0  0  0  0  2  0  0  0  0  0  0
  160.2040  203.5030  144.1600 C   0  0  0  0  0  2  0  0  0  0  0  0
  160.5050  204.8380  144.7870 C   0  0  0  0  0  3  0  0  0  0  0  0
  161.8930  203.6940  146.4320 C   0  0  0  0  0  3  0  0  0  0  0  0
  161.3800  202.4990  146.1210 C   0  0  0  0  0  3  0  0  0  0  0  0
  161.3390  204.9260  145.8280 C   0  0  0  0  0  0  0  0  0  0  0  0
  160.1770  202.4000  145.2230 C   0  0  0  0  0  2  0  0  0  0  0  0
  1 27  1  6  0  0  0
  1  2  1  0  0  0  0
  2  3  1  6  0  0  0
  4  5  1  0  0  0  0
  4  2  1  0  0  0  0
  6  4  2  0  0  0  0
  7  8  2  0  0  0  0
  7 22  1  0  0  0  0
  8  1  1  0  0  0  0
  9  7  1  0  0  0  0
 10  9  2  0  0  0  0
 11  9  1  0  0  0  0
 12 11  1  0  0  0  0
 13 14  2  0  0  0  0
 14 12  1  0  0  0  0
 15 13  1  0  0  0  0
 16 21  1  0  0  0  0
 17 18  1  0  0  0  0
 17 16  1  0  0  0  0
 18 20  2  0  0  0  0
 20 21  1  0  0  0  0
 21 19  1  1  0  0  0
 21 15  1  0  0  0  0
 22 24  1  0  0  0  0
 22 25  1  1  0  0  0
 24 23  1  0  0  0  0
 26 25  1  0  0  0  0
 28 33  1  0  0  0  0
 29 32  1  0  0  0  0
 30 29  1  1  0  0  0
 30 28  1  0  0  0  0
 31 34  1  0  0  0  0
 32 34  2  0  0  0  0
 33 31  1  0  0  0  0
 34 27  1  0  0  0  0
 36 42  1  1  0  0  0
 36 41  1  0  0  0  0
 37 39  1  6  0  0  0
 37 35  1  0  0  0  0
 37 41  1  0  0  0  0
 37 30  1  0  0  0  0
 38 36  1  0  0  0  0
 40 44  1  6  0  0  0
 40 38  1  0  0  0  0
 40 39  1  0  0  0  0
 41 35  1  6  0  0  0
 43 42  2  0  0  0  0
 45 44  1  0  0  0  0
 46 47  1  0  0  0  0
 46 51  1  0  0  0  0
 47 50  2  0  0  0  0
 49 48  2  0  0  0  0
 50 45  1  0  0  0  0
 50 48  1  0  0  0  0
 51 49  1  0  0  0  0
M  END
>  <MODEL>
6

>  <REMARK>
 VINA RESULT:      -2.6      1.827      2.933
  Name = 
  18 active torsions:
  status: ('A' for Active; 'I' for Inactive)
    1  A    between atoms: C_1  and  C_11
    2  A    between atoms: C_1  and  C_14
    3  A    between atoms: C_1  and  N_33
    4  A    between atoms: N_3  and  N_7
    5  A    between atoms: N_3  and  C_44
    6  A    between atoms: N_7  and  C_35
    7  A    between atoms: C_8  and  C_31
    8  A    between atoms: C_10  and  C_23
    9  A    between atoms: C_11  and  C_48
   10  A    between atoms: C_12  and  C_19
   11  A    between atoms: C_14  and  C_27
   12  A    between atoms: C_18  and  C_50
   13  A    between atoms: C_20  and  C_30
   14  A    between atoms: C_20  and  N_41
   15  A    between atoms: N_29  and  C_37
   16  A    between atoms: C_31  and  C_50
   17  A    between atoms: C_37  and  C_46
   18  A    between atoms: O_42  and  C_50
                            x       y       z     vdW  Elec       q    Type
                         _______ _______ _______ _____ _____    ______ ____

>  <TORSDO>
F 18

$$$$
=
 OpenBabel11072410253D

 51 55  0  0  1  0  0  0  0  0999 V2000
  161.8910  205.8360  148.8930 C   0  0  1  0  0  3  0  0  0  0  0  0
  160.8220  205.5710  149.9670 C   0  0  1  0  0  3  0  0  0  0  0  0
  159.3970  205.8330  149.5080 C   0  0  0  0  0  1  0  0  0  0  0  0
  160.9590  204.2130  150.5750 C   0  0  0  0  0  0  0  0  0  0  0  0
  159.9570  203.2200  150.3760 N   0  0  0  0  0  1  0  0  0  0  0  0
  161.9760  203.9410  151.2590 O   0  0  0  0  0  0  0  0  0  0  0  0
  161.4480  205.2400  146.5060 C   0  0  0  0  0  0  0  0  0  0  0  0
  161.3470  206.0260  147.5420 N   0  0  0  0  0  0  0  0  0  0  0  0
  160.8260  205.6830  145.2400 C   0  0  0  0  0  0  0  0  0  0  0  0
  159.6860  206.2260  145.2430 O   0  0  0  0  0  0  0  0  0  0  0  0
  161.5170  205.4820  144.0030 N   0  0  0  0  0  2  0  0  0  0  0  0
  160.9320  205.8120  142.7120 C   0  0  0  0  0  2  0  0  0  0  0  0
  161.5850  207.2110  140.8630 N   0  0  0  0  0  0  0  0  0  0  0  0
  161.9520  206.4560  141.8320 C   0  0  0  0  0  3  0  0  0  0  0  0
  162.5650  207.8550  140.0260 C   0  0  0  0  0  2  0  0  0  0  0  0
  160.7010  209.3850  139.8540 O   0  0  0  0  0  0  0  0  0  0  0  0
  160.7450  210.7160  140.3190 C   0  0  0  0  0  2  0  0  0  0  0  0
  162.1390  211.1990  140.1860 C   0  0  0  0  0  3  0  0  0  0  0  0
  161.9110  208.8890  137.9670 O   0  0  0  0  0  1  0  0  0  0  0  0
  162.8550  210.2590  139.6220 C   0  0  0  0  0  3  0  0  0  0  0  0
  161.9860  209.0930  139.3450 C   0  0  2  0  0  0  0  0  0  0  0  0
  162.1460  203.8980  146.6050 C   0  0  1  0  0  3  0  0  0  0  0  0
  164.2250  204.3100  145.7220 C   0  0  0  0  0  1  0  0  0  0  0  0
  163.5270  203.9830  146.8940 O   0  0  0  0  0  0  0  0  0  0  0  0
  161.3910  202.8200  147.3880 C   0  0  0  0  0  2  0  0  0  0  0  0
  160.7740  201.8190  146.4340 C   0  0  0  0  0  1  0  0  0  0  0  0
  162.9360  206.8860  149.2790 C   0  0  0  0  0  2  0  0  0  0  0  0
  160.6910  207.0470  152.6410 C   0  0  0  0  0  2  0  0  0  0  0  0
  161.2590  209.4020  151.6760 C   0  0  0  0  0  2  0  0  0  0  0  0
  160.4120  208.5670  152.6510 C   0  0  2  0  0  3  0  0  0  0  0  0
  163.1580  207.2360  151.8320 C   0  0  0  0  0  2  0  0  0  0  0  0
  161.6650  208.6410  150.4460 C   0  0  0  0  0  3  0  0  0  0  0  0
  162.1610  206.6520  152.8470 C   0  0  0  0  0  2  0  0  0  0  0  0
  162.5430  207.6290  150.5150 C   0  0  0  0  0  0  0  0  0  0  0  0
  160.4510  208.2880  155.0820 O   0  0  0  0  0  0  0  0  0  0  0  0
  161.6420  210.1030  156.1030 C   0  0  1  0  0  3  0  0  0  0  0  0
  160.3650  209.2230  154.0390 C   0  0  2  0  0  0  0  0  0  0  0  0
  160.8320  211.3720  155.8890 C   0  0  0  0  0  2  0  0  0  0  0  0
  159.2820  210.2870  154.2800 C   0  0  0  0  0  2  0  0  0  0  0  0
  159.3880  210.9900  155.6310 C   0  0  2  0  0  3  0  0  0  0  0  0
  161.5750  209.1340  154.9130 C   0  0  2  0  0  3  0  0  0  0  0  0
  163.0610  210.4670  156.3860 C   0  0  0  0  0  3  0  0  0  0  0  0
  163.3260  211.4750  157.0240 O   0  0  0  0  0  0  0  0  0  0  0  0
  158.5660  212.1890  155.6260 N   0  0  0  0  0  2  0  0  0  0  0  0
  159.1410  213.0850  154.7130 N   0  0  0  0  0  2  0  0  0  0  0  0
  158.6390  213.2930  150.9710 C   0  0  0  0  0  2  0  0  0  0  0  0
  159.2630  213.1100  152.3290 C   0  0  0  0  0  3  0  0  0  0  0  0
  157.1670  213.8470  153.3330 C   0  0  0  0  0  3  0  0  0  0  0  0
  156.7160  214.3380  152.1730 C   0  0  0  0  0  3  0  0  0  0  0  0
  158.5480  213.3270  153.4390 C   0  0  0  0  0  0  0  0  0  0  0  0
  157.6360  214.4500  150.9880 C   0  0  0  0  0  2  0  0  0  0  0  0
  1 27  1  1  0  0  0
  1  2  1  0  0  0  0
  2  3  1  6  0  0  0
  2  4  1  0  0  0  0
  4  6  2  0  0  0  0
  5  4  1  0  0  0  0
  7 22  1  0  0  0  0
  7  8  2  0  0  0  0
  8  1  1  0  0  0  0
  9 10  2  0  0  0  0
  9  7  1  0  0  0  0
 11  9  1  0  0  0  0
 12 11  1  0  0  0  0
 13 14  2  0  0  0  0
 14 12  1  0  0  0  0
 15 13  1  0  0  0  0
 16 17  1  0  0  0  0
 18 17  1  0  0  0  0
 20 18  2  0  0  0  0
 21 19  1  6  0  0  0
 21 20  1  0  0  0  0
 21 16  1  0  0  0  0
 21 15  1  0  0  0  0
 22 24  1  0  0  0  0
 22 25  1  1  0  0  0
 23 24  1  0  0  0  0
 26 25  1  0  0  0  0
 27 34  1  0  0  0  0
 28 30  1  0  0  0  0
 28 33  1  0  0  0  0
 30 29  1  6  0  0  0
 30 37  1  0  0  0  0
 31 33  1  0  0  0  0
 32 34  2  0  0  0  0
 32 29  1  0  0  0  0
 34 31  1  0  0  0  0
 36 42  1  6  0  0  0
 37 39  1  1  0  0  0
 37 41  1  0  0  0  0
 37 35  1  0  0  0  0
 38 36  1  0  0  0  0
 39 40  1  0  0  0  0
 40 44  1  6  0  0  0
 40 38  1  0  0  0  0
 41 35  1  1  0  0  0
 41 36  1  0  0  0  0
 42 43  2  0  0  0  0
 45 44  1  0  0  0  0
 46 51  1  0  0  0  0
 46 47  1  0  0  0  0
 47 50  2  0  0  0  0
 48 50  1  0  0  0  0
 49 48  2  0  0  0  0
 50 45  1  0  0  0  0
 51 49  1  0  0  0  0
M  END
>  <MODEL>
7

>  <REMARK>
 VINA RESULT:      -2.6      3.285      9.549
  Name = 
  18 active torsions:
  status: ('A' for Active; 'I' for Inactive)
    1  A    between atoms: C_1  and  C_11
    2  A    between atoms: C_1  and  C_14
    3  A    between atoms: C_1  and  N_33
    4  A    between atoms: N_3  and  N_7
    5  A    between atoms: N_3  and  C_44
    6  A    between atoms: N_7  and  C_35
    7  A    between atoms: C_8  and  C_31
    8  A    between atoms: C_10  and  C_23
    9  A    between atoms: C_11  and  C_48
   10  A    between atoms: C_12  and  C_19
   11  A    between atoms: C_14  and  C_27
   12  A    between atoms: C_18  and  C_50
   13  A    between atoms: C_20  and  C_30
   14  A    between atoms: C_20  and  N_41
   15  A    between atoms: N_29  and  C_37
   16  A    between atoms: C_31  and  C_50
   17  A    between atoms: C_37  and  C_46
   18  A    between atoms: O_42  and  C_50
                            x       y       z     vdW  Elec       q    Type
                         _______ _______ _______ _____ _____    ______ ____

>  <TORSDO>
F 18

$$$$
=
 OpenBabel11072410253D

 51 55  0  0  1  0  0  0  0  0999 V2000
  161.2990  213.3920  147.2230 C   0  0  1  0  0  3  0  0  0  0  0  0
  160.8390  211.9400  147.4400 C   0  0  1  0  0  3  0  0  0  0  0  0
  160.2480  211.2800  146.2050 C   0  0  0  0  0  1  0  0  0  0  0  0
  161.9100  211.0950  148.0500 C   0  0  0  0  0  0  0  0  0  0  0  0
  163.2770  211.4930  147.9880 N   0  0  0  0  0  1  0  0  0  0  0  0
  161.6000  210.0280  148.6360 O   0  0  0  0  0  0  0  0  0  0  0  0
  161.4390  213.5540  144.7320 C   0  0  0  0  0  0  0  0  0  0  0  0
  161.9530  213.6240  145.9290 N   0  0  0  0  0  0  0  0  0  0  0  0
  162.3310  213.8100  143.5820 C   0  0  0  0  0  0  0  0  0  0  0  0
  163.5820  213.8660  143.7410 O   0  0  0  0  0  0  0  0  0  0  0  0
  161.7680  214.0090  142.2800 N   0  0  0  0  0  2  0  0  0  0  0  0
  162.5740  214.3520  141.1180 C   0  0  0  0  0  2  0  0  0  0  0  0
  162.3110  212.0130  140.6060 N   0  0  0  0  0  0  0  0  0  0  0  0
  162.8820  213.1260  140.3240 C   0  0  0  0  0  3  0  0  0  0  0  0
  162.5850  210.8320  139.8270 C   0  0  0  0  0  2  0  0  0  0  0  0
  160.2270  210.5790  140.2970 O   0  0  0  0  0  0  0  0  0  0  0  0
  159.2180  210.7800  139.3310 C   0  0  0  0  0  2  0  0  0  0  0  0
  159.7730  210.4100  138.0100 C   0  0  0  0  0  3  0  0  0  0  0  0
  161.5270  208.6990  140.0850 O   0  0  0  0  0  1  0  0  0  0  0  0
  160.9900  209.9580  138.1780 C   0  0  0  0  0  3  0  0  0  0  0  0
  161.3230  209.9990  139.6200 C   0  0  2  0  0  0  0  0  0  0  0  0
  159.9660  213.2590  144.5290 C   0  0  1  0  0  3  0  0  0  0  0  0
  157.9250  214.2360  144.1390 C   0  0  0  0  0  1  0  0  0  0  0  0
  159.1070  214.3210  144.8910 O   0  0  0  0  0  0  0  0  0  0  0  0
  159.6110  212.5660  143.2100 C   0  0  0  0  0  2  0  0  0  0  0  0
  160.0640  211.1210  143.2410 C   0  0  0  0  0  1  0  0  0  0  0  0
  160.2510  214.4510  147.5710 C   0  0  0  0  0  2  0  0  0  0  0  0
  159.7980  212.2650  150.9450 C   0  0  0  0  0  2  0  0  0  0  0  0
  158.1770  214.3040  150.8210 C   0  0  0  0  0  2  0  0  0  0  0  0
  158.5470  212.9780  151.5070 C   0  0  2  0  0  3  0  0  0  0  0  0
  160.9560  214.4210  150.0590 C   0  0  0  0  0  2  0  0  0  0  0  0
  158.5790  214.3520  149.3740 C   0  0  0  0  0  3  0  0  0  0  0  0
  161.0680  213.1270  150.8830 C   0  0  0  0  0  2  0  0  0  0  0  0
  159.8710  214.4000  149.0160 C   0  0  0  0  0  0  0  0  0  0  0  0
  158.3290  214.4480  153.4520 O   0  0  0  0  0  0  0  0  0  0  0  0
  157.0730  213.3540  155.1780 C   0  0  1  0  0  3  0  0  0  0  0  0
  158.4940  213.1180  153.0360 C   0  0  2  0  0  0  0  0  0  0  0  0
  157.9000  212.1850  155.6880 C   0  0  0  0  0  2  0  0  0  0  0  0
  159.5610  212.3670  153.8500 C   0  0  0  0  0  2  0  0  0  0  0  0
  159.3580  212.4410  155.3610 C   0  0  2  0  0  3  0  0  0  0  0  0
  157.2230  213.5890  153.6670 C   0  0  2  0  0  3  0  0  0  0  0  0
  155.6380  213.1270  155.5190 C   0  0  0  0  0  3  0  0  0  0  0  0
  155.0330  212.1760  155.0490 O   0  0  0  0  0  0  0  0  0  0  0  0
  160.1820  211.4390  156.0160 N   0  0  0  0  0  2  0  0  0  0  0  0
  159.4680  210.2320  155.9930 N   0  0  0  0  0  2  0  0  0  0  0  0
  161.5620  207.6750  154.1570 C   0  0  0  0  0  2  0  0  0  0  0  0
  160.8300  208.9390  154.5190 C   0  0  0  0  0  3  0  0  0  0  0  0
  159.9310  207.7950  156.4760 C   0  0  0  0  0  3  0  0  0  0  0  0
  160.2790  206.5930  156.0050 C   0  0  0  0  0  3  0  0  0  0  0  0
  160.1000  209.0040  155.6380 C   0  0  0  0  0  0  0  0  0  0  0  0
  160.7610  206.4420  154.5880 C   0  0  0  0  0  2  0  0  0  0  0  0
  1  2  1  0  0  0  0
  1 27  1  6  0  0  0
  2  3  1  6  0  0  0
  2  4  1  0  0  0  0
  4  6  2  0  0  0  0
  5  4  1  0  0  0  0
  7  8  2  0  0  0  0
  8  1  1  0  0  0  0
  9 10  2  0  0  0  0
  9  7  1  0  0  0  0
 11  9  1  0  0  0  0
 12 11  1  0  0  0  0
 14 13  2  0  0  0  0
 14 12  1  0  0  0  0
 15 13  1  0  0  0  0
 17 16  1  0  0  0  0
 18 20  2  0  0  0  0
 18 17  1  0  0  0  0
 20 21  1  0  0  0  0
 21 15  1  0  0  0  0
 21 19  1  1  0  0  0
 21 16  1  0  0  0  0
 22 25  1  6  0  0  0
 22  7  1  0  0  0  0
 22 24  1  0  0  0  0
 23 24  1  0  0  0  0
 25 26  1  0  0  0  0
 27 34  1  0  0  0  0
 28 30  1  0  0  0  0
 30 29  1  6  0  0  0
 30 37  1  0  0  0  0
 31 33  1  0  0  0  0
 32 29  1  0  0  0  0
 33 28  1  0  0  0  0
 34 32  2  0  0  0  0
 34 31  1  0  0  0  0
 36 42  1  6  0  0  0
 36 38  1  0  0  0  0
 37 35  1  0  0  0  0
 37 41  1  0  0  0  0
 37 39  1  1  0  0  0
 39 40  1  0  0  0  0
 40 38  1  0  0  0  0
 40 44  1  1  0  0  0
 41 35  1  1  0  0  0
 41 36  1  0  0  0  0
 43 42  2  0  0  0  0
 45 44  1  0  0  0  0
 46 47  1  0  0  0  0
 46 51  1  0  0  0  0
 47 50  2  0  0  0  0
 49 48  2  0  0  0  0
 50 45  1  0  0  0  0
 50 48  1  0  0  0  0
 51 49  1  0  0  0  0
M  END
>  <MODEL>
8

>  <REMARK>
 VINA RESULT:      -2.0      4.450     10.019
  Name = 
  18 active torsions:
  status: ('A' for Active; 'I' for Inactive)
    1  A    between atoms: C_1  and  C_11
    2  A    between atoms: C_1  and  C_14
    3  A    between atoms: C_1  and  N_33
    4  A    between atoms: N_3  and  N_7
    5  A    between atoms: N_3  and  C_44
    6  A    between atoms: N_7  and  C_35
    7  A    between atoms: C_8  and  C_31
    8  A    between atoms: C_10  and  C_23
    9  A    between atoms: C_11  and  C_48
   10  A    between atoms: C_12  and  C_19
   11  A    between atoms: C_14  and  C_27
   12  A    between atoms: C_18  and  C_50
   13  A    between atoms: C_20  and  C_30
   14  A    between atoms: C_20  and  N_41
   15  A    between atoms: N_29  and  C_37
   16  A    between atoms: C_31  and  C_50
   17  A    between atoms: C_37  and  C_46
   18  A    between atoms: O_42  and  C_50
                            x       y       z     vdW  Elec       q    Type
                         _______ _______ _______ _____ _____    ______ ____

>  <TORSDO>
F 18

$$$$
=
 OpenBabel11072410253D

 51 55  0  0  1  0  0  0  0  0999 V2000
  160.3220  210.4580  154.8930 C   0  0  1  0  0  3  0  0  0  0  0  0
  161.0820  211.1730  156.0240 C   0  0  1  0  0  3  0  0  0  0  0  0
  160.2400  211.4680  157.2540 C   0  0  0  0  0  1  0  0  0  0  0  0
  162.3480  210.4650  156.3860 C   0  0  0  0  0  0  0  0  0  0  0  0
  162.3390  209.0800  156.7190 N   0  0  0  0  0  1  0  0  0  0  0  0
  163.4330  211.0970  156.3830 O   0  0  0  0  0  0  0  0  0  0  0  0
  160.5550  211.5500  152.6560 C   0  0  0  0  0  0  0  0  0  0  0  0
  160.8970  210.6720  153.5590 N   0  0  0  0  0  0  0  0  0  0  0  0
  161.2840  211.5360  151.3710 C   0  0  0  0  0  0  0  0  0  0  0  0
  162.3520  210.8750  151.2460 O   0  0  0  0  0  0  0  0  0  0  0  0
  160.7800  212.2910  150.2630 N   0  0  0  0  0  2  0  0  0  0  0  0
  161.4870  212.3970  148.9960 C   0  0  0  0  0  2  0  0  0  0  0  0
  160.5140  213.0810  146.9010 N   0  0  0  0  0  0  0  0  0  0  0  0
  160.8120  213.3900  148.1090 C   0  0  0  0  0  3  0  0  0  0  0  0
  159.8390  214.0260  146.0480 C   0  0  0  0  0  2  0  0  0  0  0  0
  158.7430  214.3120  143.9120 O   0  0  0  0  0  0  0  0  0  0  0  0
  159.4420  214.4320  142.6920 C   0  0  0  0  0  2  0  0  0  0  0  0
  160.6930  213.6490  142.8050 C   0  0  0  0  0  3  0  0  0  0  0  0
  158.7150  212.2440  144.9090 O   0  0  0  0  0  1  0  0  0  0  0  0
  160.7100  213.0510  143.9700 C   0  0  0  0  0  3  0  0  0  0  0  0
  159.4720  213.3990  144.7050 C   0  0  2  0  0  0  0  0  0  0  0  0
  159.4730  212.5750  152.9300 C   0  0  1  0  0  3  0  0  0  0  0  0
  158.8470  214.1910  151.4230 C   0  0  0  0  0  1  0  0  0  0  0  0
  159.7620  213.8680  152.4370 O   0  0  0  0  0  0  0  0  0  0  0  0
  158.0390  212.0990  152.6840 C   0  0  0  0  0  2  0  0  0  0  0  0
  157.6850  210.9880  153.6510 C   0  0  0  0  0  1  0  0  0  0  0  0
  159.9830  208.9940  155.1790 C   0  0  0  0  0  2  0  0  0  0  0  0
  162.5600  207.0180  152.7660 C   0  0  0  0  0  2  0  0  0  0  0  0
  160.4100  207.8220  151.5280 C   0  0  0  0  0  2  0  0  0  0  0  0
  161.8380  207.2620  151.4210 C   0  0  2  0  0  3  0  0  0  0  0  0
  160.3960  206.6500  154.1640 C   0  0  0  0  0  2  0  0  0  0  0  0
  160.1980  208.6710  152.7490 C   0  0  0  0  0  3  0  0  0  0  0  0
  161.7920  206.1430  153.7690 C   0  0  0  0  0  2  0  0  0  0  0  0
  160.1980  208.1310  153.9770 C   0  0  0  0  0  0  0  0  0  0  0  0
  162.7500  205.0680  150.8340 O   0  0  0  0  0  0  0  0  0  0  0  0
  161.0890  203.7570  149.7060 C   0  0  1  0  0  3  0  0  0  0  0  0
  161.9000  206.1030  150.4150 C   0  0  2  0  0  0  0  0  0  0  0  0
  160.8090  204.4130  148.3630 C   0  0  0  0  0  2  0  0  0  0  0  0
  162.0880  206.4640  148.9330 C   0  0  0  0  0  2  0  0  0  0  0  0
  161.9990  205.2720  147.9840 C   0  0  2  0  0  3  0  0  0  0  0  0
  161.3660  204.7690  150.8280 C   0  0  2  0  0  3  0  0  0  0  0  0
  159.9360  202.8850  150.0780 C   0  0  0  0  0  3  0  0  0  0  0  0
  160.0870  201.6790  150.2010 O   0  0  0  0  0  0  0  0  0  0  0  0
  161.8380  205.7420  146.6180 N   0  0  0  0  0  2  0  0  0  0  0  0
  162.2300  204.6970  145.7690 N   0  0  0  0  0  2  0  0  0  0  0  0
  159.2300  203.2300  143.9940 C   0  0  0  0  0  2  0  0  0  0  0  0
  160.2100  204.2010  144.5960 C   0  0  0  0  0  3  0  0  0  0  0  0
  161.4530  202.3080  145.4970 C   0  0  0  0  0  3  0  0  0  0  0  0
  160.4400  201.4630  145.2780 C   0  0  0  0  0  3  0  0  0  0  0  0
  161.2820  203.7590  145.2630 C   0  0  0  0  0  0  0  0  0  0  0  0
  159.0880  201.9870  144.8780 C   0  0  0  0  0  2  0  0  0  0  0  0
  1 27  1  1  0  0  0
  1  2  1  0  0  0  0
  2  4  1  0  0  0  0
  2  3  1  1  0  0  0
  4  5  1  0  0  0  0
  6  4  2  0  0  0  0
  7 22  1  0  0  0  0
  7  8  2  0  0  0  0
  8  1  1  0  0  0  0
  9  7  1  0  0  0  0
 10  9  2  0  0  0  0
 11  9  1  0  0  0  0
 12 11  1  0  0  0  0
 13 14  2  0  0  0  0
 14 12  1  0  0  0  0
 15 13  1  0  0  0  0
 16 21  1  0  0  0  0
 17 18  1  0  0  0  0
 17 16  1  0  0  0  0
 18 20  2  0  0  0  0
 20 21  1  0  0  0  0
 21 19  1  1  0  0  0
 21 15  1  0  0  0  0
 22 25  1  6  0  0  0
 23 24  1  0  0  0  0
 24 22  1  0  0  0  0
 25 26  1  0  0  0  0
 28 33  1  0  0  0  0
 29 32  1  0  0  0  0
 30 29  1  1  0  0  0
 30 28  1  0  0  0  0
 32 34  2  0  0  0  0
 33 31  1  0  0  0  0
 34 31  1  0  0  0  0
 34 27  1  0  0  0  0
 36 42  1  1  0  0  0
 36 41  1  0  0  0  0
 37 39  1  6  0  0  0
 37 41  1  0  0  0  0
 37 35  1  0  0  0  0
 37 30  1  0  0  0  0
 38 36  1  0  0  0  0
 40 44  1  6  0  0  0
 40 38  1  0  0  0  0
 40 39  1  0  0  0  0
 41 35  1  1  0  0  0
 42 43  2  0  0  0  0
 45 44  1  0  0  0  0
 46 47  1  0  0  0  0
 46 51  1  0  0  0  0
 47 50  2  0  0  0  0
 49 48  2  0  0  0  0
 50 48  1  0  0  0  0
 50 45  1  0  0  0  0
 51 49  1  0  0  0  0
M  END
>  <MODEL>
9

>  <REMARK>
 VINA RESULT:      -1.9      2.182      3.171
  Name = 
  18 active torsions:
  status: ('A' for Active; 'I' for Inactive)
    1  A    between atoms: C_1  and  C_11
    2  A    between atoms: C_1  and  C_14
    3  A    between atoms: C_1  and  N_33
    4  A    between atoms: N_3  and  N_7
    5  A    between atoms: N_3  and  C_44
    6  A    between atoms: N_7  and  C_35
    7  A    between atoms: C_8  and  C_31
    8  A    between atoms: C_10  and  C_23
    9  A    between atoms: C_11  and  C_48
   10  A    between atoms: C_12  and  C_19
   11  A    between atoms: C_14  and  C_27
   12  A    between atoms: C_18  and  C_50
   13  A    between atoms: C_20  and  C_30
   14  A    between atoms: C_20  and  N_41
   15  A    between atoms: N_29  and  C_37
   16  A    between atoms: C_31  and  C_50
   17  A    between atoms: C_37  and  C_46
   18  A    between atoms: O_42  and  C_50
                            x       y       z     vdW  Elec       q    Type
                         _______ _______ _______ _____ _____    ______ ____

>  <TORSDO>
F 18

$$$$
