=
 OpenBabel11072413023D

 37 39  0  0  1  0  0  0  0  0999 V2000
  160.9170  209.6460  151.9130 C   0  0  0  0  0  2  0  0  0  0  0  0
  160.5230  210.2610  153.2640 C   0  0  2  0  0  3  0  0  0  0  0  0
  160.2670  211.7790  153.2000 C   0  0  1  0  0  3  0  0  0  0  0  0
  160.2300  212.2420  151.8800 O   0  0  0  0  0  1  0  0  0  0  0  0
  157.9400  213.6070  155.5690 C   0  0  0  0  0  3  0  0  0  0  0  0
  156.7530  211.7920  154.5690 N   0  0  0  0  0  0  0  0  0  0  0  0
  156.7780  212.8470  155.4290 C   0  0  0  0  0  0  0  0  0  0  0  0
  159.0310  212.1790  153.9490 C   0  0  0  0  0  0  0  0  0  0  0  0
  159.0730  213.2660  154.8260 C   0  0  0  0  0  3  0  0  0  0  0  0
  155.5630  213.1980  156.2100 C   0  0  0  0  0  1  0  0  0  0  0  0
  157.8460  211.4410  153.8390 C   0  0  0  0  0  3  0  0  0  0  0  0
  161.4850  209.8660  154.3970 C   0  0  2  0  0  3  0  0  0  0  0  0
  159.4300  207.8590  156.5930 O   0  0  0  0  0  0  0  0  0  0  0  0
  159.5810  208.8860  155.7900 C   0  0  0  0  0  3  0  0  0  0  0  0
  160.8600  208.8320  155.2860 C   0  0  0  0  0  0  0  0  0  0  0  0
  160.5360  207.1520  156.6440 C   0  0  0  0  0  3  0  0  0  0  0  0
  161.4930  207.7330  155.8310 C   0  0  0  0  0  3  0  0  0  0  0  0
  161.8300  210.9890  155.1570 O   0  0  0  0  0  0  0  0  0  0  0  0
  163.1470  210.7630  155.5620 C   0  0  0  0  0  1  0  0  0  0  0  0
  161.0840  208.1390  151.9870 C   0  0  0  0  0  2  0  0  0  0  0  0
  162.1020  207.6960  150.9550 C   0  0  0  0  0  2  0  0  0  0  0  0
  161.8570  207.3740  148.4700 C   0  0  0  0  0  0  0  0  0  0  0  0
  162.8570  208.1120  148.2610 O   0  0  0  0  0  0  0  0  0  0  0  0
  161.1530  206.8230  147.3610 N   0  0  0  0  0  1  0  0  0  0  0  0
  161.4250  207.0980  149.8120 N   0  0  0  0  0  0  0  0  0  0  0  0
  160.2660  206.2520  150.0630 C   0  0  0  0  0  2  0  0  0  0  0  0
  160.8700  202.0240  150.7760 C   0  0  0  0  0  2  0  0  0  0  0  0
  161.4480  202.5590  149.4720 C   0  0  2  0  0  3  0  0  0  0  0  0
  161.2260  202.9900  151.8980 C   0  0  0  0  0  2  0  0  0  0  0  0
  160.7800  203.8950  149.1210 C   0  0  0  0  0  2  0  0  0  0  0  0
  160.8110  204.3980  151.5650 C   0  0  0  0  0  3  0  0  0  0  0  0
  160.6910  204.8370  150.3000 C   0  0  0  0  0  0  0  0  0  0  0  0
  161.2310  201.5390  148.3670 C   0  0  0  0  0  2  0  0  0  0  0  0
  160.8720  202.2280  147.0620 C   0  0  0  0  0  2  0  0  0  0  0  0
  161.1720  199.8280  146.1690 C   0  0  0  0  0  1  0  0  0  0  0  0
  160.6730  201.2170  145.9800 C   0  0  0  0  0  0  0  0  0  0  0  0
  160.1180  201.5280  144.9380 O   0  0  0  0  0  0  0  0  0  0  0  0
  1 20  1  0  0  0  0
  2  1  1  6  0  0  0
  2 12  1  0  0  0  0
  3  4  1  6  0  0  0
  3  2  1  0  0  0  0
  3  8  1  0  0  0  0
  6  7  2  0  0  0  0
  7  5  1  0  0  0  0
  7 10  1  0  0  0  0
  8  9  1  0  0  0  0
  9  5  2  0  0  0  0
 11  8  2  0  0  0  0
 11  6  1  0  0  0  0
 12 18  1  1  0  0  0
 12 15  1  0  0  0  0
 13 16  1  0  0  0  0
 14 13  1  0  0  0  0
 15 14  2  0  0  0  0
 15 17  1  0  0  0  0
 17 16  2  0  0  0  0
 18 19  1  0  0  0  0
 21 20  1  0  0  0  0
 22 25  1  0  0  0  0
 23 22  2  0  0  0  0
 24 22  1  0  0  0  0
 25 26  1  0  0  0  0
 25 21  1  0  0  0  0
 26 32  1  0  0  0  0
 27 29  1  0  0  0  0
 28 33  1  6  0  0  0
 28 27  1  0  0  0  0
 30 28  1  0  0  0  0
 30 32  1  0  0  0  0
 31 29  1  0  0  0  0
 32 31  2  0  0  0  0
 34 33  1  0  0  0  0
 36 35  1  0  0  0  0
 36 34  1  0  0  0  0
 37 36  2  0  0  0  0
M  END
>  <MODEL>
1

>  <REMARK>
 VINA RESULT:      -7.1      0.000      0.000
  Name = 
  14 active torsions:
  status: ('A' for Active; 'I' for Inactive)
    1  A    between atoms: C_1  and  C_2
    2  A    between atoms: C_1  and  C_17
    3  A    between atoms: C_2  and  C_36
    4  A    between atoms: C_2  and  C_37
    5  A    between atoms: C_7  and  C_23
    6  A    between atoms: C_12  and  C_13
    7  A    between atoms: C_12  and  C_23
    8  A    between atoms: C_19  and  C_36
    9  A    between atoms: N_25  and  C_28
   10  A    between atoms: N_25  and  C_32
   11  A    between atoms: O_27  and  C_36
   12  A    between atoms: C_28  and  C_35
   13  A    between atoms: C_32  and  C_34
   14  A    between atoms: C_35  and  C_37
                            x       y       z     vdW  Elec       q    Type
                         _______ _______ _______ _____ _____    ______ ____

>  <TORSDO>
F 14

$$$$
=
 OpenBabel11072413023D

 37 39  0  0  1  0  0  0  0  0999 V2000
  161.3800  207.7900  153.2050 C   0  0  0  0  0  2  0  0  0  0  0  0
  160.6430  208.9470  153.8970 C   0  0  2  0  0  3  0  0  0  0  0  0
  161.2410  210.3320  153.5900 C   0  0  1  0  0  3  0  0  0  0  0  0
  162.4270  210.2320  152.8540 O   0  0  0  0  0  1  0  0  0  0  0  0
  159.7830  212.9550  151.2730 C   0  0  0  0  0  3  0  0  0  0  0  0
  158.0660  212.1850  152.7450 N   0  0  0  0  0  0  0  0  0  0  0  0
  158.4660  213.0030  151.7320 C   0  0  0  0  0  0  0  0  0  0  0  0
  160.2570  211.2380  152.9110 C   0  0  0  0  0  0  0  0  0  0  0  0
  160.6830  212.0690  151.8710 C   0  0  0  0  0  3  0  0  0  0  0  0
  157.4950  213.9380  151.1070 C   0  0  0  0  0  1  0  0  0  0  0  0
  158.9270  211.3180  153.3420 C   0  0  0  0  0  3  0  0  0  0  0  0
  160.4430  208.7040  155.4020 C   0  0  2  0  0  3  0  0  0  0  0  0
  161.3390  211.6740  157.2600 O   0  0  0  0  0  0  0  0  0  0  0  0
  160.4360  210.9060  156.6970 C   0  0  0  0  0  3  0  0  0  0  0  0
  161.0840  209.7980  156.2040 C   0  0  0  0  0  0  0  0  0  0  0  0
  162.5310  211.1330  157.1520 C   0  0  0  0  0  3  0  0  0  0  0  0
  162.4310  209.9300  156.4760 C   0  0  0  0  0  3  0  0  0  0  0  0
  160.9890  207.4710  155.7750 O   0  0  0  0  0  0  0  0  0  0  0  0
  160.1550  206.9950  156.7890 C   0  0  0  0  0  1  0  0  0  0  0  0
  160.7600  207.4200  151.8700 C   0  0  0  0  0  2  0  0  0  0  0  0
  161.7740  207.6430  150.7670 C   0  0  0  0  0  2  0  0  0  0  0  0
  162.1020  207.0540  148.3410 C   0  0  0  0  0  0  0  0  0  0  0  0
  163.1040  207.8160  148.2770 O   0  0  0  0  0  0  0  0  0  0  0  0
  161.6800  206.3560  147.1730 N   0  0  0  0  0  1  0  0  0  0  0  0
  161.3870  206.8970  149.5770 N   0  0  0  0  0  0  0  0  0  0  0  0
  160.2230  206.0250  149.6590 C   0  0  0  0  0  2  0  0  0  0  0  0
  160.8300  201.8240  150.5180 C   0  0  0  0  0  2  0  0  0  0  0  0
  161.1690  202.2590  149.0980 C   0  0  2  0  0  3  0  0  0  0  0  0
  161.4170  202.8390  151.4900 C   0  0  0  0  0  2  0  0  0  0  0  0
  160.4850  203.5980  148.7910 C   0  0  0  0  0  2  0  0  0  0  0  0
  160.9870  204.2400  151.1500 C   0  0  0  0  0  3  0  0  0  0  0  0
  160.6450  204.6100  149.9040 C   0  0  0  0  0  0  0  0  0  0  0  0
  160.7190  201.1860  148.1200 C   0  0  0  0  0  2  0  0  0  0  0  0
  161.5710  201.2130  146.8630 C   0  0  0  0  0  2  0  0  0  0  0  0
  159.7020  201.3700  145.0940 C   0  0  0  0  0  1  0  0  0  0  0  0
  160.8760  201.9740  145.7820 C   0  0  0  0  0  0  0  0  0  0  0  0
  161.2730  203.0790  145.4500 O   0  0  0  0  0  0  0  0  0  0  0  0
  2  1  1  1  0  0  0
  2 12  1  0  0  0  0
  3  4  1  6  0  0  0
  3  2  1  0  0  0  0
  5  7  2  0  0  0  0
  5  9  1  0  0  0  0
  6 11  2  0  0  0  0
  7  6  1  0  0  0  0
  8 11  1  0  0  0  0
  8  3  1  0  0  0  0
  9  8  2  0  0  0  0
 10  7  1  0  0  0  0
 12 18  1  1  0  0  0
 12 15  1  0  0  0  0
 14 13  1  0  0  0  0
 15 17  1  0  0  0  0
 15 14  2  0  0  0  0
 16 13  1  0  0  0  0
 17 16  2  0  0  0  0
 18 19  1  0  0  0  0
 20  1  1  0  0  0  0
 21 20  1  0  0  0  0
 22 25  1  0  0  0  0
 23 22  2  0  0  0  0
 24 22  1  0  0  0  0
 25 26  1  0  0  0  0
 25 21  1  0  0  0  0
 26 32  1  0  0  0  0
 27 29  1  0  0  0  0
 28 33  1  6  0  0  0
 28 27  1  0  0  0  0
 30 28  1  0  0  0  0
 30 32  1  0  0  0  0
 31 29  1  0  0  0  0
 32 31  2  0  0  0  0
 34 33  1  0  0  0  0
 35 36  1  0  0  0  0
 36 34  1  0  0  0  0
 37 36  2  0  0  0  0
M  END
>  <MODEL>
2

>  <REMARK>
 VINA RESULT:      -6.6      1.652      2.450
  Name = 
  14 active torsions:
  status: ('A' for Active; 'I' for Inactive)
    1  A    between atoms: C_1  and  C_2
    2  A    between atoms: C_1  and  C_17
    3  A    between atoms: C_2  and  C_36
    4  A    between atoms: C_2  and  C_37
    5  A    between atoms: C_7  and  C_23
    6  A    between atoms: C_12  and  C_13
    7  A    between atoms: C_12  and  C_23
    8  A    between atoms: C_19  and  C_36
    9  A    between atoms: N_25  and  C_28
   10  A    between atoms: N_25  and  C_32
   11  A    between atoms: O_27  and  C_36
   12  A    between atoms: C_28  and  C_35
   13  A    between atoms: C_32  and  C_34
   14  A    between atoms: C_35  and  C_37
                            x       y       z     vdW  Elec       q    Type
                         _______ _______ _______ _____ _____    ______ ____

>  <TORSDO>
F 14

$$$$
=
 OpenBabel11072413023D

 37 39  0  0  1  0  0  0  0  0999 V2000
  159.3880  212.5060  153.2550 C   0  0  0  0  0  2  0  0  0  0  0  0
  158.2580  213.1820  152.4660 C   0  0  2  0  0  3  0  0  0  0  0  0
  158.7560  214.2010  151.4240 C   0  0  1  0  0  3  0  0  0  0  0  0
  160.1250  214.4530  151.5600 O   0  0  0  0  0  1  0  0  0  0  0  0
  156.8490  212.8370  148.4450 C   0  0  0  0  0  3  0  0  0  0  0  0
  159.0550  213.4270  147.7450 N   0  0  0  0  0  0  0  0  0  0  0  0
  157.8260  212.9190  147.4520 C   0  0  0  0  0  0  0  0  0  0  0  0
  158.4170  213.7910  150.0210 C   0  0  0  0  0  0  0  0  0  0  0  0
  157.1500  213.2730  149.7370 C   0  0  0  0  0  3  0  0  0  0  0  0
  157.5220  212.4610  146.0710 C   0  0  0  0  0  1  0  0  0  0  0  0
  159.3690  213.8540  148.9970 C   0  0  0  0  0  3  0  0  0  0  0  0
  157.1580  213.7520  153.3780 C   0  0  2  0  0  3  0  0  0  0  0  0
  157.0870  212.1490  156.6190 O   0  0  0  0  0  0  0  0  0  0  0  0
  157.3360  213.1940  155.8640 C   0  0  0  0  0  3  0  0  0  0  0  0
  156.9620  212.8760  154.5800 C   0  0  0  0  0  0  0  0  0  0  0  0
  156.5830  211.1740  155.8960 C   0  0  0  0  0  3  0  0  0  0  0  0
  156.4860  211.5800  154.5780 C   0  0  0  0  0  3  0  0  0  0  0  0
  155.9520  213.8610  152.6780 O   0  0  0  0  0  0  0  0  0  0  0  0
  155.0610  214.4520  153.5760 C   0  0  0  0  0  1  0  0  0  0  0  0
  159.7750  211.1570  152.6780 C   0  0  0  0  0  2  0  0  0  0  0  0
  161.1770  210.8000  153.1320 C   0  0  0  0  0  2  0  0  0  0  0  0
  161.9240  209.8720  155.3490 C   0  0  0  0  0  0  0  0  0  0  0  0
  162.6690  210.8720  155.5330 O   0  0  0  0  0  0  0  0  0  0  0  0
  161.8950  208.8360  156.3260 N   0  0  0  0  0  1  0  0  0  0  0  0
  161.1190  209.7740  154.1640 N   0  0  0  0  0  0  0  0  0  0  0  0
  160.2610  208.6180  153.9400 C   0  0  0  0  0  2  0  0  0  0  0  0
  161.4650  205.6570  151.0190 C   0  0  0  0  0  2  0  0  0  0  0  0
  161.5200  207.1040  150.5470 C   0  0  2  0  0  3  0  0  0  0  0  0
  162.0830  205.5750  152.4080 C   0  0  0  0  0  2  0  0  0  0  0  0
  160.6500  207.9780  151.4600 C   0  0  0  0  0  2  0  0  0  0  0  0
  161.4500  206.5610  153.3530 C   0  0  0  0  0  3  0  0  0  0  0  0
  160.8720  207.6990  152.9290 C   0  0  0  0  0  0  0  0  0  0  0  0
  161.0430  207.1840  149.1070 C   0  0  0  0  0  2  0  0  0  0  0  0
  162.1590  206.8070  148.1480 C   0  0  0  0  0  2  0  0  0  0  0  0
  161.7370  204.3260  147.5900 C   0  0  0  0  0  1  0  0  0  0  0  0
  161.6900  205.7600  147.1930 C   0  0  0  0  0  0  0  0  0  0  0  0
  161.2830  206.0710  146.0850 O   0  0  0  0  0  0  0  0  0  0  0  0
  2  1  1  1  0  0  0
  2 12  1  0  0  0  0
  3  4  1  6  0  0  0
  3  2  1  0  0  0  0
  5  9  1  0  0  0  0
  6 11  2  0  0  0  0
  7  6  1  0  0  0  0
  7  5  2  0  0  0  0
  8  3  1  0  0  0  0
  9  8  2  0  0  0  0
 10  7  1  0  0  0  0
 11  8  1  0  0  0  0
 12 18  1  6  0  0  0
 12 15  1  0  0  0  0
 14 13  1  0  0  0  0
 15 14  2  0  0  0  0
 16 13  1  0  0  0  0
 17 15  1  0  0  0  0
 17 16  2  0  0  0  0
 18 19  1  0  0  0  0
 20 21  1  0  0  0  0
 20  1  1  0  0  0  0
 21 25  1  0  0  0  0
 22 23  2  0  0  0  0
 22 24  1  0  0  0  0
 25 22  1  0  0  0  0
 26 25  1  0  0  0  0
 27 29  1  0  0  0  0
 28 33  1  6  0  0  0
 28 27  1  0  0  0  0
 28 30  1  0  0  0  0
 29 31  1  0  0  0  0
 30 32  1  0  0  0  0
 32 31  2  0  0  0  0
 32 26  1  0  0  0  0
 34 33  1  0  0  0  0
 36 35  1  0  0  0  0
 36 34  1  0  0  0  0
 37 36  2  0  0  0  0
M  END
>  <MODEL>
3

>  <REMARK>
 VINA RESULT:      -5.9      3.364      5.714
  Name = 
  14 active torsions:
  status: ('A' for Active; 'I' for Inactive)
    1  A    between atoms: C_1  and  C_2
    2  A    between atoms: C_1  and  C_17
    3  A    between atoms: C_2  and  C_36
    4  A    between atoms: C_2  and  C_37
    5  A    between atoms: C_7  and  C_23
    6  A    between atoms: C_12  and  C_13
    7  A    between atoms: C_12  and  C_23
    8  A    between atoms: C_19  and  C_36
    9  A    between atoms: N_25  and  C_28
   10  A    between atoms: N_25  and  C_32
   11  A    between atoms: O_27  and  C_36
   12  A    between atoms: C_28  and  C_35
   13  A    between atoms: C_32  and  C_34
   14  A    between atoms: C_35  and  C_37
                            x       y       z     vdW  Elec       q    Type
                         _______ _______ _______ _____ _____    ______ ____

>  <TORSDO>
F 14

$$$$
=
 OpenBabel11072413023D

 37 39  0  0  1  0  0  0  0  0999 V2000
  159.8120  210.0540  152.8670 C   0  0  0  0  0  2  0  0  0  0  0  0
  159.9540  210.5710  154.3060 C   0  0  2  0  0  3  0  0  0  0  0  0
  159.7890  212.0970  154.4330 C   0  0  1  0  0  3  0  0  0  0  0  0
  159.8470  212.7290  153.1860 O   0  0  0  0  0  1  0  0  0  0  0  0
  156.6780  211.8460  156.5840 C   0  0  0  0  0  3  0  0  0  0  0  0
  156.8320  214.0620  155.7040 N   0  0  0  0  0  0  0  0  0  0  0  0
  156.1650  213.1370  156.4500 C   0  0  0  0  0  0  0  0  0  0  0  0
  158.5410  212.4750  155.1740 C   0  0  0  0  0  0  0  0  0  0  0  0
  157.8710  211.5140  155.9380 C   0  0  0  0  0  3  0  0  0  0  0  0
  154.8980  213.5080  157.1320 C   0  0  0  0  0  1  0  0  0  0  0  0
  157.9930  213.7590  155.0650 C   0  0  0  0  0  3  0  0  0  0  0  0
  161.2230  210.0490  155.0000 C   0  0  2  0  0  3  0  0  0  0  0  0
  160.6830  206.7080  156.2720 O   0  0  0  0  0  0  0  0  0  0  0  0
  161.1560  207.5210  155.3560 C   0  0  0  0  0  3  0  0  0  0  0  0
  160.9240  208.8070  155.7850 C   0  0  0  0  0  0  0  0  0  0  0  0
  160.1510  207.3920  157.2600 C   0  0  0  0  0  3  0  0  0  0  0  0
  160.2710  208.7460  157.0000 C   0  0  0  0  0  3  0  0  0  0  0  0
  161.7500  211.0250  155.8520 O   0  0  0  0  0  0  0  0  0  0  0  0
  163.1140  210.7400  155.9340 C   0  0  0  0  0  1  0  0  0  0  0  0
  161.0560  209.3310  152.3820 C   0  0  0  0  0  2  0  0  0  0  0  0
  160.6470  208.1140  151.5780 C   0  0  0  0  0  2  0  0  0  0  0  0
  162.2610  208.0040  149.6490 C   0  0  0  0  0  0  0  0  0  0  0  0
  161.6690  208.9590  149.0790 O   0  0  0  0  0  0  0  0  0  0  0  0
  163.3730  207.3890  149.0040 N   0  0  0  0  0  1  0  0  0  0  0  0
  161.8140  207.5310  150.9290 N   0  0  0  0  0  0  0  0  0  0  0  0
  162.4880  206.4220  151.5910 C   0  0  0  0  0  2  0  0  0  0  0  0
  160.3770  202.9260  150.1520 C   0  0  0  0  0  2  0  0  0  0  0  0
  161.4700  203.4570  149.2340 C   0  0  2  0  0  3  0  0  0  0  0  0
  160.9130  202.8940  151.5770 C   0  0  0  0  0  2  0  0  0  0  0  0
  161.7970  204.9090  149.6060 C   0  0  0  0  0  2  0  0  0  0  0  0
  161.4730  204.2300  151.9860 C   0  0  0  0  0  3  0  0  0  0  0  0
  161.9560  205.1140  151.0950 C   0  0  0  0  0  0  0  0  0  0  0  0
  161.0070  203.3590  147.7890 C   0  0  0  0  0  2  0  0  0  0  0  0
  161.9440  204.1260  146.8720 C   0  0  0  0  0  2  0  0  0  0  0  0
  160.7380  204.5790  144.6380 C   0  0  0  0  0  1  0  0  0  0  0  0
  161.1650  205.0430  145.9860 C   0  0  0  0  0  0  0  0  0  0  0  0
  160.8920  206.1740  146.3560 O   0  0  0  0  0  0  0  0  0  0  0  0
  2  1  1  6  0  0  0
  2  3  1  0  0  0  0
  2 12  1  0  0  0  0
  3  4  1  6  0  0  0
  3  8  1  0  0  0  0
  6  7  2  0  0  0  0
  7  5  1  0  0  0  0
  7 10  1  0  0  0  0
  8  9  1  0  0  0  0
  9  5  2  0  0  0  0
 11  8  2  0  0  0  0
 11  6  1  0  0  0  0
 12 15  1  0  0  0  0
 12 18  1  1  0  0  0
 13 16  1  0  0  0  0
 14 15  2  0  0  0  0
 14 13  1  0  0  0  0
 15 17  1  0  0  0  0
 17 16  2  0  0  0  0
 18 19  1  0  0  0  0
 20  1  1  0  0  0  0
 21 20  1  0  0  0  0
 22 25  1  0  0  0  0
 23 22  2  0  0  0  0
 24 22  1  0  0  0  0
 25 21  1  0  0  0  0
 25 26  1  0  0  0  0
 27 29  1  0  0  0  0
 28 33  1  6  0  0  0
 28 30  1  0  0  0  0
 28 27  1  0  0  0  0
 29 31  1  0  0  0  0
 30 32  1  0  0  0  0
 32 26  1  0  0  0  0
 32 31  2  0  0  0  0
 34 33  1  0  0  0  0
 35 36  1  0  0  0  0
 36 37  2  0  0  0  0
 36 34  1  0  0  0  0
M  END
>  <MODEL>
4

>  <REMARK>
 VINA RESULT:      -5.9      1.685      2.059
  Name = 
  14 active torsions:
  status: ('A' for Active; 'I' for Inactive)
    1  A    between atoms: C_1  and  C_2
    2  A    between atoms: C_1  and  C_17
    3  A    between atoms: C_2  and  C_36
    4  A    between atoms: C_2  and  C_37
    5  A    between atoms: C_7  and  C_23
    6  A    between atoms: C_12  and  C_13
    7  A    between atoms: C_12  and  C_23
    8  A    between atoms: C_19  and  C_36
    9  A    between atoms: N_25  and  C_28
   10  A    between atoms: N_25  and  C_32
   11  A    between atoms: O_27  and  C_36
   12  A    between atoms: C_28  and  C_35
   13  A    between atoms: C_32  and  C_34
   14  A    between atoms: C_35  and  C_37
                            x       y       z     vdW  Elec       q    Type
                         _______ _______ _______ _____ _____    ______ ____

>  <TORSDO>
F 14

$$$$
=
 OpenBabel11072413023D

 37 39  0  0  1  0  0  0  0  0999 V2000
  160.1460  210.7640  152.4220 C   0  0  0  0  0  2  0  0  0  0  0  0
  159.1050  211.6900  153.0680 C   0  0  2  0  0  3  0  0  0  0  0  0
  159.1070  213.1180  152.4910 C   0  0  1  0  0  3  0  0  0  0  0  0
  160.2490  213.3640  151.7220 O   0  0  0  0  0  1  0  0  0  0  0  0
  156.7000  213.5840  149.6000 C   0  0  0  0  0  3  0  0  0  0  0  0
  155.6160  214.2500  151.6220 N   0  0  0  0  0  0  0  0  0  0  0  0
  155.5860  214.0930  150.2700 C   0  0  0  0  0  0  0  0  0  0  0  0
  157.8570  213.4200  151.7180 C   0  0  0  0  0  0  0  0  0  0  0  0
  157.8430  213.2500  150.3310 C   0  0  0  0  0  3  0  0  0  0  0  0
  154.3610  214.4510  149.5070 C   0  0  0  0  0  1  0  0  0  0  0  0
  156.7190  213.9340  152.3510 C   0  0  0  0  0  3  0  0  0  0  0  0
  159.1660  211.6680  154.6050 C   0  0  2  0  0  3  0  0  0  0  0  0
  155.7140  211.5420  155.6750 O   0  0  0  0  0  0  0  0  0  0  0  0
  156.7670  210.9700  155.1390 C   0  0  0  0  0  3  0  0  0  0  0  0
  157.8010  211.8760  155.1910 C   0  0  0  0  0  0  0  0  0  0  0  0
  156.0040  212.7640  156.0600 C   0  0  0  0  0  3  0  0  0  0  0  0
  157.3280  213.0380  155.7690 C   0  0  0  0  0  3  0  0  0  0  0  0
  160.0310  212.6620  155.0730 O   0  0  0  0  0  0  0  0  0  0  0  0
  160.6680  212.0980  156.1810 C   0  0  0  0  0  1  0  0  0  0  0  0
  160.7640  209.7990  153.4180 C   0  0  0  0  0  2  0  0  0  0  0  0
  160.4220  208.3780  153.0180 C   0  0  0  0  0  2  0  0  0  0  0  0
  160.2420  207.6300  155.4150 C   0  0  0  0  0  0  0  0  0  0  0  0
  159.4280  208.5600  155.6600 O   0  0  0  0  0  0  0  0  0  0  0  0
  160.6370  206.7550  156.4680 N   0  0  0  0  0  1  0  0  0  0  0  0
  160.7750  207.4600  154.0930 N   0  0  0  0  0  0  0  0  0  0  0  0
  161.7240  206.3920  153.8030 C   0  0  0  0  0  2  0  0  0  0  0  0
  160.4300  204.9680  149.9240 C   0  0  0  0  0  2  0  0  0  0  0  0
  161.5150  206.0370  149.9020 C   0  0  2  0  0  3  0  0  0  0  0  0
  160.7930  203.9290  150.9760 C   0  0  0  0  0  2  0  0  0  0  0  0
  161.5400  206.7740  151.2470 C   0  0  0  0  0  2  0  0  0  0  0  0
  161.0630  204.5670  152.3120 C   0  0  0  0  0  3  0  0  0  0  0  0
  161.4870  205.8380  152.4330 C   0  0  0  0  0  0  0  0  0  0  0  0
  161.2470  207.0050  148.7610 C   0  0  0  0  0  2  0  0  0  0  0  0
  162.2830  206.8400  147.6620 C   0  0  0  0  0  2  0  0  0  0  0  0
  162.6860  205.2200  145.6970 C   0  0  0  0  0  1  0  0  0  0  0  0
  161.7460  205.9780  146.5680 C   0  0  0  0  0  0  0  0  0  0  0  0
  160.5430  205.9020  146.3750 O   0  0  0  0  0  0  0  0  0  0  0  0
  1 20  1  0  0  0  0
  2  1  1  6  0  0  0
  2 12  1  0  0  0  0
  3  4  1  6  0  0  0
  3  2  1  0  0  0  0
  5  7  2  0  0  0  0
  5  9  1  0  0  0  0
  6 11  2  0  0  0  0
  7  6  1  0  0  0  0
  8 11  1  0  0  0  0
  8  3  1  0  0  0  0
  9  8  2  0  0  0  0
 10  7  1  0  0  0  0
 12 18  1  1  0  0  0
 12 15  1  0  0  0  0
 13 16  1  0  0  0  0
 14 15  2  0  0  0  0
 14 13  1  0  0  0  0
 15 17  1  0  0  0  0
 17 16  2  0  0  0  0
 18 19  1  0  0  0  0
 21 20  1  0  0  0  0
 21 25  1  0  0  0  0
 22 23  2  0  0  0  0
 22 24  1  0  0  0  0
 25 22  1  0  0  0  0
 26 25  1  0  0  0  0
 27 29  1  0  0  0  0
 28 33  1  6  0  0  0
 28 27  1  0  0  0  0
 28 30  1  0  0  0  0
 29 31  1  0  0  0  0
 30 32  1  0  0  0  0
 31 32  2  0  0  0  0
 32 26  1  0  0  0  0
 34 33  1  0  0  0  0
 35 36  1  0  0  0  0
 36 34  1  0  0  0  0
 37 36  2  0  0  0  0
M  END
>  <MODEL>
5

>  <REMARK>
 VINA RESULT:      -5.9      2.879      4.605
  Name = 
  14 active torsions:
  status: ('A' for Active; 'I' for Inactive)
    1  A    between atoms: C_1  and  C_2
    2  A    between atoms: C_1  and  C_17
    3  A    between atoms: C_2  and  C_36
    4  A    between atoms: C_2  and  C_37
    5  A    between atoms: C_7  and  C_23
    6  A    between atoms: C_12  and  C_13
    7  A    between atoms: C_12  and  C_23
    8  A    between atoms: C_19  and  C_36
    9  A    between atoms: N_25  and  C_28
   10  A    between atoms: N_25  and  C_32
   11  A    between atoms: O_27  and  C_36
   12  A    between atoms: C_28  and  C_35
   13  A    between atoms: C_32  and  C_34
   14  A    between atoms: C_35  and  C_37
                            x       y       z     vdW  Elec       q    Type
                         _______ _______ _______ _____ _____    ______ ____

>  <TORSDO>
F 14

$$$$
=
 OpenBabel11072413023D

 37 39  0  0  1  0  0  0  0  0999 V2000
  160.8370  208.3120  151.9480 C   0  0  0  0  0  2  0  0  0  0  0  0
  160.6170  209.8080  152.2160 C   0  0  2  0  0  3  0  0  0  0  0  0
  161.7990  210.6950  151.7830 C   0  0  1  0  0  3  0  0  0  0  0  0
  162.9730  209.9490  151.6230 O   0  0  0  0  0  1  0  0  0  0  0  0
  160.2740  213.2820  149.4690 C   0  0  0  0  0  3  0  0  0  0  0  0
  161.6840  211.8380  148.1910 N   0  0  0  0  0  0  0  0  0  0  0  0
  160.8240  212.8930  148.2470 C   0  0  0  0  0  0  0  0  0  0  0  0
  161.4910  211.4910  150.5500 C   0  0  0  0  0  0  0  0  0  0  0  0
  160.6080  212.5730  150.6260 C   0  0  0  0  0  3  0  0  0  0  0  0
  160.4810  213.6380  147.0080 C   0  0  0  0  0  1  0  0  0  0  0  0
  162.0200  211.1330  149.3040 C   0  0  0  0  0  3  0  0  0  0  0  0
  160.1570  210.0890  153.6560 C   0  0  2  0  0  3  0  0  0  0  0  0
  158.7320  213.3400  154.3480 O   0  0  0  0  0  0  0  0  0  0  0  0
  159.7010  212.4640  154.4790 C   0  0  0  0  0  3  0  0  0  0  0  0
  159.3710  211.3650  153.7220 C   0  0  0  0  0  0  0  0  0  0  0  0
  157.7920  212.8670  153.5600 C   0  0  0  0  0  3  0  0  0  0  0  0
  158.1440  211.5990  153.1330 C   0  0  0  0  0  3  0  0  0  0  0  0
  161.2610  210.1770  154.5120 O   0  0  0  0  0  0  0  0  0  0  0  0
  161.0670  209.1710  155.4610 C   0  0  0  0  0  1  0  0  0  0  0  0
  161.1690  208.0250  150.4940 C   0  0  0  0  0  2  0  0  0  0  0  0
  161.9530  206.7310  150.4050 C   0  0  0  0  0  2  0  0  0  0  0  0
  161.7230  205.2780  152.4490 C   0  0  0  0  0  0  0  0  0  0  0  0
  162.7060  205.8530  152.9870 O   0  0  0  0  0  0  0  0  0  0  0  0
  161.0730  204.2150  153.1400 N   0  0  0  0  0  1  0  0  0  0  0  0
  161.2670  205.6810  151.1480 N   0  0  0  0  0  0  0  0  0  0  0  0
  160.1360  205.0160  150.5150 C   0  0  0  0  0  2  0  0  0  0  0  0
  160.8990  201.7560  147.7700 C   0  0  0  0  0  2  0  0  0  0  0  0
  161.7260  203.0140  147.5410 C   0  0  2  0  0  3  0  0  0  0  0  0
  160.8950  201.4420  149.2600 C   0  0  0  0  0  2  0  0  0  0  0  0
  161.0540  204.2070  148.2320 C   0  0  0  0  0  2  0  0  0  0  0  0
  160.4570  202.6300  150.0730 C   0  0  0  0  0  3  0  0  0  0  0  0
  160.6070  203.8950  149.6420 C   0  0  0  0  0  0  0  0  0  0  0  0
  161.8650  203.2620  146.0480 C   0  0  0  0  0  2  0  0  0  0  0  0
  162.3110  204.6890  145.7780 C   0  0  0  0  0  2  0  0  0  0  0  0
  160.4280  206.4230  145.4700 C   0  0  0  0  0  1  0  0  0  0  0  0
  161.3250  205.3820  144.8970 C   0  0  0  0  0  0  0  0  0  0  0  0
  161.2400  205.0890  143.7150 O   0  0  0  0  0  0  0  0  0  0  0  0
  2  1  1  1  0  0  0
  2 12  1  0  0  0  0
  3  4  1  6  0  0  0
  3  2  1  0  0  0  0
  5  9  1  0  0  0  0
  6  7  1  0  0  0  0
  6 11  2  0  0  0  0
  7  5  2  0  0  0  0
  8  9  2  0  0  0  0
  8  3  1  0  0  0  0
 10  7  1  0  0  0  0
 11  8  1  0  0  0  0
 12 15  1  0  0  0  0
 12 18  1  1  0  0  0
 13 14  1  0  0  0  0
 15 14  2  0  0  0  0
 16 13  1  0  0  0  0
 17 16  2  0  0  0  0
 17 15  1  0  0  0  0
 18 19  1  0  0  0  0
 20  1  1  0  0  0  0
 21 20  1  0  0  0  0
 21 25  1  0  0  0  0
 22 23  2  0  0  0  0
 22 24  1  0  0  0  0
 25 22  1  0  0  0  0
 26 25  1  0  0  0  0
 27 29  1  0  0  0  0
 28 33  1  6  0  0  0
 28 27  1  0  0  0  0
 28 30  1  0  0  0  0
 29 31  1  0  0  0  0
 30 32  1  0  0  0  0
 32 31  2  0  0  0  0
 32 26  1  0  0  0  0
 34 33  1  0  0  0  0
 36 35  1  0  0  0  0
 36 34  1  0  0  0  0
 37 36  2  0  0  0  0
M  END
>  <MODEL>
6

>  <REMARK>
 VINA RESULT:      -5.8      2.731      4.540
  Name = 
  14 active torsions:
  status: ('A' for Active; 'I' for Inactive)
    1  A    between atoms: C_1  and  C_2
    2  A    between atoms: C_1  and  C_17
    3  A    between atoms: C_2  and  C_36
    4  A    between atoms: C_2  and  C_37
    5  A    between atoms: C_7  and  C_23
    6  A    between atoms: C_12  and  C_13
    7  A    between atoms: C_12  and  C_23
    8  A    between atoms: C_19  and  C_36
    9  A    between atoms: N_25  and  C_28
   10  A    between atoms: N_25  and  C_32
   11  A    between atoms: O_27  and  C_36
   12  A    between atoms: C_28  and  C_35
   13  A    between atoms: C_32  and  C_34
   14  A    between atoms: C_35  and  C_37
                            x       y       z     vdW  Elec       q    Type
                         _______ _______ _______ _____ _____    ______ ____

>  <TORSDO>
F 14

$$$$
=
 OpenBabel11072413023D

 37 39  0  0  1  0  0  0  0  0999 V2000
  161.2660  208.4770  154.2530 C   0  0  0  0  0  2  0  0  0  0  0  0
  160.7570  209.8930  154.5620 C   0  0  2  0  0  3  0  0  0  0  0  0
  161.2890  210.9660  153.5930 C   0  0  1  0  0  3  0  0  0  0  0  0
  162.2430  210.4410  152.7140 O   0  0  0  0  0  1  0  0  0  0  0  0
  159.4520  212.9950  150.9700 C   0  0  0  0  0  3  0  0  0  0  0  0
  157.9160  212.3950  152.6980 N   0  0  0  0  0  0  0  0  0  0  0  0
  158.1710  213.0340  151.5230 C   0  0  0  0  0  0  0  0  0  0  0  0
  160.1850  211.6550  152.8460 C   0  0  0  0  0  0  0  0  0  0  0  0
  160.4640  212.3040  151.6400 C   0  0  0  0  0  3  0  0  0  0  0  0
  157.0820  213.7630  150.8220 C   0  0  0  0  0  1  0  0  0  0  0  0
  158.8870  211.7200  153.3680 C   0  0  0  0  0  3  0  0  0  0  0  0
  160.9420  210.2790  156.0390 C   0  0  2  0  0  3  0  0  0  0  0  0
  157.7580  211.7440  156.9310 O   0  0  0  0  0  0  0  0  0  0  0  0
  158.4760  210.7170  156.5400 C   0  0  0  0  0  3  0  0  0  0  0  0
  159.7910  211.1160  156.5150 C   0  0  0  0  0  0  0  0  0  0  0  0
  158.5310  212.7840  157.1490 C   0  0  0  0  0  3  0  0  0  0  0  0
  159.8470  212.4430  156.8920 C   0  0  0  0  0  3  0  0  0  0  0  0
  162.1360  210.9870  156.2120 O   0  0  0  0  0  0  0  0  0  0  0  0
  162.8900  210.2160  157.1000 C   0  0  0  0  0  1  0  0  0  0  0  0
  160.5370  207.8380  153.0850 C   0  0  0  0  0  2  0  0  0  0  0  0
  161.4700  206.8770  152.3760 C   0  0  0  0  0  2  0  0  0  0  0  0
  162.0490  207.7060  150.0710 C   0  0  0  0  0  0  0  0  0  0  0  0
  163.0230  208.3570  150.5330 O   0  0  0  0  0  0  0  0  0  0  0  0
  161.7650  207.7720  148.6760 N   0  0  0  0  0  1  0  0  0  0  0  0
  161.2250  206.9140  150.9410 N   0  0  0  0  0  0  0  0  0  0  0  0
  160.0910  206.1650  150.4160 C   0  0  0  0  0  2  0  0  0  0  0  0
  160.7490  202.1760  148.8650 C   0  0  0  0  0  2  0  0  0  0  0  0
  161.4950  203.2910  148.1450 C   0  0  2  0  0  3  0  0  0  0  0  0
  160.8920  202.3850  150.3670 C   0  0  0  0  0  2  0  0  0  0  0  0
  160.8360  204.6400  148.4590 C   0  0  0  0  0  2  0  0  0  0  0  0
  160.4760  203.7740  150.7720 C   0  0  0  0  0  3  0  0  0  0  0  0
  160.5310  204.8200  149.9290 C   0  0  0  0  0  0  0  0  0  0  0  0
  161.4880  203.0200  146.6500 C   0  0  0  0  0  2  0  0  0  0  0  0
  162.0010  204.2260  145.8820 C   0  0  0  0  0  2  0  0  0  0  0  0
  160.4530  206.1930  145.2650 C   0  0  0  0  0  1  0  0  0  0  0  0
  160.9150  204.7970  145.0310 C   0  0  0  0  0  0  0  0  0  0  0  0
  160.3960  204.1230  144.1560 O   0  0  0  0  0  0  0  0  0  0  0  0
  2  1  1  1  0  0  0
  2 12  1  0  0  0  0
  3  4  1  6  0  0  0
  3  2  1  0  0  0  0
  5  7  2  0  0  0  0
  5  9  1  0  0  0  0
  6 11  2  0  0  0  0
  7  6  1  0  0  0  0
  8 11  1  0  0  0  0
  8  3  1  0  0  0  0
  9  8  2  0  0  0  0
 10  7  1  0  0  0  0
 12 18  1  6  0  0  0
 12 15  1  0  0  0  0
 13 16  1  0  0  0  0
 14 13  1  0  0  0  0
 15 14  2  0  0  0  0
 15 17  1  0  0  0  0
 17 16  2  0  0  0  0
 18 19  1  0  0  0  0
 20  1  1  0  0  0  0
 21 20  1  0  0  0  0
 22 23  2  0  0  0  0
 22 25  1  0  0  0  0
 24 22  1  0  0  0  0
 25 21  1  0  0  0  0
 26 25  1  0  0  0  0
 27 29  1  0  0  0  0
 28 33  1  6  0  0  0
 28 30  1  0  0  0  0
 28 27  1  0  0  0  0
 29 31  1  0  0  0  0
 30 32  1  0  0  0  0
 32 26  1  0  0  0  0
 32 31  2  0  0  0  0
 34 33  1  0  0  0  0
 36 35  1  0  0  0  0
 36 34  1  0  0  0  0
 37 36  2  0  0  0  0
M  END
>  <MODEL>
7

>  <REMARK>
 VINA RESULT:      -5.8      2.013      2.928
  Name = 
  14 active torsions:
  status: ('A' for Active; 'I' for Inactive)
    1  A    between atoms: C_1  and  C_2
    2  A    between atoms: C_1  and  C_17
    3  A    between atoms: C_2  and  C_36
    4  A    between atoms: C_2  and  C_37
    5  A    between atoms: C_7  and  C_23
    6  A    between atoms: C_12  and  C_13
    7  A    between atoms: C_12  and  C_23
    8  A    between atoms: C_19  and  C_36
    9  A    between atoms: N_25  and  C_28
   10  A    between atoms: N_25  and  C_32
   11  A    between atoms: O_27  and  C_36
   12  A    between atoms: C_28  and  C_35
   13  A    between atoms: C_32  and  C_34
   14  A    between atoms: C_35  and  C_37
                            x       y       z     vdW  Elec       q    Type
                         _______ _______ _______ _____ _____    ______ ____

>  <TORSDO>
F 14

$$$$
=
 OpenBabel11072413023D

 37 39  0  0  1  0  0  0  0  0999 V2000
  161.0080  207.3880  153.1820 C   0  0  0  0  0  2  0  0  0  0  0  0
  161.1950  206.9070  151.7360 C   0  0  2  0  0  3  0  0  0  0  0  0
  162.2700  205.8140  151.5820 C   0  0  1  0  0  3  0  0  0  0  0  0
  162.9990  205.6370  152.7630 O   0  0  0  0  0  1  0  0  0  0  0  0
  160.8360  203.1550  149.2930 C   0  0  0  0  0  3  0  0  0  0  0  0
  160.7940  202.3440  151.5400 N   0  0  0  0  0  0  0  0  0  0  0  0
  160.5210  202.1590  150.2190 C   0  0  0  0  0  0  0  0  0  0  0  0
  161.6960  204.5150  151.0990 C   0  0  0  0  0  0  0  0  0  0  0  0
  161.4230  204.3410  149.7390 C   0  0  0  0  0  3  0  0  0  0  0  0
  159.8970  200.8900  149.7610 C   0  0  0  0  0  1  0  0  0  0  0  0
  161.3630  203.4920  151.9950 C   0  0  0  0  0  3  0  0  0  0  0  0
  161.3800  208.0680  150.7450 C   0  0  2  0  0  3  0  0  0  0  0  0
  162.2310  207.2080  147.3370 O   0  0  0  0  0  0  0  0  0  0  0  0
  162.5570  207.7050  148.5070 C   0  0  0  0  0  3  0  0  0  0  0  0
  161.4720  207.5540  149.3380 C   0  0  0  0  0  0  0  0  0  0  0  0
  160.9970  206.7560  147.3610 C   0  0  0  0  0  3  0  0  0  0  0  0
  160.4560  206.9570  148.6180 C   0  0  0  0  0  3  0  0  0  0  0  0
  162.5350  208.7940  151.0540 O   0  0  0  0  0  0  0  0  0  0  0  0
  162.1690  210.1350  150.9200 C   0  0  0  0  0  1  0  0  0  0  0  0
  160.2060  208.6740  153.2690 C   0  0  0  0  0  2  0  0  0  0  0  0
  160.0790  209.0890  154.7210 C   0  0  0  0  0  2  0  0  0  0  0  0
  162.0390  209.7690  156.1460 C   0  0  0  0  0  0  0  0  0  0  0  0
  161.9580  208.6940  156.7980 O   0  0  0  0  0  0  0  0  0  0  0  0
  163.0340  210.7260  156.5010 N   0  0  0  0  0  1  0  0  0  0  0  0
  161.1340  210.0330  155.0630 N   0  0  0  0  0  0  0  0  0  0  0  0
  161.2170  211.2770  154.3080 C   0  0  0  0  0  2  0  0  0  0  0  0
  157.9780  214.1230  154.7100 C   0  0  0  0  0  2  0  0  0  0  0  0
  157.7910  213.0650  153.6300 C   0  0  2  0  0  3  0  0  0  0  0  0
  158.4850  213.4420  155.9740 C   0  0  0  0  0  2  0  0  0  0  0  0
  159.1490  212.4460  153.2740 C   0  0  0  0  0  2  0  0  0  0  0  0
  159.7100  212.6120  155.7010 C   0  0  0  0  0  3  0  0  0  0  0  0
  159.9700  212.0850  154.4910 C   0  0  0  0  0  0  0  0  0  0  0  0
  157.1480  213.6980  152.4080 C   0  0  0  0  0  2  0  0  0  0  0  0
  158.1400  213.7800  151.2600 C   0  0  0  0  0  2  0  0  0  0  0  0
  155.9570  214.0290  149.9110 C   0  0  0  0  0  1  0  0  0  0  0  0
  157.4200  213.7580  149.9510 C   0  0  0  0  0  0  0  0  0  0  0  0
  158.0210  213.5060  148.9200 O   0  0  0  0  0  0  0  0  0  0  0  0
  1 20  1  0  0  0  0
  2  1  1  1  0  0  0
  3  2  1  0  0  0  0
  3  4  1  1  0  0  0
  5  9  2  0  0  0  0
  5  7  1  0  0  0  0
  6 11  1  0  0  0  0
  7  6  2  0  0  0  0
  8  3  1  0  0  0  0
  8 11  2  0  0  0  0
  9  8  1  0  0  0  0
 10  7  1  0  0  0  0
 12 18  1  1  0  0  0
 12  2  1  0  0  0  0
 13 16  1  0  0  0  0
 13 14  1  0  0  0  0
 14 15  2  0  0  0  0
 15 12  1  0  0  0  0
 16 17  2  0  0  0  0
 17 15  1  0  0  0  0
 19 18  1  0  0  0  0
 20 21  1  0  0  0  0
 21 25  1  0  0  0  0
 22 24  1  0  0  0  0
 22 23  2  0  0  0  0
 25 22  1  0  0  0  0
 26 32  1  0  0  0  0
 26 25  1  0  0  0  0
 27 29  1  0  0  0  0
 28 33  1  6  0  0  0
 28 27  1  0  0  0  0
 30 28  1  0  0  0  0
 30 32  1  0  0  0  0
 31 29  1  0  0  0  0
 32 31  2  0  0  0  0
 34 33  1  0  0  0  0
 35 36  1  0  0  0  0
 36 34  1  0  0  0  0
 37 36  2  0  0  0  0
M  END
>  <MODEL>
8

>  <REMARK>
 VINA RESULT:      -5.8      2.629      9.561
  Name = 
  14 active torsions:
  status: ('A' for Active; 'I' for Inactive)
    1  A    between atoms: C_1  and  C_2
    2  A    between atoms: C_1  and  C_17
    3  A    between atoms: C_2  and  C_36
    4  A    between atoms: C_2  and  C_37
    5  A    between atoms: C_7  and  C_23
    6  A    between atoms: C_12  and  C_13
    7  A    between atoms: C_12  and  C_23
    8  A    between atoms: C_19  and  C_36
    9  A    between atoms: N_25  and  C_28
   10  A    between atoms: N_25  and  C_32
   11  A    between atoms: O_27  and  C_36
   12  A    between atoms: C_28  and  C_35
   13  A    between atoms: C_32  and  C_34
   14  A    between atoms: C_35  and  C_37
                            x       y       z     vdW  Elec       q    Type
                         _______ _______ _______ _____ _____    ______ ____

>  <TORSDO>
F 14

$$$$
=
 OpenBabel11072413023D

 37 39  0  0  1  0  0  0  0  0999 V2000
  161.2980  208.2820  153.1440 C   0  0  0  0  0  2  0  0  0  0  0  0
  160.7560  209.7120  153.2840 C   0  0  2  0  0  3  0  0  0  0  0  0
  161.7410  210.7960  152.8070 C   0  0  1  0  0  3  0  0  0  0  0  0
  163.0520  210.3090  152.7400 O   0  0  0  0  0  1  0  0  0  0  0  0
  161.6050  211.6220  149.1100 C   0  0  0  0  0  3  0  0  0  0  0  0
  160.0360  213.0020  150.2670 N   0  0  0  0  0  0  0  0  0  0  0  0
  160.6390  212.6290  149.1050 C   0  0  0  0  0  0  0  0  0  0  0  0
  161.3240  211.4090  151.5030 C   0  0  0  0  0  0  0  0  0  0  0  0
  161.9510  211.0130  150.3180 C   0  0  0  0  0  3  0  0  0  0  0  0
  160.2580  213.2860  147.8270 C   0  0  0  0  0  1  0  0  0  0  0  0
  160.3600  212.4240  151.4550 C   0  0  0  0  0  3  0  0  0  0  0  0
  160.1910  209.9970  154.6860 C   0  0  2  0  0  3  0  0  0  0  0  0
  160.0870  206.9960  156.7020 O   0  0  0  0  0  0  0  0  0  0  0  0
  159.5860  207.7580  155.7570 C   0  0  0  0  0  3  0  0  0  0  0  0
  160.4310  208.8310  155.6000 C   0  0  0  0  0  0  0  0  0  0  0  0
  161.1980  207.5200  157.1700 C   0  0  0  0  0  3  0  0  0  0  0  0
  161.4660  208.7030  156.5050 C   0  0  0  0  0  3  0  0  0  0  0  0
  158.8190  210.2590  154.6140 O   0  0  0  0  0  0  0  0  0  0  0  0
  158.6370  211.4450  155.3280 C   0  0  0  0  0  1  0  0  0  0  0  0
  160.7960  207.5890  151.8910 C   0  0  0  0  0  2  0  0  0  0  0  0
  161.8790  207.6220  150.8310 C   0  0  0  0  0  2  0  0  0  0  0  0
  162.0770  207.1240  148.3720 C   0  0  0  0  0  0  0  0  0  0  0  0
  163.0760  207.8860  148.2830 O   0  0  0  0  0  0  0  0  0  0  0  0
  161.5920  206.4710  147.2020 N   0  0  0  0  0  1  0  0  0  0  0  0
  161.4280  206.9220  149.6370 N   0  0  0  0  0  0  0  0  0  0  0  0
  160.2670  206.0480  149.7470 C   0  0  0  0  0  2  0  0  0  0  0  0
  160.9010  201.8740  150.7060 C   0  0  0  0  0  2  0  0  0  0  0  0
  161.1570  202.2590  149.2550 C   0  0  2  0  0  3  0  0  0  0  0  0
  161.5500  202.9140  151.6080 C   0  0  0  0  0  2  0  0  0  0  0  0
  160.4630  203.5920  148.9460 C   0  0  0  0  0  2  0  0  0  0  0  0
  161.1080  204.3080  151.2480 C   0  0  0  0  0  3  0  0  0  0  0  0
  160.6940  204.6390  150.0130 C   0  0  0  0  0  0  0  0  0  0  0  0
  160.6440  201.1580  148.3420 C   0  0  0  0  0  2  0  0  0  0  0  0
  161.5010  201.0530  147.0920 C   0  0  0  0  0  2  0  0  0  0  0  0
  161.2070  203.1520  145.6240 C   0  0  0  0  0  1  0  0  0  0  0  0
  160.8370  201.7470  145.9490 C   0  0  0  0  0  0  0  0  0  0  0  0
  159.9840  201.1750  145.2900 O   0  0  0  0  0  0  0  0  0  0  0  0
  2  1  1  1  0  0  0
  2 12  1  0  0  0  0
  3  4  1  6  0  0  0
  3  2  1  0  0  0  0
  5  9  1  0  0  0  0
  6 11  2  0  0  0  0
  7  5  2  0  0  0  0
  7  6  1  0  0  0  0
  8  3  1  0  0  0  0
  9  8  2  0  0  0  0
 10  7  1  0  0  0  0
 11  8  1  0  0  0  0
 12 18  1  6  0  0  0
 12 15  1  0  0  0  0
 13 16  1  0  0  0  0
 14 13  1  0  0  0  0
 15 14  2  0  0  0  0
 15 17  1  0  0  0  0
 17 16  2  0  0  0  0
 18 19  1  0  0  0  0
 20  1  1  0  0  0  0
 21 20  1  0  0  0  0
 22 25  1  0  0  0  0
 23 22  2  0  0  0  0
 24 22  1  0  0  0  0
 25 26  1  0  0  0  0
 25 21  1  0  0  0  0
 26 32  1  0  0  0  0
 27 29  1  0  0  0  0
 28 33  1  6  0  0  0
 28 27  1  0  0  0  0
 30 28  1  0  0  0  0
 30 32  1  0  0  0  0
 31 29  1  0  0  0  0
 32 31  2  0  0  0  0
 34 33  1  0  0  0  0
 35 36  1  0  0  0  0
 36 34  1  0  0  0  0
 37 36  2  0  0  0  0
M  END
>  <MODEL>
9

>  <REMARK>
 VINA RESULT:      -5.7      1.956      3.159
  Name = 
  14 active torsions:
  status: ('A' for Active; 'I' for Inactive)
    1  A    between atoms: C_1  and  C_2
    2  A    between atoms: C_1  and  C_17
    3  A    between atoms: C_2  and  C_36
    4  A    between atoms: C_2  and  C_37
    5  A    between atoms: C_7  and  C_23
    6  A    between atoms: C_12  and  C_13
    7  A    between atoms: C_12  and  C_23
    8  A    between atoms: C_19  and  C_36
    9  A    between atoms: N_25  and  C_28
   10  A    between atoms: N_25  and  C_32
   11  A    between atoms: O_27  and  C_36
   12  A    between atoms: C_28  and  C_35
   13  A    between atoms: C_32  and  C_34
   14  A    between atoms: C_35  and  C_37
                            x       y       z     vdW  Elec       q    Type
                         _______ _______ _______ _____ _____    ______ ____

>  <TORSDO>
F 14

$$$$
