=
 OpenBabel11072414453D

 45 49  0  0  1  0  0  0  0  0999 V2000
  162.5240  210.3240  153.0550 O   0  0  0  0  0  0  0  0  0  0  0  0
  161.2790  210.3030  153.2550 C   0  0  0  0  0  0  0  0  0  0  0  0
  160.6860  211.3280  154.0570 N   0  0  0  0  0  2  0  0  0  0  0  0
  161.5690  208.9880  150.5180 O   0  0  0  0  0  0  0  0  0  0  0  0
  161.1780  208.4850  151.6050 C   0  0  0  0  0  0  0  0  0  0  0  0
  160.1180  208.2560  153.6760 O   0  0  0  0  0  0  0  0  0  0  0  0
  160.4480  209.2000  152.6670 C   0  0  1  0  0  3  0  0  0  0  0  0
  161.6910  206.5870  154.3750 C   0  0  0  0  0  1  0  0  0  0  0  0
  161.3180  207.1270  151.9900 C   0  0  0  0  0  0  0  0  0  0  0  0
  160.6740  206.9960  153.3220 C   0  0  2  0  0  3  0  0  0  0  0  0
  161.8500  206.1600  151.2400 C   0  0  0  0  0  3  0  0  0  0  0  0
  161.8980  204.7420  151.6940 C   0  0  0  0  0  2  0  0  0  0  0  0
  160.7130  203.9850  151.1260 C   0  0  0  0  0  2  0  0  0  0  0  0
  161.1130  202.5580  150.7950 C   0  0  0  0  0  2  0  0  0  0  0  0
  160.0490  201.8960  149.9370 C   0  0  0  0  0  2  0  0  0  0  0  0
  160.5980  201.6620  148.5440 C   0  0  0  0  0  2  0  0  0  0  0  0
  161.5600  202.6300  148.2540 O   0  0  0  0  0  0  0  0  0  0  0  0
  160.4860  206.4380  145.1920 C   0  0  0  0  0  2  0  0  0  0  0  0
  161.2210  204.0020  146.3570 C   0  0  2  0  0  0  0  0  0  0  0  0
  161.1130  205.2560  144.4500 C   0  0  0  0  0  2  0  0  0  0  0  0
  160.7330  204.0290  145.0340 O   0  0  0  0  0  0  0  0  0  0  0  0
  162.6440  203.6430  146.4310 N   0  0  0  0  0  2  0  0  0  0  0  0
  161.6010  202.6820  146.8570 C   0  0  1  0  0  3  0  0  0  0  0  0
  160.8160  205.1340  147.3080 C   0  0  0  0  0  2  0  0  0  0  0  0
  161.0370  206.4750  146.6150 C   0  0  0  0  0  2  0  0  0  0  0  0
  159.2670  211.3800  154.3920 C   0  0  0  0  0  2  0  0  0  0  0  0
  158.8760  213.3520  151.3400 C   0  0  0  0  0  3  0  0  0  0  0  0
  158.5780  212.4710  153.6390 C   0  0  0  0  0  0  0  0  0  0  0  0
  159.3780  213.3670  152.7460 C   0  0  0  0  0  2  0  0  0  0  0  0
  156.4510  213.7030  153.2040 C   0  0  0  0  0  3  0  0  0  0  0  0
  157.6440  213.7340  150.9780 C   0  0  0  0  0  0  0  0  0  0  0  0
  157.2850  212.6920  153.8810 C   0  0  0  0  0  3  0  0  0  0  0  0
  156.6080  214.1530  151.9530 C   0  0  0  0  0  3  0  0  0  0  0  0
  158.3020  213.4280  148.5710 N   0  0  0  0  0  2  0  0  0  0  0  0
  156.7460  213.3510  146.5550 C   0  0  0  0  0  1  0  0  0  0  0  0
  157.3100  213.7920  149.5420 C   0  0  0  0  0  0  0  0  0  0  0  0
  158.1110  213.2960  147.1530 C   0  0  0  0  0  0  0  0  0  0  0  0
  156.1630  214.1680  149.1740 O   0  0  0  0  0  0  0  0  0  0  0  0
  159.1150  213.0760  146.3540 N   0  0  0  0  0  0  0  0  0  0  0  0
  160.5130  212.9710  146.6820 C   0  0  0  0  0  0  0  0  0  0  0  0
  161.5000  213.7670  146.0740 C   0  0  0  0  0  3  0  0  0  0  0  0
  162.2480  211.8630  147.9750 C   0  0  0  0  0  3  0  0  0  0  0  0
  160.9020  212.0190  147.6310 C   0  0  0  0  0  3  0  0  0  0  0  0
  163.2210  212.6610  147.3670 C   0  0  0  0  0  3  0  0  0  0  0  0
  162.8470  213.6140  146.4160 C   0  0  0  0  0  3  0  0  0  0  0  0
  1  2  2  0  0  0  0
  2  3  1  0  0  0  0
  3 26  1  0  0  0  0
  4  5  2  0  0  0  0
  5  9  1  0  0  0  0
  5  7  1  0  0  0  0
  7  2  1  1  0  0  0
  7  6  1  0  0  0  0
  9 10  1  0  0  0  0
 10  6  1  0  0  0  0
 10  8  1  1  0  0  0
 11 12  1  0  0  0  0
 11  9  2  0  0  0  0
 13 12  1  0  0  0  0
 14 13  1  0  0  0  0
 15 14  1  0  0  0  0
 16 15  1  0  0  0  0
 17 16  1  0  0  0  0
 18 25  1  0  0  0  0
 19 22  1  0  0  0  0
 19 23  1  0  0  0  0
 19 24  1  1  0  0  0
 20 21  1  0  0  0  0
 20 18  1  0  0  0  0
 21 19  1  0  0  0  0
 22 23  1  0  0  0  0
 23 17  1  1  0  0  0
 25 24  1  0  0  0  0
 27 29  1  0  0  0  0
 28 32  2  0  0  0  0
 28 26  1  0  0  0  0
 29 28  1  0  0  0  0
 30 32  1  0  0  0  0
 31 27  2  0  0  0  0
 31 33  1  0  0  0  0
 33 30  2  0  0  0  0
 34 36  1  0  0  0  0
 35 37  1  0  0  0  0
 36 31  1  0  0  0  0
 37 34  1  0  0  0  0
 38 36  2  0  0  0  0
 39 40  1  0  0  0  0
 39 37  2  0  0  0  0
 40 43  1  0  0  0  0
 41 45  1  0  0  0  0
 41 40  2  0  0  0  0
 43 42  2  0  0  0  0
 44 42  1  0  0  0  0
 45 44  2  0  0  0  0
M  END
>  <MODEL>
1

>  <REMARK>
 VINA RESULT:      -7.7      0.000      0.000
  Name = 
  12 active torsions:
  status: ('A' for Active; 'I' for Inactive)
    1  A    between atoms: C_3  and  N_43
    2  A    between atoms: C_12  and  C_17
    3  A    between atoms: C_13  and  C_14
    4  A    between atoms: C_13  and  C_24
    5  A    between atoms: C_14  and  C_38
    6  A    between atoms: C_16  and  O_28
    7  A    between atoms: C_17  and  N_34
    8  A    between atoms: C_21  and  C_27
    9  A    between atoms: C_24  and  C_26
   10  A    between atoms: C_26  and  C_44
   11  A    between atoms: O_28  and  C_38
   12  A    between atoms: C_32  and  C_35
                            x       y       z     vdW  Elec       q    Type
                         _______ _______ _______ _____ _____    ______ ____

>  <TORSDO>
F 12

$$$$
=
 OpenBabel11072414453D

 45 49  0  0  1  0  0  0  0  0999 V2000
  160.8200  212.3130  151.0290 O   0  0  0  0  0  0  0  0  0  0  0  0
  161.4900  211.3520  150.5620 C   0  0  0  0  0  0  0  0  0  0  0  0
  161.5590  210.1280  151.3000 N   0  0  0  0  0  2  0  0  0  0  0  0
  161.0970  209.7580  147.9910 O   0  0  0  0  0  0  0  0  0  0  0  0
  161.4260  210.9660  148.1370 C   0  0  0  0  0  0  0  0  0  0  0  0
  162.4380  212.8900  148.9970 O   0  0  0  0  0  0  0  0  0  0  0  0
  162.2130  211.5120  149.2570 C   0  0  1  0  0  3  0  0  0  0  0  0
  160.7000  214.2850  148.1100 C   0  0  0  0  0  1  0  0  0  0  0  0
  161.1480  212.0170  147.2260 C   0  0  0  0  0  0  0  0  0  0  0  0
  161.7620  213.2450  147.7960 C   0  0  2  0  0  3  0  0  0  0  0  0
  160.5290  211.8830  146.0520 C   0  0  0  0  0  3  0  0  0  0  0  0
  160.3360  213.0300  145.1230 C   0  0  0  0  0  2  0  0  0  0  0  0
  160.7730  212.6330  143.7250 C   0  0  0  0  0  2  0  0  0  0  0  0
  162.2590  212.8950  143.5480 C   0  0  0  0  0  2  0  0  0  0  0  0
  162.6130  212.9480  142.0720 C   0  0  0  0  0  2  0  0  0  0  0  0
  161.3770  213.3010  141.2690 C   0  0  0  0  0  2  0  0  0  0  0  0
  161.5130  212.8160  139.9680 O   0  0  0  0  0  0  0  0  0  0  0  0
  160.1730  208.4690  137.8850 C   0  0  0  0  0  2  0  0  0  0  0  0
  161.3870  210.5460  139.3150 C   0  0  2  0  0  0  0  0  0  0  0  0
  161.5020  208.3670  138.6350 C   0  0  0  0  0  2  0  0  0  0  0  0
  161.5160  209.2150  139.7640 O   0  0  0  0  0  0  0  0  0  0  0  0
  162.6550  211.1070  138.8270 N   0  0  0  0  0  2  0  0  0  0  0  0
  162.0830  211.5480  140.1200 C   0  0  1  0  0  3  0  0  0  0  0  0
  160.1740  210.9110  138.4530 C   0  0  0  0  0  2  0  0  0  0  0  0
  160.0250  209.8850  137.3340 C   0  0  0  0  0  2  0  0  0  0  0  0
  162.3380  208.9680  150.8810 C   0  0  0  0  0  2  0  0  0  0  0  0
  160.5660  205.8630  150.1260 C   0  0  0  0  0  3  0  0  0  0  0  0
  161.7010  207.6990  151.3450 C   0  0  0  0  0  0  0  0  0  0  0  0
  160.4330  207.2340  150.7010 C   0  0  0  0  0  2  0  0  0  0  0  0
  161.7350  205.8070  152.9730 C   0  0  0  0  0  3  0  0  0  0  0  0
  160.8540  204.7710  150.8450 C   0  0  0  0  0  0  0  0  0  0  0  0
  162.2200  207.0800  152.4070 C   0  0  0  0  0  3  0  0  0  0  0  0
  161.1440  204.8130  152.2980 C   0  0  0  0  0  3  0  0  0  0  0  0
  161.1170  203.3690  148.7740 N   0  0  0  0  0  2  0  0  0  0  0  0
  161.3400  200.8330  148.6580 C   0  0  0  0  0  1  0  0  0  0  0  0
  160.8340  203.4540  150.1780 C   0  0  0  0  0  0  0  0  0  0  0  0
  161.2740  202.1690  147.9990 C   0  0  0  0  0  0  0  0  0  0  0  0
  160.5600  202.4140  150.8390 O   0  0  0  0  0  0  0  0  0  0  0  0
  161.4120  202.2150  146.7050 N   0  0  0  0  0  0  0  0  0  0  0  0
  161.3940  203.3680  145.8440 C   0  0  0  0  0  0  0  0  0  0  0  0
  160.3740  203.6020  144.9040 C   0  0  0  0  0  3  0  0  0  0  0  0
  162.4950  205.4070  145.1090 C   0  0  0  0  0  3  0  0  0  0  0  0
  162.4530  204.2790  145.9340 C   0  0  0  0  0  3  0  0  0  0  0  0
  161.4740  205.6330  144.1810 C   0  0  0  0  0  3  0  0  0  0  0  0
  160.4120  204.7300  144.0790 C   0  0  0  0  0  3  0  0  0  0  0  0
  2  1  2  0  0  0  0
  2  3  1  0  0  0  0
  4  5  2  0  0  0  0
  5  7  1  0  0  0  0
  6  7  1  0  0  0  0
  7  2  1  1  0  0  0
  9 10  1  0  0  0  0
  9  5  1  0  0  0  0
 10  8  1  1  0  0  0
 10  6  1  0  0  0  0
 11  9  2  0  0  0  0
 12 11  1  0  0  0  0
 13 12  1  0  0  0  0
 14 13  1  0  0  0  0
 15 14  1  0  0  0  0
 16 15  1  0  0  0  0
 17 16  1  0  0  0  0
 18 20  1  0  0  0  0
 19 24  1  6  0  0  0
 19 21  1  0  0  0  0
 19 23  1  0  0  0  0
 20 21  1  0  0  0  0
 22 19  1  0  0  0  0
 22 23  1  0  0  0  0
 23 17  1  6  0  0  0
 25 18  1  0  0  0  0
 25 24  1  0  0  0  0
 26  3  1  0  0  0  0
 26 28  1  0  0  0  0
 27 29  1  0  0  0  0
 27 31  2  0  0  0  0
 28 32  2  0  0  0  0
 29 28  1  0  0  0  0
 31 33  1  0  0  0  0
 32 30  1  0  0  0  0
 33 30  2  0  0  0  0
 34 36  1  0  0  0  0
 36 38  2  0  0  0  0
 36 31  1  0  0  0  0
 37 35  1  0  0  0  0
 37 34  1  0  0  0  0
 39 37  2  0  0  0  0
 40 43  1  0  0  0  0
 40 39  1  0  0  0  0
 41 40  2  0  0  0  0
 42 43  2  0  0  0  0
 44 42  1  0  0  0  0
 45 44  2  0  0  0  0
 45 41  1  0  0  0  0
M  END
>  <MODEL>
2

>  <REMARK>
 VINA RESULT:      -6.9      4.029      9.272
  Name = 
  12 active torsions:
  status: ('A' for Active; 'I' for Inactive)
    1  A    between atoms: C_3  and  N_43
    2  A    between atoms: C_12  and  C_17
    3  A    between atoms: C_13  and  C_14
    4  A    between atoms: C_13  and  C_24
    5  A    between atoms: C_14  and  C_38
    6  A    between atoms: C_16  and  O_28
    7  A    between atoms: C_17  and  N_34
    8  A    between atoms: C_21  and  C_27
    9  A    between atoms: C_24  and  C_26
   10  A    between atoms: C_26  and  C_44
   11  A    between atoms: O_28  and  C_38
   12  A    between atoms: C_32  and  C_35
                            x       y       z     vdW  Elec       q    Type
                         _______ _______ _______ _____ _____    ______ ____

>  <TORSDO>
F 12

$$$$
=
 OpenBabel11072414453D

 45 49  0  0  1  0  0  0  0  0999 V2000
  161.5000  210.5270  148.0150 O   0  0  0  0  0  0  0  0  0  0  0  0
  161.8380  210.3240  149.2120 C   0  0  0  0  0  0  0  0  0  0  0  0
  162.0060  208.9790  149.6700 N   0  0  0  0  0  2  0  0  0  0  0  0
  161.2990  213.2760  148.6620 O   0  0  0  0  0  0  0  0  0  0  0  0
  161.2080  212.6380  149.7460 C   0  0  0  0  0  0  0  0  0  0  0  0
  161.6810  211.1210  151.4600 O   0  0  0  0  0  0  0  0  0  0  0  0
  162.0430  211.4880  150.1370 C   0  0  1  0  0  3  0  0  0  0  0  0
  159.3860  211.0800  152.1530 C   0  0  0  0  0  1  0  0  0  0  0  0
  160.3240  212.9380  150.8130 C   0  0  0  0  0  0  0  0  0  0  0  0
  160.6040  211.9480  151.8860 C   0  0  2  0  0  3  0  0  0  0  0  0
  159.4780  213.9680  150.8540 C   0  0  0  0  0  3  0  0  0  0  0  0
  158.6300  214.2510  152.0450 C   0  0  0  0  0  2  0  0  0  0  0  0
  157.2230  213.7380  151.8010 C   0  0  0  0  0  2  0  0  0  0  0  0
  156.2550  214.3770  152.7830 C   0  0  0  0  0  2  0  0  0  0  0  0
  156.8150  214.3130  154.1930 C   0  0  0  0  0  2  0  0  0  0  0  0
  156.9110  212.8650  154.6320 C   0  0  0  0  0  2  0  0  0  0  0  0
  158.0240  212.7030  155.4590 O   0  0  0  0  0  0  0  0  0  0  0  0
  161.7930  209.4640  156.0330 C   0  0  0  0  0  2  0  0  0  0  0  0
  159.3250  210.7780  155.9010 C   0  0  2  0  0  0  0  0  0  0  0  0
  160.4630  208.9010  156.5380 C   0  0  0  0  0  2  0  0  0  0  0  0
  159.3830  209.3760  155.7630 O   0  0  0  0  0  0  0  0  0  0  0  0
  158.6710  211.2000  157.1470 N   0  0  0  0  0  2  0  0  0  0  0  0
  157.9860  211.3590  155.8440 C   0  0  1  0  0  3  0  0  0  0  0  0
  160.5710  211.5980  155.5450 C   0  0  0  0  0  2  0  0  0  0  0  0
  161.7900  210.9790  156.2220 C   0  0  0  0  0  2  0  0  0  0  0  0
  162.3510  208.6240  151.0420 C   0  0  0  0  0  2  0  0  0  0  0  0
  160.5560  205.5700  150.1450 C   0  0  0  0  0  3  0  0  0  0  0  0
  161.6830  207.3520  151.4500 C   0  0  0  0  0  0  0  0  0  0  0  0
  160.4270  206.9250  150.7570 C   0  0  0  0  0  2  0  0  0  0  0  0
  161.6400  205.4130  153.0220 C   0  0  0  0  0  3  0  0  0  0  0  0
  160.8070  204.4520  150.8400 C   0  0  0  0  0  0  0  0  0  0  0  0
  162.1600  206.6940  152.5080 C   0  0  0  0  0  3  0  0  0  0  0  0
  161.0550  204.4480  152.3010 C   0  0  0  0  0  3  0  0  0  0  0  0
  161.0830  203.1110  148.7320 N   0  0  0  0  0  2  0  0  0  0  0  0
  161.2940  200.5780  148.5430 C   0  0  0  0  0  1  0  0  0  0  0  0
  160.7870  203.1560  150.1350 C   0  0  0  0  0  0  0  0  0  0  0  0
  161.2410  201.9340  147.9230 C   0  0  0  0  0  0  0  0  0  0  0  0
  160.5010  202.0990  150.7620 O   0  0  0  0  0  0  0  0  0  0  0  0
  161.3920  202.0170  146.6320 N   0  0  0  0  0  0  0  0  0  0  0  0
  161.3880  203.1950  145.8050 C   0  0  0  0  0  0  0  0  0  0  0  0
  162.3950  204.1750  145.8700 C   0  0  0  0  0  3  0  0  0  0  0  0
  160.2600  204.5130  144.1020 C   0  0  0  0  0  3  0  0  0  0  0  0
  160.3220  203.3780  144.9160 C   0  0  0  0  0  3  0  0  0  0  0  0
  161.2670  205.4790  144.1710 C   0  0  0  0  0  3  0  0  0  0  0  0
  162.3350  205.3110  145.0570 C   0  0  0  0  0  3  0  0  0  0  0  0
  1  2  2  0  0  0  0
  2  3  1  0  0  0  0
  3 26  1  0  0  0  0
  4  5  2  0  0  0  0
  5  7  1  0  0  0  0
  5  9  1  0  0  0  0
  6 10  1  0  0  0  0
  7  2  1  6  0  0  0
  7  6  1  0  0  0  0
  9 11  2  0  0  0  0
  9 10  1  0  0  0  0
 10  8  1  6  0  0  0
 11 12  1  0  0  0  0
 13 12  1  0  0  0  0
 13 14  1  0  0  0  0
 14 15  1  0  0  0  0
 15 16  1  0  0  0  0
 16 17  1  0  0  0  0
 18 25  1  0  0  0  0
 18 20  1  0  0  0  0
 19 24  1  6  0  0  0
 19 22  1  0  0  0  0
 21 19  1  0  0  0  0
 21 20  1  0  0  0  0
 23 17  1  6  0  0  0
 23 19  1  0  0  0  0
 23 22  1  0  0  0  0
 24 25  1  0  0  0  0
 26 28  1  0  0  0  0
 27 29  1  0  0  0  0
 27 31  2  0  0  0  0
 28 32  2  0  0  0  0
 29 28  1  0  0  0  0
 31 33  1  0  0  0  0
 32 30  1  0  0  0  0
 33 30  2  0  0  0  0
 34 36  1  0  0  0  0
 36 38  2  0  0  0  0
 36 31  1  0  0  0  0
 37 35  1  0  0  0  0
 37 34  1  0  0  0  0
 39 37  2  0  0  0  0
 40 41  1  0  0  0  0
 40 39  1  0  0  0  0
 42 44  2  0  0  0  0
 42 43  1  0  0  0  0
 43 40  2  0  0  0  0
 44 45  1  0  0  0  0
 45 41  2  0  0  0  0
M  END
>  <MODEL>
3

>  <REMARK>
 VINA RESULT:      -6.8      2.729      9.717
  Name = 
  12 active torsions:
  status: ('A' for Active; 'I' for Inactive)
    1  A    between atoms: C_3  and  N_43
    2  A    between atoms: C_12  and  C_17
    3  A    between atoms: C_13  and  C_14
    4  A    between atoms: C_13  and  C_24
    5  A    between atoms: C_14  and  C_38
    6  A    between atoms: C_16  and  O_28
    7  A    between atoms: C_17  and  N_34
    8  A    between atoms: C_21  and  C_27
    9  A    between atoms: C_24  and  C_26
   10  A    between atoms: C_26  and  C_44
   11  A    between atoms: O_28  and  C_38
   12  A    between atoms: C_32  and  C_35
                            x       y       z     vdW  Elec       q    Type
                         _______ _______ _______ _____ _____    ______ ____

>  <TORSDO>
F 12

$$$$
=
 OpenBabel11072414453D

 45 49  0  0  1  0  0  0  0  0999 V2000
  160.0470  205.8500  153.8100 O   0  0  0  0  0  0  0  0  0  0  0  0
  160.8200  206.8440  153.8650 C   0  0  0  0  0  0  0  0  0  0  0  0
  160.4750  207.9480  154.7070 N   0  0  0  0  0  2  0  0  0  0  0  0
  161.7760  204.7520  151.8610 O   0  0  0  0  0  0  0  0  0  0  0  0
  161.9430  206.0020  151.8480 C   0  0  0  0  0  0  0  0  0  0  0  0
  162.3340  208.1840  152.5890 O   0  0  0  0  0  0  0  0  0  0  0  0
  162.0720  206.8620  153.0380 C   0  0  1  0  0  3  0  0  0  0  0  0
  161.1750  209.1070  150.7040 C   0  0  0  0  0  1  0  0  0  0  0  0
  162.0890  206.8080  150.6910 C   0  0  0  0  0  0  0  0  0  0  0  0
  162.3010  208.1990  151.1670 C   0  0  2  0  0  3  0  0  0  0  0  0
  162.1160  206.3620  149.4330 C   0  0  0  0  0  3  0  0  0  0  0  0
  162.3410  207.2700  148.2750 C   0  0  0  0  0  2  0  0  0  0  0  0
  161.0690  207.3770  147.4570 C   0  0  0  0  0  2  0  0  0  0  0  0
  160.9600  206.2010  146.5020 C   0  0  0  0  0  2  0  0  0  0  0  0
  162.3330  205.8130  145.9820 C   0  0  0  0  0  2  0  0  0  0  0  0
  162.2790  204.4050  145.4220 C   0  0  0  0  0  2  0  0  0  0  0  0
  161.0030  203.8760  145.6130 O   0  0  0  0  0  0  0  0  0  0  0  0
  161.2060  201.5010  150.0120 C   0  0  0  0  0  2  0  0  0  0  0  0
  161.1860  202.2410  147.3130 C   0  0  2  0  0  0  0  0  0  0  0  0
  161.2020  200.5320  148.8300 C   0  0  0  0  0  2  0  0  0  0  0  0
  161.8780  201.0810  147.7190 O   0  0  0  0  0  0  0  0  0  0  0  0
  160.0020  201.9400  146.4960 N   0  0  0  0  0  2  0  0  0  0  0  0
  161.2170  202.5200  145.8790 C   0  0  1  0  0  3  0  0  0  0  0  0
  160.9640  203.3560  148.3420 C   0  0  0  0  0  2  0  0  0  0  0  0
  160.4130  202.7490  149.6290 C   0  0  0  0  0  2  0  0  0  0  0  0
  161.2680  209.1680  154.8150 C   0  0  0  0  0  2  0  0  0  0  0  0
  160.0600  212.1270  153.0430 C   0  0  0  0  0  3  0  0  0  0  0  0
  160.3960  210.3800  154.7700 C   0  0  0  0  0  0  0  0  0  0  0  0
  160.9210  211.6420  154.1620 C   0  0  0  0  0  2  0  0  0  0  0  0
  158.2220  211.4260  155.4110 C   0  0  0  0  0  3  0  0  0  0  0  0
  158.7740  212.4750  153.1800 C   0  0  0  0  0  0  0  0  0  0  0  0
  159.2130  210.3340  155.3860 C   0  0  0  0  0  3  0  0  0  0  0  0
  158.0350  212.3500  154.4600 C   0  0  0  0  0  3  0  0  0  0  0  0
  158.7090  213.0780  150.7410 N   0  0  0  0  0  2  0  0  0  0  0  0
  156.6600  213.7470  149.3810 C   0  0  0  0  0  1  0  0  0  0  0  0
  158.0670  213.0570  152.0230 C   0  0  0  0  0  0  0  0  0  0  0  0
  158.1230  213.4780  149.4910 C   0  0  0  0  0  0  0  0  0  0  0  0
  156.9100  213.5410  152.1670 O   0  0  0  0  0  0  0  0  0  0  0  0
  158.8390  213.5690  148.4080 N   0  0  0  0  0  0  0  0  0  0  0  0
  160.2540  213.3530  148.2500 C   0  0  0  0  0  0  0  0  0  0  0  0
  160.8080  212.0850  147.9960 C   0  0  0  0  0  3  0  0  0  0  0  0
  162.4950  214.2960  148.2520 C   0  0  0  0  0  3  0  0  0  0  0  0
  161.1110  214.4520  148.3790 C   0  0  0  0  0  3  0  0  0  0  0  0
  163.0350  213.0330  147.9970 C   0  0  0  0  0  3  0  0  0  0  0  0
  162.1910  211.9270  147.8690 C   0  0  0  0  0  3  0  0  0  0  0  0
  1  2  2  0  0  0  0
  2  3  1  0  0  0  0
  3 26  1  0  0  0  0
  5  4  2  0  0  0  0
  5  7  1  0  0  0  0
  6  7  1  0  0  0  0
  7  2  1  6  0  0  0
  9 10  1  0  0  0  0
  9  5  1  0  0  0  0
 10  8  1  1  0  0  0
 10  6  1  0  0  0  0
 11  9  2  0  0  0  0
 12 11  1  0  0  0  0
 13 12  1  0  0  0  0
 14 13  1  0  0  0  0
 15 14  1  0  0  0  0
 16 17  1  0  0  0  0
 16 15  1  0  0  0  0
 19 21  1  0  0  0  0
 19 24  1  1  0  0  0
 20 18  1  0  0  0  0
 21 20  1  0  0  0  0
 22 19  1  0  0  0  0
 23 17  1  1  0  0  0
 23 22  1  0  0  0  0
 23 19  1  0  0  0  0
 24 25  1  0  0  0  0
 25 18  1  0  0  0  0
 27 31  2  0  0  0  0
 27 29  1  0  0  0  0
 28 26  1  0  0  0  0
 28 32  2  0  0  0  0
 29 28  1  0  0  0  0
 31 33  1  0  0  0  0
 32 30  1  0  0  0  0
 33 30  2  0  0  0  0
 34 36  1  0  0  0  0
 35 37  1  0  0  0  0
 36 38  2  0  0  0  0
 36 31  1  0  0  0  0
 37 34  1  0  0  0  0
 39 37  2  0  0  0  0
 40 43  1  0  0  0  0
 40 39  1  0  0  0  0
 41 40  2  0  0  0  0
 42 43  2  0  0  0  0
 44 42  1  0  0  0  0
 45 41  1  0  0  0  0
 45 44  2  0  0  0  0
M  END
>  <MODEL>
4

>  <REMARK>
 VINA RESULT:      -6.6      1.698      3.528
  Name = 
  12 active torsions:
  status: ('A' for Active; 'I' for Inactive)
    1  A    between atoms: C_3  and  N_43
    2  A    between atoms: C_12  and  C_17
    3  A    between atoms: C_13  and  C_14
    4  A    between atoms: C_13  and  C_24
    5  A    between atoms: C_14  and  C_38
    6  A    between atoms: C_16  and  O_28
    7  A    between atoms: C_17  and  N_34
    8  A    between atoms: C_21  and  C_27
    9  A    between atoms: C_24  and  C_26
   10  A    between atoms: C_26  and  C_44
   11  A    between atoms: O_28  and  C_38
   12  A    between atoms: C_32  and  C_35
                            x       y       z     vdW  Elec       q    Type
                         _______ _______ _______ _____ _____    ______ ____

>  <TORSDO>
F 12

$$$$
=
 OpenBabel11072414453D

 45 49  0  0  1  0  0  0  0  0999 V2000
  162.8310  213.8800  147.7250 O   0  0  0  0  0  0  0  0  0  0  0  0
  161.7530  213.5950  147.1390 C   0  0  0  0  0  0  0  0  0  0  0  0
  161.5010  214.1400  145.8400 N   0  0  0  0  0  2  0  0  0  0  0  0
  162.2460  210.9350  148.5470 O   0  0  0  0  0  0  0  0  0  0  0  0
  161.3920  211.8250  148.8040 C   0  0  0  0  0  0  0  0  0  0  0  0
  159.7900  213.5000  148.4990 O   0  0  0  0  0  0  0  0  0  0  0  0
  160.7490  212.7070  147.8140 C   0  0  1  0  0  3  0  0  0  0  0  0
  160.2720  214.4490  150.6480 C   0  0  0  0  0  1  0  0  0  0  0  0
  160.8490  212.1100  150.0830 C   0  0  0  0  0  0  0  0  0  0  0  0
  159.8580  213.2000  149.8880 C   0  0  2  0  0  3  0  0  0  0  0  0
  161.1290  211.4510  151.2090 C   0  0  0  0  0  3  0  0  0  0  0  0
  160.4630  211.7730  152.5010 C   0  0  0  0  0  2  0  0  0  0  0  0
  160.0680  210.4880  153.2040 C   0  0  0  0  0  2  0  0  0  0  0  0
  161.2400  209.5210  153.2240 C   0  0  0  0  0  2  0  0  0  0  0  0
  160.8320  208.1850  152.6280 C   0  0  0  0  0  2  0  0  0  0  0  0
  161.6950  207.8900  151.4170 C   0  0  0  0  0  2  0  0  0  0  0  0
  161.1940  206.7710  150.7500 O   0  0  0  0  0  0  0  0  0  0  0  0
  161.8390  203.8050  146.7730 C   0  0  0  0  0  2  0  0  0  0  0  0
  161.4430  205.9280  148.5540 C   0  0  2  0  0  0  0  0  0  0  0  0
  161.4860  205.2390  146.3760 C   0  0  0  0  0  2  0  0  0  0  0  0
  162.0240  206.1680  147.2920 O   0  0  0  0  0  0  0  0  0  0  0  0
  160.1020  206.5130  148.6840 N   0  0  0  0  0  2  0  0  0  0  0  0
  161.2570  207.1090  149.3940 C   0  0  1  0  0  3  0  0  0  0  0  0
  161.5700  204.5250  149.1600 C   0  0  0  0  0  2  0  0  0  0  0  0
  161.1770  203.4880  148.1120 C   0  0  0  0  0  2  0  0  0  0  0  0
  160.2720  213.9160  145.0880 C   0  0  0  0  0  2  0  0  0  0  0  0
  161.6180  211.9290  142.3320 C   0  0  0  0  0  3  0  0  0  0  0  0
  160.5570  213.7560  143.6300 C   0  0  0  0  0  0  0  0  0  0  0  0
  161.8430  213.1240  143.1980 C   0  0  0  0  0  2  0  0  0  0  0  0
  159.8240  214.2010  141.2860 C   0  0  0  0  0  3  0  0  0  0  0  0
  160.9890  211.9640  141.1500 C   0  0  0  0  0  0  0  0  0  0  0  0
  159.7080  214.2940  142.7530 C   0  0  0  0  0  3  0  0  0  0  0  0
  160.3790  213.1960  140.5960 C   0  0  0  0  0  3  0  0  0  0  0  0
  159.8140  210.5010  139.4770 N   0  0  0  0  0  2  0  0  0  0  0  0
  160.8100  208.5440  138.1850 C   0  0  0  0  0  1  0  0  0  0  0  0
  160.9410  210.7360  140.3320 C   0  0  0  0  0  0  0  0  0  0  0  0
  159.6650  209.4400  138.5210 C   0  0  0  0  0  0  0  0  0  0  0  0
  161.8810  209.8970  140.3960 O   0  0  0  0  0  0  0  0  0  0  0  0
  158.5450  209.2570  137.8820 N   0  0  0  0  0  0  0  0  0  0  0  0
  157.3100  209.9850  138.0170 C   0  0  0  0  0  0  0  0  0  0  0  0
  156.2630  209.5620  138.8550 C   0  0  0  0  0  3  0  0  0  0  0  0
  155.9560  211.8870  137.3390 C   0  0  0  0  0  3  0  0  0  0  0  0
  157.1420  211.1500  137.2600 C   0  0  0  0  0  3  0  0  0  0  0  0
  154.9230  211.4600  138.1780 C   0  0  0  0  0  3  0  0  0  0  0  0
  155.0760  210.2960  138.9360 C   0  0  0  0  0  3  0  0  0  0  0  0
  2  1  2  0  0  0  0
  3  2  1  0  0  0  0
  4  5  2  0  0  0  0
  5  9  1  0  0  0  0
  6 10  1  0  0  0  0
  7  2  1  1  0  0  0
  7  6  1  0  0  0  0
  7  5  1  0  0  0  0
  9 11  2  0  0  0  0
 10  9  1  0  0  0  0
 10  8  1  1  0  0  0
 11 12  1  0  0  0  0
 12 13  1  0  0  0  0
 13 14  1  0  0  0  0
 15 14  1  0  0  0  0
 16 15  1  0  0  0  0
 17 16  1  0  0  0  0
 18 25  1  0  0  0  0
 19 22  1  0  0  0  0
 19 24  1  1  0  0  0
 19 23  1  0  0  0  0
 20 18  1  0  0  0  0
 20 21  1  0  0  0  0
 21 19  1  0  0  0  0
 22 23  1  0  0  0  0
 23 17  1  1  0  0  0
 25 24  1  0  0  0  0
 26  3  1  0  0  0  0
 27 29  1  0  0  0  0
 28 26  1  0  0  0  0
 29 28  1  0  0  0  0
 30 32  1  0  0  0  0
 31 27  2  0  0  0  0
 32 28  2  0  0  0  0
 33 31  1  0  0  0  0
 33 30  2  0  0  0  0
 34 36  1  0  0  0  0
 35 37  1  0  0  0  0
 36 38  2  0  0  0  0
 36 31  1  0  0  0  0
 37 34  1  0  0  0  0
 39 40  1  0  0  0  0
 39 37  2  0  0  0  0
 40 41  1  0  0  0  0
 41 45  2  0  0  0  0
 42 44  2  0  0  0  0
 43 42  1  0  0  0  0
 43 40  2  0  0  0  0
 44 45  1  0  0  0  0
M  END
>  <MODEL>
5

>  <REMARK>
 VINA RESULT:      -6.6      4.926      8.344
  Name = 
  12 active torsions:
  status: ('A' for Active; 'I' for Inactive)
    1  A    between atoms: C_3  and  N_43
    2  A    between atoms: C_12  and  C_17
    3  A    between atoms: C_13  and  C_14
    4  A    between atoms: C_13  and  C_24
    5  A    between atoms: C_14  and  C_38
    6  A    between atoms: C_16  and  O_28
    7  A    between atoms: C_17  and  N_34
    8  A    between atoms: C_21  and  C_27
    9  A    between atoms: C_24  and  C_26
   10  A    between atoms: C_26  and  C_44
   11  A    between atoms: O_28  and  C_38
   12  A    between atoms: C_32  and  C_35
                            x       y       z     vdW  Elec       q    Type
                         _______ _______ _______ _____ _____    ______ ____

>  <TORSDO>
F 12

$$$$
=
 OpenBabel11072414453D

 45 49  0  0  1  0  0  0  0  0999 V2000
  162.3130  205.1340  151.2630 O   0  0  0  0  0  0  0  0  0  0  0  0
  161.7770  206.2550  151.0510 C   0  0  0  0  0  0  0  0  0  0  0  0
  161.9660  207.3070  152.0010 N   0  0  0  0  0  2  0  0  0  0  0  0
  162.3850  208.0330  148.6470 O   0  0  0  0  0  0  0  0  0  0  0  0
  161.7610  206.9390  148.6910 C   0  0  0  0  0  0  0  0  0  0  0  0
  160.3440  205.2340  149.4330 O   0  0  0  0  0  0  0  0  0  0  0  0
  160.9430  206.4630  149.8210 C   0  0  1  0  0  3  0  0  0  0  0  0
  161.5800  203.5800  148.2150 C   0  0  0  0  0  1  0  0  0  0  0  0
  161.6830  205.9860  147.6440 C   0  0  0  0  0  0  0  0  0  0  0  0
  160.8110  204.8880  148.1350 C   0  0  2  0  0  3  0  0  0  0  0  0
  162.2260  206.1180  146.4320 C   0  0  0  0  0  3  0  0  0  0  0  0
  162.0400  205.0970  145.3650 C   0  0  0  0  0  2  0  0  0  0  0  0
  161.2440  205.6950  144.2210 C   0  0  0  0  0  2  0  0  0  0  0  0
  161.9690  205.4720  142.9050 C   0  0  0  0  0  2  0  0  0  0  0  0
  161.5800  206.5410  141.8990 C   0  0  0  0  0  2  0  0  0  0  0  0
  162.4670  206.4280  140.6750 C   0  0  0  0  0  2  0  0  0  0  0  0
  162.5760  207.6770  140.0630 O   0  0  0  0  0  0  0  0  0  0  0  0
  159.4230  211.3110  138.6910 C   0  0  0  0  0  2  0  0  0  0  0  0
  160.9010  208.9530  138.9840 C   0  0  2  0  0  0  0  0  0  0  0  0
  159.3870  210.1200  137.7330 C   0  0  0  0  0  2  0  0  0  0  0  0
  159.6100  208.9070  138.4200 O   0  0  0  0  0  0  0  0  0  0  0  0
  161.9580  208.6450  138.0110 N   0  0  0  0  0  2  0  0  0  0  0  0
  161.5960  207.6700  139.0650 C   0  0  1  0  0  3  0  0  0  0  0  0
  161.2450  210.1120  139.9280 C   0  0  0  0  0  2  0  0  0  0  0  0
  160.8270  211.4280  139.2790 C   0  0  0  0  0  2  0  0  0  0  0  0
  161.3590  208.6290  151.8830 C   0  0  0  0  0  2  0  0  0  0  0  0
  160.0420  211.3500  153.9360 C   0  0  0  0  0  3  0  0  0  0  0  0
  161.0940  209.2190  153.2300 C   0  0  0  0  0  0  0  0  0  0  0  0
  161.2850  210.6880  153.4400 C   0  0  0  0  0  2  0  0  0  0  0  0
  160.4930  208.8130  155.6180 C   0  0  0  0  0  3  0  0  0  0  0  0
  159.4380  211.0460  155.0920 C   0  0  0  0  0  0  0  0  0  0  0  0
  160.8100  208.3950  154.2400 C   0  0  0  0  0  3  0  0  0  0  0  0
  159.9030  209.9570  155.9840 C   0  0  0  0  0  3  0  0  0  0  0  0
  157.4760  212.5210  154.5470 N   0  0  0  0  0  2  0  0  0  0  0  0
  155.5820  213.1920  156.1140 C   0  0  0  0  0  1  0  0  0  0  0  0
  158.2870  211.8600  155.5290 C   0  0  0  0  0  0  0  0  0  0  0  0
  156.2510  213.2340  154.7820 C   0  0  0  0  0  0  0  0  0  0  0  0
  158.0270  211.9790  156.7580 O   0  0  0  0  0  0  0  0  0  0  0  0
  155.6610  213.8960  153.8280 N   0  0  0  0  0  0  0  0  0  0  0  0
  156.0930  214.0780  152.4670 C   0  0  0  0  0  0  0  0  0  0  0  0
  155.2060  214.0550  151.3760 C   0  0  0  0  0  3  0  0  0  0  0  0
  157.9360  214.4280  150.9200 C   0  0  0  0  0  3  0  0  0  0  0  0
  157.4600  214.2630  152.2240 C   0  0  0  0  0  3  0  0  0  0  0  0
  157.0460  214.4070  149.8430 C   0  0  0  0  0  3  0  0  0  0  0  0
  155.6790  214.2210  150.0710 C   0  0  0  0  0  3  0  0  0  0  0  0
  2  1  2  0  0  0  0
  2  3  1  0  0  0  0
  4  5  2  0  0  0  0
  5  7  1  0  0  0  0
  6  7  1  0  0  0  0
  7  2  1  1  0  0  0
  9 10  1  0  0  0  0
  9  5  1  0  0  0  0
 10  8  1  1  0  0  0
 10  6  1  0  0  0  0
 11  9  2  0  0  0  0
 12 11  1  0  0  0  0
 13 12  1  0  0  0  0
 14 13  1  0  0  0  0
 15 14  1  0  0  0  0
 16 15  1  0  0  0  0
 17 16  1  0  0  0  0
 18 25  1  0  0  0  0
 19 23  1  0  0  0  0
 19 24  1  1  0  0  0
 20 21  1  0  0  0  0
 20 18  1  0  0  0  0
 21 19  1  0  0  0  0
 22 19  1  0  0  0  0
 22 23  1  0  0  0  0
 23 17  1  1  0  0  0
 25 24  1  0  0  0  0
 26  3  1  0  0  0  0
 26 28  1  0  0  0  0
 27 31  2  0  0  0  0
 28 29  1  0  0  0  0
 28 32  2  0  0  0  0
 29 27  1  0  0  0  0
 30 33  2  0  0  0  0
 31 36  1  0  0  0  0
 31 33  1  0  0  0  0
 32 30  1  0  0  0  0
 34 37  1  0  0  0  0
 34 36  1  0  0  0  0
 36 38  2  0  0  0  0
 37 35  1  0  0  0  0
 39 37  2  0  0  0  0
 40 39  1  0  0  0  0
 41 40  2  0  0  0  0
 42 43  2  0  0  0  0
 43 40  1  0  0  0  0
 44 45  2  0  0  0  0
 44 42  1  0  0  0  0
 45 41  1  0  0  0  0
M  END
>  <MODEL>
6

>  <REMARK>
 VINA RESULT:      -6.2      4.008      6.984
  Name = 
  12 active torsions:
  status: ('A' for Active; 'I' for Inactive)
    1  A    between atoms: C_3  and  N_43
    2  A    between atoms: C_12  and  C_17
    3  A    between atoms: C_13  and  C_14
    4  A    between atoms: C_13  and  C_24
    5  A    between atoms: C_14  and  C_38
    6  A    between atoms: C_16  and  O_28
    7  A    between atoms: C_17  and  N_34
    8  A    between atoms: C_21  and  C_27
    9  A    between atoms: C_24  and  C_26
   10  A    between atoms: C_26  and  C_44
   11  A    between atoms: O_28  and  C_38
   12  A    between atoms: C_32  and  C_35
                            x       y       z     vdW  Elec       q    Type
                         _______ _______ _______ _____ _____    ______ ____

>  <TORSDO>
F 12

$$$$
=
 OpenBabel11072414453D

 45 49  0  0  1  0  0  0  0  0999 V2000
  162.9060  208.3250  147.8490 O   0  0  0  0  0  0  0  0  0  0  0  0
  162.4080  207.6480  148.7880 C   0  0  0  0  0  0  0  0  0  0  0  0
  162.2590  208.2500  150.0770 N   0  0  0  0  0  2  0  0  0  0  0  0
  159.6210  206.5780  148.1630 O   0  0  0  0  0  0  0  0  0  0  0  0
  160.7420  206.1510  147.7780 C   0  0  0  0  0  0  0  0  0  0  0  0
  163.0030  205.5560  147.7960 O   0  0  0  0  0  0  0  0  0  0  0  0
  161.9980  206.2250  148.5450 C   0  0  1  0  0  3  0  0  0  0  0  0
  163.1660  205.8270  145.4200 C   0  0  0  0  0  1  0  0  0  0  0  0
  160.9980  205.4740  146.5580 C   0  0  0  0  0  0  0  0  0  0  0  0
  162.4430  205.1300  146.5600 C   0  0  2  0  0  3  0  0  0  0  0  0
  160.0810  205.1450  145.6460 C   0  0  0  0  0  3  0  0  0  0  0  0
  160.4240  204.3730  144.4200 C   0  0  0  0  0  2  0  0  0  0  0  0
  159.3330  203.3590  144.1350 C   0  0  0  0  0  2  0  0  0  0  0  0
  159.2050  202.3870  145.2950 C   0  0  0  0  0  2  0  0  0  0  0  0
  160.1490  201.2130  145.1080 C   0  0  0  0  0  2  0  0  0  0  0  0
  161.0080  201.0540  146.3470 C   0  0  0  0  0  2  0  0  0  0  0  0
  160.5010  201.8560  147.3700 O   0  0  0  0  0  0  0  0  0  0  0  0
  161.2960  203.5550  152.0080 C   0  0  0  0  0  2  0  0  0  0  0  0
  160.9190  202.0300  149.6920 C   0  0  2  0  0  0  0  0  0  0  0  0
  161.1480  202.0330  151.9660 C   0  0  0  0  0  2  0  0  0  0  0  0
  161.6690  201.5050  150.7650 O   0  0  0  0  0  0  0  0  0  0  0  0
  159.6420  201.3300  149.4940 N   0  0  0  0  0  2  0  0  0  0  0  0
  160.7610  201.1400  148.5430 C   0  0  1  0  0  3  0  0  0  0  0  0
  160.8210  203.5530  149.5460 C   0  0  0  0  0  2  0  0  0  0  0  0
  160.4480  204.1640  150.8930 C   0  0  0  0  0  2  0  0  0  0  0  0
  161.7380  207.5500  151.2460 C   0  0  0  0  0  2  0  0  0  0  0  0
  160.8670  210.9140  152.3770 C   0  0  0  0  0  3  0  0  0  0  0  0
  161.4540  208.5050  152.3590 C   0  0  0  0  0  0  0  0  0  0  0  0
  161.9650  209.9090  152.2730 C   0  0  0  0  0  2  0  0  0  0  0  0
  160.4730  208.8530  154.6280 C   0  0  0  0  0  3  0  0  0  0  0  0
  160.0650  211.0440  153.4420 C   0  0  0  0  0  0  0  0  0  0  0  0
  160.8530  208.0420  153.4570 C   0  0  0  0  0  3  0  0  0  0  0  0
  160.1350  210.1480  154.6200 C   0  0  0  0  0  3  0  0  0  0  0  0
  158.5380  212.6420  152.2440 N   0  0  0  0  0  2  0  0  0  0  0  0
  156.7290  214.1060  153.2840 C   0  0  0  0  0  1  0  0  0  0  0  0
  159.0980  212.1590  153.4730 C   0  0  0  0  0  0  0  0  0  0  0  0
  157.4920  213.6170  152.0990 C   0  0  0  0  0  0  0  0  0  0  0  0
  158.7770  212.6880  154.5730 O   0  0  0  0  0  0  0  0  0  0  0  0
  157.1450  214.0660  150.9270 N   0  0  0  0  0  0  0  0  0  0  0  0
  157.7120  213.7470  149.6430 C   0  0  0  0  0  0  0  0  0  0  0  0
  158.9700  214.2200  149.2260 C   0  0  0  0  0  3  0  0  0  0  0  0
  157.4600  212.6260  147.5010 C   0  0  0  0  0  3  0  0  0  0  0  0
  156.9640  212.9520  148.7670 C   0  0  0  0  0  3  0  0  0  0  0  0
  158.7120  213.0960  147.0980 C   0  0  0  0  0  3  0  0  0  0  0  0
  159.4680  213.8950  147.9610 C   0  0  0  0  0  3  0  0  0  0  0  0
  1  2  2  0  0  0  0
  2  3  1  0  0  0  0
  3 26  1  0  0  0  0
  5  4  2  0  0  0  0
  5  7  1  0  0  0  0
  6  7  1  0  0  0  0
  7  2  1  6  0  0  0
  9 10  1  0  0  0  0
  9  5  1  0  0  0  0
 10  8  1  6  0  0  0
 10  6  1  0  0  0  0
 11  9  2  0  0  0  0
 12 11  1  0  0  0  0
 13 12  1  0  0  0  0
 13 14  1  0  0  0  0
 15 14  1  0  0  0  0
 15 16  1  0  0  0  0
 16 17  1  0  0  0  0
 19 24  1  6  0  0  0
 19 21  1  0  0  0  0
 20 18  1  0  0  0  0
 21 20  1  0  0  0  0
 22 19  1  0  0  0  0
 23 17  1  6  0  0  0
 23 22  1  0  0  0  0
 23 19  1  0  0  0  0
 24 25  1  0  0  0  0
 25 18  1  0  0  0  0
 26 28  1  0  0  0  0
 27 31  2  0  0  0  0
 28 32  2  0  0  0  0
 29 28  1  0  0  0  0
 29 27  1  0  0  0  0
 31 36  1  0  0  0  0
 31 33  1  0  0  0  0
 32 30  1  0  0  0  0
 33 30  2  0  0  0  0
 34 36  1  0  0  0  0
 36 38  2  0  0  0  0
 37 34  1  0  0  0  0
 37 35  1  0  0  0  0
 39 37  2  0  0  0  0
 40 39  1  0  0  0  0
 41 40  1  0  0  0  0
 42 43  1  0  0  0  0
 43 40  2  0  0  0  0
 44 42  2  0  0  0  0
 44 45  1  0  0  0  0
 45 41  2  0  0  0  0
M  END
>  <MODEL>
7

>  <REMARK>
 VINA RESULT:      -6.1      2.450      5.400
  Name = 
  12 active torsions:
  status: ('A' for Active; 'I' for Inactive)
    1  A    between atoms: C_3  and  N_43
    2  A    between atoms: C_12  and  C_17
    3  A    between atoms: C_13  and  C_14
    4  A    between atoms: C_13  and  C_24
    5  A    between atoms: C_14  and  C_38
    6  A    between atoms: C_16  and  O_28
    7  A    between atoms: C_17  and  N_34
    8  A    between atoms: C_21  and  C_27
    9  A    between atoms: C_24  and  C_26
   10  A    between atoms: C_26  and  C_44
   11  A    between atoms: O_28  and  C_38
   12  A    between atoms: C_32  and  C_35
                            x       y       z     vdW  Elec       q    Type
                         _______ _______ _______ _____ _____    ______ ____

>  <TORSDO>
F 12

$$$$
=
 OpenBabel11072414453D

 45 49  0  0  1  0  0  0  0  0999 V2000
  158.5900  210.5500  156.9870 O   0  0  0  0  0  0  0  0  0  0  0  0
  159.5680  210.4940  156.1940 C   0  0  0  0  0  0  0  0  0  0  0  0
  160.2680  209.2560  156.0380 N   0  0  0  0  0  2  0  0  0  0  0  0
  160.1660  210.7610  153.2150 O   0  0  0  0  0  0  0  0  0  0  0  0
  159.6770  211.6100  154.0080 C   0  0  0  0  0  0  0  0  0  0  0  0
  159.3010  212.8570  155.9490 O   0  0  0  0  0  0  0  0  0  0  0  0
  159.9910  211.7230  155.4440 C   0  0  1  0  0  3  0  0  0  0  0  0
  157.0450  213.3320  155.2910 C   0  0  0  0  0  1  0  0  0  0  0  0
  158.7750  212.6480  153.6600 C   0  0  0  0  0  0  0  0  0  0  0  0
  158.5120  213.4150  154.9050 C   0  0  2  0  0  3  0  0  0  0  0  0
  158.3360  212.9130  152.4290 C   0  0  0  0  0  3  0  0  0  0  0  0
  157.4400  214.0660  152.1390 C   0  0  0  0  0  2  0  0  0  0  0  0
  157.5630  214.4520  150.6770 C   0  0  0  0  0  2  0  0  0  0  0  0
  156.3950  213.8880  149.8860 C   0  0  0  0  0  2  0  0  0  0  0  0
  156.4460  214.3720  148.4480 C   0  0  0  0  0  2  0  0  0  0  0  0
  156.9300  213.2480  147.5540 C   0  0  0  0  0  2  0  0  0  0  0  0
  158.2180  212.8710  147.9370 O   0  0  0  0  0  0  0  0  0  0  0  0
  163.2140  213.0360  147.7270 C   0  0  0  0  0  2  0  0  0  0  0  0
  160.4590  213.2010  147.2580 C   0  0  2  0  0  0  0  0  0  0  0  0
  162.5650  213.4110  146.3940 C   0  0  0  0  0  2  0  0  0  0  0  0
  161.3390  214.0830  146.5960 O   0  0  0  0  0  0  0  0  0  0  0  0
  159.8280  212.2370  146.3460 N   0  0  0  0  0  2  0  0  0  0  0  0
  159.0460  213.3560  146.9190 C   0  0  1  0  0  3  0  0  0  0  0  0
  160.9030  212.5950  148.5940 C   0  0  0  0  0  2  0  0  0  0  0  0
  162.3140  212.0340  148.4480 C   0  0  0  0  0  2  0  0  0  0  0  0
  161.4390  209.0850  155.1850 C   0  0  0  0  0  2  0  0  0  0  0  0
  160.7520  208.0600  151.7450 C   0  0  0  0  0  3  0  0  0  0  0  0
  161.2160  208.0020  154.1800 C   0  0  0  0  0  0  0  0  0  0  0  0
  160.1790  208.1870  153.1180 C   0  0  0  0  0  2  0  0  0  0  0  0
  161.7860  205.6940  153.4200 C   0  0  0  0  0  3  0  0  0  0  0  0
  161.3430  206.9540  151.2770 C   0  0  0  0  0  0  0  0  0  0  0  0
  161.8670  206.8480  154.3350 C   0  0  0  0  0  3  0  0  0  0  0  0
  161.5590  205.7410  152.1020 C   0  0  0  0  0  3  0  0  0  0  0  0
  161.5160  205.7290  149.0880 N   0  0  0  0  0  2  0  0  0  0  0  0
  162.0620  206.7310  146.8090 C   0  0  0  0  0  1  0  0  0  0  0  0
  161.7580  206.9130  149.8610 C   0  0  0  0  0  0  0  0  0  0  0  0
  161.7270  205.5650  147.6760 C   0  0  0  0  0  0  0  0  0  0  0  0
  162.3290  207.9110  149.3400 O   0  0  0  0  0  0  0  0  0  0  0  0
  161.5840  204.4050  147.1030 N   0  0  0  0  0  0  0  0  0  0  0  0
  161.2570  203.1410  147.7100 C   0  0  0  0  0  0  0  0  0  0  0  0
  160.9360  203.0100  149.0730 C   0  0  0  0  0  3  0  0  0  0  0  0
  160.9940  200.7380  147.4510 C   0  0  0  0  0  3  0  0  0  0  0  0
  161.2860  201.9930  146.9080 C   0  0  0  0  0  3  0  0  0  0  0  0
  160.6720  200.6190  148.8050 C   0  0  0  0  0  3  0  0  0  0  0  0
  160.6430  201.7560  149.6170 C   0  0  0  0  0  3  0  0  0  0  0  0
  2  1  2  0  0  0  0
  3  2  1  0  0  0  0
  4  5  2  0  0  0  0
  5  7  1  0  0  0  0
  7  6  1  0  0  0  0
  7  2  1  1  0  0  0
  9  5  1  0  0  0  0
  9 10  1  0  0  0  0
 10  8  1  1  0  0  0
 10  6  1  0  0  0  0
 11  9  2  0  0  0  0
 12 11  1  0  0  0  0
 13 12  1  0  0  0  0
 14 13  1  0  0  0  0
 15 14  1  0  0  0  0
 16 17  1  0  0  0  0
 16 15  1  0  0  0  0
 18 25  1  0  0  0  0
 19 24  1  1  0  0  0
 20 21  1  0  0  0  0
 20 18  1  0  0  0  0
 21 19  1  0  0  0  0
 22 23  1  0  0  0  0
 22 19  1  0  0  0  0
 23 19  1  0  0  0  0
 23 17  1  1  0  0  0
 25 24  1  0  0  0  0
 26  3  1  0  0  0  0
 27 29  1  0  0  0  0
 28 32  2  0  0  0  0
 28 26  1  0  0  0  0
 29 28  1  0  0  0  0
 30 32  1  0  0  0  0
 31 27  2  0  0  0  0
 31 33  1  0  0  0  0
 33 30  2  0  0  0  0
 34 36  1  0  0  0  0
 35 37  1  0  0  0  0
 36 31  1  0  0  0  0
 37 34  1  0  0  0  0
 38 36  2  0  0  0  0
 39 37  2  0  0  0  0
 39 40  1  0  0  0  0
 40 41  1  0  0  0  0
 41 45  2  0  0  0  0
 42 44  2  0  0  0  0
 43 42  1  0  0  0  0
 43 40  2  0  0  0  0
 44 45  1  0  0  0  0
M  END
>  <MODEL>
8

>  <REMARK>
 VINA RESULT:      -6.0      1.911      8.651
  Name = 
  12 active torsions:
  status: ('A' for Active; 'I' for Inactive)
    1  A    between atoms: C_3  and  N_43
    2  A    between atoms: C_12  and  C_17
    3  A    between atoms: C_13  and  C_14
    4  A    between atoms: C_13  and  C_24
    5  A    between atoms: C_14  and  C_38
    6  A    between atoms: C_16  and  O_28
    7  A    between atoms: C_17  and  N_34
    8  A    between atoms: C_21  and  C_27
    9  A    between atoms: C_24  and  C_26
   10  A    between atoms: C_26  and  C_44
   11  A    between atoms: O_28  and  C_38
   12  A    between atoms: C_32  and  C_35
                            x       y       z     vdW  Elec       q    Type
                         _______ _______ _______ _____ _____    ______ ____

>  <TORSDO>
F 12

$$$$
=
 OpenBabel11072414453D

 45 49  0  0  1  0  0  0  0  0999 V2000
  159.1230  212.7770  146.0580 O   0  0  0  0  0  0  0  0  0  0  0  0
  159.7500  212.9370  147.1400 C   0  0  0  0  0  0  0  0  0  0  0  0
  160.6800  211.9340  147.5600 N   0  0  0  0  0  2  0  0  0  0  0  0
  157.1290  214.4520  147.5130 O   0  0  0  0  0  0  0  0  0  0  0  0
  158.0750  214.2860  148.3280 C   0  0  0  0  0  0  0  0  0  0  0  0
  160.2410  214.0760  149.1830 O   0  0  0  0  0  0  0  0  0  0  0  0
  159.5000  214.1590  147.9740 C   0  0  1  0  0  3  0  0  0  0  0  0
  159.4610  212.7590  151.0290 C   0  0  0  0  0  1  0  0  0  0  0  0
  157.9560  214.2430  149.7410 C   0  0  0  0  0  0  0  0  0  0  0  0
  159.3320  214.0730  150.2770 C   0  0  2  0  0  3  0  0  0  0  0  0
  156.8260  214.4130  150.4300 C   0  0  0  0  0  3  0  0  0  0  0  0
  156.7990  214.4190  151.9190 C   0  0  0  0  0  2  0  0  0  0  0  0
  155.3670  214.3010  152.4020 C   0  0  0  0  0  2  0  0  0  0  0  0
  155.3400  213.9470  153.8790 C   0  0  0  0  0  2  0  0  0  0  0  0
  156.6780  214.2660  154.5240 C   0  0  0  0  0  2  0  0  0  0  0  0
  157.0580  213.1480  155.4750 C   0  0  0  0  0  2  0  0  0  0  0  0
  158.4460  213.1060  155.6120 O   0  0  0  0  0  0  0  0  0  0  0  0
  161.7340  209.3350  155.6150 C   0  0  0  0  0  2  0  0  0  0  0  0
  159.7450  211.2170  156.1950 C   0  0  2  0  0  0  0  0  0  0  0  0
  161.0430  209.5030  156.9690 C   0  0  0  0  0  2  0  0  0  0  0  0
  159.7130  209.9480  156.8100 O   0  0  0  0  0  0  0  0  0  0  0  0
  160.0390  212.3010  157.1420 N   0  0  0  0  0  2  0  0  0  0  0  0
  158.6750  212.1320  156.5890 C   0  0  1  0  0  3  0  0  0  0  0  0
  160.4640  211.3570  154.8480 C   0  0  0  0  0  2  0  0  0  0  0  0
  161.8390  210.7020  154.9430 C   0  0  0  0  0  2  0  0  0  0  0  0
  161.4280  211.9900  148.8110 C   0  0  0  0  0  2  0  0  0  0  0  0
  161.9790  209.3810  151.3100 C   0  0  0  0  0  3  0  0  0  0  0  0
  161.9630  210.6440  149.1760 C   0  0  0  0  0  0  0  0  0  0  0  0
  162.6320  210.4530  150.5010 C   0  0  0  0  0  2  0  0  0  0  0  0
  162.3930  208.2920  148.4610 C   0  0  0  0  0  3  0  0  0  0  0  0
  161.8910  208.1010  150.9280 C   0  0  0  0  0  0  0  0  0  0  0  0
  161.9370  209.6790  148.2550 C   0  0  0  0  0  3  0  0  0  0  0  0
  162.3740  207.6130  149.6150 C   0  0  0  0  0  3  0  0  0  0  0  0
  161.2650  205.7320  151.4940 N   0  0  0  0  0  2  0  0  0  0  0  0
  160.6860  204.8070  153.7970 C   0  0  0  0  0  1  0  0  0  0  0  0
  161.3320  207.1140  151.8730 C   0  0  0  0  0  0  0  0  0  0  0  0
  160.8830  204.6270  152.3290 C   0  0  0  0  0  0  0  0  0  0  0  0
  160.9090  207.4880  153.0020 O   0  0  0  0  0  0  0  0  0  0  0  0
  160.7440  203.4280  151.8410 N   0  0  0  0  0  0  0  0  0  0  0  0
  160.8870  202.9960  150.4750 C   0  0  0  0  0  0  0  0  0  0  0  0
  160.9540  201.6400  150.1080 C   0  0  0  0  0  3  0  0  0  0  0  0
  161.1440  203.6090  148.1370 C   0  0  0  0  0  3  0  0  0  0  0  0
  160.9870  203.9730  149.4780 C   0  0  0  0  0  3  0  0  0  0  0  0
  161.2060  202.2590  147.7810 C   0  0  0  0  0  3  0  0  0  0  0  0
  161.1100  201.2730  148.7680 C   0  0  0  0  0  3  0  0  0  0  0  0
  1  2  2  0  0  0  0
  2  3  1  0  0  0  0
  3 26  1  0  0  0  0
  4  5  2  0  0  0  0
  5  9  1  0  0  0  0
  6 10  1  0  0  0  0
  7  2  1  6  0  0  0
  7  5  1  0  0  0  0
  7  6  1  0  0  0  0
  9 10  1  0  0  0  0
  9 11  2  0  0  0  0
 10  8  1  6  0  0  0
 11 12  1  0  0  0  0
 12 13  1  0  0  0  0
 13 14  1  0  0  0  0
 14 15  1  0  0  0  0
 15 16  1  0  0  0  0
 16 17  1  0  0  0  0
 18 20  1  0  0  0  0
 19 24  1  6  0  0  0
 19 23  1  0  0  0  0
 19 21  1  0  0  0  0
 19 22  1  0  0  0  0
 21 20  1  0  0  0  0
 23 17  1  6  0  0  0
 23 22  1  0  0  0  0
 24 25  1  0  0  0  0
 25 18  1  0  0  0  0
 26 28  1  0  0  0  0
 28 29  1  0  0  0  0
 29 27  1  0  0  0  0
 30 33  2  0  0  0  0
 31 27  2  0  0  0  0
 31 36  1  0  0  0  0
 32 30  1  0  0  0  0
 32 28  2  0  0  0  0
 33 31  1  0  0  0  0
 34 36  1  0  0  0  0
 34 37  1  0  0  0  0
 36 38  2  0  0  0  0
 37 35  1  0  0  0  0
 39 37  2  0  0  0  0
 40 39  1  0  0  0  0
 41 40  1  0  0  0  0
 42 43  1  0  0  0  0
 43 40  2  0  0  0  0
 44 42  2  0  0  0  0
 44 45  1  0  0  0  0
 45 41  2  0  0  0  0
M  END
>  <MODEL>
9

>  <REMARK>
 VINA RESULT:      -5.9      2.696     10.010
  Name = 
  12 active torsions:
  status: ('A' for Active; 'I' for Inactive)
    1  A    between atoms: C_3  and  N_43
    2  A    between atoms: C_12  and  C_17
    3  A    between atoms: C_13  and  C_14
    4  A    between atoms: C_13  and  C_24
    5  A    between atoms: C_14  and  C_38
    6  A    between atoms: C_16  and  O_28
    7  A    between atoms: C_17  and  N_34
    8  A    between atoms: C_21  and  C_27
    9  A    between atoms: C_24  and  C_26
   10  A    between atoms: C_26  and  C_44
   11  A    between atoms: O_28  and  C_38
   12  A    between atoms: C_32  and  C_35
                            x       y       z     vdW  Elec       q    Type
                         _______ _______ _______ _____ _____    ______ ____

>  <TORSDO>
F 12

$$$$
