=
 OpenBabel11072411563D

 32 35  0  0  1  0  0  0  0  0999 V2000
  161.9200  208.9170  150.8950 N   0  0  0  0  0  0  0  0  0  0  0  0
  162.2630  209.2250  148.6000 O   0  0  0  0  0  0  0  0  0  0  0  0
  162.0500  209.7480  149.7280 C   0  0  0  0  0  0  0  0  0  0  0  0
  161.3010  204.8700  151.4890 C   0  0  0  0  0  2  0  0  0  0  0  0
  161.1710  205.9270  152.4070 O   0  0  0  0  0  0  0  0  0  0  0  0
  162.2390  206.8050  152.1460 C   0  0  0  0  0  2  0  0  0  0  0  0
  160.9420  205.3230  150.0650 C   0  0  1  0  0  3  0  0  0  0  0  0
  162.0980  207.4720  150.7650 C   0  0  1  0  0  3  0  0  0  0  0  0
  160.9640  206.8530  149.9390 C   0  0  0  0  0  2  0  0  0  0  0  0
  161.8570  204.7380  149.1450 O   0  0  0  0  0  0  0  0  0  0  0  0
  160.9420  203.9940  144.4570 O   0  0  0  0  0  1  0  0  0  0  0  0
  161.7060  205.6510  146.5440 F   0  0  0  0  0  0  0  0  0  0  0  0
  160.7610  201.6820  147.3310 C   0  0  0  0  0  3  0  0  0  0  0  0
  161.0100  203.5070  145.7580 C   0  0  0  0  0  0  0  0  0  0  0  0
  161.1470  202.5270  148.3740 C   0  0  0  0  0  3  0  0  0  0  0  0
  161.3980  204.3560  146.8040 C   0  0  0  0  0  0  0  0  0  0  0  0
  161.4670  203.8710  148.1170 C   0  0  0  0  0  0  0  0  0  0  0  0
  160.3060  201.3200  144.9940 O   0  0  0  0  0  1  0  0  0  0  0  0
  160.6920  202.1690  146.0250 C   0  0  0  0  0  0  0  0  0  0  0  0
  161.7580  209.5050  152.2240 C   0  0  0  0  0  2  0  0  0  0  0  0
  160.2880  209.7250  152.5290 C   0  0  0  0  0  1  0  0  0  0  0  0
  161.9510  211.2400  149.8250 C   0  0  0  0  0  2  0  0  0  0  0  0
  160.6380  212.5060  146.5210 C   0  0  0  0  0  0  0  0  0  0  0  0
  161.8860  211.8600  148.4700 C   0  0  0  0  0  0  0  0  0  0  0  0
  162.9890  213.0290  146.6300 C   0  0  0  0  0  3  0  0  0  0  0  0
  161.5040  213.5860  144.7300 O   0  0  0  0  0  0  0  0  0  0  0  0
  160.1280  213.4030  144.3940 C   0  0  0  0  0  2  0  0  0  0  0  0
  163.0440  212.4260  147.8980 C   0  0  0  0  0  3  0  0  0  0  0  0
  158.5420  213.5000  146.1810 F   0  0  0  0  0  0  0  0  0  0  0  0
  161.7630  213.0480  145.9690 C   0  0  0  0  0  0  0  0  0  0  0  0
  159.4880  212.6760  145.5980 C   0  0  2  0  0  3  0  0  0  0  0  0
  160.6640  211.9010  147.7760 C   0  0  0  0  0  3  0  0  0  0  0  0
  1 20  1  0  0  0  0
  2  3  2  0  0  0  0
  3 22  1  0  0  0  0
  3  1  1  0  0  0  0
  4  5  1  0  0  0  0
  6  5  1  0  0  0  0
  7 10  1  6  0  0  0
  7  4  1  0  0  0  0
  8  1  1  1  0  0  0
  8  6  1  0  0  0  0
  9  7  1  0  0  0  0
  9  8  1  0  0  0  0
 11 14  1  0  0  0  0
 12 16  1  0  0  0  0
 13 15  1  0  0  0  0
 14 19  1  0  0  0  0
 14 16  2  0  0  0  0
 16 17  1  0  0  0  0
 17 15  2  0  0  0  0
 17 10  1  0  0  0  0
 18 19  1  0  0  0  0
 19 13  2  0  0  0  0
 20 21  1  0  0  0  0
 23 32  1  0  0  0  0
 24 22  1  0  0  0  0
 25 28  2  0  0  0  0
 26 30  1  0  0  0  0
 27 26  1  0  0  0  0
 27 31  1  0  0  0  0
 28 24  1  0  0  0  0
 30 23  2  0  0  0  0
 30 25  1  0  0  0  0
 31 29  1  1  0  0  0
 31 23  1  0  0  0  0
 32 24  2  0  0  0  0
M  END
>  <MODEL>
1

>  <REMARK>
 VINA RESULT:      -8.4      0.000      0.000
  Name = 
  6 active torsions:
  status: ('A' for Active; 'I' for Inactive)
    1  A    between atoms: N_4  and  C_23
    2  A    between atoms: N_4  and  C_24
    3  A    between atoms: C_6  and  C_7
    4  A    between atoms: C_7  and  C_31
    5  A    between atoms: O_14  and  C_19
    6  A    between atoms: O_14  and  C_22
                            x       y       z     vdW  Elec       q    Type
                         _______ _______ _______ _____ _____    ______ ____

>  <TORSDO>
F 6

$$$$
=
 OpenBabel11072411563D

 32 35  0  0  1  0  0  0  0  0999 V2000
  161.9920  209.3670  150.5240 N   0  0  0  0  0  0  0  0  0  0  0  0
  162.2660  209.6170  148.2130 O   0  0  0  0  0  0  0  0  0  0  0  0
  162.1080  210.1700  149.3350 C   0  0  0  0  0  0  0  0  0  0  0  0
  161.1790  205.3550  151.1170 C   0  0  0  0  0  2  0  0  0  0  0  0
  161.0360  206.4260  152.0160 O   0  0  0  0  0  0  0  0  0  0  0  0
  162.1520  207.2590  151.8120 C   0  0  0  0  0  2  0  0  0  0  0  0
  160.9240  205.8050  149.6700 C   0  0  1  0  0  3  0  0  0  0  0  0
  162.1210  207.9150  150.4180 C   0  0  1  0  0  3  0  0  0  0  0  0
  161.0150  207.3310  149.5310 C   0  0  0  0  0  2  0  0  0  0  0  0
  161.8690  205.1740  148.8120 O   0  0  0  0  0  0  0  0  0  0  0  0
  160.6020  200.5830  147.9880 O   0  0  0  0  0  1  0  0  0  0  0  0
  161.2840  202.6340  149.7230 F   0  0  0  0  0  0  0  0  0  0  0  0
  161.1320  203.3820  145.6380 C   0  0  0  0  0  3  0  0  0  0  0  0
  160.8920  201.8530  147.5010 C   0  0  0  0  0  0  0  0  0  0  0  0
  161.4740  204.4070  146.5230 C   0  0  0  0  0  3  0  0  0  0  0  0
  161.2350  202.8810  148.3890 C   0  0  0  0  0  0  0  0  0  0  0  0
  161.5300  204.1630  147.9050 C   0  0  0  0  0  0  0  0  0  0  0  0
  160.5020  201.0930  145.2360 O   0  0  0  0  0  1  0  0  0  0  0  0
  160.8410  202.1060  146.1240 C   0  0  0  0  0  0  0  0  0  0  0  0
  161.8950  209.9860  151.8450 C   0  0  0  0  0  2  0  0  0  0  0  0
  160.4420  210.1290  152.2560 C   0  0  0  0  0  1  0  0  0  0  0  0
  162.0600  211.6660  149.4050 C   0  0  0  0  0  2  0  0  0  0  0  0
  162.1040  213.2840  145.9950 C   0  0  0  0  0  0  0  0  0  0  0  0
  161.6110  212.2460  148.1060 C   0  0  0  0  0  0  0  0  0  0  0  0
  159.8110  212.7730  146.5400 C   0  0  0  0  0  3  0  0  0  0  0  0
  160.5610  213.8430  144.4370 O   0  0  0  0  0  0  0  0  0  0  0  0
  161.8010  214.2590  143.8630 C   0  0  0  0  0  2  0  0  0  0  0  0
  160.2420  212.2450  147.7690 C   0  0  0  0  0  3  0  0  0  0  0  0
  163.7290  212.9300  144.3430 F   0  0  0  0  0  0  0  0  0  0  0  0
  160.7770  213.2860  145.6760 C   0  0  0  0  0  0  0  0  0  0  0  0
  162.8930  213.8850  144.8910 C   0  0  2  0  0  3  0  0  0  0  0  0
  162.5590  212.7690  147.2080 C   0  0  0  0  0  3  0  0  0  0  0  0
  1 20  1  0  0  0  0
  2  3  2  0  0  0  0
  3 22  1  0  0  0  0
  3  1  1  0  0  0  0
  4  5  1  0  0  0  0
  6  5  1  0  0  0  0
  7 10  1  6  0  0  0
  7  4  1  0  0  0  0
  8  1  1  1  0  0  0
  8  6  1  0  0  0  0
  9  7  1  0  0  0  0
  9  8  1  0  0  0  0
 13 19  2  0  0  0  0
 13 15  1  0  0  0  0
 14 11  1  0  0  0  0
 14 16  2  0  0  0  0
 15 17  2  0  0  0  0
 16 12  1  0  0  0  0
 17 16  1  0  0  0  0
 17 10  1  0  0  0  0
 18 19  1  0  0  0  0
 19 14  1  0  0  0  0
 20 21  1  0  0  0  0
 23 32  1  0  0  0  0
 24 22  1  0  0  0  0
 25 28  2  0  0  0  0
 26 30  1  0  0  0  0
 27 26  1  0  0  0  0
 27 31  1  0  0  0  0
 28 24  1  0  0  0  0
 30 23  2  0  0  0  0
 30 25  1  0  0  0  0
 31 29  1  6  0  0  0
 31 23  1  0  0  0  0
 32 24  2  0  0  0  0
M  END
>  <MODEL>
2

>  <REMARK>
 VINA RESULT:      -8.0      1.542      2.152
  Name = 
  6 active torsions:
  status: ('A' for Active; 'I' for Inactive)
    1  A    between atoms: N_4  and  C_23
    2  A    between atoms: N_4  and  C_24
    3  A    between atoms: C_6  and  C_7
    4  A    between atoms: C_7  and  C_31
    5  A    between atoms: O_14  and  C_19
    6  A    between atoms: O_14  and  C_22
                            x       y       z     vdW  Elec       q    Type
                         _______ _______ _______ _____ _____    ______ ____

>  <TORSDO>
F 6

$$$$
=
 OpenBabel11072411563D

 32 35  0  0  1  0  0  0  0  0999 V2000
  160.8240  208.5140  154.0860 N   0  0  0  0  0  0  0  0  0  0  0  0
  160.2920  210.6180  153.2120 O   0  0  0  0  0  0  0  0  0  0  0  0
  160.5600  209.9210  154.2280 C   0  0  0  0  0  0  0  0  0  0  0  0
  162.2700  207.2830  150.4100 C   0  0  0  0  0  2  0  0  0  0  0  0
  162.6150  208.4230  151.1580 O   0  0  0  0  0  0  0  0  0  0  0  0
  161.4150  208.9040  151.7140 C   0  0  0  0  0  2  0  0  0  0  0  0
  161.9010  206.1060  151.3280 C   0  0  1  0  0  3  0  0  0  0  0  0
  160.8380  207.9210  152.7500 C   0  0  1  0  0  3  0  0  0  0  0  0
  161.5850  206.5820  152.7530 C   0  0  0  0  0  2  0  0  0  0  0  0
  160.7830  205.4180  150.7780 O   0  0  0  0  0  0  0  0  0  0  0  0
  161.3400  202.8700  146.7090 O   0  0  0  0  0  1  0  0  0  0  0  0
  161.1330  205.2900  148.0430 F   0  0  0  0  0  0  0  0  0  0  0  0
  160.9150  201.7470  150.2010 C   0  0  0  0  0  3  0  0  0  0  0  0
  161.1640  202.9030  148.0880 C   0  0  0  0  0  0  0  0  0  0  0  0
  160.8110  202.9730  150.8620 C   0  0  0  0  0  3  0  0  0  0  0  0
  161.0610  204.1350  148.7500 C   0  0  0  0  0  0  0  0  0  0  0  0
  160.8820  204.1760  150.1400 C   0  0  0  0  0  0  0  0  0  0  0  0
  161.1910  200.4840  148.1690 O   0  0  0  0  0  1  0  0  0  0  0  0
  161.0910  201.7100  148.8170 C   0  0  0  0  0  0  0  0  0  0  0  0
  161.2200  207.7020  155.2360 C   0  0  0  0  0  2  0  0  0  0  0  0
  159.9980  207.2690  156.0240 C   0  0  0  0  0  1  0  0  0  0  0  0
  160.6110  210.5860  155.5690 C   0  0  0  0  0  2  0  0  0  0  0  0
  157.2220  212.2060  155.9430 C   0  0  0  0  0  0  0  0  0  0  0  0
  159.5390  211.6160  155.6940 C   0  0  0  0  0  0  0  0  0  0  0  0
  158.8740  213.9600  155.8630 C   0  0  0  0  0  3  0  0  0  0  0  0
  156.4370  214.3220  156.1060 O   0  0  0  0  0  0  0  0  0  0  0  0
  155.2640  213.5100  156.1740 C   0  0  0  0  0  2  0  0  0  0  0  0
  159.8750  212.9850  155.7260 C   0  0  0  0  0  3  0  0  0  0  0  0
  155.4630  211.3890  157.2590 F   0  0  0  0  0  0  0  0  0  0  0  0
  157.5530  213.5290  155.9680 C   0  0  0  0  0  0  0  0  0  0  0  0
  155.7520  212.0470  156.0780 C   0  0  2  0  0  3  0  0  0  0  0  0
  158.1950  211.2160  155.8070 C   0  0  0  0  0  3  0  0  0  0  0  0
  1  3  1  0  0  0  0
  1 20  1  0  0  0  0
  2  3  2  0  0  0  0
  3 22  1  0  0  0  0
  4  5  1  0  0  0  0
  4  7  1  0  0  0  0
  5  6  1  0  0  0  0
  6  8  1  0  0  0  0
  7 10  1  6  0  0  0
  7  9  1  0  0  0  0
  8  9  1  0  0  0  0
  8  1  1  1  0  0  0
 11 14  1  0  0  0  0
 12 16  1  0  0  0  0
 13 15  1  0  0  0  0
 14 16  2  0  0  0  0
 14 19  1  0  0  0  0
 16 17  1  0  0  0  0
 17 10  1  0  0  0  0
 17 15  2  0  0  0  0
 18 19  1  0  0  0  0
 19 13  2  0  0  0  0
 20 21  1  0  0  0  0
 22 24  1  0  0  0  0
 23 30  1  0  0  0  0
 23 31  1  0  0  0  0
 24 28  2  0  0  0  0
 24 32  1  0  0  0  0
 25 30  2  0  0  0  0
 26 27  1  0  0  0  0
 28 25  1  0  0  0  0
 30 26  1  0  0  0  0
 31 27  1  0  0  0  0
 31 29  1  1  0  0  0
 32 23  2  0  0  0  0
M  END
>  <MODEL>
3

>  <REMARK>
 VINA RESULT:      -8.0      4.352      6.449
  Name = 
  6 active torsions:
  status: ('A' for Active; 'I' for Inactive)
    1  A    between atoms: N_4  and  C_23
    2  A    between atoms: N_4  and  C_24
    3  A    between atoms: C_6  and  C_7
    4  A    between atoms: C_7  and  C_31
    5  A    between atoms: O_14  and  C_19
    6  A    between atoms: O_14  and  C_22
                            x       y       z     vdW  Elec       q    Type
                         _______ _______ _______ _____ _____    ______ ____

>  <TORSDO>
F 6

$$$$
=
 OpenBabel11072411563D

 32 35  0  0  1  0  0  0  0  0999 V2000
  161.1490  209.0060  153.8680 N   0  0  0  0  0  0  0  0  0  0  0  0
  159.9820  207.3360  155.0190 O   0  0  0  0  0  0  0  0  0  0  0  0
  160.5840  208.4430  155.0650 C   0  0  0  0  0  0  0  0  0  0  0  0
  161.9690  207.6150  150.0590 C   0  0  0  0  0  2  0  0  0  0  0  0
  162.3330  208.8390  150.6490 O   0  0  0  0  0  0  0  0  0  0  0  0
  161.2210  209.2530  151.4060 C   0  0  0  0  0  2  0  0  0  0  0  0
  161.9130  206.4890  151.1030 C   0  0  1  0  0  3  0  0  0  0  0  0
  160.9630  208.3100  152.5960 C   0  0  1  0  0  3  0  0  0  0  0  0
  161.8330  207.0480  152.5310 C   0  0  0  0  0  2  0  0  0  0  0  0
  160.7870  205.6600  150.8350 O   0  0  0  0  0  0  0  0  0  0  0  0
  161.2060  202.8670  146.9130 O   0  0  0  0  0  1  0  0  0  0  0  0
  160.9980  205.3630  148.0980 F   0  0  0  0  0  0  0  0  0  0  0  0
  160.9960  201.9640  150.4880 C   0  0  0  0  0  3  0  0  0  0  0  0
  161.1010  202.9860  148.2940 C   0  0  0  0  0  0  0  0  0  0  0  0
  160.8920  203.2270  151.0730 C   0  0  0  0  0  3  0  0  0  0  0  0
  160.9970  204.2550  148.8810 C   0  0  0  0  0  0  0  0  0  0  0  0
  160.8890  204.3820  150.2720 C   0  0  0  0  0  0  0  0  0  0  0  0
  161.2040  200.5780  148.5290 O   0  0  0  0  0  1  0  0  0  0  0  0
  161.1010  201.8410  149.1010 C   0  0  0  0  0  0  0  0  0  0  0  0
  161.7760  210.3270  153.8790 C   0  0  0  0  0  2  0  0  0  0  0  0
  160.7920  211.3840  153.4140 C   0  0  0  0  0  1  0  0  0  0  0  0
  160.6830  209.1590  156.3780 C   0  0  0  0  0  2  0  0  0  0  0  0
  157.6220  211.3030  155.8510 C   0  0  0  0  0  0  0  0  0  0  0  0
  159.7280  210.3040  156.4340 C   0  0  0  0  0  0  0  0  0  0  0  0
  159.1470  212.5280  157.2590 C   0  0  0  0  0  3  0  0  0  0  0  0
  156.9320  213.3510  156.5220 O   0  0  0  0  0  0  0  0  0  0  0  0
  155.8570  212.8700  155.7130 C   0  0  0  0  0  2  0  0  0  0  0  0
  160.0480  211.4530  157.1850 C   0  0  0  0  0  3  0  0  0  0  0  0
  155.4130  210.5220  155.7670 F   0  0  0  0  0  0  0  0  0  0  0  0
  157.9390  212.4150  156.5740 C   0  0  0  0  0  0  0  0  0  0  0  0
  156.2780  211.4620  155.2380 C   0  0  2  0  0  3  0  0  0  0  0  0
  158.4970  210.2220  155.7590 C   0  0  0  0  0  3  0  0  0  0  0  0
  1 20  1  0  0  0  0
  1  3  1  0  0  0  0
  2  3  2  0  0  0  0
  3 22  1  0  0  0  0
  4  5  1  0  0  0  0
  4  7  1  0  0  0  0
  5  6  1  0  0  0  0
  6  8  1  0  0  0  0
  7 10  1  6  0  0  0
  7  9  1  0  0  0  0
  8  1  1  1  0  0  0
  9  8  1  0  0  0  0
 11 14  1  0  0  0  0
 12 16  1  0  0  0  0
 13 15  1  0  0  0  0
 14 16  2  0  0  0  0
 14 19  1  0  0  0  0
 16 17  1  0  0  0  0
 17 10  1  0  0  0  0
 17 15  2  0  0  0  0
 18 19  1  0  0  0  0
 19 13  2  0  0  0  0
 21 20  1  0  0  0  0
 22 24  1  0  0  0  0
 23 30  1  0  0  0  0
 24 28  2  0  0  0  0
 26 30  1  0  0  0  0
 27 26  1  0  0  0  0
 28 25  1  0  0  0  0
 30 25  2  0  0  0  0
 31 27  1  0  0  0  0
 31 29  1  1  0  0  0
 31 23  1  0  0  0  0
 32 23  2  0  0  0  0
 32 24  1  0  0  0  0
M  END
>  <MODEL>
4

>  <REMARK>
 VINA RESULT:      -7.7      3.993      6.569
  Name = 
  6 active torsions:
  status: ('A' for Active; 'I' for Inactive)
    1  A    between atoms: N_4  and  C_23
    2  A    between atoms: N_4  and  C_24
    3  A    between atoms: C_6  and  C_7
    4  A    between atoms: C_7  and  C_31
    5  A    between atoms: O_14  and  C_19
    6  A    between atoms: O_14  and  C_22
                            x       y       z     vdW  Elec       q    Type
                         _______ _______ _______ _____ _____    ______ ____

>  <TORSDO>
F 6

$$$$
=
 OpenBabel11072411563D

 32 35  0  0  1  0  0  0  0  0999 V2000
  161.6950  207.9370  153.3090 N   0  0  0  0  0  0  0  0  0  0  0  0
  162.0620  209.5280  151.6320 O   0  0  0  0  0  0  0  0  0  0  0  0
  161.8250  209.2940  152.8480 C   0  0  0  0  0  0  0  0  0  0  0  0
  161.0970  204.3310  151.3710 C   0  0  0  0  0  2  0  0  0  0  0  0
  160.8960  204.6490  152.7260 O   0  0  0  0  0  0  0  0  0  0  0  0
  161.9660  205.4860  153.0930 C   0  0  0  0  0  2  0  0  0  0  0  0
  160.8190  205.5440  150.4680 C   0  0  1  0  0  3  0  0  0  0  0  0
  161.9010  206.8410  152.3640 C   0  0  1  0  0  3  0  0  0  0  0  0
  160.8280  206.8540  151.2680 C   0  0  0  0  0  2  0  0  0  0  0  0
  161.7970  205.5890  149.4350 O   0  0  0  0  0  0  0  0  0  0  0  0
  161.2090  202.5260  145.7430 O   0  0  0  0  0  1  0  0  0  0  0  0
  161.7910  203.0280  148.4060 F   0  0  0  0  0  0  0  0  0  0  0  0
  160.8990  206.2030  145.8790 C   0  0  0  0  0  3  0  0  0  0  0  0
  161.2040  203.8270  146.2330 C   0  0  0  0  0  0  0  0  0  0  0  0
  161.1950  206.4430  147.2220 C   0  0  0  0  0  3  0  0  0  0  0  0
  161.5000  204.0660  147.5830 C   0  0  0  0  0  0  0  0  0  0  0  0
  161.4990  205.3760  148.0840 C   0  0  0  0  0  0  0  0  0  0  0  0
  160.6090  204.6700  144.0440 O   0  0  0  0  0  1  0  0  0  0  0  0
  160.9040  204.8980  145.3830 C   0  0  0  0  0  0  0  0  0  0  0  0
  161.5060  207.6370  154.7280 C   0  0  0  0  0  2  0  0  0  0  0  0
  160.0490  207.3280  155.0120 C   0  0  0  0  0  1  0  0  0  0  0  0
  161.6980  210.4470  153.7960 C   0  0  0  0  0  2  0  0  0  0  0  0
  158.1410  211.4690  154.5390 C   0  0  0  0  0  0  0  0  0  0  0  0
  160.3540  211.0850  153.6830 C   0  0  0  0  0  0  0  0  0  0  0  0
  158.8150  212.5690  152.5020 C   0  0  0  0  0  3  0  0  0  0  0  0
  156.5940  212.8050  153.5690 O   0  0  0  0  0  0  0  0  0  0  0  0
  155.9330  212.2910  154.7260 C   0  0  0  0  0  2  0  0  0  0  0  0
  160.0720  211.9500  152.6070 C   0  0  0  0  0  3  0  0  0  0  0  0
  157.2700  211.9090  156.6710 F   0  0  0  0  0  0  0  0  0  0  0  0
  157.8720  212.3020  153.4920 C   0  0  0  0  0  0  0  0  0  0  0  0
  156.9590  211.3770  155.4320 C   0  0  2  0  0  3  0  0  0  0  0  0
  159.3790  210.8400  154.6670 C   0  0  0  0  0  3  0  0  0  0  0  0
  1 20  1  0  0  0  0
  2  3  2  0  0  0  0
  3  1  1  0  0  0  0
  3 22  1  0  0  0  0
  4  5  1  0  0  0  0
  5  6  1  0  0  0  0
  7 10  1  6  0  0  0
  7  9  1  0  0  0  0
  7  4  1  0  0  0  0
  8  6  1  0  0  0  0
  8  1  1  1  0  0  0
  9  8  1  0  0  0  0
 11 14  1  0  0  0  0
 13 15  1  0  0  0  0
 14 16  2  0  0  0  0
 15 17  2  0  0  0  0
 16 17  1  0  0  0  0
 16 12  1  0  0  0  0
 17 10  1  0  0  0  0
 18 19  1  0  0  0  0
 19 13  2  0  0  0  0
 19 14  1  0  0  0  0
 20 21  1  0  0  0  0
 23 32  1  0  0  0  0
 23 31  1  0  0  0  0
 24 22  1  0  0  0  0
 24 32  2  0  0  0  0
 25 28  2  0  0  0  0
 25 30  1  0  0  0  0
 26 27  1  0  0  0  0
 27 31  1  0  0  0  0
 28 24  1  0  0  0  0
 30 26  1  0  0  0  0
 30 23  2  0  0  0  0
 31 29  1  1  0  0  0
M  END
>  <MODEL>
5

>  <REMARK>
 VINA RESULT:      -7.6      4.172      5.324
  Name = 
  6 active torsions:
  status: ('A' for Active; 'I' for Inactive)
    1  A    between atoms: N_4  and  C_23
    2  A    between atoms: N_4  and  C_24
    3  A    between atoms: C_6  and  C_7
    4  A    between atoms: C_7  and  C_31
    5  A    between atoms: O_14  and  C_19
    6  A    between atoms: O_14  and  C_22
                            x       y       z     vdW  Elec       q    Type
                         _______ _______ _______ _____ _____    ______ ____

>  <TORSDO>
F 6

$$$$
=
 OpenBabel11072411563D

 32 35  0  0  1  0  0  0  0  0999 V2000
  161.7950  208.2110  151.0790 N   0  0  0  0  0  0  0  0  0  0  0  0
  160.4550  208.1490  152.9970 O   0  0  0  0  0  0  0  0  0  0  0  0
  160.9660  208.8390  152.0740 C   0  0  0  0  0  0  0  0  0  0  0  0
  161.2060  204.2570  152.1470 C   0  0  0  0  0  2  0  0  0  0  0  0
  161.0700  205.4140  152.9350 O   0  0  0  0  0  0  0  0  0  0  0  0
  162.1320  206.2630  152.5690 C   0  0  0  0  0  2  0  0  0  0  0  0
  160.8410  204.5370  150.6800 C   0  0  1  0  0  3  0  0  0  0  0  0
  161.9840  206.7620  151.1200 C   0  0  1  0  0  3  0  0  0  0  0  0
  160.8520  206.0410  150.3750 C   0  0  0  0  0  2  0  0  0  0  0  0
  161.7590  203.8550  149.8330 O   0  0  0  0  0  0  0  0  0  0  0  0
  161.3990  203.9540  145.0140 O   0  0  0  0  0  1  0  0  0  0  0  0
  162.1170  205.1380  147.4150 F   0  0  0  0  0  0  0  0  0  0  0  0
  160.4560  201.3290  147.4350 C   0  0  0  0  0  3  0  0  0  0  0  0
  161.2070  203.2840  146.2170 C   0  0  0  0  0  0  0  0  0  0  0  0
  160.8220  201.9370  148.6380 C   0  0  0  0  0  3  0  0  0  0  0  0
  161.5750  203.8940  147.4240 C   0  0  0  0  0  0  0  0  0  0  0  0
  161.3830  203.2250  148.6410 C   0  0  0  0  0  0  0  0  0  0  0  0
  160.2790  201.3870  145.0340 O   0  0  0  0  0  1  0  0  0  0  0  0
  160.6470  202.0000  146.2250 C   0  0  0  0  0  0  0  0  0  0  0  0
  162.3280  208.9740  149.9510 C   0  0  0  0  0  2  0  0  0  0  0  0
  161.9570  208.3070  148.6400 C   0  0  0  0  0  1  0  0  0  0  0  0
  160.6830  210.3090  152.0270 C   0  0  0  0  0  2  0  0  0  0  0  0
  158.1010  211.4650  154.5260 C   0  0  0  0  0  0  0  0  0  0  0  0
  160.0430  210.7690  153.2940 C   0  0  0  0  0  0  0  0  0  0  0  0
  160.2160  211.3040  155.6720 C   0  0  0  0  0  3  0  0  0  0  0  0
  158.0880  212.0020  156.7250 O   0  0  0  0  0  0  0  0  0  0  0  0
  156.7330  212.1920  156.3120 C   0  0  0  0  0  2  0  0  0  0  0  0
  160.8130  210.8890  154.4700 C   0  0  0  0  0  3  0  0  0  0  0  0
  155.8830  210.7140  154.6360 F   0  0  0  0  0  0  0  0  0  0  0  0
  158.8510  211.5850  155.6590 C   0  0  0  0  0  0  0  0  0  0  0  0
  156.6890  211.8240  154.8120 C   0  0  2  0  0  3  0  0  0  0  0  0
  158.6670  211.0580  153.3190 C   0  0  0  0  0  3  0  0  0  0  0  0
  1  3  1  0  0  0  0
  3  2  2  0  0  0  0
  4  5  1  0  0  0  0
  6  5  1  0  0  0  0
  7 10  1  6  0  0  0
  7  4  1  0  0  0  0
  8  1  1  1  0  0  0
  8  6  1  0  0  0  0
  9  7  1  0  0  0  0
  9  8  1  0  0  0  0
 11 14  1  0  0  0  0
 12 16  1  0  0  0  0
 13 15  1  0  0  0  0
 14 19  1  0  0  0  0
 14 16  2  0  0  0  0
 15 17  2  0  0  0  0
 16 17  1  0  0  0  0
 17 10  1  0  0  0  0
 18 19  1  0  0  0  0
 19 13  2  0  0  0  0
 20  1  1  0  0  0  0
 21 20  1  0  0  0  0
 22  3  1  0  0  0  0
 22 24  1  0  0  0  0
 23 31  1  0  0  0  0
 23 30  1  0  0  0  0
 24 32  1  0  0  0  0
 24 28  2  0  0  0  0
 27 26  1  0  0  0  0
 28 25  1  0  0  0  0
 30 25  2  0  0  0  0
 30 26  1  0  0  0  0
 31 29  1  1  0  0  0
 31 27  1  0  0  0  0
 32 23  2  0  0  0  0
M  END
>  <MODEL>
6

>  <REMARK>
 VINA RESULT:      -7.6      3.640      5.448
  Name = 
  6 active torsions:
  status: ('A' for Active; 'I' for Inactive)
    1  A    between atoms: N_4  and  C_23
    2  A    between atoms: N_4  and  C_24
    3  A    between atoms: C_6  and  C_7
    4  A    between atoms: C_7  and  C_31
    5  A    between atoms: O_14  and  C_19
    6  A    between atoms: O_14  and  C_22
                            x       y       z     vdW  Elec       q    Type
                         _______ _______ _______ _____ _____    ______ ____

>  <TORSDO>
F 6

$$$$
=
 OpenBabel11072411563D

 32 35  0  0  1  0  0  0  0  0999 V2000
  161.5890  208.1480  153.3540 N   0  0  0  0  0  0  0  0  0  0  0  0
  161.9520  209.7750  151.7130 O   0  0  0  0  0  0  0  0  0  0  0  0
  161.6970  209.5150  152.9200 C   0  0  0  0  0  0  0  0  0  0  0  0
  161.1610  204.5280  151.3960 C   0  0  0  0  0  2  0  0  0  0  0  0
  160.9710  204.8230  152.7580 O   0  0  0  0  0  0  0  0  0  0  0  0
  161.9980  205.7180  153.1110 C   0  0  0  0  0  2  0  0  0  0  0  0
  160.7940  205.7300  150.5110 C   0  0  1  0  0  3  0  0  0  0  0  0
  161.8380  207.0730  152.3950 C   0  0  1  0  0  3  0  0  0  0  0  0
  160.7430  207.0320  151.3220 C   0  0  0  0  0  2  0  0  0  0  0  0
  161.7450  205.8410  149.4570 O   0  0  0  0  0  0  0  0  0  0  0  0
  161.2490  202.5370  145.9650 O   0  0  0  0  0  1  0  0  0  0  0  0
  161.8150  203.2210  148.5900 F   0  0  0  0  0  0  0  0  0  0  0  0
  160.8310  206.2050  145.8710 C   0  0  0  0  0  3  0  0  0  0  0  0
  161.2060  203.8650  146.3730 C   0  0  0  0  0  0  0  0  0  0  0  0
  161.1190  206.5370  147.1970 C   0  0  0  0  0  3  0  0  0  0  0  0
  161.4940  204.1970  147.7040 C   0  0  0  0  0  0  0  0  0  0  0  0
  161.4540  205.5340  148.1230 C   0  0  0  0  0  0  0  0  0  0  0  0
  160.5870  204.5530  144.1360 O   0  0  0  0  0  1  0  0  0  0  0  0
  160.8740  204.8720  145.4580 C   0  0  0  0  0  0  0  0  0  0  0  0
  161.3790  207.8190  154.7640 C   0  0  0  0  0  2  0  0  0  0  0  0
  159.9210  207.4850  155.0160 C   0  0  0  0  0  1  0  0  0  0  0  0
  161.5260  210.6480  153.8840 C   0  0  0  0  0  2  0  0  0  0  0  0
  158.8390  212.8760  152.4460 C   0  0  0  0  0  0  0  0  0  0  0  0
  160.2190  211.3370  153.6710 C   0  0  0  0  0  0  0  0  0  0  0  0
  157.8800  211.6630  154.2950 C   0  0  0  0  0  3  0  0  0  0  0  0
  156.6620  213.3010  152.8930 O   0  0  0  0  0  0  0  0  0  0  0  0
  156.9590  214.1460  151.7810 C   0  0  0  0  0  2  0  0  0  0  0  0
  159.1190  211.0330  154.4990 C   0  0  0  0  0  3  0  0  0  0  0  0
  158.5180  213.3200  150.1660 F   0  0  0  0  0  0  0  0  0  0  0  0
  157.7800  212.5830  153.2530 C   0  0  0  0  0  0  0  0  0  0  0  0
  158.4400  213.8810  151.4280 C   0  0  2  0  0  3  0  0  0  0  0  0
  160.0810  212.2680  152.6270 C   0  0  0  0  0  3  0  0  0  0  0  0
  1 20  1  0  0  0  0
  2  3  2  0  0  0  0
  3  1  1  0  0  0  0
  3 22  1  0  0  0  0
  4  5  1  0  0  0  0
  5  6  1  0  0  0  0
  7 10  1  6  0  0  0
  7  9  1  0  0  0  0
  7  4  1  0  0  0  0
  8  6  1  0  0  0  0
  8  1  1  1  0  0  0
  9  8  1  0  0  0  0
 11 14  1  0  0  0  0
 13 15  1  0  0  0  0
 14 16  2  0  0  0  0
 15 17  2  0  0  0  0
 16 17  1  0  0  0  0
 16 12  1  0  0  0  0
 17 10  1  0  0  0  0
 18 19  1  0  0  0  0
 19 13  2  0  0  0  0
 19 14  1  0  0  0  0
 20 21  1  0  0  0  0
 23 32  2  0  0  0  0
 23 30  1  0  0  0  0
 24 22  1  0  0  0  0
 24 28  2  0  0  0  0
 25 28  1  0  0  0  0
 26 30  1  0  0  0  0
 27 26  1  0  0  0  0
 30 25  2  0  0  0  0
 31 29  1  6  0  0  0
 31 27  1  0  0  0  0
 31 23  1  0  0  0  0
 32 24  1  0  0  0  0
M  END
>  <MODEL>
7

>  <REMARK>
 VINA RESULT:      -7.5      3.695      4.576
  Name = 
  6 active torsions:
  status: ('A' for Active; 'I' for Inactive)
    1  A    between atoms: N_4  and  C_23
    2  A    between atoms: N_4  and  C_24
    3  A    between atoms: C_6  and  C_7
    4  A    between atoms: C_7  and  C_31
    5  A    between atoms: O_14  and  C_19
    6  A    between atoms: O_14  and  C_22
                            x       y       z     vdW  Elec       q    Type
                         _______ _______ _______ _____ _____    ______ ____

>  <TORSDO>
F 6

$$$$
=
 OpenBabel11072411563D

 32 35  0  0  1  0  0  0  0  0999 V2000
  160.8350  208.7230  153.5030 N   0  0  0  0  0  0  0  0  0  0  0  0
  160.2530  210.6780  152.3570 O   0  0  0  0  0  0  0  0  0  0  0  0
  160.5320  210.1290  153.4570 C   0  0  0  0  0  0  0  0  0  0  0  0
  162.3570  206.9950  150.0660 C   0  0  0  0  0  2  0  0  0  0  0  0
  162.7060  208.2160  150.6690 O   0  0  0  0  0  0  0  0  0  0  0  0
  161.5010  208.7880  151.1200 C   0  0  0  0  0  2  0  0  0  0  0  0
  161.9370  205.9560  151.1180 C   0  0  1  0  0  3  0  0  0  0  0  0
  160.8730  207.9600  152.2570 C   0  0  1  0  0  3  0  0  0  0  0  0
  161.5910  206.6190  152.4580 C   0  0  0  0  0  2  0  0  0  0  0  0
  160.8200  205.2210  150.6280 O   0  0  0  0  0  0  0  0  0  0  0  0
  160.7530  200.5050  149.5750 O   0  0  0  0  0  1  0  0  0  0  0  0
  160.5520  202.5840  151.3970 F   0  0  0  0  0  0  0  0  0  0  0  0
  161.2740  203.4410  147.3950 C   0  0  0  0  0  3  0  0  0  0  0  0
  160.8920  201.8240  149.1580 C   0  0  0  0  0  0  0  0  0  0  0  0
  161.1710  204.4790  148.3230 C   0  0  0  0  0  3  0  0  0  0  0  0
  160.7880  202.8660  150.0910 C   0  0  0  0  0  0  0  0  0  0  0  0
  160.9290  204.1980  149.6790 C   0  0  0  0  0  0  0  0  0  0  0  0
  161.2410  201.0880  146.8790 O   0  0  0  0  0  1  0  0  0  0  0  0
  161.1350  202.1150  147.8100 C   0  0  0  0  0  0  0  0  0  0  0  0
  161.2450  208.0810  154.7520 C   0  0  0  0  0  2  0  0  0  0  0  0
  160.0550  207.4210  155.4220 C   0  0  0  0  0  1  0  0  0  0  0  0
  160.5560  210.9660  154.6990 C   0  0  0  0  0  2  0  0  0  0  0  0
  157.5170  213.2050  154.6560 C   0  0  0  0  0  0  0  0  0  0  0  0
  159.2050  211.5270  154.9900 C   0  0  0  0  0  0  0  0  0  0  0  0
  157.0490  211.3540  156.1270 C   0  0  0  0  0  3  0  0  0  0  0  0
  155.4770  213.2010  155.6330 O   0  0  0  0  0  0  0  0  0  0  0  0
  155.4800  214.3890  154.8410 C   0  0  0  0  0  2  0  0  0  0  0  0
  158.3310  210.8440  155.8610 C   0  0  0  0  0  3  0  0  0  0  0  0
  156.6780  214.3220  152.7730 F   0  0  0  0  0  0  0  0  0  0  0  0
  156.6780  212.5430  155.5030 C   0  0  0  0  0  0  0  0  0  0  0  0
  156.8560  214.4310  154.1400 C   0  0  2  0  0  3  0  0  0  0  0  0
  158.7950  212.7230  154.3750 C   0  0  0  0  0  3  0  0  0  0  0  0
  1 20  1  0  0  0  0
  2  3  2  0  0  0  0
  3  1  1  0  0  0  0
  3 22  1  0  0  0  0
  4  5  1  0  0  0  0
  4  7  1  0  0  0  0
  5  6  1  0  0  0  0
  6  8  1  0  0  0  0
  7 10  1  6  0  0  0
  7  9  1  0  0  0  0
  8  9  1  0  0  0  0
  8  1  1  1  0  0  0
 13 19  2  0  0  0  0
 13 15  1  0  0  0  0
 14 11  1  0  0  0  0
 14 16  2  0  0  0  0
 15 17  2  0  0  0  0
 16 12  1  0  0  0  0
 17 16  1  0  0  0  0
 17 10  1  0  0  0  0
 18 19  1  0  0  0  0
 19 14  1  0  0  0  0
 20 21  1  0  0  0  0
 22 24  1  0  0  0  0
 23 30  1  0  0  0  0
 24 28  2  0  0  0  0
 27 26  1  0  0  0  0
 28 25  1  0  0  0  0
 30 26  1  0  0  0  0
 30 25  2  0  0  0  0
 31 29  1  6  0  0  0
 31 23  1  0  0  0  0
 31 27  1  0  0  0  0
 32 23  2  0  0  0  0
 32 24  1  0  0  0  0
M  END
>  <MODEL>
8

>  <REMARK>
 VINA RESULT:      -7.2      4.029      6.064
  Name = 
  6 active torsions:
  status: ('A' for Active; 'I' for Inactive)
    1  A    between atoms: N_4  and  C_23
    2  A    between atoms: N_4  and  C_24
    3  A    between atoms: C_6  and  C_7
    4  A    between atoms: C_7  and  C_31
    5  A    between atoms: O_14  and  C_19
    6  A    between atoms: O_14  and  C_22
                            x       y       z     vdW  Elec       q    Type
                         _______ _______ _______ _____ _____    ______ ____

>  <TORSDO>
F 6

$$$$
=
 OpenBabel11072411563D

 32 35  0  0  1  0  0  0  0  0999 V2000
  159.9880  210.2440  153.1790 N   0  0  0  0  0  0  0  0  0  0  0  0
  160.8290  209.2320  151.2450 O   0  0  0  0  0  0  0  0  0  0  0  0
  160.7060  209.1990  152.4990 C   0  0  0  0  0  0  0  0  0  0  0  0
  158.5730  213.9990  152.1740 C   0  0  0  0  0  2  0  0  0  0  0  0
  158.6080  213.3780  153.4350 O   0  0  0  0  0  0  0  0  0  0  0  0
  158.2730  212.0290  153.2140 C   0  0  0  0  0  2  0  0  0  0  0  0
  159.7620  213.5600  151.3040 C   0  0  1  0  0  3  0  0  0  0  0  0
  159.3560  211.3030  152.3950 C   0  0  1  0  0  3  0  0  0  0  0  0
  160.4060  212.2740  151.8400 C   0  0  0  0  0  2  0  0  0  0  0  0
  159.3150  213.3670  149.9660 O   0  0  0  0  0  0  0  0  0  0  0  0
  160.0340  212.5110  145.2640 O   0  0  0  0  0  1  0  0  0  0  0  0
  158.3930  212.5450  147.4970 F   0  0  0  0  0  0  0  0  0  0  0  0
  162.3500  213.7610  147.8550 C   0  0  0  0  0  3  0  0  0  0  0  0
  160.5260  212.9300  146.4950 C   0  0  0  0  0  0  0  0  0  0  0  0
  161.5130  213.7730  148.9730 C   0  0  0  0  0  3  0  0  0  0  0  0
  159.6850  212.9430  147.6170 C   0  0  0  0  0  0  0  0  0  0  0  0
  160.1740  213.3620  148.8610 C   0  0  0  0  0  0  0  0  0  0  0  0
  162.7010  213.3310  145.5110 O   0  0  0  0  0  1  0  0  0  0  0  0
  161.8600  213.3400  146.6170 C   0  0  0  0  0  0  0  0  0  0  0  0
  159.7580  210.1840  154.6220 C   0  0  0  0  0  2  0  0  0  0  0  0
  160.8740  210.8940  155.3650 C   0  0  0  0  0  1  0  0  0  0  0  0
  161.3040  208.0530  153.2550 C   0  0  0  0  0  2  0  0  0  0  0  0
  161.0530  205.6450  150.3590 C   0  0  0  0  0  0  0  0  0  0  0  0
  161.2170  206.7900  152.4660 C   0  0  0  0  0  0  0  0  0  0  0  0
  161.2020  204.3480  152.3870 C   0  0  0  0  0  3  0  0  0  0  0  0
  161.0200  203.3960  150.1090 O   0  0  0  0  0  0  0  0  0  0  0  0
  160.9110  203.8960  148.7750 C   0  0  0  0  0  2  0  0  0  0  0  0
  161.2650  205.5430  153.1230 C   0  0  0  0  0  3  0  0  0  0  0  0
  162.0760  205.9220  148.2680 F   0  0  0  0  0  0  0  0  0  0  0  0
  161.0950  204.4410  151.0000 C   0  0  0  0  0  0  0  0  0  0  0  0
  160.9420  205.4370  148.8930 C   0  0  2  0  0  3  0  0  0  0  0  0
  161.1120  206.8460  151.0650 C   0  0  0  0  0  3  0  0  0  0  0  0
  1 20  1  0  0  0  0
  2  3  2  0  0  0  0
  3  1  1  0  0  0  0
  3 22  1  0  0  0  0
  4  5  1  0  0  0  0
  6  5  1  0  0  0  0
  7 10  1  6  0  0  0
  7  9  1  0  0  0  0
  7  4  1  0  0  0  0
  8  1  1  1  0  0  0
  8  6  1  0  0  0  0
  9  8  1  0  0  0  0
 11 14  1  0  0  0  0
 12 16  1  0  0  0  0
 13 15  1  0  0  0  0
 14 19  1  0  0  0  0
 14 16  2  0  0  0  0
 16 17  1  0  0  0  0
 17 15  2  0  0  0  0
 17 10  1  0  0  0  0
 18 19  1  0  0  0  0
 19 13  2  0  0  0  0
 20 21  1  0  0  0  0
 23 30  2  0  0  0  0
 23 32  1  0  0  0  0
 24 28  1  0  0  0  0
 24 22  1  0  0  0  0
 25 28  2  0  0  0  0
 26 30  1  0  0  0  0
 27 31  1  0  0  0  0
 27 26  1  0  0  0  0
 30 25  1  0  0  0  0
 31 29  1  6  0  0  0
 31 23  1  0  0  0  0
 32 24  2  0  0  0  0
M  END
>  <MODEL>
9

>  <REMARK>
 VINA RESULT:      -7.2      2.567      8.365
  Name = 
  6 active torsions:
  status: ('A' for Active; 'I' for Inactive)
    1  A    between atoms: N_4  and  C_23
    2  A    between atoms: N_4  and  C_24
    3  A    between atoms: C_6  and  C_7
    4  A    between atoms: C_7  and  C_31
    5  A    between atoms: O_14  and  C_19
    6  A    between atoms: O_14  and  C_22
                            x       y       z     vdW  Elec       q    Type
                         _______ _______ _______ _____ _____    ______ ____

>  <TORSDO>
F 6

$$$$
