=
 OpenBabel11072415233D

 25 27  0  0  1  0  0  0  0  0999 V2000
  161.5390  205.9670  153.3650 C   0  0  1  0  0  3  0  0  0  0  0  0
  161.3850  207.0010  152.2790 C   0  0  1  0  0  3  0  0  0  0  0  0
  161.2760  208.2880  153.0340 C   0  0  2  0  0  3  0  0  0  0  0  0
  160.3260  207.9560  154.1590 C   0  0  0  0  0  2  0  0  0  0  0  0
  160.6810  206.5100  154.5140 C   0  0  0  0  0  2  0  0  0  0  0  0
  161.7260  209.5290  150.8330 C   0  0  2  0  0  3  0  0  0  0  0  0
  162.8670  210.2690  151.1440 O   0  0  0  0  0  1  0  0  0  0  0  0
  160.8790  209.3640  152.0710 C   0  0  0  0  0  0  0  0  0  0  0  0
  159.9620  210.1330  152.3090 O   0  0  0  0  0  0  0  0  0  0  0  0
  162.5200  207.1100  151.2740 C   0  0  0  0  0  2  0  0  0  0  0  0
  162.1380  208.1700  150.2190 C   0  0  1  0  0  3  0  0  0  0  0  0
  161.1050  207.6860  149.4090 O   0  0  0  0  0  0  0  0  0  0  0  0
  161.3500  204.2490  147.8560 C   0  0  0  0  0  2  0  0  0  0  0  0
  163.1770  204.8780  146.4250 O   0  0  0  0  0  1  0  0  0  0  0  0
  160.7770  206.8930  146.6390 O   0  0  0  0  0  0  0  0  0  0  0  0
  161.8030  204.6330  146.4390 C   0  0  2  0  0  3  0  0  0  0  0  0
  161.0420  205.8030  145.7790 C   0  0  0  0  0  2  0  0  0  0  0  0
  161.6890  206.6760  148.6410 C   0  0  1  0  0  3  0  0  0  0  0  0
  160.8380  205.3970  148.7340 C   0  0  0  0  0  2  0  0  0  0  0  0
  161.8910  207.1340  147.3170 O   0  0  0  0  0  0  0  0  0  0  0  0
  161.0060  204.6260  152.8860 C   0  0  0  0  0  2  0  0  0  0  0  0
  161.8410  204.0810  151.7350 C   0  0  0  0  0  2  0  0  0  0  0  0
  161.4120  202.6990  151.3790 C   0  0  0  0  0  0  0  0  0  0  0  0
  160.2850  202.5010  150.5920 O   0  0  0  0  0  0  0  0  0  0  0  0
  162.0520  201.7070  151.8170 O   0  0  0  0  0  1  0  0  0  0  0  0
  1 21  1  6  0  0  0
  1  5  1  0  0  0  0
  2 10  1  6  0  0  0
  2  3  1  0  0  0  0
  2  1  1  0  0  0  0
  3  4  1  1  0  0  0
  4  5  1  0  0  0  0
  6  7  1  1  0  0  0
  6  8  1  0  0  0  0
  8  9  2  0  0  0  0
  8  3  1  0  0  0  0
 11 12  1  1  0  0  0
 11  6  1  0  0  0  0
 11 10  1  0  0  0  0
 13 19  1  0  0  0  0
 15 20  1  0  0  0  0
 16 14  1  1  0  0  0
 16 13  1  0  0  0  0
 17 16  1  0  0  0  0
 17 15  1  0  0  0  0
 18 19  1  0  0  0  0
 18 12  1  1  0  0  0
 20 18  1  0  0  0  0
 22 21  1  0  0  0  0
 23 22  1  0  0  0  0
 23 25  1  0  0  0  0
 24 23  2  0  0  0  0
M  END
>  <MODEL>
1

>  <REMARK>
 VINA RESULT:      -8.1      0.000      0.000
  Name = 
  5 active torsions:
  status: ('A' for Active; 'I' for Inactive)
    1  A    between atoms: C_1  and  C_2
    2  A    between atoms: C_2  and  C_19
    3  A    between atoms: O_5  and  C_16
    4  A    between atoms: O_5  and  C_24
    5  A    between atoms: C_7  and  C_19
                            x       y       z     vdW  Elec       q    Type
                         _______ _______ _______ _____ _____    ______ ____

>  <TORSDO>
F 5

$$$$
=
 OpenBabel11072415233D

 25 27  0  0  1  0  0  0  0  0999 V2000
  161.0730  206.6580  151.7440 C   0  0  1  0  0  3  0  0  0  0  0  0
  161.3050  205.4610  150.8580 C   0  0  1  0  0  3  0  0  0  0  0  0
  160.8650  204.3080  151.7040 C   0  0  2  0  0  3  0  0  0  0  0  0
  161.4700  204.6120  153.0530 C   0  0  0  0  0  2  0  0  0  0  0  0
  161.3780  206.1360  153.1530 C   0  0  0  0  0  2  0  0  0  0  0  0
  160.8370  202.8610  149.5850 C   0  0  2  0  0  3  0  0  0  0  0  0
  159.5130  202.4200  149.5510 O   0  0  0  0  0  1  0  0  0  0  0  0
  161.2720  203.0410  151.0190 C   0  0  0  0  0  0  0  0  0  0  0  0
  161.8600  202.1500  151.6100 O   0  0  0  0  0  0  0  0  0  0  0  0
  160.5450  205.4290  149.5410 C   0  0  0  0  0  2  0  0  0  0  0  0
  160.9710  204.1660  148.7630 C   0  0  1  0  0  3  0  0  0  0  0  0
  162.2880  204.3050  148.3120 O   0  0  0  0  0  0  0  0  0  0  0  0
  160.8100  203.6210  144.9010 C   0  0  0  0  0  2  0  0  0  0  0  0
  162.0950  205.3590  143.8470 O   0  0  0  0  0  1  0  0  0  0  0  0
  160.7400  206.0560  146.5950 O   0  0  0  0  0  0  0  0  0  0  0  0
  160.8200  205.0440  144.3200 C   0  0  2  0  0  3  0  0  0  0  0  0
  160.3030  206.1590  145.2550 C   0  0  0  0  0  2  0  0  0  0  0  0
  162.1870  204.4180  146.9230 C   0  0  1  0  0  3  0  0  0  0  0  0
  161.0580  203.5070  146.4100 C   0  0  0  0  0  2  0  0  0  0  0  0
  162.0360  205.7780  146.5610 O   0  0  0  0  0  0  0  0  0  0  0  0
  162.0320  207.7770  151.3680 C   0  0  0  0  0  2  0  0  0  0  0  0
  161.3350  208.8430  150.5350 C   0  0  0  0  0  2  0  0  0  0  0  0
  162.0270  209.0310  149.2290 C   0  0  0  0  0  0  0  0  0  0  0  0
  162.0730  210.2870  148.6410 O   0  0  0  0  0  0  0  0  0  0  0  0
  162.5450  208.0450  148.6430 O   0  0  0  0  0  1  0  0  0  0  0  0
  1 21  1  6  0  0  0
  1  5  1  0  0  0  0
  2 10  1  6  0  0  0
  2  3  1  0  0  0  0
  2  1  1  0  0  0  0
  3  4  1  1  0  0  0
  4  5  1  0  0  0  0
  6  7  1  1  0  0  0
  6  8  1  0  0  0  0
  8  9  2  0  0  0  0
  8  3  1  0  0  0  0
 11 12  1  1  0  0  0
 11 10  1  0  0  0  0
 11  6  1  0  0  0  0
 13 19  1  0  0  0  0
 16 14  1  1  0  0  0
 16 13  1  0  0  0  0
 16 17  1  0  0  0  0
 17 15  1  0  0  0  0
 18 12  1  1  0  0  0
 19 18  1  0  0  0  0
 20 15  1  0  0  0  0
 20 18  1  0  0  0  0
 22 21  1  0  0  0  0
 23 22  1  0  0  0  0
 24 23  2  0  0  0  0
 25 23  1  0  0  0  0
M  END
>  <MODEL>
2

>  <REMARK>
 VINA RESULT:      -7.4      1.558      4.740
  Name = 
  5 active torsions:
  status: ('A' for Active; 'I' for Inactive)
    1  A    between atoms: C_1  and  C_2
    2  A    between atoms: C_2  and  C_19
    3  A    between atoms: O_5  and  C_16
    4  A    between atoms: O_5  and  C_24
    5  A    between atoms: C_7  and  C_19
                            x       y       z     vdW  Elec       q    Type
                         _______ _______ _______ _____ _____    ______ ____

>  <TORSDO>
F 5

$$$$
=
 OpenBabel11072415233D

 25 27  0  0  1  0  0  0  0  0999 V2000
  160.8500  206.7150  151.6670 C   0  0  1  0  0  3  0  0  0  0  0  0
  161.1870  205.5160  150.8190 C   0  0  1  0  0  3  0  0  0  0  0  0
  160.8320  204.3560  151.6950 C   0  0  2  0  0  3  0  0  0  0  0  0
  161.3950  204.7470  153.0390 C   0  0  0  0  0  2  0  0  0  0  0  0
  161.1800  206.2610  153.0930 C   0  0  0  0  0  2  0  0  0  0  0  0
  160.9440  202.8510  149.6200 C   0  0  2  0  0  3  0  0  0  0  0  0
  159.6610  202.3040  149.5870 O   0  0  0  0  0  1  0  0  0  0  0  0
  161.3480  203.1070  151.0510 C   0  0  0  0  0  0  0  0  0  0  0  0
  161.9980  202.2840  151.6740 O   0  0  0  0  0  0  0  0  0  0  0  0
  160.4480  205.3840  149.4970 C   0  0  0  0  0  2  0  0  0  0  0  0
  160.9820  204.1370  148.7610 C   0  0  1  0  0  3  0  0  0  0  0  0
  162.2890  204.3700  148.3170 O   0  0  0  0  0  0  0  0  0  0  0  0
  160.8240  203.6710  144.9040 C   0  0  0  0  0  2  0  0  0  0  0  0
  162.0820  205.4310  143.8540 O   0  0  0  0  0  1  0  0  0  0  0  0
  160.7150  206.1000  146.6030 O   0  0  0  0  0  0  0  0  0  0  0  0
  160.8120  205.0950  144.3260 C   0  0  2  0  0  3  0  0  0  0  0  0
  160.2770  206.2000  145.2630 C   0  0  0  0  0  2  0  0  0  0  0  0
  162.1870  204.4840  146.9290 C   0  0  1  0  0  3  0  0  0  0  0  0
  161.0720  203.5570  146.4120 C   0  0  0  0  0  2  0  0  0  0  0  0
  162.0150  205.8430  146.5690 O   0  0  0  0  0  0  0  0  0  0  0  0
  161.7200  207.8970  151.2660 C   0  0  0  0  0  2  0  0  0  0  0  0
  161.6440  209.0130  152.3000 C   0  0  0  0  0  2  0  0  0  0  0  0
  161.4030  210.3280  151.6410 C   0  0  0  0  0  0  0  0  0  0  0  0
  161.9890  210.6090  150.4150 O   0  0  0  0  0  0  0  0  0  0  0  0
  160.6920  211.1970  152.2110 O   0  0  0  0  0  1  0  0  0  0  0  0
  1 21  1  6  0  0  0
  1  5  1  0  0  0  0
  2 10  1  6  0  0  0
  2  1  1  0  0  0  0
  2  3  1  0  0  0  0
  3  4  1  1  0  0  0
  4  5  1  0  0  0  0
  6  7  1  1  0  0  0
  6  8  1  0  0  0  0
  8  9  2  0  0  0  0
  8  3  1  0  0  0  0
 11 12  1  1  0  0  0
 11 10  1  0  0  0  0
 11  6  1  0  0  0  0
 13 19  1  0  0  0  0
 16 14  1  1  0  0  0
 16 13  1  0  0  0  0
 16 17  1  0  0  0  0
 17 15  1  0  0  0  0
 18 12  1  1  0  0  0
 19 18  1  0  0  0  0
 20 15  1  0  0  0  0
 20 18  1  0  0  0  0
 21 22  1  0  0  0  0
 23 25  1  0  0  0  0
 23 22  1  0  0  0  0
 24 23  2  0  0  0  0
M  END
>  <MODEL>
3

>  <REMARK>
 VINA RESULT:      -7.2      1.340      4.961
  Name = 
  5 active torsions:
  status: ('A' for Active; 'I' for Inactive)
    1  A    between atoms: C_1  and  C_2
    2  A    between atoms: C_2  and  C_19
    3  A    between atoms: O_5  and  C_16
    4  A    between atoms: O_5  and  C_24
    5  A    between atoms: C_7  and  C_19
                            x       y       z     vdW  Elec       q    Type
                         _______ _______ _______ _____ _____    ______ ____

>  <TORSDO>
F 5

$$$$
=
 OpenBabel11072415233D

 25 27  0  0  1  0  0  0  0  0999 V2000
  161.8820  206.9820  151.2300 C   0  0  1  0  0  3  0  0  0  0  0  0
  161.2330  207.8410  152.2850 C   0  0  1  0  0  3  0  0  0  0  0  0
  161.5060  207.1000  153.5560 C   0  0  2  0  0  3  0  0  0  0  0  0
  161.2090  205.6650  153.1970 C   0  0  0  0  0  2  0  0  0  0  0  0
  161.6810  205.5530  151.7450 C   0  0  0  0  0  2  0  0  0  0  0  0
  160.8560  209.2220  154.8440 C   0  0  2  0  0  3  0  0  0  0  0  0
  162.0120  209.4810  155.5820 O   0  0  0  0  0  1  0  0  0  0  0  0
  160.7040  207.7340  154.6500 C   0  0  0  0  0  0  0  0  0  0  0  0
  160.0170  207.0710  155.4100 O   0  0  0  0  0  0  0  0  0  0  0  0
  161.7500  209.2650  152.4190 C   0  0  0  0  0  2  0  0  0  0  0  0
  160.9160  209.9860  153.5000 C   0  0  1  0  0  3  0  0  0  0  0  0
  159.6190  210.2130  153.0280 O   0  0  0  0  0  0  0  0  0  0  0  0
  158.3150  213.6980  152.3640 C   0  0  0  0  0  2  0  0  0  0  0  0
  158.5500  214.3700  154.6610 O   0  0  0  0  0  1  0  0  0  0  0  0
  157.2870  211.5430  154.1250 O   0  0  0  0  0  0  0  0  0  0  0  0
  157.6140  213.9760  153.7030 C   0  0  2  0  0  3  0  0  0  0  0  0
  156.7300  212.8360  154.2530 C   0  0  0  0  0  2  0  0  0  0  0  0
  159.3500  211.5500  153.3310 C   0  0  1  0  0  3  0  0  0  0  0  0
  158.7250  212.2430  152.1070 C   0  0  0  0  0  2  0  0  0  0  0  0
  158.5560  211.6280  154.5010 O   0  0  0  0  0  0  0  0  0  0  0  0
  161.1750  207.1750  149.8960 C   0  0  0  0  0  2  0  0  0  0  0  0
  160.5490  205.8750  149.4120 C   0  0  0  0  0  2  0  0  0  0  0  0
  161.0340  205.5300  148.0460 C   0  0  0  0  0  0  0  0  0  0  0  0
  160.6680  206.3140  146.9600 O   0  0  0  0  0  0  0  0  0  0  0  0
  161.7500  204.5110  147.8700 O   0  0  0  0  0  1  0  0  0  0  0  0
  1 21  1  6  0  0  0
  1  5  1  0  0  0  0
  1  2  1  0  0  0  0
  2 10  1  1  0  0  0
  2  3  1  0  0  0  0
  3  4  1  6  0  0  0
  3  8  1  0  0  0  0
  5  4  1  0  0  0  0
  6  7  1  6  0  0  0
  8  6  1  0  0  0  0
  8  9  2  0  0  0  0
 10 11  1  0  0  0  0
 11 12  1  6  0  0  0
 11  6  1  0  0  0  0
 13 16  1  0  0  0  0
 15 17  1  0  0  0  0
 15 20  1  0  0  0  0
 16 17  1  0  0  0  0
 16 14  1  1  0  0  0
 18 12  1  6  0  0  0
 18 20  1  0  0  0  0
 19 13  1  0  0  0  0
 19 18  1  0  0  0  0
 22 21  1  0  0  0  0
 23 22  1  0  0  0  0
 24 23  2  0  0  0  0
 25 23  1  0  0  0  0
M  END
>  <MODEL>
4

>  <REMARK>
 VINA RESULT:      -7.0      2.944      6.674
  Name = 
  5 active torsions:
  status: ('A' for Active; 'I' for Inactive)
    1  A    between atoms: C_1  and  C_2
    2  A    between atoms: C_2  and  C_19
    3  A    between atoms: O_5  and  C_16
    4  A    between atoms: O_5  and  C_24
    5  A    between atoms: C_7  and  C_19
                            x       y       z     vdW  Elec       q    Type
                         _______ _______ _______ _____ _____    ______ ____

>  <TORSDO>
F 5

$$$$
=
 OpenBabel11072415233D

 25 27  0  0  1  0  0  0  0  0999 V2000
  160.5460  202.8240  149.4280 C   0  0  1  0  0  3  0  0  0  0  0  0
  161.2010  203.9910  148.7350 C   0  0  1  0  0  3  0  0  0  0  0  0
  161.0060  203.6910  147.2830 C   0  0  2  0  0  3  0  0  0  0  0  0
  161.3450  202.2250  147.1790 C   0  0  0  0  0  2  0  0  0  0  0  0
  160.8230  201.6410  148.4940 C   0  0  0  0  0  2  0  0  0  0  0  0
  161.6210  206.1300  146.7730 C   0  0  2  0  0  3  0  0  0  0  0  0
  160.4850  206.5820  146.1010 O   0  0  0  0  0  1  0  0  0  0  0  0
  161.8240  204.6620  146.4890 C   0  0  0  0  0  0  0  0  0  0  0  0
  162.5650  204.2950  145.5920 O   0  0  0  0  0  0  0  0  0  0  0  0
  160.6340  205.3700  149.0380 C   0  0  0  0  0  2  0  0  0  0  0  0
  161.4790  206.4210  148.2860 C   0  0  1  0  0  3  0  0  0  0  0  0
  162.7480  206.5160  148.8680 O   0  0  0  0  0  0  0  0  0  0  0  0
  161.6470  210.0770  149.4980 C   0  0  0  0  0  2  0  0  0  0  0  0
  162.8610  210.2290  151.5680 O   0  0  0  0  0  1  0  0  0  0  0  0
  161.2110  207.6020  151.0750 O   0  0  0  0  0  0  0  0  0  0  0  0
  161.5830  210.0640  151.0340 C   0  0  2  0  0  3  0  0  0  0  0  0
  160.8870  208.8420  151.6710 C   0  0  0  0  0  2  0  0  0  0  0  0
  162.7620  207.7580  149.5080 C   0  0  1  0  0  3  0  0  0  0  0  0
  161.7680  208.7090  148.8180 C   0  0  0  0  0  2  0  0  0  0  0  0
  162.5240  207.5880  150.8930 O   0  0  0  0  0  0  0  0  0  0  0  0
  161.1930  202.5970  150.7870 C   0  0  0  0  0  2  0  0  0  0  0  0
  160.4600  203.3600  151.8800 C   0  0  0  0  0  2  0  0  0  0  0  0
  161.3140  204.4520  152.4260 C   0  0  0  0  0  0  0  0  0  0  0  0
  160.8320  205.2730  153.4370 O   0  0  0  0  0  1  0  0  0  0  0  0
  162.4630  204.6520  151.9510 O   0  0  0  0  0  0  0  0  0  0  0  0
  1 21  1  1  0  0  0
  2 10  1  1  0  0  0
  2  1  1  0  0  0  0
  3  4  1  1  0  0  0
  3  2  1  0  0  0  0
  4  5  1  0  0  0  0
  5  1  1  0  0  0  0
  6  7  1  6  0  0  0
  6 11  1  0  0  0  0
  8  6  1  0  0  0  0
  8  3  1  0  0  0  0
  9  8  2  0  0  0  0
 11 12  1  1  0  0  0
 11 10  1  0  0  0  0
 13 16  1  0  0  0  0
 15 17  1  0  0  0  0
 16 14  1  1  0  0  0
 16 17  1  0  0  0  0
 18 12  1  6  0  0  0
 18 20  1  0  0  0  0
 19 13  1  0  0  0  0
 19 18  1  0  0  0  0
 20 15  1  0  0  0  0
 21 22  1  0  0  0  0
 22 23  1  0  0  0  0
 23 24  1  0  0  0  0
 25 23  2  0  0  0  0
M  END
>  <MODEL>
5

>  <REMARK>
 VINA RESULT:      -7.0      1.707      5.500
  Name = 
  5 active torsions:
  status: ('A' for Active; 'I' for Inactive)
    1  A    between atoms: C_1  and  C_2
    2  A    between atoms: C_2  and  C_19
    3  A    between atoms: O_5  and  C_16
    4  A    between atoms: O_5  and  C_24
    5  A    between atoms: C_7  and  C_19
                            x       y       z     vdW  Elec       q    Type
                         _______ _______ _______ _____ _____    ______ ____

>  <TORSDO>
F 5

$$$$
=
 OpenBabel11072415233D

 25 27  0  0  1  0  0  0  0  0999 V2000
  161.8270  207.2330  151.4560 C   0  0  1  0  0  3  0  0  0  0  0  0
  161.1840  208.0390  152.5560 C   0  0  1  0  0  3  0  0  0  0  0  0
  161.4290  207.2160  153.7810 C   0  0  2  0  0  3  0  0  0  0  0  0
  161.1070  205.8120  153.3320 C   0  0  0  0  0  2  0  0  0  0  0  0
  161.5920  205.7790  151.8810 C   0  0  0  0  0  2  0  0  0  0  0  0
  160.8080  209.2680  155.1910 C   0  0  2  0  0  3  0  0  0  0  0  0
  161.9600  209.4570  155.9550 O   0  0  0  0  0  1  0  0  0  0  0  0
  160.6280  207.7980  154.9040 C   0  0  0  0  0  0  0  0  0  0  0  0
  159.9200  207.1040  155.6150 O   0  0  0  0  0  0  0  0  0  0  0  0
  161.7280  209.4410  152.7820 C   0  0  0  0  0  2  0  0  0  0  0  0
  160.8970  210.1120  153.8970 C   0  0  1  0  0  3  0  0  0  0  0  0
  159.6100  210.3940  153.4280 O   0  0  0  0  0  0  0  0  0  0  0  0
  159.2570  213.4790  155.5820 C   0  0  0  0  0  2  0  0  0  0  0  0
  157.0920  212.8260  156.3990 O   0  0  0  0  0  1  0  0  0  0  0  0
  157.6120  212.4930  153.3190 O   0  0  0  0  0  0  0  0  0  0  0  0
  157.7360  213.6820  155.5040 C   0  0  2  0  0  3  0  0  0  0  0  0
  157.1090  213.5590  154.0990 C   0  0  0  0  0  2  0  0  0  0  0  0
  159.0320  211.1990  154.4120 C   0  0  1  0  0  3  0  0  0  0  0  0
  159.8570  212.4870  154.5800 C   0  0  0  0  0  2  0  0  0  0  0  0
  157.6680  211.4280  154.1070 O   0  0  0  0  0  0  0  0  0  0  0  0
  161.1390  207.5220  150.1300 C   0  0  0  0  0  2  0  0  0  0  0  0
  160.6840  206.2360  149.4540 C   0  0  0  0  0  2  0  0  0  0  0  0
  161.4080  206.0300  148.1680 C   0  0  0  0  0  0  0  0  0  0  0  0
  161.3190  204.8130  147.5070 O   0  0  0  0  0  0  0  0  0  0  0  0
  162.1260  206.9490  147.6950 O   0  0  0  0  0  1  0  0  0  0  0  0
  1 21  1  6  0  0  0
  1  5  1  0  0  0  0
  1  2  1  0  0  0  0
  2 10  1  1  0  0  0
  2  3  1  0  0  0  0
  3  4  1  6  0  0  0
  3  8  1  0  0  0  0
  5  4  1  0  0  0  0
  6  7  1  6  0  0  0
  8  6  1  0  0  0  0
  8  9  2  0  0  0  0
 10 11  1  0  0  0  0
 11 12  1  6  0  0  0
 11  6  1  0  0  0  0
 15 17  1  0  0  0  0
 15 20  1  0  0  0  0
 16 13  1  0  0  0  0
 16 14  1  1  0  0  0
 17 16  1  0  0  0  0
 18 12  1  6  0  0  0
 18 19  1  0  0  0  0
 19 13  1  0  0  0  0
 20 18  1  0  0  0  0
 22 21  1  0  0  0  0
 23 22  1  0  0  0  0
 24 23  2  0  0  0  0
 25 23  1  0  0  0  0
M  END
>  <MODEL>
6

>  <REMARK>
 VINA RESULT:      -6.8      3.179      7.067
  Name = 
  5 active torsions:
  status: ('A' for Active; 'I' for Inactive)
    1  A    between atoms: C_1  and  C_2
    2  A    between atoms: C_2  and  C_19
    3  A    between atoms: O_5  and  C_16
    4  A    between atoms: O_5  and  C_24
    5  A    between atoms: C_7  and  C_19
                            x       y       z     vdW  Elec       q    Type
                         _______ _______ _______ _____ _____    ______ ____

>  <TORSDO>
F 5

$$$$
=
 OpenBabel11072415233D

 25 27  0  0  1  0  0  0  0  0999 V2000
  162.3150  207.7970  149.3840 C   0  0  1  0  0  3  0  0  0  0  0  0
  161.7100  206.8880  150.4230 C   0  0  1  0  0  3  0  0  0  0  0  0
  161.5310  205.5940  149.6940 C   0  0  2  0  0  3  0  0  0  0  0  0
  160.9570  206.0160  148.3650 C   0  0  0  0  0  2  0  0  0  0  0  0
  161.6610  207.3430  148.0740 C   0  0  0  0  0  2  0  0  0  0  0  0
  161.2000  204.4470  151.9660 C   0  0  2  0  0  3  0  0  0  0  0  0
  162.2150  203.4900  151.9600 O   0  0  0  0  0  1  0  0  0  0  0  0
  160.7170  204.6790  150.5550 C   0  0  0  0  0  0  0  0  0  0  0  0
  159.7490  204.0780  150.1190 O   0  0  0  0  0  0  0  0  0  0  0  0
  162.5340  206.6420  151.6770 C   0  0  0  0  0  2  0  0  0  0  0  0
  161.7150  205.7460  152.6310 C   0  0  1  0  0  3  0  0  0  0  0  0
  160.6360  206.4680  153.1530 O   0  0  0  0  0  0  0  0  0  0  0  0
  161.3360  209.8250  154.7420 C   0  0  0  0  0  2  0  0  0  0  0  0
  162.3310  208.8430  156.6990 O   0  0  0  0  0  1  0  0  0  0  0  0
  159.6610  207.5550  155.6590 O   0  0  0  0  0  0  0  0  0  0  0  0
  161.1690  209.4540  156.2240 C   0  0  2  0  0  3  0  0  0  0  0  0
  159.9320  208.5990  156.5720 C   0  0  0  0  0  2  0  0  0  0  0  0
  161.2000  207.3410  154.0870 C   0  0  1  0  0  3  0  0  0  0  0  0
  160.8330  208.7920  153.7280 C   0  0  0  0  0  2  0  0  0  0  0  0
  160.8160  206.9590  155.3950 O   0  0  0  0  0  0  0  0  0  0  0  0
  161.9570  209.2450  149.6880 C   0  0  0  0  0  2  0  0  0  0  0  0
  161.8930  210.0750  148.4140 C   0  0  0  0  0  2  0  0  0  0  0  0
  162.0660  211.5240  148.7180 C   0  0  0  0  0  0  0  0  0  0  0  0
  163.1850  212.2020  148.2560 O   0  0  0  0  0  0  0  0  0  0  0  0
  161.2120  212.1270  149.4200 O   0  0  0  0  0  1  0  0  0  0  0  0
  1 21  1  1  0  0  0
  1  2  1  0  0  0  0
  2 10  1  1  0  0  0
  3  4  1  6  0  0  0
  3  2  1  0  0  0  0
  3  8  1  0  0  0  0
  5  4  1  0  0  0  0
  5  1  1  0  0  0  0
  6  7  1  6  0  0  0
  6 11  1  0  0  0  0
  8  6  1  0  0  0  0
  9  8  2  0  0  0  0
 10 11  1  0  0  0  0
 11 12  1  6  0  0  0
 13 16  1  0  0  0  0
 15 17  1  0  0  0  0
 16 17  1  0  0  0  0
 16 14  1  6  0  0  0
 18 12  1  6  0  0  0
 18 20  1  0  0  0  0
 19 18  1  0  0  0  0
 19 13  1  0  0  0  0
 20 15  1  0  0  0  0
 22 23  1  0  0  0  0
 22 21  1  0  0  0  0
 23 25  1  0  0  0  0
 24 23  2  0  0  0  0
M  END
>  <MODEL>
7

>  <REMARK>
 VINA RESULT:      -6.6      2.477      7.322
  Name = 
  5 active torsions:
  status: ('A' for Active; 'I' for Inactive)
    1  A    between atoms: C_1  and  C_2
    2  A    between atoms: C_2  and  C_19
    3  A    between atoms: O_5  and  C_16
    4  A    between atoms: O_5  and  C_24
    5  A    between atoms: C_7  and  C_19
                            x       y       z     vdW  Elec       q    Type
                         _______ _______ _______ _____ _____    ______ ____

>  <TORSDO>
F 5

$$$$
=
 OpenBabel11072415233D

 25 27  0  0  1  0  0  0  0  0999 V2000
  161.5720  205.1530  148.4170 C   0  0  1  0  0  3  0  0  0  0  0  0
  161.3900  205.7240  149.7990 C   0  0  1  0  0  3  0  0  0  0  0  0
  161.5810  204.5410  150.6950 C   0  0  2  0  0  3  0  0  0  0  0  0
  160.7870  203.4540  150.0150 C   0  0  0  0  0  2  0  0  0  0  0  0
  160.9910  203.7380  148.5250 C   0  0  0  0  0  2  0  0  0  0  0  0
  161.8420  206.1680  152.6630 C   0  0  2  0  0  3  0  0  0  0  0  0
  163.1090  205.8410  153.1460 O   0  0  0  0  0  1  0  0  0  0  0  0
  161.1880  204.9370  152.0850 C   0  0  0  0  0  0  0  0  0  0  0  0
  160.4360  204.2530  152.7590 O   0  0  0  0  0  0  0  0  0  0  0  0
  162.3550  206.8230  150.2160 C   0  0  0  0  0  2  0  0  0  0  0  0
  161.9600  207.3110  151.6260 C   0  0  1  0  0  3  0  0  0  0  0  0
  160.7550  208.0190  151.5650 O   0  0  0  0  0  0  0  0  0  0  0  0
  162.0820  210.4240  154.1600 C   0  0  0  0  0  2  0  0  0  0  0  0
  159.9520  210.6280  155.2570 O   0  0  0  0  0  1  0  0  0  0  0  0
  159.9550  210.7510  152.1180 O   0  0  0  0  0  0  0  0  0  0  0  0
  160.8280  211.2820  154.3890 C   0  0  2  0  0  3  0  0  0  0  0  0
  160.0810  211.7410  153.1180 C   0  0  0  0  0  2  0  0  0  0  0  0
  160.7140  208.7710  152.7410 C   0  0  1  0  0  3  0  0  0  0  0  0
  162.0530  209.5020  152.9360 C   0  0  0  0  0  2  0  0  0  0  0  0
  159.5890  209.6300  152.7240 O   0  0  0  0  0  0  0  0  0  0  0  0
  160.7890  205.9780  147.4060 C   0  0  0  0  0  2  0  0  0  0  0  0
  161.5970  206.2030  146.1360 C   0  0  0  0  0  2  0  0  0  0  0  0
  161.6020  204.9780  145.2880 C   0  0  0  0  0  0  0  0  0  0  0  0
  160.4750  204.6350  144.5540 O   0  0  0  0  0  0  0  0  0  0  0  0
  162.6180  204.2350  145.2610 O   0  0  0  0  0  1  0  0  0  0  0  0
  1 21  1  6  0  0  0
  1  5  1  0  0  0  0
  1  2  1  0  0  0  0
  2 10  1  1  0  0  0
  2  3  1  0  0  0  0
  3  4  1  6  0  0  0
  3  8  1  0  0  0  0
  5  4  1  0  0  0  0
  6  7  1  6  0  0  0
  8  6  1  0  0  0  0
  8  9  2  0  0  0  0
 10 11  1  0  0  0  0
 11 12  1  6  0  0  0
 11  6  1  0  0  0  0
 13 16  1  0  0  0  0
 15 20  1  0  0  0  0
 15 17  1  0  0  0  0
 16 14  1  1  0  0  0
 17 16  1  0  0  0  0
 18 12  1  6  0  0  0
 18 19  1  0  0  0  0
 19 13  1  0  0  0  0
 20 18  1  0  0  0  0
 22 21  1  0  0  0  0
 23 22  1  0  0  0  0
 24 23  2  0  0  0  0
 25 23  1  0  0  0  0
M  END
>  <MODEL>
8

>  <REMARK>
 VINA RESULT:      -6.4      1.940      6.259
  Name = 
  5 active torsions:
  status: ('A' for Active; 'I' for Inactive)
    1  A    between atoms: C_1  and  C_2
    2  A    between atoms: C_2  and  C_19
    3  A    between atoms: O_5  and  C_16
    4  A    between atoms: O_5  and  C_24
    5  A    between atoms: C_7  and  C_19
                            x       y       z     vdW  Elec       q    Type
                         _______ _______ _______ _____ _____    ______ ____

>  <TORSDO>
F 5

$$$$
=
 OpenBabel11072415233D

 25 27  0  0  1  0  0  0  0  0999 V2000
  161.7040  205.0950  152.7020 C   0  0  1  0  0  3  0  0  0  0  0  0
  161.3600  206.1670  151.7000 C   0  0  1  0  0  3  0  0  0  0  0  0
  161.5080  207.4350  152.4800 C   0  0  2  0  0  3  0  0  0  0  0  0
  160.8320  207.1220  153.7920 C   0  0  0  0  0  2  0  0  0  0  0  0
  161.1730  205.6490  154.0290 C   0  0  0  0  0  2  0  0  0  0  0  0
  161.5020  208.7150  150.2560 C   0  0  2  0  0  3  0  0  0  0  0  0
  162.7270  209.3820  150.3000 O   0  0  0  0  0  1  0  0  0  0  0  0
  160.9610  208.5590  151.6560 C   0  0  0  0  0  0  0  0  0  0  0  0
  160.1730  209.3690  152.1160 O   0  0  0  0  0  0  0  0  0  0  0  0
  162.2320  206.2440  150.4570 C   0  0  0  0  0  2  0  0  0  0  0  0
  161.6770  207.3550  149.5390 C   0  0  1  0  0  3  0  0  0  0  0  0
  160.4560  206.9510  148.9890 O   0  0  0  0  0  0  0  0  0  0  0  0
  162.7150  206.1390  146.0700 C   0  0  0  0  0  2  0  0  0  0  0  0
  160.9110  205.2640  144.7420 O   0  0  0  0  0  1  0  0  0  0  0  0
  161.0180  204.3870  147.7570 O   0  0  0  0  0  0  0  0  0  0  0  0
  162.0040  204.8900  145.5260 C   0  0  2  0  0  3  0  0  0  0  0  0
  161.5770  203.8440  146.5780 C   0  0  0  0  0  2  0  0  0  0  0  0
  160.7540  206.5800  147.6760 C   0  0  1  0  0  3  0  0  0  0  0  0
  162.2770  206.6130  147.4600 C   0  0  0  0  0  2  0  0  0  0  0  0
  160.1610  205.3280  147.3840 O   0  0  0  0  0  0  0  0  0  0  0  0
  160.9940  203.7990  152.3410 C   0  0  0  0  0  2  0  0  0  0  0  0
  160.8030  203.6770  150.8350 C   0  0  0  0  0  2  0  0  0  0  0  0
  160.7730  202.2460  150.4200 C   0  0  0  0  0  0  0  0  0  0  0  0
  159.8340  201.8090  149.4960 O   0  0  0  0  0  0  0  0  0  0  0  0
  161.5800  201.4250  150.9300 O   0  0  0  0  0  1  0  0  0  0  0  0
  1 21  1  6  0  0  0
  1  5  1  0  0  0  0
  2 10  1  6  0  0  0
  2  3  1  0  0  0  0
  2  1  1  0  0  0  0
  3  4  1  1  0  0  0
  4  5  1  0  0  0  0
  6  7  1  1  0  0  0
  6  8  1  0  0  0  0
  8  9  2  0  0  0  0
  8  3  1  0  0  0  0
 11 12  1  1  0  0  0
 11  6  1  0  0  0  0
 11 10  1  0  0  0  0
 13 19  1  0  0  0  0
 16 14  1  1  0  0  0
 16 13  1  0  0  0  0
 16 17  1  0  0  0  0
 17 15  1  0  0  0  0
 18 12  1  1  0  0  0
 19 18  1  0  0  0  0
 20 18  1  0  0  0  0
 20 15  1  0  0  0  0
 22 21  1  0  0  0  0
 23 22  1  0  0  0  0
 23 25  1  0  0  0  0
 24 23  2  0  0  0  0
M  END
>  <MODEL>
9

>  <REMARK>
 VINA RESULT:      -6.3      1.309      1.606
  Name = 
  5 active torsions:
  status: ('A' for Active; 'I' for Inactive)
    1  A    between atoms: C_1  and  C_2
    2  A    between atoms: C_2  and  C_19
    3  A    between atoms: O_5  and  C_16
    4  A    between atoms: O_5  and  C_24
    5  A    between atoms: C_7  and  C_19
                            x       y       z     vdW  Elec       q    Type
                         _______ _______ _______ _____ _____    ______ ____

>  <TORSDO>
F 5

$$$$
