=
 OpenBabel11072414353D

 36 39  0  0  1  0  0  0  0  0999 V2000
  161.1500  207.5450  155.0180 C   0  0  0  0  0  0  0  0  0  0  0  0
  161.2250  206.7880  152.3260 C   0  0  0  0  0  0  0  0  0  0  0  0
  161.0950  205.8420  153.3530 C   0  0  0  0  0  3  0  0  0  0  0  0
  161.0650  206.2360  154.6590 N   0  0  0  0  0  0  0  0  0  0  0  0
  161.0800  207.9000  156.3980 N   0  0  0  0  0  1  0  0  0  0  0  0
  161.3170  208.1370  152.6870 C   0  0  0  0  0  3  0  0  0  0  0  0
  161.2740  208.5340  154.0300 C   0  0  0  0  0  0  0  0  0  0  0  0
  161.9720  207.0790  149.9390 C   0  0  0  0  0  0  0  0  0  0  0  0
  161.0380  206.0040  146.6270 C   0  0  0  0  0  0  0  0  0  0  0  0
  161.3630  207.4210  148.6120 C   0  0  0  0  0  2  0  0  0  0  0  0
  160.9170  204.0220  148.0320 C   0  0  0  0  0  0  0  0  0  0  0  0
  161.3160  203.4120  149.1200 C   0  0  0  0  0  0  0  0  0  0  0  0
  162.0120  202.2140  148.9990 O   0  0  0  0  0  1  0  0  0  0  0  0
  163.1570  207.4240  150.1820 O   0  0  0  0  0  0  0  0  0  0  0  0
  160.5490  206.6360  145.6520 O   0  0  0  0  0  0  0  0  0  0  0  0
  161.0620  203.9730  150.4970 C   0  0  0  0  0  2  0  0  0  0  0  0
  161.1990  206.3880  150.9370 N   0  0  0  0  0  0  0  0  0  0  0  0
  160.5320  204.6610  146.9500 C   0  0  0  0  0  3  0  0  0  0  0  0
  162.0600  206.6690  147.4910 C   0  0  0  0  0  2  0  0  0  0  0  0
  160.3110  205.3110  150.5060 C   0  0  0  0  0  2  0  0  0  0  0  0
  160.0950  210.4960  155.0060 C   0  0  0  0  0  0  0  0  0  0  0  0
  160.4760  211.5780  153.0900 C   0  0  0  0  0  0  0  0  0  0  0  0
  159.4660  209.9550  156.2470 C   0  0  0  0  0  1  0  0  0  0  0  0
  161.3720  209.9940  154.3970 C   0  0  2  0  0  3  0  0  0  0  0  0
  160.2910  212.4370  152.0590 F   0  0  0  0  0  0  0  0  0  0  0  0
  161.5080  210.8080  153.1880 N   0  0  0  0  0  0  0  0  0  0  0  0
  159.5710  211.4120  154.2120 C   0  0  0  0  0  0  0  0  0  0  0  0
  159.2840  213.9930  155.2370 O   0  0  0  0  0  1  0  0  0  0  0  0
  157.1240  211.3410  153.8040 C   0  0  0  0  0  2  0  0  0  0  0  0
  155.9060  211.5790  154.6950 C   0  0  0  0  0  2  0  0  0  0  0  0
  155.6590  213.0730  154.9220 C   0  0  1  0  0  3  0  0  0  0  0  0
  156.9210  213.7360  155.4930 C   0  0  0  0  0  2  0  0  0  0  0  0
  158.1460  213.4710  154.6120 C   0  0  2  0  0  3  0  0  0  0  0  0
  158.2850  212.0320  154.3610 N   0  0  0  0  0  0  0  0  0  0  0  0
  154.1910  214.4530  153.6390 C   0  0  0  0  0  2  0  0  0  0  0  0
  155.2550  213.7280  153.6930 N   0  0  0  0  0  0  0  0  0  0  0  0
  1  5  1  0  0  0  0
  2  6  2  0  0  0  0
  2  3  1  0  0  0  0
  3  4  2  0  0  0  0
  4  1  1  0  0  0  0
  6  7  1  0  0  0  0
  7  1  2  0  0  0  0
  8 14  2  0  0  0  0
  8 17  1  0  0  0  0
  9 18  1  0  0  0  0
  9 19  1  0  0  0  0
 10  8  1  0  0  0  0
 11 12  2  0  0  0  0
 12 16  1  0  0  0  0
 13 12  1  0  0  0  0
 15  9  2  0  0  0  0
 16 20  1  0  0  0  0
 17  2  1  0  0  0  0
 18 11  2  0  0  0  0
 19 10  1  0  0  0  0
 20 17  1  0  0  0  0
 21 23  1  0  0  0  0
 22 26  2  0  0  0  0
 22 27  1  0  0  0  0
 24  7  1  6  0  0  0
 24 21  1  0  0  0  0
 25 22  1  0  0  0  0
 26 24  1  0  0  0  0
 27 34  1  0  0  0  0
 27 21  2  0  0  0  0
 29 34  1  0  0  0  0
 29 30  1  0  0  0  0
 30 31  1  0  0  0  0
 31 36  1  6  0  0  0
 31 32  1  0  0  0  0
 33 28  1  1  0  0  0
 33 32  1  0  0  0  0
 34 33  1  0  0  0  0
 35 36  2  0  0  0  0
M  END
>  <MODEL>
1

>  <REMARK>
 VINA RESULT:      -7.1      0.000      0.000
  Name = 
  4 active torsions:
  status: ('A' for Active; 'I' for Inactive)
    1  A    between atoms: C_11  and  N_36
    2  A    between atoms: C_19  and  N_25
    3  A    between atoms: C_21  and  C_35
    4  A    between atoms: C_31  and  N_34
                            x       y       z     vdW  Elec       q    Type
                         _______ _______ _______ _____ _____    ______ ____

>  <TORSDO>
F 4

$$$$
=
 OpenBabel11072414353D

 36 39  0  0  1  0  0  0  0  0999 V2000
  160.9620  210.4940  151.7720 C   0  0  0  0  0  0  0  0  0  0  0  0
  161.2330  208.1250  150.3090 C   0  0  0  0  0  0  0  0  0  0  0  0
  160.6500  208.1400  151.5840 C   0  0  0  0  0  3  0  0  0  0  0  0
  160.5340  209.3080  152.2800 N   0  0  0  0  0  0  0  0  0  0  0  0
  160.7830  211.6880  152.5320 N   0  0  0  0  0  1  0  0  0  0  0  0
  161.6800  209.3420  149.7800 C   0  0  0  0  0  3  0  0  0  0  0  0
  161.5460  210.5380  150.4970 C   0  0  0  0  0  0  0  0  0  0  0  0
  162.2750  206.7370  148.4850 C   0  0  0  0  0  0  0  0  0  0  0  0
  161.5810  203.7580  146.5770 C   0  0  0  0  0  0  0  0  0  0  0  0
  161.8690  206.1260  147.1760 C   0  0  0  0  0  2  0  0  0  0  0  0
  161.0390  203.2140  148.8840 C   0  0  0  0  0  0  0  0  0  0  0  0
  161.2290  203.4710  150.1550 C   0  0  0  0  0  0  0  0  0  0  0  0
  161.7670  202.4780  150.9650 O   0  0  0  0  0  1  0  0  0  0  0  0
  163.4610  207.1250  148.6440 O   0  0  0  0  0  0  0  0  0  0  0  0
  161.2940  203.5950  145.3600 O   0  0  0  0  0  0  0  0  0  0  0  0
  160.9000  204.8110  150.7630 C   0  0  0  0  0  2  0  0  0  0  0  0
  161.3100  206.9040  149.5380 N   0  0  0  0  0  0  0  0  0  0  0  0
  160.8670  202.9830  147.6030 C   0  0  0  0  0  3  0  0  0  0  0  0
  162.5800  204.8020  146.9580 C   0  0  0  0  0  2  0  0  0  0  0  0
  160.3390  205.8360  149.7690 C   0  0  0  0  0  2  0  0  0  0  0  0
  161.0370  212.4110  148.9390 C   0  0  0  0  0  0  0  0  0  0  0  0
  162.9230  211.9150  147.8520 C   0  0  0  0  0  0  0  0  0  0  0  0
  159.6320  212.7850  149.2760 C   0  0  0  0  0  1  0  0  0  0  0  0
  162.0330  211.8380  149.9060 C   0  0  2  0  0  3  0  0  0  0  0  0
  163.8010  211.7820  146.8290 F   0  0  0  0  0  0  0  0  0  0  0  0
  163.2110  211.6010  149.0710 N   0  0  0  0  0  0  0  0  0  0  0  0
  161.5710  212.4280  147.7320 C   0  0  0  0  0  0  0  0  0  0  0  0
  162.4970  214.4530  146.0470 O   0  0  0  0  0  1  0  0  0  0  0  0
  159.8010  211.9060  146.0730 C   0  0  0  0  0  2  0  0  0  0  0  0
  158.7300  212.7500  145.3840 C   0  0  0  0  0  2  0  0  0  0  0  0
  159.3190  213.5890  144.2460 C   0  0  1  0  0  3  0  0  0  0  0  0
  160.4740  214.4530  144.7730 C   0  0  0  0  0  2  0  0  0  0  0  0
  161.5330  213.6070  145.4870 C   0  0  2  0  0  3  0  0  0  0  0  0
  160.9000  212.7650  146.5090 N   0  0  0  0  0  0  0  0  0  0  0  0
  159.3080  212.8860  141.9630 C   0  0  0  0  0  2  0  0  0  0  0  0
  159.7730  212.7460  143.1580 N   0  0  0  0  0  0  0  0  0  0  0  0
  1  4  1  0  0  0  0
  1  5  1  0  0  0  0
  2  3  1  0  0  0  0
  3  4  2  0  0  0  0
  6  2  2  0  0  0  0
  6  7  1  0  0  0  0
  7  1  2  0  0  0  0
  8 14  2  0  0  0  0
  8 17  1  0  0  0  0
  9 19  1  0  0  0  0
  9 18  1  0  0  0  0
 10  8  1  0  0  0  0
 11 12  2  0  0  0  0
 12 16  1  0  0  0  0
 12 13  1  0  0  0  0
 15  9  2  0  0  0  0
 17 20  1  0  0  0  0
 17  2  1  0  0  0  0
 18 11  2  0  0  0  0
 19 10  1  0  0  0  0
 20 16  1  0  0  0  0
 21 23  1  0  0  0  0
 21 24  1  0  0  0  0
 22 26  2  0  0  0  0
 24  7  1  6  0  0  0
 25 22  1  0  0  0  0
 26 24  1  0  0  0  0
 27 22  1  0  0  0  0
 27 21  2  0  0  0  0
 29 34  1  0  0  0  0
 30 29  1  0  0  0  0
 31 36  1  6  0  0  0
 31 32  1  0  0  0  0
 31 30  1  0  0  0  0
 32 33  1  0  0  0  0
 33 28  1  1  0  0  0
 33 34  1  0  0  0  0
 34 27  1  0  0  0  0
 35 36  2  0  0  0  0
M  END
>  <MODEL>
2

>  <REMARK>
 VINA RESULT:      -6.5      4.568      6.203
  Name = 
  4 active torsions:
  status: ('A' for Active; 'I' for Inactive)
    1  A    between atoms: C_11  and  N_36
    2  A    between atoms: C_19  and  N_25
    3  A    between atoms: C_21  and  C_35
    4  A    between atoms: C_31  and  N_34
                            x       y       z     vdW  Elec       q    Type
                         _______ _______ _______ _____ _____    ______ ____

>  <TORSDO>
F 4

$$$$
=
 OpenBabel11072414353D

 36 39  0  0  1  0  0  0  0  0999 V2000
  160.9420  207.5680  154.4970 C   0  0  0  0  0  0  0  0  0  0  0  0
  160.8760  209.6230  152.5990 C   0  0  0  0  0  0  0  0  0  0  0  0
  160.5560  209.8530  153.9450 C   0  0  0  0  0  3  0  0  0  0  0  0
  160.5920  208.8330  154.8500 N   0  0  0  0  0  0  0  0  0  0  0  0
  160.9930  206.5490  155.4940 N   0  0  0  0  0  1  0  0  0  0  0  0
  161.2340  208.3220  152.2260 C   0  0  0  0  0  3  0  0  0  0  0  0
  161.2790  207.2830  153.1650 C   0  0  0  0  0  0  0  0  0  0  0  0
  161.4510  210.5360  150.3250 C   0  0  0  0  0  0  0  0  0  0  0  0
  161.7520  213.7120  148.6460 C   0  0  0  0  0  0  0  0  0  0  0  0
  162.3430  211.5880  149.7360 C   0  0  0  0  0  2  0  0  0  0  0  0
  159.6990  213.8350  149.9440 C   0  0  0  0  0  0  0  0  0  0  0  0
  158.7180  213.1900  150.5260 C   0  0  0  0  0  0  0  0  0  0  0  0
  157.4190  213.4060  150.0820 O   0  0  0  0  0  1  0  0  0  0  0  0
  161.2090  209.4920  149.6650 O   0  0  0  0  0  0  0  0  0  0  0  0
  162.7590  214.3300  148.2050 O   0  0  0  0  0  0  0  0  0  0  0  0
  158.9530  212.2100  151.6480 C   0  0  0  0  0  2  0  0  0  0  0  0
  160.8990  210.7060  151.6420 N   0  0  0  0  0  0  0  0  0  0  0  0
  160.6960  214.4530  149.3540 C   0  0  0  0  0  3  0  0  0  0  0  0
  161.6940  212.2240  148.5190 C   0  0  0  0  0  2  0  0  0  0  0  0
  160.4280  212.0330  152.0340 C   0  0  0  0  0  2  0  0  0  0  0  0
  162.2190  205.8720  151.3430 C   0  0  0  0  0  0  0  0  0  0  0  0
  160.3410  204.6660  151.4150 C   0  0  0  0  0  0  0  0  0  0  0  0
  163.4180  206.6330  150.8820 C   0  0  0  0  0  1  0  0  0  0  0  0
  161.6700  205.8890  152.7410 C   0  0  2  0  0  3  0  0  0  0  0  0
  159.3130  203.8910  150.9930 F   0  0  0  0  0  0  0  0  0  0  0  0
  160.4810  205.0410  152.6430 N   0  0  0  0  0  0  0  0  0  0  0  0
  161.4110  205.1670  150.5730 C   0  0  0  0  0  0  0  0  0  0  0  0
  161.4100  202.6670  149.3280 O   0  0  0  0  0  1  0  0  0  0  0  0
  161.4260  206.2400  148.3360 C   0  0  0  0  0  2  0  0  0  0  0  0
  162.3290  206.0980  147.1120 C   0  0  0  0  0  2  0  0  0  0  0  0
  162.0050  204.8290  146.3180 C   0  0  1  0  0  3  0  0  0  0  0  0
  162.0900  203.5990  147.2340 C   0  0  0  0  0  2  0  0  0  0  0  0
  161.2040  203.7570  148.4750 C   0  0  2  0  0  3  0  0  0  0  0  0
  161.5010  205.0270  149.1470 N   0  0  0  0  0  0  0  0  0  0  0  0
  160.4000  205.8620  144.8820 C   0  0  0  0  0  2  0  0  0  0  0  0
  160.6940  204.9150  145.7060 N   0  0  0  0  0  0  0  0  0  0  0  0
  1  4  1  0  0  0  0
  1  5  1  0  0  0  0
  2  3  1  0  0  0  0
  3  4  2  0  0  0  0
  6  2  2  0  0  0  0
  6  7  1  0  0  0  0
  7  1  2  0  0  0  0
  8 17  1  0  0  0  0
  9 18  1  0  0  0  0
 10  8  1  0  0  0  0
 11 12  2  0  0  0  0
 12 16  1  0  0  0  0
 13 12  1  0  0  0  0
 14  8  2  0  0  0  0
 15  9  2  0  0  0  0
 16 20  1  0  0  0  0
 17 20  1  0  0  0  0
 17  2  1  0  0  0  0
 18 11  2  0  0  0  0
 19  9  1  0  0  0  0
 19 10  1  0  0  0  0
 21 24  1  0  0  0  0
 22 26  2  0  0  0  0
 23 21  1  0  0  0  0
 24  7  1  6  0  0  0
 25 22  1  0  0  0  0
 26 24  1  0  0  0  0
 27 21  2  0  0  0  0
 27 22  1  0  0  0  0
 29 34  1  0  0  0  0
 30 29  1  0  0  0  0
 31 36  1  1  0  0  0
 31 30  1  0  0  0  0
 31 32  1  0  0  0  0
 32 33  1  0  0  0  0
 33 34  1  0  0  0  0
 33 28  1  1  0  0  0
 34 27  1  0  0  0  0
 35 36  2  0  0  0  0
M  END
>  <MODEL>
3

>  <REMARK>
 VINA RESULT:      -5.7      3.194      8.349
  Name = 
  4 active torsions:
  status: ('A' for Active; 'I' for Inactive)
    1  A    between atoms: C_11  and  N_36
    2  A    between atoms: C_19  and  N_25
    3  A    between atoms: C_21  and  C_35
    4  A    between atoms: C_31  and  N_34
                            x       y       z     vdW  Elec       q    Type
                         _______ _______ _______ _____ _____    ______ ____

>  <TORSDO>
F 4

$$$$
=
 OpenBabel11072414353D

 36 39  0  0  1  0  0  0  0  0999 V2000
  161.1280  207.3830  155.4300 C   0  0  0  0  0  0  0  0  0  0  0  0
  161.4740  206.7280  152.7320 C   0  0  0  0  0  0  0  0  0  0  0  0
  161.2060  205.7480  153.6990 C   0  0  0  0  0  3  0  0  0  0  0  0
  161.0460  206.0920  155.0090 N   0  0  0  0  0  0  0  0  0  0  0  0
  160.9180  207.6860  156.8080 N   0  0  0  0  0  1  0  0  0  0  0  0
  161.5640  208.0590  153.1570 C   0  0  0  0  0  3  0  0  0  0  0  0
  161.3860  208.4050  154.5040 C   0  0  0  0  0  0  0  0  0  0  0  0
  160.7990  205.3320  150.7480 C   0  0  0  0  0  0  0  0  0  0  0  0
  161.9500  204.5700  147.4180 C   0  0  0  0  0  0  0  0  0  0  0  0
  161.4290  204.3440  149.8110 C   0  0  0  0  0  2  0  0  0  0  0  0
  162.1820  206.9770  147.6710 C   0  0  0  0  0  0  0  0  0  0  0  0
  161.7940  208.0680  148.2840 C   0  0  0  0  0  0  0  0  0  0  0  0
  161.2070  209.0830  147.5370 O   0  0  0  0  0  1  0  0  0  0  0  0
  159.5800  205.2170  151.0390 O   0  0  0  0  0  0  0  0  0  0  0  0
  162.4210  203.5120  146.9200 O   0  0  0  0  0  0  0  0  0  0  0  0
  161.9450  208.2510  149.7730 C   0  0  0  0  0  2  0  0  0  0  0  0
  161.5880  206.3840  151.3330 N   0  0  0  0  0  0  0  0  0  0  0  0
  162.5540  205.8670  147.0760 C   0  0  0  0  0  3  0  0  0  0  0  0
  160.8420  204.4770  148.4170 C   0  0  0  0  0  2  0  0  0  0  0  0
  162.5790  207.0560  150.4960 C   0  0  0  0  0  2  0  0  0  0  0  0
  160.1640  210.3660  155.4270 C   0  0  0  0  0  0  0  0  0  0  0  0
  160.7820  211.5070  153.6110 C   0  0  0  0  0  0  0  0  0  0  0  0
  159.3880  209.7980  156.5700 C   0  0  0  0  0  1  0  0  0  0  0  0
  161.4850  209.8450  154.9390 C   0  0  2  0  0  3  0  0  0  0  0  0
  160.7360  212.4110  152.6030 F   0  0  0  0  0  0  0  0  0  0  0  0
  161.7760  210.7000  153.7870 N   0  0  0  0  0  0  0  0  0  0  0  0
  159.7550  211.3270  154.6210 C   0  0  0  0  0  0  0  0  0  0  0  0
  159.4010  213.8080  155.8530 O   0  0  0  0  0  1  0  0  0  0  0  0
  157.3890  211.3980  153.8790 C   0  0  0  0  0  2  0  0  0  0  0  0
  156.0660  211.5990  154.6160 C   0  0  0  0  0  2  0  0  0  0  0  0
  155.8300  213.0730  154.9570 C   0  0  1  0  0  3  0  0  0  0  0  0
  157.0190  213.6250  155.7580 C   0  0  0  0  0  2  0  0  0  0  0  0
  158.3470  213.3960  155.0290 C   0  0  2  0  0  3  0  0  0  0  0  0
  158.4790  211.9830  154.6550 N   0  0  0  0  0  0  0  0  0  0  0  0
  154.4640  213.9220  153.1910 C   0  0  0  0  0  2  0  0  0  0  0  0
  155.6200  213.8600  153.7580 N   0  0  0  0  0  0  0  0  0  0  0  0
  1  5  1  0  0  0  0
  2  6  2  0  0  0  0
  2  3  1  0  0  0  0
  3  4  2  0  0  0  0
  4  1  1  0  0  0  0
  6  7  1  0  0  0  0
  7  1  2  0  0  0  0
  8 14  2  0  0  0  0
  8 17  1  0  0  0  0
  9 19  1  0  0  0  0
 10  8  1  0  0  0  0
 11 12  2  0  0  0  0
 12 16  1  0  0  0  0
 13 12  1  0  0  0  0
 15  9  2  0  0  0  0
 16 20  1  0  0  0  0
 17  2  1  0  0  0  0
 18  9  1  0  0  0  0
 18 11  2  0  0  0  0
 19 10  1  0  0  0  0
 20 17  1  0  0  0  0
 21 23  1  0  0  0  0
 22 26  2  0  0  0  0
 22 27  1  0  0  0  0
 24  7  1  6  0  0  0
 24 21  1  0  0  0  0
 25 22  1  0  0  0  0
 26 24  1  0  0  0  0
 27 34  1  0  0  0  0
 27 21  2  0  0  0  0
 29 30  1  0  0  0  0
 29 34  1  0  0  0  0
 30 31  1  0  0  0  0
 31 36  1  6  0  0  0
 31 32  1  0  0  0  0
 33 32  1  0  0  0  0
 33 28  1  1  0  0  0
 34 33  1  0  0  0  0
 35 36  2  0  0  0  0
M  END
>  <MODEL>
4

>  <REMARK>
 VINA RESULT:      -5.3      1.147      2.249
  Name = 
  4 active torsions:
  status: ('A' for Active; 'I' for Inactive)
    1  A    between atoms: C_11  and  N_36
    2  A    between atoms: C_19  and  N_25
    3  A    between atoms: C_21  and  C_35
    4  A    between atoms: C_31  and  N_34
                            x       y       z     vdW  Elec       q    Type
                         _______ _______ _______ _____ _____    ______ ____

>  <TORSDO>
F 4

$$$$
=
 OpenBabel11072414353D

 36 39  0  0  1  0  0  0  0  0999 V2000
  161.2480  207.8470  154.7210 C   0  0  0  0  0  0  0  0  0  0  0  0
  161.2800  206.2150  152.4490 C   0  0  0  0  0  0  0  0  0  0  0  0
  160.9910  205.7000  153.7210 C   0  0  0  0  0  3  0  0  0  0  0  0
  160.9860  206.5160  154.8140 N   0  0  0  0  0  0  0  0  0  0  0  0
  161.1960  208.6570  155.8940 N   0  0  0  0  0  1  0  0  0  0  0  0
  161.5540  207.5830  152.3440 C   0  0  0  0  0  3  0  0  0  0  0  0
  161.5360  208.4160  153.4710 C   0  0  0  0  0  0  0  0  0  0  0  0
  160.4700  204.1520  151.2540 C   0  0  0  0  0  0  0  0  0  0  0  0
  161.2160  202.2310  148.2960 C   0  0  0  0  0  0  0  0  0  0  0  0
  161.0530  202.9060  150.6560 C   0  0  0  0  0  2  0  0  0  0  0  0
  161.2580  204.5620  147.6060 C   0  0  0  0  0  0  0  0  0  0  0  0
  160.8580  205.7900  147.8320 C   0  0  0  0  0  0  0  0  0  0  0  0
  160.0830  206.4280  146.8700 O   0  0  0  0  0  1  0  0  0  0  0  0
  159.3180  204.1140  151.7600 O   0  0  0  0  0  0  0  0  0  0  0  0
  161.7100  201.0800  148.1520 O   0  0  0  0  0  0  0  0  0  0  0  0
  161.1960  206.5260  149.1030 C   0  0  0  0  0  2  0  0  0  0  0  0
  161.2310  205.3720  151.2750 N   0  0  0  0  0  0  0  0  0  0  0  0
  161.6440  203.3230  147.4090 C   0  0  0  0  0  3  0  0  0  0  0  0
  160.2690  202.4840  149.4250 C   0  0  0  0  0  2  0  0  0  0  0  0
  162.0320  205.7130  150.1010 C   0  0  0  0  0  2  0  0  0  0  0  0
  160.6710  210.7290  153.7820 C   0  0  0  0  0  0  0  0  0  0  0  0
  161.0380  211.0750  151.6070 C   0  0  0  0  0  0  0  0  0  0  0  0
  160.0740  210.7070  155.1500 C   0  0  0  0  0  1  0  0  0  0  0  0
  161.8330  209.8890  153.3350 C   0  0  2  0  0  3  0  0  0  0  0  0
  160.8830  211.5730  150.3570 F   0  0  0  0  0  0  0  0  0  0  0  0
  161.9760  210.2440  151.9220 N   0  0  0  0  0  0  0  0  0  0  0  0
  160.2030  211.4020  152.7480 C   0  0  0  0  0  0  0  0  0  0  0  0
  160.1610  213.9450  151.5950 O   0  0  0  0  0  1  0  0  0  0  0  0
  157.7650  211.5930  153.1700 C   0  0  0  0  0  2  0  0  0  0  0  0
  156.9040  212.6370  153.8780 C   0  0  0  0  0  2  0  0  0  0  0  0
  156.6810  213.8720  152.9990 C   0  0  1  0  0  3  0  0  0  0  0  0
  158.0310  214.4530  152.5540 C   0  0  0  0  0  2  0  0  0  0  0  0
  158.9040  213.3950  151.8710 C   0  0  2  0  0  3  0  0  0  0  0  0
  159.0140  212.2060  152.7230 N   0  0  0  0  0  0  0  0  0  0  0  0
  155.1450  214.4480  151.2620 C   0  0  0  0  0  2  0  0  0  0  0  0
  155.8640  213.5500  151.8450 N   0  0  0  0  0  0  0  0  0  0  0  0
  1  4  1  0  0  0  0
  1  5  1  0  0  0  0
  2  3  1  0  0  0  0
  3  4  2  0  0  0  0
  6  2  2  0  0  0  0
  6  7  1  0  0  0  0
  7  1  2  0  0  0  0
  8 17  1  0  0  0  0
  8 14  2  0  0  0  0
  9 19  1  0  0  0  0
 10  8  1  0  0  0  0
 11 12  2  0  0  0  0
 12 16  1  0  0  0  0
 13 12  1  0  0  0  0
 15  9  2  0  0  0  0
 16 20  1  0  0  0  0
 17  2  1  0  0  0  0
 18 11  2  0  0  0  0
 18  9  1  0  0  0  0
 19 10  1  0  0  0  0
 20 17  1  0  0  0  0
 21 23  1  0  0  0  0
 22 26  2  0  0  0  0
 22 27  1  0  0  0  0
 24  7  1  6  0  0  0
 24 21  1  0  0  0  0
 25 22  1  0  0  0  0
 26 24  1  0  0  0  0
 27 21  2  0  0  0  0
 29 30  1  0  0  0  0
 31 36  1  6  0  0  0
 31 30  1  0  0  0  0
 32 31  1  0  0  0  0
 33 28  1  1  0  0  0
 33 32  1  0  0  0  0
 33 34  1  0  0  0  0
 34 27  1  0  0  0  0
 34 29  1  0  0  0  0
 35 36  2  0  0  0  0
M  END
>  <MODEL>
5

>  <REMARK>
 VINA RESULT:      -5.0      1.651      2.740
  Name = 
  4 active torsions:
  status: ('A' for Active; 'I' for Inactive)
    1  A    between atoms: C_11  and  N_36
    2  A    between atoms: C_19  and  N_25
    3  A    between atoms: C_21  and  C_35
    4  A    between atoms: C_31  and  N_34
                            x       y       z     vdW  Elec       q    Type
                         _______ _______ _______ _____ _____    ______ ____

>  <TORSDO>
F 4

$$$$
=
 OpenBabel11072414353D

 36 39  0  0  1  0  0  0  0  0999 V2000
  161.3600  209.9880  152.1140 C   0  0  0  0  0  0  0  0  0  0  0  0
  161.4070  207.7330  150.4590 C   0  0  0  0  0  0  0  0  0  0  0  0
  160.9890  207.6560  151.7950 C   0  0  0  0  0  3  0  0  0  0  0  0
  160.9790  208.7700  152.5830 N   0  0  0  0  0  0  0  0  0  0  0  0
  161.2960  211.1230  152.9750 N   0  0  0  0  0  1  0  0  0  0  0  0
  161.8040  208.9820  149.9680 C   0  0  0  0  0  3  0  0  0  0  0  0
  161.7800  210.1230  150.7820 C   0  0  0  0  0  0  0  0  0  0  0  0
  160.6920  205.3640  149.9900 C   0  0  0  0  0  0  0  0  0  0  0  0
  161.4430  202.6780  147.7060 C   0  0  0  0  0  0  0  0  0  0  0  0
  161.3340  204.0280  149.7590 C   0  0  0  0  0  2  0  0  0  0  0  0
  161.2940  204.6890  146.3470 C   0  0  0  0  0  0  0  0  0  0  0  0
  160.8200  205.9040  146.2170 C   0  0  0  0  0  0  0  0  0  0  0  0
  159.9620  206.1780  145.1580 O   0  0  0  0  0  1  0  0  0  0  0  0
  159.5690  205.4200  150.5550 O   0  0  0  0  0  0  0  0  0  0  0  0
  162.0090  201.5660  147.8840 O   0  0  0  0  0  0  0  0  0  0  0  0
  161.1600  207.0080  147.1860 C   0  0  0  0  0  2  0  0  0  0  0  0
  161.3670  206.5720  149.5970 N   0  0  0  0  0  0  0  0  0  0  0  0
  161.7570  203.4710  146.5070 C   0  0  0  0  0  3  0  0  0  0  0  0
  160.5300  203.2110  148.7630 C   0  0  0  0  0  2  0  0  0  0  0  0
  162.0910  206.5830  148.3280 C   0  0  0  0  0  2  0  0  0  0  0  0
  161.1200  212.0990  149.4210 C   0  0  0  0  0  0  0  0  0  0  0  0
  162.8710  211.6770  148.1020 C   0  0  0  0  0  0  0  0  0  0  0  0
  159.7620  212.4500  149.9340 C   0  0  0  0  0  1  0  0  0  0  0  0
  162.2100  211.4600  150.2310 C   0  0  2  0  0  3  0  0  0  0  0  0
  163.6300  211.6140  146.9820 F   0  0  0  0  0  0  0  0  0  0  0  0
  163.2880  211.2800  149.2580 N   0  0  0  0  0  0  0  0  0  0  0  0
  161.5180  212.1980  148.1660 C   0  0  0  0  0  0  0  0  0  0  0  0
  162.1670  214.4520  146.6510 O   0  0  0  0  0  1  0  0  0  0  0  0
  159.6380  211.7390  146.6130 C   0  0  0  0  0  2  0  0  0  0  0  0
  158.4610  212.5780  146.1170 C   0  0  0  0  0  2  0  0  0  0  0  0
  158.8940  213.5730  145.0360 C   0  0  1  0  0  3  0  0  0  0  0  0
  160.0400  214.4520  145.5580 C   0  0  0  0  0  2  0  0  0  0  0  0
  161.2070  213.6070  146.0810 C   0  0  2  0  0  3  0  0  0  0  0  0
  160.7190  212.6190  147.0500 N   0  0  0  0  0  0  0  0  0  0  0  0
  159.8760  213.5120  142.8590 C   0  0  0  0  0  2  0  0  0  0  0  0
  159.2960  212.8850  143.8250 N   0  0  0  0  0  0  0  0  0  0  0  0
  1  4  1  0  0  0  0
  1  5  1  0  0  0  0
  2  3  1  0  0  0  0
  3  4  2  0  0  0  0
  6  2  2  0  0  0  0
  6  7  1  0  0  0  0
  7  1  2  0  0  0  0
  8 14  2  0  0  0  0
  9 15  2  0  0  0  0
  9 19  1  0  0  0  0
 10  8  1  0  0  0  0
 11 18  2  0  0  0  0
 12 11  2  0  0  0  0
 12 16  1  0  0  0  0
 13 12  1  0  0  0  0
 16 20  1  0  0  0  0
 17  8  1  0  0  0  0
 17  2  1  0  0  0  0
 18  9  1  0  0  0  0
 19 10  1  0  0  0  0
 20 17  1  0  0  0  0
 21 23  1  0  0  0  0
 21 24  1  0  0  0  0
 22 27  1  0  0  0  0
 22 26  2  0  0  0  0
 24  7  1  6  0  0  0
 25 22  1  0  0  0  0
 26 24  1  0  0  0  0
 27 21  2  0  0  0  0
 29 34  1  0  0  0  0
 30 29  1  0  0  0  0
 31 36  1  6  0  0  0
 31 32  1  0  0  0  0
 31 30  1  0  0  0  0
 32 33  1  0  0  0  0
 33 28  1  1  0  0  0
 33 34  1  0  0  0  0
 34 27  1  0  0  0  0
 35 36  2  0  0  0  0
M  END
>  <MODEL>
6

>  <REMARK>
 VINA RESULT:      -4.9      4.384      6.093
  Name = 
  4 active torsions:
  status: ('A' for Active; 'I' for Inactive)
    1  A    between atoms: C_11  and  N_36
    2  A    between atoms: C_19  and  N_25
    3  A    between atoms: C_21  and  C_35
    4  A    between atoms: C_31  and  N_34
                            x       y       z     vdW  Elec       q    Type
                         _______ _______ _______ _____ _____    ______ ____

>  <TORSDO>
F 4

$$$$
=
 OpenBabel11072414353D

 36 39  0  0  1  0  0  0  0  0999 V2000
  161.0210  207.8750  154.5600 C   0  0  0  0  0  0  0  0  0  0  0  0
  160.5540  209.8000  152.5840 C   0  0  0  0  0  0  0  0  0  0  0  0
  160.3500  210.0760  153.9430 C   0  0  0  0  0  3  0  0  0  0  0  0
  160.5810  209.1190  154.8880 N   0  0  0  0  0  0  0  0  0  0  0  0
  161.2770  206.9260  155.5930 N   0  0  0  0  0  1  0  0  0  0  0  0
  161.0030  208.5200  152.2370 C   0  0  0  0  0  3  0  0  0  0  0  0
  161.2480  207.5460  153.2140 C   0  0  0  0  0  0  0  0  0  0  0  0
  159.8390  212.1190  151.9110 C   0  0  0  0  0  0  0  0  0  0  0  0
  159.0730  213.9890  148.9260 C   0  0  0  0  0  0  0  0  0  0  0  0
  158.8010  212.7590  151.0380 C   0  0  0  0  0  2  0  0  0  0  0  0
  161.0940  212.7340  148.4260 C   0  0  0  0  0  0  0  0  0  0  0  0
  162.1610  212.1270  148.8850 C   0  0  0  0  0  0  0  0  0  0  0  0
  163.4140  212.6040  148.5140 O   0  0  0  0  0  1  0  0  0  0  0  0
  160.2250  212.7140  152.9500 O   0  0  0  0  0  0  0  0  0  0  0  0
  157.9850  214.4530  148.4890 O   0  0  0  0  0  0  0  0  0  0  0  0
  162.0770  210.9420  149.8140 C   0  0  0  0  0  2  0  0  0  0  0  0
  160.3690  210.8230  151.5790 N   0  0  0  0  0  0  0  0  0  0  0  0
  160.0150  213.3460  147.9970 C   0  0  0  0  0  3  0  0  0  0  0  0
  159.3440  214.0230  150.3960 C   0  0  0  0  0  2  0  0  0  0  0  0
  160.6460  210.5230  150.1760 C   0  0  0  0  0  2  0  0  0  0  0  0
  162.2260  206.1530  151.3990 C   0  0  0  0  0  0  0  0  0  0  0  0
  160.4570  204.8040  151.5890 C   0  0  0  0  0  0  0  0  0  0  0  0
  163.3390  206.9910  150.8640 C   0  0  0  0  0  1  0  0  0  0  0  0
  161.7340  206.1750  152.8180 C   0  0  2  0  0  3  0  0  0  0  0  0
  159.4800  203.9350  151.2360 F   0  0  0  0  0  0  0  0  0  0  0  0
  160.6150  205.2310  152.7980 N   0  0  0  0  0  0  0  0  0  0  0  0
  161.4490  205.3590  150.6860 C   0  0  0  0  0  0  0  0  0  0  0  0
  161.3830  202.8250  149.5150 O   0  0  0  0  0  1  0  0  0  0  0  0
  161.4040  206.3680  148.4200 C   0  0  0  0  0  2  0  0  0  0  0  0
  162.2670  206.1810  147.1730 C   0  0  0  0  0  2  0  0  0  0  0  0
  161.9060  204.8930  146.4270 C   0  0  1  0  0  3  0  0  0  0  0  0
  162.0060  203.6890  147.3750 C   0  0  0  0  0  2  0  0  0  0  0  0
  161.1620  203.8930  148.6380 C   0  0  2  0  0  3  0  0  0  0  0  0
  161.4920  205.1780  149.2630 N   0  0  0  0  0  0  0  0  0  0  0  0
  160.2540  205.9270  145.0450 C   0  0  0  0  0  2  0  0  0  0  0  0
  160.5770  204.9760  145.8540 N   0  0  0  0  0  0  0  0  0  0  0  0
  1  4  1  0  0  0  0
  1  5  1  0  0  0  0
  2  3  1  0  0  0  0
  3  4  2  0  0  0  0
  6  2  2  0  0  0  0
  6  7  1  0  0  0  0
  7  1  2  0  0  0  0
  8 14  2  0  0  0  0
  9 19  1  0  0  0  0
 10  8  1  0  0  0  0
 11 12  2  0  0  0  0
 12 16  1  0  0  0  0
 13 12  1  0  0  0  0
 15  9  2  0  0  0  0
 16 20  1  0  0  0  0
 17  8  1  0  0  0  0
 17  2  1  0  0  0  0
 18 11  2  0  0  0  0
 18  9  1  0  0  0  0
 19 10  1  0  0  0  0
 20 17  1  0  0  0  0
 21 24  1  0  0  0  0
 22 26  2  0  0  0  0
 23 21  1  0  0  0  0
 24  7  1  6  0  0  0
 25 22  1  0  0  0  0
 26 24  1  0  0  0  0
 27 21  2  0  0  0  0
 27 22  1  0  0  0  0
 29 34  1  0  0  0  0
 30 29  1  0  0  0  0
 31 36  1  1  0  0  0
 31 30  1  0  0  0  0
 31 32  1  0  0  0  0
 32 33  1  0  0  0  0
 33 34  1  0  0  0  0
 33 28  1  1  0  0  0
 34 27  1  0  0  0  0
 35 36  2  0  0  0  0
M  END
>  <MODEL>
7

>  <REMARK>
 VINA RESULT:      -4.7      3.234      8.215
  Name = 
  4 active torsions:
  status: ('A' for Active; 'I' for Inactive)
    1  A    between atoms: C_11  and  N_36
    2  A    between atoms: C_19  and  N_25
    3  A    between atoms: C_21  and  C_35
    4  A    between atoms: C_31  and  N_34
                            x       y       z     vdW  Elec       q    Type
                         _______ _______ _______ _____ _____    ______ ____

>  <TORSDO>
F 4

$$$$
