=
 OpenBabel11072414583D

 65 71  0  0  1  0  0  0  0  0999 V2000
  160.9690  210.3290  151.2440 C   0  0  2  0  0  3  0  0  0  0  0  0
  161.7040  207.9350  151.9270 C   0  0  2  0  0  3  0  0  0  0  0  0
  161.8980  206.6310  152.7250 C   0  0  2  0  0  3  0  0  0  0  0  0
  160.8460  209.1590  152.2570 C   0  0  2  0  0  3  0  0  0  0  0  0
  160.1230  207.6250  150.1820 C   0  0  0  0  0  3  0  0  0  0  0  0
  160.6850  206.5230  149.6380 C   0  0  0  0  0  0  0  0  0  0  0  0
  161.5960  205.5550  150.3910 C   0  0  0  0  0  2  0  0  0  0  0  0
  160.2030  207.9170  151.6500 C   0  0  1  0  0  3  0  0  0  0  0  0
  161.3770  205.4010  151.9170 C   0  0  1  0  0  3  0  0  0  0  0  0
  161.4180  206.6420  154.1610 C   0  0  0  0  0  0  0  0  0  0  0  0
  161.2910  205.5490  154.7770 O   0  0  0  0  0  0  0  0  0  0  0  0
  161.1830  207.8490  154.8280 O   0  0  0  0  0  0  0  0  0  0  0  0
  161.0550  207.9410  156.5410 P   0  0  0  0  0  0  0  0  0  0  0  0
  160.8620  206.3850  157.1810 O   0  0  0  0  0  1  0  0  0  0  0  0
  162.3150  208.5590  157.0990 O   0  0  0  0  0  1  0  0  0  0  0  0
  159.7180  208.8950  156.9560 O   0  0  0  0  0  0  0  0  0  0  0  0
  162.0490  204.2550  152.3510 O   0  0  0  0  0  0  0  0  0  0  0  0
  161.2380  203.1830  151.9770 C   0  0  0  0  0  1  0  0  0  0  0  0
  160.5260  206.3100  148.1620 C   0  0  0  0  0  2  0  0  0  0  0  0
  163.5100  204.4590  146.7280 O   0  0  0  0  0  1  0  0  0  0  0  0
  162.3250  204.6900  147.3510 N   0  0  0  0  0  0  0  0  0  0  0  0
  161.8360  206.0350  147.4640 C   0  0  0  0  0  0  0  0  0  0  0  0
  162.4900  206.9800  146.9360 O   0  0  0  0  0  0  0  0  0  0  0  0
  161.5500  203.5490  147.8240 C   0  0  0  0  0  2  0  0  0  0  0  0
  161.0970  202.7110  146.6440 C   0  0  0  0  0  2  0  0  0  0  0  0
  160.9320  201.1150  148.3990 O   0  0  0  0  0  0  0  0  0  0  0  0
  160.3970  201.4590  147.1410 C   0  0  2  0  0  3  0  0  0  0  0  0
  161.3780  200.3630  147.2950 C   0  0  0  0  0  2  0  0  0  0  0  0
  162.2640  210.2510  150.4310 C   0  0  0  0  0  2  0  0  0  0  0  0
  162.6840  209.3580  148.1740 C   0  0  0  0  0  1  0  0  0  0  0  0
  162.0150  210.4730  148.9470 C   0  0  2  0  0  3  0  0  0  0  0  0
  162.6140  211.7990  148.5090 C   0  0  0  0  0  2  0  0  0  0  0  0
  161.7090  212.9010  148.8010 N   0  0  0  0  0  2  0  0  0  0  0  0
  161.6380  213.7870  147.6350 C   0  0  0  0  0  2  0  0  0  0  0  0
  161.0160  213.1110  146.4060 C   0  0  1  0  0  3  0  0  0  0  0  0
  159.6300  213.2910  146.3900 O   0  0  0  0  0  1  0  0  0  0  0  0
  161.6940  213.6530  145.1440 C   0  0  1  0  0  3  0  0  0  0  0  0
  161.0700  212.9960  143.9250 C   0  0  1  0  0  3  0  0  0  0  0  0
  160.7650  214.4490  144.2470 C   0  0  0  0  0  2  0  0  0  0  0  0
  162.1440  212.8810  142.8470 C   0  0  0  0  0  2  0  0  0  0  0  0
  162.7210  212.8940  137.1080 C   0  0  0  0  0  2  0  0  0  0  0  0
  162.0090  211.5490  137.1230 C   0  0  0  0  0  2  0  0  0  0  0  0
  162.3130  213.7070  138.3210 C   0  0  0  0  0  2  0  0  0  0  0  0
  161.6300  211.0630  138.5330 C   0  0  2  0  0  3  0  0  0  0  0  0
  162.1270  211.3630  141.0500 C   0  0  2  0  0  3  0  0  0  0  0  0
  162.5830  211.6190  139.6240 C   0  0  2  0  0  3  0  0  0  0  0  0
  161.2060  210.3390  141.1700 F   0  0  0  0  0  0  0  0  0  0  0  0
  162.0180  213.6520  140.6440 C   0  0  0  0  0  2  0  0  0  0  0  0
  162.7960  213.0750  139.5520 N   0  0  2  0  0  0  0  0  0  0  0  0
  161.5540  212.6000  141.5440 N   0  0  0  0  0  0  0  0  0  0  0  0
  161.5560  209.5310  138.5570 C   0  0  0  0  0  3  0  0  0  0  0  0
  160.2700  209.1100  138.9000 O   0  0  0  0  0  1  0  0  0  0  0  0
  161.9180  208.9890  137.3220 O   0  0  0  0  0  1  0  0  0  0  0  0
  160.5640  211.7100  151.8300 C   0  0  0  0  0  2  0  0  0  0  0  0
  157.7750  212.2930  154.9760 C   0  0  0  0  0  0  0  0  0  0  0  0
  160.1050  212.1440  154.2190 C   0  0  0  0  0  2  0  0  0  0  0  0
  159.1280  211.7650  155.3280 C   0  0  0  0  0  2  0  0  0  0  0  0
  159.5680  211.7540  152.9110 N   0  0  0  0  0  0  0  0  0  0  0  0
  157.1670  213.0150  155.7470 O   0  0  0  0  0  0  0  0  0  0  0  0
  157.2290  211.9920  153.6180 C   0  0  0  0  0  2  0  0  0  0  0  0
  158.2740  212.3700  152.5620 C   0  0  1  0  0  3  0  0  0  0  0  0
  158.3590  213.8900  152.3990 C   0  0  0  0  0  2  0  0  0  0  0  0
  157.1070  213.5700  150.2780 C   0  0  0  0  0  1  0  0  0  0  0  0
  156.0410  214.4490  152.2030 O   0  0  0  0  0  1  0  0  0  0  0  0
  157.2500  214.4380  151.5050 C   0  0  1  0  0  3  0  0  0  0  0  0
  1 29  1  1  0  0  0
  1 54  1  0  0  0  0
  1  4  1  0  0  0  0
  2  4  1  0  0  0  0
  2  3  1  0  0  0  0
  3 10  1  0  0  0  0
  5  8  1  0  0  0  0
  6  5  2  0  0  0  0
  6  7  1  0  0  0  0
  7  9  1  0  0  0  0
  8  2  1  0  0  0  0
  8  4  1  0  0  0  0
  9 17  1  0  0  0  0
  9  3  1  0  0  0  0
 10 11  2  0  0  0  0
 10 12  1  0  0  0  0
 12 13  1  0  0  0  0
 13 16  2  0  0  0  0
 13 15  1  0  0  0  0
 13 14  1  0  0  0  0
 18 17  1  0  0  0  0
 19  6  1  0  0  0  0
 20 21  1  0  0  0  0
 21 22  1  0  0  0  0
 21 24  1  0  0  0  0
 22 19  1  0  0  0  0
 23 22  2  0  0  0  0
 25 27  1  0  0  0  0
 25 24  1  0  0  0  0
 27 28  1  0  0  0  0
 27 26  1  0  0  0  0
 28 26  1  0  0  0  0
 30 31  1  0  0  0  0
 31 29  1  0  0  0  0
 32 33  1  0  0  0  0
 32 31  1  0  0  0  0
 34 33  1  0  0  0  0
 35 34  1  0  0  0  0
 36 35  1  0  0  0  0
 37 35  1  0  0  0  0
 38 39  1  0  0  0  0
 38 37  1  0  0  0  0
 39 37  1  0  0  0  0
 40 38  1  0  0  0  0
 41 42  1  0  0  0  0
 41 43  1  0  0  0  0
 42 44  1  0  0  0  0
 43 49  1  0  0  0  0
 44 51  1  0  0  0  0
 44 46  1  0  0  0  0
 45 47  1  0  0  0  0
 45 50  1  0  0  0  0
 46 45  1  0  0  0  0
 48 50  1  0  0  0  0
 49 46  1  0  0  0  0
 49 48  1  0  0  0  0
 50 40  1  0  0  0  0
 51 52  1  0  0  0  0
 53 51  1  0  0  0  0
 54 58  1  0  0  0  0
 55 57  1  0  0  0  0
 55 59  2  0  0  0  0
 56 57  1  0  0  0  0
 58 56  1  0  0  0  0
 60 55  1  0  0  0  0
 61 58  1  0  0  0  0
 61 60  1  0  0  0  0
 62 61  1  0  0  0  0
 63 65  1  0  0  0  0
 65 64  1  0  0  0  0
 65 62  1  0  0  0  0
M  END
>  <MODEL>
1

>  <REMARK>
 VINA RESULT:      -5.5      0.000      0.000
  Name = 
  24 active torsions:
  status: ('A' for Active; 'I' for Inactive)
    1  A    between atoms: C_2  and  C_38
    2  A    between atoms: C_3  and  N_20
    3  A    between atoms: C_3  and  C_54
    4  A    between atoms: P_4  and  O_17
    5  A    between atoms: N_10  and  C_18
    6  A    between atoms: C_11  and  C_62
    7  A    between atoms: C_12  and  C_41
    8  A    between atoms: O_17  and  C_41
    9  A    between atoms: C_18  and  C_34
   10  A    between atoms: C_19  and  C_29
   11  A    between atoms: C_22  and  C_34
   12  A    between atoms: C_23  and  C_29
   13  A    between atoms: C_23  and  N_40
   14  A    between atoms: C_24  and  C_26
   15  A    between atoms: C_25  and  C_54
   16  A    between atoms: C_26  and  N_61
   17  A    between atoms: O_28  and  C_57
   18  A    between atoms: C_35  and  C_62
   19  A    between atoms: N_40  and  C_49
   20  A    between atoms: C_49  and  C_52
   21  A    between atoms: C_52  and  C_64
   22  A    between atoms: C_54  and  C_64
   23  A    between atoms: C_58  and  C_60
   24  A    between atoms: C_60  and  C_63
                            x       y       z     vdW  Elec       q    Type
                         _______ _______ _______ _____ _____    ______ ____

>  <TORSDO>
F 24

$$$$
=
 OpenBabel11072414583D

 65 71  0  0  1  0  0  0  0  0999 V2000
  160.7400  210.6480  153.0220 C   0  0  2  0  0  3  0  0  0  0  0  0
  158.5100  211.9690  153.1520 C   0  0  2  0  0  3  0  0  0  0  0  0
  157.3730  212.8840  153.6470 C   0  0  2  0  0  3  0  0  0  0  0  0
  159.8860  211.7080  153.7680 C   0  0  2  0  0  3  0  0  0  0  0  0
  159.7680  213.0390  151.4460 C   0  0  0  0  0  3  0  0  0  0  0  0
  158.7260  213.3850  150.6580 C   0  0  0  0  0  0  0  0  0  0  0  0
  157.2910  213.5650  151.1510 C   0  0  0  0  0  2  0  0  0  0  0  0
  159.6480  212.9640  152.9370 C   0  0  1  0  0  3  0  0  0  0  0  0
  157.0870  214.0220  152.6180 C   0  0  1  0  0  3  0  0  0  0  0  0
  157.4840  213.3870  155.0700 C   0  0  0  0  0  0  0  0  0  0  0  0
  158.1190  214.4530  155.3000 O   0  0  0  0  0  0  0  0  0  0  0  0
  156.8370  212.7230  156.1170 O   0  0  0  0  0  0  0  0  0  0  0  0
  155.9700  211.2550  155.8750 P   0  0  0  0  0  0  0  0  0  0  0  0
  157.0620  209.9730  155.7040 O   0  0  0  0  0  1  0  0  0  0  0  0
  155.0830  211.0020  157.0710 O   0  0  0  0  0  1  0  0  0  0  0  0
  155.0220  211.3850  154.4770 O   0  0  0  0  0  0  0  0  0  0  0  0
  155.7660  214.4520  152.7710 O   0  0  0  0  0  0  0  0  0  0  0  0
  155.1110  214.0720  151.5990 C   0  0  0  0  0  1  0  0  0  0  0  0
  158.9570  213.4560  149.1770 C   0  0  0  0  0  2  0  0  0  0  0  0
  156.4490  213.7740  146.3500 O   0  0  0  0  0  1  0  0  0  0  0  0
  157.5700  213.4250  147.0350 N   0  0  0  0  0  0  0  0  0  0  0  0
  157.7140  213.8260  148.4060 C   0  0  0  0  0  0  0  0  0  0  0  0
  156.7730  214.4520  148.9720 O   0  0  0  0  0  0  0  0  0  0  0  0
  158.5640  212.5890  146.3710 C   0  0  0  0  0  2  0  0  0  0  0  0
  158.5220  212.8330  144.8740 C   0  0  0  0  0  2  0  0  0  0  0  0
  159.8760  213.2470  142.9640 O   0  0  0  0  0  0  0  0  0  0  0  0
  159.9350  212.8720  144.3210 C   0  0  2  0  0  3  0  0  0  0  0  0
  160.0770  211.8790  143.2340 C   0  0  0  0  0  2  0  0  0  0  0  0
  161.7720  209.9900  153.9420 C   0  0  0  0  0  2  0  0  0  0  0  0
  162.1170  211.0730  156.1290 C   0  0  0  0  0  1  0  0  0  0  0  0
  161.3270  210.0100  155.3970 C   0  0  2  0  0  3  0  0  0  0  0  0
  161.6020  208.6640  156.0460 C   0  0  0  0  0  2  0  0  0  0  0  0
  160.7220  207.6360  155.5080 N   0  0  0  0  0  2  0  0  0  0  0  0
  161.4840  206.7810  154.5920 C   0  0  0  0  0  2  0  0  0  0  0  0
  160.6140  206.1530  153.4960 C   0  0  1  0  0  3  0  0  0  0  0  0
  160.3870  207.0640  152.4610 O   0  0  0  0  0  1  0  0  0  0  0  0
  161.2840  204.8650  153.0070 C   0  0  1  0  0  3  0  0  0  0  0  0
  161.1280  204.7650  151.5000 C   0  0  1  0  0  3  0  0  0  0  0  0
  162.4800  205.1040  152.1040 C   0  0  0  0  0  2  0  0  0  0  0  0
  161.0410  203.2880  151.1290 C   0  0  0  0  0  2  0  0  0  0  0  0
  160.2860  201.2100  145.8020 C   0  0  0  0  0  2  0  0  0  0  0  0
  161.0540  202.4300  145.3130 C   0  0  0  0  0  2  0  0  0  0  0  0
  160.6970  200.8760  147.2210 C   0  0  0  0  0  2  0  0  0  0  0  0
  161.4970  203.3780  146.4420 C   0  0  2  0  0  3  0  0  0  0  0  0
  161.0650  204.0430  148.9010 C   0  0  2  0  0  3  0  0  0  0  0  0
  160.5550  203.3070  147.6740 C   0  0  2  0  0  3  0  0  0  0  0  0
  162.0320  204.9910  148.6250 F   0  0  0  0  0  0  0  0  0  0  0  0
  161.0660  201.7610  149.3590 C   0  0  0  0  0  2  0  0  0  0  0  0
  160.2800  201.9380  148.1430 N   0  0  2  0  0  0  0  0  0  0  0  0
  161.6010  203.0430  149.8060 N   0  0  0  0  0  0  0  0  0  0  0  0
  161.6350  204.8070  145.9030 C   0  0  0  0  0  3  0  0  0  0  0  0
  161.7360  204.7950  144.5100 O   0  0  0  0  0  1  0  0  0  0  0  0
  160.5530  205.6000  146.2930 O   0  0  0  0  0  1  0  0  0  0  0  0
  161.2140  211.1040  151.6140 C   0  0  0  0  0  2  0  0  0  0  0  0
  162.3720  208.3130  148.6340 C   0  0  0  0  0  0  0  0  0  0  0  0
  160.8060  208.9930  150.3960 C   0  0  0  0  0  2  0  0  0  0  0  0
  161.5530  207.8150  149.7800 C   0  0  0  0  0  2  0  0  0  0  0  0
  161.7330  210.0930  150.6820 N   0  0  0  0  0  0  0  0  0  0  0  0
  162.2560  207.8220  147.5240 O   0  0  0  0  0  0  0  0  0  0  0  0
  163.2650  209.4890  148.8590 C   0  0  0  0  0  2  0  0  0  0  0  0
  162.4530  210.6180  149.5060 C   0  0  1  0  0  3  0  0  0  0  0  0
  161.5270  211.2780  148.4820 C   0  0  0  0  0  2  0  0  0  0  0  0
  161.6800  213.7220  148.0610 C   0  0  0  0  0  1  0  0  0  0  0  0
  163.6040  212.3420  147.9510 O   0  0  0  0  0  1  0  0  0  0  0  0
  162.2340  212.3690  147.6820 C   0  0  1  0  0  3  0  0  0  0  0  0
  1 54  1  6  0  0  0
  1  4  1  0  0  0  0
  1 29  1  0  0  0  0
  2  3  1  0  0  0  0
  2  4  1  0  0  0  0
  3 10  1  0  0  0  0
  5  8  1  0  0  0  0
  6  7  1  0  0  0  0
  6  5  2  0  0  0  0
  7  9  1  0  0  0  0
  8  2  1  0  0  0  0
  8  4  1  0  0  0  0
  9 17  1  0  0  0  0
  9  3  1  0  0  0  0
 10 11  2  0  0  0  0
 10 12  1  0  0  0  0
 13 12  1  0  0  0  0
 13 15  1  0  0  0  0
 14 13  1  0  0  0  0
 16 13  2  0  0  0  0
 18 17  1  0  0  0  0
 19  6  1  0  0  0  0
 20 21  1  0  0  0  0
 21 22  1  0  0  0  0
 22 23  2  0  0  0  0
 22 19  1  0  0  0  0
 24 21  1  0  0  0  0
 25 24  1  0  0  0  0
 26 28  1  0  0  0  0
 26 27  1  0  0  0  0
 27 25  1  0  0  0  0
 28 27  1  0  0  0  0
 29 31  1  0  0  0  0
 31 32  1  0  0  0  0
 31 30  1  0  0  0  0
 33 32  1  0  0  0  0
 34 33  1  0  0  0  0
 35 34  1  0  0  0  0
 36 35  1  0  0  0  0
 37 35  1  0  0  0  0
 38 39  1  0  0  0  0
 38 37  1  0  0  0  0
 39 37  1  0  0  0  0
 40 38  1  0  0  0  0
 41 43  1  0  0  0  0
 42 41  1  0  0  0  0
 42 44  1  0  0  0  0
 43 49  1  0  0  0  0
 44 46  1  0  0  0  0
 45 50  1  0  0  0  0
 46 49  1  0  0  0  0
 46 45  1  0  0  0  0
 47 45  1  0  0  0  0
 48 50  1  0  0  0  0
 49 48  1  0  0  0  0
 50 40  1  0  0  0  0
 51 53  1  0  0  0  0
 51 44  1  0  0  0  0
 52 51  1  0  0  0  0
 55 60  1  0  0  0  0
 55 57  1  0  0  0  0
 56 58  1  0  0  0  0
 57 56  1  0  0  0  0
 58 54  1  0  0  0  0
 59 55  2  0  0  0  0
 60 61  1  0  0  0  0
 61 58  1  0  0  0  0
 62 61  1  0  0  0  0
 65 64  1  0  0  0  0
 65 63  1  0  0  0  0
 65 62  1  0  0  0  0
M  END
>  <MODEL>
2

>  <REMARK>
 VINA RESULT:      -4.6      3.481      9.394
  Name = 
  24 active torsions:
  status: ('A' for Active; 'I' for Inactive)
    1  A    between atoms: C_2  and  C_38
    2  A    between atoms: C_3  and  N_20
    3  A    between atoms: C_3  and  C_54
    4  A    between atoms: P_4  and  O_17
    5  A    between atoms: N_10  and  C_18
    6  A    between atoms: C_11  and  C_62
    7  A    between atoms: C_12  and  C_41
    8  A    between atoms: O_17  and  C_41
    9  A    between atoms: C_18  and  C_34
   10  A    between atoms: C_19  and  C_29
   11  A    between atoms: C_22  and  C_34
   12  A    between atoms: C_23  and  C_29
   13  A    between atoms: C_23  and  N_40
   14  A    between atoms: C_24  and  C_26
   15  A    between atoms: C_25  and  C_54
   16  A    between atoms: C_26  and  N_61
   17  A    between atoms: O_28  and  C_57
   18  A    between atoms: C_35  and  C_62
   19  A    between atoms: N_40  and  C_49
   20  A    between atoms: C_49  and  C_52
   21  A    between atoms: C_52  and  C_64
   22  A    between atoms: C_54  and  C_64
   23  A    between atoms: C_58  and  C_60
   24  A    between atoms: C_60  and  C_63
                            x       y       z     vdW  Elec       q    Type
                         _______ _______ _______ _____ _____    ______ ____

>  <TORSDO>
F 24

$$$$
=
 OpenBabel11072414583D

 65 72  0  0  1  0  0  0  0  0999 V2000
  161.3690  211.8410  148.7250 C   0  0  2  0  0  3  0  0  0  0  0  0
  161.1320  209.3190  149.2950 C   0  0  2  0  0  3  0  0  0  0  0  0
  161.3320  207.7920  149.3020 C   0  0  2  0  0  3  0  0  0  0  0  0
  161.9220  210.4000  148.5530 C   0  0  2  0  0  3  0  0  0  0  0  0
  162.1040  210.3040  151.2250 C   0  0  0  0  0  3  0  0  0  0  0  0
  161.5120  209.5040  152.1390 C   0  0  0  0  0  0  0  0  0  0  0  0
  160.9880  208.0980  151.8490 C   0  0  0  0  0  2  0  0  0  0  0  0
  162.4630  209.8170  149.8540 C   0  0  1  0  0  3  0  0  0  0  0  0
  161.6920  207.2850  150.7340 C   0  0  1  0  0  3  0  0  0  0  0  0
  162.2370  207.2250  148.2290 C   0  0  0  0  0  0  0  0  0  0  0  0
  163.4750  207.1330  148.4510 O   0  0  0  0  0  0  0  0  0  0  0  0
  161.7070  206.7430  147.0280 O   0  0  0  0  0  0  0  0  0  0  0  0
  161.8520  205.0940  146.5570 P   0  0  0  0  0  0  0  0  0  0  0  0
  163.3810  204.8280  145.8800 O   0  0  0  0  0  1  0  0  0  0  0  0
  161.6830  204.2150  147.7740 O   0  0  0  0  0  1  0  0  0  0  0  0
  160.6540  204.7260  145.4160 O   0  0  0  0  0  0  0  0  0  0  0  0
  161.3100  205.9450  150.8510 O   0  0  0  0  0  0  0  0  0  0  0  0
  162.2190  205.3750  151.7440 C   0  0  0  0  0  1  0  0  0  0  0  0
  161.2180  210.0810  153.4920 C   0  0  0  0  0  2  0  0  0  0  0  0
  163.5680  210.8460  156.3680 O   0  0  0  0  0  1  0  0  0  0  0  0
  162.4400  210.5060  155.6930 N   0  0  0  0  0  0  0  0  0  0  0  0
  162.4650  210.4480  154.2580 C   0  0  0  0  0  0  0  0  0  0  0  0
  163.5500  210.6640  153.6470 O   0  0  0  0  0  0  0  0  0  0  0  0
  161.2520  210.1380  156.4550 C   0  0  0  0  0  2  0  0  0  0  0  0
  160.6210  208.8960  155.8540 C   0  0  0  0  0  2  0  0  0  0  0  0
  160.6830  206.6160  156.5250 O   0  0  0  0  0  0  0  0  0  0  0  0
  160.2970  207.9010  156.9540 C   0  0  2  0  0  3  0  0  0  0  0  0
  159.3080  206.9150  156.4640 C   0  0  0  0  0  2  0  0  0  0  0  0
  162.2150  212.8740  147.9750 C   0  0  0  0  0  2  0  0  0  0  0  0
  160.0700  213.0100  146.7700 C   0  0  0  0  0  2  0  0  0  0  0  0
  161.3670  213.7360  147.0520 C   0  0  2  0  0  3  0  0  0  0  0  0
  162.0940  213.9660  145.7380 C   0  0  0  0  0  2  0  0  0  0  0  0
  161.7450  212.9420  144.7630 N   0  0  0  0  0  2  0  0  0  0  0  0
  160.3380  212.5710  144.9380 C   0  0  2  0  0  3  0  0  0  0  0  0
  159.4310  213.1190  143.8290 C   0  0  1  0  0  3  0  0  0  0  0  0
  159.0630  214.4400  144.0980 O   0  0  0  0  0  1  0  0  0  0  0  0
  160.1470  212.9720  142.4830 C   0  0  1  0  0  3  0  0  0  0  0  0
  159.7860  214.1520  141.5970 C   0  0  1  0  0  3  0  0  0  0  0  0
  161.1710  214.0590  142.2140 C   0  0  0  0  0  2  0  0  0  0  0  0
  159.7920  213.6760  140.1470 C   0  0  0  0  0  2  0  0  0  0  0  0
  158.2240  209.0910  137.0190 C   0  0  0  0  0  2  0  0  0  0  0  0
  159.4390  208.3860  137.6070 C   0  0  0  0  0  2  0  0  0  0  0  0
  157.7480  210.1740  137.9660 C   0  0  0  0  0  2  0  0  0  0  0  0
  160.2610  209.2640  138.5670 C   0  0  2  0  0  3  0  0  0  0  0  0
  160.7340  211.7010  139.2840 C   0  0  2  0  0  3  0  0  0  0  0  0
  160.1350  210.7760  138.2390 C   0  0  2  0  0  3  0  0  0  0  0  0
  161.6500  211.0870  140.1180 F   0  0  0  0  0  0  0  0  0  0  0  0
  158.4240  211.9880  139.2850 C   0  0  0  0  0  2  0  0  0  0  0  0
  158.7470  211.2410  138.0740 N   0  0  2  0  0  0  0  0  0  0  0  0
  159.6330  212.2290  140.0670 N   0  0  0  0  0  0  0  0  0  0  0  0
  161.7220  208.7970  138.5840 C   0  0  0  0  0  3  0  0  0  0  0  0
  161.7960  207.4220  138.3560 O   0  0  0  0  0  1  0  0  0  0  0  0
  162.4800  209.4770  137.6270 O   0  0  0  0  0  1  0  0  0  0  0  0
  160.9410  212.1770  150.1800 C   0  0  0  0  0  2  0  0  0  0  0  0
  157.3800  214.3850  150.8550 C   0  0  0  0  0  0  0  0  0  0  0  0
  158.7230  212.9350  149.4000 C   0  0  0  0  0  2  0  0  0  0  0  0
  157.8020  214.1500  149.4400 C   0  0  0  0  0  2  0  0  0  0  0  0
  159.7960  213.0740  150.3900 N   0  0  0  0  0  0  0  0  0  0  0  0
  156.1990  214.4470  151.1520 O   0  0  0  0  0  0  0  0  0  0  0  0
  158.4370  214.4450  151.9080 C   0  0  0  0  0  2  0  0  0  0  0  0
  159.3380  213.2100  151.7860 C   0  0  1  0  0  3  0  0  0  0  0  0
  158.6230  211.9610  152.3070 C   0  0  0  0  0  2  0  0  0  0  0  0
  159.4790  212.7180  154.5120 C   0  0  0  0  0  1  0  0  0  0  0  0
  157.1630  212.7810  154.0150 O   0  0  0  0  0  1  0  0  0  0  0  0
  158.3290  212.0440  153.8020 C   0  0  1  0  0  3  0  0  0  0  0  0
  1 29  1  1  0  0  0
  1 54  1  0  0  0  0
  2  3  1  0  0  0  0
  2  8  1  0  0  0  0
  3  9  1  0  0  0  0
  4  1  1  0  0  0  0
  4  2  1  0  0  0  0
  4  8  1  0  0  0  0
  5  6  2  0  0  0  0
  6 19  1  0  0  0  0
  7  6  1  0  0  0  0
  8  5  1  0  0  0  0
  9 17  1  0  0  0  0
  9  7  1  0  0  0  0
 10 11  2  0  0  0  0
 10  3  1  0  0  0  0
 12 10  1  0  0  0  0
 13 12  1  0  0  0  0
 13 15  1  0  0  0  0
 14 13  1  0  0  0  0
 16 13  2  0  0  0  0
 17 18  1  0  0  0  0
 19 22  1  0  0  0  0
 21 20  1  0  0  0  0
 21 24  1  0  0  0  0
 22 21  1  0  0  0  0
 23 22  2  0  0  0  0
 25 24  1  0  0  0  0
 25 27  1  0  0  0  0
 26 27  1  0  0  0  0
 28 26  1  0  0  0  0
 28 27  1  0  0  0  0
 30 31  1  0  0  0  0
 31 29  1  0  0  0  0
 32 31  1  0  0  0  0
 33 34  1  0  0  0  0
 33 32  1  0  0  0  0
 34 30  1  0  0  0  0
 35 36  1  0  0  0  0
 35 34  1  0  0  0  0
 37 35  1  0  0  0  0
 38 39  1  0  0  0  0
 38 37  1  0  0  0  0
 39 37  1  0  0  0  0
 40 38  1  0  0  0  0
 41 42  1  0  0  0  0
 41 43  1  0  0  0  0
 42 44  1  0  0  0  0
 43 49  1  0  0  0  0
 44 51  1  0  0  0  0
 45 50  1  0  0  0  0
 45 47  1  0  0  0  0
 46 44  1  0  0  0  0
 46 45  1  0  0  0  0
 48 50  1  0  0  0  0
 49 46  1  0  0  0  0
 49 48  1  0  0  0  0
 50 40  1  0  0  0  0
 52 51  1  0  0  0  0
 53 51  1  0  0  0  0
 54 58  1  0  0  0  0
 55 59  2  0  0  0  0
 55 60  1  0  0  0  0
 56 57  1  0  0  0  0
 56 58  1  0  0  0  0
 57 55  1  0  0  0  0
 58 61  1  0  0  0  0
 61 60  1  0  0  0  0
 61 62  1  0  0  0  0
 62 65  1  0  0  0  0
 65 64  1  0  0  0  0
 65 63  1  0  0  0  0
M  END
>  <MODEL>
3

>  <REMARK>
 VINA RESULT:      -3.6      2.750      5.895
  Name = 
  24 active torsions:
  status: ('A' for Active; 'I' for Inactive)
    1  A    between atoms: C_2  and  C_38
    2  A    between atoms: C_3  and  N_20
    3  A    between atoms: C_3  and  C_54
    4  A    between atoms: P_4  and  O_17
    5  A    between atoms: N_10  and  C_18
    6  A    between atoms: C_11  and  C_62
    7  A    between atoms: C_12  and  C_41
    8  A    between atoms: O_17  and  C_41
    9  A    between atoms: C_18  and  C_34
   10  A    between atoms: C_19  and  C_29
   11  A    between atoms: C_22  and  C_34
   12  A    between atoms: C_23  and  C_29
   13  A    between atoms: C_23  and  N_40
   14  A    between atoms: C_24  and  C_26
   15  A    between atoms: C_25  and  C_54
   16  A    between atoms: C_26  and  N_61
   17  A    between atoms: O_28  and  C_57
   18  A    between atoms: C_35  and  C_62
   19  A    between atoms: N_40  and  C_49
   20  A    between atoms: C_49  and  C_52
   21  A    between atoms: C_52  and  C_64
   22  A    between atoms: C_54  and  C_64
   23  A    between atoms: C_58  and  C_60
   24  A    between atoms: C_60  and  C_63
                            x       y       z     vdW  Elec       q    Type
                         _______ _______ _______ _____ _____    ______ ____

>  <TORSDO>
F 24

$$$$
=
 OpenBabel11072414583D

 65 71  0  0  1  0  0  0  0  0999 V2000
  161.8570  206.0460  148.8510 C   0  0  2  0  0  3  0  0  0  0  0  0
  160.9770  207.6820  150.6640 C   0  0  2  0  0  3  0  0  0  0  0  0
  160.6950  208.3530  152.0210 C   0  0  2  0  0  3  0  0  0  0  0  0
  161.8930  206.5010  150.3350 C   0  0  2  0  0  3  0  0  0  0  0  0
  162.5750  208.9270  149.4250 C   0  0  0  0  0  3  0  0  0  0  0  0
  161.9650  210.1290  149.5230 C   0  0  0  0  0  0  0  0  0  0  0  0
  160.9870  210.5160  150.6310 C   0  0  0  0  0  2  0  0  0  0  0  0
  162.4810  207.8970  150.5090 C   0  0  1  0  0  3  0  0  0  0  0  0
  161.1650  209.8420  152.0140 C   0  0  1  0  0  3  0  0  0  0  0  0
  161.1440  207.5970  153.2540 C   0  0  0  0  0  0  0  0  0  0  0  0
  160.9810  206.3470  153.3040 O   0  0  0  0  0  0  0  0  0  0  0  0
  161.7950  208.2570  154.3010 O   0  0  0  0  0  0  0  0  0  0  0  0
  161.0690  208.4660  155.8470 P   0  0  0  0  0  0  0  0  0  0  0  0
  159.5630  207.6930  155.8760 O   0  0  0  0  0  0  0  0  0  0  0  0
  161.9640  207.8600  156.9000 O   0  0  0  0  0  1  0  0  0  0  0  0
  160.8630  210.1200  156.1530 O   0  0  0  0  0  1  0  0  0  0  0  0
  160.4210  210.5570  152.9580 O   0  0  0  0  0  0  0  0  0  0  0  0
  160.2700  211.8360  152.4210 C   0  0  0  0  0  1  0  0  0  0  0  0
  162.1430  211.1010  148.3930 C   0  0  0  0  0  2  0  0  0  0  0  0
  159.9100  214.1030  147.7750 O   0  0  0  0  0  1  0  0  0  0  0  0
  160.5670  212.9330  147.5690 N   0  0  0  0  0  0  0  0  0  0  0  0
  161.3980  212.3950  148.6100 C   0  0  0  0  0  0  0  0  0  0  0  0
  161.4640  212.9930  149.7220 O   0  0  0  0  0  0  0  0  0  0  0  0
  160.3490  212.2190  146.3160 C   0  0  0  0  0  2  0  0  0  0  0  0
  160.9990  212.9760  145.1740 C   0  0  0  0  0  2  0  0  0  0  0  0
  158.9810  212.2940  144.1180 O   0  0  0  0  0  0  0  0  0  0  0  0
  159.9590  213.3090  144.1200 C   0  0  2  0  0  3  0  0  0  0  0  0
  159.9370  212.2510  143.0850 C   0  0  0  0  0  2  0  0  0  0  0  0
  162.4120  207.1170  147.9080 C   0  0  0  0  0  2  0  0  0  0  0  0
  160.4210  206.7090  146.5150 C   0  0  0  0  0  1  0  0  0  0  0  0
  161.9180  206.9270  146.4820 C   0  0  2  0  0  3  0  0  0  0  0  0
  162.5760  205.7080  145.8590 C   0  0  0  0  0  2  0  0  0  0  0  0
  161.7710  205.1820  144.7650 N   0  0  0  0  0  2  0  0  0  0  0  0
  162.4410  205.4700  143.4930 C   0  0  0  0  0  2  0  0  0  0  0  0
  161.4890  206.0330  142.4290 C   0  0  1  0  0  3  0  0  0  0  0  0
  160.9920  207.2790  142.8200 O   0  0  0  0  0  1  0  0  0  0  0  0
  162.2230  206.0880  141.0860 C   0  0  1  0  0  3  0  0  0  0  0  0
  161.8610  207.3820  140.3760 C   0  0  1  0  0  3  0  0  0  0  0  0
  163.2400  207.2110  140.9920 C   0  0  0  0  0  2  0  0  0  0  0  0
  161.8890  207.1220  138.8730 C   0  0  0  0  0  2  0  0  0  0  0  0
  157.9140  211.0120  137.3490 C   0  0  0  0  0  2  0  0  0  0  0  0
  159.0010  212.0630  137.5290 C   0  0  0  0  0  2  0  0  0  0  0  0
  158.5400  209.6740  137.0110 C   0  0  0  0  0  2  0  0  0  0  0  0
  160.3540  211.4830  137.9810 C   0  0  2  0  0  3  0  0  0  0  0  0
  161.4910  209.4320  139.0630 C   0  0  2  0  0  3  0  0  0  0  0  0
  160.1910  210.1680  138.7890 C   0  0  2  0  0  3  0  0  0  0  0  0
  162.6200  210.2220  138.9450 F   0  0  0  0  0  0  0  0  0  0  0  0
  160.2110  208.1450  137.6080 C   0  0  0  0  0  2  0  0  0  0  0  0
  159.3220  209.1700  138.1440 N   0  0  2  0  0  0  0  0  0  0  0  0
  161.5640  208.3290  138.1240 N   0  0  0  0  0  0  0  0  0  0  0  0
  161.1440  212.5440  138.7570 C   0  0  0  0  0  3  0  0  0  0  0  0
  161.7720  213.4260  137.8750 O   0  0  0  0  0  1  0  0  0  0  0  0
  160.3150  213.2540  139.6280 O   0  0  0  0  0  1  0  0  0  0  0  0
  160.5330  205.3410  148.4450 C   0  0  0  0  0  2  0  0  0  0  0  0
  160.9500  201.1270  148.1630 C   0  0  0  0  0  0  0  0  0  0  0  0
  161.5960  203.3680  147.4030 C   0  0  0  0  0  2  0  0  0  0  0  0
  161.2770  201.9460  146.9560 C   0  0  0  0  0  2  0  0  0  0  0  0
  160.5340  203.8800  148.2750 N   0  0  0  0  0  0  0  0  0  0  0  0
  161.5510  200.0930  148.3970 O   0  0  0  0  0  0  0  0  0  0  0  0
  159.9360  201.6550  149.1240 C   0  0  0  0  0  2  0  0  0  0  0  0
  160.3060  203.0950  149.5030 C   0  0  1  0  0  3  0  0  0  0  0  0
  161.5010  203.1160  150.4590 C   0  0  0  0  0  2  0  0  0  0  0  0
  162.5920  201.6610  152.1500 C   0  0  0  0  0  1  0  0  0  0  0  0
  160.7180  202.9970  152.7160 O   0  0  0  0  0  1  0  0  0  0  0  0
  161.2760  202.2370  151.6850 C   0  0  1  0  0  3  0  0  0  0  0  0
  1 29  1  6  0  0  0
  1  4  1  0  0  0  0
  2  3  1  0  0  0  0
  3 10  1  0  0  0  0
  4  8  1  0  0  0  0
  4  2  1  0  0  0  0
  5  6  2  0  0  0  0
  5  8  1  0  0  0  0
  6  7  1  0  0  0  0
  7  9  1  0  0  0  0
  8  2  1  0  0  0  0
  9  3  1  0  0  0  0
  9 17  1  0  0  0  0
 10 11  2  0  0  0  0
 10 12  1  0  0  0  0
 12 13  1  0  0  0  0
 13 14  2  0  0  0  0
 13 16  1  0  0  0  0
 13 15  1  0  0  0  0
 18 17  1  0  0  0  0
 19 22  1  0  0  0  0
 19  6  1  0  0  0  0
 21 20  1  0  0  0  0
 21 22  1  0  0  0  0
 22 23  2  0  0  0  0
 24 21  1  0  0  0  0
 25 24  1  0  0  0  0
 26 27  1  0  0  0  0
 27 25  1  0  0  0  0
 28 26  1  0  0  0  0
 28 27  1  0  0  0  0
 31 30  1  0  0  0  0
 31 29  1  0  0  0  0
 32 31  1  0  0  0  0
 33 32  1  0  0  0  0
 34 33  1  0  0  0  0
 35 36  1  0  0  0  0
 35 34  1  0  0  0  0
 37 35  1  0  0  0  0
 38 39  1  0  0  0  0
 38 37  1  0  0  0  0
 39 37  1  0  0  0  0
 40 38  1  0  0  0  0
 41 42  1  0  0  0  0
 42 44  1  0  0  0  0
 43 41  1  0  0  0  0
 43 49  1  0  0  0  0
 44 51  1  0  0  0  0
 44 46  1  0  0  0  0
 46 45  1  0  0  0  0
 47 45  1  0  0  0  0
 48 50  1  0  0  0  0
 48 49  1  0  0  0  0
 49 46  1  0  0  0  0
 50 40  1  0  0  0  0
 50 45  1  0  0  0  0
 51 53  1  0  0  0  0
 52 51  1  0  0  0  0
 54  1  1  0  0  0  0
 55 59  2  0  0  0  0
 55 60  1  0  0  0  0
 56 58  1  0  0  0  0
 57 56  1  0  0  0  0
 57 55  1  0  0  0  0
 58 54  1  0  0  0  0
 58 61  1  0  0  0  0
 60 61  1  0  0  0  0
 61 62  1  0  0  0  0
 62 65  1  0  0  0  0
 65 63  1  0  0  0  0
 65 64  1  0  0  0  0
M  END
>  <MODEL>
4

>  <REMARK>
 VINA RESULT:      -2.9      2.518      7.609
  Name = 
  24 active torsions:
  status: ('A' for Active; 'I' for Inactive)
    1  A    between atoms: C_2  and  C_38
    2  A    between atoms: C_3  and  N_20
    3  A    between atoms: C_3  and  C_54
    4  A    between atoms: P_4  and  O_17
    5  A    between atoms: N_10  and  C_18
    6  A    between atoms: C_11  and  C_62
    7  A    between atoms: C_12  and  C_41
    8  A    between atoms: O_17  and  C_41
    9  A    between atoms: C_18  and  C_34
   10  A    between atoms: C_19  and  C_29
   11  A    between atoms: C_22  and  C_34
   12  A    between atoms: C_23  and  C_29
   13  A    between atoms: C_23  and  N_40
   14  A    between atoms: C_24  and  C_26
   15  A    between atoms: C_25  and  C_54
   16  A    between atoms: C_26  and  N_61
   17  A    between atoms: O_28  and  C_57
   18  A    between atoms: C_35  and  C_62
   19  A    between atoms: N_40  and  C_49
   20  A    between atoms: C_49  and  C_52
   21  A    between atoms: C_52  and  C_64
   22  A    between atoms: C_54  and  C_64
   23  A    between atoms: C_58  and  C_60
   24  A    between atoms: C_60  and  C_63
                            x       y       z     vdW  Elec       q    Type
                         _______ _______ _______ _____ _____    ______ ____

>  <TORSDO>
F 24

$$$$
