=
 OpenBabel11072413443D

 44 50  0  0  1  0  0  0  0  0999 V2000
  160.3860  209.7450  151.9420 C   0  0  0  0  0  2  0  0  0  0  0  0
  160.9480  210.8820  152.6570 N   0  0  0  0  0  2  0  0  0  0  0  0
  160.9170  210.5620  154.0790 C   0  0  1  0  0  3  0  0  0  0  0  0
  159.8610  210.1700  156.9660 C   0  0  1  0  0  3  0  0  0  0  0  0
  162.2010  210.3660  156.0020 C   0  0  0  0  0  2  0  0  0  0  0  0
  160.2010  208.7140  157.2470 C   0  0  0  0  0  1  0  0  0  0  0  0
  161.0730  211.0980  156.7770 C   0  0  1  0  0  3  0  0  0  0  0  0
  160.5880  212.1710  155.9040 N   0  0  1  0  0  0  0  0  0  0  0  0
  162.2180  210.7080  154.6240 O   0  0  0  0  0  0  0  0  0  0  0  0
  159.0670  210.3280  155.6820 C   0  0  0  0  0  2  0  0  0  0  0  0
  159.8510  211.3830  154.8910 C   0  0  2  0  0  0  0  0  0  0  0  0
  156.7670  213.2180  153.5460 C   0  0  0  0  0  0  0  0  0  0  0  0
  158.9560  212.2440  154.0020 C   0  0  0  0  0  0  0  0  0  0  0  0
  158.6550  213.7560  152.1190 C   0  0  0  0  0  3  0  0  0  0  0  0
  157.5980  212.4050  154.3220 C   0  0  0  0  0  3  0  0  0  0  0  0
  157.3040  213.8950  152.4390 C   0  0  0  0  0  3  0  0  0  0  0  0
  159.4780  212.9400  152.8980 C   0  0  0  0  0  3  0  0  0  0  0  0
  154.9890  213.9060  155.0030 C   0  0  0  0  0  2  0  0  0  0  0  0
  155.3860  213.3430  153.9080 N   0  0  0  0  0  0  0  0  0  0  0  0
  159.7130  213.0640  156.6830 C   0  0  0  0  0  3  0  0  0  0  0  0
  159.6730  214.4350  156.0310 C   0  0  0  0  0  2  0  0  0  0  0  0
  160.5210  214.2160  157.2610 C   0  0  0  0  0  2  0  0  0  0  0  0
  160.9690  208.4460  152.4730 C   0  0  0  0  0  2  0  0  0  0  0  0
  162.2760  208.1270  151.7660 C   0  0  0  0  0  2  0  0  0  0  0  0
  162.6280  206.6650  151.9550 C   0  0  0  0  0  2  0  0  0  0  0  0
  161.4620  205.9010  152.0530 O   0  0  0  0  0  0  0  0  0  0  0  0
  161.3310  203.5650  146.3620 C   0  0  0  0  0  0  0  0  0  0  0  0
  161.6520  205.6540  145.3040 C   0  0  1  0  0  3  0  0  0  0  0  0
  162.6160  203.6610  144.4040 F   0  0  0  0  0  0  0  0  0  0  0  0
  161.6210  204.8770  151.1110 C   0  0  1  0  0  3  0  0  0  0  0  0
  160.8000  203.6300  151.4870 C   0  0  2  0  0  0  0  0  0  0  0  0
  159.3060  203.9180  151.5100 C   0  0  0  0  0  1  0  0  0  0  0  0
  160.0900  206.2270  149.5900 C   0  0  0  0  0  1  0  0  0  0  0  0
  161.3170  204.2670  148.6750 C   0  0  0  0  0  0  0  0  0  0  0  0
  161.1820  203.2040  152.7590 O   0  0  0  0  0  1  0  0  0  0  0  0
  161.6140  205.7790  146.7250 O   0  0  0  0  0  0  0  0  0  0  0  0
  161.4230  204.5440  147.3080 C   0  0  0  0  0  0  0  0  0  0  0  0
  161.1250  202.2330  146.7130 C   0  0  0  0  0  3  0  0  0  0  0  0
  161.0200  201.9140  148.0750 C   0  0  0  0  0  3  0  0  0  0  0  0
  161.0900  202.4960  150.5020 C   0  0  0  0  0  2  0  0  0  0  0  0
  161.4720  204.1500  145.0040 C   0  0  1  0  0  3  0  0  0  0  0  0
  161.1040  202.9180  149.0590 C   0  0  0  0  0  0  0  0  0  0  0  0
  161.3580  205.3860  149.6800 C   0  0  2  0  0  3  0  0  0  0  0  0
  160.5950  206.3700  144.7450 O   0  0  0  0  0  1  0  0  0  0  0  0
  1 23  1  0  0  0  0
  1  2  1  0  0  0  0
  3  2  1  6  0  0  0
  3  9  1  0  0  0  0
  3 11  1  0  0  0  0
  4  6  1  6  0  0  0
  7  5  1  6  0  0  0
  7  4  1  0  0  0  0
  8 20  1  1  0  0  0
  8  7  1  0  0  0  0
  9  5  1  0  0  0  0
 10  4  1  0  0  0  0
 11 13  1  6  0  0  0
 11 10  1  0  0  0  0
 11  8  1  0  0  0  0
 12 19  1  0  0  0  0
 12 15  1  0  0  0  0
 13 15  2  0  0  0  0
 14 16  1  0  0  0  0
 14 17  2  0  0  0  0
 16 12  2  0  0  0  0
 17 13  1  0  0  0  0
 19 18  2  0  0  0  0
 20 22  1  0  0  0  0
 21 20  1  0  0  0  0
 21 22  1  0  0  0  0
 24 25  1  0  0  0  0
 24 23  1  0  0  0  0
 25 26  1  0  0  0  0
 27 38  2  0  0  0  0
 27 37  1  0  0  0  0
 28 44  1  6  0  0  0
 28 36  1  0  0  0  0
 30 31  1  0  0  0  0
 30 26  1  1  0  0  0
 31 32  1  6  0  0  0
 31 35  1  0  0  0  0
 34 42  1  0  0  0  0
 34 43  1  0  0  0  0
 36 37  1  0  0  0  0
 37 34  2  0  0  0  0
 38 39  1  0  0  0  0
 39 42  2  0  0  0  0
 40 31  1  0  0  0  0
 41 29  1  1  0  0  0
 41 28  1  0  0  0  0
 41 27  1  0  0  0  0
 42 40  1  0  0  0  0
 43 33  1  1  0  0  0
 43 30  1  0  0  0  0
M  END
>  <MODEL>
1

>  <REMARK>
 VINA RESULT:      -6.9      0.000      0.000
  Name = 
  10 active torsions:
  status: ('A' for Active; 'I' for Inactive)
    1  A    between atoms: C_1  and  N_18
    2  A    between atoms: C_2  and  N_22
    3  A    between atoms: C_2  and  C_30
    4  A    between atoms: C_3  and  N_21
    5  A    between atoms: C_4  and  O_19
    6  A    between atoms: C_4  and  C_37
    7  A    between atoms: C_5  and  N_22
    8  A    between atoms: C_13  and  O_19
    9  A    between atoms: C_16  and  C_43
   10  A    between atoms: C_30  and  C_37
                            x       y       z     vdW  Elec       q    Type
                         _______ _______ _______ _____ _____    ______ ____

>  <TORSDO>
F 10

$$$$
=
 OpenBabel11072413443D

 44 50  0  0  1  0  0  0  0  0999 V2000
  160.3850  209.7470  151.9430 C   0  0  0  0  0  2  0  0  0  0  0  0
  160.9520  210.8830  152.6540 N   0  0  0  0  0  2  0  0  0  0  0  0
  160.9320  210.5620  154.0760 C   0  0  1  0  0  3  0  0  0  0  0  0
  159.8980  210.1670  156.9700 C   0  0  1  0  0  3  0  0  0  0  0  0
  162.2300  210.3680  155.9890 C   0  0  0  0  0  2  0  0  0  0  0  0
  160.2420  208.7110  157.2480 C   0  0  0  0  0  1  0  0  0  0  0  0
  161.1060  211.0970  156.7730 C   0  0  1  0  0  3  0  0  0  0  0  0
  160.6130  212.1700  155.9040 N   0  0  1  0  0  0  0  0  0  0  0  0
  162.2370  210.7100  154.6120 O   0  0  0  0  0  0  0  0  0  0  0  0
  159.0940  210.3240  155.6920 C   0  0  0  0  0  2  0  0  0  0  0  0
  159.8710  211.3800  154.8960 C   0  0  2  0  0  0  0  0  0  0  0  0
  158.6850  213.6330  152.0300 C   0  0  0  0  0  0  0  0  0  0  0  0
  158.9680  212.2410  154.0130 C   0  0  0  0  0  0  0  0  0  0  0  0
  156.7740  213.1210  153.4370 C   0  0  0  0  0  3  0  0  0  0  0  0
  159.4980  212.8720  152.8750 C   0  0  0  0  0  3  0  0  0  0  0  0
  157.3160  213.7550  152.3180 C   0  0  0  0  0  3  0  0  0  0  0  0
  157.5940  212.3640  154.2770 C   0  0  0  0  0  3  0  0  0  0  0  0
  159.7700  213.6050  149.8910 C   0  0  0  0  0  2  0  0  0  0  0  0
  159.2730  214.2650  150.8860 N   0  0  0  0  0  0  0  0  0  0  0  0
  159.7420  213.0610  156.6900 C   0  0  0  0  0  3  0  0  0  0  0  0
  159.6940  214.4310  156.0380 C   0  0  0  0  0  2  0  0  0  0  0  0
  160.5520  214.2150  157.2610 C   0  0  0  0  0  2  0  0  0  0  0  0
  160.9720  208.4470  152.4680 C   0  0  0  0  0  2  0  0  0  0  0  0
  162.2720  208.1270  151.7490 C   0  0  0  0  0  2  0  0  0  0  0  0
  162.6200  206.6620  151.9270 C   0  0  0  0  0  2  0  0  0  0  0  0
  161.4520  205.9020  152.0250 O   0  0  0  0  0  0  0  0  0  0  0  0
  161.2730  203.6230  146.3120 C   0  0  0  0  0  0  0  0  0  0  0  0
  161.5920  205.7210  145.2720 C   0  0  1  0  0  3  0  0  0  0  0  0
  162.5440  203.7350  144.3460 F   0  0  0  0  0  0  0  0  0  0  0  0
  161.6020  204.8870  151.0720 C   0  0  1  0  0  3  0  0  0  0  0  0
  160.7790  203.6390  151.4410 C   0  0  2  0  0  0  0  0  0  0  0  0
  159.2860  203.9300  151.4780 C   0  0  0  0  0  1  0  0  0  0  0  0
  160.0630  206.2560  149.5750 C   0  0  0  0  0  1  0  0  0  0  0  0
  161.2780  204.3020  148.6320 C   0  0  0  0  0  0  0  0  0  0  0  0
  161.1700  203.1980  152.7060 O   0  0  0  0  0  1  0  0  0  0  0  0
  161.5650  205.8320  146.6950 O   0  0  0  0  0  0  0  0  0  0  0  0
  161.3750  204.5930  147.2670 C   0  0  0  0  0  0  0  0  0  0  0  0
  161.0660  202.2880  146.6510 C   0  0  0  0  0  3  0  0  0  0  0  0
  160.9700  201.9560  148.0110 C   0  0  0  0  0  3  0  0  0  0  0  0
  161.0590  202.5140  150.4430 C   0  0  0  0  0  2  0  0  0  0  0  0
  161.4060  204.2210  144.9590 C   0  0  1  0  0  3  0  0  0  0  0  0
  161.0640  202.9500  149.0050 C   0  0  0  0  0  0  0  0  0  0  0  0
  161.3290  205.4100  149.6480 C   0  0  2  0  0  3  0  0  0  0  0  0
  160.5330  206.4460  144.7290 O   0  0  0  0  0  1  0  0  0  0  0  0
  1 23  1  0  0  0  0
  1  2  1  0  0  0  0
  3  2  1  6  0  0  0
  3  9  1  0  0  0  0
  3 11  1  0  0  0  0
  4  6  1  6  0  0  0
  7  5  1  6  0  0  0
  7  4  1  0  0  0  0
  8 20  1  1  0  0  0
  8  7  1  0  0  0  0
  9  5  1  0  0  0  0
 10  4  1  0  0  0  0
 11 13  1  6  0  0  0
 11 10  1  0  0  0  0
 11  8  1  0  0  0  0
 12 16  2  0  0  0  0
 12 15  1  0  0  0  0
 13 17  1  0  0  0  0
 14 17  2  0  0  0  0
 15 13  2  0  0  0  0
 16 14  1  0  0  0  0
 18 19  2  0  0  0  0
 19 12  1  0  0  0  0
 20 22  1  0  0  0  0
 21 20  1  0  0  0  0
 21 22  1  0  0  0  0
 24 25  1  0  0  0  0
 24 23  1  0  0  0  0
 25 26  1  0  0  0  0
 27 38  2  0  0  0  0
 27 37  1  0  0  0  0
 28 44  1  6  0  0  0
 28 36  1  0  0  0  0
 30 31  1  0  0  0  0
 30 26  1  1  0  0  0
 31 32  1  1  0  0  0
 31 35  1  0  0  0  0
 34 42  1  0  0  0  0
 34 43  1  0  0  0  0
 36 37  1  0  0  0  0
 37 34  2  0  0  0  0
 38 39  1  0  0  0  0
 39 42  2  0  0  0  0
 40 31  1  0  0  0  0
 41 29  1  1  0  0  0
 41 28  1  0  0  0  0
 41 27  1  0  0  0  0
 42 40  1  0  0  0  0
 43 33  1  1  0  0  0
 43 30  1  0  0  0  0
M  END
>  <MODEL>
2

>  <REMARK>
 VINA RESULT:      -6.9      0.847      1.491
  Name = 
  10 active torsions:
  status: ('A' for Active; 'I' for Inactive)
    1  A    between atoms: C_1  and  N_18
    2  A    between atoms: C_2  and  N_22
    3  A    between atoms: C_2  and  C_30
    4  A    between atoms: C_3  and  N_21
    5  A    between atoms: C_4  and  O_19
    6  A    between atoms: C_4  and  C_37
    7  A    between atoms: C_5  and  N_22
    8  A    between atoms: C_13  and  O_19
    9  A    between atoms: C_16  and  C_43
   10  A    between atoms: C_30  and  C_37
                            x       y       z     vdW  Elec       q    Type
                         _______ _______ _______ _____ _____    ______ ____

>  <TORSDO>
F 10

$$$$
=
 OpenBabel11072413443D

 44 50  0  0  1  0  0  0  0  0999 V2000
  161.4580  209.7090  151.5350 C   0  0  0  0  0  2  0  0  0  0  0  0
  160.5560  209.5340  152.6640 N   0  0  0  0  0  2  0  0  0  0  0  0
  159.8270  210.7840  152.8380 C   0  0  1  0  0  3  0  0  0  0  0  0
  158.8210  213.4320  154.0950 C   0  0  1  0  0  3  0  0  0  0  0  0
  157.9270  211.9660  152.2250 C   0  0  0  0  0  2  0  0  0  0  0  0
  159.1410  214.4530  153.0130 C   0  0  0  0  0  1  0  0  0  0  0  0
  157.7610  212.3850  153.7100 C   0  0  1  0  0  3  0  0  0  0  0  0
  158.0900  211.2080  154.5200 N   0  0  1  0  0  0  0  0  0  0  0  0
  158.6260  210.7390  152.0850 O   0  0  0  0  0  0  0  0  0  0  0  0
  160.0390  212.6080  154.4730 C   0  0  0  0  0  2  0  0  0  0  0  0
  159.5580  211.1580  154.3400 C   0  0  2  0  0  0  0  0  0  0  0  0
  162.1440  209.7100  156.7700 C   0  0  0  0  0  0  0  0  0  0  0  0
  160.2460  210.2120  155.3230 C   0  0  0  0  0  0  0  0  0  0  0  0
  160.2350  208.2110  156.7090 C   0  0  0  0  0  3  0  0  0  0  0  0
  161.5110  210.5390  155.8400 C   0  0  0  0  0  3  0  0  0  0  0  0
  161.4990  208.5400  157.2020 C   0  0  0  0  0  3  0  0  0  0  0  0
  159.6100  209.0450  155.7780 C   0  0  0  0  0  3  0  0  0  0  0  0
  163.9900  211.2240  157.0080 C   0  0  0  0  0  2  0  0  0  0  0  0
  163.4390  210.0810  157.2610 N   0  0  0  0  0  0  0  0  0  0  0  0
  157.6910  211.4600  155.9160 C   0  0  0  0  0  3  0  0  0  0  0  0
  156.2450  211.0440  156.1160 C   0  0  0  0  0  2  0  0  0  0  0  0
  156.5880  212.5060  155.9640 C   0  0  0  0  0  2  0  0  0  0  0  0
  162.1380  208.3930  151.1900 C   0  0  0  0  0  2  0  0  0  0  0  0
  162.0400  207.4280  152.3600 C   0  0  0  0  0  2  0  0  0  0  0  0
  162.5450  206.0590  151.9500 C   0  0  0  0  0  2  0  0  0  0  0  0
  161.5280  205.1120  152.0910 O   0  0  0  0  0  0  0  0  0  0  0  0
  161.2210  203.6340  146.1260 C   0  0  0  0  0  0  0  0  0  0  0  0
  161.3970  205.8700  145.3780 C   0  0  1  0  0  3  0  0  0  0  0  0
  162.4030  204.0840  144.1510 F   0  0  0  0  0  0  0  0  0  0  0  0
  161.6860  204.2470  151.0010 C   0  0  1  0  0  3  0  0  0  0  0  0
  160.9400  202.9180  151.2210 C   0  0  2  0  0  0  0  0  0  0  0  0
  159.4370  203.1220  151.3490 C   0  0  0  0  0  1  0  0  0  0  0  0
  160.0230  205.7250  149.7640 C   0  0  0  0  0  1  0  0  0  0  0  0
  161.2890  203.9870  148.5160 C   0  0  0  0  0  0  0  0  0  0  0  0
  161.4030  202.3290  152.3970 O   0  0  0  0  0  1  0  0  0  0  0  0
  161.4230  205.7830  146.8030 O   0  0  0  0  0  0  0  0  0  0  0  0
  161.3160  204.4680  147.2020 C   0  0  0  0  0  0  0  0  0  0  0  0
  161.0920  202.2570  146.2820 C   0  0  0  0  0  3  0  0  0  0  0  0
  161.0680  201.7360  147.5840 C   0  0  0  0  0  3  0  0  0  0  0  0
  161.2310  201.9580  150.0660 C   0  0  0  0  0  2  0  0  0  0  0  0
  161.2690  204.4200  144.8650 C   0  0  1  0  0  3  0  0  0  0  0  0
  161.1560  202.5870  148.7030 C   0  0  0  0  0  0  0  0  0  0  0  0
  161.3300  204.9460  149.6740 C   0  0  2  0  0  3  0  0  0  0  0  0
  160.2820  206.6060  144.9780 O   0  0  0  0  0  1  0  0  0  0  0  0
  1  2  1  0  0  0  0
  3  2  1  1  0  0  0
  3 11  1  0  0  0  0
  4  6  1  6  0  0  0
  4 10  1  0  0  0  0
  7  5  1  6  0  0  0
  7  4  1  0  0  0  0
  7  8  1  0  0  0  0
  8 20  1  1  0  0  0
  9  5  1  0  0  0  0
  9  3  1  0  0  0  0
 11 10  1  0  0  0  0
 11  8  1  0  0  0  0
 11 13  1  1  0  0  0
 12 16  1  0  0  0  0
 12 19  1  0  0  0  0
 13 17  2  0  0  0  0
 13 15  1  0  0  0  0
 14 16  2  0  0  0  0
 15 12  2  0  0  0  0
 17 14  1  0  0  0  0
 18 19  2  0  0  0  0
 20 22  1  0  0  0  0
 20 21  1  0  0  0  0
 22 21  1  0  0  0  0
 23  1  1  0  0  0  0
 23 24  1  0  0  0  0
 25 26  1  0  0  0  0
 25 24  1  0  0  0  0
 27 38  2  0  0  0  0
 27 37  1  0  0  0  0
 28 44  1  1  0  0  0
 28 36  1  0  0  0  0
 30 31  1  0  0  0  0
 30 26  1  1  0  0  0
 31 32  1  1  0  0  0
 31 35  1  0  0  0  0
 34 42  1  0  0  0  0
 34 43  1  0  0  0  0
 36 37  1  0  0  0  0
 37 34  2  0  0  0  0
 38 39  1  0  0  0  0
 39 42  2  0  0  0  0
 40 31  1  0  0  0  0
 41 29  1  6  0  0  0
 41 28  1  0  0  0  0
 41 27  1  0  0  0  0
 42 40  1  0  0  0  0
 43 33  1  1  0  0  0
 43 30  1  0  0  0  0
M  END
>  <MODEL>
3

>  <REMARK>
 VINA RESULT:      -6.0      1.508      3.809
  Name = 
  10 active torsions:
  status: ('A' for Active; 'I' for Inactive)
    1  A    between atoms: C_1  and  N_18
    2  A    between atoms: C_2  and  N_22
    3  A    between atoms: C_2  and  C_30
    4  A    between atoms: C_3  and  N_21
    5  A    between atoms: C_4  and  O_19
    6  A    between atoms: C_4  and  C_37
    7  A    between atoms: C_5  and  N_22
    8  A    between atoms: C_13  and  O_19
    9  A    between atoms: C_16  and  C_43
   10  A    between atoms: C_30  and  C_37
                            x       y       z     vdW  Elec       q    Type
                         _______ _______ _______ _____ _____    ______ ____

>  <TORSDO>
F 10

$$$$
=
 OpenBabel11072413443D

 44 50  0  0  1  0  0  0  0  0999 V2000
  162.0120  209.7360  150.6190 C   0  0  0  0  0  2  0  0  0  0  0  0
  161.5550  211.0700  150.9820 N   0  0  0  0  0  2  0  0  0  0  0  0
  161.5570  211.8770  149.7680 C   0  0  1  0  0  3  0  0  0  0  0  0
  161.2010  214.2950  147.8630 C   0  0  1  0  0  3  0  0  0  0  0  0
  161.4770  211.8060  147.4500 C   0  0  0  0  0  2  0  0  0  0  0  0
  162.5910  214.4520  147.2660 C   0  0  0  0  0  1  0  0  0  0  0  0
  160.4750  212.9910  147.4920 C   0  0  1  0  0  3  0  0  0  0  0  0
  159.5670  212.7370  148.6150 N   0  0  1  0  0  0  0  0  0  0  0  0
  161.4430  211.0290  148.6370 O   0  0  0  0  0  0  0  0  0  0  0  0
  161.2350  214.2840  149.3810 C   0  0  0  0  0  2  0  0  0  0  0  0
  160.4690  213.0090  149.7570 C   0  0  2  0  0  0  0  0  0  0  0  0
  159.0590  212.1540  153.2180 C   0  0  0  0  0  0  0  0  0  0  0  0
  159.7240  213.1350  151.0860 C   0  0  0  0  0  0  0  0  0  0  0  0
  158.4720  214.4530  152.7040 C   0  0  0  0  0  3  0  0  0  0  0  0
  159.7010  212.0520  151.9800 C   0  0  0  0  0  3  0  0  0  0  0  0
  158.4430  213.3640  153.5760 C   0  0  0  0  0  3  0  0  0  0  0  0
  159.1140  214.3410  151.4680 C   0  0  0  0  0  3  0  0  0  0  0  0
  160.1200  210.3470  154.3860 C   0  0  0  0  0  2  0  0  0  0  0  0
  159.0540  211.0180  154.0920 N   0  0  0  0  0  0  0  0  0  0  0  0
  158.4370  213.6780  148.5390 C   0  0  0  0  0  3  0  0  0  0  0  0
  157.1750  213.0000  149.0410 C   0  0  0  0  0  2  0  0  0  0  0  0
  157.3940  213.1660  147.5570 C   0  0  0  0  0  2  0  0  0  0  0  0
  162.5680  209.0170  151.8380 C   0  0  0  0  0  2  0  0  0  0  0  0
  161.6190  207.9150  152.2780 C   0  0  0  0  0  2  0  0  0  0  0  0
  162.2410  206.5570  152.0180 C   0  0  0  0  0  2  0  0  0  0  0  0
  161.2960  205.5500  152.2310 O   0  0  0  0  0  0  0  0  0  0  0  0
  161.3370  203.6730  146.3710 C   0  0  0  0  0  0  0  0  0  0  0  0
  161.5180  205.8570  145.4850 C   0  0  1  0  0  3  0  0  0  0  0  0
  162.6180  204.0120  144.4370 F   0  0  0  0  0  0  0  0  0  0  0  0
  161.5260  204.6180  151.2120 C   0  0  1  0  0  3  0  0  0  0  0  0
  160.7910  203.2920  151.4800 C   0  0  2  0  0  0  0  0  0  0  0  0
  159.2800  203.4750  151.5150 C   0  0  0  0  0  1  0  0  0  0  0  0
  159.9100  205.9780  149.7900 C   0  0  0  0  0  1  0  0  0  0  0  0
  161.2700  204.1850  148.7320 C   0  0  0  0  0  0  0  0  0  0  0  0
  161.1980  202.7920  152.7170 O   0  0  0  0  0  1  0  0  0  0  0  0
  161.4680  205.8650  146.9110 O   0  0  0  0  0  0  0  0  0  0  0  0
  161.3600  204.5780  147.3920 C   0  0  0  0  0  0  0  0  0  0  0  0
  161.2220  202.3060  146.6130 C   0  0  0  0  0  3  0  0  0  0  0  0
  161.1360  201.8730  147.9440 C   0  0  0  0  0  3  0  0  0  0  0  0
  161.1600  202.2630  150.4110 C   0  0  0  0  0  2  0  0  0  0  0  0
  161.4410  204.3730  145.0650 C   0  0  1  0  0  3  0  0  0  0  0  0
  161.1490  202.7990  149.0060 C   0  0  0  0  0  0  0  0  0  0  0  0
  161.2320  205.2200  149.8230 C   0  0  2  0  0  3  0  0  0  0  0  0
  160.4160  206.5430  144.9770 O   0  0  0  0  0  1  0  0  0  0  0  0
  1  2  1  0  0  0  0
  1 23  1  0  0  0  0
  3  2  1  1  0  0  0
  4  6  1  6  0  0  0
  4 10  1  0  0  0  0
  5  9  1  0  0  0  0
  7  5  1  1  0  0  0
  7  4  1  0  0  0  0
  7  8  1  0  0  0  0
  8 20  1  6  0  0  0
  8 11  1  0  0  0  0
  9  3  1  0  0  0  0
 10 11  1  0  0  0  0
 11  3  1  0  0  0  0
 11 13  1  1  0  0  0
 12 16  1  0  0  0  0
 12 19  1  0  0  0  0
 13 17  2  0  0  0  0
 13 15  1  0  0  0  0
 14 16  2  0  0  0  0
 15 12  2  0  0  0  0
 17 14  1  0  0  0  0
 19 18  2  0  0  0  0
 20 21  1  0  0  0  0
 22 20  1  0  0  0  0
 22 21  1  0  0  0  0
 23 24  1  0  0  0  0
 25 26  1  0  0  0  0
 25 24  1  0  0  0  0
 27 38  2  0  0  0  0
 27 37  1  0  0  0  0
 28 44  1  6  0  0  0
 28 36  1  0  0  0  0
 30 31  1  0  0  0  0
 30 26  1  1  0  0  0
 31 32  1  1  0  0  0
 31 35  1  0  0  0  0
 34 42  1  0  0  0  0
 34 43  1  0  0  0  0
 36 37  1  0  0  0  0
 37 34  2  0  0  0  0
 38 39  1  0  0  0  0
 39 42  2  0  0  0  0
 40 31  1  0  0  0  0
 41 29  1  1  0  0  0
 41 28  1  0  0  0  0
 41 27  1  0  0  0  0
 42 40  1  0  0  0  0
 43 33  1  1  0  0  0
 43 30  1  0  0  0  0
M  END
>  <MODEL>
4

>  <REMARK>
 VINA RESULT:      -5.9      2.505      4.631
  Name = 
  10 active torsions:
  status: ('A' for Active; 'I' for Inactive)
    1  A    between atoms: C_1  and  N_18
    2  A    between atoms: C_2  and  N_22
    3  A    between atoms: C_2  and  C_30
    4  A    between atoms: C_3  and  N_21
    5  A    between atoms: C_4  and  O_19
    6  A    between atoms: C_4  and  C_37
    7  A    between atoms: C_5  and  N_22
    8  A    between atoms: C_13  and  O_19
    9  A    between atoms: C_16  and  C_43
   10  A    between atoms: C_30  and  C_37
                            x       y       z     vdW  Elec       q    Type
                         _______ _______ _______ _____ _____    ______ ____

>  <TORSDO>
F 10

$$$$
=
 OpenBabel11072413443D

 44 50  0  0  1  0  0  0  0  0999 V2000
  161.1850  208.1880  151.0930 C   0  0  0  0  0  2  0  0  0  0  0  0
  160.3240  208.9680  151.9700 N   0  0  0  0  0  2  0  0  0  0  0  0
  160.4770  208.4340  153.3190 C   0  0  1  0  0  3  0  0  0  0  0  0
  160.1670  208.0970  156.3830 C   0  0  1  0  0  3  0  0  0  0  0  0
  161.8530  207.1920  154.7150 C   0  0  0  0  0  2  0  0  0  0  0  0
  159.6650  206.6660  156.5090 C   0  0  0  0  0  1  0  0  0  0  0  0
  161.5940  208.2410  155.8300 C   0  0  1  0  0  3  0  0  0  0  0  0
  161.6120  209.5570  155.1840 N   0  0  1  0  0  0  0  0  0  0  0  0
  161.7120  207.7420  153.4140 O   0  0  0  0  0  0  0  0  0  0  0  0
  159.3130  208.9140  155.4300 C   0  0  0  0  0  2  0  0  0  0  0  0
  160.3280  209.5140  154.4490 C   0  0  2  0  0  0  0  0  0  0  0  0
  158.4860  212.8580  154.1090 C   0  0  0  0  0  0  0  0  0  0  0  0
  159.9010  210.8810  153.9160 C   0  0  0  0  0  0  0  0  0  0  0  0
  160.1920  212.7510  152.3860 C   0  0  0  0  0  3  0  0  0  0  0  0
  158.8690  211.5890  154.5540 C   0  0  0  0  0  3  0  0  0  0  0  0
  159.1540  213.4370  153.0180 C   0  0  0  0  0  3  0  0  0  0  0  0
  160.5670  211.4820  152.8350 C   0  0  0  0  0  3  0  0  0  0  0  0
  156.1730  213.3810  154.4780 C   0  0  0  0  0  2  0  0  0  0  0  0
  157.4200  213.5370  154.7860 N   0  0  0  0  0  0  0  0  0  0  0  0
  161.6440  210.6010  156.2230 C   0  0  0  0  0  3  0  0  0  0  0  0
  162.9880  211.3070  156.1950 C   0  0  0  0  0  2  0  0  0  0  0  0
  162.7070  210.2750  157.2610 C   0  0  0  0  0  2  0  0  0  0  0  0
  162.1700  209.0970  150.3740 C   0  0  0  0  0  2  0  0  0  0  0  0
  162.0360  208.9330  148.8690 C   0  0  0  0  0  2  0  0  0  0  0  0
  161.1570  207.7400  148.5510 C   0  0  0  0  0  2  0  0  0  0  0  0
  161.1090  207.5370  147.1690 O   0  0  0  0  0  0  0  0  0  0  0  0
  160.9630  201.6590  148.9830 C   0  0  0  0  0  0  0  0  0  0  0  0
  161.0510  202.1800  151.2870 C   0  0  1  0  0  3  0  0  0  0  0  0
  159.7670  200.3270  150.4970 F   0  0  0  0  0  0  0  0  0  0  0  0
  160.7920  206.1820  147.0150 C   0  0  1  0  0  3  0  0  0  0  0  0
  161.3650  205.6120  145.7030 C   0  0  2  0  0  0  0  0  0  0  0  0
  162.8860  205.6690  145.6740 C   0  0  0  0  0  1  0  0  0  0  0  0
  162.5810  205.7050  148.7630 C   0  0  0  0  0  1  0  0  0  0  0  0
  161.0440  203.8860  148.0480 C   0  0  0  0  0  0  0  0  0  0  0  0
  160.8800  206.3650  144.6340 O   0  0  0  0  0  1  0  0  0  0  0  0
  161.0750  203.3540  150.4760 O   0  0  0  0  0  0  0  0  0  0  0  0
  161.0250  203.0130  149.1410 C   0  0  0  0  0  0  0  0  0  0  0  0
  160.9150  201.0750  147.7200 C   0  0  0  0  0  3  0  0  0  0  0  0
  160.9260  201.9190  146.5990 C   0  0  0  0  0  3  0  0  0  0  0  0
  160.9000  204.1680  145.5130 C   0  0  0  0  0  2  0  0  0  0  0  0
  160.9650  200.9890  150.3090 C   0  0  1  0  0  3  0  0  0  0  0  0
  160.9990  203.3180  146.7490 C   0  0  0  0  0  0  0  0  0  0  0  0
  161.1800  205.3680  148.2660 C   0  0  2  0  0  3  0  0  0  0  0  0
  162.2350  202.0970  152.0200 O   0  0  0  0  0  1  0  0  0  0  0  0
  1  2  1  0  0  0  0
  3  2  1  6  0  0  0
  3  9  1  0  0  0  0
  3 11  1  0  0  0  0
  4  6  1  6  0  0  0
  7  5  1  6  0  0  0
  7  4  1  0  0  0  0
  8  7  1  0  0  0  0
  8 20  1  1  0  0  0
  9  5  1  0  0  0  0
 10  4  1  0  0  0  0
 11 13  1  6  0  0  0
 11  8  1  0  0  0  0
 11 10  1  0  0  0  0
 12 15  1  0  0  0  0
 12 19  1  0  0  0  0
 13 15  2  0  0  0  0
 14 17  2  0  0  0  0
 14 16  1  0  0  0  0
 16 12  2  0  0  0  0
 17 13  1  0  0  0  0
 18 19  2  0  0  0  0
 20 22  1  0  0  0  0
 21 20  1  0  0  0  0
 21 22  1  0  0  0  0
 23  1  1  0  0  0  0
 24 23  1  0  0  0  0
 25 24  1  0  0  0  0
 26 25  1  0  0  0  0
 27 37  1  0  0  0  0
 27 41  1  0  0  0  0
 28 44  1  6  0  0  0
 30 26  1  1  0  0  0
 30 43  1  0  0  0  0
 31 32  1  1  0  0  0
 31 30  1  0  0  0  0
 34 43  1  0  0  0  0
 34 37  2  0  0  0  0
 35 31  1  0  0  0  0
 36 28  1  0  0  0  0
 37 36  1  0  0  0  0
 38 27  2  0  0  0  0
 39 42  2  0  0  0  0
 39 38  1  0  0  0  0
 40 31  1  0  0  0  0
 40 42  1  0  0  0  0
 41 29  1  1  0  0  0
 41 28  1  0  0  0  0
 42 34  1  0  0  0  0
 43 33  1  6  0  0  0
M  END
>  <MODEL>
5

>  <REMARK>
 VINA RESULT:      -5.6      2.052      3.954
  Name = 
  10 active torsions:
  status: ('A' for Active; 'I' for Inactive)
    1  A    between atoms: C_1  and  N_18
    2  A    between atoms: C_2  and  N_22
    3  A    between atoms: C_2  and  C_30
    4  A    between atoms: C_3  and  N_21
    5  A    between atoms: C_4  and  O_19
    6  A    between atoms: C_4  and  C_37
    7  A    between atoms: C_5  and  N_22
    8  A    between atoms: C_13  and  O_19
    9  A    between atoms: C_16  and  C_43
   10  A    between atoms: C_30  and  C_37
                            x       y       z     vdW  Elec       q    Type
                         _______ _______ _______ _____ _____    ______ ____

>  <TORSDO>
F 10

$$$$
=
 OpenBabel11072413443D

 44 50  0  0  1  0  0  0  0  0999 V2000
  161.4400  210.3080  151.1010 C   0  0  0  0  0  2  0  0  0  0  0  0
  160.9180  209.9620  152.4150 N   0  0  0  0  0  2  0  0  0  0  0  0
  160.1550  211.1080  152.8960 C   0  0  1  0  0  3  0  0  0  0  0  0
  158.8130  213.1240  154.8290 C   0  0  1  0  0  3  0  0  0  0  0  0
  158.4820  212.6260  152.3620 C   0  0  0  0  0  2  0  0  0  0  0  0
  159.4060  214.4530  154.3840 C   0  0  0  0  0  1  0  0  0  0  0  0
  157.9120  212.4330  153.7930 C   0  0  1  0  0  3  0  0  0  0  0  0
  158.0180  211.0040  154.1010 N   0  0  1  0  0  0  0  0  0  0  0  0
  159.2070  211.4900  151.9130 O   0  0  0  0  0  0  0  0  0  0  0  0
  159.8900  212.0980  155.1320 C   0  0  0  0  0  2  0  0  0  0  0  0
  159.4800  210.8780  154.2960 C   0  0  2  0  0  0  0  0  0  0  0  0
  160.7040  207.2690  154.7060 C   0  0  0  0  0  0  0  0  0  0  0  0
  159.8830  209.5540  154.9430 C   0  0  0  0  0  0  0  0  0  0  0  0
  160.3260  208.2000  156.9160 C   0  0  0  0  0  3  0  0  0  0  0  0
  160.2940  208.4780  154.1370 C   0  0  0  0  0  3  0  0  0  0  0  0
  160.7170  207.1340  156.1040 C   0  0  0  0  0  3  0  0  0  0  0  0
  159.9160  209.4050  156.3390 C   0  0  0  0  0  3  0  0  0  0  0  0
  161.3100  206.3500  152.5750 C   0  0  0  0  0  2  0  0  0  0  0  0
  161.1050  206.1980  153.8430 N   0  0  0  0  0  0  0  0  0  0  0  0
  157.2500  210.7190  155.3250 C   0  0  0  0  0  3  0  0  0  0  0  0
  155.9690  209.9880  154.9640 C   0  0  0  0  0  2  0  0  0  0  0  0
  155.9220  211.4600  155.2940 C   0  0  0  0  0  2  0  0  0  0  0  0
  162.1560  209.1160  150.4850 C   0  0  0  0  0  2  0  0  0  0  0  0
  161.8640  209.0380  148.9960 C   0  0  0  0  0  2  0  0  0  0  0  0
  161.2400  207.6990  148.6560 C   0  0  0  0  0  2  0  0  0  0  0  0
  161.1800  207.5380  147.2690 O   0  0  0  0  0  0  0  0  0  0  0  0
  160.9040  201.6100  148.8980 C   0  0  0  0  0  0  0  0  0  0  0  0
  161.0440  202.0550  151.2150 C   0  0  1  0  0  3  0  0  0  0  0  0
  159.6970  200.2620  150.3880 F   0  0  0  0  0  0  0  0  0  0  0  0
  160.8240  206.1980  147.0770 C   0  0  1  0  0  3  0  0  0  0  0  0
  161.3600  205.6560  145.7390 C   0  0  2  0  0  0  0  0  0  0  0  0
  162.8800  205.6730  145.6860 C   0  0  0  0  0  1  0  0  0  0  0  0
  162.6270  205.6180  148.7790 C   0  0  0  0  0  1  0  0  0  0  0  0
  161.0300  203.8640  148.0330 C   0  0  0  0  0  0  0  0  0  0  0  0
  160.8770  206.4550  144.7020 O   0  0  0  0  0  1  0  0  0  0  0  0
  161.0860  203.2530  150.4410 O   0  0  0  0  0  0  0  0  0  0  0  0
  161.0050  202.9560  149.0970 C   0  0  0  0  0  0  0  0  0  0  0  0
  160.8210  201.0700  147.6170 C   0  0  0  0  0  3  0  0  0  0  0  0
  160.8360  201.9490  146.5230 C   0  0  0  0  0  3  0  0  0  0  0  0
  160.8530  204.2310  145.5110 C   0  0  0  0  0  2  0  0  0  0  0  0
  160.9100  200.8980  150.2010 C   0  0  1  0  0  3  0  0  0  0  0  0
  160.9490  203.3390  146.7170 C   0  0  0  0  0  0  0  0  0  0  0  0
  161.2090  205.3340  148.2950 C   0  0  2  0  0  3  0  0  0  0  0  0
  162.2370  201.9170  151.9240 O   0  0  0  0  0  1  0  0  0  0  0  0
  1  2  1  0  0  0  0
  3  2  1  6  0  0  0
  3 11  1  0  0  0  0
  4  6  1  6  0  0  0
  4 10  1  0  0  0  0
  7  5  1  6  0  0  0
  7  8  1  0  0  0  0
  7  4  1  0  0  0  0
  8 11  1  0  0  0  0
  8 20  1  1  0  0  0
  9  5  1  0  0  0  0
  9  3  1  0  0  0  0
 11 13  1  1  0  0  0
 11 10  1  0  0  0  0
 12 16  1  0  0  0  0
 13 17  2  0  0  0  0
 15 12  2  0  0  0  0
 15 13  1  0  0  0  0
 16 14  2  0  0  0  0
 17 14  1  0  0  0  0
 18 19  2  0  0  0  0
 19 12  1  0  0  0  0
 21 22  1  0  0  0  0
 21 20  1  0  0  0  0
 22 20  1  0  0  0  0
 23  1  1  0  0  0  0
 24 23  1  0  0  0  0
 25 24  1  0  0  0  0
 26 25  1  0  0  0  0
 27 37  1  0  0  0  0
 27 41  1  0  0  0  0
 28 44  1  6  0  0  0
 30 26  1  1  0  0  0
 30 43  1  0  0  0  0
 31 32  1  1  0  0  0
 31 30  1  0  0  0  0
 34 43  1  0  0  0  0
 34 37  2  0  0  0  0
 35 31  1  0  0  0  0
 36 28  1  0  0  0  0
 37 36  1  0  0  0  0
 38 27  2  0  0  0  0
 39 42  2  0  0  0  0
 39 38  1  0  0  0  0
 40 31  1  0  0  0  0
 40 42  1  0  0  0  0
 41 29  1  1  0  0  0
 41 28  1  0  0  0  0
 42 34  1  0  0  0  0
 43 33  1  6  0  0  0
M  END
>  <MODEL>
6

>  <REMARK>
 VINA RESULT:      -5.4      2.132      5.195
  Name = 
  10 active torsions:
  status: ('A' for Active; 'I' for Inactive)
    1  A    between atoms: C_1  and  N_18
    2  A    between atoms: C_2  and  N_22
    3  A    between atoms: C_2  and  C_30
    4  A    between atoms: C_3  and  N_21
    5  A    between atoms: C_4  and  O_19
    6  A    between atoms: C_4  and  C_37
    7  A    between atoms: C_5  and  N_22
    8  A    between atoms: C_13  and  O_19
    9  A    between atoms: C_16  and  C_43
   10  A    between atoms: C_30  and  C_37
                            x       y       z     vdW  Elec       q    Type
                         _______ _______ _______ _____ _____    ______ ____

>  <TORSDO>
F 10

$$$$
=
 OpenBabel11072413443D

 44 50  0  0  1  0  0  0  0  0999 V2000
  161.1500  210.4060  151.9200 C   0  0  0  0  0  2  0  0  0  0  0  0
  161.4020  210.4610  153.3520 N   0  0  0  0  0  2  0  0  0  0  0  0
  160.5280  211.4870  153.9090 C   0  0  1  0  0  3  0  0  0  0  0  0
  158.7910  213.0650  155.9330 C   0  0  1  0  0  3  0  0  0  0  0  0
  158.9350  213.0950  153.3980 C   0  0  0  0  0  2  0  0  0  0  0  0
  159.4130  214.4530  155.8900 C   0  0  0  0  0  1  0  0  0  0  0  0
  158.1170  212.6120  154.6270 C   0  0  1  0  0  3  0  0  0  0  0  0
  158.2110  211.1490  154.6470 N   0  0  1  0  0  0  0  0  0  0  0  0
  159.7650  212.0730  152.8670 O   0  0  0  0  0  0  0  0  0  0  0  0
  159.8250  211.9900  156.2120 C   0  0  0  0  0  2  0  0  0  0  0  0
  159.6150  210.9750  155.0810 C   0  0  2  0  0  0  0  0  0  0  0  0
  160.7220  207.3090  154.9170 C   0  0  0  0  0  0  0  0  0  0  0  0
  159.9340  209.5420  155.5030 C   0  0  0  0  0  0  0  0  0  0  0  0
  160.1810  207.8390  157.2240 C   0  0  0  0  0  3  0  0  0  0  0  0
  160.3870  208.6150  154.5490 C   0  0  0  0  0  3  0  0  0  0  0  0
  160.6150  206.9240  156.2630 C   0  0  0  0  0  3  0  0  0  0  0  0
  159.8470  209.1410  156.8470 C   0  0  0  0  0  3  0  0  0  0  0  0
  160.8240  205.1510  153.8730 C   0  0  0  0  0  2  0  0  0  0  0  0
  161.1710  206.3970  153.9060 N   0  0  0  0  0  0  0  0  0  0  0  0
  157.2400  210.6210  155.6210 C   0  0  0  0  0  3  0  0  0  0  0  0
  155.9980  210.1390  154.8930 C   0  0  0  0  0  2  0  0  0  0  0  0
  155.9750  211.4670  155.6110 C   0  0  0  0  0  2  0  0  0  0  0  0
  162.4620  210.3930  151.1520 C   0  0  0  0  0  2  0  0  0  0  0  0
  162.2250  209.9710  149.7110 C   0  0  0  0  0  2  0  0  0  0  0  0
  161.7950  208.5180  149.6580 C   0  0  0  0  0  2  0  0  0  0  0  0
  162.4970  207.8490  148.6520 O   0  0  0  0  0  0  0  0  0  0  0  0
  160.8160  202.0110  147.6690 C   0  0  0  0  0  0  0  0  0  0  0  0
  160.7770  202.2300  145.3160 C   0  0  1  0  0  3  0  0  0  0  0  0
  161.4930  200.1970  146.3470 F   0  0  0  0  0  0  0  0  0  0  0  0
  162.4070  206.4930  148.9910 C   0  0  1  0  0  3  0  0  0  0  0  0
  161.7540  206.2970  150.3720 C   0  0  2  0  0  0  0  0  0  0  0  0
  160.3210  206.8080  150.4020 C   0  0  0  0  0  1  0  0  0  0  0  0
  160.4770  206.3490  147.3370 C   0  0  0  0  0  1  0  0  0  0  0  0
  161.4400  204.2630  148.2870 C   0  0  0  0  0  0  0  0  0  0  0  0
  162.4900  207.0030  151.3240 O   0  0  0  0  0  1  0  0  0  0  0  0
  161.1390  203.4530  145.9570 O   0  0  0  0  0  0  0  0  0  0  0  0
  161.1490  203.2890  147.3260 C   0  0  0  0  0  0  0  0  0  0  0  0
  160.7490  201.6100  149.0010 C   0  0  0  0  0  3  0  0  0  0  0  0
  161.0410  202.5570  149.9950 C   0  0  0  0  0  3  0  0  0  0  0  0
  161.7800  204.8170  150.7580 C   0  0  0  0  0  2  0  0  0  0  0  0
  160.5540  201.2050  146.4490 C   0  0  1  0  0  3  0  0  0  0  0  0
  161.3760  203.8820  149.6520 C   0  0  0  0  0  0  0  0  0  0  0  0
  161.7380  205.6760  147.8670 C   0  0  2  0  0  3  0  0  0  0  0  0
  159.5880  202.4090  144.6100 O   0  0  0  0  0  1  0  0  0  0  0  0
  1  2  1  0  0  0  0
  3  2  1  6  0  0  0
  3 11  1  0  0  0  0
  4  6  1  6  0  0  0
  4 10  1  0  0  0  0
  7  5  1  6  0  0  0
  7  8  1  0  0  0  0
  7  4  1  0  0  0  0
  8 11  1  0  0  0  0
  8 20  1  1  0  0  0
  9  5  1  0  0  0  0
  9  3  1  0  0  0  0
 11 13  1  1  0  0  0
 11 10  1  0  0  0  0
 12 16  1  0  0  0  0
 13 17  2  0  0  0  0
 15 12  2  0  0  0  0
 15 13  1  0  0  0  0
 16 14  2  0  0  0  0
 17 14  1  0  0  0  0
 18 19  2  0  0  0  0
 19 12  1  0  0  0  0
 21 22  1  0  0  0  0
 21 20  1  0  0  0  0
 22 20  1  0  0  0  0
 23  1  1  0  0  0  0
 24 23  1  0  0  0  0
 25 24  1  0  0  0  0
 26 25  1  0  0  0  0
 27 38  1  0  0  0  0
 28 44  1  1  0  0  0
 28 36  1  0  0  0  0
 28 41  1  0  0  0  0
 30 26  1  6  0  0  0
 30 31  1  0  0  0  0
 31 32  1  6  0  0  0
 31 40  1  0  0  0  0
 31 35  1  0  0  0  0
 34 42  2  0  0  0  0
 36 37  1  0  0  0  0
 37 27  2  0  0  0  0
 37 34  1  0  0  0  0
 38 39  2  0  0  0  0
 41 29  1  6  0  0  0
 41 27  1  0  0  0  0
 42 39  1  0  0  0  0
 42 40  1  0  0  0  0
 43 33  1  1  0  0  0
 43 34  1  0  0  0  0
 43 30  1  0  0  0  0
M  END
>  <MODEL>
7

>  <REMARK>
 VINA RESULT:      -5.2      2.019      4.316
  Name = 
  10 active torsions:
  status: ('A' for Active; 'I' for Inactive)
    1  A    between atoms: C_1  and  N_18
    2  A    between atoms: C_2  and  N_22
    3  A    between atoms: C_2  and  C_30
    4  A    between atoms: C_3  and  N_21
    5  A    between atoms: C_4  and  O_19
    6  A    between atoms: C_4  and  C_37
    7  A    between atoms: C_5  and  N_22
    8  A    between atoms: C_13  and  O_19
    9  A    between atoms: C_16  and  C_43
   10  A    between atoms: C_30  and  C_37
                            x       y       z     vdW  Elec       q    Type
                         _______ _______ _______ _____ _____    ______ ____

>  <TORSDO>
F 10

$$$$
=
 OpenBabel11072413443D

 44 50  0  0  1  0  0  0  0  0999 V2000
  162.1530  210.1090  151.1520 C   0  0  0  0  0  2  0  0  0  0  0  0
  161.2050  210.9670  151.8480 N   0  0  0  0  0  2  0  0  0  0  0  0
  161.0510  210.4410  153.1990 C   0  0  1  0  0  3  0  0  0  0  0  0
  159.7440  209.6230  155.8870 C   0  0  1  0  0  3  0  0  0  0  0  0
  162.1580  209.9740  155.1840 C   0  0  0  0  0  2  0  0  0  0  0  0
  160.0870  208.1430  155.9830 C   0  0  0  0  0  1  0  0  0  0  0  0
  160.9490  210.5760  155.9490 C   0  0  1  0  0  3  0  0  0  0  0  0
  160.5240  211.7630  155.2000 N   0  0  1  0  0  0  0  0  0  0  0  0
  162.2940  210.5140  153.8780 O   0  0  0  0  0  0  0  0  0  0  0  0
  159.0670  209.9620  154.5710 C   0  0  0  0  0  2  0  0  0  0  0  0
  159.8990  211.1260  154.0190 C   0  0  2  0  0  0  0  0  0  0  0  0
  158.8660  213.5260  151.2130 C   0  0  0  0  0  0  0  0  0  0  0  0
  159.0720  212.1030  153.1840 C   0  0  0  0  0  0  0  0  0  0  0  0
  156.9870  213.2730  152.7290 C   0  0  0  0  0  3  0  0  0  0  0  0
  159.6160  212.6600  152.0150 C   0  0  0  0  0  3  0  0  0  0  0  0
  157.5450  213.8310  151.5780 C   0  0  0  0  0  3  0  0  0  0  0  0
  157.7440  212.4100  153.5250 C   0  0  0  0  0  3  0  0  0  0  0  0
  160.6890  213.8300  149.6840 C   0  0  0  0  0  2  0  0  0  0  0  0
  159.4690  214.0760  150.0350 N   0  0  0  0  0  0  0  0  0  0  0  0
  159.5640  212.5260  156.0160 C   0  0  0  0  0  3  0  0  0  0  0  0
  159.8420  214.0110  155.8740 C   0  0  0  0  0  2  0  0  0  0  0  0
  160.2940  213.2810  157.1160 C   0  0  0  0  0  2  0  0  0  0  0  0
  161.4250  208.9670  150.4610 C   0  0  0  0  0  2  0  0  0  0  0  0
  161.7040  208.9910  148.9670 C   0  0  0  0  0  2  0  0  0  0  0  0
  161.8060  207.5760  148.4330 C   0  0  0  0  0  2  0  0  0  0  0  0
  161.2050  207.4960  147.1740 O   0  0  0  0  0  0  0  0  0  0  0  0
  160.9310  201.6280  149.0060 C   0  0  0  0  0  0  0  0  0  0  0  0
  161.1000  202.1510  151.3050 C   0  0  1  0  0  3  0  0  0  0  0  0
  159.7380  200.3360  150.5560 F   0  0  0  0  0  0  0  0  0  0  0  0
  160.8430  206.1510  147.0320 C   0  0  1  0  0  3  0  0  0  0  0  0
  161.3620  205.5620  145.7070 C   0  0  2  0  0  0  0  0  0  0  0  0
  162.8820  205.5720  145.6350 C   0  0  0  0  0  1  0  0  0  0  0  0
  162.6650  205.6240  148.7310 C   0  0  0  0  0  1  0  0  0  0  0  0
  161.0540  203.8500  148.0640 C   0  0  0  0  0  0  0  0  0  0  0  0
  160.8700  206.3270  144.6490 O   0  0  0  0  0  1  0  0  0  0  0  0
  161.1360  203.3220  150.4910 O   0  0  0  0  0  0  0  0  0  0  0  0
  161.0390  202.9800  149.1590 C   0  0  0  0  0  0  0  0  0  0  0  0
  160.8310  201.0440  147.7460 C   0  0  0  0  0  3  0  0  0  0  0  0
  160.8360  201.8850  146.6230 C   0  0  0  0  0  3  0  0  0  0  0  0
  160.8490  204.1320  145.5330 C   0  0  0  0  0  2  0  0  0  0  0  0
  160.9500  200.9610  150.3330 C   0  0  1  0  0  3  0  0  0  0  0  0
  160.9560  203.2820  146.7680 C   0  0  0  0  0  0  0  0  0  0  0  0
  161.2410  205.3280  148.2740 C   0  0  2  0  0  3  0  0  0  0  0  0
  162.3000  202.0330  152.0050 O   0  0  0  0  0  1  0  0  0  0  0  0
  1  2  1  0  0  0  0
  3  2  1  6  0  0  0
  3  9  1  0  0  0  0
  3 11  1  0  0  0  0
  4  7  1  0  0  0  0
  4  6  1  6  0  0  0
  7  5  1  6  0  0  0
  8  7  1  0  0  0  0
  8 20  1  1  0  0  0
  9  5  1  0  0  0  0
 10  4  1  0  0  0  0
 11 13  1  6  0  0  0
 11 10  1  0  0  0  0
 11  8  1  0  0  0  0
 12 16  2  0  0  0  0
 12 15  1  0  0  0  0
 13 17  1  0  0  0  0
 14 17  2  0  0  0  0
 15 13  2  0  0  0  0
 16 14  1  0  0  0  0
 18 19  2  0  0  0  0
 19 12  1  0  0  0  0
 20 22  1  0  0  0  0
 21 20  1  0  0  0  0
 21 22  1  0  0  0  0
 23  1  1  0  0  0  0
 24 23  1  0  0  0  0
 25 24  1  0  0  0  0
 26 25  1  0  0  0  0
 27 37  1  0  0  0  0
 27 41  1  0  0  0  0
 28 44  1  6  0  0  0
 30 26  1  1  0  0  0
 30 43  1  0  0  0  0
 31 32  1  6  0  0  0
 31 30  1  0  0  0  0
 34 43  1  0  0  0  0
 34 37  2  0  0  0  0
 35 31  1  0  0  0  0
 36 28  1  0  0  0  0
 37 36  1  0  0  0  0
 38 27  2  0  0  0  0
 39 42  2  0  0  0  0
 39 38  1  0  0  0  0
 40 31  1  0  0  0  0
 40 42  1  0  0  0  0
 41 29  1  1  0  0  0
 41 28  1  0  0  0  0
 42 34  1  0  0  0  0
 43 33  1  6  0  0  0
M  END
>  <MODEL>
8

>  <REMARK>
 VINA RESULT:      -4.8      1.995      3.923
  Name = 
  10 active torsions:
  status: ('A' for Active; 'I' for Inactive)
    1  A    between atoms: C_1  and  N_18
    2  A    between atoms: C_2  and  N_22
    3  A    between atoms: C_2  and  C_30
    4  A    between atoms: C_3  and  N_21
    5  A    between atoms: C_4  and  O_19
    6  A    between atoms: C_4  and  C_37
    7  A    between atoms: C_5  and  N_22
    8  A    between atoms: C_13  and  O_19
    9  A    between atoms: C_16  and  C_43
   10  A    between atoms: C_30  and  C_37
                            x       y       z     vdW  Elec       q    Type
                         _______ _______ _______ _____ _____    ______ ____

>  <TORSDO>
F 10

$$$$
=
 OpenBabel11072413443D

 44 50  0  0  1  0  0  0  0  0999 V2000
  161.4830  211.2820  152.1570 C   0  0  0  0  0  2  0  0  0  0  0  0
  160.4400  211.6000  151.1920 N   0  0  0  0  0  2  0  0  0  0  0  0
  161.0940  212.1510  150.0100 C   0  0  1  0  0  3  0  0  0  0  0  0
  161.9640  214.1640  147.8210 C   0  0  1  0  0  3  0  0  0  0  0  0
  162.0340  211.6300  147.9540 C   0  0  0  0  0  2  0  0  0  0  0  0
  163.4820  214.1170  147.9140 C   0  0  0  0  0  1  0  0  0  0  0  0
  161.2980  212.8590  147.3550 C   0  0  1  0  0  3  0  0  0  0  0  0
  159.9620  212.8860  147.9590 N   0  0  1  0  0  0  0  0  0  0  0  0
  161.3690  211.1050  149.0930 O   0  0  0  0  0  0  0  0  0  0  0  0
  161.3240  214.4500  149.1680 C   0  0  0  0  0  2  0  0  0  0  0  0
  160.2960  213.3230  149.3330 C   0  0  2  0  0  0  0  0  0  0  0  0
  156.6850  214.2640  150.2090 C   0  0  0  0  0  0  0  0  0  0  0  0
  159.0690  213.7520  150.1360 C   0  0  0  0  0  0  0  0  0  0  0  0
  157.9940  214.2850  152.2530 C   0  0  0  0  0  3  0  0  0  0  0  0
  157.8310  213.9090  149.4910 C   0  0  0  0  0  3  0  0  0  0  0  0
  156.7730  214.4520  151.5980 C   0  0  0  0  0  3  0  0  0  0  0  0
  159.1340  213.9320  151.5270 C   0  0  0  0  0  3  0  0  0  0  0  0
  154.2900  214.3240  150.0770 C   0  0  0  0  0  2  0  0  0  0  0  0
  155.4470  214.4210  149.5050 N   0  0  0  0  0  0  0  0  0  0  0  0
  159.1290  213.8600  147.2340 C   0  0  0  0  0  3  0  0  0  0  0  0
  158.0580  213.1280  146.4440 C   0  0  0  0  0  2  0  0  0  0  0  0
  159.2780  213.6630  145.7330 C   0  0  0  0  0  2  0  0  0  0  0  0
  162.1580  209.9700  151.7940 C   0  0  0  0  0  2  0  0  0  0  0  0
  161.1740  208.8180  151.9200 C   0  0  0  0  0  2  0  0  0  0  0  0
  161.7970  207.5400  151.3940 C   0  0  0  0  0  2  0  0  0  0  0  0
  161.2560  206.4360  152.0570 O   0  0  0  0  0  0  0  0  0  0  0  0
  161.3580  203.5990  146.5970 C   0  0  0  0  0  0  0  0  0  0  0  0
  161.5150  205.6040  145.3560 C   0  0  1  0  0  3  0  0  0  0  0  0
  162.6450  203.6250  144.6380 F   0  0  0  0  0  0  0  0  0  0  0  0
  161.5050  205.3490  151.2100 C   0  0  1  0  0  3  0  0  0  0  0  0
  160.7850  204.0770  151.6960 C   0  0  2  0  0  0  0  0  0  0  0  0
  159.2720  204.2420  151.6930 C   0  0  0  0  0  1  0  0  0  0  0  0
  159.8790  206.4270  149.5740 C   0  0  0  0  0  1  0  0  0  0  0  0
  161.2690  204.5010  148.8380 C   0  0  0  0  0  0  0  0  0  0  0  0
  161.1910  203.7980  153.0010 O   0  0  0  0  0  1  0  0  0  0  0  0
  161.4560  205.8520  146.7610 O   0  0  0  0  0  0  0  0  0  0  0  0
  161.3620  204.6630  147.4520 C   0  0  0  0  0  0  0  0  0  0  0  0
  161.2580  202.2910  147.0660 C   0  0  0  0  0  3  0  0  0  0  0  0
  161.1700  202.0870  148.4510 C   0  0  0  0  0  3  0  0  0  0  0  0
  161.1740  202.8880  150.8170 C   0  0  0  0  0  2  0  0  0  0  0  0
  161.4600  204.0700  145.1920 C   0  0  1  0  0  3  0  0  0  0  0  0
  161.1640  203.1790  149.3420 C   0  0  0  0  0  0  0  0  0  0  0  0
  161.2110  205.7040  149.7390 C   0  0  2  0  0  3  0  0  0  0  0  0
  160.4070  206.1790  144.7360 O   0  0  0  0  0  1  0  0  0  0  0  0
  2  1  1  0  0  0  0
  3  2  1  1  0  0  0
  4  6  1  1  0  0  0
  4 10  1  0  0  0  0
  5  9  1  0  0  0  0
  7  4  1  0  0  0  0
  7  5  1  1  0  0  0
  7  8  1  0  0  0  0
  8 20  1  6  0  0  0
  8 11  1  0  0  0  0
  9  3  1  0  0  0  0
 10 11  1  0  0  0  0
 11  3  1  0  0  0  0
 11 13  1  1  0  0  0
 12 16  1  0  0  0  0
 13 17  2  0  0  0  0
 15 13  1  0  0  0  0
 15 12  2  0  0  0  0
 16 14  2  0  0  0  0
 17 14  1  0  0  0  0
 19 18  2  0  0  0  0
 19 12  1  0  0  0  0
 21 20  1  0  0  0  0
 22 21  1  0  0  0  0
 22 20  1  0  0  0  0
 23 24  1  0  0  0  0
 23  1  1  0  0  0  0
 25 24  1  0  0  0  0
 25 26  1  0  0  0  0
 27 38  2  0  0  0  0
 27 37  1  0  0  0  0
 28 44  1  6  0  0  0
 28 36  1  0  0  0  0
 30 31  1  0  0  0  0
 30 26  1  1  0  0  0
 31 32  1  6  0  0  0
 31 35  1  0  0  0  0
 34 42  1  0  0  0  0
 34 43  1  0  0  0  0
 36 37  1  0  0  0  0
 37 34  2  0  0  0  0
 38 39  1  0  0  0  0
 39 42  2  0  0  0  0
 40 31  1  0  0  0  0
 41 29  1  1  0  0  0
 41 28  1  0  0  0  0
 41 27  1  0  0  0  0
 42 40  1  0  0  0  0
 43 33  1  1  0  0  0
 43 30  1  0  0  0  0
M  END
>  <MODEL>
9

>  <REMARK>
 VINA RESULT:      -4.2      2.962      4.878
  Name = 
  10 active torsions:
  status: ('A' for Active; 'I' for Inactive)
    1  A    between atoms: C_1  and  N_18
    2  A    between atoms: C_2  and  N_22
    3  A    between atoms: C_2  and  C_30
    4  A    between atoms: C_3  and  N_21
    5  A    between atoms: C_4  and  O_19
    6  A    between atoms: C_4  and  C_37
    7  A    between atoms: C_5  and  N_22
    8  A    between atoms: C_13  and  O_19
    9  A    between atoms: C_16  and  C_43
   10  A    between atoms: C_30  and  C_37
                            x       y       z     vdW  Elec       q    Type
                         _______ _______ _______ _____ _____    ______ ____

>  <TORSDO>
F 10

$$$$
