=
 OpenBabel11072413573D

 29 32  0  0  1  0  0  0  0  0999 V2000
  161.3310  205.1550  149.7210 C   0  0  0  0  0  0  0  0  0  0  0  0
  162.5930  206.1850  147.8230 N   0  0  0  0  0  2  0  0  0  0  0  0
  161.4520  207.5410  151.1310 C   0  0  0  0  0  0  0  0  0  0  0  0
  161.5170  203.1730  148.0710 C   0  0  2  0  0  3  0  0  0  0  0  0
  161.1000  203.8450  149.3470 C   0  0  0  0  0  0  0  0  0  0  0  0
  163.3130  205.1220  145.9020 O   0  0  0  0  0  0  0  0  0  0  0  0
  161.9590  206.2470  149.1070 C   0  0  0  0  0  0  0  0  0  0  0  0
  162.0170  207.4470  149.8390 C   0  0  0  0  0  3  0  0  0  0  0  0
  160.4640  203.2170  150.3670 N   0  0  0  0  0  0  0  0  0  0  0  0
  160.8250  206.4250  151.7150 C   0  0  0  0  0  3  0  0  0  0  0  0
  161.3560  204.1410  146.8910 C   0  0  1  0  0  3  0  0  0  0  0  0
  162.4710  205.1540  146.8370 C   0  0  0  0  0  0  0  0  0  0  0  0
  160.7920  205.2470  150.9760 C   0  0  0  0  0  0  0  0  0  0  0  0
  160.2900  204.0880  151.3240 O   0  0  0  0  0  0  0  0  0  0  0  0
  161.0210  203.4800  145.5360 C   0  0  0  0  0  2  0  0  0  0  0  0
  159.3250  203.6070  143.8670 F   0  0  0  0  0  0  0  0  0  0  0  0
  161.2240  204.7630  143.5520 F   0  0  0  0  0  0  0  0  0  0  0  0
  159.7230  205.4730  145.0660 F   0  0  0  0  0  0  0  0  0  0  0  0
  160.3030  204.3520  144.4970 C   0  0  0  0  0  0  0  0  0  0  0  0
  160.7200  201.9670  147.8710 N   0  0  0  0  0  2  0  0  0  0  0  0
  161.5190  200.8800  148.2460 N   0  0  0  0  0  2  0  0  0  0  0  0
  161.5140  200.0150  147.2040 O   0  0  0  0  0  1  0  0  0  0  0  0
  161.5080  208.8360  151.8690 C   0  0  0  0  0  2  0  0  0  0  0  0
  160.9900  208.6780  153.2600 C   0  0  0  0  0  0  0  0  0  0  0  0
  160.7120  207.3390  155.2610 C   0  0  0  0  0  3  0  0  0  0  0  0
  160.3300  209.7430  153.8830 C   0  0  0  0  0  3  0  0  0  0  0  0
  160.0470  208.4020  155.8790 C   0  0  0  0  0  3  0  0  0  0  0  0
  159.8560  209.6040  155.1900 C   0  0  0  0  0  3  0  0  0  0  0  0
  161.1850  207.4770  153.9520 C   0  0  0  0  0  3  0  0  0  0  0  0
  1 13  1  0  0  0  0
  2  7  1  0  0  0  0
  3 10  1  0  0  0  0
  3 23  1  0  0  0  0
  4 20  1  6  0  0  0
  4  5  1  0  0  0  0
  5  1  1  0  0  0  0
  5  9  2  0  0  0  0
  6 12  2  0  0  0  0
  7  1  2  0  0  0  0
  7  8  1  0  0  0  0
  8  3  2  0  0  0  0
  9 14  1  0  0  0  0
 11 15  1  6  0  0  0
 11  4  1  0  0  0  0
 12 11  1  0  0  0  0
 12  2  1  0  0  0  0
 13 14  1  0  0  0  0
 13 10  2  0  0  0  0
 16 19  1  0  0  0  0
 17 19  1  0  0  0  0
 19 18  1  0  0  0  0
 19 15  1  0  0  0  0
 20 21  1  0  0  0  0
 22 21  1  0  0  0  0
 23 24  1  0  0  0  0
 24 26  2  0  0  0  0
 24 29  1  0  0  0  0
 25 27  1  0  0  0  0
 26 28  1  0  0  0  0
 28 27  2  0  0  0  0
 29 25  2  0  0  0  0
M  END
>  <MODEL>
1

>  <REMARK>
 VINA RESULT:      -9.1      0.000      0.000
  Name = 
  6 active torsions:
  status: ('A' for Active; 'I' for Inactive)
    1  A    between atoms: C_1  and  C_26
    2  A    between atoms: C_5  and  C_26
    3  A    between atoms: C_6  and  N_25
    4  A    between atoms: C_15  and  C_21
    5  A    between atoms: C_20  and  C_21
    6  A    between atoms: N_22  and  N_25
                            x       y       z     vdW  Elec       q    Type
                         _______ _______ _______ _____ _____    ______ ____

>  <TORSDO>
F 6

$$$$
=
 OpenBabel11072413573D

 29 32  0  0  1  0  0  0  0  0999 V2000
  161.2710  206.1140  151.5830 C   0  0  0  0  0  0  0  0  0  0  0  0
  162.1000  207.8790  150.0170 N   0  0  0  0  0  2  0  0  0  0  0  0
  161.3020  207.9260  153.6840 C   0  0  0  0  0  0  0  0  0  0  0  0
  161.4560  204.8060  149.3610 C   0  0  2  0  0  3  0  0  0  0  0  0
  161.1520  204.9680  150.8220 C   0  0  0  0  0  0  0  0  0  0  0  0
  162.6550  207.6050  147.7910 O   0  0  0  0  0  0  0  0  0  0  0  0
  161.6610  207.4320  151.3060 C   0  0  0  0  0  0  0  0  0  0  0  0
  161.6760  208.3360  152.3840 C   0  0  0  0  0  3  0  0  0  0  0  0
  160.7570  203.9570  151.6340 N   0  0  0  0  0  0  0  0  0  0  0  0
  160.9120  206.5960  153.9250 C   0  0  0  0  0  3  0  0  0  0  0  0
  161.0030  206.0550  148.5900 C   0  0  1  0  0  3  0  0  0  0  0  0
  161.9630  207.2040  148.7630 C   0  0  0  0  0  0  0  0  0  0  0  0
  160.9170  205.7190  152.8450 C   0  0  0  0  0  0  0  0  0  0  0  0
  160.6200  204.4440  152.8380 O   0  0  0  0  0  0  0  0  0  0  0  0
  160.5560  205.8040  147.1330 C   0  0  0  0  0  2  0  0  0  0  0  0
  161.7720  206.0340  145.0970 F   0  0  0  0  0  0  0  0  0  0  0  0
  161.1240  203.9800  145.7290 F   0  0  0  0  0  0  0  0  0  0  0  0
  162.8170  204.9950  146.8030 F   0  0  0  0  0  0  0  0  0  0  0  0
  161.5960  205.1970  146.1820 C   0  0  0  0  0  0  0  0  0  0  0  0
  160.7950  203.6090  148.8530 N   0  0  0  0  0  2  0  0  0  0  0  0
  161.7880  202.6420  148.6590 N   0  0  0  0  0  2  0  0  0  0  0  0
  161.1600  201.5160  148.2460 O   0  0  0  0  0  1  0  0  0  0  0  0
  161.3060  208.9170  154.7990 C   0  0  0  0  0  2  0  0  0  0  0  0
  160.1450  209.8480  154.6860 C   0  0  0  0  0  0  0  0  0  0  0  0
  158.8310  211.4240  153.3960 C   0  0  0  0  0  3  0  0  0  0  0  0
  159.2550  209.9870  155.7580 C   0  0  0  0  0  3  0  0  0  0  0  0
  157.9470  211.5660  154.4700 C   0  0  0  0  0  3  0  0  0  0  0  0
  158.1590  210.8470  155.6500 C   0  0  0  0  0  3  0  0  0  0  0  0
  159.9290  210.5640  153.5020 C   0  0  0  0  0  3  0  0  0  0  0  0
  1 13  1  0  0  0  0
  2  7  1  0  0  0  0
  3 10  1  0  0  0  0
  3 23  1  0  0  0  0
  4 20  1  6  0  0  0
  4  5  1  0  0  0  0
  5  1  1  0  0  0  0
  5  9  2  0  0  0  0
  6 12  2  0  0  0  0
  7  1  2  0  0  0  0
  7  8  1  0  0  0  0
  8  3  2  0  0  0  0
  9 14  1  0  0  0  0
 11 15  1  6  0  0  0
 11 12  1  0  0  0  0
 11  4  1  0  0  0  0
 12  2  1  0  0  0  0
 13 10  2  0  0  0  0
 14 13  1  0  0  0  0
 16 19  1  0  0  0  0
 17 19  1  0  0  0  0
 19 18  1  0  0  0  0
 19 15  1  0  0  0  0
 21 20  1  0  0  0  0
 22 21  1  0  0  0  0
 24 23  1  0  0  0  0
 24 26  1  0  0  0  0
 25 29  1  0  0  0  0
 25 27  2  0  0  0  0
 27 28  1  0  0  0  0
 28 26  2  0  0  0  0
 29 24  2  0  0  0  0
M  END
>  <MODEL>
2

>  <REMARK>
 VINA RESULT:      -8.4      1.730      2.677
  Name = 
  6 active torsions:
  status: ('A' for Active; 'I' for Inactive)
    1  A    between atoms: C_1  and  C_26
    2  A    between atoms: C_5  and  C_26
    3  A    between atoms: C_6  and  N_25
    4  A    between atoms: C_15  and  C_21
    5  A    between atoms: C_20  and  C_21
    6  A    between atoms: N_22  and  N_25
                            x       y       z     vdW  Elec       q    Type
                         _______ _______ _______ _____ _____    ______ ____

>  <TORSDO>
F 6

$$$$
=
 OpenBabel11072413573D

 29 32  0  0  1  0  0  0  0  0999 V2000
  161.4700  207.8570  152.5480 C   0  0  0  0  0  0  0  0  0  0  0  0
  160.4740  206.5160  154.4090 N   0  0  0  0  0  2  0  0  0  0  0  0
  161.3010  205.6720  150.8480 C   0  0  0  0  0  0  0  0  0  0  0  0
  161.4670  209.5650  154.4890 C   0  0  2  0  0  3  0  0  0  0  0  0
  161.7270  209.1030  153.0840 C   0  0  0  0  0  0  0  0  0  0  0  0
  160.1600  207.1990  156.5940 O   0  0  0  0  0  0  0  0  0  0  0  0
  160.9080  206.6760  153.0530 C   0  0  0  0  0  0  0  0  0  0  0  0
  160.8360  205.5760  152.1780 C   0  0  0  0  0  3  0  0  0  0  0  0
  162.3230  209.8620  152.1310 N   0  0  0  0  0  0  0  0  0  0  0  0
  161.8550  206.8740  150.3730 C   0  0  0  0  0  3  0  0  0  0  0  0
  160.1360  208.9890  154.9920 C   0  0  1  0  0  3  0  0  0  0  0  0
  160.2610  207.5400  155.3870 C   0  0  0  0  0  0  0  0  0  0  0  0
  161.9270  207.9430  151.2610 C   0  0  0  0  0  0  0  0  0  0  0  0
  162.4220  209.1370  151.0500 O   0  0  0  0  0  0  0  0  0  0  0  0
  159.3790  209.8700  156.0110 C   0  0  0  0  0  2  0  0  0  0  0  0
  158.4430  210.8840  154.0690 F   0  0  0  0  0  0  0  0  0  0  0  0
  158.5940  212.1060  155.9460 F   0  0  0  0  0  0  0  0  0  0  0  0
  157.0450  210.4860  155.7910 F   0  0  0  0  0  0  0  0  0  0  0  0
  158.3360  210.8440  155.4460 C   0  0  0  0  0  0  0  0  0  0  0  0
  161.4550  211.0230  154.5310 N   0  0  0  0  0  2  0  0  0  0  0  0
  162.0170  211.4030  155.7560 N   0  0  0  0  0  2  0  0  0  0  0  0
  163.1350  210.6560  155.9200 O   0  0  0  0  0  1  0  0  0  0  0  0
  161.1860  204.4940  149.9400 C   0  0  0  0  0  2  0  0  0  0  0  0
  161.2520  204.9170  148.5100 C   0  0  0  0  0  0  0  0  0  0  0  0
  162.0440  204.5630  146.2470 C   0  0  0  0  0  3  0  0  0  0  0  0
  160.5450  206.0470  148.0830 C   0  0  0  0  0  3  0  0  0  0  0  0
  161.3430  205.6950  145.8240 C   0  0  0  0  0  3  0  0  0  0  0  0
  160.5930  206.4370  146.7420 C   0  0  0  0  0  3  0  0  0  0  0  0
  161.9980  204.1720  147.5880 C   0  0  0  0  0  3  0  0  0  0  0  0
  1  7  1  0  0  0  0
  1  5  1  0  0  0  0
  2 12  1  0  0  0  0
  3  8  1  0  0  0  0
  4 20  1  6  0  0  0
  4 11  1  0  0  0  0
  5  4  1  0  0  0  0
  7  2  1  0  0  0  0
  8  7  2  0  0  0  0
  9  5  2  0  0  0  0
 10  3  2  0  0  0  0
 10 13  1  0  0  0  0
 11 12  1  0  0  0  0
 11 15  1  1  0  0  0
 12  6  2  0  0  0  0
 13  1  2  0  0  0  0
 14 13  1  0  0  0  0
 14  9  1  0  0  0  0
 16 19  1  0  0  0  0
 19 18  1  0  0  0  0
 19 17  1  0  0  0  0
 19 15  1  0  0  0  0
 20 21  1  0  0  0  0
 21 22  1  0  0  0  0
 23  3  1  0  0  0  0
 24 23  1  0  0  0  0
 25 29  1  0  0  0  0
 26 24  1  0  0  0  0
 27 25  2  0  0  0  0
 27 28  1  0  0  0  0
 28 26  2  0  0  0  0
 29 24  2  0  0  0  0
M  END
>  <MODEL>
3

>  <REMARK>
 VINA RESULT:      -8.3      5.302      9.059
  Name = 
  6 active torsions:
  status: ('A' for Active; 'I' for Inactive)
    1  A    between atoms: C_1  and  C_26
    2  A    between atoms: C_5  and  C_26
    3  A    between atoms: C_6  and  N_25
    4  A    between atoms: C_15  and  C_21
    5  A    between atoms: C_20  and  C_21
    6  A    between atoms: N_22  and  N_25
                            x       y       z     vdW  Elec       q    Type
                         _______ _______ _______ _____ _____    ______ ____

>  <TORSDO>
F 6

$$$$
=
 OpenBabel11072413573D

 29 32  0  0  1  0  0  0  0  0999 V2000
  161.4750  207.9450  150.5550 C   0  0  0  0  0  0  0  0  0  0  0  0
  161.4850  208.4820  152.9980 N   0  0  0  0  0  2  0  0  0  0  0  0
  161.0870  205.2570  151.1210 C   0  0  0  0  0  0  0  0  0  0  0  0
  161.8790  210.4990  150.5350 C   0  0  2  0  0  3  0  0  0  0  0  0
  161.6840  209.1480  149.9100 C   0  0  0  0  0  0  0  0  0  0  0  0
  161.8760  210.5460  153.9600 O   0  0  0  0  0  0  0  0  0  0  0  0
  161.3570  207.5690  151.9010 C   0  0  0  0  0  0  0  0  0  0  0  0
  161.1660  206.2010  152.1690 C   0  0  0  0  0  3  0  0  0  0  0  0
  161.7450  208.9100  148.5760 N   0  0  0  0  0  0  0  0  0  0  0  0
  161.2060  205.6710  149.7810 C   0  0  0  0  0  3  0  0  0  0  0  0
  160.9490  210.6540  151.7470 C   0  0  1  0  0  3  0  0  0  0  0  0
  161.4650  209.9120  152.9530 C   0  0  0  0  0  0  0  0  0  0  0  0
  161.4060  207.0270  149.5430 C   0  0  0  0  0  0  0  0  0  0  0  0
  161.5680  207.6300  148.3920 O   0  0  0  0  0  0  0  0  0  0  0  0
  160.4730  212.0960  152.0330 C   0  0  0  0  0  2  0  0  0  0  0  0
  158.7640  213.2330  153.2420 F   0  0  0  0  0  0  0  0  0  0  0  0
  158.4080  211.1000  152.6380 F   0  0  0  0  0  0  0  0  0  0  0  0
  158.3320  212.7250  151.0890 F   0  0  0  0  0  0  0  0  0  0  0  0
  158.9670  212.3010  152.2430 C   0  0  0  0  0  0  0  0  0  0  0  0
  161.6240  211.5380  149.5440 N   0  0  0  0  0  2  0  0  0  0  0  0
  162.8210  211.7440  148.8470 N   0  0  0  0  0  2  0  0  0  0  0  0
  162.4850  212.2540  147.6390 O   0  0  0  0  0  1  0  0  0  0  0  0
  160.8590  203.8180  151.4390 C   0  0  0  0  0  2  0  0  0  0  0  0
  160.9280  202.9820  150.2040 C   0  0  0  0  0  0  0  0  0  0  0  0
  161.1560  202.8010  147.7980 C   0  0  0  0  0  3  0  0  0  0  0  0
  160.8720  201.5870  150.3020 C   0  0  0  0  0  3  0  0  0  0  0  0
  161.0920  201.4090  147.8970 C   0  0  0  0  0  3  0  0  0  0  0  0
  160.9510  200.8020  149.1490 C   0  0  0  0  0  3  0  0  0  0  0  0
  161.0750  203.5890  148.9510 C   0  0  0  0  0  3  0  0  0  0  0  0
  1  7  1  0  0  0  0
  3 23  1  0  0  0  0
  3  8  1  0  0  0  0
  4 20  1  6  0  0  0
  4 11  1  0  0  0  0
  5  4  1  0  0  0  0
  5  1  1  0  0  0  0
  7  8  2  0  0  0  0
  7  2  1  0  0  0  0
  9  5  2  0  0  0  0
 10  3  2  0  0  0  0
 11 15  1  1  0  0  0
 11 12  1  0  0  0  0
 12  2  1  0  0  0  0
 12  6  2  0  0  0  0
 13 10  1  0  0  0  0
 13  1  2  0  0  0  0
 14  9  1  0  0  0  0
 14 13  1  0  0  0  0
 15 19  1  0  0  0  0
 18 19  1  0  0  0  0
 19 17  1  0  0  0  0
 19 16  1  0  0  0  0
 21 20  1  0  0  0  0
 22 21  1  0  0  0  0
 24 26  1  0  0  0  0
 24 23  1  0  0  0  0
 25 27  2  0  0  0  0
 25 29  1  0  0  0  0
 27 28  1  0  0  0  0
 28 26  2  0  0  0  0
 29 24  2  0  0  0  0
M  END
>  <MODEL>
4

>  <REMARK>
 VINA RESULT:      -8.3      4.861      8.200
  Name = 
  6 active torsions:
  status: ('A' for Active; 'I' for Inactive)
    1  A    between atoms: C_1  and  C_26
    2  A    between atoms: C_5  and  C_26
    3  A    between atoms: C_6  and  N_25
    4  A    between atoms: C_15  and  C_21
    5  A    between atoms: C_20  and  C_21
    6  A    between atoms: N_22  and  N_25
                            x       y       z     vdW  Elec       q    Type
                         _______ _______ _______ _____ _____    ______ ____

>  <TORSDO>
F 6

$$$$
=
 OpenBabel11072413573D

 29 32  0  0  1  0  0  0  0  0999 V2000
  161.1840  206.5470  150.3710 C   0  0  0  0  0  0  0  0  0  0  0  0
  160.7640  204.1130  150.7620 N   0  0  0  0  0  2  0  0  0  0  0  0
  161.2320  207.0050  153.1070 C   0  0  0  0  0  0  0  0  0  0  0  0
  161.0080  205.6450  147.9550 C   0  0  2  0  0  3  0  0  0  0  0  0
  161.2010  206.7060  148.9990 C   0  0  0  0  0  0  0  0  0  0  0  0
  160.3750  202.4990  149.1540 O   0  0  0  0  0  0  0  0  0  0  0  0
  161.0170  205.4460  151.2230 C   0  0  0  0  0  0  0  0  0  0  0  0
  161.0390  205.6970  152.6070 C   0  0  0  0  0  3  0  0  0  0  0  0
  161.3700  208.0230  148.7250 N   0  0  0  0  0  0  0  0  0  0  0  0
  161.4010  208.0860  152.2230 C   0  0  0  0  0  3  0  0  0  0  0  0
  161.7050  204.3480  148.3890 C   0  0  1  0  0  3  0  0  0  0  0  0
  160.9120  203.6030  149.4330 C   0  0  0  0  0  0  0  0  0  0  0  0
  161.3630  207.8130  150.8590 C   0  0  0  0  0  0  0  0  0  0  0  0
  161.4700  208.6560  149.8630 O   0  0  0  0  0  0  0  0  0  0  0  0
  162.2380  203.4680  147.2370 C   0  0  0  0  0  2  0  0  0  0  0  0
  161.1500  201.4890  146.4780 F   0  0  0  0  0  0  0  0  0  0  0  0
  161.5790  203.1130  144.9880 F   0  0  0  0  0  0  0  0  0  0  0  0
  159.9330  203.3860  146.4930 F   0  0  0  0  0  0  0  0  0  0  0  0
  161.1960  202.8570  146.2910 C   0  0  0  0  0  0  0  0  0  0  0  0
  161.5300  206.1160  146.6770 N   0  0  0  0  0  2  0  0  0  0  0  0
  160.4270  206.4050  145.8640 N   0  0  0  0  0  2  0  0  0  0  0  0
  160.7480  205.9990  144.6130 O   0  0  0  0  0  1  0  0  0  0  0  0
  161.2750  207.2320  154.5810 C   0  0  0  0  0  2  0  0  0  0  0  0
  160.8780  208.6320  154.9140 C   0  0  0  0  0  0  0  0  0  0  0  0
  159.1970  210.2320  155.6150 C   0  0  0  0  0  3  0  0  0  0  0  0
  161.8330  209.6550  154.8780 C   0  0  0  0  0  3  0  0  0  0  0  0
  160.1510  211.2530  155.5710 C   0  0  0  0  0  3  0  0  0  0  0  0
  161.4690  210.9640  155.2030 C   0  0  0  0  0  3  0  0  0  0  0  0
  159.5600  208.9210  155.2880 C   0  0  0  0  0  3  0  0  0  0  0  0
  1 13  2  0  0  0  0
  1  7  1  0  0  0  0
  2  7  1  0  0  0  0
  3 23  1  0  0  0  0
  4 20  1  6  0  0  0
  4 11  1  0  0  0  0
  4  5  1  0  0  0  0
  5  1  1  0  0  0  0
  6 12  2  0  0  0  0
  7  8  2  0  0  0  0
  8  3  1  0  0  0  0
  9  5  2  0  0  0  0
  9 14  1  0  0  0  0
 10  3  2  0  0  0  0
 11 15  1  6  0  0  0
 11 12  1  0  0  0  0
 12  2  1  0  0  0  0
 13 10  1  0  0  0  0
 14 13  1  0  0  0  0
 17 19  1  0  0  0  0
 19 16  1  0  0  0  0
 19 18  1  0  0  0  0
 19 15  1  0  0  0  0
 21 20  1  0  0  0  0
 22 21  1  0  0  0  0
 23 24  1  0  0  0  0
 24 29  1  0  0  0  0
 26 24  2  0  0  0  0
 26 28  1  0  0  0  0
 27 25  1  0  0  0  0
 28 27  2  0  0  0  0
 29 25  2  0  0  0  0
M  END
>  <MODEL>
5

>  <REMARK>
 VINA RESULT:      -8.0      1.956      3.419
  Name = 
  6 active torsions:
  status: ('A' for Active; 'I' for Inactive)
    1  A    between atoms: C_1  and  C_26
    2  A    between atoms: C_5  and  C_26
    3  A    between atoms: C_6  and  N_25
    4  A    between atoms: C_15  and  C_21
    5  A    between atoms: C_20  and  C_21
    6  A    between atoms: N_22  and  N_25
                            x       y       z     vdW  Elec       q    Type
                         _______ _______ _______ _____ _____    ______ ____

>  <TORSDO>
F 6

$$$$
=
 OpenBabel11072413573D

 29 32  0  0  1  0  0  0  0  0999 V2000
  161.5150  208.2240  152.0370 C   0  0  0  0  0  0  0  0  0  0  0  0
  160.5310  206.5760  153.6410 N   0  0  0  0  0  2  0  0  0  0  0  0
  161.2700  206.3940  149.9670 C   0  0  0  0  0  0  0  0  0  0  0  0
  161.5840  209.5430  154.2600 C   0  0  2  0  0  3  0  0  0  0  0  0
  161.8060  209.3460  152.7890 C   0  0  0  0  0  0  0  0  0  0  0  0
  160.2750  206.8480  155.9220 O   0  0  0  0  0  0  0  0  0  0  0  0
  160.9410  206.9780  152.3280 C   0  0  0  0  0  0  0  0  0  0  0  0
  160.8300  206.0610  151.2670 C   0  0  0  0  0  3  0  0  0  0  0  0
  162.3970  210.2590  151.9780 N   0  0  0  0  0  0  0  0  0  0  0  0
  161.8370  207.6560  149.7100 C   0  0  0  0  0  3  0  0  0  0  0  0
  160.2520  208.9030  154.6790 C   0  0  1  0  0  3  0  0  0  0  0  0
  160.3570  207.4050  154.7960 C   0  0  0  0  0  0  0  0  0  0  0  0
  161.9470  208.5400  150.7780 C   0  0  0  0  0  0  0  0  0  0  0  0
  162.4600  209.7450  150.7800 O   0  0  0  0  0  0  0  0  0  0  0  0
  159.5330  209.5920  155.8600 C   0  0  0  0  0  2  0  0  0  0  0  0
  158.5730  210.9490  154.1540 F   0  0  0  0  0  0  0  0  0  0  0  0
  158.8870  211.8500  156.1860 F   0  0  0  0  0  0  0  0  0  0  0  0
  157.2340  210.3610  155.8690 F   0  0  0  0  0  0  0  0  0  0  0  0
  158.5280  210.6980  155.5110 C   0  0  0  0  0  0  0  0  0  0  0  0
  161.6000  210.9680  154.5710 N   0  0  0  0  0  2  0  0  0  0  0  0
  162.1650  211.1030  155.8450 N   0  0  0  0  0  2  0  0  0  0  0  0
  163.4550  210.7030  155.7430 O   0  0  0  0  0  1  0  0  0  0  0  0
  161.1140  205.4070  148.8590 C   0  0  0  0  0  2  0  0  0  0  0  0
  161.0590  204.0140  149.3930 C   0  0  0  0  0  0  0  0  0  0  0  0
  160.8180  201.6300  149.0280 C   0  0  0  0  0  3  0  0  0  0  0  0
  161.2410  203.7840  150.7620 C   0  0  0  0  0  3  0  0  0  0  0  0
  160.9930  201.4030  150.3960 C   0  0  0  0  0  3  0  0  0  0  0  0
  161.2050  202.4800  151.2630 C   0  0  0  0  0  3  0  0  0  0  0  0
  160.8520  202.9340  148.5250 C   0  0  0  0  0  3  0  0  0  0  0  0
  1  7  1  0  0  0  0
  1  5  1  0  0  0  0
  2 12  1  0  0  0  0
  3  8  1  0  0  0  0
  4 20  1  6  0  0  0
  4 11  1  0  0  0  0
  5  4  1  0  0  0  0
  7  2  1  0  0  0  0
  8  7  2  0  0  0  0
  9  5  2  0  0  0  0
 10  3  2  0  0  0  0
 10 13  1  0  0  0  0
 11 12  1  0  0  0  0
 11 15  1  1  0  0  0
 12  6  2  0  0  0  0
 13 14  1  0  0  0  0
 13  1  2  0  0  0  0
 14  9  1  0  0  0  0
 16 19  1  0  0  0  0
 19 15  1  0  0  0  0
 19 18  1  0  0  0  0
 19 17  1  0  0  0  0
 20 21  1  0  0  0  0
 22 21  1  0  0  0  0
 23 24  1  0  0  0  0
 23  3  1  0  0  0  0
 24 26  1  0  0  0  0
 25 27  2  0  0  0  0
 26 28  2  0  0  0  0
 27 28  1  0  0  0  0
 29 25  1  0  0  0  0
 29 24  2  0  0  0  0
M  END
>  <MODEL>
6

>  <REMARK>
 VINA RESULT:      -8.0      5.377      8.834
  Name = 
  6 active torsions:
  status: ('A' for Active; 'I' for Inactive)
    1  A    between atoms: C_1  and  C_26
    2  A    between atoms: C_5  and  C_26
    3  A    between atoms: C_6  and  N_25
    4  A    between atoms: C_15  and  C_21
    5  A    between atoms: C_20  and  C_21
    6  A    between atoms: N_22  and  N_25
                            x       y       z     vdW  Elec       q    Type
                         _______ _______ _______ _____ _____    ______ ____

>  <TORSDO>
F 6

$$$$
=
 OpenBabel11072413573D

 29 32  0  0  1  0  0  0  0  0999 V2000
  161.3670  207.6170  152.5310 C   0  0  0  0  0  0  0  0  0  0  0  0
  160.6210  209.9970  152.3450 N   0  0  0  0  0  2  0  0  0  0  0  0
  161.8530  207.5300  149.8010 C   0  0  0  0  0  0  0  0  0  0  0  0
  160.7280  208.1640  154.9760 C   0  0  2  0  0  3  0  0  0  0  0  0
  161.2260  207.2860  153.8640 C   0  0  0  0  0  0  0  0  0  0  0  0
  159.7680  211.3160  154.0400 O   0  0  0  0  0  0  0  0  0  0  0  0
  161.1420  208.7850  151.7880 C   0  0  0  0  0  0  0  0  0  0  0  0
  161.3890  208.7210  150.4040 C   0  0  0  0  0  3  0  0  0  0  0  0
  161.5650  205.9820  154.0170 N   0  0  0  0  0  0  0  0  0  0  0  0
  162.0720  206.3780  150.5780 C   0  0  0  0  0  3  0  0  0  0  0  0
  161.2610  209.5920  154.7940 C   0  0  1  0  0  3  0  0  0  0  0  0
  160.5060  210.3450  153.7290 C   0  0  0  0  0  0  0  0  0  0  0  0
  161.8100  206.4640  151.9420 C   0  0  0  0  0  0  0  0  0  0  0  0
  161.9150  205.5220  152.8460 O   0  0  0  0  0  0  0  0  0  0  0  0
  161.4880  210.3820  156.1020 C   0  0  0  0  0  2  0  0  0  0  0  0
  163.4520  209.6390  157.2280 F   0  0  0  0  0  0  0  0  0  0  0  0
  162.9650  211.8300  157.2610 F   0  0  0  0  0  0  0  0  0  0  0  0
  163.7440  210.8880  155.3760 F   0  0  0  0  0  0  0  0  0  0  0  0
  162.9430  210.6860  156.4850 C   0  0  0  0  0  0  0  0  0  0  0  0
  161.1420  207.6100  156.2600 N   0  0  0  0  0  2  0  0  0  0  0  0
  159.9760  207.2860  156.9630 N   0  0  0  0  0  2  0  0  0  0  0  0
  158.9890  207.1620  156.0440 O   0  0  0  0  0  1  0  0  0  0  0  0
  162.1280  207.5040  148.3350 C   0  0  0  0  0  2  0  0  0  0  0  0
  161.9490  206.1280  147.7850 C   0  0  0  0  0  0  0  0  0  0  0  0
  161.1430  203.8550  148.0270 C   0  0  0  0  0  3  0  0  0  0  0  0
  162.3830  205.8340  146.4870 C   0  0  0  0  0  3  0  0  0  0  0  0
  161.5840  203.5610  146.7340 C   0  0  0  0  0  3  0  0  0  0  0  0
  162.2030  204.5510  145.9640 C   0  0  0  0  0  3  0  0  0  0  0  0
  161.3240  205.1380  148.5530 C   0  0  0  0  0  3  0  0  0  0  0  0
  1  5  1  0  0  0  0
  2 12  1  0  0  0  0
  3  8  2  0  0  0  0
  3 10  1  0  0  0  0
  4 20  1  1  0  0  0
  5  9  2  0  0  0  0
  5  4  1  0  0  0  0
  7  2  1  0  0  0  0
  7  1  2  0  0  0  0
  8  7  1  0  0  0  0
 10 13  2  0  0  0  0
 11  4  1  0  0  0  0
 11 15  1  1  0  0  0
 12  6  2  0  0  0  0
 12 11  1  0  0  0  0
 13  1  1  0  0  0  0
 13 14  1  0  0  0  0
 14  9  1  0  0  0  0
 15 19  1  0  0  0  0
 18 19  1  0  0  0  0
 19 16  1  0  0  0  0
 19 17  1  0  0  0  0
 20 21  1  0  0  0  0
 22 21  1  0  0  0  0
 23  3  1  0  0  0  0
 24 23  1  0  0  0  0
 24 29  1  0  0  0  0
 25 29  2  0  0  0  0
 26 24  2  0  0  0  0
 27 25  1  0  0  0  0
 28 26  1  0  0  0  0
 28 27  2  0  0  0  0
M  END
>  <MODEL>
7

>  <REMARK>
 VINA RESULT:      -7.9      5.451      8.873
  Name = 
  6 active torsions:
  status: ('A' for Active; 'I' for Inactive)
    1  A    between atoms: C_1  and  C_26
    2  A    between atoms: C_5  and  C_26
    3  A    between atoms: C_6  and  N_25
    4  A    between atoms: C_15  and  C_21
    5  A    between atoms: C_20  and  C_21
    6  A    between atoms: N_22  and  N_25
                            x       y       z     vdW  Elec       q    Type
                         _______ _______ _______ _____ _____    ______ ____

>  <TORSDO>
F 6

$$$$
=
 OpenBabel11072413573D

 29 32  0  0  1  0  0  0  0  0999 V2000
  161.1880  203.8470  149.8350 C   0  0  0  0  0  0  0  0  0  0  0  0
  162.3810  205.4430  148.3230 N   0  0  0  0  0  2  0  0  0  0  0  0
  161.1380  205.7520  151.8490 C   0  0  0  0  0  0  0  0  0  0  0  0
  161.5180  202.4150  147.7070 C   0  0  2  0  0  3  0  0  0  0  0  0
  161.0510  202.6800  149.1090 C   0  0  0  0  0  0  0  0  0  0  0  0
  163.1800  205.0040  146.1990 O   0  0  0  0  0  0  0  0  0  0  0  0
  161.7400  205.1050  149.5590 C   0  0  0  0  0  0  0  0  0  0  0  0
  161.7110  206.0580  150.5950 C   0  0  0  0  0  3  0  0  0  0  0  0
  160.4570  201.7530  149.9020 N   0  0  0  0  0  0  0  0  0  0  0  0
  160.5880  204.4800  152.0890 C   0  0  0  0  0  3  0  0  0  0  0  0
  161.2930  203.6600  146.8360 C   0  0  1  0  0  3  0  0  0  0  0  0
  162.3340  204.7200  147.0880 C   0  0  0  0  0  0  0  0  0  0  0  0
  160.6400  203.5520  151.0540 C   0  0  0  0  0  0  0  0  0  0  0  0
  160.2200  202.3120  151.0580 O   0  0  0  0  0  0  0  0  0  0  0  0
  161.0090  203.3780  145.3440 C   0  0  0  0  0  2  0  0  0  0  0  0
  161.2370  205.0140  143.6270 F   0  0  0  0  0  0  0  0  0  0  0  0
  159.9710  205.5090  145.4140 F   0  0  0  0  0  0  0  0  0  0  0  0
  159.2090  204.0620  143.8730 F   0  0  0  0  0  0  0  0  0  0  0  0
  160.3380  204.5010  144.5420 C   0  0  0  0  0  0  0  0  0  0  0  0
  160.8080  201.2620  147.1640 N   0  0  0  0  0  2  0  0  0  0  0  0
  161.6430  200.1510  147.3300 N   0  0  0  0  0  2  0  0  0  0  0  0
  161.4770  199.3710  146.2350 O   0  0  0  0  0  1  0  0  0  0  0  0
  161.1010  206.7940  152.9170 C   0  0  0  0  0  2  0  0  0  0  0  0
  161.2000  208.1620  152.3280 C   0  0  0  0  0  0  0  0  0  0  0  0
  160.4430  210.4610  152.2120 C   0  0  0  0  0  3  0  0  0  0  0  0
  162.1790  208.4380  151.3660 C   0  0  0  0  0  3  0  0  0  0  0  0
  161.4160  210.7330  151.2460 C   0  0  0  0  0  3  0  0  0  0  0  0
  162.2840  209.7210  150.8240 C   0  0  0  0  0  3  0  0  0  0  0  0
  160.3350  209.1770  152.7540 C   0  0  0  0  0  3  0  0  0  0  0  0
  1 13  1  0  0  0  0
  2  7  1  0  0  0  0
  3 10  1  0  0  0  0
  3 23  1  0  0  0  0
  4 20  1  6  0  0  0
  4  5  1  0  0  0  0
  5  1  1  0  0  0  0
  5  9  2  0  0  0  0
  6 12  2  0  0  0  0
  7  1  2  0  0  0  0
  7  8  1  0  0  0  0
  8  3  2  0  0  0  0
  9 14  1  0  0  0  0
 11 15  1  6  0  0  0
 11 12  1  0  0  0  0
 11  4  1  0  0  0  0
 12  2  1  0  0  0  0
 13 14  1  0  0  0  0
 13 10  2  0  0  0  0
 16 19  1  0  0  0  0
 18 19  1  0  0  0  0
 19 15  1  0  0  0  0
 19 17  1  0  0  0  0
 20 21  1  0  0  0  0
 22 21  1  0  0  0  0
 24 29  1  0  0  0  0
 24 23  1  0  0  0  0
 25 29  2  0  0  0  0
 26 24  2  0  0  0  0
 27 25  1  0  0  0  0
 28 27  2  0  0  0  0
 28 26  1  0  0  0  0
M  END
>  <MODEL>
8

>  <REMARK>
 VINA RESULT:      -7.9      1.277      2.201
  Name = 
  6 active torsions:
  status: ('A' for Active; 'I' for Inactive)
    1  A    between atoms: C_1  and  C_26
    2  A    between atoms: C_5  and  C_26
    3  A    between atoms: C_6  and  N_25
    4  A    between atoms: C_15  and  C_21
    5  A    between atoms: C_20  and  C_21
    6  A    between atoms: N_22  and  N_25
                            x       y       z     vdW  Elec       q    Type
                         _______ _______ _______ _____ _____    ______ ____

>  <TORSDO>
F 6

$$$$
=
 OpenBabel11072413573D

 29 32  0  0  1  0  0  0  0  0999 V2000
  161.3120  207.4730  152.3910 C   0  0  0  0  0  0  0  0  0  0  0  0
  161.4570  207.1810  154.8710 N   0  0  0  0  0  2  0  0  0  0  0  0
  161.1130  204.7270  152.0530 C   0  0  0  0  0  0  0  0  0  0  0  0
  161.5720  209.9160  153.1970 C   0  0  2  0  0  3  0  0  0  0  0  0
  161.4100  208.8330  152.1700 C   0  0  0  0  0  0  0  0  0  0  0  0
  161.7980  208.8410  156.4420 O   0  0  0  0  0  0  0  0  0  0  0  0
  161.3060  206.6700  153.5400 C   0  0  0  0  0  0  0  0  0  0  0  0
  161.2110  205.2790  153.3500 C   0  0  0  0  0  3  0  0  0  0  0  0
  161.3940  209.0490  150.8310 N   0  0  0  0  0  0  0  0  0  0  0  0
  161.1180  205.5630  150.9220 C   0  0  0  0  0  3  0  0  0  0  0  0
  160.7190  209.5960  154.4330 C   0  0  1  0  0  3  0  0  0  0  0  0
  161.3560  208.5420  155.3020 C   0  0  0  0  0  0  0  0  0  0  0  0
  161.2260  206.9330  151.1360 C   0  0  0  0  0  0  0  0  0  0  0  0
  161.2770  207.8890  150.2430 O   0  0  0  0  0  0  0  0  0  0  0  0
  160.1840  210.8260  155.2010 C   0  0  0  0  0  2  0  0  0  0  0  0
  158.6470  211.3100  156.9560 F   0  0  0  0  0  0  0  0  0  0  0  0
  158.3480  209.4340  155.7600 F   0  0  0  0  0  0  0  0  0  0  0  0
  157.8640  211.4290  154.8460 F   0  0  0  0  0  0  0  0  0  0  0  0
  158.7320  210.7600  155.6910 C   0  0  0  0  0  0  0  0  0  0  0  0
  161.1930  211.2000  152.6180 N   0  0  0  0  0  2  0  0  0  0  0  0
  159.8540  211.0940  152.2250 N   0  0  0  0  0  2  0  0  0  0  0  0
  159.3720  212.3570  152.1390 O   0  0  0  0  0  1  0  0  0  0  0  0
  160.9880  203.2490  151.8880 C   0  0  0  0  0  2  0  0  0  0  0  0
  160.9900  202.8740  150.4440 C   0  0  0  0  0  0  0  0  0  0  0  0
  161.2080  203.4920  148.1100 C   0  0  0  0  0  3  0  0  0  0  0  0
  160.8170  201.5360  150.0710 C   0  0  0  0  0  3  0  0  0  0  0  0
  161.0280  202.1560  147.7400 C   0  0  0  0  0  3  0  0  0  0  0  0
  160.8340  201.1780  148.7200 C   0  0  0  0  0  3  0  0  0  0  0  0
  161.1900  203.8510  149.4620 C   0  0  0  0  0  3  0  0  0  0  0  0
  1  7  1  0  0  0  0
  2 12  1  0  0  0  0
  3  8  1  0  0  0  0
  4 20  1  6  0  0  0
  4 11  1  0  0  0  0
  5  1  1  0  0  0  0
  5  4  1  0  0  0  0
  7  2  1  0  0  0  0
  8  7  2  0  0  0  0
  9  5  2  0  0  0  0
 10 13  1  0  0  0  0
 10  3  2  0  0  0  0
 11 15  1  1  0  0  0
 11 12  1  0  0  0  0
 12  6  2  0  0  0  0
 13  1  2  0  0  0  0
 14  9  1  0  0  0  0
 14 13  1  0  0  0  0
 15 19  1  0  0  0  0
 18 19  1  0  0  0  0
 19 17  1  0  0  0  0
 19 16  1  0  0  0  0
 21 20  1  0  0  0  0
 22 21  1  0  0  0  0
 23  3  1  0  0  0  0
 24 23  1  0  0  0  0
 25 29  1  0  0  0  0
 26 24  1  0  0  0  0
 27 25  2  0  0  0  0
 27 28  1  0  0  0  0
 28 26  2  0  0  0  0
 29 24  2  0  0  0  0
M  END
>  <MODEL>
9

>  <REMARK>
 VINA RESULT:      -7.9      5.382      8.943
  Name = 
  6 active torsions:
  status: ('A' for Active; 'I' for Inactive)
    1  A    between atoms: C_1  and  C_26
    2  A    between atoms: C_5  and  C_26
    3  A    between atoms: C_6  and  N_25
    4  A    between atoms: C_15  and  C_21
    5  A    between atoms: C_20  and  C_21
    6  A    between atoms: N_22  and  N_25
                            x       y       z     vdW  Elec       q    Type
                         _______ _______ _______ _____ _____    ______ ____

>  <TORSDO>
F 6

$$$$
