=
 OpenBabel11072414373D

 36 40  0  0  1  0  0  0  0  0999 V2000
  158.7170  213.1090  151.8600 C   0  0  1  0  0  3  0  0  0  0  0  0
  162.4010  209.7290  156.0800 C   0  0  0  0  0  1  0  0  0  0  0  0
  160.9500  211.7060  155.6390 C   0  0  0  0  0  2  0  0  0  0  0  0
  160.5950  209.1620  153.1630 C   0  0  2  0  0  3  0  0  0  0  0  0
  161.8400  209.9640  152.8170 C   0  0  1  0  0  3  0  0  0  0  0  0
  157.1820  210.7890  154.9810 O   0  0  0  0  0  1  0  0  0  0  0  0
  156.2690  213.2680  156.3200 C   0  0  0  0  0  2  0  0  0  0  0  0
  160.4610  209.4560  154.5880 C   0  0  0  0  0  0  0  0  0  0  0  0
  160.9430  213.1870  151.0310 N   0  0  0  0  0  0  0  0  0  0  0  0
  158.6410  212.4230  156.0070 C   0  0  1  0  0  3  0  0  0  0  0  0
  157.5640  212.8180  157.0190 C   0  0  0  0  0  2  0  0  0  0  0  0
  159.7350  213.9900  151.1310 C   0  0  0  0  0  3  0  0  0  0  0  0
  159.7470  211.5510  156.5650 C   0  0  0  0  0  2  0  0  0  0  0  0
  161.6740  210.7970  151.5400 C   0  0  0  0  0  2  0  0  0  0  0  0
  159.4550  211.8230  152.0730 C   0  0  0  0  0  3  0  0  0  0  0  0
  159.6110  208.9490  155.3070 O   0  0  0  0  0  0  0  0  0  0  0  0
  161.5080  210.4050  155.0520 C   0  0  2  0  0  0  0  0  0  0  0  0
  158.0410  211.8600  154.7180 C   0  0  2  0  0  3  0  0  0  0  0  0
  156.5320  213.9370  154.9470 C   0  0  1  0  0  3  0  0  0  0  0  0
  162.2780  210.7490  153.9180 O   0  0  0  0  0  0  0  0  0  0  0  0
  158.3240  213.7800  153.1770 C   0  0  0  0  0  2  0  0  0  0  0  0
  157.2970  212.9800  153.9820 C   0  0  1  0  0  3  0  0  0  0  0  0
  160.6930  211.9310  151.6280 C   0  0  0  0  0  0  0  0  0  0  0  0
  160.9130  206.8320  154.0100 C   0  0  0  0  0  3  0  0  0  0  0  0
  161.1830  205.8220  151.4150 C   0  0  0  0  0  3  0  0  0  0  0  0
  161.1530  205.4690  153.8090 C   0  0  0  0  0  3  0  0  0  0  0  0
  161.2870  204.9640  152.5130 C   0  0  0  0  0  3  0  0  0  0  0  0
  160.7980  207.6960  152.9150 C   0  0  0  0  0  0  0  0  0  0  0  0
  160.9440  207.1850  151.6130 C   0  0  0  0  0  3  0  0  0  0  0  0
  155.2770  214.4050  154.3260 N   0  0  0  0  0  0  0  0  0  0  0  0
  154.1620  214.2020  155.2490 C   0  0  0  0  0  1  0  0  0  0  0  0
  154.9670  213.6800  153.0830 C   0  0  0  0  0  2  0  0  0  0  0  0
  155.3440  214.4520  151.8160 C   0  0  0  0  0  2  0  0  0  0  0  0
  154.9030  213.6840  150.5860 C   0  0  0  0  0  3  0  0  0  0  0  0
  156.0030  213.4780  149.7520 O   0  0  0  0  0  1  0  0  0  0  0  0
  153.9320  214.4100  149.8940 O   0  0  0  0  0  1  0  0  0  0  0  0
  1 12  1  1  0  0  0
  1 15  1  0  0  0  0
  1 21  1  0  0  0  0
  3 13  1  0  0  0  0
  4 28  1  1  0  0  0
  4  8  1  0  0  0  0
  5 14  1  6  0  0  0
  5  4  1  0  0  0  0
  5 20  1  0  0  0  0
  7 11  1  0  0  0  0
  8 17  1  0  0  0  0
  8 16  2  0  0  0  0
  9 12  2  0  0  0  0
  9 23  1  0  0  0  0
 10 13  1  1  0  0  0
 10 11  1  0  0  0  0
 14 23  1  0  0  0  0
 17  3  1  0  0  0  0
 17  2  1  1  0  0  0
 18  6  1  1  0  0  0
 18 10  1  0  0  0  0
 19 30  1  6  0  0  0
 19  7  1  0  0  0  0
 20 17  1  0  0  0  0
 22 21  1  1  0  0  0
 22 18  1  0  0  0  0
 22 19  1  0  0  0  0
 23 15  2  0  0  0  0
 25 29  2  0  0  0  0
 25 27  1  0  0  0  0
 26 24  1  0  0  0  0
 27 26  2  0  0  0  0
 28 24  2  0  0  0  0
 29 28  1  0  0  0  0
 30 31  1  0  0  0  0
 32 30  1  0  0  0  0
 33 32  1  0  0  0  0
 34 33  1  0  0  0  0
 35 34  1  0  0  0  0
 36 34  1  0  0  0  0
M  END
>  <MODEL>
1

>  <REMARK>
 VINA RESULT:      -5.2      0.000      0.000
  Name = 
  5 active torsions:
  status: ('A' for Active; 'I' for Inactive)
    1  A    between atoms: C_2  and  N_3
    2  A    between atoms: C_2  and  C_19
    3  A    between atoms: N_3  and  C_27
    4  A    between atoms: C_6  and  C_29
    5  A    between atoms: C_14  and  C_19
                            x       y       z     vdW  Elec       q    Type
                         _______ _______ _______ _____ _____    ______ ____

>  <TORSDO>
F 5

$$$$
=
 OpenBabel11072414373D

 36 40  0  0  1  0  0  0  0  0999 V2000
  158.8070  213.5020  142.7350 C   0  0  1  0  0  3  0  0  0  0  0  0
  163.0840  213.4720  137.7840 C   0  0  0  0  0  1  0  0  0  0  0  0
  162.3780  214.4290  139.9740 C   0  0  0  0  0  2  0  0  0  0  0  0
  160.7930  211.3130  139.2620 C   0  0  2  0  0  3  0  0  0  0  0  0
  160.0310  212.3940  138.5120 C   0  0  1  0  0  3  0  0  0  0  0  0
  162.6610  211.8980  142.9720 O   0  0  0  0  0  1  0  0  0  0  0  0
  163.4080  214.0760  144.8350 C   0  0  0  0  0  2  0  0  0  0  0  0
  162.0840  211.9680  139.4580 C   0  0  0  0  0  0  0  0  0  0  0  0
  157.6140  214.2090  140.8040 N   0  0  0  0  0  0  0  0  0  0  0  0
  162.9310  214.2200  142.3470 C   0  0  1  0  0  3  0  0  0  0  0  0
  163.9670  214.4450  143.4500 C   0  0  0  0  0  2  0  0  0  0  0  0
  157.7000  214.4350  142.2380 C   0  0  0  0  0  3  0  0  0  0  0  0
  163.5060  214.1040  140.9500 C   0  0  0  0  0  2  0  0  0  0  0  0
  158.6240  212.6270  139.0750 C   0  0  0  0  0  2  0  0  0  0  0  0
  159.2320  212.7720  141.4980 C   0  0  0  0  0  3  0  0  0  0  0  0
  163.0510  211.4200  139.9700 O   0  0  0  0  0  0  0  0  0  0  0  0
  162.0820  213.3560  138.9210 C   0  0  2  0  0  0  0  0  0  0  0  0
  161.9700  213.0790  142.6840 C   0  0  2  0  0  3  0  0  0  0  0  0
  161.8810  214.3130  144.9450 C   0  0  1  0  0  3  0  0  0  0  0  0
  160.7810  213.5980  138.4250 O   0  0  0  0  0  0  0  0  0  0  0  0
  159.9370  214.3390  143.3350 C   0  0  0  0  0  2  0  0  0  0  0  0
  161.0960  213.4970  143.8730 C   0  0  1  0  0  3  0  0  0  0  0  0
  158.5670  213.2250  140.4530 C   0  0  0  0  0  0  0  0  0  0  0  0
  159.8200  209.2130  138.3180 C   0  0  0  0  0  3  0  0  0  0  0  0
  162.2540  208.5000  137.1370 C   0  0  0  0  0  3  0  0  0  0  0  0
  159.9280  208.0170  137.6010 C   0  0  0  0  0  3  0  0  0  0  0  0
  161.1440  207.6610  137.0110 C   0  0  0  0  0  3  0  0  0  0  0  0
  160.9250  210.0630  138.4410 C   0  0  0  0  0  0  0  0  0  0  0  0
  162.1480  209.6960  137.8530 C   0  0  0  0  0  3  0  0  0  0  0  0
  161.3820  214.0020  146.3000 N   0  0  0  0  0  0  0  0  0  0  0  0
  162.4430  214.2270  147.2810 C   0  0  0  0  0  1  0  0  0  0  0  0
  160.9460  212.6020  146.4250 C   0  0  0  0  0  2  0  0  0  0  0  0
  159.5780  212.4460  147.0920 C   0  0  0  0  0  2  0  0  0  0  0  0
  158.7110  213.6550  146.7950 C   0  0  0  0  0  3  0  0  0  0  0  0
  158.2230  214.1780  147.9920 O   0  0  0  0  0  1  0  0  0  0  0  0
  157.6380  213.2820  145.9850 O   0  0  0  0  0  1  0  0  0  0  0  0
  1 15  1  6  0  0  0
  1 21  1  0  0  0  0
  3 13  1  0  0  0  0
  4 28  1  6  0  0  0
  4  8  1  0  0  0  0
  5 14  1  1  0  0  0
  5  4  1  0  0  0  0
  7 19  1  0  0  0  0
  8 16  2  0  0  0  0
  9 12  2  0  0  0  0
 10 13  1  6  0  0  0
 10 18  1  0  0  0  0
 10 11  1  0  0  0  0
 11  7  1  0  0  0  0
 12  1  1  0  0  0  0
 14 23  1  0  0  0  0
 17  2  1  6  0  0  0
 17  8  1  0  0  0  0
 17  3  1  0  0  0  0
 18  6  1  1  0  0  0
 18 22  1  0  0  0  0
 19 30  1  1  0  0  0
 20  5  1  0  0  0  0
 20 17  1  0  0  0  0
 22 21  1  6  0  0  0
 22 19  1  0  0  0  0
 23  9  1  0  0  0  0
 23 15  2  0  0  0  0
 24 28  1  0  0  0  0
 25 29  1  0  0  0  0
 26 24  2  0  0  0  0
 27 25  2  0  0  0  0
 27 26  1  0  0  0  0
 29 28  2  0  0  0  0
 30 32  1  0  0  0  0
 30 31  1  0  0  0  0
 32 33  1  0  0  0  0
 34 33  1  0  0  0  0
 34 35  1  0  0  0  0
 36 34  1  0  0  0  0
M  END
>  <MODEL>
2

>  <REMARK>
 VINA RESULT:      -4.8     10.301     13.029
  Name = 
  5 active torsions:
  status: ('A' for Active; 'I' for Inactive)
    1  A    between atoms: C_2  and  N_3
    2  A    between atoms: C_2  and  C_19
    3  A    between atoms: N_3  and  C_27
    4  A    between atoms: C_6  and  C_29
    5  A    between atoms: C_14  and  C_19
                            x       y       z     vdW  Elec       q    Type
                         _______ _______ _______ _____ _____    ______ ____

>  <TORSDO>
F 5

$$$$
=
 OpenBabel11072414373D

 36 40  0  0  1  0  0  0  0  0999 V2000
  159.8940  212.6000  149.9930 C   0  0  1  0  0  3  0  0  0  0  0  0
  162.3160  209.5880  155.2720 C   0  0  0  0  0  1  0  0  0  0  0  0
  161.1770  211.5800  154.3000 C   0  0  0  0  0  2  0  0  0  0  0  0
  161.0880  208.7510  152.1280 C   0  0  2  0  0  3  0  0  0  0  0  0
  162.4470  209.4110  151.9600 C   0  0  1  0  0  3  0  0  0  0  0  0
  157.5490  210.8390  152.9730 O   0  0  0  0  0  1  0  0  0  0  0  0
  156.6240  213.5350  153.7810 C   0  0  0  0  0  2  0  0  0  0  0  0
  160.6990  209.2450  153.4470 C   0  0  0  0  0  0  0  0  0  0  0  0
  162.2380  212.4130  149.6510 N   0  0  0  0  0  0  0  0  0  0  0  0
  158.9200  212.4960  154.0810 C   0  0  1  0  0  3  0  0  0  0  0  0
  157.7040  213.0980  154.7870 C   0  0  0  0  0  2  0  0  0  0  0  0
  161.1160  213.3020  149.3960 C   0  0  0  0  0  3  0  0  0  0  0  0
  159.8030  211.6350  154.9620 C   0  0  0  0  0  2  0  0  0  0  0  0
  162.6210  210.0710  150.5860 C   0  0  0  0  0  2  0  0  0  0  0  0
  160.4480  211.3090  150.5100 C   0  0  0  0  0  3  0  0  0  0  0  0
  159.6770  208.9010  154.0240 O   0  0  0  0  0  0  0  0  0  0  0  0
  161.7160  210.1760  154.0050 C   0  0  2  0  0  0  0  0  0  0  0  0
  158.5410  211.8040  152.7720 C   0  0  2  0  0  3  0  0  0  0  0  0
  157.2210  213.9900  152.4250 C   0  0  1  0  0  3  0  0  0  0  0  0
  162.7270  210.3080  153.0260 O   0  0  0  0  0  0  0  0  0  0  0  0
  159.3090  213.4710  151.1060 C   0  0  0  0  0  2  0  0  0  0  0  0
  158.0710  212.8610  151.7660 C   0  0  1  0  0  3  0  0  0  0  0  0
  161.7550  211.2710  150.3280 C   0  0  0  0  0  0  0  0  0  0  0  0
  160.9960  206.5760  150.8990 C   0  0  0  0  0  3  0  0  0  0  0  0
  161.4750  205.1220  153.2400 C   0  0  0  0  0  3  0  0  0  0  0  0
  161.0420  205.1790  150.8590 C   0  0  0  0  0  3  0  0  0  0  0  0
  161.2820  204.4530  152.0290 C   0  0  0  0  0  3  0  0  0  0  0  0
  161.1970  207.2540  152.1060 C   0  0  0  0  0  0  0  0  0  0  0  0
  161.4290  206.5180  153.2820 C   0  0  0  0  0  3  0  0  0  0  0  0
  156.1670  214.4530  151.5000 N   0  0  0  0  0  0  0  0  0  0  0  0
  154.8720  214.4400  152.1800 C   0  0  0  0  0  1  0  0  0  0  0  0
  156.0560  213.5950  150.3090 C   0  0  0  0  0  2  0  0  0  0  0  0
  155.7930  214.3750  149.0190 C   0  0  0  0  0  2  0  0  0  0  0  0
  156.8370  214.0260  147.9760 C   0  0  0  0  0  3  0  0  0  0  0  0
  156.3590  214.3690  146.7110 O   0  0  0  0  0  1  0  0  0  0  0  0
  157.1040  212.6570  148.0100 O   0  0  0  0  0  1  0  0  0  0  0  0
  1 12  1  1  0  0  0
  1 15  1  0  0  0  0
  1 21  1  0  0  0  0
  3 13  1  0  0  0  0
  4 28  1  1  0  0  0
  4  8  1  0  0  0  0
  5 14  1  6  0  0  0
  5  4  1  0  0  0  0
  5 20  1  0  0  0  0
  7 11  1  0  0  0  0
  8 17  1  0  0  0  0
  8 16  2  0  0  0  0
  9 23  1  0  0  0  0
 10 11  1  1  0  0  0
 10 13  1  0  0  0  0
 12  9  2  0  0  0  0
 17  3  1  0  0  0  0
 17  2  1  1  0  0  0
 18  6  1  1  0  0  0
 18 10  1  0  0  0  0
 19 30  1  6  0  0  0
 19  7  1  0  0  0  0
 20 17  1  0  0  0  0
 22 21  1  1  0  0  0
 22 19  1  0  0  0  0
 22 18  1  0  0  0  0
 23 15  2  0  0  0  0
 23 14  1  0  0  0  0
 24 28  1  0  0  0  0
 25 29  1  0  0  0  0
 26 24  2  0  0  0  0
 26 27  1  0  0  0  0
 27 25  2  0  0  0  0
 28 29  2  0  0  0  0
 30 31  1  0  0  0  0
 32 30  1  0  0  0  0
 33 32  1  0  0  0  0
 34 36  1  0  0  0  0
 34 33  1  0  0  0  0
 35 34  1  0  0  0  0
M  END
>  <MODEL>
3

>  <REMARK>
 VINA RESULT:      -3.1      1.578      2.233
  Name = 
  5 active torsions:
  status: ('A' for Active; 'I' for Inactive)
    1  A    between atoms: C_2  and  N_3
    2  A    between atoms: C_2  and  C_19
    3  A    between atoms: N_3  and  C_27
    4  A    between atoms: C_6  and  C_29
    5  A    between atoms: C_14  and  C_19
                            x       y       z     vdW  Elec       q    Type
                         _______ _______ _______ _____ _____    ______ ____

>  <TORSDO>
F 5

$$$$
