=
 OpenBabel11072415163D

 40 44  0  0  1  0  0  0  0  0999 V2000
  158.1900  211.5790  154.1990 C   0  0  1  0  0  3  0  0  0  0  0  0
  160.0350  212.9360  150.6340 C   0  0  0  0  0  0  0  0  0  0  0  0
  160.7570  212.1400  151.5270 C   0  0  0  0  0  3  0  0  0  0  0  0
  160.8490  210.7220  153.6080 C   0  0  1  0  0  3  0  0  0  0  0  0
  158.0870  210.2390  156.1420 C   0  0  2  0  0  3  0  0  0  0  0  0
  158.8070  212.0450  152.9530 C   0  0  0  0  0  0  0  0  0  0  0  0
  161.0970  210.0690  156.0510 O   0  0  0  0  0  0  0  0  0  0  0  0
  156.9450  211.2700  154.3150 N   0  0  0  0  0  2  0  0  0  0  0  0
  160.8000  208.7310  155.7380 C   0  0  0  0  0  2  0  0  0  0  0  0
  160.1440  211.7020  152.7010 C   0  0  0  0  0  0  0  0  0  0  0  0
  160.6440  213.3830  149.4280 N   0  0  0  0  0  1  0  0  0  0  0  0
  159.5760  208.2610  156.4950 C   0  0  2  0  0  3  0  0  0  0  0  0
  159.5450  206.8800  156.4850 F   0  0  0  0  0  0  0  0  0  0  0  0
  158.1100  212.8210  152.0220 C   0  0  0  0  0  3  0  0  0  0  0  0
  156.6960  210.6110  155.5970 C   0  0  2  0  0  3  0  0  0  0  0  0
  158.9980  211.1950  155.3730 C   0  0  1  0  0  3  0  0  0  0  0  0
  160.5200  210.9850  155.1270 C   0  0  2  0  0  0  0  0  0  0  0  0
  158.3380  208.7800  155.7960 C   0  0  0  0  0  2  0  0  0  0  0  0
  158.7360  213.2470  150.8930 N   0  0  0  0  0  0  0  0  0  0  0  0
  155.9740  211.5620  156.5490 C   0  0  1  0  0  3  0  0  0  0  0  0
  155.6360  212.8570  155.8340 C   0  0  0  0  0  1  0  0  0  0  0  0
  154.7960  210.9760  157.0120 O   0  0  0  0  0  1  0  0  0  0  0  0
  161.1340  212.3480  155.4710 C   0  0  0  0  0  2  0  0  0  0  0  0
  160.4230  213.0470  156.6200 C   0  0  0  0  0  1  0  0  0  0  0  0
  160.5060  209.4110  153.1710 O   0  0  0  0  0  0  0  0  0  0  0  0
  162.6150  209.0460  150.1260 C   0  0  0  0  0  2  0  0  0  0  0  0
  160.7920  207.3740  151.7260 C   0  0  2  0  0  3  0  0  0  0  0  0
  162.7380  207.5280  150.1180 C   0  0  0  0  0  2  0  0  0  0  0  0
  161.9650  209.5160  151.3480 N   0  0  0  0  0  0  0  0  0  0  0  0
  161.3630  206.9180  150.3680 C   0  0  2  0  0  3  0  0  0  0  0  0
  161.1160  208.8220  152.0580 C   0  0  0  0  0  0  0  0  0  0  0  0
  160.0980  206.4100  153.8200 O   0  0  0  0  0  1  0  0  0  0  0  0
  161.2300  204.9730  152.3360 C   0  0  0  0  0  1  0  0  0  0  0  0
  161.1230  206.3900  152.8730 C   0  0  0  0  0  0  0  0  0  0  0  0
  162.4340  206.7500  153.5530 C   0  0  0  0  0  1  0  0  0  0  0  0
  160.4830  207.2600  149.3350 O   0  0  0  0  0  0  0  0  0  0  0  0
  160.3660  206.1040  148.5620 C   0  0  0  0  0  2  0  0  0  0  0  0
  160.1780  206.3520  146.2000 O   0  0  0  0  0  0  0  0  0  0  0  0
  160.9330  206.3460  147.2060 C   0  0  0  0  0  0  0  0  0  0  0  0
  162.3000  206.5240  147.0470 O   0  0  0  0  0  1  0  0  0  0  0  0
  1  6  1  6  0  0  0
  1  8  1  0  0  0  0
  1 16  1  0  0  0  0
  2 19  2  0  0  0  0
  2  3  1  0  0  0  0
  3 10  2  0  0  0  0
  4 25  1  6  0  0  0
  4 17  1  0  0  0  0
  5 18  1  6  0  0  0
  8 15  1  0  0  0  0
  9  7  1  0  0  0  0
  9 12  1  0  0  0  0
 10  6  1  0  0  0  0
 10  4  1  0  0  0  0
 11  2  1  0  0  0  0
 12 13  1  6  0  0  0
 14  6  2  0  0  0  0
 15  5  1  0  0  0  0
 15 20  1  1  0  0  0
 16  5  1  0  0  0  0
 17 16  1  0  0  0  0
 17 23  1  0  0  0  0
 17  7  1  0  0  0  0
 18 12  1  0  0  0  0
 19 14  1  0  0  0  0
 20 22  1  0  0  0  0
 21 20  1  0  0  0  0
 23 24  1  0  0  0  0
 26 29  1  0  0  0  0
 27 31  1  0  0  0  0
 27 34  1  0  0  0  0
 28 26  1  0  0  0  0
 28 30  1  0  0  0  0
 29 31  2  0  0  0  0
 30 27  1  0  0  0  0
 31 25  1  0  0  0  0
 33 34  1  0  0  0  0
 34 35  1  0  0  0  0
 34 32  1  0  0  0  0
 36 30  1  0  0  0  0
 37 36  1  0  0  0  0
 38 39  2  0  0  0  0
 39 37  1  0  0  0  0
 40 39  1  0  0  0  0
M  END
>  <MODEL>
1

>  <REMARK>
 VINA RESULT:      -3.5      0.000      0.000
  Name = 
  8 active torsions:
  status: ('A' for Active; 'I' for Inactive)
    1  A    between atoms: C_1  and  C_29
    2  A    between atoms: C_7  and  C_27
    3  A    between atoms: C_8  and  O_25
    4  A    between atoms: C_10  and  C_34
    5  A    between atoms: C_15  and  C_31
    6  A    between atoms: C_15  and  O_38
    7  A    between atoms: O_25  and  C_39
    8  A    between atoms: C_35  and  O_38
                            x       y       z     vdW  Elec       q    Type
                         _______ _______ _______ _____ _____    ______ ____

>  <TORSDO>
F 8

$$$$
