=
 OpenBabel11072414123D

 28 31  0  0  1  0  0  0  0  0999 V2000
  161.8370  208.6180  152.2800 C   0  0  2  0  0  3  0  0  0  0  0  0
  162.1840  209.3900  151.0200 C   0  0  0  0  0  1  0  0  0  0  0  0
  160.8550  207.5030  151.9370 C   0  0  1  0  0  3  0  0  0  0  0  0
  162.9170  206.1130  151.9350 O   0  0  0  0  0  1  0  0  0  0  0  0
  161.5300  206.1910  151.7510 C   0  0  1  0  0  0  0  0  0  0  0  0
  160.8690  206.5080  152.9470 O   0  0  0  0  0  0  0  0  0  0  0  0
  160.8220  205.0810  150.9910 C   0  0  0  0  0  2  0  0  0  0  0  0
  160.0540  206.4940  148.6370 O   0  0  0  0  0  0  0  0  0  0  0  0
  161.4310  204.9250  149.6820 N   0  0  0  0  0  2  0  0  0  0  0  0
  160.9920  205.6570  148.5380 C   0  0  0  0  0  0  0  0  0  0  0  0
  161.9440  204.0150  146.9600 C   0  0  0  0  0  2  0  0  0  0  0  0
  161.2280  204.7750  144.7510 C   0  0  2  0  0  3  0  0  0  0  0  0
  160.1350  204.0000  144.3560 O   0  0  0  0  0  1  0  0  0  0  0  0
  161.6780  205.4810  147.2230 C   0  0  1  0  0  3  0  0  0  0  0  0
  162.2370  203.9050  145.4830 C   0  0  0  0  0  2  0  0  0  0  0  0
  160.6700  206.1190  145.8500 S   0  0  0  0  0  0  0  0  0  0  0  0
  161.2340  209.5550  153.3250 C   0  0  0  0  0  2  0  0  0  0  0  0
  160.8120  210.8950  152.7260 C   0  0  0  0  0  2  0  0  0  0  0  0
  158.9040  212.4900  152.3920 C   0  0  0  0  0  2  0  0  0  0  0  0
  159.5360  212.2900  156.1150 C   0  0  0  0  0  3  0  0  0  0  0  0
  157.4030  211.6980  154.3000 C   0  0  0  0  0  3  0  0  0  0  0  0
  159.2920  211.0460  152.7250 C   0  0  2  0  0  3  0  0  0  0  0  0
  158.7870  211.9850  153.8100 C   0  0  1  0  0  0  0  0  0  0  0  0
  159.7400  212.5700  154.8190 C   0  0  0  0  0  3  0  0  0  0  0  0
  157.2200  211.4280  155.6020 C   0  0  0  0  0  0  0  0  0  0  0  0
  158.4050  211.3730  156.5440 C   0  0  0  0  0  2  0  0  0  0  0  0
  155.9490  211.1530  156.1200 O   0  0  0  0  0  0  0  0  0  0  0  0
  155.0550  210.2200  155.5260 C   0  0  0  0  0  1  0  0  0  0  0  0
  1  2  1  6  0  0  0
  1 17  1  0  0  0  0
  3  1  1  1  0  0  0
  3  6  1  0  0  0  0
  5  4  1  1  0  0  0
  5  3  1  0  0  0  0
  5  6  1  0  0  0  0
  7  5  1  0  0  0  0
  9  7  1  0  0  0  0
 10  8  2  0  0  0  0
 10  9  1  0  0  0  0
 11 14  1  0  0  0  0
 12 13  1  1  0  0  0
 12 15  1  0  0  0  0
 12 16  1  0  0  0  0
 14 10  1  1  0  0  0
 15 11  1  0  0  0  0
 16 14  1  0  0  0  0
 18 17  1  0  0  0  0
 19 22  1  0  0  0  0
 20 26  1  0  0  0  0
 21 25  2  0  0  0  0
 22 18  1  1  0  0  0
 22 23  1  0  0  0  0
 23 19  1  6  0  0  0
 23 21  1  0  0  0  0
 23 24  1  0  0  0  0
 24 20  2  0  0  0  0
 25 27  1  0  0  0  0
 25 26  1  0  0  0  0
 28 27  1  0  0  0  0
M  END
>  <MODEL>
1

>  <REMARK>
 VINA RESULT:      -6.8      0.000      0.000
  Name = 
  8 active torsions:
  status: ('A' for Active; 'I' for Inactive)
    1  A    between atoms: O_2  and  C_22
    2  A    between atoms: C_5  and  C_10
    3  A    between atoms: C_5  and  C_14
    4  A    between atoms: C_8  and  C_19
    5  A    between atoms: C_8  and  N_20
    6  A    between atoms: C_9  and  C_13
    7  A    between atoms: C_13  and  C_14
    8  A    between atoms: C_23  and  C_27
                            x       y       z     vdW  Elec       q    Type
                         _______ _______ _______ _____ _____    ______ ____

>  <TORSDO>
F 8

$$$$
=
 OpenBabel11072414123D

 28 31  0  0  1  0  0  0  0  0999 V2000
  161.0900  208.4070  154.3900 C   0  0  2  0  0  3  0  0  0  0  0  0
  161.3630  208.7190  155.8500 C   0  0  0  0  0  1  0  0  0  0  0  0
  160.1510  209.4610  153.8130 C   0  0  1  0  0  3  0  0  0  0  0  0
  162.2270  210.2480  152.6930 O   0  0  0  0  0  1  0  0  0  0  0  0
  160.8560  210.4220  152.9240 C   0  0  1  0  0  0  0  0  0  0  0  0
  160.1060  209.3590  152.4000 O   0  0  0  0  0  0  0  0  0  0  0  0
  160.2210  211.7680  152.6150 C   0  0  0  0  0  2  0  0  0  0  0  0
  158.8850  213.6620  150.9540 O   0  0  0  0  0  0  0  0  0  0  0  0
  160.7070  212.2520  151.3340 N   0  0  0  0  0  2  0  0  0  0  0  0
  159.9820  213.1960  150.5440 C   0  0  0  0  0  0  0  0  0  0  0  0
  161.5400  212.6850  148.7000 C   0  0  0  0  0  2  0  0  0  0  0  0
  160.3530  213.3460  146.6700 C   0  0  2  0  0  3  0  0  0  0  0  0
  159.8240  212.1950  146.0790 O   0  0  0  0  0  1  0  0  0  0  0  0
  160.5470  213.6830  149.2510 C   0  0  1  0  0  3  0  0  0  0  0  0
  161.7270  213.0440  147.2450 C   0  0  0  0  0  2  0  0  0  0  0  0
  159.2470  213.9220  148.0010 S   0  0  0  0  0  0  0  0  0  0  0  0
  160.4760  207.0150  154.2530 C   0  0  0  0  0  2  0  0  0  0  0  0
  161.4810  205.9870  153.7400 C   0  0  0  0  0  2  0  0  0  0  0  0
  161.9890  204.2660  151.9850 C   0  0  0  0  0  2  0  0  0  0  0  0
  162.6300  207.6520  150.4280 C   0  0  0  0  0  3  0  0  0  0  0  0
  160.8930  205.4190  149.9870 C   0  0  0  0  0  3  0  0  0  0  0  0
  160.9350  205.2380  152.5250 C   0  0  2  0  0  3  0  0  0  0  0  0
  161.6950  205.5480  151.2440 C   0  0  1  0  0  0  0  0  0  0  0  0
  162.7820  206.5900  151.2330 C   0  0  0  0  0  3  0  0  0  0  0  0
  160.7600  206.4910  149.1910 C   0  0  0  0  0  0  0  0  0  0  0  0
  161.3770  207.8170  149.5880 C   0  0  0  0  0  2  0  0  0  0  0  0
  160.0240  206.4330  148.0020 O   0  0  0  0  0  0  0  0  0  0  0  0
  160.6220  206.2100  146.7310 C   0  0  0  0  0  1  0  0  0  0  0  0
  1  2  1  1  0  0  0
  3  1  1  1  0  0  0
  5  4  1  6  0  0  0
  5  3  1  0  0  0  0
  6  5  1  0  0  0  0
  6  3  1  0  0  0  0
  7  5  1  0  0  0  0
  9  7  1  0  0  0  0
 10  8  2  0  0  0  0
 10  9  1  0  0  0  0
 11 14  1  0  0  0  0
 12 13  1  1  0  0  0
 12 15  1  0  0  0  0
 12 16  1  0  0  0  0
 14 10  1  1  0  0  0
 15 11  1  0  0  0  0
 16 14  1  0  0  0  0
 17  1  1  0  0  0  0
 18 17  1  0  0  0  0
 19 22  1  0  0  0  0
 20 24  2  0  0  0  0
 22 18  1  1  0  0  0
 23 21  1  6  0  0  0
 23 19  1  0  0  0  0
 23 22  1  0  0  0  0
 24 23  1  0  0  0  0
 25 26  1  0  0  0  0
 25 21  2  0  0  0  0
 26 20  1  0  0  0  0
 27 25  1  0  0  0  0
 28 27  1  0  0  0  0
M  END
>  <MODEL>
2

>  <REMARK>
 VINA RESULT:      -6.8      3.646      7.404
  Name = 
  8 active torsions:
  status: ('A' for Active; 'I' for Inactive)
    1  A    between atoms: O_2  and  C_22
    2  A    between atoms: C_5  and  C_10
    3  A    between atoms: C_5  and  C_14
    4  A    between atoms: C_8  and  C_19
    5  A    between atoms: C_8  and  N_20
    6  A    between atoms: C_9  and  C_13
    7  A    between atoms: C_13  and  C_14
    8  A    between atoms: C_23  and  C_27
                            x       y       z     vdW  Elec       q    Type
                         _______ _______ _______ _____ _____    ______ ____

>  <TORSDO>
F 8

$$$$
=
 OpenBabel11072414123D

 28 31  0  0  1  0  0  0  0  0999 V2000
  161.6270  207.6270  153.0470 C   0  0  2  0  0  3  0  0  0  0  0  0
  160.8700  206.5060  153.7340 C   0  0  0  0  0  1  0  0  0  0  0  0
  160.6340  208.6460  152.4960 C   0  0  1  0  0  3  0  0  0  0  0  0
  162.0650  210.2510  153.7440 O   0  0  0  0  0  1  0  0  0  0  0  0
  160.9380  210.0320  152.9390 C   0  0  1  0  0  0  0  0  0  0  0  0
  161.2990  209.5790  151.6610 O   0  0  0  0  0  0  0  0  0  0  0  0
  159.8570  211.0980  152.8770 C   0  0  0  0  0  2  0  0  0  0  0  0
  158.4100  213.4740  152.2540 O   0  0  0  0  0  0  0  0  0  0  0  0
  160.0290  211.8950  151.6750 N   0  0  0  0  0  2  0  0  0  0  0  0
  159.2630  213.0730  151.4180 C   0  0  0  0  0  0  0  0  0  0  0  0
  160.7050  213.3320  149.4320 C   0  0  0  0  0  2  0  0  0  0  0  0
  159.1680  213.8080  147.5940 C   0  0  2  0  0  3  0  0  0  0  0  0
  158.9750  212.6280  146.8710 O   0  0  0  0  0  1  0  0  0  0  0  0
  159.5080  213.8730  150.1810 C   0  0  1  0  0  3  0  0  0  0  0  0
  160.6180  213.9070  148.0380 C   0  0  0  0  0  2  0  0  0  0  0  0
  158.0790  213.8210  149.0570 S   0  0  0  0  0  0  0  0  0  0  0  0
  162.4950  207.0670  151.9220 C   0  0  0  0  0  2  0  0  0  0  0  0
  161.8060  205.9290  151.1720 C   0  0  0  0  0  2  0  0  0  0  0  0
  160.1580  206.5200  149.3730 C   0  0  0  0  0  2  0  0  0  0  0  0
  160.7720  202.7970  149.1270 C   0  0  0  0  0  3  0  0  0  0  0  0
  161.1330  205.1100  147.4800 C   0  0  0  0  0  3  0  0  0  0  0  0
  161.6350  206.2660  149.6920 C   0  0  2  0  0  3  0  0  0  0  0  0
  160.8130  205.2310  148.9370 C   0  0  1  0  0  0  0  0  0  0  0  0
  160.3550  203.9710  149.6220 C   0  0  0  0  0  3  0  0  0  0  0  0
  161.5410  203.9240  147.0030 C   0  0  0  0  0  0  0  0  0  0  0  0
  161.7150  202.7450  147.9390 C   0  0  0  0  0  2  0  0  0  0  0  0
  161.8530  203.7480  145.6510 O   0  0  0  0  0  0  0  0  0  0  0  0
  161.3970  204.6260  144.6290 C   0  0  0  0  0  1  0  0  0  0  0  0
  1  2  1  6  0  0  0
  3  5  1  0  0  0  0
  3  1  1  1  0  0  0
  5  4  1  1  0  0  0
  6  3  1  0  0  0  0
  6  5  1  0  0  0  0
  7  5  1  0  0  0  0
  9  7  1  0  0  0  0
 10  9  1  0  0  0  0
 10  8  2  0  0  0  0
 11 14  1  0  0  0  0
 12 13  1  1  0  0  0
 12 15  1  0  0  0  0
 12 16  1  0  0  0  0
 14 10  1  1  0  0  0
 15 11  1  0  0  0  0
 16 14  1  0  0  0  0
 17  1  1  0  0  0  0
 18 17  1  0  0  0  0
 19 22  1  0  0  0  0
 20 24  2  0  0  0  0
 22 18  1  1  0  0  0
 23 21  1  6  0  0  0
 23 19  1  0  0  0  0
 23 24  1  0  0  0  0
 23 22  1  0  0  0  0
 25 21  2  0  0  0  0
 25 26  1  0  0  0  0
 26 20  1  0  0  0  0
 27 25  1  0  0  0  0
 28 27  1  0  0  0  0
M  END
>  <MODEL>
3

>  <REMARK>
 VINA RESULT:      -6.6      3.435      8.607
  Name = 
  8 active torsions:
  status: ('A' for Active; 'I' for Inactive)
    1  A    between atoms: O_2  and  C_22
    2  A    between atoms: C_5  and  C_10
    3  A    between atoms: C_5  and  C_14
    4  A    between atoms: C_8  and  C_19
    5  A    between atoms: C_8  and  N_20
    6  A    between atoms: C_9  and  C_13
    7  A    between atoms: C_13  and  C_14
    8  A    between atoms: C_23  and  C_27
                            x       y       z     vdW  Elec       q    Type
                         _______ _______ _______ _____ _____    ______ ____

>  <TORSDO>
F 8

$$$$
=
 OpenBabel11072414123D

 28 31  0  0  1  0  0  0  0  0999 V2000
  161.7430  207.4120  152.9050 C   0  0  2  0  0  3  0  0  0  0  0  0
  160.8150  206.4890  153.6740 C   0  0  0  0  0  1  0  0  0  0  0  0
  160.9150  208.4270  152.1230 C   0  0  1  0  0  3  0  0  0  0  0  0
  162.4070  210.0560  153.2640 O   0  0  0  0  0  1  0  0  0  0  0  0
  161.3330  209.8280  152.3940 C   0  0  1  0  0  0  0  0  0  0  0  0
  161.7430  209.1550  151.2330 O   0  0  0  0  0  0  0  0  0  0  0  0
  160.3830  210.9710  152.0790 C   0  0  0  0  0  2  0  0  0  0  0  0
  159.1100  213.4570  152.6540 O   0  0  0  0  0  0  0  0  0  0  0  0
  159.5430  211.2380  153.2350 N   0  0  0  0  0  2  0  0  0  0  0  0
  158.9420  212.5110  153.4700 C   0  0  0  0  0  0  0  0  0  0  0  0
  156.6610  213.0830  154.2170 C   0  0  0  0  0  2  0  0  0  0  0  0
  156.1950  211.5450  156.0570 C   0  0  2  0  0  3  0  0  0  0  0  0
  155.4000  210.5060  155.5660 O   0  0  0  0  0  1  0  0  0  0  0  0
  158.0600  212.7170  154.6580 C   0  0  1  0  0  3  0  0  0  0  0  0
  155.7750  212.8590  155.4200 C   0  0  0  0  0  2  0  0  0  0  0  0
  157.9480  211.2140  155.6760 S   0  0  0  0  0  0  0  0  0  0  0  0
  162.6270  206.6030  151.9580 C   0  0  0  0  0  2  0  0  0  0  0  0
  161.9000  205.3890  151.3830 C   0  0  0  0  0  2  0  0  0  0  0  0
  160.2600  205.9050  149.5550 C   0  0  0  0  0  2  0  0  0  0  0  0
  160.4200  202.1400  149.8610 C   0  0  0  0  0  3  0  0  0  0  0  0
  160.9820  204.1230  147.8750 C   0  0  0  0  0  3  0  0  0  0  0  0
  161.7080  205.5220  149.8740 C   0  0  2  0  0  3  0  0  0  0  0  0
  160.7400  204.4960  149.3040 C   0  0  1  0  0  0  0  0  0  0  0  0
  160.1650  203.4170  150.1830 C   0  0  0  0  0  3  0  0  0  0  0  0
  161.2280  202.8390  147.5740 C   0  0  0  0  0  0  0  0  0  0  0  0
  161.3000  201.7980  148.6730 C   0  0  0  0  0  2  0  0  0  0  0  0
  161.4600  202.4280  146.2560 O   0  0  0  0  0  0  0  0  0  0  0  0
  160.4950  201.7290  145.4800 C   0  0  0  0  0  1  0  0  0  0  0  0
  1  2  1  6  0  0  0
  3  5  1  0  0  0  0
  3  1  1  1  0  0  0
  5  4  1  1  0  0  0
  6  3  1  0  0  0  0
  6  5  1  0  0  0  0
  7  5  1  0  0  0  0
  7  9  1  0  0  0  0
  8 10  2  0  0  0  0
  9 10  1  0  0  0  0
 11 14  1  0  0  0  0
 11 15  1  0  0  0  0
 12 13  1  6  0  0  0
 14 10  1  6  0  0  0
 14 16  1  0  0  0  0
 15 12  1  0  0  0  0
 16 12  1  0  0  0  0
 17  1  1  0  0  0  0
 18 17  1  0  0  0  0
 19 22  1  0  0  0  0
 20 24  2  0  0  0  0
 22 18  1  1  0  0  0
 23 21  1  6  0  0  0
 23 19  1  0  0  0  0
 23 22  1  0  0  0  0
 23 24  1  0  0  0  0
 25 21  2  0  0  0  0
 25 26  1  0  0  0  0
 26 20  1  0  0  0  0
 27 25  1  0  0  0  0
 28 27  1  0  0  0  0
M  END
>  <MODEL>
4

>  <REMARK>
 VINA RESULT:      -6.6      3.318      9.682
  Name = 
  8 active torsions:
  status: ('A' for Active; 'I' for Inactive)
    1  A    between atoms: O_2  and  C_22
    2  A    between atoms: C_5  and  C_10
    3  A    between atoms: C_5  and  C_14
    4  A    between atoms: C_8  and  C_19
    5  A    between atoms: C_8  and  N_20
    6  A    between atoms: C_9  and  C_13
    7  A    between atoms: C_13  and  C_14
    8  A    between atoms: C_23  and  C_27
                            x       y       z     vdW  Elec       q    Type
                         _______ _______ _______ _____ _____    ______ ____

>  <TORSDO>
F 8

$$$$
=
 OpenBabel11072414123D

 28 31  0  0  1  0  0  0  0  0999 V2000
  161.7160  205.3790  152.2740 C   0  0  2  0  0  3  0  0  0  0  0  0
  162.8300  206.1860  151.6310 C   0  0  0  0  0  1  0  0  0  0  0  0
  160.8720  204.7240  151.1860 C   0  0  1  0  0  3  0  0  0  0  0  0
  161.9760  202.6540  152.0110 O   0  0  0  0  0  1  0  0  0  0  0  0
  161.0910  203.2550  151.1050 C   0  0  1  0  0  0  0  0  0  0  0  0
  159.9710  203.7910  151.7580 O   0  0  0  0  0  0  0  0  0  0  0  0
  160.7040  202.5040  149.8420 C   0  0  0  0  0  2  0  0  0  0  0  0
  160.8460  201.4820  147.1840 O   0  0  0  0  0  0  0  0  0  0  0  0
  161.1490  203.2510  148.6780 N   0  0  0  0  0  2  0  0  0  0  0  0
  161.2060  202.6750  147.3720 C   0  0  0  0  0  0  0  0  0  0  0  0
  160.5970  203.4540  145.1110 C   0  0  0  0  0  2  0  0  0  0  0  0
  161.2330  205.8130  145.0640 C   0  0  2  0  0  3  0  0  0  0  0  0
  160.0810  206.5790  145.2600 O   0  0  0  0  0  1  0  0  0  0  0  0
  161.6390  203.5010  146.2060 C   0  0  1  0  0  3  0  0  0  0  0  0
  160.9080  204.6110  144.1920 C   0  0  0  0  0  2  0  0  0  0  0  0
  161.8790  205.2430  146.6710 S   0  0  0  0  0  0  0  0  0  0  0  0
  160.8490  206.2810  153.1510 C   0  0  0  0  0  2  0  0  0  0  0  0
  161.4100  207.6970  153.2580 C   0  0  0  0  0  2  0  0  0  0  0  0
  161.4550  209.7250  151.7810 C   0  0  0  0  0  2  0  0  0  0  0  0
  160.7780  210.9370  155.2980 C   0  0  0  0  0  3  0  0  0  0  0  0
  159.4480  210.9610  152.7630 C   0  0  0  0  0  3  0  0  0  0  0  0
  160.5600  208.6900  152.4690 C   0  0  2  0  0  3  0  0  0  0  0  0
  160.6570  210.1120  153.0020 C   0  0  1  0  0  0  0  0  0  0  0  0
  161.4360  210.4060  154.2570 C   0  0  0  0  0  3  0  0  0  0  0  0
  158.8090  211.4900  153.8170 C   0  0  0  0  0  0  0  0  0  0  0  0
  159.2830  211.1910  155.2260 C   0  0  0  0  0  2  0  0  0  0  0  0
  157.6740  212.2930  153.6580 O   0  0  0  0  0  0  0  0  0  0  0  0
  156.8330  212.6700  154.7400 C   0  0  0  0  0  1  0  0  0  0  0  0
  1  2  1  6  0  0  0
  1 17  1  0  0  0  0
  3  6  1  0  0  0  0
  3  1  1  1  0  0  0
  5  3  1  0  0  0  0
  5  6  1  0  0  0  0
  5  4  1  1  0  0  0
  7  5  1  0  0  0  0
  8 10  2  0  0  0  0
  9  7  1  0  0  0  0
 10  9  1  0  0  0  0
 11 14  1  0  0  0  0
 12 13  1  1  0  0  0
 12 16  1  0  0  0  0
 14 16  1  0  0  0  0
 14 10  1  1  0  0  0
 15 12  1  0  0  0  0
 15 11  1  0  0  0  0
 17 18  1  0  0  0  0
 19 22  1  0  0  0  0
 21 23  1  0  0  0  0
 21 25  2  0  0  0  0
 22 23  1  0  0  0  0
 22 18  1  1  0  0  0
 23 19  1  6  0  0  0
 23 24  1  0  0  0  0
 24 20  2  0  0  0  0
 25 26  1  0  0  0  0
 26 20  1  0  0  0  0
 27 25  1  0  0  0  0
 27 28  1  0  0  0  0
M  END
>  <MODEL>
5

>  <REMARK>
 VINA RESULT:      -6.4      1.932      2.904
  Name = 
  8 active torsions:
  status: ('A' for Active; 'I' for Inactive)
    1  A    between atoms: O_2  and  C_22
    2  A    between atoms: C_5  and  C_10
    3  A    between atoms: C_5  and  C_14
    4  A    between atoms: C_8  and  C_19
    5  A    between atoms: C_8  and  N_20
    6  A    between atoms: C_9  and  C_13
    7  A    between atoms: C_13  and  C_14
    8  A    between atoms: C_23  and  C_27
                            x       y       z     vdW  Elec       q    Type
                         _______ _______ _______ _____ _____    ______ ____

>  <TORSDO>
F 8

$$$$
=
 OpenBabel11072414123D

 28 31  0  0  1  0  0  0  0  0999 V2000
  161.0780  207.5130  153.5690 C   0  0  2  0  0  3  0  0  0  0  0  0
  160.8170  208.6390  152.5850 C   0  0  0  0  0  1  0  0  0  0  0  0
  160.4870  206.2160  153.0250 C   0  0  1  0  0  3  0  0  0  0  0  0
  162.7450  205.9790  152.0100 O   0  0  0  0  0  1  0  0  0  0  0  0
  161.4530  205.4640  152.1800 C   0  0  1  0  0  0  0  0  0  0  0  0
  161.2140  205.1020  153.5140 O   0  0  0  0  0  0  0  0  0  0  0  0
  160.9440  204.4130  151.2080 C   0  0  0  0  0  2  0  0  0  0  0  0
  160.4880  202.8020  148.9000 O   0  0  0  0  0  0  0  0  0  0  0  0
  161.5610  204.6130  149.9090 N   0  0  0  0  0  2  0  0  0  0  0  0
  161.2970  203.7620  148.7930 C   0  0  0  0  0  0  0  0  0  0  0  0
  161.2080  203.2970  146.3710 C   0  0  0  0  0  2  0  0  0  0  0  0
  161.6310  205.4510  145.2990 C   0  0  2  0  0  3  0  0  0  0  0  0
  160.4050  205.9830  144.8900 O   0  0  0  0  0  1  0  0  0  0  0  0
  161.9360  204.0370  147.4710 C   0  0  1  0  0  3  0  0  0  0  0  0
  161.6380  203.9480  145.0780 C   0  0  0  0  0  2  0  0  0  0  0  0
  161.9010  205.8100  147.0670 S   0  0  0  0  0  0  0  0  0  0  0  0
  160.4670  207.8470  154.9290 C   0  0  0  0  0  2  0  0  0  0  0  0
  161.4410  208.5990  155.8330 C   0  0  0  0  0  2  0  0  0  0  0  0
  161.8800  210.9860  156.4700 C   0  0  0  0  0  2  0  0  0  0  0  0
  158.1850  210.7070  155.7150 C   0  0  0  0  0  3  0  0  0  0  0  0
  160.4490  212.1290  154.6900 C   0  0  0  0  0  3  0  0  0  0  0  0
  161.7120  210.0060  155.3050 C   0  0  2  0  0  3  0  0  0  0  0  0
  160.6100  210.9950  155.6540 C   0  0  1  0  0  0  0  0  0  0  0  0
  159.3560  210.5290  156.3450 C   0  0  0  0  0  3  0  0  0  0  0  0
  159.2670  212.2940  154.0760 C   0  0  0  0  0  0  0  0  0  0  0  0
  158.1340  211.3190  154.3270 C   0  0  0  0  0  2  0  0  0  0  0  0
  159.0550  213.3350  153.1660 O   0  0  0  0  0  0  0  0  0  0  0  0
  158.4240  213.1460  151.9050 C   0  0  0  0  0  1  0  0  0  0  0  0
  1  2  1  6  0  0  0
  1 17  1  0  0  0  0
  3  6  1  0  0  0  0
  3  1  1  1  0  0  0
  5  4  1  6  0  0  0
  5  3  1  0  0  0  0
  5  6  1  0  0  0  0
  7  5  1  0  0  0  0
  9  7  1  0  0  0  0
 10  8  2  0  0  0  0
 10  9  1  0  0  0  0
 11 14  1  0  0  0  0
 12 13  1  1  0  0  0
 12 16  1  0  0  0  0
 14 10  1  1  0  0  0
 15 12  1  0  0  0  0
 15 11  1  0  0  0  0
 16 14  1  0  0  0  0
 17 18  1  0  0  0  0
 20 24  2  0  0  0  0
 22 23  1  0  0  0  0
 22 18  1  1  0  0  0
 22 19  1  0  0  0  0
 23 21  1  6  0  0  0
 23 24  1  0  0  0  0
 23 19  1  0  0  0  0
 25 26  1  0  0  0  0
 25 21  2  0  0  0  0
 26 20  1  0  0  0  0
 27 25  1  0  0  0  0
 28 27  1  0  0  0  0
M  END
>  <MODEL>
6

>  <REMARK>
 VINA RESULT:      -6.3      1.844      2.705
  Name = 
  8 active torsions:
  status: ('A' for Active; 'I' for Inactive)
    1  A    between atoms: O_2  and  C_22
    2  A    between atoms: C_5  and  C_10
    3  A    between atoms: C_5  and  C_14
    4  A    between atoms: C_8  and  C_19
    5  A    between atoms: C_8  and  N_20
    6  A    between atoms: C_9  and  C_13
    7  A    between atoms: C_13  and  C_14
    8  A    between atoms: C_23  and  C_27
                            x       y       z     vdW  Elec       q    Type
                         _______ _______ _______ _____ _____    ______ ____

>  <TORSDO>
F 8

$$$$
=
 OpenBabel11072414123D

 28 31  0  0  1  0  0  0  0  0999 V2000
  160.4650  207.5900  154.9970 C   0  0  2  0  0  3  0  0  0  0  0  0
  159.4900  207.2440  156.1080 C   0  0  0  0  0  1  0  0  0  0  0  0
  161.0470  206.3060  154.4150 C   0  0  1  0  0  3  0  0  0  0  0  0
  160.8250  207.5460  152.2710 O   0  0  0  0  0  1  0  0  0  0  0  0
  161.1880  206.3670  152.9360 C   0  0  1  0  0  0  0  0  0  0  0  0
  162.2880  206.5710  153.7830 O   0  0  0  0  0  0  0  0  0  0  0  0
  161.3200  205.0810  152.1380 C   0  0  0  0  0  2  0  0  0  0  0  0
  160.6590  203.2140  150.0870 O   0  0  0  0  0  0  0  0  0  0  0  0
  161.2540  205.3810  150.7180 N   0  0  0  0  0  2  0  0  0  0  0  0
  160.9260  204.3950  149.7380 C   0  0  0  0  0  0  0  0  0  0  0  0
  161.5720  206.0690  148.0440 C   0  0  0  0  0  2  0  0  0  0  0  0
  162.2300  204.7630  146.0860 C   0  0  2  0  0  3  0  0  0  0  0  0
  163.6250  204.7000  146.0530 O   0  0  0  0  0  1  0  0  0  0  0  0
  160.8400  204.7700  148.2950 C   0  0  1  0  0  3  0  0  0  0  0  0
  161.7890  206.1410  146.5510 C   0  0  0  0  0  2  0  0  0  0  0  0
  161.5810  203.4970  147.2280 S   0  0  0  0  0  0  0  0  0  0  0  0
  161.5810  208.4850  155.5320 C   0  0  0  0  0  2  0  0  0  0  0  0
  161.0730  209.4860  156.5680 C   0  0  0  0  0  2  0  0  0  0  0  0
  160.8040  211.9100  157.1600 C   0  0  0  0  0  2  0  0  0  0  0  0
  157.6450  210.8550  155.3700 C   0  0  0  0  0  3  0  0  0  0  0  0
  159.7730  212.7280  154.9720 C   0  0  0  0  0  3  0  0  0  0  0  0
  161.1980  210.9210  156.0580 C   0  0  2  0  0  3  0  0  0  0  0  0
  159.8640  211.6520  156.0070 C   0  0  1  0  0  0  0  0  0  0  0  0
  158.5820  210.9280  156.3260 C   0  0  0  0  0  3  0  0  0  0  0  0
  158.8230  212.6400  154.0280 C   0  0  0  0  0  0  0  0  0  0  0  0
  157.8900  211.4460  153.9930 C   0  0  0  0  0  2  0  0  0  0  0  0
  158.6860  213.6160  153.0340 O   0  0  0  0  0  0  0  0  0  0  0  0
  158.7040  213.3150  151.6450 C   0  0  0  0  0  1  0  0  0  0  0  0
  1 17  1  0  0  0  0
  1  2  1  1  0  0  0
  3  1  1  1  0  0  0
  5  4  1  6  0  0  0
  5  6  1  0  0  0  0
  5  3  1  0  0  0  0
  6  3  1  0  0  0  0
  7  5  1  0  0  0  0
  9  7  1  0  0  0  0
 10  8  2  0  0  0  0
 10  9  1  0  0  0  0
 11 14  1  0  0  0  0
 12 13  1  1  0  0  0
 12 15  1  0  0  0  0
 12 16  1  0  0  0  0
 14 10  1  1  0  0  0
 15 11  1  0  0  0  0
 16 14  1  0  0  0  0
 17 18  1  0  0  0  0
 20 24  2  0  0  0  0
 22 18  1  1  0  0  0
 22 19  1  0  0  0  0
 23 21  1  6  0  0  0
 23 22  1  0  0  0  0
 23 24  1  0  0  0  0
 23 19  1  0  0  0  0
 25 21  2  0  0  0  0
 26 25  1  0  0  0  0
 26 20  1  0  0  0  0
 27 25  1  0  0  0  0
 28 27  1  0  0  0  0
M  END
>  <MODEL>
7

>  <REMARK>
 VINA RESULT:      -6.3      2.188      3.231
  Name = 
  8 active torsions:
  status: ('A' for Active; 'I' for Inactive)
    1  A    between atoms: O_2  and  C_22
    2  A    between atoms: C_5  and  C_10
    3  A    between atoms: C_5  and  C_14
    4  A    between atoms: C_8  and  C_19
    5  A    between atoms: C_8  and  N_20
    6  A    between atoms: C_9  and  C_13
    7  A    between atoms: C_13  and  C_14
    8  A    between atoms: C_23  and  C_27
                            x       y       z     vdW  Elec       q    Type
                         _______ _______ _______ _____ _____    ______ ____

>  <TORSDO>
F 8

$$$$
=
 OpenBabel11072414123D

 28 31  0  0  1  0  0  0  0  0999 V2000
  161.1620  209.1960  151.6320 C   0  0  2  0  0  3  0  0  0  0  0  0
  160.7670  209.8140  152.9600 C   0  0  0  0  0  1  0  0  0  0  0  0
  161.5360  207.7320  151.8450 C   0  0  1  0  0  3  0  0  0  0  0  0
  160.8300  207.5290  149.4700 O   0  0  0  0  0  1  0  0  0  0  0  0
  161.3070  206.9060  150.6310 C   0  0  1  0  0  0  0  0  0  0  0  0
  162.5890  207.3620  150.9710 O   0  0  0  0  0  0  0  0  0  0  0  0
  161.1900  205.3960  150.7580 C   0  0  0  0  0  2  0  0  0  0  0  0
  160.4320  202.7800  149.9130 O   0  0  0  0  0  0  0  0  0  0  0  0
  161.5810  204.7710  149.5050 N   0  0  0  0  0  2  0  0  0  0  0  0
  161.1740  203.4510  149.1460 C   0  0  0  0  0  0  0  0  0  0  0  0
  160.4750  201.9970  147.2780 C   0  0  0  0  0  2  0  0  0  0  0  0
  161.2110  203.1630  145.2620 C   0  0  2  0  0  3  0  0  0  0  0  0
  160.1070  203.8170  144.7090 O   0  0  0  0  0  1  0  0  0  0  0  0
  161.5780  202.8730  147.8290 C   0  0  1  0  0  3  0  0  0  0  0  0
  160.7850  201.8120  145.8120 C   0  0  0  0  0  2  0  0  0  0  0  0
  161.9200  204.1730  146.6040 S   0  0  0  0  0  0  0  0  0  0  0  0
  162.3350  209.9610  151.0210 C   0  0  0  0  0  2  0  0  0  0  0  0
  161.8940  211.2680  150.3660 C   0  0  0  0  0  2  0  0  0  0  0  0
  162.9130  212.1890  148.2660 C   0  0  0  0  0  2  0  0  0  0  0  0
  159.5770  213.9100  148.7200 C   0  0  0  0  0  3  0  0  0  0  0  0
  160.8250  212.1970  146.7960 C   0  0  0  0  0  3  0  0  0  0  0  0
  161.9320  211.1640  148.8430 C   0  0  2  0  0  3  0  0  0  0  0  0
  161.4260  212.4200  148.1480 C   0  0  1  0  0  0  0  0  0  0  0  0
  160.8500  213.5580  148.9500 C   0  0  0  0  0  3  0  0  0  0  0  0
  159.5510  212.5630  146.5850 C   0  0  0  0  0  0  0  0  0  0  0  0
  158.7300  213.1530  147.7140 C   0  0  0  0  0  2  0  0  0  0  0  0
  158.9340  212.3810  145.3420 O   0  0  0  0  0  0  0  0  0  0  0  0
  159.1130  213.2750  144.2500 C   0  0  0  0  0  1  0  0  0  0  0  0
  1  2  1  1  0  0  0
  3  1  1  6  0  0  0
  5  4  1  6  0  0  0
  5  7  1  0  0  0  0
  5  6  1  0  0  0  0
  5  3  1  0  0  0  0
  6  3  1  0  0  0  0
  9  7  1  0  0  0  0
 10  9  1  0  0  0  0
 10  8  2  0  0  0  0
 11 14  1  0  0  0  0
 12 13  1  1  0  0  0
 12 15  1  0  0  0  0
 12 16  1  0  0  0  0
 14 10  1  1  0  0  0
 15 11  1  0  0  0  0
 16 14  1  0  0  0  0
 17  1  1  0  0  0  0
 18 17  1  0  0  0  0
 19 22  1  0  0  0  0
 20 24  2  0  0  0  0
 22 18  1  1  0  0  0
 23 21  1  6  0  0  0
 23 19  1  0  0  0  0
 23 22  1  0  0  0  0
 23 24  1  0  0  0  0
 25 21  2  0  0  0  0
 25 26  1  0  0  0  0
 26 20  1  0  0  0  0
 27 25  1  0  0  0  0
 28 27  1  0  0  0  0
M  END
>  <MODEL>
8

>  <REMARK>
 VINA RESULT:      -6.3      3.432      5.341
  Name = 
  8 active torsions:
  status: ('A' for Active; 'I' for Inactive)
    1  A    between atoms: O_2  and  C_22
    2  A    between atoms: C_5  and  C_10
    3  A    between atoms: C_5  and  C_14
    4  A    between atoms: C_8  and  C_19
    5  A    between atoms: C_8  and  N_20
    6  A    between atoms: C_9  and  C_13
    7  A    between atoms: C_13  and  C_14
    8  A    between atoms: C_23  and  C_27
                            x       y       z     vdW  Elec       q    Type
                         _______ _______ _______ _____ _____    ______ ____

>  <TORSDO>
F 8

$$$$
=
 OpenBabel11072414123D

 28 31  0  0  1  0  0  0  0  0999 V2000
  161.4630  207.7870  149.1250 C   0  0  2  0  0  3  0  0  0  0  0  0
  162.7070  207.6940  148.2600 C   0  0  0  0  0  1  0  0  0  0  0  0
  161.8730  207.9400  150.5870 C   0  0  1  0  0  3  0  0  0  0  0  0
  161.5420  210.3560  150.1020 O   0  0  0  0  0  1  0  0  0  0  0  0
  161.9050  209.3620  151.0210 C   0  0  1  0  0  0  0  0  0  0  0  0
  160.8210  208.5280  151.3330 O   0  0  0  0  0  0  0  0  0  0  0  0
  162.6930  209.7540  152.2600 C   0  0  0  0  0  2  0  0  0  0  0  0
  161.4910  209.0720  154.7540 O   0  0  0  0  0  0  0  0  0  0  0  0
  161.8940  210.6480  153.0800 N   0  0  0  0  0  2  0  0  0  0  0  0
  161.3110  210.2400  154.3180 C   0  0  0  0  0  0  0  0  0  0  0  0
  159.7700  212.1660  154.2390 C   0  0  0  0  0  2  0  0  0  0  0  0
  158.1050  211.7140  155.9690 C   0  0  2  0  0  3  0  0  0  0  0  0
  156.9570  211.2130  155.3490 O   0  0  0  0  0  1  0  0  0  0  0  0
  160.5280  211.2140  155.1360 C   0  0  1  0  0  3  0  0  0  0  0  0
  158.7170  212.8080  155.1100 C   0  0  0  0  0  2  0  0  0  0  0  0
  159.3180  210.3720  156.2020 S   0  0  0  0  0  0  0  0  0  0  0  0
  160.5990  206.5410  148.9420 C   0  0  0  0  0  2  0  0  0  0  0  0
  161.1130  205.3550  149.7560 C   0  0  0  0  0  2  0  0  0  0  0  0
  161.6130  202.9120  149.4740 C   0  0  0  0  0  2  0  0  0  0  0  0
  162.6880  204.6330  146.2830 C   0  0  0  0  0  3  0  0  0  0  0  0
  160.8020  202.6280  147.0690 C   0  0  0  0  0  3  0  0  0  0  0  0
  160.6080  204.0320  149.1840 C   0  0  2  0  0  3  0  0  0  0  0  0
  161.5000  203.4820  148.0800 C   0  0  1  0  0  0  0  0  0  0  0  0
  162.6740  204.2800  147.5770 C   0  0  0  0  0  3  0  0  0  0  0  0
  160.8340  202.9950  145.7790 C   0  0  0  0  0  0  0  0  0  0  0  0
  161.5320  204.2760  145.3670 C   0  0  0  0  0  2  0  0  0  0  0  0
  160.2010  202.2370  144.7870 O   0  0  0  0  0  0  0  0  0  0  0  0
  160.0110  200.8310  144.8890 C   0  0  0  0  0  1  0  0  0  0  0  0
  1  2  1  6  0  0  0
  3  1  1  6  0  0  0
  3  5  1  0  0  0  0
  3  6  1  0  0  0  0
  5  4  1  6  0  0  0
  5  6  1  0  0  0  0
  5  7  1  0  0  0  0
  7  9  1  0  0  0  0
  9 10  1  0  0  0  0
 10  8  2  0  0  0  0
 11 15  1  0  0  0  0
 11 14  1  0  0  0  0
 12 13  1  6  0  0  0
 12 16  1  0  0  0  0
 14 10  1  6  0  0  0
 14 16  1  0  0  0  0
 15 12  1  0  0  0  0
 17  1  1  0  0  0  0
 17 18  1  0  0  0  0
 20 24  2  0  0  0  0
 22 19  1  0  0  0  0
 22 18  1  1  0  0  0
 23 21  1  6  0  0  0
 23 22  1  0  0  0  0
 23 19  1  0  0  0  0
 24 23  1  0  0  0  0
 25 21  2  0  0  0  0
 26 25  1  0  0  0  0
 26 20  1  0  0  0  0
 27 28  1  0  0  0  0
 27 25  1  0  0  0  0
M  END
>  <MODEL>
9

>  <REMARK>
 VINA RESULT:      -6.2      3.132      9.905
  Name = 
  8 active torsions:
  status: ('A' for Active; 'I' for Inactive)
    1  A    between atoms: O_2  and  C_22
    2  A    between atoms: C_5  and  C_10
    3  A    between atoms: C_5  and  C_14
    4  A    between atoms: C_8  and  C_19
    5  A    between atoms: C_8  and  N_20
    6  A    between atoms: C_9  and  C_13
    7  A    between atoms: C_13  and  C_14
    8  A    between atoms: C_23  and  C_27
                            x       y       z     vdW  Elec       q    Type
                         _______ _______ _______ _____ _____    ______ ____

>  <TORSDO>
F 8

$$$$
